0
                    3D
 Structure written by MMmdl.
149157  0  0  1  0            999 V2000
  -30.6663  -14.7243   20.4402 C   0  0  0  0  0  0
  -30.4215  -12.4341   19.4878 C   0  0  0  0  0  0
  -29.5118  -12.4995   18.2418 C   0  0  0  0  0  0
  -28.0362  -12.3304   18.6501 C   0  0  0  0  0  0
  -27.6400  -13.2393   19.8438 C   0  0  2  0  0  0
  -28.6826  -13.1956   20.9805 C   0  0  0  0  0  0
  -25.2511  -13.8210   20.5709 C   0  0  0  0  0  0
  -24.1801  -13.0445   20.9208 C   0  0  0  0  0  0
  -24.6390  -11.6926   20.8730 C   0  0  0  0  0  0
  -23.9064  -10.4300   21.0386 C   0  0  0  0  0  0
  -24.3608   -9.4219   21.9171 C   0  0  0  0  0  0
  -23.6301   -8.2243   22.0740 C   0  0  0  0  0  0
  -22.4288   -8.0271   21.3528 C   0  0  0  0  0  0
  -21.9909   -9.0241   20.4635 C   0  0  0  0  0  0
  -22.7223  -10.2130   20.3051 C   0  0  0  0  0  0
  -21.6861   -6.0732   22.5282 C   0  0  0  0  0  0
  -21.4009   -6.5642   23.8212 C   0  0  0  0  0  0
  -21.3666   -5.6795   24.9174 C   0  0  0  0  0  0
  -21.6051   -4.3053   24.7220 C   0  0  0  0  0  0
  -21.8826   -3.8140   23.4346 C   0  0  0  0  0  0
  -21.9187   -4.6957   22.3404 C   0  0  0  0  0  0
  -22.7824  -13.5224   21.1883 C   0  0  0  0  0  0
  -22.1668   -4.2146   21.0977 F   0  0  0  0  0  0
  -21.5630   -3.4544   25.7731 F   0  0  0  0  0  0
  -29.9956  -13.5181   20.4064 N   0  0  0  0  0  0
  -26.2933  -12.9432   20.3252 N   0  0  0  0  0  0
  -25.9319  -11.6564   20.5712 N   0  0  0  0  0  0
  -22.0467  -12.8209   22.0441 N   0  0  0  0  0  0
  -25.4216  -15.1936   20.4172 N   0  0  0  0  0  0
  -31.8621  -14.7289   20.1365 O   0  0  0  0  0  0
  -21.6644   -6.8870   21.4240 O   0  0  0  0  0  0
  -22.3504  -14.5527   20.6724 O   0  0  0  0  0  0
  -24.6317  -31.8573   23.2018 C   0  0  0  0  0  0
  -25.9141  -32.4760   23.8357 C   0  0  1  0  0  0
  -27.2083  -27.2585   20.1176 C   0  0  0  0  0  0
  -25.5940  -33.8570   24.2268 N   0  0  0  0  0  0
  -23.4287  -30.4827   21.5485 C   0  0  2  0  0  0
  -24.8714  -28.9384   20.1123 C   0  0  0  0  0  0
  -22.7511  -29.4604   22.4937 C   0  0  0  0  0  0
  -18.0290  -28.1386   22.8498 C   0  0  0  0  0  0
  -24.1491  -36.7279   23.2635 C   0  0  0  0  0  0
  -25.9772  -30.7673   21.3848 C   0  0  0  0  0  0
  -26.0476  -29.3928   20.7204 C   0  0  0  0  0  0
  -27.2210  -28.5673   20.7121 C   0  0  0  0  0  0
  -26.0033  -26.8836   19.4732 C   0  0  0  0  0  0
  -24.8537  -27.6906   19.4794 C   0  0  0  0  0  0
  -23.6446  -29.8252   20.1629 C   0  0  0  0  0  0
  -25.4117  -36.3074   24.0330 C   0  0  1  0  0  0
  -20.5900  -28.3693   23.1283 C   0  0  2  0  0  0
  -20.6781  -26.9416   22.5414 C   0  0  0  0  0  0
  -19.5747  -26.6389   21.5224 C   0  0  0  0  0  0
  -18.1931  -26.7930   22.1639 C   0  0  0  0  0  0
  -19.1546  -28.8861   23.2879 C   0  0  0  0  0  0
  -18.9461  -30.1466   23.8890 C   0  0  0  0  0  0
  -17.6459  -30.6587   24.0568 C   0  0  0  0  0  0
  -25.9068  -34.9450   23.5100 C   0  0  0  0  0  0
  -16.5350  -29.9087   23.6333 C   0  0  0  0  0  0
  -16.7276  -28.6503   23.0357 C   0  0  0  0  0  0
  -26.4502  -31.6585   25.0744 C   0  0  0  0  0  0
  -25.3721  -31.3747   26.1460 C   0  0  0  0  0  0
  -27.0335  -30.2998   24.6237 C   0  0  0  0  0  0
  -27.6063  -32.4326   25.7504 C   0  0  0  0  0  0
  -27.5601  -37.1771   24.8443 C   0  0  0  0  0  0
  -21.4221  -29.3035   22.3677 N   0  0  0  0  0  0
  -26.4279  -37.3790   23.9439 N   0  0  0  0  0  0
  -24.6987  -31.0526   22.1010 N   0  0  0  0  0  0
  -23.4215  -28.8139   23.3029 O   0  0  0  0  0  0
  -28.2845  -26.3353   20.1843 O   0  0  0  0  0  0
  -26.5654  -34.8928   22.4678 O   0  0  0  0  0  0
  -23.5464  -32.1401   23.7296 O   0  0  0  0  0  0
  -30.7308  -21.0858   20.6354 C   0  0  0  0  0  0
  -31.2202  -19.7215   20.7013 C   0  0  0  0  0  0
  -30.2589  -18.7349   20.5330 C   0  0  0  0  0  0
  -29.3798  -21.2396   20.4146 C   0  0  0  0  0  0
  -30.5447  -17.2618   20.5070 C   0  0  0  0  0  0
  -29.9168  -16.0283   20.6223 C   0  0  0  0  0  0
  -28.9362  -23.6685   20.3072 C   0  0  0  0  0  0
  -32.6801  -19.4334   20.9187 C   0  0  0  0  0  0
  -27.9356  -24.8785   20.0120 C   0  0  0  0  0  0
  -28.5758  -22.4014   20.2474 N   0  0  0  0  0  0
  -28.6961  -19.5735   20.3360 S   0  0  0  0  0  0
  -31.4687  -12.5162   19.1922 H   0  0  0  0  0  0
  -30.3299  -11.4635   19.9777 H   0  0  0  0  0  0
  -29.7963  -11.7245   17.5285 H   0  0  0  0  0  0
  -29.6491  -13.4542   17.7321 H   0  0  0  0  0  0
  -27.8932  -11.2841   18.9198 H   0  0  0  0  0  0
  -27.3802  -12.5156   17.7989 H   0  0  0  0  0  0
  -27.6311  -14.2575   19.4537 H   0  0  0  0  0  0
  -28.7065  -12.2102   21.4472 H   0  0  0  0  0  0
  -28.4188  -13.8988   21.7710 H   0  0  0  0  0  0
  -25.2750   -9.5721   22.4741 H   0  0  0  0  0  0
  -24.0032   -7.4641   22.7440 H   0  0  0  0  0  0
  -21.0847   -8.8742   19.8947 H   0  0  0  0  0  0
  -22.3663  -10.9656   19.6161 H   0  0  0  0  0  0
  -21.2010   -7.6142   23.9729 H   0  0  0  0  0  0
  -21.1486   -6.0509   25.9087 H   0  0  0  0  0  0
  -22.0595   -2.7604   23.2833 H   0  0  0  0  0  0
  -22.4081  -11.9893   22.4864 H   0  0  0  0  0  0
  -21.1068  -13.1206   22.2617 H   0  0  0  0  0  0
  -24.6590  -15.8493   20.5446 H   0  0  0  0  0  0
  -26.2802  -15.6374   20.1166 H   0  0  0  0  0  0
  -26.7203  -32.5404   23.1090 H   0  0  0  0  0  0
  -25.0042  -33.9721   25.0381 H   0  0  0  0  0  0
  -22.7252  -31.3061   21.4072 H   0  0  0  0  0  0
  -23.3783  -35.9573   23.3224 H   0  0  0  0  0  0
  -24.3596  -36.8977   22.2063 H   0  0  0  0  0  0
  -23.7193  -37.6442   23.6702 H   0  0  0  0  0  0
  -26.1187  -31.5300   20.6180 H   0  0  0  0  0  0
  -26.8556  -30.8120   22.0177 H   0  0  0  0  0  0
  -28.1201  -28.9074   21.2066 H   0  0  0  0  0  0
  -25.8948  -25.9373   18.9667 H   0  0  0  0  0  0
  -23.9512  -27.3373   18.9983 H   0  0  0  0  0  0
  -23.7721  -30.6042   19.4101 H   0  0  0  0  0  0
  -22.7618  -29.2619   19.8555 H   0  0  0  0  0  0
  -25.1281  -36.1913   25.0821 H   0  0  0  0  0  0
  -20.9991  -28.3250   24.1406 H   0  0  0  0  0  0
  -20.5696  -26.2298   23.3612 H   0  0  0  0  0  0
  -21.6642  -26.7453   22.1196 H   0  0  0  0  0  0
  -19.6913  -25.6303   21.1242 H   0  0  0  0  0  0
  -19.6676  -27.3209   20.6762 H   0  0  0  0  0  0
  -17.4209  -26.6693   21.4030 H   0  0  0  0  0  0
  -18.0318  -26.0063   22.9028 H   0  0  0  0  0  0
  -19.7935  -30.7298   24.2243 H   0  0  0  0  0  0
  -17.5007  -31.6263   24.5177 H   0  0  0  0  0  0
  -15.5348  -30.2987   23.7661 H   0  0  0  0  0  0
  -15.8672  -28.0826   22.7068 H   0  0  0  0  0  0
  -24.5852  -30.7159   25.7760 H   0  0  0  0  0  0
  -24.8961  -32.2930   26.4918 H   0  0  0  0  0  0
  -25.8011  -30.8865   27.0218 H   0  0  0  0  0  0
  -26.2918  -29.6753   24.1243 H   0  0  0  0  0  0
  -27.3983  -29.7248   25.4754 H   0  0  0  0  0  0
  -27.8814  -30.4242   23.9499 H   0  0  0  0  0  0
  -27.2676  -33.3621   26.2088 H   0  0  0  0  0  0
  -28.3861  -32.6908   25.0326 H   0  0  0  0  0  0
  -28.0752  -31.8461   26.5409 H   0  0  0  0  0  0
  -28.2533  -38.0156   24.7639 H   0  0  0  0  0  0
  -28.1195  -36.2706   24.6074 H   0  0  0  0  0  0
  -27.2355  -37.1169   25.8848 H   0  0  0  0  0  0
  -20.9420  -29.8741   21.6862 H   0  0  0  0  0  0
  -26.0149  -38.2845   24.1533 H   0  0  0  0  0  0
  -31.4142  -21.9176   20.7379 H   0  0  0  0  0  0
  -31.5970  -17.1342   20.2987 H   0  0  0  0  0  0
  -28.8578  -16.0055   20.8273 H   0  0  0  0  0  0
  -29.9587  -23.9730   20.5467 H   0  0  0  0  0  0
  -33.2415  -20.3352   21.1640 H   0  0  0  0  0  0
  -33.1375  -19.0043   20.0267 H   0  0  0  0  0  0
  -32.8315  -18.7319   21.7395 H   0  0  0  0  0  0
  -27.0533  -24.6809   20.6211 H   0  0  0  0  0  0
  -27.6344  -24.7373   18.9748 H   0  0  0  0  0  0
  1 25  1  0  0  0
  1 30  2  0  0  0
  1 76  1  0  0  0
  2  3  1  0  0  0
  2 25  1  0  0  0
  2 82  1  0  0  0
  2 83  1  0  0  0
  3  4  1  0  0  0
  3 84  1  0  0  0
  3 85  1  0  0  0
  4  5  1  0  0  0
  4 86  1  0  0  0
  4 87  1  0  0  0
  5  6  1  0  0  0
  5 26  1  0  0  0
  5 88  1  0  0  0
  6 25  1  0  0  0
  6 89  1  0  0  0
  6 90  1  0  0  0
  7  8  2  0  0  0
  7 26  1  0  0  0
  7 29  1  0  0  0
  8  9  1  0  0  0
  8 22  1  0  0  0
  9 10  1  0  0  0
  9 27  2  0  0  0
 10 11  2  0  0  0
 10 15  1  0  0  0
 11 12  1  0  0  0
 11 91  1  0  0  0
 12 13  2  0  0  0
 12 92  1  0  0  0
 13 14  1  0  0  0
 13 31  1  0  0  0
 14 15  2  0  0  0
 14 93  1  0  0  0
 15 94  1  0  0  0
 16 17  2  0  0  0
 16 21  1  0  0  0
 16 31  1  0  0  0
 17 18  1  0  0  0
 17 95  1  0  0  0
 18 19  2  0  0  0
 18 96  1  0  0  0
 19 20  1  0  0  0
 19 24  1  0  0  0
 20 21  2  0  0  0
 20 97  1  0  0  0
 21 23  1  0  0  0
 22 28  1  0  0  0
 22 32  2  0  0  0
 26 27  1  0  0  0
 28 98  1  0  0  0
 28 99  1  0  0  0
 29100  1  0  0  0
 29101  1  0  0  0
 33 34  1  0  0  0
 33 66  1  0  0  0
 33 70  2  0  0  0
 34 36  1  0  0  0
 34 59  1  0  0  0
 34102  1  0  0  0
 35 44  2  0  0  0
 35 45  1  0  0  0
 35 68  1  0  0  0
 36 56  1  0  0  0
 36103  1  0  0  0
 37 39  1  0  0  0
 37 47  1  0  0  0
 37 66  1  0  0  0
 37104  1  0  0  0
 38 43  2  0  0  0
 38 46  1  0  0  0
 38 47  1  0  0  0
 39 64  1  0  0  0
 39 67  2  0  0  0
 40 52  1  0  0  0
 40 53  2  0  0  0
 40 58  1  0  0  0
 41105  1  0  0  0
 41106  1  0  0  0
 41107  1  0  0  0
 41 48  1  0  0  0
 42 43  1  0  0  0
 42 66  1  0  0  0
 42108  1  0  0  0
 42109  1  0  0  0
 43 44  1  0  0  0
 44110  1  0  0  0
 45 46  2  0  0  0
 45111  1  0  0  0
 46112  1  0  0  0
 47113  1  0  0  0
 47114  1  0  0  0
 48 56  1  0  0  0
 48 65  1  0  0  0
 48115  1  0  0  0
 49 50  1  0  0  0
 49 53  1  0  0  0
 49 64  1  0  0  0
 49116  1  0  0  0
 50 51  1  0  0  0
 50117  1  0  0  0
 50118  1  0  0  0
 51 52  1  0  0  0
 51119  1  0  0  0
 51120  1  0  0  0
 52121  1  0  0  0
 52122  1  0  0  0
 53 54  1  0  0  0
 54 55  2  0  0  0
 54123  1  0  0  0
 55 57  1  0  0  0
 55124  1  0  0  0
 56 69  2  0  0  0
 57 58  2  0  0  0
 57125  1  0  0  0
 58126  1  0  0  0
 59 60  1  0  0  0
 59 61  1  0  0  0
 59 62  1  0  0  0
 60127  1  0  0  0
 60128  1  0  0  0
 60129  1  0  0  0
 61130  1  0  0  0
 61131  1  0  0  0
 61132  1  0  0  0
 62133  1  0  0  0
 62134  1  0  0  0
 62135  1  0  0  0
 63 65  1  0  0  0
 63136  1  0  0  0
 63137  1  0  0  0
 63138  1  0  0  0
 64139  1  0  0  0
 65140  1  0  0  0
 68 79  1  0  0  0
 71 72  1  0  0  0
 71 74  2  0  0  0
 71141  1  0  0  0
 72 73  2  0  0  0
 72 78  1  0  0  0
 73 75  1  0  0  0
 73 81  1  0  0  0
 74 80  1  0  0  0
 74 81  1  0  0  0
 75 76  2  0  0  0
 75142  1  0  0  0
 76143  1  0  0  0
 77 79  1  0  0  0
 77 80  2  0  0  0
 77144  1  0  0  0
 78145  1  0  0  0
 78146  1  0  0  0
 78147  1  0  0  0
 79148  1  0  0  0
 79149  1  0  0  0
M  ISO  4   1 100  68 101  76 100  79 101
M  END
> <chiral flag>
0

> <version>
0

> <s_m_source_file>
/data/baiqing/PycharmProjects/Reinvent-master-3.2/result/LINK_invent/BTK/process_docking_weight1_custom_product_contain_oxygen_bond_distance_aromatic_linkinvent_7_9_3/rearranged_h_0116.sdf

> <i_m_source_file_index>
1

> <r_mmod_Potential_Energy-OPLS-2005>
191.535629272461

> <r_mmod_Stretch_Energy-OPLS-2005>
111.262130737305

> <r_mmod_Bend_Energy-OPLS-2005>
189.218765258789

> <r_mmod_Torsional_Energy-OPLS-2005>
181.354446411133

> <r_mmod_Improper_Torsional_Energy-OPLS-2005>
4.55930280685425

> <r_mmod_Van_der_Waal_Energy-OPLS-2005>
132.96076965332

> <r_mmod_Electrostatic_Energy-OPLS-2005>
-311.012908935547

> <r_mmod_Solvation_Energy-OPLS-2005>
-202.771209716797

> <b_mmod_Minimization_Converged-OPLS-2005>
0

> <r_mmod_RMS_Derivative-OPLS-2005>
2.14214706420898

$$$$
1
                    3D
 Structure written by MMmdl.
164172  0  0  1  0            999 V2000
  -30.6241  -14.7470   20.5595 C   0  0  0  0  0  0
  -30.4423  -12.4832   19.4747 C   0  0  0  0  0  0
  -29.5082  -12.5368   18.2443 C   0  0  0  0  0  0
  -28.0364  -12.3479   18.6612 C   0  0  0  0  0  0
  -27.6525  -13.2280   19.8808 C   0  0  2  0  0  0
  -28.7050  -13.0896   21.0058 C   0  0  0  0  0  0
  -25.2411  -13.8108   20.5424 C   0  0  0  0  0  0
  -24.1766  -13.0387   20.9139 C   0  0  0  0  0  0
  -24.6402  -11.6889   20.8792 C   0  0  0  0  0  0
  -23.9070  -10.4274   21.0436 C   0  0  0  0  0  0
  -24.3620   -9.4189   21.9208 C   0  0  0  0  0  0
  -23.6290   -8.2224   22.0766 C   0  0  0  0  0  0
  -22.4274   -8.0266   21.3549 C   0  0  0  0  0  0
  -21.9915   -9.0244   20.4653 C   0  0  0  0  0  0
  -22.7246  -10.2124   20.3072 C   0  0  0  0  0  0
  -21.6855   -6.0724   22.5278 C   0  0  0  0  0  0
  -21.4012   -6.5633   23.8208 C   0  0  0  0  0  0
  -21.3654   -5.6785   24.9170 C   0  0  0  0  0  0
  -21.6045   -4.3048   24.7225 C   0  0  0  0  0  0
  -21.8821   -3.8139   23.4344 C   0  0  0  0  0  0
  -21.9196   -4.6952   22.3401 C   0  0  0  0  0  0
  -22.7791  -13.5182   21.1816 C   0  0  0  0  0  0
  -22.1663   -4.2137   21.0979 F   0  0  0  0  0  0
  -21.5631   -3.4536   25.7736 F   0  0  0  0  0  0
  -29.9972  -13.5128   20.4541 N   0  0  0  0  0  0
  -26.2980  -12.9375   20.3428 N   0  0  0  0  0  0
  -25.9366  -11.6523   20.5935 N   0  0  0  0  0  0
  -22.0472  -12.8197   22.0419 N   0  0  0  0  0  0
  -25.3834  -15.1744   20.3258 N   0  0  0  0  0  0
  -31.7111  -14.9081   19.9911 O   0  0  0  0  0  0
  -21.6644   -6.8866   21.4235 O   0  0  0  0  0  0
  -22.3456  -14.5487   20.6682 O   0  0  0  0  0  0
  -24.6307  -31.8535   23.1960 C   0  0  0  0  0  0
  -25.9128  -32.4756   23.8304 C   0  0  1  0  0  0
  -27.2333  -27.2677   20.1356 C   0  0  0  0  0  0
  -25.5934  -33.8560   24.2235 N   0  0  0  0  0  0
  -23.4285  -30.4732   21.5389 C   0  0  2  0  0  0
  -24.8790  -28.9152   20.1146 C   0  0  0  0  0  0
  -22.7514  -29.4568   22.4905 C   0  0  0  0  0  0
  -18.0297  -28.1357   22.8479 C   0  0  0  0  0  0
  -24.1498  -36.7277   23.2644 C   0  0  0  0  0  0
  -25.9734  -30.7704   21.3723 C   0  0  0  0  0  0
  -26.0504  -29.3915   20.7180 C   0  0  0  0  0  0
  -27.2329  -28.5843   20.7090 C   0  0  0  0  0  0
  -26.0370  -26.8507   19.5136 C   0  0  0  0  0  0
  -24.8775  -27.6515   19.5016 C   0  0  0  0  0  0
  -23.6487  -29.8022   20.1570 C   0  0  0  0  0  0
  -25.4125  -36.3071   24.0331 C   0  0  1  0  0  0
  -20.5903  -28.3663   23.1263 C   0  0  2  0  0  0
  -20.6787  -26.9383   22.5395 C   0  0  0  0  0  0
  -19.5760  -26.6349   21.5203 C   0  0  0  0  0  0
  -18.1935  -26.7897   22.1611 C   0  0  0  0  0  0
  -19.1555  -28.8828   23.2868 C   0  0  0  0  0  0
  -18.9480  -30.1438   23.8873 C   0  0  0  0  0  0
  -17.6483  -30.6562   24.0561 C   0  0  0  0  0  0
  -25.9062  -34.9442   23.5080 C   0  0  0  0  0  0
  -16.5372  -29.9060   23.6337 C   0  0  0  0  0  0
  -16.7287  -28.6485   23.0345 C   0  0  0  0  0  0
  -26.4498  -31.6583   25.0694 C   0  0  0  0  0  0
  -25.3730  -31.3733   26.1427 C   0  0  0  0  0  0
  -27.0359  -30.3006   24.6171 C   0  0  0  0  0  0
  -27.6039  -32.4338   25.7469 C   0  0  0  0  0  0
  -27.5585  -37.1794   24.8473 C   0  0  0  0  0  0
  -21.4217  -29.3014   22.3666 N   0  0  0  0  0  0
  -26.4296  -37.3776   23.9418 N   0  0  0  0  0  0
  -24.6965  -31.0507   22.0920 N   0  0  0  0  0  0
  -23.4222  -28.8105   23.2996 O   0  0  0  0  0  0
  -28.3420  -26.3920   20.1372 O   0  0  0  0  0  0
  -26.5636  -34.8922   22.4651 O   0  0  0  0  0  0
  -23.5449  -32.1332   23.7255 O   0  0  0  0  0  0
  -27.0558  -18.3192   21.0913 C   0  0  0  0  0  0
  -29.7750  -18.4934   20.6780 C   0  0  0  0  0  0
  -27.8790  -17.2482   21.5109 C   0  0  0  0  0  0
  -29.2608  -17.1991   21.1335 C   0  0  0  0  0  0
  -27.5632  -19.5095   20.5316 C   0  0  0  0  0  0
  -28.9629  -19.6983   20.4812 C   0  0  0  0  0  0
  -26.1746  -16.5156   23.2317 C   0  0  0  0  0  0
  -23.6968  -22.1216   19.4638 C   0  0  0  0  0  0
  -27.2731  -16.3018   22.4818 C   0  0  0  0  0  0
  -24.7269  -21.3631   19.0552 C   0  0  0  0  0  0
  -30.1086  -15.9227   21.5316 C   0  0  0  0  0  0
  -25.3581  -20.2514   19.8666 C   0  0  0  0  0  0
  -28.9055  -23.6899   19.9723 C   0  0  0  0  0  0
  -28.1740  -24.9810   20.6368 C   0  0  0  0  0  0
  -28.9044  -22.2663   20.7607 C   0  0  0  0  0  0
  -30.4541  -15.8315   22.7489 N   0  0  0  0  0  0
  -26.7454  -20.5091   20.0422 O   0  0  0  0  0  0
  -29.4701  -20.9995   20.1640 O   0  0  0  0  0  0
  -31.4783  -12.6224   19.1625 H   0  0  0  0  0  0
  -30.4162  -11.4918   19.9303 H   0  0  0  0  0  0
  -29.7919  -11.7684   17.5232 H   0  0  0  0  0  0
  -29.6246  -13.4949   17.7356 H   0  0  0  0  0  0
  -27.8997  -11.2949   18.9137 H   0  0  0  0  0  0
  -27.3709  -12.5457   17.8203 H   0  0  0  0  0  0
  -27.6665  -14.2635   19.5397 H   0  0  0  0  0  0
  -28.7588  -12.0529   21.3412 H   0  0  0  0  0  0
  -28.4480  -13.6413   21.8977 H   0  0  0  0  0  0
  -25.2758   -9.5669   22.4795 H   0  0  0  0  0  0
  -23.9995   -7.4615   22.7490 H   0  0  0  0  0  0
  -21.0846   -8.8761   19.8961 H   0  0  0  0  0  0
  -22.3698  -10.9664   19.6190 H   0  0  0  0  0  0
  -21.2000   -7.6142   23.9704 H   0  0  0  0  0  0
  -21.1474   -6.0520   25.9073 H   0  0  0  0  0  0
  -22.0607   -2.7599   23.2850 H   0  0  0  0  0  0
  -22.4109  -11.9849   22.4777 H   0  0  0  0  0  0
  -21.1111  -13.1234   22.2690 H   0  0  0  0  0  0
  -24.6133  -15.8177   20.4618 H   0  0  0  0  0  0
  -26.2476  -15.6343   20.0747 H   0  0  0  0  0  0
  -26.7192  -32.5411   23.1038 H   0  0  0  0  0  0
  -25.0137  -33.9691   25.0420 H   0  0  0  0  0  0
  -22.7247  -31.2944   21.3891 H   0  0  0  0  0  0
  -23.3771  -35.9596   23.3300 H   0  0  0  0  0  0
  -24.3602  -36.8897   22.2063 H   0  0  0  0  0  0
  -23.7211  -37.6458   23.6673 H   0  0  0  0  0  0
  -26.1129  -31.5294   20.6009 H   0  0  0  0  0  0
  -26.8493  -30.8192   22.0073 H   0  0  0  0  0  0
  -28.1343  -28.9527   21.1779 H   0  0  0  0  0  0
  -25.9913  -25.8794   19.0403 H   0  0  0  0  0  0
  -23.9799  -27.2781   19.0257 H   0  0  0  0  0  0
  -23.7753  -30.5757   19.3990 H   0  0  0  0  0  0
  -22.7666  -29.2360   19.8526 H   0  0  0  0  0  0
  -25.1298  -36.1924   25.0820 H   0  0  0  0  0  0
  -21.0005  -28.3222   24.1380 H   0  0  0  0  0  0
  -20.5675  -26.2268   23.3594 H   0  0  0  0  0  0
  -21.6654  -26.7376   22.1203 H   0  0  0  0  0  0
  -19.6934  -25.6259   21.1227 H   0  0  0  0  0  0
  -19.6710  -27.3176   20.6751 H   0  0  0  0  0  0
  -17.4218  -26.6653   21.4009 H   0  0  0  0  0  0
  -18.0335  -26.0018   22.8987 H   0  0  0  0  0  0
  -19.7966  -30.7256   24.2214 H   0  0  0  0  0  0
  -17.5044  -31.6249   24.5151 H   0  0  0  0  0  0
  -15.5371  -30.2966   23.7656 H   0  0  0  0  0  0
  -15.8688  -28.0807   22.7048 H   0  0  0  0  0  0
  -24.5898  -30.7090   25.7759 H   0  0  0  0  0  0
  -24.8944  -32.2914   26.4852 H   0  0  0  0  0  0
  -25.8053  -30.8906   27.0202 H   0  0  0  0  0  0
  -26.2935  -29.6738   24.1215 H   0  0  0  0  0  0
  -27.4078  -29.7285   25.4676 H   0  0  0  0  0  0
  -27.8799  -30.4298   23.9390 H   0  0  0  0  0  0
  -27.2633  -33.3652   26.2005 H   0  0  0  0  0  0
  -28.3866  -32.6869   25.0310 H   0  0  0  0  0  0
  -28.0690  -31.8492   26.5414 H   0  0  0  0  0  0
  -28.2589  -38.0108   24.7537 H   0  0  0  0  0  0
  -28.1075  -36.2627   24.6265 H   0  0  0  0  0  0
  -27.2309  -37.1411   25.8879 H   0  0  0  0  0  0
  -20.9397  -29.8768   21.6906 H   0  0  0  0  0  0
  -26.0171  -38.2842   24.1430 H   0  0  0  0  0  0
  -25.9948  -18.2392   21.2632 H   0  0  0  0  0  0
  -30.8432  -18.5807   20.5417 H   0  0  0  0  0  0
  -25.8129  -15.7478   23.9004 H   0  0  0  0  0  0
  -25.6139  -17.4382   23.2087 H   0  0  0  0  0  0
  -23.2915  -22.8992   18.8307 H   0  0  0  0  0  0
  -23.2411  -21.9792   20.4339 H   0  0  0  0  0  0
  -27.7370  -15.3488   22.6197 H   0  0  0  0  0  0
  -25.1556  -21.5332   18.0772 H   0  0  0  0  0  0
  -25.2036  -19.3153   19.3287 H   0  0  0  0  0  0
  -24.8625  -20.1755   20.8350 H   0  0  0  0  0  0
  -29.9439  -23.9542   19.7730 H   0  0  0  0  0  0
  -28.4552  -23.5295   18.9928 H   0  0  0  0  0  0
  -28.5137  -25.0215   21.6724 H   0  0  0  0  0  0
  -27.1129  -24.7441   20.7151 H   0  0  0  0  0  0
  -27.9061  -22.1210   21.1616 H   0  0  0  0  0  0
  -29.4982  -22.4232   21.6617 H   0  0  0  0  0  0
  -30.1044  -16.6172   23.2838 H   0  0  0  0  0  0
  1 25  1  0  0  0
  1 30  2  0  0  0
  1 81  1  0  0  0
  2  3  1  0  0  0
  2 25  1  0  0  0
  2 89  1  0  0  0
  2 90  1  0  0  0
  3  4  1  0  0  0
  3 91  1  0  0  0
  3 92  1  0  0  0
  4  5  1  0  0  0
  4 93  1  0  0  0
  4 94  1  0  0  0
  5  6  1  0  0  0
  5 26  1  0  0  0
  5 95  1  0  0  0
  6 25  1  0  0  0
  6 96  1  0  0  0
  6 97  1  0  0  0
  7  8  2  0  0  0
  7 26  1  0  0  0
  7 29  1  0  0  0
  8  9  1  0  0  0
  8 22  1  0  0  0
  9 10  1  0  0  0
  9 27  2  0  0  0
 10 11  2  0  0  0
 10 15  1  0  0  0
 11 12  1  0  0  0
 11 98  1  0  0  0
 12 13  2  0  0  0
 12 99  1  0  0  0
 13 14  1  0  0  0
 13 31  1  0  0  0
 14 15  2  0  0  0
 14100  1  0  0  0
 15101  1  0  0  0
 16 17  2  0  0  0
 16 21  1  0  0  0
 16 31  1  0  0  0
 17 18  1  0  0  0
 17102  1  0  0  0
 18 19  2  0  0  0
 18103  1  0  0  0
 19 20  1  0  0  0
 19 24  1  0  0  0
 20 21  2  0  0  0
 20104  1  0  0  0
 21 23  1  0  0  0
 22 28  1  0  0  0
 22 32  2  0  0  0
 26 27  1  0  0  0
 28105  1  0  0  0
 28106  1  0  0  0
 29107  1  0  0  0
 29108  1  0  0  0
 33 34  1  0  0  0
 33 66  1  0  0  0
 33 70  2  0  0  0
 34 36  1  0  0  0
 34 59  1  0  0  0
 34109  1  0  0  0
 35 44  2  0  0  0
 35 45  1  0  0  0
 35 68  1  0  0  0
 36 56  1  0  0  0
 36110  1  0  0  0
 37 39  1  0  0  0
 37 47  1  0  0  0
 37 66  1  0  0  0
 37111  1  0  0  0
 38 43  2  0  0  0
 38 46  1  0  0  0
 38 47  1  0  0  0
 39 64  1  0  0  0
 39 67  2  0  0  0
 40 52  1  0  0  0
 40 53  2  0  0  0
 40 58  1  0  0  0
 41112  1  0  0  0
 41113  1  0  0  0
 41114  1  0  0  0
 41 48  1  0  0  0
 42 43  1  0  0  0
 42 66  1  0  0  0
 42115  1  0  0  0
 42116  1  0  0  0
 43 44  1  0  0  0
 44117  1  0  0  0
 45 46  2  0  0  0
 45118  1  0  0  0
 46119  1  0  0  0
 47120  1  0  0  0
 47121  1  0  0  0
 48 56  1  0  0  0
 48 65  1  0  0  0
 48122  1  0  0  0
 49 50  1  0  0  0
 49 53  1  0  0  0
 49 64  1  0  0  0
 49123  1  0  0  0
 50 51  1  0  0  0
 50124  1  0  0  0
 50125  1  0  0  0
 51 52  1  0  0  0
 51126  1  0  0  0
 51127  1  0  0  0
 52128  1  0  0  0
 52129  1  0  0  0
 53 54  1  0  0  0
 54 55  2  0  0  0
 54130  1  0  0  0
 55 57  1  0  0  0
 55131  1  0  0  0
 56 69  2  0  0  0
 57 58  2  0  0  0
 57132  1  0  0  0
 58133  1  0  0  0
 59 60  1  0  0  0
 59 61  1  0  0  0
 59 62  1  0  0  0
 60134  1  0  0  0
 60135  1  0  0  0
 60136  1  0  0  0
 61137  1  0  0  0
 61138  1  0  0  0
 61139  1  0  0  0
 62140  1  0  0  0
 62141  1  0  0  0
 62142  1  0  0  0
 63 65  1  0  0  0
 63143  1  0  0  0
 63144  1  0  0  0
 63145  1  0  0  0
 64146  1  0  0  0
 65147  1  0  0  0
 68 84  1  0  0  0
 71 73  2  0  0  0
 71 75  1  0  0  0
 71148  1  0  0  0
 72 74  2  0  0  0
 72 76  1  0  0  0
 72149  1  0  0  0
 73 74  1  0  0  0
 73 79  1  0  0  0
 74 81  1  0  0  0
 75 76  2  0  0  0
 75 87  1  0  0  0
 76 88  1  0  0  0
 77 79  2  0  0  0
 77150  1  0  0  0
 77151  1  0  0  0
 78 80  2  0  0  0
 78152  1  0  0  0
 78153  1  0  0  0
 79154  1  0  0  0
 80 82  1  0  0  0
 80155  1  0  0  0
 81 86  2  0  0  0
 82 87  1  0  0  0
 82156  1  0  0  0
 82157  1  0  0  0
 83 84  1  0  0  0
 83 85  1  0  0  0
 83158  1  0  0  0
 83159  1  0  0  0
 84160  1  0  0  0
 84161  1  0  0  0
 85 88  1  0  0  0
 85162  1  0  0  0
 85163  1  0  0  0
 86164  1  0  0  0
M  ISO  4   1 100  68 101  81 100  84 101
M  END
> <chiral flag>
0

> <version>
0

> <s_m_source_file>
/data/baiqing/PycharmProjects/Reinvent-master-3.2/result/LINK_invent/BTK/process_docking_weight1_custom_product_contain_oxygen_bond_distance_aromatic_linkinvent_7_9_3/rearranged_h_0116.sdf

> <i_m_source_file_index>
2

> <r_mmod_Potential_Energy-OPLS-2005>
470.112426757812

> <r_mmod_Stretch_Energy-OPLS-2005>
158.920196533203

> <r_mmod_Bend_Energy-OPLS-2005>
218.237152099609

> <r_mmod_Torsional_Energy-OPLS-2005>
292.462188720703

> <r_mmod_Improper_Torsional_Energy-OPLS-2005>
6.6115288734436

> <r_mmod_Van_der_Waal_Energy-OPLS-2005>
150.611450195312

> <r_mmod_Electrostatic_Energy-OPLS-2005>
-232.749710083008

> <r_mmod_Solvation_Energy-OPLS-2005>
-203.571762084961

> <b_mmod_Minimization_Converged-OPLS-2005>
0

> <r_mmod_RMS_Derivative-OPLS-2005>
1.84286177158356

$$$$
2
                    3D
 Structure written by MMmdl.
165174  0  0  1  0            999 V2000
  -30.5892  -14.6652   20.4800 C   0  0  0  0  0  0
  -30.4424  -12.4037   19.4581 C   0  0  0  0  0  0
  -29.5113  -12.5151   18.2290 C   0  0  0  0  0  0
  -28.0330  -12.3497   18.6382 C   0  0  0  0  0  0
  -27.6531  -13.2179   19.8671 C   0  0  2  0  0  0
  -28.6974  -13.0676   20.9948 C   0  0  0  0  0  0
  -25.2580  -13.8178   20.5715 C   0  0  0  0  0  0
  -24.1839  -13.0445   20.9206 C   0  0  0  0  0  0
  -24.6392  -11.6910   20.8754 C   0  0  0  0  0  0
  -23.9056  -10.4294   21.0414 C   0  0  0  0  0  0
  -24.3607   -9.4207   21.9198 C   0  0  0  0  0  0
  -23.6281   -8.2249   22.0757 C   0  0  0  0  0  0
  -22.4269   -8.0282   21.3530 C   0  0  0  0  0  0
  -21.9900   -9.0262   20.4647 C   0  0  0  0  0  0
  -22.7229  -10.2149   20.3058 C   0  0  0  0  0  0
  -21.6854   -6.0735   22.5274 C   0  0  0  0  0  0
  -21.4014   -6.5642   23.8212 C   0  0  0  0  0  0
  -21.3657   -5.6793   24.9172 C   0  0  0  0  0  0
  -21.6045   -4.3057   24.7216 C   0  0  0  0  0  0
  -21.8821   -3.8144   23.4342 C   0  0  0  0  0  0
  -21.9195   -4.6963   22.3395 C   0  0  0  0  0  0
  -22.7853  -13.5248   21.1852 C   0  0  0  0  0  0
  -22.1667   -4.2140   21.0970 F   0  0  0  0  0  0
  -21.5616   -3.4546   25.7734 F   0  0  0  0  0  0
  -30.0097  -13.4228   20.4354 N   0  0  0  0  0  0
  -26.2994  -12.9354   20.3349 N   0  0  0  0  0  0
  -25.9323  -11.6505   20.5784 N   0  0  0  0  0  0
  -22.0463  -12.8267   22.0406 N   0  0  0  0  0  0
  -25.4320  -15.1894   20.4108 N   0  0  0  0  0  0
  -31.7577  -14.8322   20.1195 O   0  0  0  0  0  0
  -21.6629   -6.8885   21.4237 O   0  0  0  0  0  0
  -22.3560  -14.5547   20.6683 O   0  0  0  0  0  0
  -24.6274  -31.8577   23.2009 C   0  0  0  0  0  0
  -25.9117  -32.4763   23.8338 C   0  0  1  0  0  0
  -27.2287  -27.3096   20.1021 C   0  0  0  0  0  0
  -25.5929  -33.8560   24.2262 N   0  0  0  0  0  0
  -23.4223  -30.4796   21.5438 C   0  0  2  0  0  0
  -24.8694  -28.9361   20.1062 C   0  0  0  0  0  0
  -22.7480  -29.4605   22.4928 C   0  0  0  0  0  0
  -18.0288  -28.1392   22.8490 C   0  0  0  0  0  0
  -24.1483  -36.7277   23.2637 C   0  0  0  0  0  0
  -25.9636  -30.7825   21.3757 C   0  0  0  0  0  0
  -26.0362  -29.4096   20.7174 C   0  0  0  0  0  0
  -27.2135  -28.6019   20.7169 C   0  0  0  0  0  0
  -26.0367  -26.8937   19.4759 C   0  0  0  0  0  0
  -24.8699  -27.6820   19.4788 C   0  0  0  0  0  0
  -23.6368  -29.8155   20.1583 C   0  0  0  0  0  0
  -25.4110  -36.3068   24.0324 C   0  0  1  0  0  0
  -20.5884  -28.3690   23.1287 C   0  0  2  0  0  0
  -20.6778  -26.9418   22.5408 C   0  0  0  0  0  0
  -19.5752  -26.6390   21.5216 C   0  0  0  0  0  0
  -18.1934  -26.7939   22.1630 C   0  0  0  0  0  0
  -19.1543  -28.8859   23.2884 C   0  0  0  0  0  0
  -18.9465  -30.1469   23.8896 C   0  0  0  0  0  0
  -17.6462  -30.6593   24.0574 C   0  0  0  0  0  0
  -25.9054  -34.9441   23.5098 C   0  0  0  0  0  0
  -16.5354  -29.9095   23.6342 C   0  0  0  0  0  0
  -16.7272  -28.6514   23.0358 C   0  0  0  0  0  0
  -26.4502  -31.6577   25.0710 C   0  0  0  0  0  0
  -25.3733  -31.3728   26.1436 C   0  0  0  0  0  0
  -27.0348  -30.2995   24.6181 C   0  0  0  0  0  0
  -27.6057  -32.4314   25.7481 C   0  0  0  0  0  0
  -27.5575  -37.1788   24.8460 C   0  0  0  0  0  0
  -21.4191  -29.3029   22.3670 N   0  0  0  0  0  0
  -26.4280  -37.3770   23.9418 N   0  0  0  0  0  0
  -24.6897  -31.0572   22.0966 N   0  0  0  0  0  0
  -23.4188  -28.8159   23.3027 O   0  0  0  0  0  0
  -28.3412  -26.4568   20.2048 O   0  0  0  0  0  0
  -26.5628  -34.8911   22.4664 O   0  0  0  0  0  0
  -23.5436  -32.1380   23.7326 O   0  0  0  0  0  0
  -28.6880  -19.3569   21.2488 C   0  0  0  0  0  0
  -29.8725  -19.2158   19.1767 C   0  0  0  0  0  0
  -28.9425  -17.9653   21.4817 C   0  0  0  0  0  0
  -30.1460  -17.8262   19.3914 C   0  0  0  0  0  0
  -29.1172  -20.0201   20.0709 C   0  0  0  0  0  0
  -29.6827  -17.1518   20.5657 C   0  0  0  0  0  0
  -26.9991  -23.5467   18.7018 C   0  0  0  0  0  0
  -28.0701  -23.8585   19.4638 C   0  0  0  0  0  0
  -26.4444  -22.1985   18.6220 C   0  0  0  0  0  0
  -27.3628  -21.0082   18.8898 C   0  0  0  0  0  0
  -28.8182  -22.6720   20.2209 C   0  0  2  0  0  0
  -28.3304  -17.3242   22.7189 C   0  0  0  0  0  0
  -30.8546  -17.0829   18.2735 C   0  0  0  0  0  0
  -30.3223  -22.9288   20.3927 C   0  0  0  0  0  0
  -28.6380  -25.3334   19.2826 C   0  0  0  0  0  0
  -28.5956  -21.2921   19.6361 N   0  0  0  0  0  0
  -29.7455  -15.6979   20.8188 N   0  0  0  0  0  0
  -25.2675  -21.9923   18.3186 O   0  0  0  0  0  0
  -31.4826  -12.5387   19.1568 H   0  0  0  0  0  0
  -30.3868  -11.4086   19.9004 H   0  0  0  0  0  0
  -29.7759  -11.7655   17.4814 H   0  0  0  0  0  0
  -29.6515  -13.4861   17.7521 H   0  0  0  0  0  0
  -27.8713  -11.2966   18.8681 H   0  0  0  0  0  0
  -27.3793  -12.5834   17.7965 H   0  0  0  0  0  0
  -27.6692  -14.2535   19.5281 H   0  0  0  0  0  0
  -28.7125  -12.0400   21.3608 H   0  0  0  0  0  0
  -28.4426  -13.6864   21.8573 H   0  0  0  0  0  0
  -25.2754   -9.5678   22.4784 H   0  0  0  0  0  0
  -23.9973   -7.4648   22.7492 H   0  0  0  0  0  0
  -21.0818   -8.8809   19.8973 H   0  0  0  0  0  0
  -22.3694  -10.9699   19.6173 H   0  0  0  0  0  0
  -21.2010   -7.6152   23.9711 H   0  0  0  0  0  0
  -21.1471   -6.0522   25.9075 H   0  0  0  0  0  0
  -22.0595   -2.7598   23.2847 H   0  0  0  0  0  0
  -22.4042  -11.9924   22.4819 H   0  0  0  0  0  0
  -21.1082  -13.1331   22.2586 H   0  0  0  0  0  0
  -24.6660  -15.8455   20.5164 H   0  0  0  0  0  0
  -26.2714  -15.6180   20.0405 H   0  0  0  0  0  0
  -26.7179  -32.5440   23.1082 H   0  0  0  0  0  0
  -25.0063  -33.9688   25.0397 H   0  0  0  0  0  0
  -22.7181  -31.3009   21.4007 H   0  0  0  0  0  0
  -23.3745  -35.9610   23.3289 H   0  0  0  0  0  0
  -24.3572  -36.8906   22.2055 H   0  0  0  0  0  0
  -23.7225  -37.6469   23.6665 H   0  0  0  0  0  0
  -26.0989  -31.5453   20.6078 H   0  0  0  0  0  0
  -26.8429  -30.8295   22.0059 H   0  0  0  0  0  0
  -28.1044  -28.9545   21.2180 H   0  0  0  0  0  0
  -25.9620  -25.9320   19.0156 H   0  0  0  0  0  0
  -23.9732  -27.3071   19.0053 H   0  0  0  0  0  0
  -23.7516  -30.5922   19.4009 H   0  0  0  0  0  0
  -22.7575  -29.2429   19.8584 H   0  0  0  0  0  0
  -25.1285  -36.1921   25.0815 H   0  0  0  0  0  0
  -20.9980  -28.3270   24.1409 H   0  0  0  0  0  0
  -20.5692  -26.2302   23.3603 H   0  0  0  0  0  0
  -21.6648  -26.7461   22.1197 H   0  0  0  0  0  0
  -19.6922  -25.6309   21.1235 H   0  0  0  0  0  0
  -19.6692  -27.3207   20.6754 H   0  0  0  0  0  0
  -17.4206  -26.6688   21.4035 H   0  0  0  0  0  0
  -18.0338  -26.0073   22.9019 H   0  0  0  0  0  0
  -19.7937  -30.7296   24.2250 H   0  0  0  0  0  0
  -17.5014  -31.6266   24.5195 H   0  0  0  0  0  0
  -15.5354  -30.3008   23.7654 H   0  0  0  0  0  0
  -15.8673  -28.0843   22.7066 H   0  0  0  0  0  0
  -24.5903  -30.7082   25.7767 H   0  0  0  0  0  0
  -24.8942  -32.2906   26.4853 H   0  0  0  0  0  0
  -25.8050  -30.8903   27.0212 H   0  0  0  0  0  0
  -26.2928  -29.6730   24.1218 H   0  0  0  0  0  0
  -27.4054  -29.7264   25.4689 H   0  0  0  0  0  0
  -27.8793  -30.4268   23.9405 H   0  0  0  0  0  0
  -27.2672  -33.3629   26.2026 H   0  0  0  0  0  0
  -28.3889  -32.6839   25.0321 H   0  0  0  0  0  0
  -28.0695  -31.8457   26.5426 H   0  0  0  0  0  0
  -28.2580  -38.0098   24.7526 H   0  0  0  0  0  0
  -28.1079  -36.2628   24.6257 H   0  0  0  0  0  0
  -27.2292  -37.1398   25.8860 H   0  0  0  0  0  0
  -20.9385  -29.8728   21.6857 H   0  0  0  0  0  0
  -26.0156  -38.2837   24.1439 H   0  0  0  0  0  0
  -28.0694  -19.9007   21.9480 H   0  0  0  0  0  0
  -30.1859  -19.6668   18.2461 H   0  0  0  0  0  0
  -26.5337  -24.2711   18.0567 H   0  0  0  0  0  0
  -27.6270  -20.5794   17.9217 H   0  0  0  0  0  0
  -26.7715  -20.2546   19.4113 H   0  0  0  0  0  0
  -28.3909  -22.6565   21.2255 H   0  0  0  0  0  0
  -27.8706  -18.0632   23.3742 H   0  0  0  0  0  0
  -29.0881  -16.7981   23.3002 H   0  0  0  0  0  0
  -27.5545  -16.6115   22.4338 H   0  0  0  0  0  0
  -30.8528  -17.6588   17.3475 H   0  0  0  0  0  0
  -30.3646  -16.1331   18.0586 H   0  0  0  0  0  0
  -31.8922  -16.8921   18.5448 H   0  0  0  0  0  0
  -30.8324  -22.9897   19.4307 H   0  0  0  0  0  0
  -30.7994  -22.1364   20.9697 H   0  0  0  0  0  0
  -30.5105  -23.8597   20.9280 H   0  0  0  0  0  0
  -28.3482  -25.6772   18.2882 H   0  0  0  0  0  0
  -29.7224  -25.2667   19.2132 H   0  0  0  0  0  0
  -28.9184  -15.3448   21.2731 H   0  0  0  0  0  0
  1 25  1  0  0  0
  1 30  2  0  0  0
  1 87  1  0  0  0
  2  3  1  0  0  0
  2 25  1  0  0  0
  2 89  1  0  0  0
  2 90  1  0  0  0
  3  4  1  0  0  0
  3 91  1  0  0  0
  3 92  1  0  0  0
  4  5  1  0  0  0
  4 93  1  0  0  0
  4 94  1  0  0  0
  5  6  1  0  0  0
  5 26  1  0  0  0
  5 95  1  0  0  0
  6 25  1  0  0  0
  6 96  1  0  0  0
  6 97  1  0  0  0
  7  8  2  0  0  0
  7 26  1  0  0  0
  7 29  1  0  0  0
  8  9  1  0  0  0
  8 22  1  0  0  0
  9 10  1  0  0  0
  9 27  2  0  0  0
 10 11  2  0  0  0
 10 15  1  0  0  0
 11 12  1  0  0  0
 11 98  1  0  0  0
 12 13  2  0  0  0
 12 99  1  0  0  0
 13 14  1  0  0  0
 13 31  1  0  0  0
 14 15  2  0  0  0
 14100  1  0  0  0
 15101  1  0  0  0
 16 17  2  0  0  0
 16 21  1  0  0  0
 16 31  1  0  0  0
 17 18  1  0  0  0
 17102  1  0  0  0
 18 19  2  0  0  0
 18103  1  0  0  0
 19 20  1  0  0  0
 19 24  1  0  0  0
 20 21  2  0  0  0
 20104  1  0  0  0
 21 23  1  0  0  0
 22 28  1  0  0  0
 22 32  2  0  0  0
 26 27  1  0  0  0
 28105  1  0  0  0
 28106  1  0  0  0
 29107  1  0  0  0
 29108  1  0  0  0
 33 34  1  0  0  0
 33 66  1  0  0  0
 33 70  2  0  0  0
 34 36  1  0  0  0
 34 59  1  0  0  0
 34109  1  0  0  0
 35 44  2  0  0  0
 35 45  1  0  0  0
 35 68  1  0  0  0
 36 56  1  0  0  0
 36110  1  0  0  0
 37 39  1  0  0  0
 37 47  1  0  0  0
 37 66  1  0  0  0
 37111  1  0  0  0
 38 43  2  0  0  0
 38 46  1  0  0  0
 38 47  1  0  0  0
 39 64  1  0  0  0
 39 67  2  0  0  0
 40 52  1  0  0  0
 40 53  2  0  0  0
 40 58  1  0  0  0
 41112  1  0  0  0
 41113  1  0  0  0
 41114  1  0  0  0
 41 48  1  0  0  0
 42 43  1  0  0  0
 42 66  1  0  0  0
 42115  1  0  0  0
 42116  1  0  0  0
 43 44  1  0  0  0
 44117  1  0  0  0
 45 46  2  0  0  0
 45118  1  0  0  0
 46119  1  0  0  0
 47120  1  0  0  0
 47121  1  0  0  0
 48 56  1  0  0  0
 48 65  1  0  0  0
 48122  1  0  0  0
 49 50  1  0  0  0
 49 53  1  0  0  0
 49 64  1  0  0  0
 49123  1  0  0  0
 50 51  1  0  0  0
 50124  1  0  0  0
 50125  1  0  0  0
 51 52  1  0  0  0
 51126  1  0  0  0
 51127  1  0  0  0
 52128  1  0  0  0
 52129  1  0  0  0
 53 54  1  0  0  0
 54 55  2  0  0  0
 54130  1  0  0  0
 55 57  1  0  0  0
 55131  1  0  0  0
 56 69  2  0  0  0
 57 58  2  0  0  0
 57132  1  0  0  0
 58133  1  0  0  0
 59 60  1  0  0  0
 59 61  1  0  0  0
 59 62  1  0  0  0
 60134  1  0  0  0
 60135  1  0  0  0
 60136  1  0  0  0
 61137  1  0  0  0
 61138  1  0  0  0
 61139  1  0  0  0
 62140  1  0  0  0
 62141  1  0  0  0
 62142  1  0  0  0
 63 65  1  0  0  0
 63143  1  0  0  0
 63144  1  0  0  0
 63145  1  0  0  0
 64146  1  0  0  0
 65147  1  0  0  0
 68 85  1  0  0  0
 71 73  2  0  0  0
 71 75  1  0  0  0
 71148  1  0  0  0
 72 74  1  0  0  0
 72 75  2  0  0  0
 72149  1  0  0  0
 73 76  1  0  0  0
 73 82  1  0  0  0
 74 76  2  0  0  0
 74 83  1  0  0  0
 75 86  1  0  0  0
 76 87  1  0  0  0
 77 78  2  0  0  0
 77 79  1  0  0  0
 77150  1  0  0  0
 78 81  1  0  0  0
 78 85  1  0  0  0
 79 80  1  0  0  0
 79 88  2  0  0  0
 80 86  1  0  0  0
 80151  1  0  0  0
 80152  1  0  0  0
 81 84  1  0  0  0
 81 86  1  0  0  0
 81153  1  0  0  0
 82154  1  0  0  0
 82155  1  0  0  0
 82156  1  0  0  0
 83157  1  0  0  0
 83158  1  0  0  0
 83159  1  0  0  0
 84160  1  0  0  0
 84161  1  0  0  0
 84162  1  0  0  0
 85163  1  0  0  0
 85164  1  0  0  0
 87165  1  0  0  0
M  ISO  4   1 100  68 101  85 101  87 100
M  END
> <chiral flag>
0

> <version>
0

> <s_m_source_file>
/data/baiqing/PycharmProjects/Reinvent-master-3.2/result/LINK_invent/BTK/process_docking_weight1_custom_product_contain_oxygen_bond_distance_aromatic_linkinvent_7_9_3/rearranged_h_0116.sdf

> <i_m_source_file_index>
3

> <r_mmod_Potential_Energy-OPLS-2005>
146.028442382812

> <r_mmod_Stretch_Energy-OPLS-2005>
97.7570114135742

> <r_mmod_Bend_Energy-OPLS-2005>
204.502914428711

> <r_mmod_Torsional_Energy-OPLS-2005>
264.638061523438

> <r_mmod_Improper_Torsional_Energy-OPLS-2005>
9.10598087310791

> <r_mmod_Van_der_Waal_Energy-OPLS-2005>
149.710647583008

> <r_mmod_Electrostatic_Energy-OPLS-2005>
-415.576171875

> <r_mmod_Solvation_Energy-OPLS-2005>
-221.293640136719

> <b_mmod_Minimization_Converged-OPLS-2005>
0

> <r_mmod_RMS_Derivative-OPLS-2005>
2.43263983726501

$$$$
3
                    3D
 Structure written by MMmdl.
156164  0  0  1  0            999 V2000
  -30.6442  -14.7597   20.5182 C   0  0  0  0  0  0
  -30.4230  -12.4786   19.4950 C   0  0  0  0  0  0
  -29.5096  -12.5348   18.2516 C   0  0  0  0  0  0
  -28.0371  -12.3488   18.6582 C   0  0  0  0  0  0
  -27.6410  -13.2421   19.8635 C   0  0  2  0  0  0
  -28.6811  -13.1750   21.0069 C   0  0  0  0  0  0
  -25.2366  -13.8131   20.5549 C   0  0  0  0  0  0
  -24.1737  -13.0372   20.9217 C   0  0  0  0  0  0
  -24.6394  -11.6883   20.8797 C   0  0  0  0  0  0
  -23.9086  -10.4257   21.0434 C   0  0  0  0  0  0
  -24.3629   -9.4169   21.9207 C   0  0  0  0  0  0
  -23.6293   -8.2210   22.0761 C   0  0  0  0  0  0
  -22.4278   -8.0262   21.3545 C   0  0  0  0  0  0
  -21.9924   -9.0240   20.4651 C   0  0  0  0  0  0
  -22.7264  -10.2111   20.3069 C   0  0  0  0  0  0
  -21.6843   -6.0730   22.5279 C   0  0  0  0  0  0
  -21.4009   -6.5636   23.8214 C   0  0  0  0  0  0
  -21.3658   -5.6792   24.9179 C   0  0  0  0  0  0
  -21.6043   -4.3053   24.7231 C   0  0  0  0  0  0
  -21.8819   -3.8144   23.4352 C   0  0  0  0  0  0
  -21.9188   -4.6958   22.3407 C   0  0  0  0  0  0
  -22.7760  -13.5154   21.1871 C   0  0  0  0  0  0
  -22.1658   -4.2147   21.0983 F   0  0  0  0  0  0
  -21.5632   -3.4535   25.7742 F   0  0  0  0  0  0
  -29.9894  -13.5394   20.4448 N   0  0  0  0  0  0
  -26.2907  -12.9430   20.3319 N   0  0  0  0  0  0
  -25.9342  -11.6561   20.5840 N   0  0  0  0  0  0
  -22.0421  -12.8167   22.0455 N   0  0  0  0  0  0
  -25.3754  -15.1802   20.3597 N   0  0  0  0  0  0
  -31.7485  -14.8807   19.9769 O   0  0  0  0  0  0
  -21.6628   -6.8870   21.4242 O   0  0  0  0  0  0
  -22.3443  -14.5455   20.6708 O   0  0  0  0  0  0
  -24.6310  -31.8515   23.1934 C   0  0  0  0  0  0
  -25.9134  -32.4731   23.8290 C   0  0  1  0  0  0
  -27.2332  -27.2496   20.1347 C   0  0  0  0  0  0
  -25.5922  -33.8534   24.2220 N   0  0  0  0  0  0
  -23.4296  -30.4693   21.5352 C   0  0  2  0  0  0
  -24.8807  -28.9065   20.1037 C   0  0  0  0  0  0
  -22.7493  -29.4587   22.4898 C   0  0  0  0  0  0
  -18.0294  -28.1390   22.8484 C   0  0  0  0  0  0
  -24.1491  -36.7271   23.2643 C   0  0  0  0  0  0
  -25.9728  -30.7596   21.3743 C   0  0  0  0  0  0
  -26.0458  -29.3795   20.7179 C   0  0  0  0  0  0
  -27.2183  -28.5604   20.7242 C   0  0  0  0  0  0
  -26.0489  -26.8388   19.4878 C   0  0  0  0  0  0
  -24.8883  -27.6463   19.4774 C   0  0  0  0  0  0
  -23.6490  -29.7932   20.1530 C   0  0  0  0  0  0
  -25.4121  -36.3054   24.0323 C   0  0  1  0  0  0
  -20.5890  -28.3710   23.1272 C   0  0  2  0  0  0
  -20.6788  -26.9425   22.5417 C   0  0  0  0  0  0
  -19.5767  -26.6386   21.5220 C   0  0  0  0  0  0
  -18.1943  -26.7932   22.1624 C   0  0  0  0  0  0
  -19.1541  -28.8867   23.2874 C   0  0  0  0  0  0
  -18.9458  -30.1466   23.8894 C   0  0  0  0  0  0
  -17.6456  -30.6589   24.0563 C   0  0  0  0  0  0
  -25.9060  -34.9428   23.5079 C   0  0  0  0  0  0
  -16.5350  -29.9084   23.6328 C   0  0  0  0  0  0
  -16.7278  -28.6499   23.0352 C   0  0  0  0  0  0
  -26.4503  -31.6570   25.0692 C   0  0  0  0  0  0
  -25.3720  -31.3714   26.1404 C   0  0  0  0  0  0
  -27.0364  -30.2989   24.6195 C   0  0  0  0  0  0
  -27.6045  -32.4325   25.7470 C   0  0  0  0  0  0
  -27.5576  -37.1791   24.8467 C   0  0  0  0  0  0
  -21.4197  -29.3054   22.3651 N   0  0  0  0  0  0
  -26.4292  -37.3759   23.9405 N   0  0  0  0  0  0
  -24.6966  -31.0466   22.0908 N   0  0  0  0  0  0
  -23.4185  -28.8142   23.3016 O   0  0  0  0  0  0
  -28.3487  -26.3895   20.2621 O   0  0  0  0  0  0
  -26.5642  -34.8913   22.4656 O   0  0  0  0  0  0
  -23.5460  -32.1346   23.7227 O   0  0  0  0  0  0
  -26.9722  -18.0870   20.9591 C   0  0  0  0  0  0
  -27.9026  -17.0425   21.0818 C   0  0  0  0  0  0
  -27.3836  -19.3950   20.6676 C   0  0  0  0  0  0
  -29.2885  -17.2329   20.9138 C   0  0  0  0  0  0
  -29.7092  -18.6117   20.5888 C   0  0  0  0  0  0
  -28.7404  -19.7258   20.4777 C   0  0  0  0  0  0
  -31.8222  -20.0000   20.6204 C   0  0  0  0  0  0
  -31.1621  -18.8417   20.4537 C   0  0  0  0  0  0
  -30.1146  -15.9862   21.4055 C   0  0  0  0  0  0
  -28.7357  -22.3354   20.6898 C   0  0  0  0  0  0
  -27.9168  -23.5925   20.0868 C   0  0  0  0  0  0
  -28.5293  -25.0328   19.6289 C   0  0  0  0  0  0
  -30.3799  -15.9503   22.6452 N   0  0  0  0  0  0
  -28.9200  -21.1342   20.0092 N   0  0  0  0  0  0
  -29.1823  -22.4531   21.8323 O   0  0  0  0  0  0
  -31.4665  -12.5856   19.1947 H   0  0  0  0  0  0
  -30.3600  -11.4992   19.9713 H   0  0  0  0  0  0
  -29.7995  -11.7673   17.5328 H   0  0  0  0  0  0
  -29.6373  -13.4939   17.7474 H   0  0  0  0  0  0
  -27.8962  -11.2984   18.9155 H   0  0  0  0  0  0
  -27.3814  -12.5437   17.8085 H   0  0  0  0  0  0
  -27.6366  -14.2673   19.4916 H   0  0  0  0  0  0
  -28.7173  -12.1725   21.4349 H   0  0  0  0  0  0
  -28.3961  -13.8387   21.8233 H   0  0  0  0  0  0
  -25.2768   -9.5633   22.4797 H   0  0  0  0  0  0
  -23.9986   -7.4594   22.7479 H   0  0  0  0  0  0
  -21.0857   -8.8773   19.8955 H   0  0  0  0  0  0
  -22.3734  -10.9657   19.6183 H   0  0  0  0  0  0
  -21.1997   -7.6143   23.9718 H   0  0  0  0  0  0
  -21.1484   -6.0521   25.9084 H   0  0  0  0  0  0
  -22.0598   -2.7605   23.2852 H   0  0  0  0  0  0
  -22.4044  -11.9837   22.4852 H   0  0  0  0  0  0
  -21.1045  -13.1201   22.2676 H   0  0  0  0  0  0
  -24.5690  -15.7936   20.4028 H   0  0  0  0  0  0
  -26.1794  -15.6143   19.9263 H   0  0  0  0  0  0
  -26.7193  -32.5379   23.1022 H   0  0  0  0  0  0
  -25.0053  -33.9662   25.0353 H   0  0  0  0  0  0
  -22.7266  -31.2911   21.3841 H   0  0  0  0  0  0
  -23.3755  -35.9601   23.3306 H   0  0  0  0  0  0
  -24.3572  -36.8897   22.2055 H   0  0  0  0  0  0
  -23.7246  -37.6470   23.6673 H   0  0  0  0  0  0
  -26.1134  -31.5194   20.6042 H   0  0  0  0  0  0
  -26.8488  -30.8091   22.0094 H   0  0  0  0  0  0
  -28.1082  -28.9144   21.2254 H   0  0  0  0  0  0
  -25.9982  -25.8649   19.0227 H   0  0  0  0  0  0
  -23.9941  -27.2779   18.9934 H   0  0  0  0  0  0
  -23.7685  -30.5653   19.3919 H   0  0  0  0  0  0
  -22.7678  -29.2227   19.8541 H   0  0  0  0  0  0
  -25.1309  -36.1890   25.0815 H   0  0  0  0  0  0
  -20.9982  -28.3298   24.1393 H   0  0  0  0  0  0
  -20.5694  -26.2319   23.3623 H   0  0  0  0  0  0
  -21.6657  -26.7458   22.1209 H   0  0  0  0  0  0
  -19.6932  -25.6296   21.1257 H   0  0  0  0  0  0
  -19.6707  -27.3191   20.6745 H   0  0  0  0  0  0
  -17.4216  -26.6678   21.4023 H   0  0  0  0  0  0
  -18.0338  -26.0076   22.9020 H   0  0  0  0  0  0
  -19.7931  -30.7286   24.2263 H   0  0  0  0  0  0
  -17.5007  -31.6269   24.5163 H   0  0  0  0  0  0
  -15.5350  -30.2981   23.7657 H   0  0  0  0  0  0
  -15.8679  -28.0814   22.7068 H   0  0  0  0  0  0
  -24.5898  -30.7066   25.7719 H   0  0  0  0  0  0
  -24.8910  -32.2884   26.4817 H   0  0  0  0  0  0
  -25.8028  -30.8890   27.0186 H   0  0  0  0  0  0
  -26.2956  -29.6718   24.1219 H   0  0  0  0  0  0
  -27.4043  -29.7269   25.4723 H   0  0  0  0  0  0
  -27.8830  -30.4264   23.9445 H   0  0  0  0  0  0
  -27.2638  -33.3625   26.2034 H   0  0  0  0  0  0
  -28.3860  -32.6888   25.0304 H   0  0  0  0  0  0
  -28.0712  -31.8464   26.5398 H   0  0  0  0  0  0
  -28.2599  -38.0083   24.7503 H   0  0  0  0  0  0
  -28.1067  -36.2612   24.6310 H   0  0  0  0  0  0
  -27.2288  -37.1460   25.8869 H   0  0  0  0  0  0
  -20.9391  -29.8746   21.6822 H   0  0  0  0  0  0
  -26.0165  -38.2830   24.1403 H   0  0  0  0  0  0
  -25.9212  -17.8864   21.1143 H   0  0  0  0  0  0
  -27.5418  -16.0738   21.3943 H   0  0  0  0  0  0
  -26.6229  -20.1572   20.5693 H   0  0  0  0  0  0
  -31.3290  -20.9168   20.9032 H   0  0  0  0  0  0
  -32.8931  -20.0436   20.4805 H   0  0  0  0  0  0
  -31.7517  -17.9789   20.1752 H   0  0  0  0  0  0
  -27.1197  -23.8000   20.8005 H   0  0  0  0  0  0
  -27.3876  -23.1945   19.2211 H   0  0  0  0  0  0
  -28.2732  -25.1656   18.5769 H   0  0  0  0  0  0
  -29.6102  -24.8930   19.6084 H   0  0  0  0  0  0
  -30.0008  -16.7646   23.1147 H   0  0  0  0  0  0
  -28.7327  -21.2327   19.0205 H   0  0  0  0  0  0
  1 25  1  0  0  0
  1 30  2  0  0  0
  1 79  1  0  0  0
  2  3  1  0  0  0
  2 25  1  0  0  0
  2 86  1  0  0  0
  2 87  1  0  0  0
  3  4  1  0  0  0
  3 88  1  0  0  0
  3 89  1  0  0  0
  4  5  1  0  0  0
  4 90  1  0  0  0
  4 91  1  0  0  0
  5  6  1  0  0  0
  5 26  1  0  0  0
  5 92  1  0  0  0
  6 25  1  0  0  0
  6 93  1  0  0  0
  6 94  1  0  0  0
  7  8  2  0  0  0
  7 26  1  0  0  0
  7 29  1  0  0  0
  8  9  1  0  0  0
  8 22  1  0  0  0
  9 10  1  0  0  0
  9 27  2  0  0  0
 10 11  2  0  0  0
 10 15  1  0  0  0
 11 12  1  0  0  0
 11 95  1  0  0  0
 12 13  2  0  0  0
 12 96  1  0  0  0
 13 14  1  0  0  0
 13 31  1  0  0  0
 14 15  2  0  0  0
 14 97  1  0  0  0
 15 98  1  0  0  0
 16 17  2  0  0  0
 16 21  1  0  0  0
 16 31  1  0  0  0
 17 18  1  0  0  0
 17 99  1  0  0  0
 18 19  2  0  0  0
 18100  1  0  0  0
 19 20  1  0  0  0
 19 24  1  0  0  0
 20 21  2  0  0  0
 20101  1  0  0  0
 21 23  1  0  0  0
 22 28  1  0  0  0
 22 32  2  0  0  0
 26 27  1  0  0  0
 28102  1  0  0  0
 28103  1  0  0  0
 29104  1  0  0  0
 29105  1  0  0  0
 33 34  1  0  0  0
 33 66  1  0  0  0
 33 70  2  0  0  0
 34 36  1  0  0  0
 34 59  1  0  0  0
 34106  1  0  0  0
 35 44  2  0  0  0
 35 45  1  0  0  0
 35 68  1  0  0  0
 36 56  1  0  0  0
 36107  1  0  0  0
 37 39  1  0  0  0
 37 47  1  0  0  0
 37 66  1  0  0  0
 37108  1  0  0  0
 38 43  2  0  0  0
 38 46  1  0  0  0
 38 47  1  0  0  0
 39 64  1  0  0  0
 39 67  2  0  0  0
 40 52  1  0  0  0
 40 53  2  0  0  0
 40 58  1  0  0  0
 41109  1  0  0  0
 41110  1  0  0  0
 41111  1  0  0  0
 41 48  1  0  0  0
 42 43  1  0  0  0
 42 66  1  0  0  0
 42112  1  0  0  0
 42113  1  0  0  0
 43 44  1  0  0  0
 44114  1  0  0  0
 45 46  2  0  0  0
 45115  1  0  0  0
 46116  1  0  0  0
 47117  1  0  0  0
 47118  1  0  0  0
 48 56  1  0  0  0
 48 65  1  0  0  0
 48119  1  0  0  0
 49 50  1  0  0  0
 49 53  1  0  0  0
 49 64  1  0  0  0
 49120  1  0  0  0
 50 51  1  0  0  0
 50121  1  0  0  0
 50122  1  0  0  0
 51 52  1  0  0  0
 51123  1  0  0  0
 51124  1  0  0  0
 52125  1  0  0  0
 52126  1  0  0  0
 53 54  1  0  0  0
 54 55  2  0  0  0
 54127  1  0  0  0
 55 57  1  0  0  0
 55128  1  0  0  0
 56 69  2  0  0  0
 57 58  2  0  0  0
 57129  1  0  0  0
 58130  1  0  0  0
 59 60  1  0  0  0
 59 61  1  0  0  0
 59 62  1  0  0  0
 60131  1  0  0  0
 60132  1  0  0  0
 60133  1  0  0  0
 61134  1  0  0  0
 61135  1  0  0  0
 61136  1  0  0  0
 62137  1  0  0  0
 62138  1  0  0  0
 62139  1  0  0  0
 63 65  1  0  0  0
 63140  1  0  0  0
 63141  1  0  0  0
 63142  1  0  0  0
 64143  1  0  0  0
 65144  1  0  0  0
 68 82  1  0  0  0
 71 72  2  0  0  0
 71 73  1  0  0  0
 71145  1  0  0  0
 72 74  1  0  0  0
 72146  1  0  0  0
 73 76  2  0  0  0
 73147  1  0  0  0
 74 75  2  0  0  0
 74 79  1  0  0  0
 75 76  1  0  0  0
 75 78  1  0  0  0
 76 84  1  0  0  0
 77 78  2  0  0  0
 77148  1  0  0  0
 77149  1  0  0  0
 78150  1  0  0  0
 79 83  2  0  0  0
 80 81  1  0  0  0
 80 84  1  0  0  0
 80 85  2  0  0  0
 81 82  1  0  0  0
 81151  1  0  0  0
 81152  1  0  0  0
 82153  1  0  0  0
 82154  1  0  0  0
 83155  1  0  0  0
 84156  1  0  0  0
M  ISO  4   1 100  68 101  79 100  82 101
M  END
> <chiral flag>
0

> <version>
0

> <s_m_source_file>
/data/baiqing/PycharmProjects/Reinvent-master-3.2/result/LINK_invent/BTK/process_docking_weight1_custom_product_contain_oxygen_bond_distance_aromatic_linkinvent_7_9_3/rearranged_h_0116.sdf

> <i_m_source_file_index>
4

> <r_mmod_Potential_Energy-OPLS-2005>
463.405120849609

> <r_mmod_Stretch_Energy-OPLS-2005>
157.796279907227

> <r_mmod_Bend_Energy-OPLS-2005>
260.677276611328

> <r_mmod_Torsional_Energy-OPLS-2005>
299.873352050781

> <r_mmod_Improper_Torsional_Energy-OPLS-2005>
9.26019287109375

> <r_mmod_Van_der_Waal_Energy-OPLS-2005>
126.475151062012

> <r_mmod_Electrostatic_Energy-OPLS-2005>
-248.980773925781

> <r_mmod_Solvation_Energy-OPLS-2005>
-233.790863037109

> <b_mmod_Minimization_Converged-OPLS-2005>
0

> <r_mmod_RMS_Derivative-OPLS-2005>
0.755477249622345

$$$$
4
                    3D
 Structure written by MMmdl.
155163  0  0  1  0            999 V2000
  -30.6593  -14.6997   20.4096 C   0  0  0  0  0  0
  -30.4276  -12.4090   19.4650 C   0  0  0  0  0  0
  -29.5076  -12.4836   18.2268 C   0  0  0  0  0  0
  -28.0320  -12.3093   18.6418 C   0  0  0  0  0  0
  -27.6383  -13.2169   19.8367 C   0  0  2  0  0  0
  -28.6939  -13.1822   20.9646 C   0  0  0  0  0  0
  -25.2557  -13.8174   20.5715 C   0  0  0  0  0  0
  -24.1811  -13.0439   20.9222 C   0  0  0  0  0  0
  -24.6371  -11.6916   20.8759 C   0  0  0  0  0  0
  -23.9038  -10.4297   21.0423 C   0  0  0  0  0  0
  -24.3618   -9.4217   21.9190 C   0  0  0  0  0  0
  -23.6304   -8.2248   22.0763 C   0  0  0  0  0  0
  -22.4284   -8.0287   21.3552 C   0  0  0  0  0  0
  -21.9908   -9.0244   20.4648 C   0  0  0  0  0  0
  -22.7219  -10.2136   20.3063 C   0  0  0  0  0  0
  -21.6852   -6.0747   22.5282 C   0  0  0  0  0  0
  -21.4003   -6.5649   23.8217 C   0  0  0  0  0  0
  -21.3666   -5.6799   24.9185 C   0  0  0  0  0  0
  -21.6056   -4.3063   24.7232 C   0  0  0  0  0  0
  -21.8824   -3.8153   23.4346 C   0  0  0  0  0  0
  -21.9191   -4.6973   22.3407 C   0  0  0  0  0  0
  -22.7833  -13.5239   21.1873 C   0  0  0  0  0  0
  -22.1672   -4.2166   21.0979 F   0  0  0  0  0  0
  -21.5630   -3.4549   25.7742 F   0  0  0  0  0  0
  -30.0052  -13.4892   20.3809 N   0  0  0  0  0  0
  -26.2944  -12.9323   20.3278 N   0  0  0  0  0  0
  -25.9298  -11.6487   20.5754 N   0  0  0  0  0  0
  -22.0495  -12.8192   22.0431 N   0  0  0  0  0  0
  -25.4268  -15.1896   20.4149 N   0  0  0  0  0  0
  -31.8809  -14.7351   20.2575 O   0  0  0  0  0  0
  -21.6656   -6.8881   21.4237 O   0  0  0  0  0  0
  -22.3499  -14.5555   20.6768 O   0  0  0  0  0  0
  -24.6278  -31.8568   23.2011 C   0  0  0  0  0  0
  -25.9139  -32.4761   23.8299 C   0  0  1  0  0  0
  -27.2125  -27.2787   20.1247 C   0  0  0  0  0  0
  -25.5961  -33.8553   24.2217 N   0  0  0  0  0  0
  -23.4194  -30.4788   21.5516 C   0  0  2  0  0  0
  -24.8655  -28.9322   20.1095 C   0  0  0  0  0  0
  -22.7472  -29.4596   22.5012 C   0  0  0  0  0  0
  -18.0278  -28.1351   22.8529 C   0  0  0  0  0  0
  -24.1500  -36.7258   23.2626 C   0  0  0  0  0  0
  -25.9647  -30.7725   21.3799 C   0  0  0  0  0  0
  -26.0376  -29.3991   20.7175 C   0  0  0  0  0  0
  -27.2169  -28.5879   20.7093 C   0  0  0  0  0  0
  -26.0233  -26.8773   19.4823 C   0  0  0  0  0  0
  -24.8632  -27.6782   19.4787 C   0  0  0  0  0  0
  -23.6305  -29.8124   20.1678 C   0  0  0  0  0  0
  -25.4140  -36.3056   24.0302 C   0  0  1  0  0  0
  -20.5881  -28.3645   23.1341 C   0  0  2  0  0  0
  -20.6792  -26.9377   22.5447 C   0  0  0  0  0  0
  -19.5753  -26.6361   21.5264 C   0  0  0  0  0  0
  -18.1919  -26.7903   22.1648 C   0  0  0  0  0  0
  -19.1533  -28.8823   23.2919 C   0  0  0  0  0  0
  -18.9445  -30.1443   23.8899 C   0  0  0  0  0  0
  -17.6441  -30.6576   24.0545 C   0  0  0  0  0  0
  -25.9085  -34.9442   23.5062 C   0  0  0  0  0  0
  -16.5336  -29.9049   23.6351 C   0  0  0  0  0  0
  -16.7261  -28.6459   23.0395 C   0  0  0  0  0  0
  -26.4504  -31.6573   25.0674 C   0  0  0  0  0  0
  -25.3743  -31.3751   26.1400 C   0  0  0  0  0  0
  -27.0328  -30.2977   24.6160 C   0  0  0  0  0  0
  -27.6013  -32.4340   25.7476 C   0  0  0  0  0  0
  -27.5592  -37.1773   24.8444 C   0  0  0  0  0  0
  -21.4185  -29.2991   22.3737 N   0  0  0  0  0  0
  -26.4290  -37.3779   23.9417 N   0  0  0  0  0  0
  -24.6896  -31.0546   22.0993 N   0  0  0  0  0  0
  -23.4199  -28.8150   23.3101 O   0  0  0  0  0  0
  -28.2972  -26.3769   20.1431 O   0  0  0  0  0  0
  -26.5636  -34.8916   22.4615 O   0  0  0  0  0  0
  -23.5464  -32.1375   23.7368 O   0  0  0  0  0  0
  -29.1782  -18.5168   18.6472 C   0  0  0  0  0  0
  -28.6568  -20.9041   18.6297 C   0  0  0  0  0  0
  -29.6304  -18.5634   19.9815 C   0  0  0  0  0  0
  -29.0259  -21.0592   19.9850 C   0  0  0  0  0  0
  -29.5309  -19.8564   20.6535 C   0  0  0  0  0  0
  -28.7106  -19.6576   17.9739 C   0  0  0  0  0  0
  -30.2411  -17.2410   20.4898 C   0  0  0  0  0  0
  -28.8103  -22.4639   20.6059 C   0  0  0  0  0  0
  -29.8483  -15.9461   20.1950 C   0  0  0  0  0  0
  -28.4570  -23.6804   20.0283 C   0  0  0  0  0  0
  -29.9852  -19.9496   22.1027 C   0  0  0  0  0  0
  -28.0651  -25.0322   20.7651 C   0  0  0  0  0  0
  -28.2885  -19.5424   16.6477 N   0  0  0  0  0  0
  -31.4723  -12.4996   19.1650 H   0  0  0  0  0  0
  -30.3366  -11.4353   19.9515 H   0  0  0  0  0  0
  -29.7811  -11.7194   17.5002 H   0  0  0  0  0  0
  -29.6406  -13.4429   17.7229 H   0  0  0  0  0  0
  -27.8837  -11.2598   18.9052 H   0  0  0  0  0  0
  -27.3799  -12.5032   17.7898 H   0  0  0  0  0  0
  -27.6037  -14.2222   19.4282 H   0  0  0  0  0  0
  -28.7175  -12.2032   21.4466 H   0  0  0  0  0  0
  -28.4508  -13.9065   21.7443 H   0  0  0  0  0  0
  -25.2797   -9.5697   22.4724 H   0  0  0  0  0  0
  -24.0045   -7.4638   22.7470 H   0  0  0  0  0  0
  -21.0860   -8.8730   19.8931 H   0  0  0  0  0  0
  -22.3687  -10.9663   19.6151 H   0  0  0  0  0  0
  -21.1979   -7.6158   23.9718 H   0  0  0  0  0  0
  -21.1491   -6.0540   25.9084 H   0  0  0  0  0  0
  -22.0593   -2.7607   23.2853 H   0  0  0  0  0  0
  -22.4177  -11.9874   22.4786 H   0  0  0  0  0  0
  -21.1098  -13.1144   22.2658 H   0  0  0  0  0  0
  -24.6648  -15.8507   20.5320 H   0  0  0  0  0  0
  -26.2887  -15.6306   20.1179 H   0  0  0  0  0  0
  -26.7178  -32.5397   23.1008 H   0  0  0  0  0  0
  -25.0140  -33.9672   25.0382 H   0  0  0  0  0  0
  -22.7112  -31.2991   21.4154 H   0  0  0  0  0  0
  -23.3795  -35.9555   23.3260 H   0  0  0  0  0  0
  -24.3593  -36.8916   22.2048 H   0  0  0  0  0  0
  -23.7214  -37.6424   23.6686 H   0  0  0  0  0  0
  -26.1091  -31.5409   20.6190 H   0  0  0  0  0  0
  -26.8395  -30.8104   22.0178 H   0  0  0  0  0  0
  -28.1184  -28.9474   21.1846 H   0  0  0  0  0  0
  -25.9809  -25.9210   18.9822 H   0  0  0  0  0  0
  -23.9654  -27.3191   18.9918 H   0  0  0  0  0  0
  -23.7271  -30.5863   19.4051 H   0  0  0  0  0  0
  -22.7477  -29.2342   19.8862 H   0  0  0  0  0  0
  -25.1334  -36.1874   25.0790 H   0  0  0  0  0  0
  -20.9953  -28.3213   24.1468 H   0  0  0  0  0  0
  -20.5786  -26.2227   23.3629 H   0  0  0  0  0  0
  -21.6654  -26.7458   22.1190 H   0  0  0  0  0  0
  -19.6919  -25.6289   21.1265 H   0  0  0  0  0  0
  -19.6702  -27.3208   20.6832 H   0  0  0  0  0  0
  -17.4223  -26.6703   21.4005 H   0  0  0  0  0  0
  -18.0247  -26.0021   22.9002 H   0  0  0  0  0  0
  -19.7915  -30.7270   24.2265 H   0  0  0  0  0  0
  -17.4984  -31.6274   24.5098 H   0  0  0  0  0  0
  -15.5337  -30.2931   23.7687 H   0  0  0  0  0  0
  -15.8663  -28.0758   22.7141 H   0  0  0  0  0  0
  -24.5885  -30.7127   25.7745 H   0  0  0  0  0  0
  -24.8981  -32.2950   26.4807 H   0  0  0  0  0  0
  -25.8058  -30.8925   27.0180 H   0  0  0  0  0  0
  -26.2888  -29.6751   24.1172 H   0  0  0  0  0  0
  -27.3977  -29.7199   25.4662 H   0  0  0  0  0  0
  -27.8796  -30.4205   23.9404 H   0  0  0  0  0  0
  -27.2539  -33.3621   26.2036 H   0  0  0  0  0  0
  -28.3848  -32.6955   25.0349 H   0  0  0  0  0  0
  -28.0662  -31.8497   26.5428 H   0  0  0  0  0  0
  -28.2559  -38.0122   24.7610 H   0  0  0  0  0  0
  -28.1143  -36.2662   24.6158 H   0  0  0  0  0  0
  -27.2304  -37.1281   25.8835 H   0  0  0  0  0  0
  -20.9366  -29.8635   21.6878 H   0  0  0  0  0  0
  -26.0155  -38.2820   24.1517 H   0  0  0  0  0  0
  -29.2415  -17.5816   18.1109 H   0  0  0  0  0  0
  -28.2860  -21.7563   18.0842 H   0  0  0  0  0  0
  -31.1598  -17.3536   21.0481 H   0  0  0  0  0  0
  -28.8929  -22.4802   21.6816 H   0  0  0  0  0  0
  -28.9221  -15.8358   19.6597 H   0  0  0  0  0  0
  -28.3643  -23.7331   18.9536 H   0  0  0  0  0  0
  -30.1296  -18.9671   22.5535 H   0  0  0  0  0  0
  -29.2560  -20.4792   22.7155 H   0  0  0  0  0  0
  -30.9341  -20.4798   22.1646 H   0  0  0  0  0  0
  -28.5580  -25.0305   21.7354 H   0  0  0  0  0  0
  -27.0059  -24.9326   21.0089 H   0  0  0  0  0  0
  -28.4614  -18.6889   16.1248 H   0  0  0  0  0  0
  -28.1487  -20.3606   16.0607 H   0  0  0  0  0  0
  1 25  1  0  0  0
  1 30  2  0  0  0
  1 79  1  0  0  0
  2  3  1  0  0  0
  2 25  1  0  0  0
  2 84  1  0  0  0
  2 85  1  0  0  0
  3  4  1  0  0  0
  3 86  1  0  0  0
  3 87  1  0  0  0
  4  5  1  0  0  0
  4 88  1  0  0  0
  4 89  1  0  0  0
  5  6  1  0  0  0
  5 26  1  0  0  0
  5 90  1  0  0  0
  6 25  1  0  0  0
  6 91  1  0  0  0
  6 92  1  0  0  0
  7  8  2  0  0  0
  7 26  1  0  0  0
  7 29  1  0  0  0
  8  9  1  0  0  0
  8 22  1  0  0  0
  9 10  1  0  0  0
  9 27  2  0  0  0
 10 11  2  0  0  0
 10 15  1  0  0  0
 11 12  1  0  0  0
 11 93  1  0  0  0
 12 13  2  0  0  0
 12 94  1  0  0  0
 13 14  1  0  0  0
 13 31  1  0  0  0
 14 15  2  0  0  0
 14 95  1  0  0  0
 15 96  1  0  0  0
 16 17  2  0  0  0
 16 21  1  0  0  0
 16 31  1  0  0  0
 17 18  1  0  0  0
 17 97  1  0  0  0
 18 19  2  0  0  0
 18 98  1  0  0  0
 19 20  1  0  0  0
 19 24  1  0  0  0
 20 21  2  0  0  0
 20 99  1  0  0  0
 21 23  1  0  0  0
 22 28  1  0  0  0
 22 32  2  0  0  0
 26 27  1  0  0  0
 28100  1  0  0  0
 28101  1  0  0  0
 29102  1  0  0  0
 29103  1  0  0  0
 33 34  1  0  0  0
 33 66  1  0  0  0
 33 70  2  0  0  0
 34 36  1  0  0  0
 34 59  1  0  0  0
 34104  1  0  0  0
 35 44  2  0  0  0
 35 45  1  0  0  0
 35 68  1  0  0  0
 36 56  1  0  0  0
 36105  1  0  0  0
 37 39  1  0  0  0
 37 47  1  0  0  0
 37 66  1  0  0  0
 37106  1  0  0  0
 38 43  2  0  0  0
 38 46  1  0  0  0
 38 47  1  0  0  0
 39 64  1  0  0  0
 39 67  2  0  0  0
 40 52  1  0  0  0
 40 53  2  0  0  0
 40 58  1  0  0  0
 41107  1  0  0  0
 41108  1  0  0  0
 41109  1  0  0  0
 41 48  1  0  0  0
 42 43  1  0  0  0
 42 66  1  0  0  0
 42110  1  0  0  0
 42111  1  0  0  0
 43 44  1  0  0  0
 44112  1  0  0  0
 45 46  2  0  0  0
 45113  1  0  0  0
 46114  1  0  0  0
 47115  1  0  0  0
 47116  1  0  0  0
 48 56  1  0  0  0
 48 65  1  0  0  0
 48117  1  0  0  0
 49 50  1  0  0  0
 49 53  1  0  0  0
 49 64  1  0  0  0
 49118  1  0  0  0
 50 51  1  0  0  0
 50119  1  0  0  0
 50120  1  0  0  0
 51 52  1  0  0  0
 51121  1  0  0  0
 51122  1  0  0  0
 52123  1  0  0  0
 52124  1  0  0  0
 53 54  1  0  0  0
 54 55  2  0  0  0
 54125  1  0  0  0
 55 57  1  0  0  0
 55126  1  0  0  0
 56 69  2  0  0  0
 57 58  2  0  0  0
 57127  1  0  0  0
 58128  1  0  0  0
 59 60  1  0  0  0
 59 61  1  0  0  0
 59 62  1  0  0  0
 60129  1  0  0  0
 60130  1  0  0  0
 60131  1  0  0  0
 61132  1  0  0  0
 61133  1  0  0  0
 61134  1  0  0  0
 62135  1  0  0  0
 62136  1  0  0  0
 62137  1  0  0  0
 63 65  1  0  0  0
 63138  1  0  0  0
 63139  1  0  0  0
 63140  1  0  0  0
 64141  1  0  0  0
 65142  1  0  0  0
 68 82  1  0  0  0
 71 73  2  0  0  0
 71 76  1  0  0  0
 71143  1  0  0  0
 72 74  1  0  0  0
 72 76  2  0  0  0
 72144  1  0  0  0
 73 75  1  0  0  0
 73 77  1  0  0  0
 74 75  2  0  0  0
 74 78  1  0  0  0
 75 81  1  0  0  0
 76 83  1  0  0  0
 77 79  2  0  0  0
 77145  1  0  0  0
 78 80  2  0  0  0
 78146  1  0  0  0
 79147  1  0  0  0
 80 82  1  0  0  0
 80148  1  0  0  0
 81149  1  0  0  0
 81150  1  0  0  0
 81151  1  0  0  0
 82152  1  0  0  0
 82153  1  0  0  0
 83154  1  0  0  0
 83155  1  0  0  0
M  ISO  4   1 100  68 101  79 100  82 101
M  END
> <chiral flag>
0

> <version>
0

> <s_m_source_file>
/data/baiqing/PycharmProjects/Reinvent-master-3.2/result/LINK_invent/BTK/process_docking_weight1_custom_product_contain_oxygen_bond_distance_aromatic_linkinvent_7_9_3/rearranged_h_0116.sdf

> <i_m_source_file_index>
5

> <r_mmod_Potential_Energy-OPLS-2005>
193.332229614258

> <r_mmod_Stretch_Energy-OPLS-2005>
112.814453125

> <r_mmod_Bend_Energy-OPLS-2005>
150.875289916992

> <r_mmod_Torsional_Energy-OPLS-2005>
242.904556274414

> <r_mmod_Improper_Torsional_Energy-OPLS-2005>
17.1719188690186

> <r_mmod_Van_der_Waal_Energy-OPLS-2005>
141.738571166992

> <r_mmod_Electrostatic_Energy-OPLS-2005>
-347.651977539062

> <r_mmod_Solvation_Energy-OPLS-2005>
-203.341293334961

> <b_mmod_Minimization_Converged-OPLS-2005>
0

> <r_mmod_RMS_Derivative-OPLS-2005>
4.0642147064209

$$$$
5
                    3D
 Structure written by MMmdl.
161169  0  0  1  0            999 V2000
  -30.7233  -14.5198   20.5564 C   0  0  0  0  0  0
  -30.4070  -12.3340   19.4417 C   0  0  0  0  0  0
  -29.4874  -12.4988   18.2157 C   0  0  0  0  0  0
  -28.0112  -12.3539   18.6281 C   0  0  0  0  0  0
  -27.6506  -13.2187   19.8662 C   0  0  2  0  0  0
  -28.6943  -13.0670   20.9969 C   0  0  0  0  0  0
  -25.2488  -13.8130   20.5534 C   0  0  0  0  0  0
  -24.1795  -13.0427   20.9172 C   0  0  0  0  0  0
  -24.6397  -11.6908   20.8810 C   0  0  0  0  0  0
  -23.9081  -10.4286   21.0458 C   0  0  0  0  0  0
  -24.3627   -9.4199   21.9233 C   0  0  0  0  0  0
  -23.6292   -8.2243   22.0791 C   0  0  0  0  0  0
  -22.4281   -8.0293   21.3564 C   0  0  0  0  0  0
  -21.9925   -9.0280   20.4670 C   0  0  0  0  0  0
  -22.7270  -10.2144   20.3095 C   0  0  0  0  0  0
  -21.6840   -6.0755   22.5287 C   0  0  0  0  0  0
  -21.4004   -6.5646   23.8225 C   0  0  0  0  0  0
  -21.3660   -5.6806   24.9186 C   0  0  0  0  0  0
  -21.6037   -4.3071   24.7227 C   0  0  0  0  0  0
  -21.8813   -3.8156   23.4348 C   0  0  0  0  0  0
  -21.9186   -4.6981   22.3408 C   0  0  0  0  0  0
  -22.7825  -13.5248   21.1816 C   0  0  0  0  0  0
  -22.1655   -4.2164   21.0985 F   0  0  0  0  0  0
  -21.5623   -3.4551   25.7735 F   0  0  0  0  0  0
  -30.0192  -13.3563   20.4309 N   0  0  0  0  0  0
  -26.2968  -12.9352   20.3341 N   0  0  0  0  0  0
  -25.9329  -11.6511   20.5856 N   0  0  0  0  0  0
  -22.0445  -12.8301   22.0389 N   0  0  0  0  0  0
  -25.4090  -15.1784   20.3573 N   0  0  0  0  0  0
  -31.8583  -14.6291   20.0878 O   0  0  0  0  0  0
  -21.6639   -6.8900   21.4250 O   0  0  0  0  0  0
  -22.3533  -14.5558   20.6657 O   0  0  0  0  0  0
  -24.6179  -31.8670   23.2049 C   0  0  0  0  0  0
  -25.9049  -32.4829   23.8354 C   0  0  1  0  0  0
  -27.2317  -27.4140   20.1032 C   0  0  0  0  0  0
  -25.5920  -33.8621   24.2304 N   0  0  0  0  0  0
  -23.4095  -30.4882   21.5456 C   0  0  2  0  0  0
  -24.8534  -28.9521   20.1135 C   0  0  0  0  0  0
  -22.7437  -29.4662   22.4957 C   0  0  0  0  0  0
  -18.0297  -28.1413   22.8477 C   0  0  0  0  0  0
  -24.1513  -36.7276   23.2639 C   0  0  0  0  0  0
  -25.9406  -30.8257   21.3628 C   0  0  0  0  0  0
  -26.0166  -29.4593   20.7088 C   0  0  0  0  0  0
  -27.2103  -28.6997   20.6953 C   0  0  0  0  0  0
  -26.0548  -26.9268   19.4973 C   0  0  0  0  0  0
  -24.8693  -27.6850   19.5031 C   0  0  0  0  0  0
  -23.6171  -29.8204   20.1618 C   0  0  0  0  0  0
  -25.4139  -36.3104   24.0332 C   0  0  1  0  0  0
  -20.5897  -28.3689   23.1303 C   0  0  2  0  0  0
  -20.6814  -26.9420   22.5412 C   0  0  0  0  0  0
  -19.5788  -26.6407   21.5232 C   0  0  0  0  0  0
  -18.1955  -26.7966   22.1614 C   0  0  0  0  0  0
  -19.1548  -28.8862   23.2910 C   0  0  0  0  0  0
  -18.9463  -30.1468   23.8924 C   0  0  0  0  0  0
  -17.6462  -30.6600   24.0566 C   0  0  0  0  0  0
  -25.9057  -34.9480   23.5112 C   0  0  0  0  0  0
  -16.5353  -29.9097   23.6325 C   0  0  0  0  0  0
  -16.7284  -28.6526   23.0325 C   0  0  0  0  0  0
  -26.4456  -31.6602   25.0680 C   0  0  0  0  0  0
  -25.3693  -31.3731   26.1396 C   0  0  0  0  0  0
  -27.0281  -30.3059   24.6041 C   0  0  0  0  0  0
  -27.6036  -32.4315   25.7434 C   0  0  0  0  0  0
  -27.5611  -37.1779   24.8455 C   0  0  0  0  0  0
  -21.4167  -29.3033   22.3668 N   0  0  0  0  0  0
  -26.4317  -37.3789   23.9410 N   0  0  0  0  0  0
  -24.6737  -31.0761   22.0954 N   0  0  0  0  0  0
  -23.4183  -28.8224   23.3036 O   0  0  0  0  0  0
  -28.3704  -26.6329   20.1046 O   0  0  0  0  0  0
  -26.5610  -34.8929   22.4673 O   0  0  0  0  0  0
  -23.5344  -32.1395   23.7432 O   0  0  0  0  0  0
  -32.4109  -18.5134   21.5987 C   0  0  0  0  0  0
  -31.9235  -17.2059   21.4481 C   0  0  0  0  0  0
  -29.6642  -18.0802   21.1959 C   0  0  0  0  0  0
  -31.5465  -19.6205   21.5300 C   0  0  0  0  0  0
  -30.5491  -16.9517   21.2250 C   0  0  0  0  0  0
  -30.1620  -19.4177   21.2883 C   0  0  0  0  0  0
  -27.4883  -17.1423   21.9668 C   0  0  0  0  0  0
  -28.2018  -17.9230   21.1397 C   0  0  0  0  0  0
  -32.1315  -20.9923   21.8206 C   0  0  0  0  0  0
  -28.9715  -24.1688   20.1276 C   0  0  0  0  0  0
  -28.8571  -22.8624   20.9718 C   0  0  0  0  0  0
  -28.2366  -25.3692   20.7917 C   0  0  0  0  0  0
  -29.3854  -21.5426   20.3402 C   0  0  0  0  0  0
  -30.0640  -15.5940   21.0654 N   0  0  0  0  0  0
  -29.2600  -20.4757   21.3006 O   0  0  0  0  0  0
  -31.4522  -12.4108   19.1393 H   0  0  0  0  0  0
  -30.2979  -11.3374   19.8710 H   0  0  0  0  0  0
  -29.7341  -11.7560   17.4564 H   0  0  0  0  0  0
  -29.6480  -13.4755   17.7567 H   0  0  0  0  0  0
  -27.8297  -11.2994   18.8412 H   0  0  0  0  0  0
  -27.3563  -12.6103   17.7932 H   0  0  0  0  0  0
  -27.6755  -14.2562   19.5335 H   0  0  0  0  0  0
  -28.6766  -12.0563   21.4070 H   0  0  0  0  0  0
  -28.4501  -13.7288   21.8291 H   0  0  0  0  0  0
  -25.2768   -9.5679   22.4823 H   0  0  0  0  0  0
  -23.9996   -7.4639   22.7521 H   0  0  0  0  0  0
  -21.0865   -8.8817   19.8971 H   0  0  0  0  0  0
  -22.3759  -10.9700   19.6212 H   0  0  0  0  0  0
  -21.1990   -7.6160   23.9722 H   0  0  0  0  0  0
  -21.1477   -6.0546   25.9088 H   0  0  0  0  0  0
  -22.0577   -2.7619   23.2851 H   0  0  0  0  0  0
  -22.3994  -11.9941   22.4794 H   0  0  0  0  0  0
  -21.1083  -13.1411   22.2541 H   0  0  0  0  0  0
  -24.6274  -15.8227   20.4041 H   0  0  0  0  0  0
  -26.2529  -15.6012   19.9925 H   0  0  0  0  0  0
  -26.7105  -32.5505   23.1092 H   0  0  0  0  0  0
  -25.0090  -33.9784   25.0460 H   0  0  0  0  0  0
  -22.7011  -31.3055   21.4031 H   0  0  0  0  0  0
  -23.3826  -35.9556   23.3261 H   0  0  0  0  0  0
  -24.3620  -36.8920   22.2064 H   0  0  0  0  0  0
  -23.7204  -37.6444   23.6657 H   0  0  0  0  0  0
  -26.0660  -31.5915   20.5958 H   0  0  0  0  0  0
  -26.8252  -30.8718   21.9853 H   0  0  0  0  0  0
  -28.1092  -29.0866   21.1550 H   0  0  0  0  0  0
  -26.0525  -25.9517   19.0291 H   0  0  0  0  0  0
  -23.9752  -27.2846   19.0445 H   0  0  0  0  0  0
  -23.7282  -30.5920   19.3992 H   0  0  0  0  0  0
  -22.7436  -29.2380   19.8641 H   0  0  0  0  0  0
  -25.1336  -36.1950   25.0828 H   0  0  0  0  0  0
  -20.9997  -28.3272   24.1427 H   0  0  0  0  0  0
  -20.5809  -26.2281   23.3599 H   0  0  0  0  0  0
  -21.6672  -26.7523   22.1142 H   0  0  0  0  0  0
  -19.6958  -25.6339   21.1226 H   0  0  0  0  0  0
  -19.6759  -27.3245   20.6796 H   0  0  0  0  0  0
  -17.4249  -26.6726   21.3989 H   0  0  0  0  0  0
  -18.0323  -26.0129   22.9023 H   0  0  0  0  0  0
  -19.7943  -30.7281   24.2295 H   0  0  0  0  0  0
  -17.5010  -31.6276   24.5184 H   0  0  0  0  0  0
  -15.5351  -30.2992   23.7667 H   0  0  0  0  0  0
  -15.8687  -28.0856   22.7011 H   0  0  0  0  0  0
  -24.5864  -30.7111   25.7675 H   0  0  0  0  0  0
  -24.8890  -32.2911   26.4799 H   0  0  0  0  0  0
  -25.7999  -30.8877   27.0165 H   0  0  0  0  0  0
  -26.2811  -29.6837   24.1107 H   0  0  0  0  0  0
  -27.4099  -29.7279   25.4464 H   0  0  0  0  0  0
  -27.8617  -30.4420   23.9154 H   0  0  0  0  0  0
  -27.2686  -33.3644   26.1974 H   0  0  0  0  0  0
  -28.3842  -32.6832   25.0244 H   0  0  0  0  0  0
  -28.0688  -31.8453   26.5359 H   0  0  0  0  0  0
  -28.2579  -38.0131   24.7598 H   0  0  0  0  0  0
  -28.1182  -36.2670   24.6197 H   0  0  0  0  0  0
  -27.2326  -37.1276   25.8852 H   0  0  0  0  0  0
  -20.9334  -29.8652   21.6791 H   0  0  0  0  0  0
  -26.0221  -38.2864   24.1445 H   0  0  0  0  0  0
  -33.4644  -18.6575   21.7998 H   0  0  0  0  0  0
  -32.6368  -16.4004   21.5366 H   0  0  0  0  0  0
  -26.4126  -17.0838   21.8813 H   0  0  0  0  0  0
  -27.9581  -16.5634   22.7511 H   0  0  0  0  0  0
  -27.6886  -18.4893   20.3745 H   0  0  0  0  0  0
  -32.3637  -21.5241   20.9004 H   0  0  0  0  0  0
  -33.0623  -20.9037   22.3827 H   0  0  0  0  0  0
  -31.4462  -21.5944   22.4168 H   0  0  0  0  0  0
  -28.5583  -24.0029   19.1331 H   0  0  0  0  0  0
  -30.0232  -24.4209   19.9849 H   0  0  0  0  0  0
  -27.8078  -22.7044   21.2251 H   0  0  0  0  0  0
  -29.3653  -23.0195   21.9238 H   0  0  0  0  0  0
  -28.6300  -25.5139   21.7981 H   0  0  0  0  0  0
  -27.1918  -25.0891   20.9346 H   0  0  0  0  0  0
  -30.3974  -21.6691   19.9621 H   0  0  0  0  0  0
  -28.7746  -21.2855   19.4737 H   0  0  0  0  0  0
  -29.0814  -15.4565   21.2456 H   0  0  0  0  0  0
  1 25  1  0  0  0
  1 30  2  0  0  0
  1 84  1  0  0  0
  2  3  1  0  0  0
  2 25  1  0  0  0
  2 86  1  0  0  0
  2 87  1  0  0  0
  3  4  1  0  0  0
  3 88  1  0  0  0
  3 89  1  0  0  0
  4  5  1  0  0  0
  4 90  1  0  0  0
  4 91  1  0  0  0
  5  6  1  0  0  0
  5 26  1  0  0  0
  5 92  1  0  0  0
  6 25  1  0  0  0
  6 93  1  0  0  0
  6 94  1  0  0  0
  7  8  2  0  0  0
  7 26  1  0  0  0
  7 29  1  0  0  0
  8  9  1  0  0  0
  8 22  1  0  0  0
  9 10  1  0  0  0
  9 27  2  0  0  0
 10 11  2  0  0  0
 10 15  1  0  0  0
 11 12  1  0  0  0
 11 95  1  0  0  0
 12 13  2  0  0  0
 12 96  1  0  0  0
 13 14  1  0  0  0
 13 31  1  0  0  0
 14 15  2  0  0  0
 14 97  1  0  0  0
 15 98  1  0  0  0
 16 17  2  0  0  0
 16 21  1  0  0  0
 16 31  1  0  0  0
 17 18  1  0  0  0
 17 99  1  0  0  0
 18 19  2  0  0  0
 18100  1  0  0  0
 19 20  1  0  0  0
 19 24  1  0  0  0
 20 21  2  0  0  0
 20101  1  0  0  0
 21 23  1  0  0  0
 22 28  1  0  0  0
 22 32  2  0  0  0
 26 27  1  0  0  0
 28102  1  0  0  0
 28103  1  0  0  0
 29104  1  0  0  0
 29105  1  0  0  0
 33 34  1  0  0  0
 33 66  1  0  0  0
 33 70  2  0  0  0
 34 36  1  0  0  0
 34 59  1  0  0  0
 34106  1  0  0  0
 35 44  2  0  0  0
 35 45  1  0  0  0
 35 68  1  0  0  0
 36 56  1  0  0  0
 36107  1  0  0  0
 37 39  1  0  0  0
 37 47  1  0  0  0
 37 66  1  0  0  0
 37108  1  0  0  0
 38 43  2  0  0  0
 38 46  1  0  0  0
 38 47  1  0  0  0
 39 64  1  0  0  0
 39 67  2  0  0  0
 40 52  1  0  0  0
 40 53  2  0  0  0
 40 58  1  0  0  0
 41109  1  0  0  0
 41110  1  0  0  0
 41111  1  0  0  0
 41 48  1  0  0  0
 42 43  1  0  0  0
 42 66  1  0  0  0
 42112  1  0  0  0
 42113  1  0  0  0
 43 44  1  0  0  0
 44114  1  0  0  0
 45 46  2  0  0  0
 45115  1  0  0  0
 46116  1  0  0  0
 47117  1  0  0  0
 47118  1  0  0  0
 48 56  1  0  0  0
 48 65  1  0  0  0
 48119  1  0  0  0
 49 50  1  0  0  0
 49 53  1  0  0  0
 49 64  1  0  0  0
 49120  1  0  0  0
 50 51  1  0  0  0
 50121  1  0  0  0
 50122  1  0  0  0
 51 52  1  0  0  0
 51123  1  0  0  0
 51124  1  0  0  0
 52125  1  0  0  0
 52126  1  0  0  0
 53 54  1  0  0  0
 54 55  2  0  0  0
 54127  1  0  0  0
 55 57  1  0  0  0
 55128  1  0  0  0
 56 69  2  0  0  0
 57 58  2  0  0  0
 57129  1  0  0  0
 58130  1  0  0  0
 59 60  1  0  0  0
 59 61  1  0  0  0
 59 62  1  0  0  0
 60131  1  0  0  0
 60132  1  0  0  0
 60133  1  0  0  0
 61134  1  0  0  0
 61135  1  0  0  0
 61136  1  0  0  0
 62137  1  0  0  0
 62138  1  0  0  0
 62139  1  0  0  0
 63 65  1  0  0  0
 63140  1  0  0  0
 63141  1  0  0  0
 63142  1  0  0  0
 64143  1  0  0  0
 65144  1  0  0  0
 68 82  1  0  0  0
 71 72  2  0  0  0
 71 74  1  0  0  0
 71145  1  0  0  0
 72 75  1  0  0  0
 72146  1  0  0  0
 73 75  2  0  0  0
 73 76  1  0  0  0
 73 78  1  0  0  0
 74 76  2  0  0  0
 74 79  1  0  0  0
 75 84  1  0  0  0
 76 85  1  0  0  0
 77 78  2  0  0  0
 77147  1  0  0  0
 77148  1  0  0  0
 78149  1  0  0  0
 79150  1  0  0  0
 79151  1  0  0  0
 79152  1  0  0  0
 80 81  1  0  0  0
 80 82  1  0  0  0
 80153  1  0  0  0
 80154  1  0  0  0
 81 83  1  0  0  0
 81155  1  0  0  0
 81156  1  0  0  0
 82157  1  0  0  0
 82158  1  0  0  0
 83 85  1  0  0  0
 83159  1  0  0  0
 83160  1  0  0  0
 84161  1  0  0  0
M  ISO  4   1 100  68 101  82 101  84 100
M  END
> <chiral flag>
0

> <version>
0

> <s_m_source_file>
/data/baiqing/PycharmProjects/Reinvent-master-3.2/result/LINK_invent/BTK/process_docking_weight1_custom_product_contain_oxygen_bond_distance_aromatic_linkinvent_7_9_3/rearranged_h_0116.sdf

> <i_m_source_file_index>
6

> <r_mmod_Potential_Energy-OPLS-2005>
31.8201007843018

> <r_mmod_Stretch_Energy-OPLS-2005>
47.1851501464844

> <r_mmod_Bend_Energy-OPLS-2005>
106.121864318848

> <r_mmod_Torsional_Energy-OPLS-2005>
277.190948486328

> <r_mmod_Improper_Torsional_Energy-OPLS-2005>
4.91528367996216

> <r_mmod_Van_der_Waal_Energy-OPLS-2005>
156.973205566406

> <r_mmod_Electrostatic_Energy-OPLS-2005>
-383.986175537109

> <r_mmod_Solvation_Energy-OPLS-2005>
-196.918167114258

> <b_mmod_Minimization_Converged-OPLS-2005>
0

> <r_mmod_RMS_Derivative-OPLS-2005>
3.17777538299561

$$$$
6
                    3D
 Structure written by MMmdl.
157165  0  0  1  0            999 V2000
  -30.7193  -14.5548   20.6308 C   0  0  0  0  0  0
  -30.3994  -12.3659   19.4797 C   0  0  0  0  0  0
  -29.5059  -12.5309   18.2371 C   0  0  0  0  0  0
  -28.0244  -12.3701   18.6260 C   0  0  0  0  0  0
  -27.6521  -13.2237   19.8689 C   0  0  2  0  0  0
  -28.6793  -13.0745   21.0115 C   0  0  0  0  0  0
  -25.2547  -13.8188   20.5657 C   0  0  0  0  0  0
  -24.1821  -13.0439   20.9139 C   0  0  0  0  0  0
  -24.6402  -11.6916   20.8697 C   0  0  0  0  0  0
  -23.9080  -10.4297   21.0372 C   0  0  0  0  0  0
  -24.3647   -9.4209   21.9153 C   0  0  0  0  0  0
  -23.6311   -8.2255   22.0755 C   0  0  0  0  0  0
  -22.4274   -8.0301   21.3564 C   0  0  0  0  0  0
  -21.9909   -9.0245   20.4642 C   0  0  0  0  0  0
  -22.7251  -10.2114   20.3017 C   0  0  0  0  0  0
  -21.6870   -6.0735   22.5281 C   0  0  0  0  0  0
  -21.4034   -6.5643   23.8206 C   0  0  0  0  0  0
  -21.3656   -5.6803   24.9179 C   0  0  0  0  0  0
  -21.6041   -4.3062   24.7238 C   0  0  0  0  0  0
  -21.8823   -3.8150   23.4360 C   0  0  0  0  0  0
  -21.9198   -4.6962   22.3414 C   0  0  0  0  0  0
  -22.7850  -13.5232   21.1823 C   0  0  0  0  0  0
  -22.1660   -4.2144   21.0989 F   0  0  0  0  0  0
  -21.5620   -3.4547   25.7741 F   0  0  0  0  0  0
  -30.0093  -13.3876   20.4761 N   0  0  0  0  0  0
  -26.2973  -12.9384   20.3297 N   0  0  0  0  0  0
  -25.9343  -11.6537   20.5723 N   0  0  0  0  0  0
  -22.0543  -12.8173   22.0367 N   0  0  0  0  0  0
  -25.4229  -15.1901   20.4110 N   0  0  0  0  0  0
  -31.7491  -14.7657   19.9775 O   0  0  0  0  0  0
  -21.6657   -6.8883   21.4239 O   0  0  0  0  0  0
  -22.3504  -14.5534   20.6704 O   0  0  0  0  0  0
  -24.6234  -31.8629   23.2017 C   0  0  0  0  0  0
  -25.9107  -32.4801   23.8368 C   0  0  1  0  0  0
  -27.2297  -27.3513   20.0999 C   0  0  0  0  0  0
  -25.5901  -33.8592   24.2282 N   0  0  0  0  0  0
  -23.4164  -30.4855   21.5407 C   0  0  2  0  0  0
  -24.8605  -28.9409   20.1031 C   0  0  0  0  0  0
  -22.7484  -29.4632   22.4929 C   0  0  0  0  0  0
  -18.0275  -28.1412   22.8520 C   0  0  0  0  0  0
  -24.1453  -36.7261   23.2652 C   0  0  0  0  0  0
  -25.9547  -30.8001   21.3648 C   0  0  0  0  0  0
  -26.0237  -29.4276   20.7093 C   0  0  0  0  0  0
  -27.2054  -28.6383   20.7118 C   0  0  0  0  0  0
  -26.0427  -26.9014   19.4791 C   0  0  0  0  0  0
  -24.8674  -27.6804   19.4836 C   0  0  0  0  0  0
  -23.6314  -29.8228   20.1520 C   0  0  0  0  0  0
  -25.4082  -36.3080   24.0365 C   0  0  1  0  0  0
  -20.5896  -28.3649   23.1335 C   0  0  2  0  0  0
  -20.6758  -26.9378   22.5432 C   0  0  0  0  0  0
  -19.5738  -26.6385   21.5237 C   0  0  0  0  0  0
  -18.1904  -26.7963   22.1634 C   0  0  0  0  0  0
  -19.1538  -28.8855   23.2907 C   0  0  0  0  0  0
  -18.9462  -30.1466   23.8906 C   0  0  0  0  0  0
  -17.6459  -30.6602   24.0592 C   0  0  0  0  0  0
  -25.9056  -34.9472   23.5124 C   0  0  0  0  0  0
  -16.5355  -29.9129   23.6341 C   0  0  0  0  0  0
  -16.7261  -28.6543   23.0367 C   0  0  0  0  0  0
  -26.4476  -31.6654   25.0761 C   0  0  0  0  0  0
  -25.3738  -31.3766   26.1514 C   0  0  0  0  0  0
  -27.0329  -30.3125   24.6173 C   0  0  0  0  0  0
  -27.6025  -32.4409   25.7510 C   0  0  0  0  0  0
  -27.5555  -37.1770   24.8467 C   0  0  0  0  0  0
  -21.4186  -29.3029   22.3727 N   0  0  0  0  0  0
  -26.4227  -37.3803   23.9482 N   0  0  0  0  0  0
  -24.6846  -31.0700   22.0909 N   0  0  0  0  0  0
  -23.4251  -28.8192   23.2983 O   0  0  0  0  0  0
  -28.3863  -26.5700   20.1526 O   0  0  0  0  0  0
  -26.5618  -34.8950   22.4680 O   0  0  0  0  0  0
  -23.5421  -32.1364   23.7387 O   0  0  0  0  0  0
  -27.3598  -17.7853   22.5525 C   0  0  0  0  0  0
  -27.6505  -18.9559   21.8309 C   0  0  0  0  0  0
  -29.6551  -17.8930   20.9809 C   0  0  0  0  0  0
  -28.2362  -16.6763   22.5679 C   0  0  0  0  0  0
  -29.3879  -16.6779   21.7154 C   0  0  0  0  0  0
  -28.8291  -19.0710   21.0653 C   0  0  0  0  0  0
  -26.7248  -15.3142   24.0938 C   0  0  0  0  0  0
  -27.9144  -15.5742   23.5133 C   0  0  0  0  0  0
  -28.9280  -22.8544   20.1785 C   0  0  0  0  0  0
  -28.1715  -23.9940   20.0770 C   0  0  0  0  0  0
  -30.4070  -15.5305   21.8037 C   0  0  0  0  0  0
  -28.4760  -21.5232   20.8432 C   0  0  0  0  0  0
  -28.5418  -25.3337   19.3810 C   0  0  0  0  0  0
  -31.0920  -15.3983   22.8660 N   0  0  0  0  0  0
  -29.1748  -20.2929   20.4436 O   0  0  0  0  0  0
  -31.4539  -12.4277   19.2087 H   0  0  0  0  0  0
  -30.2688  -11.3698   19.9083 H   0  0  0  0  0  0
  -29.7798  -11.7992   17.4734 H   0  0  0  0  0  0
  -29.6670  -13.5149   17.7958 H   0  0  0  0  0  0
  -27.8437  -11.3119   18.8298 H   0  0  0  0  0  0
  -27.3830  -12.6301   17.7817 H   0  0  0  0  0  0
  -27.6751  -14.2638   19.5431 H   0  0  0  0  0  0
  -28.6633  -12.0690   21.4329 H   0  0  0  0  0  0
  -28.3993  -13.7309   21.8239 H   0  0  0  0  0  0
  -25.2814   -9.5692   22.4699 H   0  0  0  0  0  0
  -24.0024   -7.4667   22.7493 H   0  0  0  0  0  0
  -21.0837   -8.8777   19.8958 H   0  0  0  0  0  0
  -22.3740  -10.9638   19.6111 H   0  0  0  0  0  0
  -21.2035   -7.6151   23.9715 H   0  0  0  0  0  0
  -21.1464   -6.0527   25.9076 H   0  0  0  0  0  0
  -22.0597   -2.7606   23.2861 H   0  0  0  0  0  0
  -22.4241  -11.9806   22.4627 H   0  0  0  0  0  0
  -21.1165  -13.1148   22.2674 H   0  0  0  0  0  0
  -24.6644  -15.8442   20.5633 H   0  0  0  0  0  0
  -26.2951  -15.6418   20.1662 H   0  0  0  0  0  0
  -26.7210  -32.5466   23.1154 H   0  0  0  0  0  0
  -25.0078  -33.9723   25.0454 H   0  0  0  0  0  0
  -22.7085  -31.3054   21.4020 H   0  0  0  0  0  0
  -23.3740  -35.9553   23.3292 H   0  0  0  0  0  0
  -24.3566  -36.8880   22.2068 H   0  0  0  0  0  0
  -23.7165  -37.6433   23.6692 H   0  0  0  0  0  0
  -26.0983  -31.5669   20.6005 H   0  0  0  0  0  0
  -26.8337  -30.8455   21.9971 H   0  0  0  0  0  0
  -28.0970  -29.0132   21.1950 H   0  0  0  0  0  0
  -25.9894  -25.9340   19.0040 H   0  0  0  0  0  0
  -23.9734  -27.3002   19.0094 H   0  0  0  0  0  0
  -23.7590  -30.6065   19.4019 H   0  0  0  0  0  0
  -22.7487  -29.2610   19.8415 H   0  0  0  0  0  0
  -25.1266  -36.1874   25.0857 H   0  0  0  0  0  0
  -20.9961  -28.3143   24.1474 H   0  0  0  0  0  0
  -20.5616  -26.2241   23.3613 H   0  0  0  0  0  0
  -21.6629  -26.7392   22.1267 H   0  0  0  0  0  0
  -19.6870  -25.6290   21.1272 H   0  0  0  0  0  0
  -19.6704  -27.3200   20.6790 H   0  0  0  0  0  0
  -17.4199  -26.6748   21.4005 H   0  0  0  0  0  0
  -18.0241  -26.0099   22.9019 H   0  0  0  0  0  0
  -19.7936  -30.7301   24.2239 H   0  0  0  0  0  0
  -17.5033  -31.6277   24.5216 H   0  0  0  0  0  0
  -15.5359  -30.3077   23.7637 H   0  0  0  0  0  0
  -15.8660  -28.0896   22.7071 H   0  0  0  0  0  0
  -24.5941  -30.7068   25.7908 H   0  0  0  0  0  0
  -24.8886  -32.2902   26.4956 H   0  0  0  0  0  0
  -25.8116  -30.8993   27.0297 H   0  0  0  0  0  0
  -26.2891  -29.6904   24.1178 H   0  0  0  0  0  0
  -27.4080  -29.7364   25.4627 H   0  0  0  0  0  0
  -27.8756  -30.4523   23.9397 H   0  0  0  0  0  0
  -27.2649  -33.3749   26.2018 H   0  0  0  0  0  0
  -28.3847  -32.6888   25.0338 H   0  0  0  0  0  0
  -28.0698  -31.8594   26.5460 H   0  0  0  0  0  0
  -28.2538  -38.0102   24.7590 H   0  0  0  0  0  0
  -28.1062  -36.2635   24.6150 H   0  0  0  0  0  0
  -27.2319  -37.1267   25.8877 H   0  0  0  0  0  0
  -20.9311  -29.8778   21.7010 H   0  0  0  0  0  0
  -26.0068  -38.2849   24.1538 H   0  0  0  0  0  0
  -26.4730  -17.7963   23.1665 H   0  0  0  0  0  0
  -26.9475  -19.7706   21.9199 H   0  0  0  0  0  0
  -30.5630  -17.9432   20.3961 H   0  0  0  0  0  0
  -26.6412  -14.4972   24.7934 H   0  0  0  0  0  0
  -25.8104  -15.8720   23.9150 H   0  0  0  0  0  0
  -28.7299  -14.9233   23.8022 H   0  0  0  0  0  0
  -29.9290  -22.8570   19.7768 H   0  0  0  0  0  0
  -27.1741  -23.9758   20.4920 H   0  0  0  0  0  0
  -27.4108  -21.4299   20.6309 H   0  0  0  0  0  0
  -28.5826  -21.6455   21.9223 H   0  0  0  0  0  0
  -28.0032  -25.3968   18.4365 H   0  0  0  0  0  0
  -29.5909  -25.2751   19.0861 H   0  0  0  0  0  0
  -30.8479  -16.0983   23.5562 H   0  0  0  0  0  0
  1 25  1  0  0  0
  1 30  2  0  0  0
  1 81  1  0  0  0
  2  3  1  0  0  0
  2 25  1  0  0  0
  2 86  1  0  0  0
  2 87  1  0  0  0
  3  4  1  0  0  0
  3 88  1  0  0  0
  3 89  1  0  0  0
  4  5  1  0  0  0
  4 90  1  0  0  0
  4 91  1  0  0  0
  5  6  1  0  0  0
  5 26  1  0  0  0
  5 92  1  0  0  0
  6 25  1  0  0  0
  6 93  1  0  0  0
  6 94  1  0  0  0
  7  8  2  0  0  0
  7 26  1  0  0  0
  7 29  1  0  0  0
  8  9  1  0  0  0
  8 22  1  0  0  0
  9 10  1  0  0  0
  9 27  2  0  0  0
 10 11  2  0  0  0
 10 15  1  0  0  0
 11 12  1  0  0  0
 11 95  1  0  0  0
 12 13  2  0  0  0
 12 96  1  0  0  0
 13 14  1  0  0  0
 13 31  1  0  0  0
 14 15  2  0  0  0
 14 97  1  0  0  0
 15 98  1  0  0  0
 16 17  2  0  0  0
 16 21  1  0  0  0
 16 31  1  0  0  0
 17 18  1  0  0  0
 17 99  1  0  0  0
 18 19  2  0  0  0
 18100  1  0  0  0
 19 20  1  0  0  0
 19 24  1  0  0  0
 20 21  2  0  0  0
 20101  1  0  0  0
 21 23  1  0  0  0
 22 28  1  0  0  0
 22 32  2  0  0  0
 26 27  1  0  0  0
 28102  1  0  0  0
 28103  1  0  0  0
 29104  1  0  0  0
 29105  1  0  0  0
 33 34  1  0  0  0
 33 66  1  0  0  0
 33 70  2  0  0  0
 34 36  1  0  0  0
 34 59  1  0  0  0
 34106  1  0  0  0
 35 44  2  0  0  0
 35 45  1  0  0  0
 35 68  1  0  0  0
 36 56  1  0  0  0
 36107  1  0  0  0
 37 39  1  0  0  0
 37 47  1  0  0  0
 37 66  1  0  0  0
 37108  1  0  0  0
 38 43  2  0  0  0
 38 46  1  0  0  0
 38 47  1  0  0  0
 39 64  1  0  0  0
 39 67  2  0  0  0
 40 52  1  0  0  0
 40 53  2  0  0  0
 40 58  1  0  0  0
 41109  1  0  0  0
 41110  1  0  0  0
 41111  1  0  0  0
 41 48  1  0  0  0
 42 43  1  0  0  0
 42 66  1  0  0  0
 42112  1  0  0  0
 42113  1  0  0  0
 43 44  1  0  0  0
 44114  1  0  0  0
 45 46  2  0  0  0
 45115  1  0  0  0
 46116  1  0  0  0
 47117  1  0  0  0
 47118  1  0  0  0
 48 56  1  0  0  0
 48 65  1  0  0  0
 48119  1  0  0  0
 49 50  1  0  0  0
 49 53  1  0  0  0
 49 64  1  0  0  0
 49120  1  0  0  0
 50 51  1  0  0  0
 50121  1  0  0  0
 50122  1  0  0  0
 51 52  1  0  0  0
 51123  1  0  0  0
 51124  1  0  0  0
 52125  1  0  0  0
 52126  1  0  0  0
 53 54  1  0  0  0
 54 55  2  0  0  0
 54127  1  0  0  0
 55 57  1  0  0  0
 55128  1  0  0  0
 56 69  2  0  0  0
 57 58  2  0  0  0
 57129  1  0  0  0
 58130  1  0  0  0
 59 60  1  0  0  0
 59 61  1  0  0  0
 59 62  1  0  0  0
 60131  1  0  0  0
 60132  1  0  0  0
 60133  1  0  0  0
 61134  1  0  0  0
 61135  1  0  0  0
 61136  1  0  0  0
 62137  1  0  0  0
 62138  1  0  0  0
 62139  1  0  0  0
 63 65  1  0  0  0
 63140  1  0  0  0
 63141  1  0  0  0
 63142  1  0  0  0
 64143  1  0  0  0
 65144  1  0  0  0
 68 83  1  0  0  0
 71 72  2  0  0  0
 71 74  1  0  0  0
 71145  1  0  0  0
 72 76  1  0  0  0
 72146  1  0  0  0
 73 75  1  0  0  0
 73 76  2  0  0  0
 73147  1  0  0  0
 74 75  2  0  0  0
 74 78  1  0  0  0
 75 81  1  0  0  0
 76 85  1  0  0  0
 77 78  2  0  0  0
 77148  1  0  0  0
 77149  1  0  0  0
 78150  1  0  0  0
 79 80  2  0  0  0
 79 82  1  0  0  0
 79151  1  0  0  0
 80 83  1  0  0  0
 80152  1  0  0  0
 81 84  2  0  0  0
 82 85  1  0  0  0
 82153  1  0  0  0
 82154  1  0  0  0
 83155  1  0  0  0
 83156  1  0  0  0
 84157  1  0  0  0
M  ISO  4   1 100  68 101  81 100  83 101
M  END
> <chiral flag>
0

> <version>
0

> <s_m_source_file>
/data/baiqing/PycharmProjects/Reinvent-master-3.2/result/LINK_invent/BTK/process_docking_weight1_custom_product_contain_oxygen_bond_distance_aromatic_linkinvent_7_9_3/rearranged_h_0116.sdf

> <i_m_source_file_index>
7

> <r_mmod_Potential_Energy-OPLS-2005>
222.699951171875

> <r_mmod_Stretch_Energy-OPLS-2005>
81.6520690917969

> <r_mmod_Bend_Energy-OPLS-2005>
150.667022705078

> <r_mmod_Torsional_Energy-OPLS-2005>
230.516418457031

> <r_mmod_Improper_Torsional_Energy-OPLS-2005>
6.81311750411987

> <r_mmod_Van_der_Waal_Energy-OPLS-2005>
147.101333618164

> <r_mmod_Electrostatic_Energy-OPLS-2005>
-225.084945678711

> <r_mmod_Solvation_Energy-OPLS-2005>
-200.196426391602

> <b_mmod_Minimization_Converged-OPLS-2005>
0

> <r_mmod_RMS_Derivative-OPLS-2005>
5.75777769088745

$$$$
7
                    3D
 Structure written by MMmdl.
158166  0  0  1  0            999 V2000
  -30.5785  -14.6918   20.4925 C   0  0  0  0  0  0
  -30.4499  -12.4204   19.4617 C   0  0  0  0  0  0
  -29.5167  -12.5007   18.2313 C   0  0  0  0  0  0
  -28.0398  -12.3316   18.6428 C   0  0  0  0  0  0
  -27.6543  -13.2113   19.8611 C   0  0  2  0  0  0
  -28.6970  -13.0751   20.9936 C   0  0  0  0  0  0
  -25.2586  -13.8149   20.5675 C   0  0  0  0  0  0
  -24.1835  -13.0429   20.9164 C   0  0  0  0  0  0
  -24.6384  -11.6892   20.8707 C   0  0  0  0  0  0
  -23.9040  -10.4282   21.0385 C   0  0  0  0  0  0
  -24.3593   -9.4201   21.9172 C   0  0  0  0  0  0
  -23.6264   -8.2245   22.0757 C   0  0  0  0  0  0
  -22.4254   -8.0270   21.3547 C   0  0  0  0  0  0
  -21.9874   -9.0248   20.4668 C   0  0  0  0  0  0
  -22.7206  -10.2123   20.3054 C   0  0  0  0  0  0
  -21.6855   -6.0706   22.5261 C   0  0  0  0  0  0
  -21.4032   -6.5617   23.8192 C   0  0  0  0  0  0
  -21.3655   -5.6781   24.9160 C   0  0  0  0  0  0
  -21.6040   -4.3044   24.7221 C   0  0  0  0  0  0
  -21.8822   -3.8128   23.4346 C   0  0  0  0  0  0
  -21.9202   -4.6939   22.3394 C   0  0  0  0  0  0
  -22.7859  -13.5243   21.1816 C   0  0  0  0  0  0
  -22.1665   -4.2114   21.0970 F   0  0  0  0  0  0
  -21.5618   -3.4536   25.7743 F   0  0  0  0  0  0
  -30.0084  -13.4429   20.4350 N   0  0  0  0  0  0
  -26.2991  -12.9312   20.3291 N   0  0  0  0  0  0
  -25.9313  -11.6474   20.5720 N   0  0  0  0  0  0
  -22.0504  -12.8270   22.0398 N   0  0  0  0  0  0
  -25.4326  -15.1870   20.4097 N   0  0  0  0  0  0
  -31.7304  -14.8835   20.0897 O   0  0  0  0  0  0
  -21.6637   -6.8854   21.4226 O   0  0  0  0  0  0
  -22.3547  -14.5545   20.6653 O   0  0  0  0  0  0
  -24.6272  -31.8577   23.1975 C   0  0  0  0  0  0
  -25.9112  -32.4769   23.8327 C   0  0  1  0  0  0
  -27.2353  -27.3032   20.1211 C   0  0  0  0  0  0
  -25.5918  -33.8570   24.2258 N   0  0  0  0  0  0
  -23.4225  -30.4776   21.5388 C   0  0  2  0  0  0
  -24.8703  -28.9218   20.1092 C   0  0  0  0  0  0
  -22.7480  -29.4619   22.4910 C   0  0  0  0  0  0
  -18.0298  -28.1398   22.8492 C   0  0  0  0  0  0
  -24.1487  -36.7286   23.2635 C   0  0  0  0  0  0
  -25.9627  -30.7812   21.3717 C   0  0  0  0  0  0
  -26.0351  -29.4056   20.7159 C   0  0  0  0  0  0
  -27.2144  -28.6064   20.7115 C   0  0  0  0  0  0
  -26.0448  -26.8619   19.5027 C   0  0  0  0  0  0
  -24.8777  -27.6569   19.4952 C   0  0  0  0  0  0
  -23.6387  -29.8045   20.1557 C   0  0  0  0  0  0
  -25.4112  -36.3082   24.0329 C   0  0  1  0  0  0
  -20.5897  -28.3711   23.1275 C   0  0  2  0  0  0
  -20.6785  -26.9432   22.5412 C   0  0  0  0  0  0
  -19.5760  -26.6400   21.5213 C   0  0  0  0  0  0
  -18.1940  -26.7945   22.1625 C   0  0  0  0  0  0
  -19.1550  -28.8868   23.2884 C   0  0  0  0  0  0
  -18.9472  -30.1466   23.8914 C   0  0  0  0  0  0
  -17.6472  -30.6604   24.0565 C   0  0  0  0  0  0
  -25.9051  -34.9449   23.5100 C   0  0  0  0  0  0
  -16.5363  -29.9105   23.6325 C   0  0  0  0  0  0
  -16.7283  -28.6515   23.0356 C   0  0  0  0  0  0
  -26.4479  -31.6597   25.0715 C   0  0  0  0  0  0
  -25.3688  -31.3795   26.1438 C   0  0  0  0  0  0
  -27.0305  -30.3000   24.6218 C   0  0  0  0  0  0
  -27.6065  -32.4313   25.7469 C   0  0  0  0  0  0
  -27.5588  -37.1786   24.8456 C   0  0  0  0  0  0
  -21.4190  -29.3055   22.3657 N   0  0  0  0  0  0
  -26.4292  -37.3778   23.9414 N   0  0  0  0  0  0
  -24.6895  -31.0572   22.0928 N   0  0  0  0  0  0
  -23.4193  -28.8175   23.3011 O   0  0  0  0  0  0
  -28.3907  -26.5069   20.1866 O   0  0  0  0  0  0
  -26.5628  -34.8926   22.4676 O   0  0  0  0  0  0
  -23.5435  -32.1380   23.7299 O   0  0  0  0  0  0
  -30.4795  -17.9645   19.8758 C   0  0  0  0  0  0
  -28.6146  -17.8671   21.3810 C   0  0  0  0  0  0
  -30.2165  -19.3621   19.6607 C   0  0  0  0  0  0
  -29.6624  -17.1647   20.7212 C   0  0  0  0  0  0
  -28.3392  -19.2628   21.1784 C   0  0  0  0  0  0
  -29.1305  -20.0415   20.2927 C   0  0  0  0  0  0
  -31.0855  -20.1302   18.6827 C   0  0  0  0  0  0
  -26.4128  -19.1855   22.6209 C   0  0  0  0  0  0
  -28.2774  -23.8755   20.6809 C   0  0  0  0  0  0
  -28.5033  -25.1091   19.6907 C   0  0  0  0  0  0
  -29.1838  -22.5412   20.6307 C   0  0  0  0  0  0
  -29.7446  -15.7041   20.9163 N   0  0  0  0  0  0
  -27.2843  -19.9234   21.7748 O   0  0  0  0  0  0
  -28.7154  -21.3461   19.9216 O   0  0  0  0  0  0
  -31.4893  -12.5618   19.1606 H   0  0  0  0  0  0
  -30.4030  -11.4282   19.9126 H   0  0  0  0  0  0
  -29.7896  -11.7353   17.5036 H   0  0  0  0  0  0
  -29.6521  -13.4600   17.7286 H   0  0  0  0  0  0
  -27.8869  -11.2787   18.8863 H   0  0  0  0  0  0
  -27.3857  -12.5436   17.7966 H   0  0  0  0  0  0
  -27.6709  -14.2435   19.5104 H   0  0  0  0  0  0
  -28.7216  -12.0516   21.3702 H   0  0  0  0  0  0
  -28.4284  -13.6935   21.8513 H   0  0  0  0  0  0
  -25.2737   -9.5687   22.4740 H   0  0  0  0  0  0
  -23.9973   -7.4644   22.7486 H   0  0  0  0  0  0
  -21.0792   -8.8764   19.8993 H   0  0  0  0  0  0
  -22.3643  -10.9653   19.6163 H   0  0  0  0  0  0
  -21.2039   -7.6128   23.9679 H   0  0  0  0  0  0
  -21.1472   -6.0518   25.9056 H   0  0  0  0  0  0
  -22.0614   -2.7592   23.2857 H   0  0  0  0  0  0
  -22.4107  -11.9937   22.4811 H   0  0  0  0  0  0
  -21.1141  -13.1336   22.2617 H   0  0  0  0  0  0
  -24.6629  -15.8393   20.5070 H   0  0  0  0  0  0
  -26.2735  -15.6197   20.0491 H   0  0  0  0  0  0
  -26.7187  -32.5427   23.1080 H   0  0  0  0  0  0
  -25.0052  -33.9704   25.0394 H   0  0  0  0  0  0
  -22.7195  -31.2999   21.3910 H   0  0  0  0  0  0
  -23.3759  -35.9605   23.3283 H   0  0  0  0  0  0
  -24.3584  -36.8923   22.2052 H   0  0  0  0  0  0
  -23.7228  -37.6479   23.6666 H   0  0  0  0  0  0
  -26.1006  -31.5443   20.6042 H   0  0  0  0  0  0
  -26.8400  -30.8276   22.0059 H   0  0  0  0  0  0
  -28.1088  -28.9761   21.1924 H   0  0  0  0  0  0
  -25.9899  -25.8889   19.0385 H   0  0  0  0  0  0
  -23.9809  -27.2806   19.0227 H   0  0  0  0  0  0
  -23.7604  -30.5768   19.3953 H   0  0  0  0  0  0
  -22.7586  -29.2337   19.8550 H   0  0  0  0  0  0
  -25.1287  -36.1929   25.0819 H   0  0  0  0  0  0
  -20.9992  -28.3296   24.1392 H   0  0  0  0  0  0
  -20.5692  -26.2317   23.3610 H   0  0  0  0  0  0
  -21.6653  -26.7467   22.1202 H   0  0  0  0  0  0
  -19.6918  -25.6308   21.1252 H   0  0  0  0  0  0
  -19.6694  -27.3199   20.6731 H   0  0  0  0  0  0
  -17.4203  -26.6694   21.4034 H   0  0  0  0  0  0
  -18.0346  -26.0095   22.9029 H   0  0  0  0  0  0
  -19.7946  -30.7278   24.2295 H   0  0  0  0  0  0
  -17.5028  -31.6283   24.5172 H   0  0  0  0  0  0
  -15.5366  -30.3013   23.7644 H   0  0  0  0  0  0
  -15.8680  -28.0833   22.7077 H   0  0  0  0  0  0
  -24.5855  -30.7149   25.7773 H   0  0  0  0  0  0
  -24.8878  -32.2986   26.4797 H   0  0  0  0  0  0
  -25.7973  -30.9016   27.0254 H   0  0  0  0  0  0
  -26.2890  -29.6771   24.1203 H   0  0  0  0  0  0
  -27.3919  -29.7261   25.4761 H   0  0  0  0  0  0
  -27.8801  -30.4255   23.9501 H   0  0  0  0  0  0
  -27.2710  -33.3617   26.2061 H   0  0  0  0  0  0
  -28.3855  -32.6864   25.0270 H   0  0  0  0  0  0
  -28.0753  -31.8419   26.5358 H   0  0  0  0  0  0
  -28.2603  -38.0087   24.7526 H   0  0  0  0  0  0
  -28.1094  -36.2626   24.6249 H   0  0  0  0  0  0
  -27.2324  -37.1406   25.8865 H   0  0  0  0  0  0
  -20.9376  -29.8744   21.6834 H   0  0  0  0  0  0
  -26.0176  -38.2857   24.1422 H   0  0  0  0  0  0
  -31.2944  -17.4959   19.3408 H   0  0  0  0  0  0
  -27.9835  -17.2897   22.0386 H   0  0  0  0  0  0
  -31.9257  -19.5300   18.3315 H   0  0  0  0  0  0
  -31.4896  -21.0273   19.1519 H   0  0  0  0  0  0
  -30.4997  -20.4342   17.8148 H   0  0  0  0  0  0
  -25.6185  -19.8405   22.9779 H   0  0  0  0  0  0
  -26.9380  -18.7962   23.4950 H   0  0  0  0  0  0
  -25.9383  -18.3620   22.0847 H   0  0  0  0  0  0
  -27.2240  -23.5973   20.6796 H   0  0  0  0  0  0
  -28.4430  -24.2923   21.6752 H   0  0  0  0  0  0
  -27.9322  -24.9642   18.7745 H   0  0  0  0  0  0
  -29.5391  -25.0397   19.3577 H   0  0  0  0  0  0
  -29.3437  -22.2311   21.6645 H   0  0  0  0  0  0
  -30.1749  -22.7952   20.2560 H   0  0  0  0  0  0
  -28.9121  -15.3162   21.3328 H   0  0  0  0  0  0
  1 25  1  0  0  0
  1 30  2  0  0  0
  1 82  1  0  0  0
  2  3  1  0  0  0
  2 25  1  0  0  0
  2 85  1  0  0  0
  2 86  1  0  0  0
  3  4  1  0  0  0
  3 87  1  0  0  0
  3 88  1  0  0  0
  4  5  1  0  0  0
  4 89  1  0  0  0
  4 90  1  0  0  0
  5  6  1  0  0  0
  5 26  1  0  0  0
  5 91  1  0  0  0
  6 25  1  0  0  0
  6 92  1  0  0  0
  6 93  1  0  0  0
  7  8  2  0  0  0
  7 26  1  0  0  0
  7 29  1  0  0  0
  8  9  1  0  0  0
  8 22  1  0  0  0
  9 10  1  0  0  0
  9 27  2  0  0  0
 10 11  2  0  0  0
 10 15  1  0  0  0
 11 12  1  0  0  0
 11 94  1  0  0  0
 12 13  2  0  0  0
 12 95  1  0  0  0
 13 14  1  0  0  0
 13 31  1  0  0  0
 14 15  2  0  0  0
 14 96  1  0  0  0
 15 97  1  0  0  0
 16 17  2  0  0  0
 16 21  1  0  0  0
 16 31  1  0  0  0
 17 18  1  0  0  0
 17 98  1  0  0  0
 18 19  2  0  0  0
 18 99  1  0  0  0
 19 20  1  0  0  0
 19 24  1  0  0  0
 20 21  2  0  0  0
 20100  1  0  0  0
 21 23  1  0  0  0
 22 28  1  0  0  0
 22 32  2  0  0  0
 26 27  1  0  0  0
 28101  1  0  0  0
 28102  1  0  0  0
 29103  1  0  0  0
 29104  1  0  0  0
 33 34  1  0  0  0
 33 66  1  0  0  0
 33 70  2  0  0  0
 34 36  1  0  0  0
 34 59  1  0  0  0
 34105  1  0  0  0
 35 44  2  0  0  0
 35 45  1  0  0  0
 35 68  1  0  0  0
 36 56  1  0  0  0
 36106  1  0  0  0
 37 39  1  0  0  0
 37 47  1  0  0  0
 37 66  1  0  0  0
 37107  1  0  0  0
 38 43  2  0  0  0
 38 46  1  0  0  0
 38 47  1  0  0  0
 39 64  1  0  0  0
 39 67  2  0  0  0
 40 52  1  0  0  0
 40 53  2  0  0  0
 40 58  1  0  0  0
 41108  1  0  0  0
 41109  1  0  0  0
 41110  1  0  0  0
 41 48  1  0  0  0
 42 43  1  0  0  0
 42 66  1  0  0  0
 42111  1  0  0  0
 42112  1  0  0  0
 43 44  1  0  0  0
 44113  1  0  0  0
 45 46  2  0  0  0
 45114  1  0  0  0
 46115  1  0  0  0
 47116  1  0  0  0
 47117  1  0  0  0
 48 56  1  0  0  0
 48 65  1  0  0  0
 48118  1  0  0  0
 49 50  1  0  0  0
 49 53  1  0  0  0
 49 64  1  0  0  0
 49119  1  0  0  0
 50 51  1  0  0  0
 50120  1  0  0  0
 50121  1  0  0  0
 51 52  1  0  0  0
 51122  1  0  0  0
 51123  1  0  0  0
 52124  1  0  0  0
 52125  1  0  0  0
 53 54  1  0  0  0
 54 55  2  0  0  0
 54126  1  0  0  0
 55 57  1  0  0  0
 55127  1  0  0  0
 56 69  2  0  0  0
 57 58  2  0  0  0
 57128  1  0  0  0
 58129  1  0  0  0
 59 60  1  0  0  0
 59 61  1  0  0  0
 59 62  1  0  0  0
 60130  1  0  0  0
 60131  1  0  0  0
 60132  1  0  0  0
 61133  1  0  0  0
 61134  1  0  0  0
 61135  1  0  0  0
 62136  1  0  0  0
 62137  1  0  0  0
 62138  1  0  0  0
 63 65  1  0  0  0
 63139  1  0  0  0
 63140  1  0  0  0
 63141  1  0  0  0
 64142  1  0  0  0
 65143  1  0  0  0
 68 80  1  0  0  0
 71 73  2  0  0  0
 71 74  1  0  0  0
 71144  1  0  0  0
 72 74  2  0  0  0
 72 75  1  0  0  0
 72145  1  0  0  0
 73 76  1  0  0  0
 73 77  1  0  0  0
 74 82  1  0  0  0
 75 76  2  0  0  0
 75 83  1  0  0  0
 76 84  1  0  0  0
 77146  1  0  0  0
 77147  1  0  0  0
 77148  1  0  0  0
 78 83  1  0  0  0
 78149  1  0  0  0
 78150  1  0  0  0
 78151  1  0  0  0
 79 80  1  0  0  0
 79 81  1  0  0  0
 79152  1  0  0  0
 79153  1  0  0  0
 80154  1  0  0  0
 80155  1  0  0  0
 81 84  1  0  0  0
 81156  1  0  0  0
 81157  1  0  0  0
 82158  1  0  0  0
M  ISO  4   1 100  68 101  80 101  82 100
M  END
> <chiral flag>
0

> <version>
0

> <s_m_source_file>
/data/baiqing/PycharmProjects/Reinvent-master-3.2/result/LINK_invent/BTK/process_docking_weight1_custom_product_contain_oxygen_bond_distance_aromatic_linkinvent_7_9_3/rearranged_h_0116.sdf

> <i_m_source_file_index>
8

> <r_mmod_Potential_Energy-OPLS-2005>
148.510025024414

> <r_mmod_Stretch_Energy-OPLS-2005>
92.4340667724609

> <r_mmod_Bend_Energy-OPLS-2005>
186.865768432617

> <r_mmod_Torsional_Energy-OPLS-2005>
253.672256469727

> <r_mmod_Improper_Torsional_Energy-OPLS-2005>
4.72615003585815

> <r_mmod_Van_der_Waal_Energy-OPLS-2005>
137.322204589844

> <r_mmod_Electrostatic_Energy-OPLS-2005>
-370.450988769531

> <r_mmod_Solvation_Energy-OPLS-2005>
-216.233917236328

> <b_mmod_Minimization_Converged-OPLS-2005>
0

> <r_mmod_RMS_Derivative-OPLS-2005>
1.76940369606018

$$$$
8
                    3D
 Structure written by MMmdl.
153161  0  0  1  0            999 V2000
  -30.6313  -14.7138   20.5816 C   0  0  0  0  0  0
  -30.4464  -12.4652   19.4675 C   0  0  0  0  0  0
  -29.5164  -12.5405   18.2353 C   0  0  0  0  0  0
  -28.0417  -12.3524   18.6400 C   0  0  0  0  0  0
  -27.6555  -13.2205   19.8648 C   0  0  2  0  0  0
  -28.6927  -13.0737   20.9958 C   0  0  0  0  0  0
  -25.2575  -13.8172   20.5680 C   0  0  0  0  0  0
  -24.1841  -13.0434   20.9168 C   0  0  0  0  0  0
  -24.6414  -11.6904   20.8719 C   0  0  0  0  0  0
  -23.9067  -10.4291   21.0388 C   0  0  0  0  0  0
  -24.3614   -9.4210   21.9177 C   0  0  0  0  0  0
  -23.6283   -8.2251   22.0758 C   0  0  0  0  0  0
  -22.4267   -8.0286   21.3541 C   0  0  0  0  0  0
  -21.9902   -9.0257   20.4642 C   0  0  0  0  0  0
  -22.7235  -10.2131   20.3041 C   0  0  0  0  0  0
  -21.6852   -6.0733   22.5275 C   0  0  0  0  0  0
  -21.4016   -6.5635   23.8210 C   0  0  0  0  0  0
  -21.3662   -5.6786   24.9171 C   0  0  0  0  0  0
  -21.6041   -4.3051   24.7223 C   0  0  0  0  0  0
  -21.8820   -3.8141   23.4346 C   0  0  0  0  0  0
  -21.9197   -4.6957   22.3399 C   0  0  0  0  0  0
  -22.7864  -13.5242   21.1821 C   0  0  0  0  0  0
  -22.1661   -4.2143   21.0972 F   0  0  0  0  0  0
  -21.5628   -3.4536   25.7734 F   0  0  0  0  0  0
  -30.0083  -13.4787   20.4606 N   0  0  0  0  0  0
  -26.3002  -12.9359   20.3292 N   0  0  0  0  0  0
  -25.9340  -11.6508   20.5711 N   0  0  0  0  0  0
  -22.0495  -12.8247   22.0375 N   0  0  0  0  0  0
  -25.4272  -15.1891   20.4127 N   0  0  0  0  0  0
  -31.6914  -14.9330   19.9836 O   0  0  0  0  0  0
  -21.6638   -6.8875   21.4233 O   0  0  0  0  0  0
  -22.3557  -14.5546   20.6661 O   0  0  0  0  0  0
  -24.6317  -31.8535   23.1948 C   0  0  0  0  0  0
  -25.9130  -32.4752   23.8308 C   0  0  1  0  0  0
  -27.2282  -27.2572   20.1351 C   0  0  0  0  0  0
  -25.5912  -33.8550   24.2229 N   0  0  0  0  0  0
  -23.4312  -30.4727   21.5390 C   0  0  2  0  0  0
  -24.8806  -28.9131   20.1152 C   0  0  0  0  0  0
  -22.7510  -29.4593   22.4914 C   0  0  0  0  0  0
  -18.0292  -28.1393   22.8469 C   0  0  0  0  0  0
  -24.1493  -36.7284   23.2643 C   0  0  0  0  0  0
  -25.9765  -30.7656   21.3759 C   0  0  0  0  0  0
  -26.0534  -29.3860   20.7205 C   0  0  0  0  0  0
  -27.2328  -28.5714   20.7152 C   0  0  0  0  0  0
  -26.0342  -26.8517   19.5023 C   0  0  0  0  0  0
  -24.8763  -27.6540   19.4953 C   0  0  0  0  0  0
  -23.6521  -29.8003   20.1581 C   0  0  0  0  0  0
  -25.4119  -36.3062   24.0318 C   0  0  1  0  0  0
  -20.5887  -28.3712   23.1266 C   0  0  2  0  0  0
  -20.6780  -26.9432   22.5404 C   0  0  0  0  0  0
  -19.5760  -26.6396   21.5205 C   0  0  0  0  0  0
  -18.1939  -26.7938   22.1609 C   0  0  0  0  0  0
  -19.1541  -28.8866   23.2861 C   0  0  0  0  0  0
  -18.9462  -30.1459   23.8895 C   0  0  0  0  0  0
  -17.6465  -30.6597   24.0555 C   0  0  0  0  0  0
  -25.9050  -34.9438   23.5089 C   0  0  0  0  0  0
  -16.5348  -29.9096   23.6331 C   0  0  0  0  0  0
  -16.7276  -28.6513   23.0353 C   0  0  0  0  0  0
  -26.4489  -31.6581   25.0712 C   0  0  0  0  0  0
  -25.3694  -31.3723   26.1414 C   0  0  0  0  0  0
  -27.0337  -30.2991   24.6210 C   0  0  0  0  0  0
  -27.6056  -32.4324   25.7469 C   0  0  0  0  0  0
  -27.5585  -37.1789   24.8463 C   0  0  0  0  0  0
  -21.4219  -29.3051   22.3650 N   0  0  0  0  0  0
  -26.4294  -37.3756   23.9401 N   0  0  0  0  0  0
  -24.6991  -31.0480   22.0936 N   0  0  0  0  0  0
  -23.4198  -28.8138   23.3027 O   0  0  0  0  0  0
  -28.3248  -26.3645   20.1469 O   0  0  0  0  0  0
  -26.5649  -34.8917   22.4671 O   0  0  0  0  0  0
  -23.5454  -32.1365   23.7219 O   0  0  0  0  0  0
  -29.0257  -19.5198   21.9595 C   0  0  0  0  0  0
  -29.2125  -18.1470   22.3805 C   0  0  0  0  0  0
  -29.7723  -17.2792   21.4305 C   0  0  0  0  0  0
  -29.4418  -19.8532   20.6951 C   0  0  0  0  0  0
  -28.9133  -22.2540   20.5036 C   0  0  0  0  0  0
  -30.0918  -15.7687   21.6456 C   0  0  0  0  0  0
  -28.9198  -23.7489   19.9190 C   0  0  0  0  0  0
  -27.4624  -17.0740   23.8911 C   0  0  0  0  0  0
  -28.8037  -17.8188   23.7994 C   0  0  0  0  0  0
  -28.0916  -24.9415   20.6042 C   0  0  0  0  0  0
  -29.9780  -15.2900   22.8144 N   0  0  0  0  0  0
  -29.4453  -21.1281   20.0410 N   0  0  0  0  0  0
  -29.5703  -24.0089   18.8979 O   0  0  0  0  0  0
  -30.0698  -18.3076   19.9826 S   0  0  0  0  0  0
  -31.4835  -12.6127   19.1627 H   0  0  0  0  0  0
  -30.4155  -11.4677   19.9094 H   0  0  0  0  0  0
  -29.8038  -11.7855   17.5017 H   0  0  0  0  0  0
  -29.6421  -13.5064   17.7442 H   0  0  0  0  0  0
  -27.8935  -11.2968   18.8749 H   0  0  0  0  0  0
  -27.3867  -12.5701   17.7961 H   0  0  0  0  0  0
  -27.6753  -14.2588   19.5330 H   0  0  0  0  0  0
  -28.7327  -12.0417   21.3461 H   0  0  0  0  0  0
  -28.3679  -13.6502   21.8573 H   0  0  0  0  0  0
  -25.2760   -9.5693   22.4757 H   0  0  0  0  0  0
  -23.9984   -7.4655   22.7503 H   0  0  0  0  0  0
  -21.0828   -8.8786   19.8963 H   0  0  0  0  0  0
  -22.3697  -10.9670   19.6155 H   0  0  0  0  0  0
  -21.2005   -7.6143   23.9709 H   0  0  0  0  0  0
  -21.1479   -6.0516   25.9074 H   0  0  0  0  0  0
  -22.0596   -2.7601   23.2844 H   0  0  0  0  0  0
  -22.4107  -11.9923   22.4789 H   0  0  0  0  0  0
  -21.1112  -13.1295   22.2542 H   0  0  0  0  0  0
  -24.6621  -15.8429   20.5366 H   0  0  0  0  0  0
  -26.2842  -15.6362   20.1124 H   0  0  0  0  0  0
  -26.7208  -32.5394   23.1058 H   0  0  0  0  0  0
  -24.9987  -33.9671   25.0321 H   0  0  0  0  0  0
  -22.7279  -31.2938   21.3883 H   0  0  0  0  0  0
  -23.3763  -35.9611   23.3279 H   0  0  0  0  0  0
  -24.3568  -36.8944   22.2062 H   0  0  0  0  0  0
  -23.7239  -37.6470   23.6691 H   0  0  0  0  0  0
  -26.1100  -31.5250   20.6039 H   0  0  0  0  0  0
  -26.8540  -30.8185   22.0086 H   0  0  0  0  0  0
  -28.1338  -28.9304   21.1943 H   0  0  0  0  0  0
  -25.9868  -25.8888   19.0132 H   0  0  0  0  0  0
  -23.9794  -27.2882   19.0138 H   0  0  0  0  0  0
  -23.7761  -30.5723   19.3981 H   0  0  0  0  0  0
  -22.7720  -29.2300   19.8559 H   0  0  0  0  0  0
  -25.1306  -36.1913   25.0813 H   0  0  0  0  0  0
  -20.9956  -28.3308   24.1395 H   0  0  0  0  0  0
  -20.5672  -26.2329   23.3611 H   0  0  0  0  0  0
  -21.6657  -26.7460   22.1207 H   0  0  0  0  0  0
  -19.6917  -25.6304   21.1249 H   0  0  0  0  0  0
  -19.6705  -27.3193   20.6722 H   0  0  0  0  0  0
  -17.4208  -26.6665   21.4013 H   0  0  0  0  0  0
  -18.0330  -26.0088   22.9011 H   0  0  0  0  0  0
  -19.7943  -30.7258   24.2289 H   0  0  0  0  0  0
  -17.5029  -31.6278   24.5160 H   0  0  0  0  0  0
  -15.5346  -30.2999   23.7681 H   0  0  0  0  0  0
  -15.8663  -28.0838   22.7073 H   0  0  0  0  0  0
  -24.5934  -30.7000   25.7728 H   0  0  0  0  0  0
  -24.8796  -32.2873   26.4761 H   0  0  0  0  0  0
  -25.8007  -30.8973   27.0235 H   0  0  0  0  0  0
  -26.2922  -29.6704   24.1263 H   0  0  0  0  0  0
  -27.4033  -29.7288   25.4736 H   0  0  0  0  0  0
  -27.8789  -30.4241   23.9439 H   0  0  0  0  0  0
  -27.2731  -33.3706   26.1914 H   0  0  0  0  0  0
  -28.3928  -32.6726   25.0318 H   0  0  0  0  0  0
  -28.0635  -31.8508   26.5476 H   0  0  0  0  0  0
  -28.2596  -38.0093   24.7527 H   0  0  0  0  0  0
  -28.1094  -36.2619   24.6289 H   0  0  0  0  0  0
  -27.2292  -37.1448   25.8865 H   0  0  0  0  0  0
  -20.9414  -29.8774   21.6850 H   0  0  0  0  0  0
  -26.0179  -38.2836   24.1406 H   0  0  0  0  0  0
  -28.6009  -20.2378   22.6469 H   0  0  0  0  0  0
  -28.3694  -22.1916   21.4490 H   0  0  0  0  0  0
  -27.2382  -16.8129   24.9262 H   0  0  0  0  0  0
  -27.4599  -16.1506   23.3121 H   0  0  0  0  0  0
  -26.6441  -17.6952   23.5243 H   0  0  0  0  0  0
  -28.7076  -18.7390   24.3796 H   0  0  0  0  0  0
  -29.5915  -17.2806   24.3270 H   0  0  0  0  0  0
  -28.3141  -24.9114   21.6716 H   0  0  0  0  0  0
  -27.0355  -24.6871   20.5253 H   0  0  0  0  0  0
  -29.6457  -15.9936   23.4592 H   0  0  0  0  0  0
  1 25  1  0  0  0
  1 30  2  0  0  0
  1 76  1  0  0  0
  2  3  1  0  0  0
  2 25  1  0  0  0
  2 85  1  0  0  0
  2 86  1  0  0  0
  3  4  1  0  0  0
  3 87  1  0  0  0
  3 88  1  0  0  0
  4  5  1  0  0  0
  4 89  1  0  0  0
  4 90  1  0  0  0
  5  6  1  0  0  0
  5 26  1  0  0  0
  5 91  1  0  0  0
  6 25  1  0  0  0
  6 92  1  0  0  0
  6 93  1  0  0  0
  7  8  2  0  0  0
  7 26  1  0  0  0
  7 29  1  0  0  0
  8  9  1  0  0  0
  8 22  1  0  0  0
  9 10  1  0  0  0
  9 27  2  0  0  0
 10 11  2  0  0  0
 10 15  1  0  0  0
 11 12  1  0  0  0
 11 94  1  0  0  0
 12 13  2  0  0  0
 12 95  1  0  0  0
 13 14  1  0  0  0
 13 31  1  0  0  0
 14 15  2  0  0  0
 14 96  1  0  0  0
 15 97  1  0  0  0
 16 17  2  0  0  0
 16 21  1  0  0  0
 16 31  1  0  0  0
 17 18  1  0  0  0
 17 98  1  0  0  0
 18 19  2  0  0  0
 18 99  1  0  0  0
 19 20  1  0  0  0
 19 24  1  0  0  0
 20 21  2  0  0  0
 20100  1  0  0  0
 21 23  1  0  0  0
 22 28  1  0  0  0
 22 32  2  0  0  0
 26 27  1  0  0  0
 28101  1  0  0  0
 28102  1  0  0  0
 29103  1  0  0  0
 29104  1  0  0  0
 33 34  1  0  0  0
 33 66  1  0  0  0
 33 70  2  0  0  0
 34 36  1  0  0  0
 34 59  1  0  0  0
 34105  1  0  0  0
 35 44  2  0  0  0
 35 45  1  0  0  0
 35 68  1  0  0  0
 36 56  1  0  0  0
 36106  1  0  0  0
 37 39  1  0  0  0
 37 47  1  0  0  0
 37 66  1  0  0  0
 37107  1  0  0  0
 38 43  2  0  0  0
 38 46  1  0  0  0
 38 47  1  0  0  0
 39 64  1  0  0  0
 39 67  2  0  0  0
 40 52  1  0  0  0
 40 53  2  0  0  0
 40 58  1  0  0  0
 41108  1  0  0  0
 41109  1  0  0  0
 41110  1  0  0  0
 41 48  1  0  0  0
 42 43  1  0  0  0
 42 66  1  0  0  0
 42111  1  0  0  0
 42112  1  0  0  0
 43 44  1  0  0  0
 44113  1  0  0  0
 45 46  2  0  0  0
 45114  1  0  0  0
 46115  1  0  0  0
 47116  1  0  0  0
 47117  1  0  0  0
 48 56  1  0  0  0
 48 65  1  0  0  0
 48118  1  0  0  0
 49 50  1  0  0  0
 49 53  1  0  0  0
 49 64  1  0  0  0
 49119  1  0  0  0
 50 51  1  0  0  0
 50120  1  0  0  0
 50121  1  0  0  0
 51 52  1  0  0  0
 51122  1  0  0  0
 51123  1  0  0  0
 52124  1  0  0  0
 52125  1  0  0  0
 53 54  1  0  0  0
 54 55  2  0  0  0
 54126  1  0  0  0
 55 57  1  0  0  0
 55127  1  0  0  0
 56 69  2  0  0  0
 57 58  2  0  0  0
 57128  1  0  0  0
 58129  1  0  0  0
 59 60  1  0  0  0
 59 61  1  0  0  0
 59 62  1  0  0  0
 60130  1  0  0  0
 60131  1  0  0  0
 60132  1  0  0  0
 61133  1  0  0  0
 61134  1  0  0  0
 61135  1  0  0  0
 62136  1  0  0  0
 62137  1  0  0  0
 62138  1  0  0  0
 63 65  1  0  0  0
 63139  1  0  0  0
 63140  1  0  0  0
 63141  1  0  0  0
 64142  1  0  0  0
 65143  1  0  0  0
 68 80  1  0  0  0
 71 72  1  0  0  0
 71 74  2  0  0  0
 71144  1  0  0  0
 72 73  2  0  0  0
 72 79  1  0  0  0
 73 76  1  0  0  0
 73 84  1  0  0  0
 74 82  1  0  0  0
 74 84  1  0  0  0
 75 77  1  0  0  0
 75 82  2  0  0  0
 75145  1  0  0  0
 76 81  2  0  0  0
 77 80  1  0  0  0
 77 83  2  0  0  0
 78 79  1  0  0  0
 78146  1  0  0  0
 78147  1  0  0  0
 78148  1  0  0  0
 79149  1  0  0  0
 79150  1  0  0  0
 80151  1  0  0  0
 80152  1  0  0  0
 81153  1  0  0  0
M  ISO  4   1 100  68 101  76 100  80 101
M  END
> <chiral flag>
0

> <version>
0

> <s_m_source_file>
/data/baiqing/PycharmProjects/Reinvent-master-3.2/result/LINK_invent/BTK/process_docking_weight1_custom_product_contain_oxygen_bond_distance_aromatic_linkinvent_7_9_3/rearranged_h_0116.sdf

> <i_m_source_file_index>
9

> <r_mmod_Potential_Energy-OPLS-2005>
371.246795654297

> <r_mmod_Stretch_Energy-OPLS-2005>
145.949768066406

> <r_mmod_Bend_Energy-OPLS-2005>
205.925399780273

> <r_mmod_Torsional_Energy-OPLS-2005>
208.356384277344

> <r_mmod_Improper_Torsional_Energy-OPLS-2005>
4.12518072128296

> <r_mmod_Van_der_Waal_Energy-OPLS-2005>
127.704719543457

> <r_mmod_Electrostatic_Energy-OPLS-2005>
-159.243453979492

> <r_mmod_Solvation_Energy-OPLS-2005>
-239.062088012695

> <b_mmod_Minimization_Converged-OPLS-2005>
0

> <r_mmod_RMS_Derivative-OPLS-2005>
1.91910147666931

$$$$
9
                    3D
 Structure written by MMmdl.
164172  0  0  1  0            999 V2000
  -30.7077  -14.5505   20.5185 C   0  0  0  0  0  0
  -30.4146  -12.3371   19.4564 C   0  0  0  0  0  0
  -29.4955  -12.4869   18.2259 C   0  0  0  0  0  0
  -28.0178  -12.3480   18.6357 C   0  0  0  0  0  0
  -27.6549  -13.2193   19.8697 C   0  0  2  0  0  0
  -28.6976  -13.0573   20.9985 C   0  0  0  0  0  0
  -25.2558  -13.8202   20.5696 C   0  0  0  0  0  0
  -24.1819  -13.0455   20.9179 C   0  0  0  0  0  0
  -24.6389  -11.6929   20.8750 C   0  0  0  0  0  0
  -23.9065  -10.4299   21.0413 C   0  0  0  0  0  0
  -24.3614   -9.4212   21.9187 C   0  0  0  0  0  0
  -23.6279   -8.2253   22.0755 C   0  0  0  0  0  0
  -22.4268   -8.0285   21.3545 C   0  0  0  0  0  0
  -21.9912   -9.0264   20.4651 C   0  0  0  0  0  0
  -22.7239  -10.2145   20.3053 C   0  0  0  0  0  0
  -21.6843   -6.0738   22.5275 C   0  0  0  0  0  0
  -21.4012   -6.5637   23.8213 C   0  0  0  0  0  0
  -21.3653   -5.6784   24.9174 C   0  0  0  0  0  0
  -21.6047   -4.3052   24.7222 C   0  0  0  0  0  0
  -21.8822   -3.8149   23.4342 C   0  0  0  0  0  0
  -21.9193   -4.6968   22.3399 C   0  0  0  0  0  0
  -22.7846  -13.5244   21.1835 C   0  0  0  0  0  0
  -22.1656   -4.2159   21.0976 F   0  0  0  0  0  0
  -21.5632   -3.4531   25.7730 F   0  0  0  0  0  0
  -30.0224  -13.3665   20.4416 N   0  0  0  0  0  0
  -26.2999  -12.9389   20.3370 N   0  0  0  0  0  0
  -25.9324  -11.6547   20.5796 N   0  0  0  0  0  0
  -22.0497  -12.8241   22.0410 N   0  0  0  0  0  0
  -25.4269  -15.1920   20.4123 N   0  0  0  0  0  0
  -31.8382  -14.6414   20.0335 O   0  0  0  0  0  0
  -21.6628   -6.8883   21.4241 O   0  0  0  0  0  0
  -22.3531  -14.5547   20.6671 O   0  0  0  0  0  0
  -24.6197  -31.8652   23.2087 C   0  0  0  0  0  0
  -25.9083  -32.4795   23.8391 C   0  0  1  0  0  0
  -27.2156  -27.3776   20.0813 C   0  0  0  0  0  0
  -25.5915  -33.8588   24.2314 N   0  0  0  0  0  0
  -23.4085  -30.4897   21.5524 C   0  0  2  0  0  0
  -24.8486  -28.9550   20.1091 C   0  0  0  0  0  0
  -22.7441  -29.4626   22.4982 C   0  0  0  0  0  0
  -18.0285  -28.1358   22.8488 C   0  0  0  0  0  0
  -24.1479  -36.7290   23.2645 C   0  0  0  0  0  0
  -25.9445  -30.8093   21.3725 C   0  0  0  0  0  0
  -26.0150  -29.4425   20.7114 C   0  0  0  0  0  0
  -27.2002  -28.6600   20.6964 C   0  0  0  0  0  0
  -26.0282  -26.9303   19.4568 C   0  0  0  0  0  0
  -24.8531  -27.7021   19.4776 C   0  0  0  0  0  0
  -23.6155  -29.8302   20.1649 C   0  0  0  0  0  0
  -25.4104  -36.3079   24.0335 C   0  0  1  0  0  0
  -20.5872  -28.3639   23.1302 C   0  0  2  0  0  0
  -20.6772  -26.9368   22.5406 C   0  0  0  0  0  0
  -19.5738  -26.6364   21.5200 C   0  0  0  0  0  0
  -18.1918  -26.7911   22.1614 C   0  0  0  0  0  0
  -19.1535  -28.8819   23.2895 C   0  0  0  0  0  0
  -18.9465  -30.1432   23.8890 C   0  0  0  0  0  0
  -17.6468  -30.6574   24.0535 C   0  0  0  0  0  0
  -25.9040  -34.9449   23.5119 C   0  0  0  0  0  0
  -16.5355  -29.9062   23.6321 C   0  0  0  0  0  0
  -16.7273  -28.6471   23.0351 C   0  0  0  0  0  0
  -26.4505  -31.6587   25.0733 C   0  0  0  0  0  0
  -25.3752  -31.3641   26.1456 C   0  0  0  0  0  0
  -27.0401  -30.3041   24.6143 C   0  0  0  0  0  0
  -27.6066  -32.4332   25.7491 C   0  0  0  0  0  0
  -27.5580  -37.1784   24.8467 C   0  0  0  0  0  0
  -21.4167  -29.3019   22.3720 N   0  0  0  0  0  0
  -26.4282  -37.3775   23.9419 N   0  0  0  0  0  0
  -24.6761  -31.0693   22.1025 N   0  0  0  0  0  0
  -23.4196  -28.8159   23.3032 O   0  0  0  0  0  0
  -28.3678  -26.5964   20.1127 O   0  0  0  0  0  0
  -26.5608  -34.8912   22.4691 O   0  0  0  0  0  0
  -23.5371  -32.1445   23.7432 O   0  0  0  0  0  0
  -30.4662  -19.9934   23.0741 C   0  0  0  0  0  0
  -29.5847  -19.4124   20.5017 C   0  0  0  0  0  0
  -30.5422  -18.6589   22.6165 C   0  0  0  0  0  0
  -30.1176  -18.3459   21.2945 C   0  0  0  0  0  0
  -29.9609  -21.0460   22.2780 C   0  0  0  0  0  0
  -29.5012  -20.7605   20.9727 C   0  0  0  0  0  0
  -32.0413  -17.8983   24.4916 C   0  0  0  0  0  0
  -31.1655  -17.6501   23.5019 C   0  0  0  0  0  0
  -30.4136  -16.9932   20.7021 C   0  0  0  0  0  0
  -30.0574  -15.7380   21.1179 C   0  0  0  0  0  0
  -30.3118  -24.2047   24.1780 C   0  0  0  0  0  0
  -29.4138  -24.3393   20.4005 C   0  0  0  0  0  0
  -30.5514  -22.7159   23.9199 C   0  0  0  0  0  0
  -28.2962  -25.1893   19.7296 C   0  0  0  0  0  0
  -29.7564  -22.9131   19.8279 C   0  0  0  0  0  0
  -29.8642  -22.3450   22.7299 O   0  0  0  0  0  0
  -28.9368  -21.7693   20.1874 O   0  0  0  0  0  0
  -31.4592  -12.4117   19.1529 H   0  0  0  0  0  0
  -30.3134  -11.3420   19.8939 H   0  0  0  0  0  0
  -29.7463  -11.7336   17.4771 H   0  0  0  0  0  0
  -29.6588  -13.4569   17.7549 H   0  0  0  0  0  0
  -27.8383  -11.2962   18.8613 H   0  0  0  0  0  0
  -27.3658  -12.5926   17.7964 H   0  0  0  0  0  0
  -27.6860  -14.2588   19.5425 H   0  0  0  0  0  0
  -28.6890  -12.0337   21.3756 H   0  0  0  0  0  0
  -28.4463  -13.6818   21.8532 H   0  0  0  0  0  0
  -25.2756   -9.5697   22.4773 H   0  0  0  0  0  0
  -23.9984   -7.4658   22.7486 H   0  0  0  0  0  0
  -21.0835   -8.8792   19.8962 H   0  0  0  0  0  0
  -22.3686  -10.9690   19.6170 H   0  0  0  0  0  0
  -21.1994   -7.6146   23.9718 H   0  0  0  0  0  0
  -21.1469   -6.0511   25.9073 H   0  0  0  0  0  0
  -22.0610   -2.7612   23.2832 H   0  0  0  0  0  0
  -22.4091  -11.9875   22.4761 H   0  0  0  0  0  0
  -21.1143  -13.1319   22.2671 H   0  0  0  0  0  0
  -24.6677  -15.8526   20.5345 H   0  0  0  0  0  0
  -26.2916  -15.6334   20.1224 H   0  0  0  0  0  0
  -26.7148  -32.5477   23.1137 H   0  0  0  0  0  0
  -25.0013  -33.9718   25.0430 H   0  0  0  0  0  0
  -22.6984  -31.3081   21.4193 H   0  0  0  0  0  0
  -23.3739  -35.9626   23.3292 H   0  0  0  0  0  0
  -24.3562  -36.8935   22.2064 H   0  0  0  0  0  0
  -23.7229  -37.6485   23.6685 H   0  0  0  0  0  0
  -26.0706  -31.5769   20.6083 H   0  0  0  0  0  0
  -26.8274  -30.8548   21.9969 H   0  0  0  0  0  0
  -28.1003  -29.0254   21.1707 H   0  0  0  0  0  0
  -25.9780  -25.9829   18.9412 H   0  0  0  0  0  0
  -23.9580  -27.3298   18.9980 H   0  0  0  0  0  0
  -23.7260  -30.6111   19.4113 H   0  0  0  0  0  0
  -22.7349  -29.2572   19.8671 H   0  0  0  0  0  0
  -25.1282  -36.1934   25.0826 H   0  0  0  0  0  0
  -20.9970  -28.3223   24.1418 H   0  0  0  0  0  0
  -20.5662  -26.2248   23.3599 H   0  0  0  0  0  0
  -21.6645  -26.7405   22.1202 H   0  0  0  0  0  0
  -19.6880  -25.6279   21.1222 H   0  0  0  0  0  0
  -19.6677  -27.3176   20.6731 H   0  0  0  0  0  0
  -17.4197  -26.6658   21.4013 H   0  0  0  0  0  0
  -18.0299  -26.0049   22.8997 H   0  0  0  0  0  0
  -19.7947  -30.7234   24.2253 H   0  0  0  0  0  0
  -17.5032  -31.6248   24.5151 H   0  0  0  0  0  0
  -15.5349  -30.2953   23.7671 H   0  0  0  0  0  0
  -15.8668  -28.0787   22.7071 H   0  0  0  0  0  0
  -24.5956  -30.6973   25.7741 H   0  0  0  0  0  0
  -24.8898  -32.2763   26.4927 H   0  0  0  0  0  0
  -25.8105  -30.8774   27.0193 H   0  0  0  0  0  0
  -26.2973  -29.6697   24.1288 H   0  0  0  0  0  0
  -27.4290  -29.7366   25.4613 H   0  0  0  0  0  0
  -27.8747  -30.4377   23.9254 H   0  0  0  0  0  0
  -27.2701  -33.3644   26.2047 H   0  0  0  0  0  0
  -28.3875  -32.6866   25.0313 H   0  0  0  0  0  0
  -28.0744  -31.8477   26.5408 H   0  0  0  0  0  0
  -28.2566  -38.0114   24.7569 H   0  0  0  0  0  0
  -28.1110  -36.2646   24.6245 H   0  0  0  0  0  0
  -27.2288  -37.1372   25.8864 H   0  0  0  0  0  0
  -20.9322  -29.8754   21.6951 H   0  0  0  0  0  0
  -26.0160  -38.2835   24.1471 H   0  0  0  0  0  0
  -30.8025  -20.1993   24.0763 H   0  0  0  0  0  0
  -29.2626  -19.2031   19.4909 H   0  0  0  0  0  0
  -32.4237  -17.0893   25.0987 H   0  0  0  0  0  0
  -32.4000  -18.8917   24.7182 H   0  0  0  0  0  0
  -30.8711  -16.6221   23.3656 H   0  0  0  0  0  0
  -31.0934  -17.0525   19.8622 H   0  0  0  0  0  0
  -29.3523  -15.6290   21.9268 H   0  0  0  0  0  0
  -30.8410  -24.5354   25.0720 H   0  0  0  0  0  0
  -29.2513  -24.4076   24.3243 H   0  0  0  0  0  0
  -30.6617  -24.8130   23.3441 H   0  0  0  0  0  0
  -29.2088  -24.2904   21.4664 H   0  0  0  0  0  0
  -30.3262  -24.9284   20.3112 H   0  0  0  0  0  0
  -30.1843  -22.1480   24.7750 H   0  0  0  0  0  0
  -31.6220  -22.5273   23.8100 H   0  0  0  0  0  0
  -27.3469  -24.7329   20.0134 H   0  0  0  0  0  0
  -28.3757  -25.1240   18.6426 H   0  0  0  0  0  0
  -30.7926  -22.6930   20.0905 H   0  0  0  0  0  0
  -29.7600  -22.9724   18.7385 H   0  0  0  0  0  0
  1 25  1  0  0  0
  1 30  2  0  0  0
  1 80  1  0  0  0
  2  3  1  0  0  0
  2 25  1  0  0  0
  2 88  1  0  0  0
  2 89  1  0  0  0
  3  4  1  0  0  0
  3 90  1  0  0  0
  3 91  1  0  0  0
  4  5  1  0  0  0
  4 92  1  0  0  0
  4 93  1  0  0  0
  5  6  1  0  0  0
  5 26  1  0  0  0
  5 94  1  0  0  0
  6 25  1  0  0  0
  6 95  1  0  0  0
  6 96  1  0  0  0
  7  8  2  0  0  0
  7 26  1  0  0  0
  7 29  1  0  0  0
  8  9  1  0  0  0
  8 22  1  0  0  0
  9 10  1  0  0  0
  9 27  2  0  0  0
 10 11  2  0  0  0
 10 15  1  0  0  0
 11 12  1  0  0  0
 11 97  1  0  0  0
 12 13  2  0  0  0
 12 98  1  0  0  0
 13 14  1  0  0  0
 13 31  1  0  0  0
 14 15  2  0  0  0
 14 99  1  0  0  0
 15100  1  0  0  0
 16 17  2  0  0  0
 16 21  1  0  0  0
 16 31  1  0  0  0
 17 18  1  0  0  0
 17101  1  0  0  0
 18 19  2  0  0  0
 18102  1  0  0  0
 19 20  1  0  0  0
 19 24  1  0  0  0
 20 21  2  0  0  0
 20103  1  0  0  0
 21 23  1  0  0  0
 22 28  1  0  0  0
 22 32  2  0  0  0
 26 27  1  0  0  0
 28104  1  0  0  0
 28105  1  0  0  0
 29106  1  0  0  0
 29107  1  0  0  0
 33 34  1  0  0  0
 33 66  1  0  0  0
 33 70  2  0  0  0
 34 36  1  0  0  0
 34 59  1  0  0  0
 34108  1  0  0  0
 35 44  2  0  0  0
 35 45  1  0  0  0
 35 68  1  0  0  0
 36 56  1  0  0  0
 36109  1  0  0  0
 37 39  1  0  0  0
 37 47  1  0  0  0
 37 66  1  0  0  0
 37110  1  0  0  0
 38 43  2  0  0  0
 38 46  1  0  0  0
 38 47  1  0  0  0
 39 64  1  0  0  0
 39 67  2  0  0  0
 40 52  1  0  0  0
 40 53  2  0  0  0
 40 58  1  0  0  0
 41111  1  0  0  0
 41112  1  0  0  0
 41113  1  0  0  0
 41 48  1  0  0  0
 42 43  1  0  0  0
 42 66  1  0  0  0
 42114  1  0  0  0
 42115  1  0  0  0
 43 44  1  0  0  0
 44116  1  0  0  0
 45 46  2  0  0  0
 45117  1  0  0  0
 46118  1  0  0  0
 47119  1  0  0  0
 47120  1  0  0  0
 48 56  1  0  0  0
 48 65  1  0  0  0
 48121  1  0  0  0
 49 50  1  0  0  0
 49 53  1  0  0  0
 49 64  1  0  0  0
 49122  1  0  0  0
 50 51  1  0  0  0
 50123  1  0  0  0
 50124  1  0  0  0
 51 52  1  0  0  0
 51125  1  0  0  0
 51126  1  0  0  0
 52127  1  0  0  0
 52128  1  0  0  0
 53 54  1  0  0  0
 54 55  2  0  0  0
 54129  1  0  0  0
 55 57  1  0  0  0
 55130  1  0  0  0
 56 69  2  0  0  0
 57 58  2  0  0  0
 57131  1  0  0  0
 58132  1  0  0  0
 59 60  1  0  0  0
 59 61  1  0  0  0
 59 62  1  0  0  0
 60133  1  0  0  0
 60134  1  0  0  0
 60135  1  0  0  0
 61136  1  0  0  0
 61137  1  0  0  0
 61138  1  0  0  0
 62139  1  0  0  0
 62140  1  0  0  0
 62141  1  0  0  0
 63 65  1  0  0  0
 63142  1  0  0  0
 63143  1  0  0  0
 63144  1  0  0  0
 64145  1  0  0  0
 65146  1  0  0  0
 68 84  1  0  0  0
 71 73  2  0  0  0
 71 75  1  0  0  0
 71147  1  0  0  0
 72 74  2  0  0  0
 72 76  1  0  0  0
 72148  1  0  0  0
 73 74  1  0  0  0
 73 78  1  0  0  0
 74 79  1  0  0  0
 75 76  2  0  0  0
 75 86  1  0  0  0
 76 87  1  0  0  0
 77 78  2  0  0  0
 77149  1  0  0  0
 77150  1  0  0  0
 78151  1  0  0  0
 79 80  2  0  0  0
 79152  1  0  0  0
 80153  1  0  0  0
 81 83  1  0  0  0
 81154  1  0  0  0
 81155  1  0  0  0
 81156  1  0  0  0
 82 84  1  0  0  0
 82 85  1  0  0  0
 82157  1  0  0  0
 82158  1  0  0  0
 83 86  1  0  0  0
 83159  1  0  0  0
 83160  1  0  0  0
 84161  1  0  0  0
 84162  1  0  0  0
 85 87  1  0  0  0
 85163  1  0  0  0
 85164  1  0  0  0
M  ISO  4   1 100  68 101  80 100  84 101
M  END
> <chiral flag>
0

> <version>
0

> <s_m_source_file>
/data/baiqing/PycharmProjects/Reinvent-master-3.2/result/LINK_invent/BTK/process_docking_weight1_custom_product_contain_oxygen_bond_distance_aromatic_linkinvent_7_9_3/rearranged_h_0116.sdf

> <i_m_source_file_index>
10

> <r_mmod_Potential_Energy-OPLS-2005>
77.9261322021484

> <r_mmod_Stretch_Energy-OPLS-2005>
58.9253005981445

> <r_mmod_Bend_Energy-OPLS-2005>
136.555862426758

> <r_mmod_Torsional_Energy-OPLS-2005>
238.647262573242

> <r_mmod_Improper_Torsional_Energy-OPLS-2005>
5.05164813995361

> <r_mmod_Van_der_Waal_Energy-OPLS-2005>
167.294952392578

> <r_mmod_Electrostatic_Energy-OPLS-2005>
-354.591094970703

> <r_mmod_Solvation_Energy-OPLS-2005>
-200.242736816406

> <b_mmod_Minimization_Converged-OPLS-2005>
0

> <r_mmod_RMS_Derivative-OPLS-2005>
2.36396789550781

$$$$
10
                    3D
 Structure written by MMmdl.
156164  0  0  1  0            999 V2000
  -30.6490  -14.8631   20.4978 C   0  0  0  0  0  0
  -30.4586  -12.5422   19.5136 C   0  0  0  0  0  0
  -29.5435  -12.5438   18.2671 C   0  0  0  0  0  0
  -28.0752  -12.3400   18.6808 C   0  0  0  0  0  0
  -27.6547  -13.2566   19.8608 C   0  0  2  0  0  0
  -28.6994  -13.2691   21.0027 C   0  0  0  0  0  0
  -25.2579  -13.8246   20.5751 C   0  0  0  0  0  0
  -24.1827  -13.0438   20.9172 C   0  0  0  0  0  0
  -24.6437  -11.6958   20.8713 C   0  0  0  0  0  0
  -23.9104  -10.4308   21.0396 C   0  0  0  0  0  0
  -24.3639   -9.4223   21.9202 C   0  0  0  0  0  0
  -23.6281   -8.2262   22.0778 C   0  0  0  0  0  0
  -22.4284   -8.0296   21.3546 C   0  0  0  0  0  0
  -21.9918   -9.0280   20.4674 C   0  0  0  0  0  0
  -22.7255  -10.2153   20.3069 C   0  0  0  0  0  0
  -21.6867   -6.0726   22.5261 C   0  0  0  0  0  0
  -21.4048   -6.5645   23.8181 C   0  0  0  0  0  0
  -21.3678   -5.6797   24.9150 C   0  0  0  0  0  0
  -21.6026   -4.3042   24.7218 C   0  0  0  0  0  0
  -21.8804   -3.8150   23.4334 C   0  0  0  0  0  0
  -21.9186   -4.6958   22.3393 C   0  0  0  0  0  0
  -22.7840  -13.5250   21.1775 C   0  0  0  0  0  0
  -22.1652   -4.2140   21.0958 F   0  0  0  0  0  0
  -21.5620   -3.4530   25.7727 F   0  0  0  0  0  0
  -30.0035  -13.6290   20.4224 N   0  0  0  0  0  0
  -26.3028  -12.9490   20.3352 N   0  0  0  0  0  0
  -25.9405  -11.6623   20.5775 N   0  0  0  0  0  0
  -22.0434  -12.8294   22.0360 N   0  0  0  0  0  0
  -25.4223  -15.1942   20.4213 N   0  0  0  0  0  0
  -31.8315  -14.9224   20.1445 O   0  0  0  0  0  0
  -21.6650   -6.8879   21.4232 O   0  0  0  0  0  0
  -22.3535  -14.5518   20.6577 O   0  0  0  0  0  0
  -24.6311  -31.8502   23.1876 C   0  0  0  0  0  0
  -25.9130  -32.4728   23.8249 C   0  0  1  0  0  0
  -27.3207  -27.2744   20.2144 C   0  0  0  0  0  0
  -25.5916  -33.8518   24.2164 N   0  0  0  0  0  0
  -23.4390  -30.4556   21.5223 C   0  0  2  0  0  0
  -24.9200  -28.8876   20.1285 C   0  0  0  0  0  0
  -22.7518  -29.4561   22.4864 C   0  0  0  0  0  0
  -18.0247  -28.1457   22.8459 C   0  0  0  0  0  0
  -24.1465  -36.7254   23.2648 C   0  0  0  0  0  0
  -25.9768  -30.7824   21.3620 C   0  0  0  0  0  0
  -26.0786  -29.3960   20.7241 C   0  0  0  0  0  0
  -27.2772  -28.6110   20.7386 C   0  0  0  0  0  0
  -26.1303  -26.8245   19.5906 C   0  0  0  0  0  0
  -24.9529  -27.6073   19.5429 C   0  0  0  0  0  0
  -23.6756  -29.7569   20.1542 C   0  0  0  0  0  0
  -25.4096  -36.3028   24.0315 C   0  0  1  0  0  0
  -20.5860  -28.3740   23.1248 C   0  0  2  0  0  0
  -20.6704  -26.9447   22.5417 C   0  0  0  0  0  0
  -19.5686  -26.6432   21.5197 C   0  0  0  0  0  0
  -18.1871  -26.7991   22.1623 C   0  0  0  0  0  0
  -19.1518  -28.8918   23.2845 C   0  0  0  0  0  0
  -18.9459  -30.1517   23.8877 C   0  0  0  0  0  0
  -17.6471  -30.6657   24.0582 C   0  0  0  0  0  0
  -25.9034  -34.9421   23.5050 C   0  0  0  0  0  0
  -16.5347  -29.9174   23.6367 C   0  0  0  0  0  0
  -16.7243  -28.6604   23.0352 C   0  0  0  0  0  0
  -26.4502  -31.6577   25.0653 C   0  0  0  0  0  0
  -25.3765  -31.3805   26.1415 C   0  0  0  0  0  0
  -27.0336  -30.2959   24.6226 C   0  0  0  0  0  0
  -27.5998  -32.4384   25.7472 C   0  0  0  0  0  0
  -27.5536  -37.1764   24.8473 C   0  0  0  0  0  0
  -21.4209  -29.3070   22.3616 N   0  0  0  0  0  0
  -26.4243  -37.3749   23.9427 N   0  0  0  0  0  0
  -24.6974  -31.0505   22.0816 N   0  0  0  0  0  0
  -23.4196  -28.8100   23.2985 O   0  0  0  0  0  0
  -28.4701  -26.4322   20.3079 O   0  0  0  0  0  0
  -26.5651  -34.8939   22.4640 O   0  0  0  0  0  0
  -23.5446  -32.1239   23.7206 O   0  0  0  0  0  0
  -31.2481  -19.3983   20.8599 C   0  0  0  0  0  0
  -29.9267  -19.7460   21.0468 C   0  0  0  0  0  0
  -29.2418  -18.4489   20.9151 C   0  0  0  0  0  0
  -30.1833  -17.4173   20.7969 C   0  0  0  0  0  0
  -25.5672  -19.4479   22.1534 C   0  0  0  0  0  0
  -29.2662  -21.0898   21.5423 C   0  0  0  0  0  0
  -25.9926  -19.8054   20.9299 C   0  0  0  0  0  0
  -29.1388  -22.4942   21.5229 C   0  0  0  0  0  0
  -29.5661  -23.8874   20.8564 C   0  0  0  0  0  0
  -27.0945  -19.1164   20.1421 C   0  0  0  0  0  0
  -28.3376  -24.9353   20.4969 C   0  0  0  0  0  0
  -29.9135  -16.0167   20.7990 N   0  0  0  0  0  0
  -31.4209  -18.0115   20.7302 O   0  0  0  0  0  0
  -27.8802  -18.2471   20.9692 O   0  0  0  0  0  0
  -31.5029  -12.6625   19.2164 H   0  0  0  0  0  0
  -30.4128  -11.5802   20.0257 H   0  0  0  0  0  0
  -29.8539  -11.7611   17.5715 H   0  0  0  0  0  0
  -29.6558  -13.4918   17.7376 H   0  0  0  0  0  0
  -27.9545  -11.2942   18.9698 H   0  0  0  0  0  0
  -27.4183  -12.5007   17.8271 H   0  0  0  0  0  0
  -27.6287  -14.2680   19.4514 H   0  0  0  0  0  0
  -28.7551  -12.3090   21.5090 H   0  0  0  0  0  0
  -28.4117  -13.9951   21.7680 H   0  0  0  0  0  0
  -25.2780   -9.5692   22.4779 H   0  0  0  0  0  0
  -23.9969   -7.4675   22.7537 H   0  0  0  0  0  0
  -21.0822   -8.8804   19.8999 H   0  0  0  0  0  0
  -22.3709  -10.9691   19.6165 H   0  0  0  0  0  0
  -21.2078   -7.6159   23.9686 H   0  0  0  0  0  0
  -21.1515   -6.0535   25.9040 H   0  0  0  0  0  0
  -22.0578   -2.7619   23.2822 H   0  0  0  0  0  0
  -22.4045  -12.0020   22.4894 H   0  0  0  0  0  0
  -21.1046  -13.1380   22.2480 H   0  0  0  0  0  0
  -24.6582  -15.8488   20.5420 H   0  0  0  0  0  0
  -26.2746  -15.6484   20.1192 H   0  0  0  0  0  0
  -26.7232  -32.5443   23.1018 H   0  0  0  0  0  0
  -24.9993  -33.9594   25.0275 H   0  0  0  0  0  0
  -22.7337  -31.2711   21.3454 H   0  0  0  0  0  0
  -23.3713  -35.9607   23.3335 H   0  0  0  0  0  0
  -24.3504  -36.8847   22.2051 H   0  0  0  0  0  0
  -23.7251  -37.6471   23.6670 H   0  0  0  0  0  0
  -26.1064  -31.5419   20.5895 H   0  0  0  0  0  0
  -26.8498  -30.8455   22.0011 H   0  0  0  0  0  0
  -28.1642  -29.0234   21.2021 H   0  0  0  0  0  0
  -26.1020  -25.8371   19.1640 H   0  0  0  0  0  0
  -24.0675  -27.1897   19.0879 H   0  0  0  0  0  0
  -23.8056  -30.5068   19.3734 H   0  0  0  0  0  0
  -22.8056  -29.1675   19.8557 H   0  0  0  0  0  0
  -25.1276  -36.1814   25.0800 H   0  0  0  0  0  0
  -20.9914  -28.3377   24.1396 H   0  0  0  0  0  0
  -20.5490  -26.2416   23.3654 H   0  0  0  0  0  0
  -21.6574  -26.7412   22.1262 H   0  0  0  0  0  0
  -19.6816  -25.6340   21.1235 H   0  0  0  0  0  0
  -19.6611  -27.3232   20.6709 H   0  0  0  0  0  0
  -17.4100  -26.6701   21.4074 H   0  0  0  0  0  0
  -18.0310  -26.0174   22.9062 H   0  0  0  0  0  0
  -19.7954  -30.7311   24.2244 H   0  0  0  0  0  0
  -17.5060  -31.6316   24.5228 H   0  0  0  0  0  0
  -15.5364  -30.3087   23.7743 H   0  0  0  0  0  0
  -15.8619  -28.0951   22.7076 H   0  0  0  0  0  0
  -24.5937  -30.7108   25.7819 H   0  0  0  0  0  0
  -24.8992  -32.3023   26.4765 H   0  0  0  0  0  0
  -25.8148  -30.9081   27.0221 H   0  0  0  0  0  0
  -26.2918  -29.6709   24.1247 H   0  0  0  0  0  0
  -27.3896  -29.7244   25.4807 H   0  0  0  0  0  0
  -27.8848  -30.4083   23.9520 H   0  0  0  0  0  0
  -27.2491  -33.3691   26.1966 H   0  0  0  0  0  0
  -28.3889  -32.6967   25.0391 H   0  0  0  0  0  0
  -28.0595  -31.8605   26.5490 H   0  0  0  0  0  0
  -28.2579  -38.0029   24.7467 H   0  0  0  0  0  0
  -28.0991  -36.2556   24.6349 H   0  0  0  0  0  0
  -27.2258  -37.1492   25.8879 H   0  0  0  0  0  0
  -20.9455  -29.8903   21.6862 H   0  0  0  0  0  0
  -26.0093  -38.2793   24.1520 H   0  0  0  0  0  0
  -32.1739  -19.9531   20.8965 H   0  0  0  0  0  0
  -24.7735  -19.9964   22.6394 H   0  0  0  0  0  0
  -25.9920  -18.6106   22.6843 H   0  0  0  0  0  0
  -28.6108  -20.7813   22.3448 H   0  0  0  0  0  0
  -25.5079  -20.6420   20.4443 H   0  0  0  0  0  0
  -28.4573  -22.8021   22.3071 H   0  0  0  0  0  0
  -30.2906  -23.7731   20.0508 H   0  0  0  0  0  0
  -30.1274  -24.3860   21.6589 H   0  0  0  0  0  0
  -27.6878  -19.8730   19.6224 H   0  0  0  0  0  0
  -26.6120  -18.5367   19.3566 H   0  0  0  0  0  0
  -27.5983  -24.8181   21.2901 H   0  0  0  0  0  0
  -27.8663  -24.5487   19.5962 H   0  0  0  0  0  0
  -28.9547  -15.8193   21.0367 H   0  0  0  0  0  0
  1 25  1  0  0  0
  1 30  2  0  0  0
  1 82  1  0  0  0
  2  3  1  0  0  0
  2 25  1  0  0  0
  2 85  1  0  0  0
  2 86  1  0  0  0
  3  4  1  0  0  0
  3 87  1  0  0  0
  3 88  1  0  0  0
  4  5  1  0  0  0
  4 89  1  0  0  0
  4 90  1  0  0  0
  5  6  1  0  0  0
  5 26  1  0  0  0
  5 91  1  0  0  0
  6 25  1  0  0  0
  6 92  1  0  0  0
  6 93  1  0  0  0
  7  8  2  0  0  0
  7 26  1  0  0  0
  7 29  1  0  0  0
  8  9  1  0  0  0
  8 22  1  0  0  0
  9 10  1  0  0  0
  9 27  2  0  0  0
 10 11  2  0  0  0
 10 15  1  0  0  0
 11 12  1  0  0  0
 11 94  1  0  0  0
 12 13  2  0  0  0
 12 95  1  0  0  0
 13 14  1  0  0  0
 13 31  1  0  0  0
 14 15  2  0  0  0
 14 96  1  0  0  0
 15 97  1  0  0  0
 16 17  2  0  0  0
 16 21  1  0  0  0
 16 31  1  0  0  0
 17 18  1  0  0  0
 17 98  1  0  0  0
 18 19  2  0  0  0
 18 99  1  0  0  0
 19 20  1  0  0  0
 19 24  1  0  0  0
 20 21  2  0  0  0
 20100  1  0  0  0
 21 23  1  0  0  0
 22 28  1  0  0  0
 22 32  2  0  0  0
 26 27  1  0  0  0
 28101  1  0  0  0
 28102  1  0  0  0
 29103  1  0  0  0
 29104  1  0  0  0
 33 34  1  0  0  0
 33 66  1  0  0  0
 33 70  2  0  0  0
 34 36  1  0  0  0
 34 59  1  0  0  0
 34105  1  0  0  0
 35 44  2  0  0  0
 35 45  1  0  0  0
 35 68  1  0  0  0
 36 56  1  0  0  0
 36106  1  0  0  0
 37 39  1  0  0  0
 37 47  1  0  0  0
 37 66  1  0  0  0
 37107  1  0  0  0
 38 43  2  0  0  0
 38 46  1  0  0  0
 38 47  1  0  0  0
 39 64  1  0  0  0
 39 67  2  0  0  0
 40 52  1  0  0  0
 40 53  2  0  0  0
 40 58  1  0  0  0
 41108  1  0  0  0
 41109  1  0  0  0
 41110  1  0  0  0
 41 48  1  0  0  0
 42 43  1  0  0  0
 42 66  1  0  0  0
 42111  1  0  0  0
 42112  1  0  0  0
 43 44  1  0  0  0
 44113  1  0  0  0
 45 46  2  0  0  0
 45114  1  0  0  0
 46115  1  0  0  0
 47116  1  0  0  0
 47117  1  0  0  0
 48 56  1  0  0  0
 48 65  1  0  0  0
 48118  1  0  0  0
 49 50  1  0  0  0
 49 53  1  0  0  0
 49 64  1  0  0  0
 49119  1  0  0  0
 50 51  1  0  0  0
 50120  1  0  0  0
 50121  1  0  0  0
 51 52  1  0  0  0
 51122  1  0  0  0
 51123  1  0  0  0
 52124  1  0  0  0
 52125  1  0  0  0
 53 54  1  0  0  0
 54 55  2  0  0  0
 54126  1  0  0  0
 55 57  1  0  0  0
 55127  1  0  0  0
 56 69  2  0  0  0
 57 58  2  0  0  0
 57128  1  0  0  0
 58129  1  0  0  0
 59 60  1  0  0  0
 59 61  1  0  0  0
 59 62  1  0  0  0
 60130  1  0  0  0
 60131  1  0  0  0
 60132  1  0  0  0
 61133  1  0  0  0
 61134  1  0  0  0
 61135  1  0  0  0
 62136  1  0  0  0
 62137  1  0  0  0
 62138  1  0  0  0
 63 65  1  0  0  0
 63139  1  0  0  0
 63140  1  0  0  0
 63141  1  0  0  0
 64142  1  0  0  0
 65143  1  0  0  0
 68 81  1  0  0  0
 71 72  2  0  0  0
 71 83  1  0  0  0
 71144  1  0  0  0
 72 73  1  0  0  0
 72 76  1  0  0  0
 73 74  2  0  0  0
 73 84  1  0  0  0
 74 82  1  0  0  0
 74 83  1  0  0  0
 75 77  2  0  0  0
 75145  1  0  0  0
 75146  1  0  0  0
 76 78  2  0  0  0
 76147  1  0  0  0
 77 80  1  0  0  0
 77148  1  0  0  0
 78 79  1  0  0  0
 78149  1  0  0  0
 79 81  1  0  0  0
 79150  1  0  0  0
 79151  1  0  0  0
 80 84  1  0  0  0
 80152  1  0  0  0
 80153  1  0  0  0
 81154  1  0  0  0
 81155  1  0  0  0
 82156  1  0  0  0
M  ISO  4   1 100  68 101  81 101  82 100
M  END
> <chiral flag>
0

> <version>
0

> <s_m_source_file>
/data/baiqing/PycharmProjects/Reinvent-master-3.2/result/LINK_invent/BTK/process_docking_weight1_custom_product_contain_oxygen_bond_distance_aromatic_linkinvent_7_9_3/rearranged_h_0116.sdf

> <i_m_source_file_index>
11

> <r_mmod_Potential_Energy-OPLS-2005>
357.734771728516

> <r_mmod_Stretch_Energy-OPLS-2005>
160.111053466797

> <r_mmod_Bend_Energy-OPLS-2005>
329.843231201172

> <r_mmod_Torsional_Energy-OPLS-2005>
240.024780273438

> <r_mmod_Improper_Torsional_Energy-OPLS-2005>
5.78038549423218

> <r_mmod_Van_der_Waal_Energy-OPLS-2005>
110.285140991211

> <r_mmod_Electrostatic_Energy-OPLS-2005>
-399.699493408203

> <r_mmod_Solvation_Energy-OPLS-2005>
-210.976654052734

> <b_mmod_Minimization_Converged-OPLS-2005>
0

> <r_mmod_RMS_Derivative-OPLS-2005>
8.96741390228271

$$$$
11
                    3D
 Structure written by MMmdl.
154162  0  0  1  0            999 V2000
  -30.6151  -14.6445   20.5073 C   0  0  0  0  0  0
  -30.4403  -12.3962   19.4553 C   0  0  0  0  0  0
  -29.5096  -12.5153   18.2268 C   0  0  0  0  0  0
  -28.0309  -12.3541   18.6349 C   0  0  0  0  0  0
  -27.6551  -13.2174   19.8687 C   0  0  2  0  0  0
  -28.6995  -13.0611   20.9976 C   0  0  0  0  0  0
  -25.2561  -13.8169   20.5688 C   0  0  0  0  0  0
  -24.1828  -13.0435   20.9183 C   0  0  0  0  0  0
  -24.6400  -11.6905   20.8734 C   0  0  0  0  0  0
  -23.9071  -10.4291   21.0408 C   0  0  0  0  0  0
  -24.3614   -9.4201   21.9189 C   0  0  0  0  0  0
  -23.6289   -8.2235   22.0761 C   0  0  0  0  0  0
  -22.4273   -8.0281   21.3544 C   0  0  0  0  0  0
  -21.9914   -9.0257   20.4641 C   0  0  0  0  0  0
  -22.7244  -10.2135   20.3054 C   0  0  0  0  0  0
  -21.6852   -6.0737   22.5278 C   0  0  0  0  0  0
  -21.4014   -6.5642   23.8214 C   0  0  0  0  0  0
  -21.3657   -5.6792   24.9175 C   0  0  0  0  0  0
  -21.6050   -4.3056   24.7225 C   0  0  0  0  0  0
  -21.8818   -3.8145   23.4347 C   0  0  0  0  0  0
  -21.9187   -4.6962   22.3403 C   0  0  0  0  0  0
  -22.7848  -13.5226   21.1847 C   0  0  0  0  0  0
  -22.1656   -4.2147   21.0980 F   0  0  0  0  0  0
  -21.5628   -3.4539   25.7739 F   0  0  0  0  0  0
  -30.0158  -13.4125   20.4391 N   0  0  0  0  0  0
  -26.2998  -12.9355   20.3335 N   0  0  0  0  0  0
  -25.9331  -11.6506   20.5757 N   0  0  0  0  0  0
  -22.0495  -12.8215   22.0402 N   0  0  0  0  0  0
  -25.4273  -15.1896   20.4133 N   0  0  0  0  0  0
  -31.7678  -14.8169   20.1005 O   0  0  0  0  0  0
  -21.6633   -6.8881   21.4241 O   0  0  0  0  0  0
  -22.3531  -14.5538   20.6705 O   0  0  0  0  0  0
  -24.6278  -31.8601   23.2033 C   0  0  0  0  0  0
  -25.9122  -32.4779   23.8366 C   0  0  1  0  0  0
  -27.2189  -27.3074   20.1149 C   0  0  0  0  0  0
  -25.5937  -33.8580   24.2288 N   0  0  0  0  0  0
  -23.4217  -30.4857   21.5472 C   0  0  2  0  0  0
  -24.8666  -28.9434   20.1116 C   0  0  0  0  0  0
  -22.7487  -29.4629   22.4940 C   0  0  0  0  0  0
  -18.0289  -28.1383   22.8485 C   0  0  0  0  0  0
  -24.1492  -36.7286   23.2638 C   0  0  0  0  0  0
  -25.9658  -30.7873   21.3775 C   0  0  0  0  0  0
  -26.0391  -29.4156   20.7153 C   0  0  0  0  0  0
  -27.2195  -28.6108   20.7061 C   0  0  0  0  0  0
  -26.0203  -26.8979   19.4818 C   0  0  0  0  0  0
  -24.8602  -27.6899   19.4857 C   0  0  0  0  0  0
  -23.6361  -29.8243   20.1623 C   0  0  0  0  0  0
  -25.4117  -36.3084   24.0333 C   0  0  1  0  0  0
  -20.5891  -28.3694   23.1275 C   0  0  2  0  0  0
  -20.6778  -26.9412   22.5403 C   0  0  0  0  0  0
  -19.5748  -26.6381   21.5209 C   0  0  0  0  0  0
  -18.1928  -26.7925   22.1627 C   0  0  0  0  0  0
  -19.1543  -28.8857   23.2870 C   0  0  0  0  0  0
  -18.9466  -30.1461   23.8879 C   0  0  0  0  0  0
  -17.6465  -30.6584   24.0560 C   0  0  0  0  0  0
  -25.9055  -34.9453   23.5108 C   0  0  0  0  0  0
  -16.5355  -29.9080   23.6330 C   0  0  0  0  0  0
  -16.7277  -28.6498   23.0352 C   0  0  0  0  0  0
  -26.4496  -31.6588   25.0738 C   0  0  0  0  0  0
  -25.3729  -31.3726   26.1463 C   0  0  0  0  0  0
  -27.0343  -30.3008   24.6200 C   0  0  0  0  0  0
  -27.6056  -32.4322   25.7511 C   0  0  0  0  0  0
  -27.5581  -37.1803   24.8463 C   0  0  0  0  0  0
  -21.4201  -29.3052   22.3679 N   0  0  0  0  0  0
  -26.4294  -37.3779   23.9406 N   0  0  0  0  0  0
  -24.6908  -31.0607   22.0989 N   0  0  0  0  0  0
  -23.4205  -28.8165   23.3024 O   0  0  0  0  0  0
  -28.3173  -26.4284   20.1702 O   0  0  0  0  0  0
  -26.5617  -34.8921   22.4670 O   0  0  0  0  0  0
  -23.5436  -32.1403   23.7354 O   0  0  0  0  0  0
  -28.8562  -19.3896   21.2059 C   0  0  0  0  0  0
  -30.7690  -17.8117   19.9105 C   0  0  0  0  0  0
  -28.8836  -17.9674   21.4178 C   0  0  0  0  0  0
  -29.8491  -17.1371   20.7550 C   0  0  0  0  0  0
  -29.7838  -20.0625   20.3664 C   0  0  0  0  0  0
  -30.7403  -19.2250   19.7276 C   0  0  0  0  0  0
  -26.8679  -17.9481   22.9534 C   0  0  0  0  0  0
  -27.8999  -17.3443   22.3379 C   0  0  0  0  0  0
  -29.1478  -23.9266   20.3427 C   0  0  0  0  0  0
  -27.9929  -24.9751   20.1021 C   0  0  0  0  0  0
  -28.7804  -22.3936   20.5427 C   0  0  0  0  0  0
  -29.8122  -15.6748   20.9252 N   0  0  0  0  0  0
  -30.3273  -24.2951   20.3756 O   0  0  0  0  0  0
  -29.8430  -21.4607   20.1479 O   0  0  0  0  0  0
  -31.9101  -19.9379   18.6749 Cl  0  0  0  0  0  0
  -31.4810  -12.5230   19.1535 H   0  0  0  0  0  0
  -30.3756  -11.3984   19.8928 H   0  0  0  0  0  0
  -29.7726  -11.7670   17.4777 H   0  0  0  0  0  0
  -29.6535  -13.4856   17.7498 H   0  0  0  0  0  0
  -27.8606  -11.3001   18.8560 H   0  0  0  0  0  0
  -27.3798  -12.5961   17.7942 H   0  0  0  0  0  0
  -27.6749  -14.2553   19.5357 H   0  0  0  0  0  0
  -28.7122  -12.0337   21.3651 H   0  0  0  0  0  0
  -28.4413  -13.6773   21.8601 H   0  0  0  0  0  0
  -25.2762   -9.5679   22.4758 H   0  0  0  0  0  0
  -23.9997   -7.4632   22.7487 H   0  0  0  0  0  0
  -21.0847   -8.8782   19.8941 H   0  0  0  0  0  0
  -22.3716  -10.9674   19.6159 H   0  0  0  0  0  0
  -21.2015   -7.6152   23.9717 H   0  0  0  0  0  0
  -21.1479   -6.0524   25.9079 H   0  0  0  0  0  0
  -22.0601   -2.7608   23.2851 H   0  0  0  0  0  0
  -22.4114  -11.9863   22.4754 H   0  0  0  0  0  0
  -21.1112  -13.1232   22.2616 H   0  0  0  0  0  0
  -24.6660  -15.8459   20.5502 H   0  0  0  0  0  0
  -26.2819  -15.6365   20.1075 H   0  0  0  0  0  0
  -26.7192  -32.5443   23.1118 H   0  0  0  0  0  0
  -25.0113  -33.9728   25.0454 H   0  0  0  0  0  0
  -22.7152  -31.3061   21.4055 H   0  0  0  0  0  0
  -23.3761  -35.9612   23.3308 H   0  0  0  0  0  0
  -24.3568  -36.8888   22.2046 H   0  0  0  0  0  0
  -23.7246  -37.6492   23.6654 H   0  0  0  0  0  0
  -26.1028  -31.5539   20.6135 H   0  0  0  0  0  0
  -26.8440  -30.8306   22.0100 H   0  0  0  0  0  0
  -28.1176  -28.9682   21.1905 H   0  0  0  0  0  0
  -25.9388  -25.9470   18.9792 H   0  0  0  0  0  0
  -23.9631  -27.3231   19.0069 H   0  0  0  0  0  0
  -23.7562  -30.6014   19.4067 H   0  0  0  0  0  0
  -22.7557  -29.2546   19.8592 H   0  0  0  0  0  0
  -25.1297  -36.1937   25.0828 H   0  0  0  0  0  0
  -20.9980  -28.3267   24.1399 H   0  0  0  0  0  0
  -20.5685  -26.2304   23.3603 H   0  0  0  0  0  0
  -21.6644  -26.7438   22.1196 H   0  0  0  0  0  0
  -19.6907  -25.6298   21.1236 H   0  0  0  0  0  0
  -19.6679  -27.3195   20.6740 H   0  0  0  0  0  0
  -17.4201  -26.6681   21.4026 H   0  0  0  0  0  0
  -18.0317  -26.0065   22.9019 H   0  0  0  0  0  0
  -19.7943  -30.7285   24.2232 H   0  0  0  0  0  0
  -17.5020  -31.6260   24.5174 H   0  0  0  0  0  0
  -15.5354  -30.2978   23.7665 H   0  0  0  0  0  0
  -15.8678  -28.0814   22.7071 H   0  0  0  0  0  0
  -24.5899  -30.7082   25.7790 H   0  0  0  0  0  0
  -24.8938  -32.2897   26.4900 H   0  0  0  0  0  0
  -25.8059  -30.8893   27.0231 H   0  0  0  0  0  0
  -26.2921  -29.6761   24.1218 H   0  0  0  0  0  0
  -27.4022  -29.7261   25.4708 H   0  0  0  0  0  0
  -27.8798  -30.4283   23.9440 H   0  0  0  0  0  0
  -27.2665  -33.3632   26.2069 H   0  0  0  0  0  0
  -28.3881  -32.6861   25.0349 H   0  0  0  0  0  0
  -28.0708  -31.8458   26.5442 H   0  0  0  0  0  0
  -28.2600  -38.0101   24.7515 H   0  0  0  0  0  0
  -28.1084  -36.2631   24.6301 H   0  0  0  0  0  0
  -27.2290  -37.1452   25.8864 H   0  0  0  0  0  0
  -20.9388  -29.8780   21.6889 H   0  0  0  0  0  0
  -26.0177  -38.2855   24.1411 H   0  0  0  0  0  0
  -28.1196  -19.9876   21.7173 H   0  0  0  0  0  0
  -31.5150  -17.2476   19.3715 H   0  0  0  0  0  0
  -26.2262  -17.3799   23.6121 H   0  0  0  0  0  0
  -26.6287  -18.9929   22.8302 H   0  0  0  0  0  0
  -28.0232  -16.2941   22.5570 H   0  0  0  0  0  0
  -27.1964  -24.7566   20.8148 H   0  0  0  0  0  0
  -27.6055  -24.7469   19.1100 H   0  0  0  0  0  0
  -27.8783  -22.1698   19.9735 H   0  0  0  0  0  0
  -28.5416  -22.2413   21.5958 H   0  0  0  0  0  0
  -28.9556  -15.3360   21.3330 H   0  0  0  0  0  0
  1 25  1  0  0  0
  1 30  2  0  0  0
  1 82  1  0  0  0
  2  3  1  0  0  0
  2 25  1  0  0  0
  2 86  1  0  0  0
  2 87  1  0  0  0
  3  4  1  0  0  0
  3 88  1  0  0  0
  3 89  1  0  0  0
  4  5  1  0  0  0
  4 90  1  0  0  0
  4 91  1  0  0  0
  5  6  1  0  0  0
  5 26  1  0  0  0
  5 92  1  0  0  0
  6 25  1  0  0  0
  6 93  1  0  0  0
  6 94  1  0  0  0
  7  8  2  0  0  0
  7 26  1  0  0  0
  7 29  1  0  0  0
  8  9  1  0  0  0
  8 22  1  0  0  0
  9 10  1  0  0  0
  9 27  2  0  0  0
 10 11  2  0  0  0
 10 15  1  0  0  0
 11 12  1  0  0  0
 11 95  1  0  0  0
 12 13  2  0  0  0
 12 96  1  0  0  0
 13 14  1  0  0  0
 13 31  1  0  0  0
 14 15  2  0  0  0
 14 97  1  0  0  0
 15 98  1  0  0  0
 16 17  2  0  0  0
 16 21  1  0  0  0
 16 31  1  0  0  0
 17 18  1  0  0  0
 17 99  1  0  0  0
 18 19  2  0  0  0
 18100  1  0  0  0
 19 20  1  0  0  0
 19 24  1  0  0  0
 20 21  2  0  0  0
 20101  1  0  0  0
 21 23  1  0  0  0
 22 28  1  0  0  0
 22 32  2  0  0  0
 26 27  1  0  0  0
 28102  1  0  0  0
 28103  1  0  0  0
 29104  1  0  0  0
 29105  1  0  0  0
 33 34  1  0  0  0
 33 66  1  0  0  0
 33 70  2  0  0  0
 34 36  1  0  0  0
 34 59  1  0  0  0
 34106  1  0  0  0
 35 44  2  0  0  0
 35 45  1  0  0  0
 35 68  1  0  0  0
 36 56  1  0  0  0
 36107  1  0  0  0
 37 39  1  0  0  0
 37 47  1  0  0  0
 37 66  1  0  0  0
 37108  1  0  0  0
 38 43  2  0  0  0
 38 46  1  0  0  0
 38 47  1  0  0  0
 39 64  1  0  0  0
 39 67  2  0  0  0
 40 52  1  0  0  0
 40 53  2  0  0  0
 40 58  1  0  0  0
 41109  1  0  0  0
 41110  1  0  0  0
 41111  1  0  0  0
 41 48  1  0  0  0
 42 43  1  0  0  0
 42 66  1  0  0  0
 42112  1  0  0  0
 42113  1  0  0  0
 43 44  1  0  0  0
 44114  1  0  0  0
 45 46  2  0  0  0
 45115  1  0  0  0
 46116  1  0  0  0
 47117  1  0  0  0
 47118  1  0  0  0
 48 56  1  0  0  0
 48 65  1  0  0  0
 48119  1  0  0  0
 49 50  1  0  0  0
 49 53  1  0  0  0
 49 64  1  0  0  0
 49120  1  0  0  0
 50 51  1  0  0  0
 50121  1  0  0  0
 50122  1  0  0  0
 51 52  1  0  0  0
 51123  1  0  0  0
 51124  1  0  0  0
 52125  1  0  0  0
 52126  1  0  0  0
 53 54  1  0  0  0
 54 55  2  0  0  0
 54127  1  0  0  0
 55 57  1  0  0  0
 55128  1  0  0  0
 56 69  2  0  0  0
 57 58  2  0  0  0
 57129  1  0  0  0
 58130  1  0  0  0
 59 60  1  0  0  0
 59 61  1  0  0  0
 59 62  1  0  0  0
 60131  1  0  0  0
 60132  1  0  0  0
 60133  1  0  0  0
 61134  1  0  0  0
 61135  1  0  0  0
 61136  1  0  0  0
 62137  1  0  0  0
 62138  1  0  0  0
 62139  1  0  0  0
 63 65  1  0  0  0
 63140  1  0  0  0
 63141  1  0  0  0
 63142  1  0  0  0
 64143  1  0  0  0
 65144  1  0  0  0
 68 80  1  0  0  0
 71 73  2  0  0  0
 71 75  1  0  0  0
 71145  1  0  0  0
 72 74  2  0  0  0
 72 76  1  0  0  0
 72146  1  0  0  0
 73 74  1  0  0  0
 73 78  1  0  0  0
 74 82  1  0  0  0
 75 76  2  0  0  0
 75 84  1  0  0  0
 76 85  1  0  0  0
 77 78  2  0  0  0
 77147  1  0  0  0
 77148  1  0  0  0
 78149  1  0  0  0
 79 80  1  0  0  0
 79 81  1  0  0  0
 79 83  2  0  0  0
 80150  1  0  0  0
 80151  1  0  0  0
 81 84  1  0  0  0
 81152  1  0  0  0
 81153  1  0  0  0
 82154  1  0  0  0
M  ISO  4   1 100  68 101  80 101  82 100
M  END
> <chiral flag>
0

> <version>
0

> <s_m_source_file>
/data/baiqing/PycharmProjects/Reinvent-master-3.2/result/LINK_invent/BTK/process_docking_weight1_custom_product_contain_oxygen_bond_distance_aromatic_linkinvent_7_9_3/rearranged_h_0116.sdf

> <i_m_source_file_index>
12

> <r_mmod_Potential_Energy-OPLS-2005>
85.3977966308594

> <r_mmod_Stretch_Energy-OPLS-2005>
87.4111328125

> <r_mmod_Bend_Energy-OPLS-2005>
146.551467895508

> <r_mmod_Torsional_Energy-OPLS-2005>
215.101287841797

> <r_mmod_Improper_Torsional_Energy-OPLS-2005>
3.40705728530884

> <r_mmod_Van_der_Waal_Energy-OPLS-2005>
147.777221679688

> <r_mmod_Electrostatic_Energy-OPLS-2005>
-320.120086669922

> <r_mmod_Solvation_Energy-OPLS-2005>
-247.665115356445

> <b_mmod_Minimization_Converged-OPLS-2005>
0

> <r_mmod_RMS_Derivative-OPLS-2005>
1.15859961509705

$$$$
12
                    3D
 Structure written by MMmdl.
162170  0  0  1  0            999 V2000
  -30.6063  -14.5708   20.4480 C   0  0  0  0  0  0
  -30.4388  -12.3469   19.4506 C   0  0  0  0  0  0
  -29.5081  -12.4821   18.2258 C   0  0  0  0  0  0
  -28.0196  -12.3653   18.6178 C   0  0  0  0  0  0
  -27.6533  -13.2078   19.8681 C   0  0  2  0  0  0
  -28.6923  -13.0340   20.9912 C   0  0  0  0  0  0
  -25.2599  -13.8121   20.5758 C   0  0  0  0  0  0
  -24.1859  -13.0422   20.9202 C   0  0  0  0  0  0
  -24.6375  -11.6865   20.8713 C   0  0  0  0  0  0
  -23.9047  -10.4259   21.0357 C   0  0  0  0  0  0
  -24.3609   -9.4179   21.9145 C   0  0  0  0  0  0
  -23.6274   -8.2239   22.0739 C   0  0  0  0  0  0
  -22.4258   -8.0275   21.3533 C   0  0  0  0  0  0
  -21.9896   -9.0221   20.4616 C   0  0  0  0  0  0
  -22.7212  -10.2094   20.2999 C   0  0  0  0  0  0
  -21.6841   -6.0746   22.5304 C   0  0  0  0  0  0
  -21.3993   -6.5632   23.8239 C   0  0  0  0  0  0
  -21.3662   -5.6780   24.9190 C   0  0  0  0  0  0
  -21.6051   -4.3043   24.7227 C   0  0  0  0  0  0
  -21.8802   -3.8148   23.4327 C   0  0  0  0  0  0
  -21.9184   -4.6984   22.3401 C   0  0  0  0  0  0
  -22.7868  -13.5216   21.1836 C   0  0  0  0  0  0
  -22.1668   -4.2172   21.0984 F   0  0  0  0  0  0
  -21.5629   -3.4523   25.7736 F   0  0  0  0  0  0
  -30.0144  -13.3479   20.4401 N   0  0  0  0  0  0
  -26.3016  -12.9299   20.3377 N   0  0  0  0  0  0
  -25.9303  -11.6447   20.5772 N   0  0  0  0  0  0
  -22.0477  -12.8240   22.0357 N   0  0  0  0  0  0
  -25.4319  -15.1870   20.4311 N   0  0  0  0  0  0
  -31.7854  -14.7092   20.1148 O   0  0  0  0  0  0
  -21.6586   -6.8887   21.4267 O   0  0  0  0  0  0
  -22.3571  -14.5517   20.6623 O   0  0  0  0  0  0
  -24.6080  -31.8590   23.2234 C   0  0  0  0  0  0
  -25.8987  -32.4759   23.8481 C   0  0  1  0  0  0
  -27.2276  -27.3980   20.1323 C   0  0  0  0  0  0
  -25.5950  -33.8600   24.2360 N   0  0  0  0  0  0
  -23.4024  -30.4785   21.5638 C   0  0  2  0  0  0
  -24.8452  -28.9382   20.1446 C   0  0  0  0  0  0
  -22.7311  -29.4507   22.5056 C   0  0  0  0  0  0
  -18.0111  -28.1300   22.8705 C   0  0  0  0  0  0
  -24.1467  -36.7291   23.2637 C   0  0  0  0  0  0
  -25.9277  -30.8133   21.3788 C   0  0  0  0  0  0
  -26.0041  -29.4441   20.7359 C   0  0  0  0  0  0
  -27.1892  -28.6757   20.7404 C   0  0  0  0  0  0
  -26.0387  -26.9006   19.5471 C   0  0  0  0  0  0
  -24.8473  -27.6586   19.5667 C   0  0  0  0  0  0
  -23.6269  -29.8227   20.1764 C   0  0  0  0  0  0
  -25.4082  -36.3039   24.0310 C   0  0  1  0  0  0
  -20.5713  -28.3527   23.1310 C   0  0  2  0  0  0
  -20.6608  -26.9358   22.5105 C   0  0  0  0  0  0
  -19.5339  -26.6194   21.5217 C   0  0  0  0  0  0
  -18.1574  -26.7878   22.1759 C   0  0  0  0  0  0
  -19.1384  -28.8744   23.3032 C   0  0  0  0  0  0
  -18.9314  -30.1374   23.9030 C   0  0  0  0  0  0
  -17.6346  -30.6620   24.0556 C   0  0  0  0  0  0
  -25.9042  -34.9425   23.5107 C   0  0  0  0  0  0
  -16.5214  -29.9185   23.6273 C   0  0  0  0  0  0
  -16.7126  -28.6463   23.0603 C   0  0  0  0  0  0
  -26.4549  -31.6563   25.0770 C   0  0  0  0  0  0
  -25.3915  -31.3609   26.1576 C   0  0  0  0  0  0
  -27.0367  -30.2990   24.6088 C   0  0  0  0  0  0
  -27.6069  -32.4327   25.7605 C   0  0  0  0  0  0
  -27.5536  -37.1791   24.8483 C   0  0  0  0  0  0
  -21.4007  -29.3090   22.3915 N   0  0  0  0  0  0
  -26.4257  -37.3732   23.9435 N   0  0  0  0  0  0
  -24.6644  -31.0661   22.1180 N   0  0  0  0  0  0
  -23.4063  -28.7857   23.2948 O   0  0  0  0  0  0
  -28.4122  -26.6833   20.1569 O   0  0  0  0  0  0
  -26.5522  -34.8894   22.4619 O   0  0  0  0  0  0
  -23.5283  -32.1380   23.7611 O   0  0  0  0  0  0
  -28.1775  -19.4731   23.2798 C   0  0  0  0  0  0
  -28.2600  -20.4007   22.2253 C   0  0  0  0  0  0
  -29.3083  -18.7023   20.8429 C   0  0  0  0  0  0
  -28.5943  -18.1271   23.1060 C   0  0  0  0  0  0
  -29.2499  -17.7439   21.8982 C   0  0  0  0  0  0
  -28.8020  -20.0249   20.9892 C   0  0  0  0  0  0
  -28.5550  -17.2245   25.4589 C   0  0  0  0  0  0
  -28.2727  -17.1329   24.1533 C   0  0  0  0  0  0
  -29.9053  -16.3841   21.7339 C   0  0  0  0  0  0
  -30.8040  -15.9587   22.9027 C   0  0  0  0  0  0
  -29.4408  -23.2522   20.6800 C   0  0  0  0  0  0
  -28.2324  -24.1246   20.2333 C   0  0  0  0  0  0
  -29.6828  -21.9789   19.8169 C   0  0  0  0  0  0
  -28.5523  -25.4341   19.4456 C   0  0  0  0  0  0
  -29.7679  -15.6697   20.6721 N   0  0  0  0  0  0
  -28.7266  -20.9044   19.9227 O   0  0  0  0  0  0
  -31.4776  -12.4847   19.1432 H   0  0  0  0  0  0
  -30.3964  -11.3471   19.8853 H   0  0  0  0  0  0
  -29.7595  -11.7182   17.4940 H   0  0  0  0  0  0
  -29.6863  -13.4376   17.7336 H   0  0  0  0  0  0
  -27.7935  -11.3110   18.7921 H   0  0  0  0  0  0
  -27.3961  -12.6735   17.7778 H   0  0  0  0  0  0
  -27.6819  -14.2471   19.5475 H   0  0  0  0  0  0
  -28.6885  -12.0073   21.3600 H   0  0  0  0  0  0
  -28.4630  -13.6705   21.8470 H   0  0  0  0  0  0
  -25.2728   -9.5675   22.4732 H   0  0  0  0  0  0
  -23.9982   -7.4614   22.7437 H   0  0  0  0  0  0
  -21.0845   -8.8654   19.8896 H   0  0  0  0  0  0
  -22.3623  -10.9611   19.6102 H   0  0  0  0  0  0
  -21.1965   -7.6139   23.9757 H   0  0  0  0  0  0
  -21.1522   -6.0502   25.9105 H   0  0  0  0  0  0
  -22.0585   -2.7618   23.2805 H   0  0  0  0  0  0
  -22.4080  -11.9967   22.4894 H   0  0  0  0  0  0
  -21.1056  -13.1236   22.2396 H   0  0  0  0  0  0
  -24.6707  -15.8437   20.5612 H   0  0  0  0  0  0
  -26.3042  -15.6248   20.1601 H   0  0  0  0  0  0
  -26.6982  -32.5401   23.1184 H   0  0  0  0  0  0
  -25.0294  -33.9806   25.0630 H   0  0  0  0  0  0
  -22.6933  -31.2939   21.4320 H   0  0  0  0  0  0
  -23.3681  -35.9682   23.3305 H   0  0  0  0  0  0
  -24.3595  -36.8897   22.2062 H   0  0  0  0  0  0
  -23.7279  -37.6514   23.6686 H   0  0  0  0  0  0
  -26.0160  -31.5619   20.5947 H   0  0  0  0  0  0
  -26.8292  -30.8810   21.9758 H   0  0  0  0  0  0
  -28.0765  -29.0652   21.2204 H   0  0  0  0  0  0
  -26.0020  -25.9179   19.0996 H   0  0  0  0  0  0
  -23.9348  -27.2460   19.1567 H   0  0  0  0  0  0
  -23.8192  -30.6139   19.4536 H   0  0  0  0  0  0
  -22.7499  -29.2881   19.8075 H   0  0  0  0  0  0
  -25.1244  -36.1882   25.0794 H   0  0  0  0  0  0
  -20.9756  -28.2799   24.1437 H   0  0  0  0  0  0
  -20.6126  -26.2025   23.3190 H   0  0  0  0  0  0
  -21.6240  -26.7791   22.0229 H   0  0  0  0  0  0
  -19.6097  -27.2867   20.6599 H   0  0  0  0  0  0
  -19.6345  -25.6044   21.1387 H   0  0  0  0  0  0
  -17.3806  -26.7036   21.4157 H   0  0  0  0  0  0
  -17.9756  -25.9946   22.9013 H   0  0  0  0  0  0
  -19.7771  -30.7226   24.2367 H   0  0  0  0  0  0
  -17.4923  -31.6425   24.4906 H   0  0  0  0  0  0
  -15.5243  -30.3232   23.7378 H   0  0  0  0  0  0
  -15.8516  -28.0771   22.7362 H   0  0  0  0  0  0
  -24.6084  -30.6929   25.7973 H   0  0  0  0  0  0
  -24.9202  -32.2760   26.5184 H   0  0  0  0  0  0
  -25.8444  -30.8732   27.0210 H   0  0  0  0  0  0
  -26.2840  -29.6747   24.1232 H   0  0  0  0  0  0
  -27.4193  -29.7230   25.4532 H   0  0  0  0  0  0
  -27.8706  -30.4296   23.9161 H   0  0  0  0  0  0
  -27.2578  -33.3575   26.2235 H   0  0  0  0  0  0
  -28.3955  -32.6939   25.0527 H   0  0  0  0  0  0
  -28.0669  -31.8413   26.5529 H   0  0  0  0  0  0
  -28.2510  -38.0107   24.7464 H   0  0  0  0  0  0
  -28.1031  -36.2608   24.6366 H   0  0  0  0  0  0
  -27.2277  -37.1539   25.8893 H   0  0  0  0  0  0
  -20.9097  -29.8864   21.7230 H   0  0  0  0  0  0
  -26.0063  -38.2753   24.1554 H   0  0  0  0  0  0
  -27.7257  -19.7897   24.2058 H   0  0  0  0  0  0
  -27.8563  -21.3959   22.3557 H   0  0  0  0  0  0
  -29.7614  -18.4116   19.9097 H   0  0  0  0  0  0
  -29.0875  -18.0686   25.8829 H   0  0  0  0  0  0
  -28.2601  -16.4139   26.1122 H   0  0  0  0  0  0
  -27.7410  -16.2483   23.8195 H   0  0  0  0  0  0
  -30.3967  -15.0763   23.4073 H   0  0  0  0  0  0
  -30.8919  -16.7529   23.6418 H   0  0  0  0  0  0
  -31.8204  -15.7601   22.5677 H   0  0  0  0  0  0
  -29.3391  -22.9852   21.7342 H   0  0  0  0  0  0
  -30.3454  -23.8597   20.6379 H   0  0  0  0  0  0
  -27.6126  -24.3342   21.1014 H   0  0  0  0  0  0
  -27.6160  -23.4942   19.5907 H   0  0  0  0  0  0
  -30.6985  -21.6154   19.9785 H   0  0  0  0  0  0
  -29.6661  -22.2825   18.7679 H   0  0  0  0  0  0
  -28.0002  -25.4612   18.5061 H   0  0  0  0  0  0
  -29.5904  -25.3883   19.1350 H   0  0  0  0  0  0
  1 25  1  0  0  0
  1 30  2  0  0  0
  1 85  1  0  0  0
  2  3  1  0  0  0
  2 25  1  0  0  0
  2 87  1  0  0  0
  2 88  1  0  0  0
  3  4  1  0  0  0
  3 89  1  0  0  0
  3 90  1  0  0  0
  4  5  1  0  0  0
  4 91  1  0  0  0
  4 92  1  0  0  0
  5  6  1  0  0  0
  5 26  1  0  0  0
  5 93  1  0  0  0
  6 25  1  0  0  0
  6 94  1  0  0  0
  6 95  1  0  0  0
  7  8  2  0  0  0
  7 26  1  0  0  0
  7 29  1  0  0  0
  8  9  1  0  0  0
  8 22  1  0  0  0
  9 10  1  0  0  0
  9 27  2  0  0  0
 10 11  2  0  0  0
 10 15  1  0  0  0
 11 12  1  0  0  0
 11 96  1  0  0  0
 12 13  2  0  0  0
 12 97  1  0  0  0
 13 14  1  0  0  0
 13 31  1  0  0  0
 14 15  2  0  0  0
 14 98  1  0  0  0
 15 99  1  0  0  0
 16 17  2  0  0  0
 16 21  1  0  0  0
 16 31  1  0  0  0
 17 18  1  0  0  0
 17100  1  0  0  0
 18 19  2  0  0  0
 18101  1  0  0  0
 19 20  1  0  0  0
 19 24  1  0  0  0
 20 21  2  0  0  0
 20102  1  0  0  0
 21 23  1  0  0  0
 22 28  1  0  0  0
 22 32  2  0  0  0
 26 27  1  0  0  0
 28103  1  0  0  0
 28104  1  0  0  0
 29105  1  0  0  0
 29106  1  0  0  0
 33 34  1  0  0  0
 33 66  1  0  0  0
 33 70  2  0  0  0
 34 36  1  0  0  0
 34 59  1  0  0  0
 34107  1  0  0  0
 35 44  2  0  0  0
 35 45  1  0  0  0
 35 68  1  0  0  0
 36 56  1  0  0  0
 36108  1  0  0  0
 37 39  1  0  0  0
 37 47  1  0  0  0
 37 66  1  0  0  0
 37109  1  0  0  0
 38 43  2  0  0  0
 38 46  1  0  0  0
 38 47  1  0  0  0
 39 64  1  0  0  0
 39 67  2  0  0  0
 40 52  1  0  0  0
 40 53  2  0  0  0
 40 58  1  0  0  0
 41110  1  0  0  0
 41111  1  0  0  0
 41112  1  0  0  0
 41 48  1  0  0  0
 42 43  1  0  0  0
 42 66  1  0  0  0
 42113  1  0  0  0
 42114  1  0  0  0
 43 44  1  0  0  0
 44115  1  0  0  0
 45 46  2  0  0  0
 45116  1  0  0  0
 46117  1  0  0  0
 47118  1  0  0  0
 47119  1  0  0  0
 48 56  1  0  0  0
 48 65  1  0  0  0
 48120  1  0  0  0
 49 50  1  0  0  0
 49 53  1  0  0  0
 49 64  1  0  0  0
 49121  1  0  0  0
 50 51  1  0  0  0
 50122  1  0  0  0
 50123  1  0  0  0
 51 52  1  0  0  0
 51124  1  0  0  0
 51125  1  0  0  0
 52126  1  0  0  0
 52127  1  0  0  0
 53 54  1  0  0  0
 54 55  2  0  0  0
 54128  1  0  0  0
 55 57  1  0  0  0
 55129  1  0  0  0
 56 69  2  0  0  0
 57 58  2  0  0  0
 57130  1  0  0  0
 58131  1  0  0  0
 59 60  1  0  0  0
 59 61  1  0  0  0
 59 62  1  0  0  0
 60132  1  0  0  0
 60133  1  0  0  0
 60134  1  0  0  0
 61135  1  0  0  0
 61136  1  0  0  0
 61137  1  0  0  0
 62138  1  0  0  0
 62139  1  0  0  0
 62140  1  0  0  0
 63 65  1  0  0  0
 63141  1  0  0  0
 63142  1  0  0  0
 63143  1  0  0  0
 64144  1  0  0  0
 65145  1  0  0  0
 68 84  1  0  0  0
 71 72  2  0  0  0
 71 74  1  0  0  0
 71146  1  0  0  0
 72 76  1  0  0  0
 72147  1  0  0  0
 73 75  1  0  0  0
 73 76  2  0  0  0
 73148  1  0  0  0
 74 75  2  0  0  0
 74 78  1  0  0  0
 75 79  1  0  0  0
 76 86  1  0  0  0
 77 78  2  0  0  0
 77149  1  0  0  0
 77150  1  0  0  0
 78151  1  0  0  0
 79 80  1  0  0  0
 79 85  2  0  0  0
 80152  1  0  0  0
 80153  1  0  0  0
 80154  1  0  0  0
 81 82  1  0  0  0
 81 83  1  0  0  0
 81155  1  0  0  0
 81156  1  0  0  0
 82 84  1  0  0  0
 82157  1  0  0  0
 82158  1  0  0  0
 83 86  1  0  0  0
 83159  1  0  0  0
 83160  1  0  0  0
 84161  1  0  0  0
 84162  1  0  0  0
M  ISO  4   1 100  68 101  84 101  85 100
M  END
> <chiral flag>
0

> <version>
0

> <s_m_source_file>
/data/baiqing/PycharmProjects/Reinvent-master-3.2/result/LINK_invent/BTK/process_docking_weight1_custom_product_contain_oxygen_bond_distance_aromatic_linkinvent_7_9_3/rearranged_h_0116.sdf

> <i_m_source_file_index>
13

> <r_mmod_Potential_Energy-OPLS-2005>
108.922714233398

> <r_mmod_Stretch_Energy-OPLS-2005>
49.3899230957031

> <r_mmod_Bend_Energy-OPLS-2005>
130.059387207031

> <r_mmod_Torsional_Energy-OPLS-2005>
274.415679931641

> <r_mmod_Improper_Torsional_Energy-OPLS-2005>
5.18171358108521

> <r_mmod_Van_der_Waal_Energy-OPLS-2005>
162.121765136719

> <r_mmod_Electrostatic_Energy-OPLS-2005>
-365.266326904297

> <r_mmod_Solvation_Energy-OPLS-2005>
-176.257232666016

> <b_mmod_Minimization_Converged-OPLS-2005>
0

> <r_mmod_RMS_Derivative-OPLS-2005>
11.9306602478027

$$$$
13
                    3D
 Structure written by MMmdl.
162170  0  0  1  0            999 V2000
  -30.7322  -14.4787   20.6481 C   0  0  0  0  0  0
  -30.4236  -12.3382   19.4287 C   0  0  0  0  0  0
  -29.4975  -12.5168   18.2091 C   0  0  0  0  0  0
  -28.0209  -12.3581   18.6176 C   0  0  0  0  0  0
  -27.6578  -13.2062   19.8624 C   0  0  2  0  0  0
  -28.6906  -13.0034   20.9879 C   0  0  0  0  0  0
  -25.2581  -13.8162   20.5654 C   0  0  0  0  0  0
  -24.1841  -13.0439   20.9162 C   0  0  0  0  0  0
  -24.6393  -11.6901   20.8710 C   0  0  0  0  0  0
  -23.9055  -10.4291   21.0385 C   0  0  0  0  0  0
  -24.3606   -9.4211   21.9167 C   0  0  0  0  0  0
  -23.6281   -8.2249   22.0752 C   0  0  0  0  0  0
  -22.4258   -8.0283   21.3549 C   0  0  0  0  0  0
  -21.9888   -9.0256   20.4651 C   0  0  0  0  0  0
  -22.7222  -10.2130   20.3042 C   0  0  0  0  0  0
  -21.6858   -6.0726   22.5281 C   0  0  0  0  0  0
  -21.4021   -6.5628   23.8218 C   0  0  0  0  0  0
  -21.3657   -5.6780   24.9178 C   0  0  0  0  0  0
  -21.6042   -4.3045   24.7226 C   0  0  0  0  0  0
  -21.8821   -3.8136   23.4351 C   0  0  0  0  0  0
  -21.9201   -4.6953   22.3405 C   0  0  0  0  0  0
  -22.7866  -13.5243   21.1840 C   0  0  0  0  0  0
  -22.1667   -4.2141   21.0980 F   0  0  0  0  0  0
  -21.5621   -3.4528   25.7736 F   0  0  0  0  0  0
  -30.0296  -13.3196   20.4569 N   0  0  0  0  0  0
  -26.3001  -12.9331   20.3267 N   0  0  0  0  0  0
  -25.9309  -11.6493   20.5697 N   0  0  0  0  0  0
  -22.0502  -12.8249   22.0403 N   0  0  0  0  0  0
  -25.4293  -15.1884   20.4092 N   0  0  0  0  0  0
  -31.7876  -14.7076   20.0474 O   0  0  0  0  0  0
  -21.6638   -6.8867   21.4239 O   0  0  0  0  0  0
  -22.3551  -14.5550   20.6689 O   0  0  0  0  0  0
  -24.6164  -31.8656   23.2074 C   0  0  0  0  0  0
  -25.9050  -32.4803   23.8383 C   0  0  1  0  0  0
  -27.2325  -27.4121   20.1057 C   0  0  0  0  0  0
  -25.5902  -33.8604   24.2309 N   0  0  0  0  0  0
  -23.4069  -30.4881   21.5472 C   0  0  2  0  0  0
  -24.8551  -28.9462   20.1182 C   0  0  0  0  0  0
  -22.7427  -29.4656   22.4975 C   0  0  0  0  0  0
  -18.0281  -28.1390   22.8489 C   0  0  0  0  0  0
  -24.1485  -36.7317   23.2640 C   0  0  0  0  0  0
  -25.9363  -30.8243   21.3641 C   0  0  0  0  0  0
  -26.0151  -29.4538   20.7186 C   0  0  0  0  0  0
  -27.2094  -28.6922   20.7129 C   0  0  0  0  0  0
  -26.0615  -26.9246   19.4955 C   0  0  0  0  0  0
  -24.8733  -27.6807   19.5052 C   0  0  0  0  0  0
  -23.6178  -29.8162   20.1637 C   0  0  0  0  0  0
  -25.4103  -36.3100   24.0337 C   0  0  1  0  0  0
  -20.5869  -28.3693   23.1303 C   0  0  2  0  0  0
  -20.6775  -26.9426   22.5416 C   0  0  0  0  0  0
  -19.5749  -26.6394   21.5216 C   0  0  0  0  0  0
  -18.1927  -26.7934   22.1628 C   0  0  0  0  0  0
  -19.1528  -28.8855   23.2898 C   0  0  0  0  0  0
  -18.9455  -30.1454   23.8916 C   0  0  0  0  0  0
  -17.6457  -30.6595   24.0570 C   0  0  0  0  0  0
  -25.9036  -34.9467   23.5124 C   0  0  0  0  0  0
  -16.5348  -29.9099   23.6326 C   0  0  0  0  0  0
  -16.7271  -28.6516   23.0346 C   0  0  0  0  0  0
  -26.4479  -31.6584   25.0715 C   0  0  0  0  0  0
  -25.3754  -31.3687   26.1469 C   0  0  0  0  0  0
  -27.0305  -30.3022   24.6099 C   0  0  0  0  0  0
  -27.6058  -32.4299   25.7481 C   0  0  0  0  0  0
  -27.5578  -37.1805   24.8467 C   0  0  0  0  0  0
  -21.4152  -29.3047   22.3703 N   0  0  0  0  0  0
  -26.4292  -37.3778   23.9412 N   0  0  0  0  0  0
  -24.6714  -31.0742   22.0980 N   0  0  0  0  0  0
  -23.4181  -28.8206   23.3040 O   0  0  0  0  0  0
  -28.3727  -26.6366   20.0614 O   0  0  0  0  0  0
  -26.5602  -34.8926   22.4688 O   0  0  0  0  0  0
  -23.5353  -32.1424   23.7451 O   0  0  0  0  0  0
  -29.1990  -17.1082   19.9966 C   0  0  0  0  0  0
  -30.5878  -17.8588   21.8279 C   0  0  0  0  0  0
  -28.9601  -18.4578   19.6089 C   0  0  0  0  0  0
  -30.0047  -16.7810   21.1142 C   0  0  0  0  0  0
  -29.5439  -19.5254   20.3469 C   0  0  0  0  0  0
  -30.3639  -19.2036   21.4551 C   0  0  0  0  0  0
  -27.5888  -17.8883   17.5691 C   0  0  0  0  0  0
  -29.6420  -15.7573   23.8795 C   0  0  0  0  0  0
  -28.1182  -18.7702   18.4357 C   0  0  0  0  0  0
  -30.2276  -15.0619   22.8866 C   0  0  0  0  0  0
  -28.0655  -24.2978   21.0647 C   0  0  0  0  0  0
  -28.9960  -23.2587   20.3675 C   0  0  0  0  0  0
  -28.5777  -25.7681   21.1906 C   0  0  0  0  0  0
  -28.7319  -21.7749   20.7807 C   0  0  0  0  0  0
  -30.2200  -15.4002   21.5147 N   0  0  0  0  0  0
  -29.4012  -20.8411   19.9150 O   0  0  0  0  0  0
  -30.9783  -20.1900   22.1525 F   0  0  0  0  0  0
  -31.4676  -12.4429   19.1290 H   0  0  0  0  0  0
  -30.3370  -11.3275   19.8305 H   0  0  0  0  0  0
  -29.7506  -11.7907   17.4357 H   0  0  0  0  0  0
  -29.6552  -13.5018   17.7675 H   0  0  0  0  0  0
  -27.8459  -11.3021   18.8274 H   0  0  0  0  0  0
  -27.3687  -12.6143   17.7825 H   0  0  0  0  0  0
  -27.6965  -14.2499   19.5546 H   0  0  0  0  0  0
  -28.6727  -11.9720   21.3416 H   0  0  0  0  0  0
  -28.4008  -13.6086   21.8440 H   0  0  0  0  0  0
  -25.2754   -9.5689   22.4737 H   0  0  0  0  0  0
  -23.9997   -7.4637   22.7466 H   0  0  0  0  0  0
  -21.0822   -8.8775   19.8955 H   0  0  0  0  0  0
  -22.3684  -10.9665   19.6145 H   0  0  0  0  0  0
  -21.2014   -7.6139   23.9720 H   0  0  0  0  0  0
  -21.1472   -6.0506   25.9080 H   0  0  0  0  0  0
  -22.0598   -2.7598   23.2856 H   0  0  0  0  0  0
  -22.4111  -11.9918   22.4817 H   0  0  0  0  0  0
  -21.1122  -13.1296   22.2590 H   0  0  0  0  0  0
  -24.6617  -15.8414   20.5215 H   0  0  0  0  0  0
  -26.2881  -15.6346   20.1145 H   0  0  0  0  0  0
  -26.7121  -32.5520   23.1145 H   0  0  0  0  0  0
  -25.0031  -33.9759   25.0441 H   0  0  0  0  0  0
  -22.6971  -31.3055   21.4032 H   0  0  0  0  0  0
  -23.3730  -35.9667   23.3314 H   0  0  0  0  0  0
  -24.3585  -36.8926   22.2054 H   0  0  0  0  0  0
  -23.7255  -37.6534   23.6647 H   0  0  0  0  0  0
  -26.0476  -31.5848   20.5900 H   0  0  0  0  0  0
  -26.8237  -30.8833   21.9833 H   0  0  0  0  0  0
  -28.1067  -29.0799   21.1736 H   0  0  0  0  0  0
  -26.0705  -25.9570   19.0136 H   0  0  0  0  0  0
  -23.9820  -27.2850   19.0376 H   0  0  0  0  0  0
  -23.7273  -30.5882   19.4009 H   0  0  0  0  0  0
  -22.7416  -29.2365   19.8691 H   0  0  0  0  0  0
  -25.1267  -36.1969   25.0827 H   0  0  0  0  0  0
  -20.9961  -28.3275   24.1424 H   0  0  0  0  0  0
  -20.5685  -26.2311   23.3618 H   0  0  0  0  0  0
  -21.6646  -26.7474   22.1201 H   0  0  0  0  0  0
  -19.6921  -25.6305   21.1247 H   0  0  0  0  0  0
  -19.6678  -27.3209   20.6749 H   0  0  0  0  0  0
  -17.4192  -26.6677   21.4036 H   0  0  0  0  0  0
  -18.0338  -26.0073   22.9023 H   0  0  0  0  0  0
  -19.7929  -30.7264   24.2296 H   0  0  0  0  0  0
  -17.5016  -31.6273   24.5178 H   0  0  0  0  0  0
  -15.5351  -30.3013   23.7637 H   0  0  0  0  0  0
  -15.8670  -28.0848   22.7048 H   0  0  0  0  0  0
  -24.5929  -30.7027   25.7814 H   0  0  0  0  0  0
  -24.8944  -32.2838   26.4932 H   0  0  0  0  0  0
  -25.8122  -30.8849   27.0216 H   0  0  0  0  0  0
  -26.2844  -29.6785   24.1159 H   0  0  0  0  0  0
  -27.4073  -29.7257   25.4557 H   0  0  0  0  0  0
  -27.8683  -30.4321   23.9246 H   0  0  0  0  0  0
  -27.2679  -33.3586   26.2092 H   0  0  0  0  0  0
  -28.3862  -32.6877   25.0309 H   0  0  0  0  0  0
  -28.0734  -31.8400   26.5377 H   0  0  0  0  0  0
  -28.2588  -38.0103   24.7501 H   0  0  0  0  0  0
  -28.1067  -36.2634   24.6285 H   0  0  0  0  0  0
  -27.2302  -37.1466   25.8871 H   0  0  0  0  0  0
  -20.9327  -29.8758   21.6899 H   0  0  0  0  0  0
  -26.0179  -38.2859   24.1396 H   0  0  0  0  0  0
  -28.7513  -16.3020   19.4384 H   0  0  0  0  0  0
  -31.2319  -17.6653   22.6727 H   0  0  0  0  0  0
  -26.9806  -18.2355   16.7459 H   0  0  0  0  0  0
  -27.7387  -16.8219   17.6438 H   0  0  0  0  0  0
  -29.7075  -15.4126   24.9017 H   0  0  0  0  0  0
  -29.0872  -16.6681   23.7065 H   0  0  0  0  0  0
  -27.9015  -19.8161   18.2668 H   0  0  0  0  0  0
  -30.7606  -14.1447   23.1096 H   0  0  0  0  0  0
  -27.9090  -23.9439   22.0844 H   0  0  0  0  0  0
  -27.0764  -24.2826   20.6079 H   0  0  0  0  0  0
  -30.0381  -23.4922   20.5875 H   0  0  0  0  0  0
  -28.8860  -23.3640   19.2879 H   0  0  0  0  0  0
  -29.6431  -25.7593   21.4205 H   0  0  0  0  0  0
  -28.1098  -26.2191   22.0695 H   0  0  0  0  0  0
  -27.6627  -21.5677   20.7282 H   0  0  0  0  0  0
  -29.0223  -21.6322   21.8215 H   0  0  0  0  0  0
  1 25  1  0  0  0
  1 30  2  0  0  0
  1 85  1  0  0  0
  2  3  1  0  0  0
  2 25  1  0  0  0
  2 88  1  0  0  0
  2 89  1  0  0  0
  3  4  1  0  0  0
  3 90  1  0  0  0
  3 91  1  0  0  0
  4  5  1  0  0  0
  4 92  1  0  0  0
  4 93  1  0  0  0
  5  6  1  0  0  0
  5 26  1  0  0  0
  5 94  1  0  0  0
  6 25  1  0  0  0
  6 95  1  0  0  0
  6 96  1  0  0  0
  7  8  2  0  0  0
  7 26  1  0  0  0
  7 29  1  0  0  0
  8  9  1  0  0  0
  8 22  1  0  0  0
  9 10  1  0  0  0
  9 27  2  0  0  0
 10 11  2  0  0  0
 10 15  1  0  0  0
 11 12  1  0  0  0
 11 97  1  0  0  0
 12 13  2  0  0  0
 12 98  1  0  0  0
 13 14  1  0  0  0
 13 31  1  0  0  0
 14 15  2  0  0  0
 14 99  1  0  0  0
 15100  1  0  0  0
 16 17  2  0  0  0
 16 21  1  0  0  0
 16 31  1  0  0  0
 17 18  1  0  0  0
 17101  1  0  0  0
 18 19  2  0  0  0
 18102  1  0  0  0
 19 20  1  0  0  0
 19 24  1  0  0  0
 20 21  2  0  0  0
 20103  1  0  0  0
 21 23  1  0  0  0
 22 28  1  0  0  0
 22 32  2  0  0  0
 26 27  1  0  0  0
 28104  1  0  0  0
 28105  1  0  0  0
 29106  1  0  0  0
 29107  1  0  0  0
 33 34  1  0  0  0
 33 66  1  0  0  0
 33 70  2  0  0  0
 34 36  1  0  0  0
 34 59  1  0  0  0
 34108  1  0  0  0
 35 44  2  0  0  0
 35 45  1  0  0  0
 35 68  1  0  0  0
 36 56  1  0  0  0
 36109  1  0  0  0
 37 39  1  0  0  0
 37 47  1  0  0  0
 37 66  1  0  0  0
 37110  1  0  0  0
 38 43  2  0  0  0
 38 46  1  0  0  0
 38 47  1  0  0  0
 39 64  1  0  0  0
 39 67  2  0  0  0
 40 52  1  0  0  0
 40 53  2  0  0  0
 40 58  1  0  0  0
 41111  1  0  0  0
 41112  1  0  0  0
 41113  1  0  0  0
 41 48  1  0  0  0
 42 43  1  0  0  0
 42 66  1  0  0  0
 42114  1  0  0  0
 42115  1  0  0  0
 43 44  1  0  0  0
 44116  1  0  0  0
 45 46  2  0  0  0
 45117  1  0  0  0
 46118  1  0  0  0
 47119  1  0  0  0
 47120  1  0  0  0
 48 56  1  0  0  0
 48 65  1  0  0  0
 48121  1  0  0  0
 49 50  1  0  0  0
 49 53  1  0  0  0
 49 64  1  0  0  0
 49122  1  0  0  0
 50 51  1  0  0  0
 50123  1  0  0  0
 50124  1  0  0  0
 51 52  1  0  0  0
 51125  1  0  0  0
 51126  1  0  0  0
 52127  1  0  0  0
 52128  1  0  0  0
 53 54  1  0  0  0
 54 55  2  0  0  0
 54129  1  0  0  0
 55 57  1  0  0  0
 55130  1  0  0  0
 56 69  2  0  0  0
 57 58  2  0  0  0
 57131  1  0  0  0
 58132  1  0  0  0
 59 60  1  0  0  0
 59 61  1  0  0  0
 59 62  1  0  0  0
 60133  1  0  0  0
 60134  1  0  0  0
 60135  1  0  0  0
 61136  1  0  0  0
 61137  1  0  0  0
 61138  1  0  0  0
 62139  1  0  0  0
 62140  1  0  0  0
 62141  1  0  0  0
 63 65  1  0  0  0
 63142  1  0  0  0
 63143  1  0  0  0
 63144  1  0  0  0
 64145  1  0  0  0
 65146  1  0  0  0
 68 83  1  0  0  0
 71 73  2  0  0  0
 71 74  1  0  0  0
 71147  1  0  0  0
 72 74  2  0  0  0
 72 76  1  0  0  0
 72148  1  0  0  0
 73 75  1  0  0  0
 73 79  1  0  0  0
 74 85  1  0  0  0
 75 76  2  0  0  0
 75 86  1  0  0  0
 76 87  1  0  0  0
 77 79  2  0  0  0
 77149  1  0  0  0
 77150  1  0  0  0
 78 80  2  0  0  0
 78151  1  0  0  0
 78152  1  0  0  0
 79153  1  0  0  0
 80 85  1  0  0  0
 80154  1  0  0  0
 81 82  1  0  0  0
 81 83  1  0  0  0
 81155  1  0  0  0
 81156  1  0  0  0
 82 84  1  0  0  0
 82157  1  0  0  0
 82158  1  0  0  0
 83159  1  0  0  0
 83160  1  0  0  0
 84 86  1  0  0  0
 84161  1  0  0  0
 84162  1  0  0  0
M  ISO  4   1 100  68 101  83 101  85 100
M  END
> <chiral flag>
0

> <version>
0

> <s_m_source_file>
/data/baiqing/PycharmProjects/Reinvent-master-3.2/result/LINK_invent/BTK/process_docking_weight1_custom_product_contain_oxygen_bond_distance_aromatic_linkinvent_7_9_3/rearranged_h_0116.sdf

> <i_m_source_file_index>
14

> <r_mmod_Potential_Energy-OPLS-2005>
222.382965087891

> <r_mmod_Stretch_Energy-OPLS-2005>
49.9861602783203

> <r_mmod_Bend_Energy-OPLS-2005>
109.076011657715

> <r_mmod_Torsional_Energy-OPLS-2005>
355.379058837891

> <r_mmod_Improper_Torsional_Energy-OPLS-2005>
2.66539859771729

> <r_mmod_Van_der_Waal_Energy-OPLS-2005>
152.580505371094

> <r_mmod_Electrostatic_Energy-OPLS-2005>
-271.386688232422

> <r_mmod_Solvation_Energy-OPLS-2005>
-189.672485351562

> <b_mmod_Minimization_Converged-OPLS-2005>
0

> <r_mmod_RMS_Derivative-OPLS-2005>
1.427605509758

$$$$
14
                    3D
 Structure written by MMmdl.
161169  0  0  1  0            999 V2000
  -30.6786  -14.5084   20.5403 C   0  0  0  0  0  0
  -30.4389  -12.3176   19.4359 C   0  0  0  0  0  0
  -29.5085  -12.4981   18.2170 C   0  0  0  0  0  0
  -28.0267  -12.3656   18.6214 C   0  0  0  0  0  0
  -27.6670  -13.2018   19.8789 C   0  0  2  0  0  0
  -28.7102  -12.9971   21.0024 C   0  0  0  0  0  0
  -25.2644  -13.8154   20.5679 C   0  0  0  0  0  0
  -24.1863  -13.0453   20.9136 C   0  0  0  0  0  0
  -24.6400  -11.6911   20.8724 C   0  0  0  0  0  0
  -23.9068  -10.4301   21.0404 C   0  0  0  0  0  0
  -24.3604   -9.4220   21.9194 C   0  0  0  0  0  0
  -23.6264   -8.2266   22.0774 C   0  0  0  0  0  0
  -22.4243   -8.0304   21.3564 C   0  0  0  0  0  0
  -21.9886   -9.0287   20.4668 C   0  0  0  0  0  0
  -22.7234  -10.2152   20.3078 C   0  0  0  0  0  0
  -21.6851   -6.0751   22.5277 C   0  0  0  0  0  0
  -21.4024   -6.5642   23.8209 C   0  0  0  0  0  0
  -21.3657   -5.6778   24.9165 C   0  0  0  0  0  0
  -21.6025   -4.3043   24.7192 C   0  0  0  0  0  0
  -21.8826   -3.8158   23.4319 C   0  0  0  0  0  0
  -21.9195   -4.6988   22.3380 C   0  0  0  0  0  0
  -22.7894  -13.5301   21.1777 C   0  0  0  0  0  0
  -22.1665   -4.2182   21.0962 F   0  0  0  0  0  0
  -21.5622   -3.4526   25.7714 F   0  0  0  0  0  0
  -30.0419  -13.3061   20.4541 N   0  0  0  0  0  0
  -26.3062  -12.9301   20.3382 N   0  0  0  0  0  0
  -25.9331  -11.6481   20.5765 N   0  0  0  0  0  0
  -22.0469  -12.8349   22.0328 N   0  0  0  0  0  0
  -25.4399  -15.1875   20.4124 N   0  0  0  0  0  0
  -31.7955  -14.7079   20.0529 O   0  0  0  0  0  0
  -21.6627   -6.8897   21.4231 O   0  0  0  0  0  0
  -22.3617  -14.5622   20.6633 O   0  0  0  0  0  0
  -24.6164  -31.8665   23.2110 C   0  0  0  0  0  0
  -25.9059  -32.4813   23.8400 C   0  0  1  0  0  0
  -27.2288  -27.4070   20.1171 C   0  0  0  0  0  0
  -25.5911  -33.8614   24.2334 N   0  0  0  0  0  0
  -23.4051  -30.4917   21.5503 C   0  0  2  0  0  0
  -24.8549  -28.9602   20.1109 C   0  0  0  0  0  0
  -22.7416  -29.4656   22.4969 C   0  0  0  0  0  0
  -18.0260  -28.1381   22.8493 C   0  0  0  0  0  0
  -24.1479  -36.7292   23.2638 C   0  0  0  0  0  0
  -25.9371  -30.8274   21.3697 C   0  0  0  0  0  0
  -26.0162  -29.4606   20.7151 C   0  0  0  0  0  0
  -27.2080  -28.6923   20.7141 C   0  0  0  0  0  0
  -26.0554  -26.9399   19.4855 C   0  0  0  0  0  0
  -24.8719  -27.7006   19.4893 C   0  0  0  0  0  0
  -23.6160  -29.8269   20.1640 C   0  0  0  0  0  0
  -25.4102  -36.3102   24.0343 C   0  0  1  0  0  0
  -20.5857  -28.3671   23.1305 C   0  0  2  0  0  0
  -20.6758  -26.9399   22.5417 C   0  0  0  0  0  0
  -19.5740  -26.6384   21.5209 C   0  0  0  0  0  0
  -18.1912  -26.7932   22.1611 C   0  0  0  0  0  0
  -19.1511  -28.8840   23.2897 C   0  0  0  0  0  0
  -18.9456  -30.1446   23.8908 C   0  0  0  0  0  0
  -17.6466  -30.6599   24.0560 C   0  0  0  0  0  0
  -25.9029  -34.9468   23.5128 C   0  0  0  0  0  0
  -16.5347  -29.9103   23.6337 C   0  0  0  0  0  0
  -16.7254  -28.6509   23.0371 C   0  0  0  0  0  0
  -26.4502  -31.6599   25.0726 C   0  0  0  0  0  0
  -25.3774  -31.3717   26.1479 C   0  0  0  0  0  0
  -27.0342  -30.3036   24.6122 C   0  0  0  0  0  0
  -27.6065  -32.4328   25.7495 C   0  0  0  0  0  0
  -27.5575  -37.1800   24.8468 C   0  0  0  0  0  0
  -21.4134  -29.3040   22.3718 N   0  0  0  0  0  0
  -26.4285  -37.3791   23.9418 N   0  0  0  0  0  0
  -24.6706  -31.0760   22.1018 N   0  0  0  0  0  0
  -23.4173  -28.8168   23.3001 O   0  0  0  0  0  0
  -28.3593  -26.6066   20.1488 O   0  0  0  0  0  0
  -26.5580  -34.8923   22.4681 O   0  0  0  0  0  0
  -23.5348  -32.1411   23.7496 O   0  0  0  0  0  0
  -29.0659  -16.6694   19.1084 C   0  0  0  0  0  0
  -29.6116  -17.9899   21.0701 C   0  0  0  0  0  0
  -28.4644  -19.0506   19.1814 C   0  0  0  0  0  0
  -28.4692  -17.7974   18.5077 C   0  0  0  0  0  0
  -29.6002  -16.7316   20.4119 C   0  0  0  0  0  0
  -29.0944  -19.1650   20.4537 C   0  0  0  0  0  0
  -27.9275  -20.7463   17.4152 C   0  0  0  0  0  0
  -27.7245  -20.1987   18.6246 C   0  0  0  0  0  0
  -27.7692  -17.5977   17.1716 C   0  0  0  0  0  0
  -29.1144  -24.1690   20.3264 C   0  0  0  0  0  0
  -28.6976  -22.7768   20.8988 C   0  0  0  0  0  0
  -28.1554  -25.3109   20.7721 C   0  0  0  0  0  0
  -29.6207  -21.5663   20.5707 C   0  0  0  0  0  0
  -29.9673  -15.5178   21.0874 N   0  0  0  0  0  0
  -29.1212  -20.3530   21.1793 O   0  0  0  0  0  0
  -31.4832  -12.4235   19.1336 H   0  0  0  0  0  0
  -30.3544  -11.3085   19.8420 H   0  0  0  0  0  0
  -29.7527  -11.7647   17.4459 H   0  0  0  0  0  0
  -29.6763  -13.4778   17.7664 H   0  0  0  0  0  0
  -27.8269  -11.3098   18.8075 H   0  0  0  0  0  0
  -27.3884  -12.6531   17.7849 H   0  0  0  0  0  0
  -27.7004  -14.2473   19.5810 H   0  0  0  0  0  0
  -28.6894  -11.9642   21.3516 H   0  0  0  0  0  0
  -28.4682  -13.6047   21.8748 H   0  0  0  0  0  0
  -25.2748   -9.5686   22.4770 H   0  0  0  0  0  0
  -23.9957   -7.4657   22.7499 H   0  0  0  0  0  0
  -21.0829   -8.8836   19.8967 H   0  0  0  0  0  0
  -22.3708  -10.9704   19.6197 H   0  0  0  0  0  0
  -21.2038   -7.6148   23.9726 H   0  0  0  0  0  0
  -21.1461   -6.0502   25.9066 H   0  0  0  0  0  0
  -22.0610   -2.7627   23.2792 H   0  0  0  0  0  0
  -22.3995  -11.9973   22.4722 H   0  0  0  0  0  0
  -21.1152  -13.1536   22.2563 H   0  0  0  0  0  0
  -24.6798  -15.8488   20.5293 H   0  0  0  0  0  0
  -26.3067  -15.6254   20.1267 H   0  0  0  0  0  0
  -26.7123  -32.5529   23.1153 H   0  0  0  0  0  0
  -25.0126  -33.9786   25.0524 H   0  0  0  0  0  0
  -22.6915  -31.3070   21.4121 H   0  0  0  0  0  0
  -23.3754  -35.9611   23.3313 H   0  0  0  0  0  0
  -24.3568  -36.8891   22.2049 H   0  0  0  0  0  0
  -23.7221  -37.6494   23.6648 H   0  0  0  0  0  0
  -26.0540  -31.5974   20.6051 H   0  0  0  0  0  0
  -26.8214  -30.8771   21.9939 H   0  0  0  0  0  0
  -28.0985  -29.0681   21.1990 H   0  0  0  0  0  0
  -26.0474  -25.9762   18.9958 H   0  0  0  0  0  0
  -23.9832  -27.3135   19.0096 H   0  0  0  0  0  0
  -23.7174  -30.6006   19.4024 H   0  0  0  0  0  0
  -22.7413  -29.2445   19.8717 H   0  0  0  0  0  0
  -25.1278  -36.1960   25.0835 H   0  0  0  0  0  0
  -20.9939  -28.3255   24.1431 H   0  0  0  0  0  0
  -20.5661  -26.2276   23.3607 H   0  0  0  0  0  0
  -21.6635  -26.7451   22.1219 H   0  0  0  0  0  0
  -19.6900  -25.6291   21.1253 H   0  0  0  0  0  0
  -19.6689  -27.3181   20.6728 H   0  0  0  0  0  0
  -17.4181  -26.6679   21.4012 H   0  0  0  0  0  0
  -18.0301  -26.0077   22.9004 H   0  0  0  0  0  0
  -19.7935  -30.7246   24.2288 H   0  0  0  0  0  0
  -17.5032  -31.6284   24.5141 H   0  0  0  0  0  0
  -15.5351  -30.3014   23.7674 H   0  0  0  0  0  0
  -15.8644  -28.0831   22.7116 H   0  0  0  0  0  0
  -24.5931  -30.7077   25.7834 H   0  0  0  0  0  0
  -24.8993  -32.2881   26.4945 H   0  0  0  0  0  0
  -25.8135  -30.8882   27.0225 H   0  0  0  0  0  0
  -26.2892  -29.6773   24.1204 H   0  0  0  0  0  0
  -27.4133  -29.7298   25.4586 H   0  0  0  0  0  0
  -27.8716  -30.4339   23.9264 H   0  0  0  0  0  0
  -27.2676  -33.3625   26.2078 H   0  0  0  0  0  0
  -28.3885  -32.6893   25.0339 H   0  0  0  0  0  0
  -28.0725  -31.8455   26.5415 H   0  0  0  0  0  0
  -28.2604  -38.0087   24.7521 H   0  0  0  0  0  0
  -28.1062  -36.2621   24.6293 H   0  0  0  0  0  0
  -27.2291  -37.1451   25.8871 H   0  0  0  0  0  0
  -20.9278  -29.8780   21.6969 H   0  0  0  0  0  0
  -26.0172  -38.2864   24.1445 H   0  0  0  0  0  0
  -29.0386  -15.7271   18.5801 H   0  0  0  0  0  0
  -30.0090  -18.0575   22.0727 H   0  0  0  0  0  0
  -27.3308  -21.5821   17.0766 H   0  0  0  0  0  0
  -28.6919  -20.3773   16.7470 H   0  0  0  0  0  0
  -26.9482  -20.6026   19.2601 H   0  0  0  0  0  0
  -27.6583  -16.5398   16.9284 H   0  0  0  0  0  0
  -28.3404  -18.0602   16.3676 H   0  0  0  0  0  0
  -26.7685  -18.0325   17.1847 H   0  0  0  0  0  0
  -29.1337  -24.1164   19.2381 H   0  0  0  0  0  0
  -30.1315  -24.4076   20.6400 H   0  0  0  0  0  0
  -27.6908  -22.5531   20.5455 H   0  0  0  0  0  0
  -28.6157  -22.8545   21.9835 H   0  0  0  0  0  0
  -28.2573  -25.4490   21.8491 H   0  0  0  0  0  0
  -27.1391  -24.9468   20.6314 H   0  0  0  0  0  0
  -30.6103  -21.7532   20.9912 H   0  0  0  0  0  0
  -29.7788  -21.4738   19.4967 H   0  0  0  0  0  0
  -29.2594  -15.1845   21.7254 H   0  0  0  0  0  0
  1 25  1  0  0  0
  1 30  2  0  0  0
  1 84  1  0  0  0
  2  3  1  0  0  0
  2 25  1  0  0  0
  2 86  1  0  0  0
  2 87  1  0  0  0
  3  4  1  0  0  0
  3 88  1  0  0  0
  3 89  1  0  0  0
  4  5  1  0  0  0
  4 90  1  0  0  0
  4 91  1  0  0  0
  5  6  1  0  0  0
  5 26  1  0  0  0
  5 92  1  0  0  0
  6 25  1  0  0  0
  6 93  1  0  0  0
  6 94  1  0  0  0
  7  8  2  0  0  0
  7 26  1  0  0  0
  7 29  1  0  0  0
  8  9  1  0  0  0
  8 22  1  0  0  0
  9 10  1  0  0  0
  9 27  2  0  0  0
 10 11  2  0  0  0
 10 15  1  0  0  0
 11 12  1  0  0  0
 11 95  1  0  0  0
 12 13  2  0  0  0
 12 96  1  0  0  0
 13 14  1  0  0  0
 13 31  1  0  0  0
 14 15  2  0  0  0
 14 97  1  0  0  0
 15 98  1  0  0  0
 16 17  2  0  0  0
 16 21  1  0  0  0
 16 31  1  0  0  0
 17 18  1  0  0  0
 17 99  1  0  0  0
 18 19  2  0  0  0
 18100  1  0  0  0
 19 20  1  0  0  0
 19 24  1  0  0  0
 20 21  2  0  0  0
 20101  1  0  0  0
 21 23  1  0  0  0
 22 28  1  0  0  0
 22 32  2  0  0  0
 26 27  1  0  0  0
 28102  1  0  0  0
 28103  1  0  0  0
 29104  1  0  0  0
 29105  1  0  0  0
 33 34  1  0  0  0
 33 66  1  0  0  0
 33 70  2  0  0  0
 34 36  1  0  0  0
 34 59  1  0  0  0
 34106  1  0  0  0
 35 44  2  0  0  0
 35 45  1  0  0  0
 35 68  1  0  0  0
 36 56  1  0  0  0
 36107  1  0  0  0
 37 39  1  0  0  0
 37 47  1  0  0  0
 37 66  1  0  0  0
 37108  1  0  0  0
 38 43  2  0  0  0
 38 46  1  0  0  0
 38 47  1  0  0  0
 39 64  1  0  0  0
 39 67  2  0  0  0
 40 52  1  0  0  0
 40 53  2  0  0  0
 40 58  1  0  0  0
 41109  1  0  0  0
 41110  1  0  0  0
 41111  1  0  0  0
 41 48  1  0  0  0
 42 43  1  0  0  0
 42 66  1  0  0  0
 42112  1  0  0  0
 42113  1  0  0  0
 43 44  1  0  0  0
 44114  1  0  0  0
 45 46  2  0  0  0
 45115  1  0  0  0
 46116  1  0  0  0
 47117  1  0  0  0
 47118  1  0  0  0
 48 56  1  0  0  0
 48 65  1  0  0  0
 48119  1  0  0  0
 49 50  1  0  0  0
 49 53  1  0  0  0
 49 64  1  0  0  0
 49120  1  0  0  0
 50 51  1  0  0  0
 50121  1  0  0  0
 50122  1  0  0  0
 51 52  1  0  0  0
 51123  1  0  0  0
 51124  1  0  0  0
 52125  1  0  0  0
 52126  1  0  0  0
 53 54  1  0  0  0
 54 55  2  0  0  0
 54127  1  0  0  0
 55 57  1  0  0  0
 55128  1  0  0  0
 56 69  2  0  0  0
 57 58  2  0  0  0
 57129  1  0  0  0
 58130  1  0  0  0
 59 60  1  0  0  0
 59 61  1  0  0  0
 59 62  1  0  0  0
 60131  1  0  0  0
 60132  1  0  0  0
 60133  1  0  0  0
 61134  1  0  0  0
 61135  1  0  0  0
 61136  1  0  0  0
 62137  1  0  0  0
 62138  1  0  0  0
 62139  1  0  0  0
 63 65  1  0  0  0
 63140  1  0  0  0
 63141  1  0  0  0
 63142  1  0  0  0
 64143  1  0  0  0
 65144  1  0  0  0
 68 82  1  0  0  0
 71 74  2  0  0  0
 71 75  1  0  0  0
 71145  1  0  0  0
 72 75  2  0  0  0
 72 76  1  0  0  0
 72146  1  0  0  0
 73 74  1  0  0  0
 73 76  2  0  0  0
 73 78  1  0  0  0
 74 79  1  0  0  0
 75 84  1  0  0  0
 76 85  1  0  0  0
 77 78  2  0  0  0
 77147  1  0  0  0
 77148  1  0  0  0
 78149  1  0  0  0
 79150  1  0  0  0
 79151  1  0  0  0
 79152  1  0  0  0
 80 81  1  0  0  0
 80 82  1  0  0  0
 80153  1  0  0  0
 80154  1  0  0  0
 81 83  1  0  0  0
 81155  1  0  0  0
 81156  1  0  0  0
 82157  1  0  0  0
 82158  1  0  0  0
 83 85  1  0  0  0
 83159  1  0  0  0
 83160  1  0  0  0
 84161  1  0  0  0
M  ISO  4   1 100  68 101  82 101  84 100
M  END
> <chiral flag>
0

> <version>
0

> <s_m_source_file>
/data/baiqing/PycharmProjects/Reinvent-master-3.2/result/LINK_invent/BTK/process_docking_weight1_custom_product_contain_oxygen_bond_distance_aromatic_linkinvent_7_9_3/rearranged_h_0116.sdf

> <i_m_source_file_index>
15

> <r_mmod_Potential_Energy-OPLS-2005>
69.0101776123047

> <r_mmod_Stretch_Energy-OPLS-2005>
46.8442687988281

> <r_mmod_Bend_Energy-OPLS-2005>
105.282653808594

> <r_mmod_Torsional_Energy-OPLS-2005>
312.565277099609

> <r_mmod_Improper_Torsional_Energy-OPLS-2005>
7.1815037727356

> <r_mmod_Van_der_Waal_Energy-OPLS-2005>
150.015426635742

> <r_mmod_Electrostatic_Energy-OPLS-2005>
-366.248962402344

> <r_mmod_Solvation_Energy-OPLS-2005>
-205.364044189453

> <b_mmod_Minimization_Converged-OPLS-2005>
0

> <r_mmod_RMS_Derivative-OPLS-2005>
2.7126362323761

$$$$
15
                    3D
 Structure written by MMmdl.
169178  0  0  1  0            999 V2000
  -30.6092  -14.6845   20.5034 C   0  0  0  0  0  0
  -30.4513  -12.4224   19.4508 C   0  0  0  0  0  0
  -29.5191  -12.5294   18.2216 C   0  0  0  0  0  0
  -28.0381  -12.3652   18.6267 C   0  0  0  0  0  0
  -27.6570  -13.2252   19.8619 C   0  0  2  0  0  0
  -28.7068  -13.0704   20.9872 C   0  0  0  0  0  0
  -25.2570  -13.8184   20.5675 C   0  0  0  0  0  0
  -24.1831  -13.0452   20.9161 C   0  0  0  0  0  0
  -24.6402  -11.6928   20.8724 C   0  0  0  0  0  0
  -23.9054  -10.4319   21.0397 C   0  0  0  0  0  0
  -24.3620   -9.4237   21.9186 C   0  0  0  0  0  0
  -23.6311   -8.2260   22.0760 C   0  0  0  0  0  0
  -22.4287   -8.0287   21.3540 C   0  0  0  0  0  0
  -21.9895   -9.0243   20.4636 C   0  0  0  0  0  0
  -22.7221  -10.2141   20.3046 C   0  0  0  0  0  0
  -21.6837   -6.0737   22.5274 C   0  0  0  0  0  0
  -21.4018   -6.5642   23.8208 C   0  0  0  0  0  0
  -21.3671   -5.6795   24.9169 C   0  0  0  0  0  0
  -21.6016   -4.3049   24.7209 C   0  0  0  0  0  0
  -21.8825   -3.8143   23.4334 C   0  0  0  0  0  0
  -21.9195   -4.6967   22.3394 C   0  0  0  0  0  0
  -22.7847  -13.5245   21.1812 C   0  0  0  0  0  0
  -22.1662   -4.2166   21.0968 F   0  0  0  0  0  0
  -21.5626   -3.4523   25.7716 F   0  0  0  0  0  0
  -30.0211  -13.4425   20.4280 N   0  0  0  0  0  0
  -26.3016  -12.9382   20.3308 N   0  0  0  0  0  0
  -25.9335  -11.6529   20.5708 N   0  0  0  0  0  0
  -22.0454  -12.8272   22.0370 N   0  0  0  0  0  0
  -25.4258  -15.1911   20.4162 N   0  0  0  0  0  0
  -31.7556  -14.8784   20.0879 O   0  0  0  0  0  0
  -21.6635   -6.8891   21.4245 O   0  0  0  0  0  0
  -22.3539  -14.5534   20.6628 O   0  0  0  0  0  0
  -24.6343  -31.8543   23.2022 C   0  0  0  0  0  0
  -25.9170  -32.4743   23.8366 C   0  0  1  0  0  0
  -27.2400  -27.2946   20.1010 C   0  0  0  0  0  0
  -25.5969  -33.8549   24.2308 N   0  0  0  0  0  0
  -23.4284  -30.4824   21.5421 C   0  0  2  0  0  0
  -24.8746  -28.9307   20.1140 C   0  0  0  0  0  0
  -22.7525  -29.4623   22.4899 C   0  0  0  0  0  0
  -18.0298  -28.1411   22.8501 C   0  0  0  0  0  0
  -24.1447  -36.7248   23.2642 C   0  0  0  0  0  0
  -25.9747  -30.7791   21.3719 C   0  0  0  0  0  0
  -26.0495  -29.4024   20.7157 C   0  0  0  0  0  0
  -27.2313  -28.5947   20.7053 C   0  0  0  0  0  0
  -26.0254  -26.8700   19.5096 C   0  0  0  0  0  0
  -24.8653  -27.6677   19.5060 C   0  0  0  0  0  0
  -23.6449  -29.8172   20.1583 C   0  0  0  0  0  0
  -25.4080  -36.3072   24.0351 C   0  0  1  0  0  0
  -20.5905  -28.3714   23.1269 C   0  0  2  0  0  0
  -20.6756  -26.9421   22.5407 C   0  0  0  0  0  0
  -19.5718  -26.6405   21.5208 C   0  0  0  0  0  0
  -18.1912  -26.7950   22.1638 C   0  0  0  0  0  0
  -19.1560  -28.8869   23.2874 C   0  0  0  0  0  0
  -18.9467  -30.1469   23.8910 C   0  0  0  0  0  0
  -17.6468  -30.6586   24.0577 C   0  0  0  0  0  0
  -25.9050  -34.9447   23.5122 C   0  0  0  0  0  0
  -16.5359  -29.9099   23.6340 C   0  0  0  0  0  0
  -16.7290  -28.6516   23.0368 C   0  0  0  0  0  0
  -26.4543  -31.6570   25.0742 C   0  0  0  0  0  0
  -25.3791  -31.3712   26.1485 C   0  0  0  0  0  0
  -27.0369  -30.3003   24.6165 C   0  0  0  0  0  0
  -27.6104  -32.4300   25.7514 C   0  0  0  0  0  0
  -27.5556  -37.1770   24.8489 C   0  0  0  0  0  0
  -21.4224  -29.3081   22.3674 N   0  0  0  0  0  0
  -26.4254  -37.3781   23.9465 N   0  0  0  0  0  0
  -24.6993  -31.0557   22.0963 N   0  0  0  0  0  0
  -23.4227  -28.8161   23.2975 O   0  0  0  0  0  0
  -28.3410  -26.4026   20.1304 O   0  0  0  0  0  0
  -26.5594  -34.8944   22.4681 O   0  0  0  0  0  0
  -23.5492  -32.1354   23.7307 O   0  0  0  0  0  0
  -30.3594  -18.1788   20.2444 C   0  0  0  0  0  0
  -29.4250  -19.9678   21.6241 C   0  0  0  0  0  0
  -29.0841  -17.6160   22.2208 C   0  0  0  0  0  0
  -30.1446  -19.6056   20.4667 C   0  0  0  0  0  0
  -29.8231  -17.1539   21.1075 C   0  0  0  0  0  0
  -28.8979  -18.9909   22.4896 C   0  0  0  0  0  0
  -28.8234  -24.0826   19.0683 C   0  0  0  0  0  0
  -28.4245  -25.4114   19.1345 C   0  0  0  0  0  0
  -30.7683  -20.6769   19.5407 C   0  0  0  0  0  0
  -28.7210  -23.4243   17.7008 C   0  0  0  0  0  0
  -29.4505  -23.0166   20.0646 C   0  0  0  0  0  0
  -30.1273  -23.1109   17.1689 C   0  0  0  0  0  0
  -31.1096  -22.7964   18.3204 C   0  0  0  0  0  0
  -26.8114  -17.0497   25.0461 C   0  0  0  0  0  0
  -27.3470  -18.3701   25.6124 C   0  0  0  0  0  0
  -28.5583  -18.9243   24.8446 C   0  0  0  0  0  0
  -30.4164  -22.0325   19.3926 N   0  0  0  0  0  0
  -29.7748  -15.6936   20.9184 N   0  0  0  0  0  0
  -31.6708  -20.2156   18.8294 O   0  0  0  0  0  0
  -28.1610  -19.4206   23.5690 O   0  0  0  0  0  0
  -31.4906  -12.5579   19.1484 H   0  0  0  0  0  0
  -30.3939  -11.4276   19.8931 H   0  0  0  0  0  0
  -29.7961  -11.7834   17.4732 H   0  0  0  0  0  0
  -29.6550  -13.5027   17.7466 H   0  0  0  0  0  0
  -27.8625  -11.3119   18.8407 H   0  0  0  0  0  0
  -27.3901  -12.6078   17.7845 H   0  0  0  0  0  0
  -27.6727  -14.2649   19.5339 H   0  0  0  0  0  0
  -28.7247  -12.0373   21.3393 H   0  0  0  0  0  0
  -28.4418  -13.6751   21.8568 H   0  0  0  0  0  0
  -25.2774   -9.5704   22.4761 H   0  0  0  0  0  0
  -23.9998   -7.4644   22.7497 H   0  0  0  0  0  0
  -21.0804   -8.8741   19.8961 H   0  0  0  0  0  0
  -22.3660  -10.9662   19.6138 H   0  0  0  0  0  0
  -21.2032   -7.6156   23.9718 H   0  0  0  0  0  0
  -21.1478   -6.0519   25.9069 H   0  0  0  0  0  0
  -22.0607   -2.7605   23.2804 H   0  0  0  0  0  0
  -22.4022  -11.9971   22.4852 H   0  0  0  0  0  0
  -21.1057  -13.1317   22.2501 H   0  0  0  0  0  0
  -24.6554  -15.8428   20.5313 H   0  0  0  0  0  0
  -26.2770  -15.6360   20.0964 H   0  0  0  0  0  0
  -26.7244  -32.5423   23.1129 H   0  0  0  0  0  0
  -25.0166  -33.9673   25.0486 H   0  0  0  0  0  0
  -22.7254  -31.3051   21.3988 H   0  0  0  0  0  0
  -23.3720  -35.9558   23.3310 H   0  0  0  0  0  0
  -24.3538  -36.8841   22.2053 H   0  0  0  0  0  0
  -23.7184  -37.6456   23.6634 H   0  0  0  0  0  0
  -26.1049  -31.5344   20.5948 H   0  0  0  0  0  0
  -26.8591  -30.8345   21.9970 H   0  0  0  0  0  0
  -28.1300  -28.9558   21.1856 H   0  0  0  0  0  0
  -25.9436  -25.8878   19.0662 H   0  0  0  0  0  0
  -23.9659  -27.2873   19.0446 H   0  0  0  0  0  0
  -23.7761  -30.5963   19.4064 H   0  0  0  0  0  0
  -22.7624  -29.2541   19.8457 H   0  0  0  0  0  0
  -25.1235  -36.1901   25.0830 H   0  0  0  0  0  0
  -21.0013  -28.3266   24.1380 H   0  0  0  0  0  0
  -20.5603  -26.2326   23.3618 H   0  0  0  0  0  0
  -21.6622  -26.7390   22.1221 H   0  0  0  0  0  0
  -19.6856  -25.6316   21.1221 H   0  0  0  0  0  0
  -19.6638  -27.3229   20.6743 H   0  0  0  0  0  0
  -17.4171  -26.6720   21.4052 H   0  0  0  0  0  0
  -18.0304  -26.0087   22.9031 H   0  0  0  0  0  0
  -19.7946  -30.7280   24.2276 H   0  0  0  0  0  0
  -17.5032  -31.6273   24.5176 H   0  0  0  0  0  0
  -15.5366  -30.3012   23.7651 H   0  0  0  0  0  0
  -15.8695  -28.0843   22.7094 H   0  0  0  0  0  0
  -24.5996  -30.6990   25.7893 H   0  0  0  0  0  0
  -24.8928  -32.2847   26.4896 H   0  0  0  0  0  0
  -25.8157  -30.8976   27.0280 H   0  0  0  0  0  0
  -26.2921  -29.6771   24.1192 H   0  0  0  0  0  0
  -27.4109  -29.7252   25.4646 H   0  0  0  0  0  0
  -27.8788  -30.4326   23.9364 H   0  0  0  0  0  0
  -27.2723  -33.3618   26.2065 H   0  0  0  0  0  0
  -28.3936  -32.6810   25.0350 H   0  0  0  0  0  0
  -28.0735  -31.8423   26.5452 H   0  0  0  0  0  0
  -28.2584  -38.0052   24.7535 H   0  0  0  0  0  0
  -28.1021  -36.2598   24.6268 H   0  0  0  0  0  0
  -27.2292  -37.1380   25.8893 H   0  0  0  0  0  0
  -20.9404  -29.8851   21.6938 H   0  0  0  0  0  0
  -26.0111  -38.2833   24.1512 H   0  0  0  0  0  0
  -30.9221  -17.8621   19.3784 H   0  0  0  0  0  0
  -29.2858  -21.0049   21.8837 H   0  0  0  0  0  0
  -28.6306  -16.8939   22.8834 H   0  0  0  0  0  0
  -28.0841  -25.8544   18.2063 H   0  0  0  0  0  0
  -28.1616  -24.0229   16.9823 H   0  0  0  0  0  0
  -28.1521  -22.5000   17.8132 H   0  0  0  0  0  0
  -28.6218  -22.4594   20.4928 H   0  0  0  0  0  0
  -29.9562  -23.5292   20.8820 H   0  0  0  0  0  0
  -30.4997  -23.9685   16.6062 H   0  0  0  0  0  0
  -30.0751  -22.2843   16.4578 H   0  0  0  0  0  0
  -31.4757  -23.7305   18.7545 H   0  0  0  0  0  0
  -32.0108  -22.3397   17.9050 H   0  0  0  0  0  0
  -25.9732  -16.6875   25.6432 H   0  0  0  0  0  0
  -27.5768  -16.2729   25.0574 H   0  0  0  0  0  0
  -26.4660  -17.1718   24.0192 H   0  0  0  0  0  0
  -27.6338  -18.2069   26.6517 H   0  0  0  0  0  0
  -26.5468  -19.1119   25.6347 H   0  0  0  0  0  0
  -29.3585  -18.1835   24.7922 H   0  0  0  0  0  0
  -28.9680  -19.7698   25.3991 H   0  0  0  0  0  0
  -28.9194  -15.2877   21.2639 H   0  0  0  0  0  0
  1 25  1  0  0  0
  1 30  2  0  0  0
  1 88  1  0  0  0
  2  3  1  0  0  0
  2 25  1  0  0  0
  2 91  1  0  0  0
  2 92  1  0  0  0
  3  4  1  0  0  0
  3 93  1  0  0  0
  3 94  1  0  0  0
  4  5  1  0  0  0
  4 95  1  0  0  0
  4 96  1  0  0  0
  5  6  1  0  0  0
  5 26  1  0  0  0
  5 97  1  0  0  0
  6 25  1  0  0  0
  6 98  1  0  0  0
  6 99  1  0  0  0
  7  8  2  0  0  0
  7 26  1  0  0  0
  7 29  1  0  0  0
  8  9  1  0  0  0
  8 22  1  0  0  0
  9 10  1  0  0  0
  9 27  2  0  0  0
 10 11  2  0  0  0
 10 15  1  0  0  0
 11 12  1  0  0  0
 11100  1  0  0  0
 12 13  2  0  0  0
 12101  1  0  0  0
 13 14  1  0  0  0
 13 31  1  0  0  0
 14 15  2  0  0  0
 14102  1  0  0  0
 15103  1  0  0  0
 16 17  2  0  0  0
 16 21  1  0  0  0
 16 31  1  0  0  0
 17 18  1  0  0  0
 17104  1  0  0  0
 18 19  2  0  0  0
 18105  1  0  0  0
 19 20  1  0  0  0
 19 24  1  0  0  0
 20 21  2  0  0  0
 20106  1  0  0  0
 21 23  1  0  0  0
 22 28  1  0  0  0
 22 32  2  0  0  0
 26 27  1  0  0  0
 28107  1  0  0  0
 28108  1  0  0  0
 29109  1  0  0  0
 29110  1  0  0  0
 33 34  1  0  0  0
 33 66  1  0  0  0
 33 70  2  0  0  0
 34 36  1  0  0  0
 34 59  1  0  0  0
 34111  1  0  0  0
 35 44  2  0  0  0
 35 45  1  0  0  0
 35 68  1  0  0  0
 36 56  1  0  0  0
 36112  1  0  0  0
 37 39  1  0  0  0
 37 47  1  0  0  0
 37 66  1  0  0  0
 37113  1  0  0  0
 38 43  2  0  0  0
 38 46  1  0  0  0
 38 47  1  0  0  0
 39 64  1  0  0  0
 39 67  2  0  0  0
 40 52  1  0  0  0
 40 53  2  0  0  0
 40 58  1  0  0  0
 41114  1  0  0  0
 41115  1  0  0  0
 41116  1  0  0  0
 41 48  1  0  0  0
 42 43  1  0  0  0
 42 66  1  0  0  0
 42117  1  0  0  0
 42118  1  0  0  0
 43 44  1  0  0  0
 44119  1  0  0  0
 45 46  2  0  0  0
 45120  1  0  0  0
 46121  1  0  0  0
 47122  1  0  0  0
 47123  1  0  0  0
 48 56  1  0  0  0
 48 65  1  0  0  0
 48124  1  0  0  0
 49 50  1  0  0  0
 49 53  1  0  0  0
 49 64  1  0  0  0
 49125  1  0  0  0
 50 51  1  0  0  0
 50126  1  0  0  0
 50127  1  0  0  0
 51 52  1  0  0  0
 51128  1  0  0  0
 51129  1  0  0  0
 52130  1  0  0  0
 52131  1  0  0  0
 53 54  1  0  0  0
 54 55  2  0  0  0
 54132  1  0  0  0
 55 57  1  0  0  0
 55133  1  0  0  0
 56 69  2  0  0  0
 57 58  2  0  0  0
 57134  1  0  0  0
 58135  1  0  0  0
 59 60  1  0  0  0
 59 61  1  0  0  0
 59 62  1  0  0  0
 60136  1  0  0  0
 60137  1  0  0  0
 60138  1  0  0  0
 61139  1  0  0  0
 61140  1  0  0  0
 61141  1  0  0  0
 62142  1  0  0  0
 62143  1  0  0  0
 62144  1  0  0  0
 63 65  1  0  0  0
 63145  1  0  0  0
 63146  1  0  0  0
 63147  1  0  0  0
 64148  1  0  0  0
 65149  1  0  0  0
 68 78  1  0  0  0
 71 74  2  0  0  0
 71 75  1  0  0  0
 71150  1  0  0  0
 72 74  1  0  0  0
 72 76  2  0  0  0
 72151  1  0  0  0
 73 75  2  0  0  0
 73 76  1  0  0  0
 73152  1  0  0  0
 74 79  1  0  0  0
 75 88  1  0  0  0
 76 90  1  0  0  0
 77 78  2  0  0  0
 77 80  1  0  0  0
 77 81  1  0  0  0
 78153  1  0  0  0
 79 87  1  0  0  0
 79 89  2  0  0  0
 80 82  1  0  0  0
 80154  1  0  0  0
 80155  1  0  0  0
 81 87  1  0  0  0
 81156  1  0  0  0
 81157  1  0  0  0
 82 83  1  0  0  0
 82158  1  0  0  0
 82159  1  0  0  0
 83 87  1  0  0  0
 83160  1  0  0  0
 83161  1  0  0  0
 84 85  1  0  0  0
 84162  1  0  0  0
 84163  1  0  0  0
 84164  1  0  0  0
 85 86  1  0  0  0
 85165  1  0  0  0
 85166  1  0  0  0
 86 90  1  0  0  0
 86167  1  0  0  0
 86168  1  0  0  0
 88169  1  0  0  0
M  ISO  4   1 100  68 101  78 101  88 100
M  END
> <chiral flag>
0

> <version>
0

> <s_m_source_file>
/data/baiqing/PycharmProjects/Reinvent-master-3.2/result/LINK_invent/BTK/process_docking_weight1_custom_product_contain_oxygen_bond_distance_aromatic_linkinvent_7_9_3/rearranged_h_0116.sdf

> <i_m_source_file_index>
16

> <r_mmod_Potential_Energy-OPLS-2005>
302.160430908203

> <r_mmod_Stretch_Energy-OPLS-2005>
113.732666015625

> <r_mmod_Bend_Energy-OPLS-2005>
254.521255493164

> <r_mmod_Torsional_Energy-OPLS-2005>
291.162750244141

> <r_mmod_Improper_Torsional_Energy-OPLS-2005>
5.01817083358765

> <r_mmod_Van_der_Waal_Energy-OPLS-2005>
171.099319458008

> <r_mmod_Electrostatic_Energy-OPLS-2005>
-366.837768554688

> <r_mmod_Solvation_Energy-OPLS-2005>
-229.416397094727

> <b_mmod_Minimization_Converged-OPLS-2005>
0

> <r_mmod_RMS_Derivative-OPLS-2005>
4.57215547561646

$$$$
16
                    3D
 Structure written by MMmdl.
159167  0  0  1  0            999 V2000
  -30.7044  -14.4939   20.5845 C   0  0  0  0  0  0
  -30.4228  -12.3246   19.4385 C   0  0  0  0  0  0
  -29.5012  -12.5173   18.2149 C   0  0  0  0  0  0
  -28.0191  -12.3751   18.6153 C   0  0  0  0  0  0
  -27.6598  -13.2079   19.8742 C   0  0  2  0  0  0
  -28.6946  -12.9784   20.9957 C   0  0  0  0  0  0
  -25.2581  -13.8160   20.5664 C   0  0  0  0  0  0
  -24.1835  -13.0435   20.9160 C   0  0  0  0  0  0
  -24.6388  -11.6902   20.8716 C   0  0  0  0  0  0
  -23.9057  -10.4289   21.0397 C   0  0  0  0  0  0
  -24.3610   -9.4210   21.9179 C   0  0  0  0  0  0
  -23.6286   -8.2244   22.0754 C   0  0  0  0  0  0
  -22.4271   -8.0279   21.3543 C   0  0  0  0  0  0
  -21.9903   -9.0250   20.4645 C   0  0  0  0  0  0
  -22.7228  -10.2130   20.3050 C   0  0  0  0  0  0
  -21.6855   -6.0734   22.5277 C   0  0  0  0  0  0
  -21.4014   -6.5638   23.8210 C   0  0  0  0  0  0
  -21.3659   -5.6792   24.9173 C   0  0  0  0  0  0
  -21.6046   -4.3055   24.7225 C   0  0  0  0  0  0
  -21.8819   -3.8145   23.4345 C   0  0  0  0  0  0
  -21.9192   -4.6961   22.3401 C   0  0  0  0  0  0
  -22.7861  -13.5235   21.1838 C   0  0  0  0  0  0
  -22.1662   -4.2148   21.0979 F   0  0  0  0  0  0
  -21.5630   -3.4537   25.7738 F   0  0  0  0  0  0
  -30.0285  -13.3091   20.4641 N   0  0  0  0  0  0
  -26.3009  -12.9328   20.3330 N   0  0  0  0  0  0
  -25.9310  -11.6485   20.5723 N   0  0  0  0  0  0
  -22.0510  -12.8225   22.0399 N   0  0  0  0  0  0
  -25.4307  -15.1879   20.4090 N   0  0  0  0  0  0
  -31.8079  -14.6827   20.0603 O   0  0  0  0  0  0
  -21.6636   -6.8876   21.4240 O   0  0  0  0  0  0
  -22.3545  -14.5544   20.6694 O   0  0  0  0  0  0
  -24.6176  -31.8661   23.2087 C   0  0  0  0  0  0
  -25.9057  -32.4814   23.8389 C   0  0  1  0  0  0
  -27.2288  -27.4056   20.0996 C   0  0  0  0  0  0
  -25.5902  -33.8615   24.2315 N   0  0  0  0  0  0
  -23.4063  -30.4910   21.5504 C   0  0  2  0  0  0
  -24.8504  -28.9544   20.1150 C   0  0  0  0  0  0
  -22.7422  -29.4655   22.4982 C   0  0  0  0  0  0
  -18.0270  -28.1380   22.8493 C   0  0  0  0  0  0
  -24.1484  -36.7316   23.2639 C   0  0  0  0  0  0
  -25.9387  -30.8245   21.3644 C   0  0  0  0  0  0
  -26.0148  -29.4580   20.7084 C   0  0  0  0  0  0
  -27.2084  -28.6943   20.6906 C   0  0  0  0  0  0
  -26.0422  -26.9261   19.4980 C   0  0  0  0  0  0
  -24.8608  -27.6894   19.5055 C   0  0  0  0  0  0
  -23.6147  -29.8247   20.1649 C   0  0  0  0  0  0
  -25.4108  -36.3110   24.0333 C   0  0  1  0  0  0
  -20.5865  -28.3671   23.1314 C   0  0  2  0  0  0
  -20.6758  -26.9402   22.5422 C   0  0  0  0  0  0
  -19.5736  -26.6385   21.5217 C   0  0  0  0  0  0
  -18.1914  -26.7926   22.1628 C   0  0  0  0  0  0
  -19.1522  -28.8841   23.2899 C   0  0  0  0  0  0
  -18.9452  -30.1448   23.8904 C   0  0  0  0  0  0
  -17.6453  -30.6584   24.0571 C   0  0  0  0  0  0
  -25.9039  -34.9475   23.5123 C   0  0  0  0  0  0
  -16.5343  -29.9089   23.6329 C   0  0  0  0  0  0
  -16.7260  -28.6509   23.0345 C   0  0  0  0  0  0
  -26.4473  -31.6602   25.0733 C   0  0  0  0  0  0
  -25.3728  -31.3705   26.1473 C   0  0  0  0  0  0
  -27.0319  -30.3043   24.6133 C   0  0  0  0  0  0
  -27.6043  -32.4325   25.7496 C   0  0  0  0  0  0
  -27.5579  -37.1812   24.8464 C   0  0  0  0  0  0
  -21.4146  -29.3038   22.3720 N   0  0  0  0  0  0
  -26.4292  -37.3799   23.9407 N   0  0  0  0  0  0
  -24.6729  -31.0748   22.0995 N   0  0  0  0  0  0
  -23.4184  -28.8192   23.3029 O   0  0  0  0  0  0
  -28.3857  -26.6417   20.1204 O   0  0  0  0  0  0
  -26.5608  -34.8927   22.4690 O   0  0  0  0  0  0
  -23.5364  -32.1420   23.7470 O   0  0  0  0  0  0
  -29.4462  -16.8349   19.1078 C   0  0  0  0  0  0
  -29.1998  -19.2567   18.9562 C   0  0  0  0  0  0
  -29.7671  -18.2150   21.0774 C   0  0  0  0  0  0
  -29.1706  -17.9882   18.3383 C   0  0  0  0  0  0
  -29.7600  -16.9178   20.4856 C   0  0  0  0  0  0
  -29.4918  -19.3936   20.3332 C   0  0  0  0  0  0
  -28.6257  -16.7858   16.1932 C   0  0  0  0  0  0
  -28.8215  -17.9075   16.9084 C   0  0  0  0  0  0
  -30.0087  -15.6706   21.3040 C   0  0  0  0  0  0
  -29.5421  -24.4882   20.5882 C   0  0  0  0  0  0
  -29.4300  -23.0597   21.2112 C   0  0  0  0  0  0
  -28.2185  -25.2069   20.2215 C   0  0  0  0  0  0
  -29.3208  -21.8432   20.2523 C   0  0  0  0  0  0
  -29.7090  -15.6298   22.5369 N   0  0  0  0  0  0
  -29.5094  -20.6183   20.9921 O   0  0  0  0  0  0
  -31.4685  -12.4207   19.1416 H   0  0  0  0  0  0
  -30.3248  -11.3121   19.8334 H   0  0  0  0  0  0
  -29.7485  -11.7913   17.4396 H   0  0  0  0  0  0
  -29.6727  -13.5013   17.7760 H   0  0  0  0  0  0
  -27.8266  -11.3185   18.8039 H   0  0  0  0  0  0
  -27.3746  -12.6565   17.7817 H   0  0  0  0  0  0
  -27.7045  -14.2581   19.5866 H   0  0  0  0  0  0
  -28.6788  -11.9340   21.3109 H   0  0  0  0  0  0
  -28.4241  -13.5394   21.8877 H   0  0  0  0  0  0
  -25.2759   -9.5686   22.4749 H   0  0  0  0  0  0
  -23.9999   -7.4638   22.7475 H   0  0  0  0  0  0
  -21.0836   -8.8766   19.8950 H   0  0  0  0  0  0
  -22.3688  -10.9667   19.6155 H   0  0  0  0  0  0
  -21.2007   -7.6147   23.9712 H   0  0  0  0  0  0
  -21.1484   -6.0523   25.9076 H   0  0  0  0  0  0
  -22.0600   -2.7608   23.2846 H   0  0  0  0  0  0
  -22.4125  -11.9880   22.4776 H   0  0  0  0  0  0
  -21.1133  -13.1255   22.2615 H   0  0  0  0  0  0
  -24.6667  -15.8449   20.5231 H   0  0  0  0  0  0
  -26.2893  -15.6296   20.1063 H   0  0  0  0  0  0
  -26.7132  -32.5515   23.1154 H   0  0  0  0  0  0
  -25.0032  -33.9775   25.0444 H   0  0  0  0  0  0
  -22.6958  -31.3088   21.4120 H   0  0  0  0  0  0
  -23.3746  -35.9651   23.3310 H   0  0  0  0  0  0
  -24.3569  -36.8933   22.2053 H   0  0  0  0  0  0
  -23.7242  -37.6522   23.6658 H   0  0  0  0  0  0
  -26.0551  -31.5907   20.5969 H   0  0  0  0  0  0
  -26.8251  -30.8756   21.9852 H   0  0  0  0  0  0
  -28.1071  -29.0798   21.1515 H   0  0  0  0  0  0
  -26.0097  -25.9609   19.0152 H   0  0  0  0  0  0
  -23.9659  -27.2963   19.0429 H   0  0  0  0  0  0
  -23.7254  -30.6004   19.4063 H   0  0  0  0  0  0
  -22.7369  -29.2478   19.8683 H   0  0  0  0  0  0
  -25.1287  -36.1974   25.0828 H   0  0  0  0  0  0
  -20.9951  -28.3241   24.1437 H   0  0  0  0  0  0
  -20.5660  -26.2279   23.3613 H   0  0  0  0  0  0
  -21.6631  -26.7440   22.1222 H   0  0  0  0  0  0
  -19.6897  -25.6304   21.1233 H   0  0  0  0  0  0
  -19.6671  -27.3208   20.6759 H   0  0  0  0  0  0
  -17.4187  -26.6680   21.4025 H   0  0  0  0  0  0
  -18.0301  -26.0062   22.9018 H   0  0  0  0  0  0
  -19.7930  -30.7264   24.2266 H   0  0  0  0  0  0
  -17.5013  -31.6259   24.5183 H   0  0  0  0  0  0
  -15.5346  -30.2998   23.7648 H   0  0  0  0  0  0
  -15.8659  -28.0840   22.7043 H   0  0  0  0  0  0
  -24.5925  -30.7020   25.7812 H   0  0  0  0  0  0
  -24.8881  -32.2851   26.4897 H   0  0  0  0  0  0
  -25.8080  -30.8904   27.0246 H   0  0  0  0  0  0
  -26.2882  -29.6792   24.1177 H   0  0  0  0  0  0
  -27.4071  -29.7294   25.4610 H   0  0  0  0  0  0
  -27.8719  -30.4362   23.9309 H   0  0  0  0  0  0
  -27.2665  -33.3618   26.2095 H   0  0  0  0  0  0
  -28.3841  -32.6896   25.0314 H   0  0  0  0  0  0
  -28.0727  -31.8437   26.5393 H   0  0  0  0  0  0
  -28.2607  -38.0101   24.7513 H   0  0  0  0  0  0
  -28.1067  -36.2635   24.6294 H   0  0  0  0  0  0
  -27.2293  -37.1472   25.8866 H   0  0  0  0  0  0
  -20.9301  -29.8777   21.6960 H   0  0  0  0  0  0
  -26.0181  -38.2877   24.1417 H   0  0  0  0  0  0
  -29.4094  -15.8664   18.6345 H   0  0  0  0  0  0
  -28.9785  -20.1240   18.3517 H   0  0  0  0  0  0
  -29.9908  -18.3160   22.1301 H   0  0  0  0  0  0
  -28.3747  -16.8472   15.1436 H   0  0  0  0  0  0
  -28.7038  -15.7954   16.6157 H   0  0  0  0  0  0
  -28.7192  -18.8520   16.3910 H   0  0  0  0  0  0
  -30.2117  -24.4765   19.7276 H   0  0  0  0  0  0
  -30.0399  -25.1133   21.3304 H   0  0  0  0  0  0
  -28.6124  -23.0335   21.9321 H   0  0  0  0  0  0
  -30.3337  -22.9060   21.8025 H   0  0  0  0  0  0
  -27.4728  -24.9921   20.9892 H   0  0  0  0  0  0
  -27.8467  -24.7943   19.2829 H   0  0  0  0  0  0
  -30.0856  -21.9192   19.4782 H   0  0  0  0  0  0
  -28.3459  -21.8480   19.7625 H   0  0  0  0  0  0
  -29.2773  -16.4959   22.8344 H   0  0  0  0  0  0
  1 25  1  0  0  0
  1 30  2  0  0  0
  1 79  1  0  0  0
  2  3  1  0  0  0
  2 25  1  0  0  0
  2 86  1  0  0  0
  2 87  1  0  0  0
  3  4  1  0  0  0
  3 88  1  0  0  0
  3 89  1  0  0  0
  4  5  1  0  0  0
  4 90  1  0  0  0
  4 91  1  0  0  0
  5  6  1  0  0  0
  5 26  1  0  0  0
  5 92  1  0  0  0
  6 25  1  0  0  0
  6 93  1  0  0  0
  6 94  1  0  0  0
  7  8  2  0  0  0
  7 26  1  0  0  0
  7 29  1  0  0  0
  8  9  1  0  0  0
  8 22  1  0  0  0
  9 10  1  0  0  0
  9 27  2  0  0  0
 10 11  2  0  0  0
 10 15  1  0  0  0
 11 12  1  0  0  0
 11 95  1  0  0  0
 12 13  2  0  0  0
 12 96  1  0  0  0
 13 14  1  0  0  0
 13 31  1  0  0  0
 14 15  2  0  0  0
 14 97  1  0  0  0
 15 98  1  0  0  0
 16 17  2  0  0  0
 16 21  1  0  0  0
 16 31  1  0  0  0
 17 18  1  0  0  0
 17 99  1  0  0  0
 18 19  2  0  0  0
 18100  1  0  0  0
 19 20  1  0  0  0
 19 24  1  0  0  0
 20 21  2  0  0  0
 20101  1  0  0  0
 21 23  1  0  0  0
 22 28  1  0  0  0
 22 32  2  0  0  0
 26 27  1  0  0  0
 28102  1  0  0  0
 28103  1  0  0  0
 29104  1  0  0  0
 29105  1  0  0  0
 33 34  1  0  0  0
 33 66  1  0  0  0
 33 70  2  0  0  0
 34 36  1  0  0  0
 34 59  1  0  0  0
 34106  1  0  0  0
 35 44  2  0  0  0
 35 45  1  0  0  0
 35 68  1  0  0  0
 36 56  1  0  0  0
 36107  1  0  0  0
 37 39  1  0  0  0
 37 47  1  0  0  0
 37 66  1  0  0  0
 37108  1  0  0  0
 38 43  2  0  0  0
 38 46  1  0  0  0
 38 47  1  0  0  0
 39 64  1  0  0  0
 39 67  2  0  0  0
 40 52  1  0  0  0
 40 53  2  0  0  0
 40 58  1  0  0  0
 41109  1  0  0  0
 41110  1  0  0  0
 41111  1  0  0  0
 41 48  1  0  0  0
 42 43  1  0  0  0
 42 66  1  0  0  0
 42112  1  0  0  0
 42113  1  0  0  0
 43 44  1  0  0  0
 44114  1  0  0  0
 45 46  2  0  0  0
 45115  1  0  0  0
 46116  1  0  0  0
 47117  1  0  0  0
 47118  1  0  0  0
 48 56  1  0  0  0
 48 65  1  0  0  0
 48119  1  0  0  0
 49 50  1  0  0  0
 49 53  1  0  0  0
 49 64  1  0  0  0
 49120  1  0  0  0
 50 51  1  0  0  0
 50121  1  0  0  0
 50122  1  0  0  0
 51 52  1  0  0  0
 51123  1  0  0  0
 51124  1  0  0  0
 52125  1  0  0  0
 52126  1  0  0  0
 53 54  1  0  0  0
 54 55  2  0  0  0
 54127  1  0  0  0
 55 57  1  0  0  0
 55128  1  0  0  0
 56 69  2  0  0  0
 57 58  2  0  0  0
 57129  1  0  0  0
 58130  1  0  0  0
 59 60  1  0  0  0
 59 61  1  0  0  0
 59 62  1  0  0  0
 60131  1  0  0  0
 60132  1  0  0  0
 60133  1  0  0  0
 61134  1  0  0  0
 61135  1  0  0  0
 61136  1  0  0  0
 62137  1  0  0  0
 62138  1  0  0  0
 62139  1  0  0  0
 63 65  1  0  0  0
 63140  1  0  0  0
 63141  1  0  0  0
 63142  1  0  0  0
 64143  1  0  0  0
 65144  1  0  0  0
 68 82  1  0  0  0
 71 74  2  0  0  0
 71 75  1  0  0  0
 71145  1  0  0  0
 72 74  1  0  0  0
 72 76  2  0  0  0
 72146  1  0  0  0
 73 75  2  0  0  0
 73 76  1  0  0  0
 73147  1  0  0  0
 74 78  1  0  0  0
 75 79  1  0  0  0
 76 85  1  0  0  0
 77 78  2  0  0  0
 77148  1  0  0  0
 77149  1  0  0  0
 78150  1  0  0  0
 79 84  2  0  0  0
 80 81  1  0  0  0
 80 82  1  0  0  0
 80151  1  0  0  0
 80152  1  0  0  0
 81 83  1  0  0  0
 81153  1  0  0  0
 81154  1  0  0  0
 82155  1  0  0  0
 82156  1  0  0  0
 83 85  1  0  0  0
 83157  1  0  0  0
 83158  1  0  0  0
 84159  1  0  0  0
M  ISO  4   1 100  68 101  79 100  82 101
M  END
> <chiral flag>
0

> <version>
0

> <s_m_source_file>
/data/baiqing/PycharmProjects/Reinvent-master-3.2/result/LINK_invent/BTK/process_docking_weight1_custom_product_contain_oxygen_bond_distance_aromatic_linkinvent_7_9_3/rearranged_h_0116.sdf

> <i_m_source_file_index>
17

> <r_mmod_Potential_Energy-OPLS-2005>
110.617897033691

> <r_mmod_Stretch_Energy-OPLS-2005>
50.1344718933105

> <r_mmod_Bend_Energy-OPLS-2005>
112.953979492188

> <r_mmod_Torsional_Energy-OPLS-2005>
218.438354492188

> <r_mmod_Improper_Torsional_Energy-OPLS-2005>
2.91692543029785

> <r_mmod_Van_der_Waal_Energy-OPLS-2005>
155.010284423828

> <r_mmod_Electrostatic_Energy-OPLS-2005>
-243.656921386719

> <r_mmod_Solvation_Energy-OPLS-2005>
-200.726638793945

> <b_mmod_Minimization_Converged-OPLS-2005>
0

> <r_mmod_RMS_Derivative-OPLS-2005>
0.494652092456818

$$$$
17
                    3D
 Structure written by MMmdl.
156164  0  0  1  0            999 V2000
  -30.6803  -14.5009   20.5357 C   0  0  0  0  0  0
  -30.4259  -12.3086   19.4425 C   0  0  0  0  0  0
  -29.5020  -12.4967   18.2193 C   0  0  0  0  0  0
  -28.0205  -12.3698   18.6250 C   0  0  0  0  0  0
  -27.6639  -13.2111   19.8791 C   0  0  2  0  0  0
  -28.7039  -13.0025   21.0048 C   0  0  0  0  0  0
  -25.2604  -13.8171   20.5688 C   0  0  0  0  0  0
  -24.1847  -13.0445   20.9156 C   0  0  0  0  0  0
  -24.6397  -11.6910   20.8722 C   0  0  0  0  0  0
  -23.9061  -10.4295   21.0394 C   0  0  0  0  0  0
  -24.3615   -9.4209   21.9172 C   0  0  0  0  0  0
  -23.6282   -8.2246   22.0745 C   0  0  0  0  0  0
  -22.4267   -8.0281   21.3535 C   0  0  0  0  0  0
  -21.9903   -9.0258   20.4645 C   0  0  0  0  0  0
  -22.7234  -10.2136   20.3047 C   0  0  0  0  0  0
  -21.6854   -6.0735   22.5271 C   0  0  0  0  0  0
  -21.4018   -6.5638   23.8204 C   0  0  0  0  0  0
  -21.3660   -5.6789   24.9165 C   0  0  0  0  0  0
  -21.6041   -4.3050   24.7214 C   0  0  0  0  0  0
  -21.8825   -3.8144   23.4334 C   0  0  0  0  0  0
  -21.9197   -4.6963   22.3395 C   0  0  0  0  0  0
  -22.7870  -13.5247   21.1823 C   0  0  0  0  0  0
  -22.1669   -4.2155   21.0967 F   0  0  0  0  0  0
  -21.5626   -3.4529   25.7723 F   0  0  0  0  0  0
  -30.0375  -13.3025   20.4576 N   0  0  0  0  0  0
  -26.3041  -12.9347   20.3381 N   0  0  0  0  0  0
  -25.9331  -11.6503   20.5772 N   0  0  0  0  0  0
  -22.0514  -12.8248   22.0392 N   0  0  0  0  0  0
  -25.4347  -15.1888   20.4128 N   0  0  0  0  0  0
  -31.8096  -14.6857   20.0730 O   0  0  0  0  0  0
  -21.6630   -6.8876   21.4229 O   0  0  0  0  0  0
  -22.3560  -14.5563   20.6682 O   0  0  0  0  0  0
  -24.6165  -31.8671   23.2096 C   0  0  0  0  0  0
  -25.9047  -32.4822   23.8396 C   0  0  1  0  0  0
  -27.2282  -27.4100   20.1089 C   0  0  0  0  0  0
  -25.5900  -33.8620   24.2331 N   0  0  0  0  0  0
  -23.4067  -30.4906   21.5495 C   0  0  2  0  0  0
  -24.8549  -28.9574   20.1114 C   0  0  0  0  0  0
  -22.7423  -29.4653   22.4974 C   0  0  0  0  0  0
  -18.0276  -28.1383   22.8488 C   0  0  0  0  0  0
  -24.1488  -36.7310   23.2640 C   0  0  0  0  0  0
  -25.9382  -30.8265   21.3668 C   0  0  0  0  0  0
  -26.0167  -29.4598   20.7123 C   0  0  0  0  0  0
  -27.2096  -28.6945   20.7062 C   0  0  0  0  0  0
  -26.0540  -26.9395   19.4819 C   0  0  0  0  0  0
  -24.8697  -27.6979   19.4899 C   0  0  0  0  0  0
  -23.6175  -29.8251   20.1633 C   0  0  0  0  0  0
  -25.4109  -36.3114   24.0342 C   0  0  1  0  0  0
  -20.5868  -28.3677   23.1312 C   0  0  2  0  0  0
  -20.6768  -26.9412   22.5420 C   0  0  0  0  0  0
  -19.5748  -26.6390   21.5214 C   0  0  0  0  0  0
  -18.1923  -26.7931   22.1621 C   0  0  0  0  0  0
  -19.1525  -28.8845   23.2897 C   0  0  0  0  0  0
  -18.9451  -30.1447   23.8913 C   0  0  0  0  0  0
  -17.6453  -30.6589   24.0563 C   0  0  0  0  0  0
  -25.9035  -34.9478   23.5134 C   0  0  0  0  0  0
  -16.5345  -29.9090   23.6326 C   0  0  0  0  0  0
  -16.7263  -28.6506   23.0349 C   0  0  0  0  0  0
  -26.4472  -31.6598   25.0722 C   0  0  0  0  0  0
  -25.3741  -31.3702   26.1472 C   0  0  0  0  0  0
  -27.0299  -30.3040   24.6100 C   0  0  0  0  0  0
  -27.6051  -32.4320   25.7480 C   0  0  0  0  0  0
  -27.5586  -37.1811   24.8469 C   0  0  0  0  0  0
  -21.4150  -29.3039   22.3713 N   0  0  0  0  0  0
  -26.4298  -37.3796   23.9413 N   0  0  0  0  0  0
  -24.6720  -31.0758   22.1003 N   0  0  0  0  0  0
  -23.4187  -28.8192   23.3020 O   0  0  0  0  0  0
  -28.3581  -26.6118   20.1374 O   0  0  0  0  0  0
  -26.5589  -34.8928   22.4692 O   0  0  0  0  0  0
  -23.5351  -32.1424   23.7476 O   0  0  0  0  0  0
  -28.9437  -17.7978   18.1918 C   0  0  0  0  0  0
  -29.4070  -16.6698   18.8888 C   0  0  0  0  0  0
  -29.5054  -17.9934   20.9252 C   0  0  0  0  0  0
  -28.7326  -19.0317   18.8469 C   0  0  0  0  0  0
  -29.6616  -16.7377   20.2751 C   0  0  0  0  0  0
  -29.0834  -19.1624   20.2238 C   0  0  0  0  0  0
  -28.0590  -20.1107   18.0721 C   0  0  0  0  0  0
  -29.0604  -24.1674   20.2592 C   0  0  0  0  0  0
  -28.6215  -22.7739   20.8083 C   0  0  0  0  0  0
  -28.1608  -25.3257   20.7764 C   0  0  0  0  0  0
  -29.5462  -21.5619   20.4975 C   0  0  0  0  0  0
  -29.9489  -15.5351   21.0088 N   0  0  0  0  0  0
  -27.8465  -20.0690   16.8558 O   0  0  0  0  0  0
  -28.9272  -20.3375   20.9520 O   0  0  0  0  0  0
  -31.4718  -12.4021   19.1443 H   0  0  0  0  0  0
  -30.3218  -11.3012   19.8487 H   0  0  0  0  0  0
  -29.7397  -11.7591   17.4519 H   0  0  0  0  0  0
  -29.6785  -13.4719   17.7650 H   0  0  0  0  0  0
  -27.8198  -11.3157   18.8177 H   0  0  0  0  0  0
  -27.3773  -12.6516   17.7904 H   0  0  0  0  0  0
  -27.7039  -14.2575   19.5768 H   0  0  0  0  0  0
  -28.6780  -11.9722   21.3620 H   0  0  0  0  0  0
  -28.4662  -13.6171   21.8732 H   0  0  0  0  0  0
  -25.2754   -9.5690   22.4752 H   0  0  0  0  0  0
  -23.9991   -7.4641   22.7467 H   0  0  0  0  0  0
  -21.0833   -8.8788   19.8960 H   0  0  0  0  0  0
  -22.3687  -10.9678   19.6167 H   0  0  0  0  0  0
  -21.2022   -7.6149   23.9712 H   0  0  0  0  0  0
  -21.1472   -6.0511   25.9068 H   0  0  0  0  0  0
  -22.0609   -2.7608   23.2820 H   0  0  0  0  0  0
  -22.4121  -11.9898   22.4769 H   0  0  0  0  0  0
  -21.1147  -13.1301   22.2616 H   0  0  0  0  0  0
  -24.6739  -15.8488   20.5276 H   0  0  0  0  0  0
  -26.2992  -15.6277   20.1212 H   0  0  0  0  0  0
  -26.7118  -32.5529   23.1162 H   0  0  0  0  0  0
  -25.0076  -33.9786   25.0493 H   0  0  0  0  0  0
  -22.6954  -31.3073   21.4097 H   0  0  0  0  0  0
  -23.3754  -35.9640   23.3316 H   0  0  0  0  0  0
  -24.3579  -36.8905   22.2051 H   0  0  0  0  0  0
  -23.7237  -37.6519   23.6638 H   0  0  0  0  0  0
  -26.0536  -31.5930   20.5992 H   0  0  0  0  0  0
  -26.8247  -30.8798   21.9868 H   0  0  0  0  0  0
  -28.1034  -29.0726   21.1826 H   0  0  0  0  0  0
  -26.0497  -25.9759   18.9925 H   0  0  0  0  0  0
  -23.9793  -27.3081   19.0162 H   0  0  0  0  0  0
  -23.7268  -30.6008   19.4043 H   0  0  0  0  0  0
  -22.7415  -29.2456   19.8664 H   0  0  0  0  0  0
  -25.1286  -36.1985   25.0835 H   0  0  0  0  0  0
  -20.9956  -28.3249   24.1433 H   0  0  0  0  0  0
  -20.5678  -26.2284   23.3607 H   0  0  0  0  0  0
  -21.6638  -26.7457   22.1210 H   0  0  0  0  0  0
  -19.6912  -25.6300   21.1241 H   0  0  0  0  0  0
  -19.6692  -27.3203   20.6744 H   0  0  0  0  0  0
  -17.4196  -26.6678   21.4020 H   0  0  0  0  0  0
  -18.0322  -26.0071   22.9017 H   0  0  0  0  0  0
  -19.7927  -30.7255   24.2297 H   0  0  0  0  0  0
  -17.5012  -31.6271   24.5164 H   0  0  0  0  0  0
  -15.5347  -30.3000   23.7643 H   0  0  0  0  0  0
  -15.8660  -28.0831   22.7063 H   0  0  0  0  0  0
  -24.5920  -30.7041   25.7813 H   0  0  0  0  0  0
  -24.8922  -32.2850   26.4929 H   0  0  0  0  0  0
  -25.8099  -30.8870   27.0225 H   0  0  0  0  0  0
  -26.2837  -29.6808   24.1159 H   0  0  0  0  0  0
  -27.4072  -29.7273   25.4554 H   0  0  0  0  0  0
  -27.8674  -30.4358   23.9247 H   0  0  0  0  0  0
  -27.2676  -33.3619   26.2073 H   0  0  0  0  0  0
  -28.3848  -32.6884   25.0293 H   0  0  0  0  0  0
  -28.0734  -31.8434   26.5381 H   0  0  0  0  0  0
  -28.2616  -38.0098   24.7510 H   0  0  0  0  0  0
  -28.1069  -36.2629   24.6303 H   0  0  0  0  0  0
  -27.2300  -37.1475   25.8871 H   0  0  0  0  0  0
  -20.9315  -29.8755   21.6929 H   0  0  0  0  0  0
  -26.0193  -38.2880   24.1402 H   0  0  0  0  0  0
  -28.6940  -17.6867   17.1451 H   0  0  0  0  0  0
  -29.4976  -15.7385   18.3486 H   0  0  0  0  0  0
  -29.6955  -18.0651   21.9866 H   0  0  0  0  0  0
  -27.7343  -20.9631   18.6659 H   0  0  0  0  0  0
  -29.0292  -24.1459   19.1694 H   0  0  0  0  0  0
  -30.0968  -24.3674   20.5319 H   0  0  0  0  0  0
  -27.6244  -22.5589   20.4230 H   0  0  0  0  0  0
  -28.5062  -22.8402   21.8908 H   0  0  0  0  0  0
  -28.3476  -25.4614   21.8423 H   0  0  0  0  0  0
  -27.1253  -24.9904   20.7151 H   0  0  0  0  0  0
  -30.4883  -21.6804   21.0331 H   0  0  0  0  0  0
  -29.8174  -21.5433   19.4434 H   0  0  0  0  0  0
  -29.2182  -15.2588   21.6478 H   0  0  0  0  0  0
  1 25  1  0  0  0
  1 30  2  0  0  0
  1 82  1  0  0  0
  2  3  1  0  0  0
  2 25  1  0  0  0
  2 85  1  0  0  0
  2 86  1  0  0  0
  3  4  1  0  0  0
  3 87  1  0  0  0
  3 88  1  0  0  0
  4  5  1  0  0  0
  4 89  1  0  0  0
  4 90  1  0  0  0
  5  6  1  0  0  0
  5 26  1  0  0  0
  5 91  1  0  0  0
  6 25  1  0  0  0
  6 92  1  0  0  0
  6 93  1  0  0  0
  7  8  2  0  0  0
  7 26  1  0  0  0
  7 29  1  0  0  0
  8  9  1  0  0  0
  8 22  1  0  0  0
  9 10  1  0  0  0
  9 27  2  0  0  0
 10 11  2  0  0  0
 10 15  1  0  0  0
 11 12  1  0  0  0
 11 94  1  0  0  0
 12 13  2  0  0  0
 12 95  1  0  0  0
 13 14  1  0  0  0
 13 31  1  0  0  0
 14 15  2  0  0  0
 14 96  1  0  0  0
 15 97  1  0  0  0
 16 17  2  0  0  0
 16 21  1  0  0  0
 16 31  1  0  0  0
 17 18  1  0  0  0
 17 98  1  0  0  0
 18 19  2  0  0  0
 18 99  1  0  0  0
 19 20  1  0  0  0
 19 24  1  0  0  0
 20 21  2  0  0  0
 20100  1  0  0  0
 21 23  1  0  0  0
 22 28  1  0  0  0
 22 32  2  0  0  0
 26 27  1  0  0  0
 28101  1  0  0  0
 28102  1  0  0  0
 29103  1  0  0  0
 29104  1  0  0  0
 33 34  1  0  0  0
 33 66  1  0  0  0
 33 70  2  0  0  0
 34 36  1  0  0  0
 34 59  1  0  0  0
 34105  1  0  0  0
 35 44  2  0  0  0
 35 45  1  0  0  0
 35 68  1  0  0  0
 36 56  1  0  0  0
 36106  1  0  0  0
 37 39  1  0  0  0
 37 47  1  0  0  0
 37 66  1  0  0  0
 37107  1  0  0  0
 38 43  2  0  0  0
 38 46  1  0  0  0
 38 47  1  0  0  0
 39 64  1  0  0  0
 39 67  2  0  0  0
 40 52  1  0  0  0
 40 53  2  0  0  0
 40 58  1  0  0  0
 41108  1  0  0  0
 41109  1  0  0  0
 41110  1  0  0  0
 41 48  1  0  0  0
 42 43  1  0  0  0
 42 66  1  0  0  0
 42111  1  0  0  0
 42112  1  0  0  0
 43 44  1  0  0  0
 44113  1  0  0  0
 45 46  2  0  0  0
 45114  1  0  0  0
 46115  1  0  0  0
 47116  1  0  0  0
 47117  1  0  0  0
 48 56  1  0  0  0
 48 65  1  0  0  0
 48118  1  0  0  0
 49 50  1  0  0  0
 49 53  1  0  0  0
 49 64  1  0  0  0
 49119  1  0  0  0
 50 51  1  0  0  0
 50120  1  0  0  0
 50121  1  0  0  0
 51 52  1  0  0  0
 51122  1  0  0  0
 51123  1  0  0  0
 52124  1  0  0  0
 52125  1  0  0  0
 53 54  1  0  0  0
 54 55  2  0  0  0
 54126  1  0  0  0
 55 57  1  0  0  0
 55127  1  0  0  0
 56 69  2  0  0  0
 57 58  2  0  0  0
 57128  1  0  0  0
 58129  1  0  0  0
 59 60  1  0  0  0
 59 61  1  0  0  0
 59 62  1  0  0  0
 60130  1  0  0  0
 60131  1  0  0  0
 60132  1  0  0  0
 61133  1  0  0  0
 61134  1  0  0  0
 61135  1  0  0  0
 62136  1  0  0  0
 62137  1  0  0  0
 62138  1  0  0  0
 63 65  1  0  0  0
 63139  1  0  0  0
 63140  1  0  0  0
 63141  1  0  0  0
 64142  1  0  0  0
 65143  1  0  0  0
 68 80  1  0  0  0
 71 72  2  0  0  0
 71 74  1  0  0  0
 71144  1  0  0  0
 72 75  1  0  0  0
 72145  1  0  0  0
 73 75  2  0  0  0
 73 76  1  0  0  0
 73146  1  0  0  0
 74 76  2  0  0  0
 74 77  1  0  0  0
 75 82  1  0  0  0
 76 84  1  0  0  0
 77 83  2  0  0  0
 77147  1  0  0  0
 78 79  1  0  0  0
 78 80  1  0  0  0
 78148  1  0  0  0
 78149  1  0  0  0
 79 81  1  0  0  0
 79150  1  0  0  0
 79151  1  0  0  0
 80152  1  0  0  0
 80153  1  0  0  0
 81 84  1  0  0  0
 81154  1  0  0  0
 81155  1  0  0  0
 82156  1  0  0  0
M  ISO  4   1 100  68 101  80 101  82 100
M  END
> <chiral flag>
0

> <version>
0

> <s_m_source_file>
/data/baiqing/PycharmProjects/Reinvent-master-3.2/result/LINK_invent/BTK/process_docking_weight1_custom_product_contain_oxygen_bond_distance_aromatic_linkinvent_7_9_3/rearranged_h_0116.sdf

> <i_m_source_file_index>
18

> <r_mmod_Potential_Energy-OPLS-2005>
65.7176208496094

> <r_mmod_Stretch_Energy-OPLS-2005>
45.9224433898926

> <r_mmod_Bend_Energy-OPLS-2005>
103.060485839844

> <r_mmod_Torsional_Energy-OPLS-2005>
289.566925048828

> <r_mmod_Improper_Torsional_Energy-OPLS-2005>
6.96629190444946

> <r_mmod_Van_der_Waal_Energy-OPLS-2005>
152.712432861328

> <r_mmod_Electrostatic_Energy-OPLS-2005>
-331.352142333984

> <r_mmod_Solvation_Energy-OPLS-2005>
-219.134628295898

> <b_mmod_Minimization_Converged-OPLS-2005>
0

> <r_mmod_RMS_Derivative-OPLS-2005>
1.17406916618347

$$$$
18
                    3D
 Structure written by MMmdl.
153161  0  0  1  0            999 V2000
  -30.6780  -14.7914   20.4907 C   0  0  0  0  0  0
  -30.4253  -12.4892   19.5096 C   0  0  0  0  0  0
  -29.5206  -12.5508   18.2581 C   0  0  0  0  0  0
  -28.0451  -12.3641   18.6568 C   0  0  0  0  0  0
  -27.6457  -13.2568   19.8637 C   0  0  2  0  0  0
  -28.6904  -13.2248   21.0052 C   0  0  0  0  0  0
  -25.2474  -13.8236   20.5757 C   0  0  0  0  0  0
  -24.1785  -13.0435   20.9206 C   0  0  0  0  0  0
  -24.6405  -11.6921   20.8692 C   0  0  0  0  0  0
  -23.9054  -10.4288   21.0348 C   0  0  0  0  0  0
  -24.3630   -9.4211   21.9135 C   0  0  0  0  0  0
  -23.6326   -8.2236   22.0716 C   0  0  0  0  0  0
  -22.4287   -8.0255   21.3517 C   0  0  0  0  0  0
  -21.9905   -9.0203   20.4615 C   0  0  0  0  0  0
  -22.7207  -10.2115   20.2999 C   0  0  0  0  0  0
  -21.6860   -6.0715   22.5269 C   0  0  0  0  0  0
  -21.4037   -6.5636   23.8199 C   0  0  0  0  0  0
  -21.3666   -5.6783   24.9179 C   0  0  0  0  0  0
  -21.6061   -4.3048   24.7240 C   0  0  0  0  0  0
  -21.8807   -3.8120   23.4349 C   0  0  0  0  0  0
  -21.9218   -4.6932   22.3412 C   0  0  0  0  0  0
  -22.7797  -13.5186   21.1887 C   0  0  0  0  0  0
  -22.1659   -4.2117   21.0988 F   0  0  0  0  0  0
  -21.5656   -3.4542   25.7753 F   0  0  0  0  0  0
  -30.0017  -13.5749   20.4408 N   0  0  0  0  0  0
  -26.2967  -12.9498   20.3373 N   0  0  0  0  0  0
  -25.9361  -11.6612   20.5733 N   0  0  0  0  0  0
  -22.0475  -12.8159   22.0456 N   0  0  0  0  0  0
  -25.4128  -15.1966   20.4292 N   0  0  0  0  0  0
  -31.8205  -14.8178   20.0267 O   0  0  0  0  0  0
  -21.6673   -6.8824   21.4201 O   0  0  0  0  0  0
  -22.3453  -14.5493   20.6725 O   0  0  0  0  0  0
  -24.6351  -31.8547   23.1998 C   0  0  0  0  0  0
  -25.9150  -32.4736   23.8366 C   0  0  1  0  0  0
  -27.2161  -27.2301   20.1280 C   0  0  0  0  0  0
  -25.5947  -33.8538   24.2268 N   0  0  0  0  0  0
  -23.4325  -30.4795   21.5436 C   0  0  2  0  0  0
  -24.8778  -28.9266   20.1112 C   0  0  0  0  0  0
  -22.7489  -29.4616   22.4911 C   0  0  0  0  0  0
  -18.0276  -28.1412   22.8476 C   0  0  0  0  0  0
  -24.1502  -36.7284   23.2638 C   0  0  0  0  0  0
  -25.9825  -30.7593   21.3816 C   0  0  0  0  0  0
  -26.0547  -29.3789   20.7218 C   0  0  0  0  0  0
  -27.2250  -28.5450   20.7187 C   0  0  0  0  0  0
  -26.0140  -26.8624   19.4765 C   0  0  0  0  0  0
  -24.8663  -27.6789   19.4723 C   0  0  0  0  0  0
  -23.6516  -29.8190   20.1592 C   0  0  0  0  0  0
  -25.4125  -36.3061   24.0323 C   0  0  1  0  0  0
  -20.5880  -28.3744   23.1268 C   0  0  2  0  0  0
  -20.6778  -26.9467   22.5427 C   0  0  0  0  0  0
  -19.5781  -26.6397   21.5209 C   0  0  0  0  0  0
  -18.1939  -26.7968   22.1585 C   0  0  0  0  0  0
  -19.1531  -28.8883   23.2877 C   0  0  0  0  0  0
  -18.9448  -30.1467   23.8942 C   0  0  0  0  0  0
  -17.6460  -30.6615   24.0572 C   0  0  0  0  0  0
  -25.9078  -34.9426   23.5094 C   0  0  0  0  0  0
  -16.5350  -29.9128   23.6329 C   0  0  0  0  0  0
  -16.7254  -28.6524   23.0378 C   0  0  0  0  0  0
  -26.4543  -31.6536   25.0728 C   0  0  0  0  0  0
  -25.3763  -31.3715   26.1447 C   0  0  0  0  0  0
  -27.0277  -30.2908   24.6209 C   0  0  0  0  0  0
  -27.6213  -32.4173   25.7415 C   0  0  0  0  0  0
  -27.5592  -37.1784   24.8452 C   0  0  0  0  0  0
  -21.4186  -29.3082   22.3630 N   0  0  0  0  0  0
  -26.4297  -37.3761   23.9414 N   0  0  0  0  0  0
  -24.7015  -31.0490   22.0985 N   0  0  0  0  0  0
  -23.4171  -28.8159   23.3031 O   0  0  0  0  0  0
  -28.2877  -26.2926   20.1973 O   0  0  0  0  0  0
  -26.5671  -34.8895   22.4681 O   0  0  0  0  0  0
  -23.5472  -32.1378   23.7273 O   0  0  0  0  0  0
  -30.4980  -20.9382   21.7866 C   0  0  0  0  0  0
  -30.9139  -19.5664   21.9247 C   0  0  0  0  0  0
  -29.5592  -21.0536   20.8017 C   0  0  0  0  0  0
  -30.1934  -18.8009   21.0225 C   0  0  0  0  0  0
  -28.8184  -22.2622   20.2978 C   0  0  0  0  0  0
  -30.4063  -17.3649   20.5966 C   0  0  0  0  0  0
  -30.0621  -16.0749   21.0346 C   0  0  0  0  0  0
  -28.9486  -23.6380   20.5105 C   0  0  0  0  0  0
  -32.1527  -19.9646   24.1434 C   0  0  0  0  0  0
  -32.0200  -19.1076   22.8651 C   0  0  0  0  0  0
  -27.9678  -24.8148   20.0377 C   0  0  0  0  0  0
  -29.3922  -19.7347   20.2983 O   0  0  0  0  0  0
  -31.4736  -12.5634   19.2170 H   0  0  0  0  0  0
  -30.3307  -11.5145   19.9928 H   0  0  0  0  0  0
  -29.8163  -11.7858   17.5372 H   0  0  0  0  0  0
  -29.6460  -13.5121   17.7563 H   0  0  0  0  0  0
  -27.8967  -11.3123   18.8968 H   0  0  0  0  0  0
  -27.3919  -12.5684   17.8071 H   0  0  0  0  0  0
  -27.6263  -14.2784   19.4862 H   0  0  0  0  0  0
  -28.7236  -12.2382   21.4672 H   0  0  0  0  0  0
  -28.4116  -13.9212   21.7967 H   0  0  0  0  0  0
  -25.2765   -9.5762   22.4714 H   0  0  0  0  0  0
  -24.0062   -7.4651   22.7443 H   0  0  0  0  0  0
  -21.0821   -8.8661   19.8954 H   0  0  0  0  0  0
  -22.3561  -10.9633   19.6139 H   0  0  0  0  0  0
  -21.1978   -7.6124   23.9701 H   0  0  0  0  0  0
  -21.1532   -6.0524   25.9095 H   0  0  0  0  0  0
  -22.0581   -2.7567   23.2878 H   0  0  0  0  0  0
  -22.4143  -11.9880   22.4924 H   0  0  0  0  0  0
  -21.1051  -13.1105   22.2614 H   0  0  0  0  0  0
  -24.6457  -15.8453   20.5622 H   0  0  0  0  0  0
  -26.2782  -15.6476   20.1570 H   0  0  0  0  0  0
  -26.7213  -32.5391   23.1108 H   0  0  0  0  0  0
  -25.0066  -33.9686   25.0396 H   0  0  0  0  0  0
  -22.7312  -31.3048   21.3974 H   0  0  0  0  0  0
  -23.3772  -35.9600   23.3207 H   0  0  0  0  0  0
  -24.3653  -36.9001   22.2081 H   0  0  0  0  0  0
  -23.7205  -37.6425   23.6744 H   0  0  0  0  0  0
  -26.1154  -31.5179   20.6082 H   0  0  0  0  0  0
  -26.8613  -30.8136   22.0141 H   0  0  0  0  0  0
  -28.1228  -28.8878   21.2178 H   0  0  0  0  0  0
  -25.9173  -25.9136   18.9731 H   0  0  0  0  0  0
  -23.9701  -27.3309   18.9754 H   0  0  0  0  0  0
  -23.7853  -30.6002   19.4100 H   0  0  0  0  0  0
  -22.7666  -29.2624   19.8445 H   0  0  0  0  0  0
  -25.1295  -36.1923   25.0816 H   0  0  0  0  0  0
  -20.9969  -28.3348   24.1392 H   0  0  0  0  0  0
  -20.5638  -26.2382   23.3653 H   0  0  0  0  0  0
  -21.6661  -26.7500   22.1264 H   0  0  0  0  0  0
  -19.6988  -25.6284   21.1290 H   0  0  0  0  0  0
  -19.6755  -27.3168   20.6723 H   0  0  0  0  0  0
  -17.4233  -26.6709   21.3957 H   0  0  0  0  0  0
  -18.0353  -26.0078   22.8957 H   0  0  0  0  0  0
  -19.7922  -30.7242   24.2381 H   0  0  0  0  0  0
  -17.5016  -31.6308   24.5151 H   0  0  0  0  0  0
  -15.5354  -30.3079   23.7603 H   0  0  0  0  0  0
  -15.8634  -28.0830   22.7173 H   0  0  0  0  0  0
  -24.6013  -30.6970   25.7792 H   0  0  0  0  0  0
  -24.8870  -32.2854   26.4813 H   0  0  0  0  0  0
  -25.8067  -30.8959   27.0261 H   0  0  0  0  0  0
  -26.2780  -29.6677   24.1309 H   0  0  0  0  0  0
  -27.3946  -29.7188   25.4741 H   0  0  0  0  0  0
  -27.8723  -30.4068   23.9415 H   0  0  0  0  0  0
  -27.3036  -33.3578   26.1930 H   0  0  0  0  0  0
  -28.4065  -32.6484   25.0196 H   0  0  0  0  0  0
  -28.0834  -31.8257   26.5329 H   0  0  0  0  0  0
  -28.2604  -38.0093   24.7501 H   0  0  0  0  0  0
  -28.1081  -36.2613   24.6235 H   0  0  0  0  0  0
  -27.2343  -37.1400   25.8868 H   0  0  0  0  0  0
  -20.9400  -29.8766   21.6788 H   0  0  0  0  0  0
  -26.0150  -38.2820   24.1428 H   0  0  0  0  0  0
  -30.8618  -21.7799   22.3578 H   0  0  0  0  0  0
  -27.9777  -21.9809   19.6790 H   0  0  0  0  0  0
  -31.0827  -17.3445   19.7513 H   0  0  0  0  0  0
  -29.3725  -15.9911   21.8628 H   0  0  0  0  0  0
  -29.7864  -23.9737   21.1044 H   0  0  0  0  0  0
  -33.0300  -19.6674   24.7195 H   0  0  0  0  0  0
  -31.2821  -19.8633   24.7952 H   0  0  0  0  0  0
  -32.2758  -21.0253   23.9162 H   0  0  0  0  0  0
  -32.9697  -19.1414   22.3287 H   0  0  0  0  0  0
  -31.8635  -18.0640   23.1416 H   0  0  0  0  0  0
  -27.0657  -24.6330   20.6241 H   0  0  0  0  0  0
  -27.7037  -24.6144   18.9991 H   0  0  0  0  0  0
  1 25  1  0  0  0
  1 30  2  0  0  0
  1 77  1  0  0  0
  2  3  1  0  0  0
  2 25  1  0  0  0
  2 83  1  0  0  0
  2 84  1  0  0  0
  3  4  1  0  0  0
  3 85  1  0  0  0
  3 86  1  0  0  0
  4  5  1  0  0  0
  4 87  1  0  0  0
  4 88  1  0  0  0
  5  6  1  0  0  0
  5 26  1  0  0  0
  5 89  1  0  0  0
  6 25  1  0  0  0
  6 90  1  0  0  0
  6 91  1  0  0  0
  7  8  2  0  0  0
  7 26  1  0  0  0
  7 29  1  0  0  0
  8  9  1  0  0  0
  8 22  1  0  0  0
  9 10  1  0  0  0
  9 27  2  0  0  0
 10 11  2  0  0  0
 10 15  1  0  0  0
 11 12  1  0  0  0
 11 92  1  0  0  0
 12 13  2  0  0  0
 12 93  1  0  0  0
 13 14  1  0  0  0
 13 31  1  0  0  0
 14 15  2  0  0  0
 14 94  1  0  0  0
 15 95  1  0  0  0
 16 17  2  0  0  0
 16 21  1  0  0  0
 16 31  1  0  0  0
 17 18  1  0  0  0
 17 96  1  0  0  0
 18 19  2  0  0  0
 18 97  1  0  0  0
 19 20  1  0  0  0
 19 24  1  0  0  0
 20 21  2  0  0  0
 20 98  1  0  0  0
 21 23  1  0  0  0
 22 28  1  0  0  0
 22 32  2  0  0  0
 26 27  1  0  0  0
 28 99  1  0  0  0
 28100  1  0  0  0
 29101  1  0  0  0
 29102  1  0  0  0
 33 34  1  0  0  0
 33 66  1  0  0  0
 33 70  2  0  0  0
 34 36  1  0  0  0
 34 59  1  0  0  0
 34103  1  0  0  0
 35 44  2  0  0  0
 35 45  1  0  0  0
 35 68  1  0  0  0
 36 56  1  0  0  0
 36104  1  0  0  0
 37 39  1  0  0  0
 37 47  1  0  0  0
 37 66  1  0  0  0
 37105  1  0  0  0
 38 43  2  0  0  0
 38 46  1  0  0  0
 38 47  1  0  0  0
 39 64  1  0  0  0
 39 67  2  0  0  0
 40 52  1  0  0  0
 40 53  2  0  0  0
 40 58  1  0  0  0
 41106  1  0  0  0
 41107  1  0  0  0
 41108  1  0  0  0
 41 48  1  0  0  0
 42 43  1  0  0  0
 42 66  1  0  0  0
 42109  1  0  0  0
 42110  1  0  0  0
 43 44  1  0  0  0
 44111  1  0  0  0
 45 46  2  0  0  0
 45112  1  0  0  0
 46113  1  0  0  0
 47114  1  0  0  0
 47115  1  0  0  0
 48 56  1  0  0  0
 48 65  1  0  0  0
 48116  1  0  0  0
 49 50  1  0  0  0
 49 53  1  0  0  0
 49 64  1  0  0  0
 49117  1  0  0  0
 50 51  1  0  0  0
 50118  1  0  0  0
 50119  1  0  0  0
 51 52  1  0  0  0
 51120  1  0  0  0
 51121  1  0  0  0
 52122  1  0  0  0
 52123  1  0  0  0
 53 54  1  0  0  0
 54 55  2  0  0  0
 54124  1  0  0  0
 55 57  1  0  0  0
 55125  1  0  0  0
 56 69  2  0  0  0
 57 58  2  0  0  0
 57126  1  0  0  0
 58127  1  0  0  0
 59 60  1  0  0  0
 59 61  1  0  0  0
 59 62  1  0  0  0
 60128  1  0  0  0
 60129  1  0  0  0
 60130  1  0  0  0
 61131  1  0  0  0
 61132  1  0  0  0
 61133  1  0  0  0
 62134  1  0  0  0
 62135  1  0  0  0
 62136  1  0  0  0
 63 65  1  0  0  0
 63137  1  0  0  0
 63138  1  0  0  0
 63139  1  0  0  0
 64140  1  0  0  0
 65141  1  0  0  0
 68 81  1  0  0  0
 71 72  1  0  0  0
 71 73  2  0  0  0
 71142  1  0  0  0
 72 74  2  0  0  0
 72 80  1  0  0  0
 73 75  1  0  0  0
 73 82  1  0  0  0
 74 76  1  0  0  0
 74 82  1  0  0  0
 75 78  2  0  0  0
 75143  1  0  0  0
 76 77  2  0  0  0
 76144  1  0  0  0
 77145  1  0  0  0
 78 81  1  0  0  0
 78146  1  0  0  0
 79 80  1  0  0  0
 79147  1  0  0  0
 79148  1  0  0  0
 79149  1  0  0  0
 80150  1  0  0  0
 80151  1  0  0  0
 81152  1  0  0  0
 81153  1  0  0  0
M  ISO  4   1 100  68 101  77 100  81 101
M  END
> <chiral flag>
0

> <version>
0

> <s_m_source_file>
/data/baiqing/PycharmProjects/Reinvent-master-3.2/result/LINK_invent/BTK/process_docking_weight1_custom_product_contain_oxygen_bond_distance_aromatic_linkinvent_7_9_3/rearranged_h_0116.sdf

> <i_m_source_file_index>
19

> <r_mmod_Potential_Energy-OPLS-2005>
230.78254699707

> <r_mmod_Stretch_Energy-OPLS-2005>
145.899261474609

> <r_mmod_Bend_Energy-OPLS-2005>
182.867858886719

> <r_mmod_Torsional_Energy-OPLS-2005>
218.373138427734

> <r_mmod_Improper_Torsional_Energy-OPLS-2005>
5.76442289352417

> <r_mmod_Van_der_Waal_Energy-OPLS-2005>
121.624572753906

> <r_mmod_Electrostatic_Energy-OPLS-2005>
-353.995697021484

> <r_mmod_Solvation_Energy-OPLS-2005>
-195.103790283203

> <b_mmod_Minimization_Converged-OPLS-2005>
0

> <r_mmod_RMS_Derivative-OPLS-2005>
4.77008676528931

$$$$
19
                    3D
 Structure written by MMmdl.
156164  0  0  1  0            999 V2000
  -30.5224  -14.7727   20.5171 C   0  0  0  0  0  0
  -30.4694  -12.4870   19.4582 C   0  0  0  0  0  0
  -29.5252  -12.5494   18.2310 C   0  0  0  0  0  0
  -28.0423  -12.3689   18.6284 C   0  0  0  0  0  0
  -27.6568  -13.2123   19.8717 C   0  0  2  0  0  0
  -28.7076  -13.0204   20.9859 C   0  0  0  0  0  0
  -25.2581  -13.8141   20.5695 C   0  0  0  0  0  0
  -24.1834  -13.0420   20.9179 C   0  0  0  0  0  0
  -24.6391  -11.6890   20.8726 C   0  0  0  0  0  0
  -23.9060  -10.4283   21.0397 C   0  0  0  0  0  0
  -24.3614   -9.4202   21.9176 C   0  0  0  0  0  0
  -23.6291   -8.2240   22.0748 C   0  0  0  0  0  0
  -22.4270   -8.0280   21.3545 C   0  0  0  0  0  0
  -21.9906   -9.0254   20.4646 C   0  0  0  0  0  0
  -22.7232  -10.2131   20.3050 C   0  0  0  0  0  0
  -21.6847   -6.0737   22.5284 C   0  0  0  0  0  0
  -21.4008   -6.5641   23.8220 C   0  0  0  0  0  0
  -21.3661   -5.6792   24.9181 C   0  0  0  0  0  0
  -21.6047   -4.3056   24.7226 C   0  0  0  0  0  0
  -21.8816   -3.8147   23.4346 C   0  0  0  0  0  0
  -21.9189   -4.6966   22.3405 C   0  0  0  0  0  0
  -22.7862  -13.5230   21.1849 C   0  0  0  0  0  0
  -22.1656   -4.2154   21.0984 F   0  0  0  0  0  0
  -21.5638   -3.4538   25.7739 F   0  0  0  0  0  0
  -30.0000  -13.4879   20.4464 N   0  0  0  0  0  0
  -26.3008  -12.9308   20.3333 N   0  0  0  0  0  0
  -25.9318  -11.6468   20.5724 N   0  0  0  0  0  0
  -22.0491  -12.8245   22.0416 N   0  0  0  0  0  0
  -25.4321  -15.1872   20.4148 N   0  0  0  0  0  0
  -31.6755  -14.9691   20.1155 O   0  0  0  0  0  0
  -21.6635   -6.8877   21.4245 O   0  0  0  0  0  0
  -22.3560  -14.5541   20.6688 O   0  0  0  0  0  0
  -24.6330  -31.8541   23.1972 C   0  0  0  0  0  0
  -25.9153  -32.4740   23.8318 C   0  0  1  0  0  0
  -27.2255  -27.2482   20.1238 C   0  0  0  0  0  0
  -25.5930  -33.8540   24.2231 N   0  0  0  0  0  0
  -23.4298  -30.4777   21.5416 C   0  0  2  0  0  0
  -24.8768  -28.9228   20.1129 C   0  0  0  0  0  0
  -22.7506  -29.4608   22.4906 C   0  0  0  0  0  0
  -18.0295  -28.1396   22.8486 C   0  0  0  0  0  0
  -24.1491  -36.7295   23.2633 C   0  0  0  0  0  0
  -25.9791  -30.7614   21.3820 C   0  0  0  0  0  0
  -26.0515  -29.3852   20.7194 C   0  0  0  0  0  0
  -27.2278  -28.5628   20.7093 C   0  0  0  0  0  0
  -26.0199  -26.8587   19.4942 C   0  0  0  0  0  0
  -24.8676  -27.6676   19.4899 C   0  0  0  0  0  0
  -23.6480  -29.8114   20.1592 C   0  0  0  0  0  0
  -25.4119  -36.3066   24.0315 C   0  0  1  0  0  0
  -20.5902  -28.3714   23.1269 C   0  0  2  0  0  0
  -20.6787  -26.9424   22.5428 C   0  0  0  0  0  0
  -19.5765  -26.6378   21.5233 C   0  0  0  0  0  0
  -18.1940  -26.7936   22.1628 C   0  0  0  0  0  0
  -19.1547  -28.8871   23.2873 C   0  0  0  0  0  0
  -18.9461  -30.1470   23.8894 C   0  0  0  0  0  0
  -17.6458  -30.6595   24.0564 C   0  0  0  0  0  0
  -25.9062  -34.9430   23.5084 C   0  0  0  0  0  0
  -16.5351  -29.9092   23.6331 C   0  0  0  0  0  0
  -16.7279  -28.6509   23.0356 C   0  0  0  0  0  0
  -26.4489  -31.6575   25.0728 C   0  0  0  0  0  0
  -25.3680  -31.3800   26.1438 C   0  0  0  0  0  0
  -27.0306  -30.2951   24.6286 C   0  0  0  0  0  0
  -27.6038  -32.4315   25.7511 C   0  0  0  0  0  0
  -27.5594  -37.1795   24.8440 C   0  0  0  0  0  0
  -21.4211  -29.3050   22.3643 N   0  0  0  0  0  0
  -26.4294  -37.3769   23.9401 N   0  0  0  0  0  0
  -24.6995  -31.0496   22.0959 N   0  0  0  0  0  0
  -23.4195  -28.8154   23.3019 O   0  0  0  0  0  0
  -28.3277  -26.3503   20.1633 O   0  0  0  0  0  0
  -26.5652  -34.8911   22.4662 O   0  0  0  0  0  0
  -23.5475  -32.1374   23.7256 O   0  0  0  0  0  0
  -29.2092  -19.8070   20.6085 C   0  0  0  0  0  0
  -31.0827  -21.0859   19.8185 C   0  0  0  0  0  0
  -29.7255  -21.1153   20.2685 C   0  0  0  0  0  0
  -29.9615  -18.5711   20.5024 C   0  0  0  0  0  0
  -31.7526  -19.8228   19.7101 C   0  0  0  0  0  0
  -32.3909  -22.6136   18.3273 C   0  0  0  0  0  0
  -31.8226  -22.3224   19.5094 C   0  0  0  0  0  0
  -29.3834  -17.2284   20.9682 C   0  0  0  0  0  0
  -29.5635  -15.8420   21.0045 C   0  0  0  0  0  0
  -33.1990  -19.7152   19.2513 C   0  0  0  0  0  0
  -28.0794  -24.8562   20.1224 C   0  0  0  0  0  0
  -29.2479  -23.7247   20.1856 C   0  0  0  0  0  0
  -31.2123  -18.6184   20.0232 N   0  0  0  0  0  0
  -28.8785  -22.2780   20.3842 O   0  0  0  0  0  0
  -31.4984  -12.6756   19.1484 H   0  0  0  0  0  0
  -30.4752  -11.4862   19.8930 H   0  0  0  0  0  0
  -29.8127  -11.7957   17.4965 H   0  0  0  0  0  0
  -29.6486  -13.5152   17.7381 H   0  0  0  0  0  0
  -27.8773  -11.3112   18.8341 H   0  0  0  0  0  0
  -27.3943  -12.6197   17.7874 H   0  0  0  0  0  0
  -27.6795  -14.2556   19.5583 H   0  0  0  0  0  0
  -28.7700  -11.9637   21.2510 H   0  0  0  0  0  0
  -28.4232  -13.4986   21.9215 H   0  0  0  0  0  0
  -25.2757   -9.5683   22.4750 H   0  0  0  0  0  0
  -24.0004   -7.4634   22.7469 H   0  0  0  0  0  0
  -21.0831   -8.8773   19.8962 H   0  0  0  0  0  0
  -22.3685  -10.9674   19.6169 H   0  0  0  0  0  0
  -21.1994   -7.6145   23.9728 H   0  0  0  0  0  0
  -21.1491   -6.0517   25.9087 H   0  0  0  0  0  0
  -22.0591   -2.7609   23.2843 H   0  0  0  0  0  0
  -22.4076  -11.9906   22.4832 H   0  0  0  0  0  0
  -21.1119  -13.1306   22.2612 H   0  0  0  0  0  0
  -24.6686  -15.8446   20.5306 H   0  0  0  0  0  0
  -26.2870  -15.6271   20.0987 H   0  0  0  0  0  0
  -26.7217  -32.5371   23.1055 H   0  0  0  0  0  0
  -25.0004  -33.9654   25.0325 H   0  0  0  0  0  0
  -22.7278  -31.3017   21.3960 H   0  0  0  0  0  0
  -23.3754  -35.9625   23.3265 H   0  0  0  0  0  0
  -24.3586  -36.8956   22.2055 H   0  0  0  0  0  0
  -23.7243  -37.6479   23.6690 H   0  0  0  0  0  0
  -26.1272  -31.5252   20.6172 H   0  0  0  0  0  0
  -26.8518  -30.8022   22.0224 H   0  0  0  0  0  0
  -28.1275  -28.9167   21.1919 H   0  0  0  0  0  0
  -25.9264  -25.9061   18.9987 H   0  0  0  0  0  0
  -23.9683  -27.3080   19.0084 H   0  0  0  0  0  0
  -23.7704  -30.5880   19.4029 H   0  0  0  0  0  0
  -22.7651  -29.2453   19.8565 H   0  0  0  0  0  0
  -25.1307  -36.1904   25.0808 H   0  0  0  0  0  0
  -20.9997  -28.3309   24.1392 H   0  0  0  0  0  0
  -20.5692  -26.2328   23.3641 H   0  0  0  0  0  0
  -21.6655  -26.7448   22.1221 H   0  0  0  0  0  0
  -19.6929  -25.6284   21.1279 H   0  0  0  0  0  0
  -19.6717  -27.3175   20.6754 H   0  0  0  0  0  0
  -17.4220  -26.6694   21.4017 H   0  0  0  0  0  0
  -18.0322  -26.0079   22.9021 H   0  0  0  0  0  0
  -19.7933  -30.7294   24.2258 H   0  0  0  0  0  0
  -17.5009  -31.6273   24.5168 H   0  0  0  0  0  0
  -15.5351  -30.2994   23.7655 H   0  0  0  0  0  0
  -15.8678  -28.0825   22.7078 H   0  0  0  0  0  0
  -24.5865  -30.7122   25.7800 H   0  0  0  0  0  0
  -24.8854  -32.2996   26.4755 H   0  0  0  0  0  0
  -25.7956  -30.9069   27.0283 H   0  0  0  0  0  0
  -26.2903  -29.6721   24.1250 H   0  0  0  0  0  0
  -27.3843  -29.7213   25.4863 H   0  0  0  0  0  0
  -27.8855  -30.4150   23.9629 H   0  0  0  0  0  0
  -27.2629  -33.3605   26.2093 H   0  0  0  0  0  0
  -28.3852  -32.6885   25.0349 H   0  0  0  0  0  0
  -28.0701  -31.8435   26.5423 H   0  0  0  0  0  0
  -28.2575  -38.0130   24.7527 H   0  0  0  0  0  0
  -28.1129  -36.2661   24.6209 H   0  0  0  0  0  0
  -27.2322  -37.1371   25.8843 H   0  0  0  0  0  0
  -20.9401  -29.8747   21.6824 H   0  0  0  0  0  0
  -26.0170  -38.2836   24.1419 H   0  0  0  0  0  0
  -28.1962  -19.7546   20.9809 H   0  0  0  0  0  0
  -32.9350  -23.5376   18.1867 H   0  0  0  0  0  0
  -32.3246  -21.9440   17.4816 H   0  0  0  0  0  0
  -31.9300  -23.0297   20.3201 H   0  0  0  0  0  0
  -28.4707  -17.4611   21.4988 H   0  0  0  0  0  0
  -28.7367  -15.4465   21.5617 H   0  0  0  0  0  0
  -33.2628  -19.8489   18.1721 H   0  0  0  0  0  0
  -33.6227  -18.7380   19.4850 H   0  0  0  0  0  0
  -33.8275  -20.4637   19.7339 H   0  0  0  0  0  0
  -27.3834  -24.6423   20.9342 H   0  0  0  0  0  0
  -27.5428  -24.6270   19.2041 H   0  0  0  0  0  0
  -29.9321  -23.9922   20.9902 H   0  0  0  0  0  0
  -29.7969  -23.8226   19.2511 H   0  0  0  0  0  0
  1 25  1  0  0  0
  1 30  2  0  0  0
  1 79  1  0  0  0
  2  3  1  0  0  0
  2 25  1  0  0  0
  2 85  1  0  0  0
  2 86  1  0  0  0
  3  4  1  0  0  0
  3 87  1  0  0  0
  3 88  1  0  0  0
  4  5  1  0  0  0
  4 89  1  0  0  0
  4 90  1  0  0  0
  5  6  1  0  0  0
  5 26  1  0  0  0
  5 91  1  0  0  0
  6 25  1  0  0  0
  6 92  1  0  0  0
  6 93  1  0  0  0
  7  8  2  0  0  0
  7 26  1  0  0  0
  7 29  1  0  0  0
  8  9  1  0  0  0
  8 22  1  0  0  0
  9 10  1  0  0  0
  9 27  2  0  0  0
 10 11  2  0  0  0
 10 15  1  0  0  0
 11 12  1  0  0  0
 11 94  1  0  0  0
 12 13  2  0  0  0
 12 95  1  0  0  0
 13 14  1  0  0  0
 13 31  1  0  0  0
 14 15  2  0  0  0
 14 96  1  0  0  0
 15 97  1  0  0  0
 16 17  2  0  0  0
 16 21  1  0  0  0
 16 31  1  0  0  0
 17 18  1  0  0  0
 17 98  1  0  0  0
 18 19  2  0  0  0
 18 99  1  0  0  0
 19 20  1  0  0  0
 19 24  1  0  0  0
 20 21  2  0  0  0
 20100  1  0  0  0
 21 23  1  0  0  0
 22 28  1  0  0  0
 22 32  2  0  0  0
 26 27  1  0  0  0
 28101  1  0  0  0
 28102  1  0  0  0
 29103  1  0  0  0
 29104  1  0  0  0
 33 34  1  0  0  0
 33 66  1  0  0  0
 33 70  2  0  0  0
 34 36  1  0  0  0
 34 59  1  0  0  0
 34105  1  0  0  0
 35 44  2  0  0  0
 35 45  1  0  0  0
 35 68  1  0  0  0
 36 56  1  0  0  0
 36106  1  0  0  0
 37 39  1  0  0  0
 37 47  1  0  0  0
 37 66  1  0  0  0
 37107  1  0  0  0
 38 43  2  0  0  0
 38 46  1  0  0  0
 38 47  1  0  0  0
 39 64  1  0  0  0
 39 67  2  0  0  0
 40 52  1  0  0  0
 40 53  2  0  0  0
 40 58  1  0  0  0
 41108  1  0  0  0
 41109  1  0  0  0
 41110  1  0  0  0
 41 48  1  0  0  0
 42 43  1  0  0  0
 42 66  1  0  0  0
 42111  1  0  0  0
 42112  1  0  0  0
 43 44  1  0  0  0
 44113  1  0  0  0
 45 46  2  0  0  0
 45114  1  0  0  0
 46115  1  0  0  0
 47116  1  0  0  0
 47117  1  0  0  0
 48 56  1  0  0  0
 48 65  1  0  0  0
 48118  1  0  0  0
 49 50  1  0  0  0
 49 53  1  0  0  0
 49 64  1  0  0  0
 49119  1  0  0  0
 50 51  1  0  0  0
 50120  1  0  0  0
 50121  1  0  0  0
 51 52  1  0  0  0
 51122  1  0  0  0
 51123  1  0  0  0
 52124  1  0  0  0
 52125  1  0  0  0
 53 54  1  0  0  0
 54 55  2  0  0  0
 54126  1  0  0  0
 55 57  1  0  0  0
 55127  1  0  0  0
 56 69  2  0  0  0
 57 58  2  0  0  0
 57128  1  0  0  0
 58129  1  0  0  0
 59 60  1  0  0  0
 59 61  1  0  0  0
 59 62  1  0  0  0
 60130  1  0  0  0
 60131  1  0  0  0
 60132  1  0  0  0
 61133  1  0  0  0
 61134  1  0  0  0
 61135  1  0  0  0
 62136  1  0  0  0
 62137  1  0  0  0
 62138  1  0  0  0
 63 65  1  0  0  0
 63139  1  0  0  0
 63140  1  0  0  0
 63141  1  0  0  0
 64142  1  0  0  0
 65143  1  0  0  0
 68 81  1  0  0  0
 71 73  2  0  0  0
 71 74  1  0  0  0
 71144  1  0  0  0
 72 73  1  0  0  0
 72 75  2  0  0  0
 72 77  1  0  0  0
 73 84  1  0  0  0
 74 78  1  0  0  0
 74 83  2  0  0  0
 75 80  1  0  0  0
 75 83  1  0  0  0
 76 77  2  0  0  0
 76145  1  0  0  0
 76146  1  0  0  0
 77147  1  0  0  0
 78 79  2  0  0  0
 78148  1  0  0  0
 79149  1  0  0  0
 80150  1  0  0  0
 80151  1  0  0  0
 80152  1  0  0  0
 81 82  1  0  0  0
 81153  1  0  0  0
 81154  1  0  0  0
 82 84  1  0  0  0
 82155  1  0  0  0
 82156  1  0  0  0
M  ISO  4   1 100  68 101  79 100  81 101
M  END
> <chiral flag>
0

> <version>
0

> <s_m_source_file>
/data/baiqing/PycharmProjects/Reinvent-master-3.2/result/LINK_invent/BTK/process_docking_weight1_custom_product_contain_oxygen_bond_distance_aromatic_linkinvent_7_9_3/rearranged_h_0116.sdf

> <i_m_source_file_index>
20

> <r_mmod_Potential_Energy-OPLS-2005>
130.735977172852

> <r_mmod_Stretch_Energy-OPLS-2005>
137.332046508789

> <r_mmod_Bend_Energy-OPLS-2005>
272.214904785156

> <r_mmod_Torsional_Energy-OPLS-2005>
203.698867797852

> <r_mmod_Improper_Torsional_Energy-OPLS-2005>
2.90076041221619

> <r_mmod_Van_der_Waal_Energy-OPLS-2005>
161.762329101562

> <r_mmod_Electrostatic_Energy-OPLS-2005>
-521.133666992188

> <r_mmod_Solvation_Energy-OPLS-2005>
-218.927551269531

> <b_mmod_Minimization_Converged-OPLS-2005>
0

> <r_mmod_RMS_Derivative-OPLS-2005>
1.15826320648193

$$$$
20
                    3D
 Structure written by MMmdl.
164172  0  0  1  0            999 V2000
  -30.6462  -14.6839   20.3905 C   0  0  0  0  0  0
  -30.4367  -12.3875   19.4644 C   0  0  0  0  0  0
  -29.5001  -12.3837   18.2343 C   0  0  0  0  0  0
  -28.0215  -12.2862   18.6565 C   0  0  0  0  0  0
  -27.6426  -13.2107   19.8460 C   0  0  2  0  0  0
  -28.6998  -13.1668   20.9699 C   0  0  0  0  0  0
  -25.2563  -13.8155   20.5745 C   0  0  0  0  0  0
  -24.1823  -13.0429   20.9233 C   0  0  0  0  0  0
  -24.6383  -11.6893   20.8782 C   0  0  0  0  0  0
  -23.9062  -10.4284   21.0435 C   0  0  0  0  0  0
  -24.3620   -9.4197   21.9203 C   0  0  0  0  0  0
  -23.6293   -8.2232   22.0767 C   0  0  0  0  0  0
  -22.4281   -8.0276   21.3542 C   0  0  0  0  0  0
  -21.9919   -9.0256   20.4643 C   0  0  0  0  0  0
  -22.7250  -10.2134   20.3067 C   0  0  0  0  0  0
  -21.6850   -6.0741   22.5277 C   0  0  0  0  0  0
  -21.4010   -6.5644   23.8209 C   0  0  0  0  0  0
  -21.3657   -5.6794   24.9169 C   0  0  0  0  0  0
  -21.6044   -4.3056   24.7220 C   0  0  0  0  0  0
  -21.8823   -3.8152   23.4338 C   0  0  0  0  0  0
  -21.9198   -4.6971   22.3398 C   0  0  0  0  0  0
  -22.7851  -13.5238   21.1873 C   0  0  0  0  0  0
  -22.1671   -4.2158   21.0976 F   0  0  0  0  0  0
  -21.5621   -3.4535   25.7732 F   0  0  0  0  0  0
  -29.9990  -13.4742   20.3605 N   0  0  0  0  0  0
  -26.2959  -12.9317   20.3340 N   0  0  0  0  0  0
  -25.9303  -11.6483   20.5821 N   0  0  0  0  0  0
  -22.0484  -12.8217   22.0405 N   0  0  0  0  0  0
  -25.4330  -15.1862   20.4185 N   0  0  0  0  0  0
  -31.8734  -14.7396   20.2875 O   0  0  0  0  0  0
  -21.6639   -6.8881   21.4239 O   0  0  0  0  0  0
  -22.3558  -14.5564   20.6736 O   0  0  0  0  0  0
  -24.6262  -31.8604   23.2010 C   0  0  0  0  0  0
  -25.9119  -32.4772   23.8323 C   0  0  1  0  0  0
  -27.2166  -27.3169   20.1213 C   0  0  0  0  0  0
  -25.5941  -33.8569   24.2254 N   0  0  0  0  0  0
  -23.4174  -30.4849   21.5449 C   0  0  2  0  0  0
  -24.8630  -28.9440   20.1088 C   0  0  0  0  0  0
  -22.7485  -29.4620   22.4938 C   0  0  0  0  0  0
  -18.0277  -28.1391   22.8497 C   0  0  0  0  0  0
  -24.1498  -36.7299   23.2634 C   0  0  0  0  0  0
  -25.9580  -30.7946   21.3692 C   0  0  0  0  0  0
  -26.0336  -29.4217   20.7130 C   0  0  0  0  0  0
  -27.2139  -28.6187   20.7099 C   0  0  0  0  0  0
  -26.0249  -26.8997   19.4824 C   0  0  0  0  0  0
  -24.8619  -27.6904   19.4832 C   0  0  0  0  0  0
  -23.6310  -29.8227   20.1590 C   0  0  0  0  0  0
  -25.4116  -36.3077   24.0320 C   0  0  1  0  0  0
  -20.5884  -28.3693   23.1303 C   0  0  2  0  0  0
  -20.6772  -26.9423   22.5414 C   0  0  0  0  0  0
  -19.5735  -26.6400   21.5228 C   0  0  0  0  0  0
  -18.1917  -26.7932   22.1647 C   0  0  0  0  0  0
  -19.1533  -28.8865   23.2887 C   0  0  0  0  0  0
  -18.9466  -30.1478   23.8886 C   0  0  0  0  0  0
  -17.6463  -30.6590   24.0584 C   0  0  0  0  0  0
  -25.9058  -34.9447   23.5084 C   0  0  0  0  0  0
  -16.5351  -29.9089   23.6342 C   0  0  0  0  0  0
  -16.7266  -28.6516   23.0338 C   0  0  0  0  0  0
  -26.4495  -31.6550   25.0676 C   0  0  0  0  0  0
  -25.3731  -31.3675   26.1400 C   0  0  0  0  0  0
  -27.0311  -30.2975   24.6100 C   0  0  0  0  0  0
  -27.6059  -32.4265   25.7453 C   0  0  0  0  0  0
  -27.5564  -37.1802   24.8458 C   0  0  0  0  0  0
  -21.4195  -29.3042   22.3697 N   0  0  0  0  0  0
  -26.4276  -37.3791   23.9405 N   0  0  0  0  0  0
  -24.6864  -31.0631   22.0964 N   0  0  0  0  0  0
  -23.4223  -28.8171   23.3008 O   0  0  0  0  0  0
  -28.3241  -26.4533   20.1927 O   0  0  0  0  0  0
  -26.5637  -34.8921   22.4656 O   0  0  0  0  0  0
  -23.5429  -32.1381   23.7373 O   0  0  0  0  0  0
  -30.8384  -17.8448   21.0405 C   0  0  0  0  0  0
  -28.6685  -17.9043   20.0087 C   0  0  0  0  0  0
  -29.7981  -17.1281   20.3952 C   0  0  0  0  0  0
  -30.7751  -19.2672   21.2208 C   0  0  0  0  0  0
  -29.6825  -20.0466   20.7395 C   0  0  0  0  0  0
  -28.6053  -19.3192   20.1619 C   0  0  0  0  0  0
  -30.2721  -20.0055   24.4766 C   0  0  0  0  0  0
  -29.8385  -15.7521   18.4164 C   0  0  0  0  0  0
  -31.7516  -20.3019   24.1922 C   0  0  0  0  0  0
  -29.1499  -23.9353   20.5320 C   0  0  0  0  0  0
  -32.3337  -19.4777   23.0318 C   0  0  0  0  0  0
  -28.0634  -24.9982   20.0746 C   0  0  0  0  0  0
  -28.7787  -22.3915   20.3531 C   0  0  0  0  0  0
  -29.9171  -15.7523   19.8914 N   0  0  0  0  0  0
  -31.8219  -19.9567   21.7895 O   0  0  0  0  0  0
  -29.7660  -21.4525   20.8809 O   0  0  0  0  0  0
  -27.5010  -19.9623   19.7106 F   0  0  0  0  0  0
  -31.4743  -12.5065   19.1473 H   0  0  0  0  0  0
  -30.3873  -11.4316   19.9887 H   0  0  0  0  0  0
  -29.7463  -11.5358   17.5940 H   0  0  0  0  0  0
  -29.6532  -13.2557   17.6060 H   0  0  0  0  0  0
  -27.8467  -11.2475   18.9376 H   0  0  0  0  0  0
  -27.3703  -12.4758   17.8024 H   0  0  0  0  0  0
  -27.6214  -14.2247   19.4556 H   0  0  0  0  0  0
  -28.7218  -12.1880   21.4501 H   0  0  0  0  0  0
  -28.4629  -13.8950   21.7481 H   0  0  0  0  0  0
  -25.2762   -9.5655   22.4779 H   0  0  0  0  0  0
  -23.9993   -7.4625   22.7491 H   0  0  0  0  0  0
  -21.0847   -8.8779   19.8940 H   0  0  0  0  0  0
  -22.3722  -10.9683   19.6175 H   0  0  0  0  0  0
  -21.1998   -7.6151   23.9711 H   0  0  0  0  0  0
  -21.1473   -6.0521   25.9070 H   0  0  0  0  0  0
  -22.0605   -2.7613   23.2834 H   0  0  0  0  0  0
  -22.4093  -11.9870   22.4773 H   0  0  0  0  0  0
  -21.1091  -13.1237   22.2611 H   0  0  0  0  0  0
  -24.6741  -15.8504   20.5258 H   0  0  0  0  0  0
  -26.2981  -15.6107   20.1121 H   0  0  0  0  0  0
  -26.7182  -32.5450   23.1058 H   0  0  0  0  0  0
  -25.0072  -33.9695   25.0395 H   0  0  0  0  0  0
  -22.7077  -31.3030   21.4049 H   0  0  0  0  0  0
  -23.3754  -35.9640   23.3297 H   0  0  0  0  0  0
  -24.3598  -36.8930   22.2050 H   0  0  0  0  0  0
  -23.7260  -37.6502   23.6663 H   0  0  0  0  0  0
  -26.0789  -31.5604   20.6010 H   0  0  0  0  0  0
  -26.8415  -30.8465   21.9932 H   0  0  0  0  0  0
  -28.1101  -28.9758   21.1975 H   0  0  0  0  0  0
  -25.9561  -25.9431   18.9858 H   0  0  0  0  0  0
  -23.9657  -27.3212   19.0019 H   0  0  0  0  0  0
  -23.7511  -30.6008   19.4047 H   0  0  0  0  0  0
  -22.7508  -29.2543   19.8537 H   0  0  0  0  0  0
  -25.1304  -36.1909   25.0813 H   0  0  0  0  0  0
  -20.9966  -28.3261   24.1430 H   0  0  0  0  0  0
  -20.5734  -26.2290   23.3605 H   0  0  0  0  0  0
  -21.6630  -26.7474   22.1183 H   0  0  0  0  0  0
  -19.6912  -25.6326   21.1229 H   0  0  0  0  0  0
  -19.6673  -27.3249   20.6797 H   0  0  0  0  0  0
  -17.4198  -26.6707   21.4040 H   0  0  0  0  0  0
  -18.0313  -26.0052   22.9031 H   0  0  0  0  0  0
  -19.7941  -30.7313   24.2222 H   0  0  0  0  0  0
  -17.5009  -31.6258   24.5208 H   0  0  0  0  0  0
  -15.5353  -30.2994   23.7660 H   0  0  0  0  0  0
  -15.8670  -28.0856   22.7012 H   0  0  0  0  0  0
  -24.5954  -30.6965   25.7729 H   0  0  0  0  0  0
  -24.8856  -32.2828   26.4772 H   0  0  0  0  0  0
  -25.8057  -30.8904   27.0200 H   0  0  0  0  0  0
  -26.2853  -29.6751   24.1135 H   0  0  0  0  0  0
  -27.4027  -29.7193   25.4562 H   0  0  0  0  0  0
  -27.8719  -30.4246   23.9273 H   0  0  0  0  0  0
  -27.2687  -33.3593   26.1973 H   0  0  0  0  0  0
  -28.3890  -32.6768   25.0288 H   0  0  0  0  0  0
  -28.0681  -31.8410   26.5402 H   0  0  0  0  0  0
  -28.2583  -38.0102   24.7514 H   0  0  0  0  0  0
  -28.1054  -36.2631   24.6269 H   0  0  0  0  0  0
  -27.2271  -37.1423   25.8857 H   0  0  0  0  0  0
  -20.9380  -29.8774   21.6915 H   0  0  0  0  0  0
  -26.0150  -38.2856   24.1434 H   0  0  0  0  0  0
  -31.7427  -17.3198   21.3115 H   0  0  0  0  0  0
  -27.8472  -17.4175   19.5034 H   0  0  0  0  0  0
  -29.9322  -20.5499   25.3572 H   0  0  0  0  0  0
  -30.1108  -18.9428   24.6635 H   0  0  0  0  0  0
  -29.6335  -20.3027   23.6448 H   0  0  0  0  0  0
  -28.8745  -15.3887   18.0656 H   0  0  0  0  0  0
  -30.6280  -15.1600   17.9488 H   0  0  0  0  0  0
  -29.9686  -16.7495   17.9907 H   0  0  0  0  0  0
  -32.3255  -20.0853   25.0938 H   0  0  0  0  0  0
  -31.8909  -21.3667   23.9970 H   0  0  0  0  0  0
  -30.0758  -24.1300   19.9898 H   0  0  0  0  0  0
  -29.3826  -24.1121   21.5821 H   0  0  0  0  0  0
  -32.1614  -18.4162   23.2069 H   0  0  0  0  0  0
  -33.4169  -19.6080   23.0110 H   0  0  0  0  0  0
  -27.1622  -24.7707   20.6470 H   0  0  0  0  0  0
  -27.8282  -24.7876   19.0314 H   0  0  0  0  0  0
  -28.6347  -22.1904   19.2914 H   0  0  0  0  0  0
  -27.8240  -22.1971   20.8445 H   0  0  0  0  0  0
  1 25  1  0  0  0
  1 30  2  0  0  0
  1 84  1  0  0  0
  2  3  1  0  0  0
  2 25  1  0  0  0
  2 88  1  0  0  0
  2 89  1  0  0  0
  3  4  1  0  0  0
  3 90  1  0  0  0
  3 91  1  0  0  0
  4  5  1  0  0  0
  4 92  1  0  0  0
  4 93  1  0  0  0
  5  6  1  0  0  0
  5 26  1  0  0  0
  5 94  1  0  0  0
  6 25  1  0  0  0
  6 95  1  0  0  0
  6 96  1  0  0  0
  7  8  2  0  0  0
  7 26  1  0  0  0
  7 29  1  0  0  0
  8  9  1  0  0  0
  8 22  1  0  0  0
  9 10  1  0  0  0
  9 27  2  0  0  0
 10 11  2  0  0  0
 10 15  1  0  0  0
 11 12  1  0  0  0
 11 97  1  0  0  0
 12 13  2  0  0  0
 12 98  1  0  0  0
 13 14  1  0  0  0
 13 31  1  0  0  0
 14 15  2  0  0  0
 14 99  1  0  0  0
 15100  1  0  0  0
 16 17  2  0  0  0
 16 21  1  0  0  0
 16 31  1  0  0  0
 17 18  1  0  0  0
 17101  1  0  0  0
 18 19  2  0  0  0
 18102  1  0  0  0
 19 20  1  0  0  0
 19 24  1  0  0  0
 20 21  2  0  0  0
 20103  1  0  0  0
 21 23  1  0  0  0
 22 28  1  0  0  0
 22 32  2  0  0  0
 26 27  1  0  0  0
 28104  1  0  0  0
 28105  1  0  0  0
 29106  1  0  0  0
 29107  1  0  0  0
 33 34  1  0  0  0
 33 66  1  0  0  0
 33 70  2  0  0  0
 34 36  1  0  0  0
 34 59  1  0  0  0
 34108  1  0  0  0
 35 44  2  0  0  0
 35 45  1  0  0  0
 35 68  1  0  0  0
 36 56  1  0  0  0
 36109  1  0  0  0
 37 39  1  0  0  0
 37 47  1  0  0  0
 37 66  1  0  0  0
 37110  1  0  0  0
 38 43  2  0  0  0
 38 46  1  0  0  0
 38 47  1  0  0  0
 39 64  1  0  0  0
 39 67  2  0  0  0
 40 52  1  0  0  0
 40 53  2  0  0  0
 40 58  1  0  0  0
 41111  1  0  0  0
 41112  1  0  0  0
 41113  1  0  0  0
 41 48  1  0  0  0
 42 43  1  0  0  0
 42 66  1  0  0  0
 42114  1  0  0  0
 42115  1  0  0  0
 43 44  1  0  0  0
 44116  1  0  0  0
 45 46  2  0  0  0
 45117  1  0  0  0
 46118  1  0  0  0
 47119  1  0  0  0
 47120  1  0  0  0
 48 56  1  0  0  0
 48 65  1  0  0  0
 48121  1  0  0  0
 49 50  1  0  0  0
 49 53  1  0  0  0
 49 64  1  0  0  0
 49122  1  0  0  0
 50 51  1  0  0  0
 50123  1  0  0  0
 50124  1  0  0  0
 51 52  1  0  0  0
 51125  1  0  0  0
 51126  1  0  0  0
 52127  1  0  0  0
 52128  1  0  0  0
 53 54  1  0  0  0
 54 55  2  0  0  0
 54129  1  0  0  0
 55 57  1  0  0  0
 55130  1  0  0  0
 56 69  2  0  0  0
 57 58  2  0  0  0
 57131  1  0  0  0
 58132  1  0  0  0
 59 60  1  0  0  0
 59 61  1  0  0  0
 59 62  1  0  0  0
 60133  1  0  0  0
 60134  1  0  0  0
 60135  1  0  0  0
 61136  1  0  0  0
 61137  1  0  0  0
 61138  1  0  0  0
 62139  1  0  0  0
 62140  1  0  0  0
 62141  1  0  0  0
 63 65  1  0  0  0
 63142  1  0  0  0
 63143  1  0  0  0
 63144  1  0  0  0
 64145  1  0  0  0
 65146  1  0  0  0
 68 82  1  0  0  0
 71 73  2  0  0  0
 71 74  1  0  0  0
 71147  1  0  0  0
 72 73  1  0  0  0
 72 76  2  0  0  0
 72148  1  0  0  0
 73 84  1  0  0  0
 74 75  2  0  0  0
 74 85  1  0  0  0
 75 76  1  0  0  0
 75 86  1  0  0  0
 76 87  1  0  0  0
 77 79  1  0  0  0
 77149  1  0  0  0
 77150  1  0  0  0
 77151  1  0  0  0
 78 84  1  0  0  0
 78152  1  0  0  0
 78153  1  0  0  0
 78154  1  0  0  0
 79 81  1  0  0  0
 79155  1  0  0  0
 79156  1  0  0  0
 80 82  1  0  0  0
 80 83  1  0  0  0
 80157  1  0  0  0
 80158  1  0  0  0
 81 85  1  0  0  0
 81159  1  0  0  0
 81160  1  0  0  0
 82161  1  0  0  0
 82162  1  0  0  0
 83 86  1  0  0  0
 83163  1  0  0  0
 83164  1  0  0  0
M  ISO  4   1 100  68 101  82 101  84 100
M  END
> <chiral flag>
0

> <version>
0

> <s_m_source_file>
/data/baiqing/PycharmProjects/Reinvent-master-3.2/result/LINK_invent/BTK/process_docking_weight1_custom_product_contain_oxygen_bond_distance_aromatic_linkinvent_7_9_3/rearranged_h_0116.sdf

> <i_m_source_file_index>
21

> <r_mmod_Potential_Energy-OPLS-2005>
357.081359863281

> <r_mmod_Stretch_Energy-OPLS-2005>
83.7264556884766

> <r_mmod_Bend_Energy-OPLS-2005>
162.239181518555

> <r_mmod_Torsional_Energy-OPLS-2005>
335.371826171875

> <r_mmod_Improper_Torsional_Energy-OPLS-2005>
27.2590827941895

> <r_mmod_Van_der_Waal_Energy-OPLS-2005>
151.842895507812

> <r_mmod_Electrostatic_Energy-OPLS-2005>
-279.182708740234

> <r_mmod_Solvation_Energy-OPLS-2005>
-196.760116577148

> <b_mmod_Minimization_Converged-OPLS-2005>
0

> <r_mmod_RMS_Derivative-OPLS-2005>
2.37185287475586

$$$$
21
                    3D
 Structure written by MMmdl.
165173  0  0  1  0            999 V2000
  -30.6721  -14.4793   20.5278 C   0  0  0  0  0  0
  -30.4264  -12.2937   19.4375 C   0  0  0  0  0  0
  -29.5014  -12.4986   18.2173 C   0  0  0  0  0  0
  -28.0209  -12.3564   18.6251 C   0  0  0  0  0  0
  -27.6627  -13.1958   19.8807 C   0  0  2  0  0  0
  -28.7031  -12.9793   21.0073 C   0  0  0  0  0  0
  -25.2590  -13.8134   20.5680 C   0  0  0  0  0  0
  -24.1825  -13.0416   20.9169 C   0  0  0  0  0  0
  -24.6366  -11.6879   20.8726 C   0  0  0  0  0  0
  -23.9035  -10.4269   21.0402 C   0  0  0  0  0  0
  -24.3593   -9.4184   21.9176 C   0  0  0  0  0  0
  -23.6272   -8.2220   22.0753 C   0  0  0  0  0  0
  -22.4258   -8.0259   21.3539 C   0  0  0  0  0  0
  -21.9881   -9.0229   20.4642 C   0  0  0  0  0  0
  -22.7209  -10.2110   20.3045 C   0  0  0  0  0  0
  -21.6834   -6.0725   22.5278 C   0  0  0  0  0  0
  -21.4003   -6.5636   23.8211 C   0  0  0  0  0  0
  -21.3661   -5.6794   24.9175 C   0  0  0  0  0  0
  -21.6045   -4.3056   24.7225 C   0  0  0  0  0  0
  -21.8818   -3.8142   23.4347 C   0  0  0  0  0  0
  -21.9181   -4.6956   22.3403 C   0  0  0  0  0  0
  -22.7856  -13.5220   21.1838 C   0  0  0  0  0  0
  -22.1649   -4.2149   21.0981 F   0  0  0  0  0  0
  -21.5634   -3.4542   25.7739 F   0  0  0  0  0  0
  -30.0414  -13.2753   20.4642 N   0  0  0  0  0  0
  -26.3012  -12.9273   20.3373 N   0  0  0  0  0  0
  -25.9290  -11.6440   20.5767 N   0  0  0  0  0  0
  -22.0501  -12.8223   22.0412 N   0  0  0  0  0  0
  -25.4320  -15.1859   20.4123 N   0  0  0  0  0  0
  -31.7999  -14.6781   20.0683 O   0  0  0  0  0  0
  -21.6615   -6.8863   21.4238 O   0  0  0  0  0  0
  -22.3540  -14.5522   20.6689 O   0  0  0  0  0  0
  -24.6155  -31.8688   23.2103 C   0  0  0  0  0  0
  -25.9040  -32.4828   23.8400 C   0  0  1  0  0  0
  -27.2287  -27.4305   20.0982 C   0  0  0  0  0  0
  -25.5899  -33.8629   24.2331 N   0  0  0  0  0  0
  -23.4032  -30.4923   21.5522 C   0  0  2  0  0  0
  -24.8479  -28.9600   20.1145 C   0  0  0  0  0  0
  -22.7413  -29.4660   22.5000 C   0  0  0  0  0  0
  -18.0279  -28.1376   22.8502 C   0  0  0  0  0  0
  -24.1488  -36.7318   23.2637 C   0  0  0  0  0  0
  -25.9332  -30.8321   21.3644 C   0  0  0  0  0  0
  -26.0098  -29.4676   20.7102 C   0  0  0  0  0  0
  -27.2054  -28.7115   20.6967 C   0  0  0  0  0  0
  -26.0531  -26.9465   19.4818 C   0  0  0  0  0  0
  -24.8651  -27.6991   19.4954 C   0  0  0  0  0  0
  -23.6105  -29.8267   20.1663 C   0  0  0  0  0  0
  -25.4107  -36.3118   24.0342 C   0  0  1  0  0  0
  -20.5868  -28.3657   23.1326 C   0  0  2  0  0  0
  -20.6770  -26.9396   22.5418 C   0  0  0  0  0  0
  -19.5747  -26.6384   21.5216 C   0  0  0  0  0  0
  -18.1926  -26.7925   22.1629 C   0  0  0  0  0  0
  -19.1528  -28.8834   23.2913 C   0  0  0  0  0  0
  -18.9453  -30.1443   23.8917 C   0  0  0  0  0  0
  -17.6454  -30.6582   24.0565 C   0  0  0  0  0  0
  -25.9036  -34.9480   23.5131 C   0  0  0  0  0  0
  -16.5345  -29.9083   23.6327 C   0  0  0  0  0  0
  -16.7268  -28.6500   23.0350 C   0  0  0  0  0  0
  -26.4465  -31.6605   25.0724 C   0  0  0  0  0  0
  -25.3731  -31.3710   26.1470 C   0  0  0  0  0  0
  -27.0280  -30.3049   24.6081 C   0  0  0  0  0  0
  -27.6046  -32.4313   25.7483 C   0  0  0  0  0  0
  -27.5588  -37.1812   24.8465 C   0  0  0  0  0  0
  -21.4142  -29.3025   22.3732 N   0  0  0  0  0  0
  -26.4298  -37.3798   23.9409 N   0  0  0  0  0  0
  -24.6690  -31.0782   22.1006 N   0  0  0  0  0  0
  -23.4187  -28.8199   23.3036 O   0  0  0  0  0  0
  -28.3839  -26.6756   20.1008 O   0  0  0  0  0  0
  -26.5596  -34.8931   22.4693 O   0  0  0  0  0  0
  -23.5345  -32.1429   23.7506 O   0  0  0  0  0  0
  -29.3274  -18.6680   21.1611 C   0  0  0  0  0  0
  -30.8488  -20.1292   19.2954 C   0  0  0  0  0  0
  -29.9093  -17.9840   20.0735 C   0  0  0  0  0  0
  -30.7071  -18.7156   19.1477 C   0  0  0  0  0  0
  -30.2185  -20.8105   20.3660 C   0  0  0  0  0  0
  -29.4728  -20.0611   21.3108 C   0  0  0  0  0  0
  -31.3802  -21.0186   17.0156 C   0  0  0  0  0  0
  -30.9767  -17.4231   15.5765 C   0  0  0  0  0  0
  -31.6043  -20.9613   18.3389 C   0  0  0  0  0  0
  -30.5237  -17.7136   16.8057 C   0  0  0  0  0  0
  -31.4146  -17.9840   18.0048 C   0  0  0  0  0  0
  -29.5227  -16.5161   19.8373 C   0  0  0  0  0  0
  -29.4204  -24.4231   20.2714 C   0  0  0  0  0  0
  -28.2406  -25.3474   20.6379 C   0  0  0  0  0  0
  -29.2731  -22.9910   20.8417 C   0  0  0  0  0  0
  -29.8665  -15.5068   20.8494 N   0  0  0  0  0  0
  -30.3797  -22.1879   20.4273 O   0  0  0  0  0  0
  -28.8788  -20.6658   22.3682 F   0  0  0  0  0  0
  -31.4722  -12.3896   19.1401 H   0  0  0  0  0  0
  -30.3198  -11.2810   19.8296 H   0  0  0  0  0  0
  -29.7443  -11.7770   17.4363 H   0  0  0  0  0  0
  -29.6719  -13.4855   17.7823 H   0  0  0  0  0  0
  -27.8340  -11.3000   18.8218 H   0  0  0  0  0  0
  -27.3706  -12.6282   17.7924 H   0  0  0  0  0  0
  -27.7020  -14.2399   19.5769 H   0  0  0  0  0  0
  -28.6701  -11.9468   21.3603 H   0  0  0  0  0  0
  -28.4702  -13.5916   21.8795 H   0  0  0  0  0  0
  -25.2739   -9.5669   22.4750 H   0  0  0  0  0  0
  -23.9989   -7.4610   22.7466 H   0  0  0  0  0  0
  -21.0813   -8.8727   19.8955 H   0  0  0  0  0  0
  -22.3652  -10.9640   19.6154 H   0  0  0  0  0  0
  -21.1995   -7.6146   23.9717 H   0  0  0  0  0  0
  -21.1491   -6.0524   25.9082 H   0  0  0  0  0  0
  -22.0599   -2.7604   23.2845 H   0  0  0  0  0  0
  -22.4104  -11.9883   22.4807 H   0  0  0  0  0  0
  -21.1121  -13.1255   22.2612 H   0  0  0  0  0  0
  -24.6686  -15.8435   20.5302 H   0  0  0  0  0  0
  -26.2864  -15.6276   20.1014 H   0  0  0  0  0  0
  -26.7113  -32.5532   23.1169 H   0  0  0  0  0  0
  -25.0055  -33.9796   25.0482 H   0  0  0  0  0  0
  -22.6921  -31.3098   21.4152 H   0  0  0  0  0  0
  -23.3750  -35.9654   23.3310 H   0  0  0  0  0  0
  -24.3584  -36.8916   22.2049 H   0  0  0  0  0  0
  -23.7240  -37.6530   23.6636 H   0  0  0  0  0  0
  -26.0467  -31.5989   20.5971 H   0  0  0  0  0  0
  -26.8211  -30.8844   21.9820 H   0  0  0  0  0  0
  -28.1033  -29.0977   21.1585 H   0  0  0  0  0  0
  -26.0471  -25.9911   18.9766 H   0  0  0  0  0  0
  -23.9748  -27.3064   19.0236 H   0  0  0  0  0  0
  -23.7183  -30.6023   19.4073 H   0  0  0  0  0  0
  -22.7338  -29.2475   19.8704 H   0  0  0  0  0  0
  -25.1284  -36.1992   25.0837 H   0  0  0  0  0  0
  -20.9973  -28.3215   24.1439 H   0  0  0  0  0  0
  -20.5682  -26.2258   23.3598 H   0  0  0  0  0  0
  -21.6640  -26.7442   22.1198 H   0  0  0  0  0  0
  -19.6904  -25.6297   21.1234 H   0  0  0  0  0  0
  -19.6691  -27.3206   20.6755 H   0  0  0  0  0  0
  -17.4198  -26.6681   21.4028 H   0  0  0  0  0  0
  -18.0325  -26.0060   22.9017 H   0  0  0  0  0  0
  -19.7925  -30.7260   24.2290 H   0  0  0  0  0  0
  -17.5004  -31.6266   24.5158 H   0  0  0  0  0  0
  -15.5346  -30.2989   23.7637 H   0  0  0  0  0  0
  -15.8669  -28.0824   22.7053 H   0  0  0  0  0  0
  -24.5909  -30.7054   25.7803 H   0  0  0  0  0  0
  -24.8918  -32.2864   26.4918 H   0  0  0  0  0  0
  -25.8086  -30.8877   27.0224 H   0  0  0  0  0  0
  -26.2812  -29.6834   24.1124 H   0  0  0  0  0  0
  -27.4044  -29.7258   25.4523 H   0  0  0  0  0  0
  -27.8654  -30.4373   23.9227 H   0  0  0  0  0  0
  -27.2673  -33.3603   26.2092 H   0  0  0  0  0  0
  -28.3840  -32.6888   25.0298 H   0  0  0  0  0  0
  -28.0729  -31.8414   26.5371 H   0  0  0  0  0  0
  -28.2608  -38.0109   24.7519 H   0  0  0  0  0  0
  -28.1084  -36.2643   24.6283 H   0  0  0  0  0  0
  -27.2310  -37.1451   25.8870 H   0  0  0  0  0  0
  -20.9299  -29.8746   21.6958 H   0  0  0  0  0  0
  -26.0196  -38.2883   24.1401 H   0  0  0  0  0  0
  -28.7199  -18.1268   21.8715 H   0  0  0  0  0  0
  -31.9821  -21.6482   16.3763 H   0  0  0  0  0  0
  -30.5916  -20.4454   16.5496 H   0  0  0  0  0  0
  -30.2952  -17.2293   14.7604 H   0  0  0  0  0  0
  -32.0352  -17.3739   15.3647 H   0  0  0  0  0  0
  -32.4020  -21.5593   18.7590 H   0  0  0  0  0  0
  -29.4569  -17.7438   16.9793 H   0  0  0  0  0  0
  -31.7947  -17.0319   18.3757 H   0  0  0  0  0  0
  -32.3111  -18.5164   17.6864 H   0  0  0  0  0  0
  -29.8108  -16.1634   18.8486 H   0  0  0  0  0  0
  -28.4339  -16.5167   19.7819 H   0  0  0  0  0  0
  -30.3522  -24.8647   20.6268 H   0  0  0  0  0  0
  -29.4996  -24.3666   19.1859 H   0  0  0  0  0  0
  -28.1643  -25.4273   21.7230 H   0  0  0  0  0  0
  -27.3255  -24.8601   20.3038 H   0  0  0  0  0  0
  -28.3370  -22.5531   20.4909 H   0  0  0  0  0  0
  -29.2325  -23.0311   21.9303 H   0  0  0  0  0  0
  -29.0818  -15.2335   21.4205 H   0  0  0  0  0  0
  1 25  1  0  0  0
  1 30  2  0  0  0
  1 86  1  0  0  0
  2  3  1  0  0  0
  2 25  1  0  0  0
  2 89  1  0  0  0
  2 90  1  0  0  0
  3  4  1  0  0  0
  3 91  1  0  0  0
  3 92  1  0  0  0
  4  5  1  0  0  0
  4 93  1  0  0  0
  4 94  1  0  0  0
  5  6  1  0  0  0
  5 26  1  0  0  0
  5 95  1  0  0  0
  6 25  1  0  0  0
  6 96  1  0  0  0
  6 97  1  0  0  0
  7  8  2  0  0  0
  7 26  1  0  0  0
  7 29  1  0  0  0
  8  9  1  0  0  0
  8 22  1  0  0  0
  9 10  1  0  0  0
  9 27  2  0  0  0
 10 11  2  0  0  0
 10 15  1  0  0  0
 11 12  1  0  0  0
 11 98  1  0  0  0
 12 13  2  0  0  0
 12 99  1  0  0  0
 13 14  1  0  0  0
 13 31  1  0  0  0
 14 15  2  0  0  0
 14100  1  0  0  0
 15101  1  0  0  0
 16 17  2  0  0  0
 16 21  1  0  0  0
 16 31  1  0  0  0
 17 18  1  0  0  0
 17102  1  0  0  0
 18 19  2  0  0  0
 18103  1  0  0  0
 19 20  1  0  0  0
 19 24  1  0  0  0
 20 21  2  0  0  0
 20104  1  0  0  0
 21 23  1  0  0  0
 22 28  1  0  0  0
 22 32  2  0  0  0
 26 27  1  0  0  0
 28105  1  0  0  0
 28106  1  0  0  0
 29107  1  0  0  0
 29108  1  0  0  0
 33 34  1  0  0  0
 33 66  1  0  0  0
 33 70  2  0  0  0
 34 36  1  0  0  0
 34 59  1  0  0  0
 34109  1  0  0  0
 35 44  2  0  0  0
 35 45  1  0  0  0
 35 68  1  0  0  0
 36 56  1  0  0  0
 36110  1  0  0  0
 37 39  1  0  0  0
 37 47  1  0  0  0
 37 66  1  0  0  0
 37111  1  0  0  0
 38 43  2  0  0  0
 38 46  1  0  0  0
 38 47  1  0  0  0
 39 64  1  0  0  0
 39 67  2  0  0  0
 40 52  1  0  0  0
 40 53  2  0  0  0
 40 58  1  0  0  0
 41112  1  0  0  0
 41113  1  0  0  0
 41114  1  0  0  0
 41 48  1  0  0  0
 42 43  1  0  0  0
 42 66  1  0  0  0
 42115  1  0  0  0
 42116  1  0  0  0
 43 44  1  0  0  0
 44117  1  0  0  0
 45 46  2  0  0  0
 45118  1  0  0  0
 46119  1  0  0  0
 47120  1  0  0  0
 47121  1  0  0  0
 48 56  1  0  0  0
 48 65  1  0  0  0
 48122  1  0  0  0
 49 50  1  0  0  0
 49 53  1  0  0  0
 49 64  1  0  0  0
 49123  1  0  0  0
 50 51  1  0  0  0
 50124  1  0  0  0
 50125  1  0  0  0
 51 52  1  0  0  0
 51126  1  0  0  0
 51127  1  0  0  0
 52128  1  0  0  0
 52129  1  0  0  0
 53 54  1  0  0  0
 54 55  2  0  0  0
 54130  1  0  0  0
 55 57  1  0  0  0
 55131  1  0  0  0
 56 69  2  0  0  0
 57 58  2  0  0  0
 57132  1  0  0  0
 58133  1  0  0  0
 59 60  1  0  0  0
 59 61  1  0  0  0
 59 62  1  0  0  0
 60134  1  0  0  0
 60135  1  0  0  0
 60136  1  0  0  0
 61137  1  0  0  0
 61138  1  0  0  0
 61139  1  0  0  0
 62140  1  0  0  0
 62141  1  0  0  0
 62142  1  0  0  0
 63 65  1  0  0  0
 63143  1  0  0  0
 63144  1  0  0  0
 63145  1  0  0  0
 64146  1  0  0  0
 65147  1  0  0  0
 68 84  1  0  0  0
 71 73  2  0  0  0
 71 76  1  0  0  0
 71148  1  0  0  0
 72 74  2  0  0  0
 72 75  1  0  0  0
 72 79  1  0  0  0
 73 74  1  0  0  0
 73 82  1  0  0  0
 74 81  1  0  0  0
 75 76  2  0  0  0
 75 87  1  0  0  0
 76 88  1  0  0  0
 77 79  2  0  0  0
 77149  1  0  0  0
 77150  1  0  0  0
 78 80  2  0  0  0
 78151  1  0  0  0
 78152  1  0  0  0
 79153  1  0  0  0
 80 81  1  0  0  0
 80154  1  0  0  0
 81155  1  0  0  0
 81156  1  0  0  0
 82 86  1  0  0  0
 82157  1  0  0  0
 82158  1  0  0  0
 83 84  1  0  0  0
 83 85  1  0  0  0
 83159  1  0  0  0
 83160  1  0  0  0
 84161  1  0  0  0
 84162  1  0  0  0
 85 87  1  0  0  0
 85163  1  0  0  0
 85164  1  0  0  0
 86165  1  0  0  0
M  ISO  4   1 100  68 101  84 101  86 100
M  END
> <chiral flag>
0

> <version>
0

> <s_m_source_file>
/data/baiqing/PycharmProjects/Reinvent-master-3.2/result/LINK_invent/BTK/process_docking_weight1_custom_product_contain_oxygen_bond_distance_aromatic_linkinvent_7_9_3/rearranged_h_0116.sdf

> <i_m_source_file_index>
22

> <r_mmod_Potential_Energy-OPLS-2005>
23.6458969116211

> <r_mmod_Stretch_Energy-OPLS-2005>
40.2669906616211

> <r_mmod_Bend_Energy-OPLS-2005>
103.549308776855

> <r_mmod_Torsional_Energy-OPLS-2005>
299.914215087891

> <r_mmod_Improper_Torsional_Energy-OPLS-2005>
11.9890518188477

> <r_mmod_Van_der_Waal_Energy-OPLS-2005>
157.486282348633

> <r_mmod_Electrostatic_Energy-OPLS-2005>
-391.161224365234

> <r_mmod_Solvation_Energy-OPLS-2005>
-212.493011474609

> <b_mmod_Minimization_Converged-OPLS-2005>
0

> <r_mmod_RMS_Derivative-OPLS-2005>
1.37509775161743

$$$$
22
                    3D
 Structure written by MMmdl.
154162  0  0  1  0            999 V2000
  -30.5647  -14.7810   20.4251 C   0  0  0  0  0  0
  -30.4699  -12.4838   19.4731 C   0  0  0  0  0  0
  -29.5243  -12.5024   18.2460 C   0  0  0  0  0  0
  -28.0615  -12.2803   18.6714 C   0  0  0  0  0  0
  -27.6552  -13.1974   19.8523 C   0  0  2  0  0  0
  -28.7037  -13.1359   20.9865 C   0  0  0  0  0  0
  -25.2660  -13.8085   20.5737 C   0  0  0  0  0  0
  -24.1897  -13.0355   20.9218 C   0  0  0  0  0  0
  -24.6432  -11.6844   20.8798 C   0  0  0  0  0  0
  -23.9088  -10.4227   21.0469 C   0  0  0  0  0  0
  -24.3611   -9.4117   21.9223 C   0  0  0  0  0  0
  -23.6250   -8.2177   22.0777 C   0  0  0  0  0  0
  -22.4236   -8.0266   21.3550 C   0  0  0  0  0  0
  -21.9918   -9.0260   20.4651 C   0  0  0  0  0  0
  -22.7290  -10.2105   20.3075 C   0  0  0  0  0  0
  -21.6816   -6.0736   22.5298 C   0  0  0  0  0  0
  -21.3982   -6.5639   23.8234 C   0  0  0  0  0  0
  -21.3675   -5.6811   24.9218 C   0  0  0  0  0  0
  -21.6077   -4.3077   24.7269 C   0  0  0  0  0  0
  -21.8806   -3.8157   23.4381 C   0  0  0  0  0  0
  -21.9157   -4.6966   22.3426 C   0  0  0  0  0  0
  -22.7897  -13.5181   21.1866 C   0  0  0  0  0  0
  -22.1627   -4.2141   21.0990 F   0  0  0  0  0  0
  -21.5679   -3.4575   25.7790 F   0  0  0  0  0  0
  -30.0042  -13.5208   20.4144 N   0  0  0  0  0  0
  -26.3035  -12.9217   20.3309 N   0  0  0  0  0  0
  -25.9368  -11.6399   20.5830 N   0  0  0  0  0  0
  -22.0512  -12.8164   22.0410 N   0  0  0  0  0  0
  -25.4444  -15.1782   20.4162 N   0  0  0  0  0  0
  -31.7586  -14.9090   20.1210 O   0  0  0  0  0  0
  -21.6572   -6.8880   21.4243 O   0  0  0  0  0  0
  -22.3604  -14.5528   20.6800 O   0  0  0  0  0  0
  -24.6211  -31.8611   23.2023 C   0  0  0  0  0  0
  -25.9096  -32.4765   23.8313 C   0  0  1  0  0  0
  -27.2062  -27.3249   20.0907 C   0  0  0  0  0  0
  -25.5957  -33.8571   24.2254 N   0  0  0  0  0  0
  -23.4084  -30.4847   21.5482 C   0  0  2  0  0  0
  -24.8511  -28.9465   20.1026 C   0  0  0  0  0  0
  -22.7381  -29.4656   22.4996 C   0  0  0  0  0  0
  -18.0274  -28.1353   22.8493 C   0  0  0  0  0  0
  -24.1529  -36.7259   23.2629 C   0  0  0  0  0  0
  -25.9505  -30.7893   21.3781 C   0  0  0  0  0  0
  -26.0209  -29.4224   20.7070 C   0  0  0  0  0  0
  -27.1987  -28.6212   20.6949 C   0  0  0  0  0  0
  -26.0116  -26.8942   19.4740 C   0  0  0  0  0  0
  -24.8510  -27.6902   19.4783 C   0  0  0  0  0  0
  -23.6103  -29.8138   20.1646 C   0  0  0  0  0  0
  -25.4165  -36.3062   24.0304 C   0  0  1  0  0  0
  -20.5864  -28.3674   23.1310 C   0  0  2  0  0  0
  -20.6799  -26.9402   22.5432 C   0  0  0  0  0  0
  -19.5797  -26.6379   21.5220 C   0  0  0  0  0  0
  -18.1945  -26.7916   22.1573 C   0  0  0  0  0  0
  -19.1517  -28.8827   23.2904 C   0  0  0  0  0  0
  -18.9436  -30.1445   23.8902 C   0  0  0  0  0  0
  -17.6435  -30.6575   24.0562 C   0  0  0  0  0  0
  -25.9085  -34.9432   23.5081 C   0  0  0  0  0  0
  -16.5337  -29.9047   23.6351 C   0  0  0  0  0  0
  -16.7263  -28.6464   23.0379 C   0  0  0  0  0  0
  -26.4479  -31.6557   25.0699 C   0  0  0  0  0  0
  -25.3703  -31.3699   26.1426 C   0  0  0  0  0  0
  -27.0289  -30.2937   24.6209 C   0  0  0  0  0  0
  -27.6035  -32.4279   25.7474 C   0  0  0  0  0  0
  -27.5595  -37.1808   24.8453 C   0  0  0  0  0  0
  -21.4111  -29.3025   22.3687 N   0  0  0  0  0  0
  -26.4334  -37.3752   23.9365 N   0  0  0  0  0  0
  -24.6782  -31.0595   22.0989 N   0  0  0  0  0  0
  -23.4114  -28.8228   23.3103 O   0  0  0  0  0  0
  -28.3292  -26.4905   20.1639 O   0  0  0  0  0  0
  -26.5595  -34.8885   22.4617 O   0  0  0  0  0  0
  -23.5402  -32.1411   23.7402 O   0  0  0  0  0  0
  -27.9666  -19.1442   20.0597 C   0  0  0  0  0  0
  -27.7639  -20.5637   19.8615 C   0  0  0  0  0  0
  -29.2801  -18.7189   20.2289 C   0  0  0  0  0  0
  -28.9223  -21.3101   19.9147 C   0  0  0  0  0  0
  -29.7871  -17.3143   20.3945 C   0  0  0  0  0  0
  -29.0770  -22.7697   19.7070 C   0  0  0  0  0  0
  -29.6196  -15.9428   20.6347 C   0  0  0  0  0  0
  -28.2227  -23.8498   19.8008 C   0  0  0  0  0  0
  -25.7556  -22.3593   17.6582 C   0  0  0  0  0  0
  -28.5013  -25.3123   19.2879 C   0  0  0  0  0  0
  -26.1290  -20.9865   18.2381 C   0  0  0  0  0  0
  -26.5581  -21.1196   19.5967 O   0  0  0  0  0  0
  -30.2948  -20.1862   20.1726 S   0  0  0  0  0  0
  -31.5023  -12.6539   19.1564 H   0  0  0  0  0  0
  -30.4620  -11.5161   19.9745 H   0  0  0  0  0  0
  -29.8266  -11.7432   17.5266 H   0  0  0  0  0  0
  -29.6085  -13.4640   17.7325 H   0  0  0  0  0  0
  -27.9638  -11.2323   18.9605 H   0  0  0  0  0  0
  -27.3899  -12.4242   17.8249 H   0  0  0  0  0  0
  -27.6506  -14.2113   19.4515 H   0  0  0  0  0  0
  -28.7625  -12.1441   21.4314 H   0  0  0  0  0  0
  -28.4247  -13.7887   21.8146 H   0  0  0  0  0  0
  -25.2765   -9.5549   22.4810 H   0  0  0  0  0  0
  -23.9952   -7.4528   22.7469 H   0  0  0  0  0  0
  -21.0882   -8.8811   19.8893 H   0  0  0  0  0  0
  -22.3823  -10.9659   19.6184 H   0  0  0  0  0  0
  -21.1918   -7.6126   23.9749 H   0  0  0  0  0  0
  -21.1560   -6.0543   25.9126 H   0  0  0  0  0  0
  -22.0561   -2.7592   23.2927 H   0  0  0  0  0  0
  -22.4076  -11.9736   22.4658 H   0  0  0  0  0  0
  -21.1173  -13.1307   22.2754 H   0  0  0  0  0  0
  -24.6996  -15.8507   20.5637 H   0  0  0  0  0  0
  -26.3061  -15.6002   20.0953 H   0  0  0  0  0  0
  -26.7145  -32.5402   23.1034 H   0  0  0  0  0  0
  -25.0253  -33.9745   25.0502 H   0  0  0  0  0  0
  -22.7062  -31.3100   21.4094 H   0  0  0  0  0  0
  -23.3834  -35.9551   23.3257 H   0  0  0  0  0  0
  -24.3613  -36.8921   22.2051 H   0  0  0  0  0  0
  -23.7259  -37.6424   23.6714 H   0  0  0  0  0  0
  -26.1014  -31.5668   20.6288 H   0  0  0  0  0  0
  -26.8207  -30.8138   22.0201 H   0  0  0  0  0  0
  -28.0983  -28.9849   21.1732 H   0  0  0  0  0  0
  -25.9358  -25.9207   19.0143 H   0  0  0  0  0  0
  -23.9465  -27.3229   19.0130 H   0  0  0  0  0  0
  -23.6745  -30.5828   19.3930 H   0  0  0  0  0  0
  -22.7384  -29.2126   19.9035 H   0  0  0  0  0  0
  -25.1383  -36.1906   25.0797 H   0  0  0  0  0  0
  -20.9950  -28.3262   24.1430 H   0  0  0  0  0  0
  -20.5789  -26.2232   23.3600 H   0  0  0  0  0  0
  -21.6665  -26.7499   22.1195 H   0  0  0  0  0  0
  -19.6996  -25.6305   21.1216 H   0  0  0  0  0  0
  -19.6787  -27.3219   20.6786 H   0  0  0  0  0  0
  -17.4256  -26.6732   21.3916 H   0  0  0  0  0  0
  -18.0295  -26.0023   22.8914 H   0  0  0  0  0  0
  -19.7919  -30.7288   24.2229 H   0  0  0  0  0  0
  -17.4984  -31.6264   24.5152 H   0  0  0  0  0  0
  -15.5335  -30.2949   23.7701 H   0  0  0  0  0  0
  -15.8651  -28.0792   22.7095 H   0  0  0  0  0  0
  -24.5985  -30.6921   25.7746 H   0  0  0  0  0  0
  -24.8818  -32.2873   26.4720 H   0  0  0  0  0  0
  -25.8065  -30.8986   27.0254 H   0  0  0  0  0  0
  -26.2858  -29.6695   24.1239 H   0  0  0  0  0  0
  -27.3892  -29.7193   25.4756 H   0  0  0  0  0  0
  -27.8787  -30.4101   23.9476 H   0  0  0  0  0  0
  -27.2686  -33.3657   26.1904 H   0  0  0  0  0  0
  -28.3951  -32.6665   25.0361 H   0  0  0  0  0  0
  -28.0580  -31.8473   26.5516 H   0  0  0  0  0  0
  -28.2612  -38.0097   24.7476 H   0  0  0  0  0  0
  -28.1098  -36.2620   24.6369 H   0  0  0  0  0  0
  -27.2269  -37.1550   25.8838 H   0  0  0  0  0  0
  -20.9270  -29.8538   21.6731 H   0  0  0  0  0  0
  -26.0206  -38.2820   24.1360 H   0  0  0  0  0  0
  -27.1112  -18.4838   20.0465 H   0  0  0  0  0  0
  -28.9393  -17.3609   21.0630 H   0  0  0  0  0  0
  -30.0617  -23.0161   19.3319 H   0  0  0  0  0  0
  -28.6516  -15.6288   20.9999 H   0  0  0  0  0  0
  -27.2244  -23.6869   20.1858 H   0  0  0  0  0  0
  -25.2568  -22.2573   16.6937 H   0  0  0  0  0  0
  -26.6389  -22.9795   17.4968 H   0  0  0  0  0  0
  -25.0806  -22.9046   18.3150 H   0  0  0  0  0  0
  -27.9534  -25.4432   18.3527 H   0  0  0  0  0  0
  -29.5475  -25.3314   18.9863 H   0  0  0  0  0  0
  -26.8943  -20.5334   17.6041 H   0  0  0  0  0  0
  -25.2654  -20.3214   18.1938 H   0  0  0  0  0  0
  1 25  1  0  0  0
  1 30  2  0  0  0
  1 77  1  0  0  0
  2  3  1  0  0  0
  2 25  1  0  0  0
  2 84  1  0  0  0
  2 85  1  0  0  0
  3  4  1  0  0  0
  3 86  1  0  0  0
  3 87  1  0  0  0
  4  5  1  0  0  0
  4 88  1  0  0  0
  4 89  1  0  0  0
  5  6  1  0  0  0
  5 26  1  0  0  0
  5 90  1  0  0  0
  6 25  1  0  0  0
  6 91  1  0  0  0
  6 92  1  0  0  0
  7  8  2  0  0  0
  7 26  1  0  0  0
  7 29  1  0  0  0
  8  9  1  0  0  0
  8 22  1  0  0  0
  9 10  1  0  0  0
  9 27  2  0  0  0
 10 11  2  0  0  0
 10 15  1  0  0  0
 11 12  1  0  0  0
 11 93  1  0  0  0
 12 13  2  0  0  0
 12 94  1  0  0  0
 13 14  1  0  0  0
 13 31  1  0  0  0
 14 15  2  0  0  0
 14 95  1  0  0  0
 15 96  1  0  0  0
 16 17  2  0  0  0
 16 21  1  0  0  0
 16 31  1  0  0  0
 17 18  1  0  0  0
 17 97  1  0  0  0
 18 19  2  0  0  0
 18 98  1  0  0  0
 19 20  1  0  0  0
 19 24  1  0  0  0
 20 21  2  0  0  0
 20 99  1  0  0  0
 21 23  1  0  0  0
 22 28  1  0  0  0
 22 32  2  0  0  0
 26 27  1  0  0  0
 28100  1  0  0  0
 28101  1  0  0  0
 29102  1  0  0  0
 29103  1  0  0  0
 33 34  1  0  0  0
 33 66  1  0  0  0
 33 70  2  0  0  0
 34 36  1  0  0  0
 34 59  1  0  0  0
 34104  1  0  0  0
 35 44  2  0  0  0
 35 45  1  0  0  0
 35 68  1  0  0  0
 36 56  1  0  0  0
 36105  1  0  0  0
 37 39  1  0  0  0
 37 47  1  0  0  0
 37 66  1  0  0  0
 37106  1  0  0  0
 38 43  2  0  0  0
 38 46  1  0  0  0
 38 47  1  0  0  0
 39 64  1  0  0  0
 39 67  2  0  0  0
 40 52  1  0  0  0
 40 53  2  0  0  0
 40 58  1  0  0  0
 41107  1  0  0  0
 41108  1  0  0  0
 41109  1  0  0  0
 41 48  1  0  0  0
 42 43  1  0  0  0
 42 66  1  0  0  0
 42110  1  0  0  0
 42111  1  0  0  0
 43 44  1  0  0  0
 44112  1  0  0  0
 45 46  2  0  0  0
 45113  1  0  0  0
 46114  1  0  0  0
 47115  1  0  0  0
 47116  1  0  0  0
 48 56  1  0  0  0
 48 65  1  0  0  0
 48117  1  0  0  0
 49 50  1  0  0  0
 49 53  1  0  0  0
 49 64  1  0  0  0
 49118  1  0  0  0
 50 51  1  0  0  0
 50119  1  0  0  0
 50120  1  0  0  0
 51 52  1  0  0  0
 51121  1  0  0  0
 51122  1  0  0  0
 52123  1  0  0  0
 52124  1  0  0  0
 53 54  1  0  0  0
 54 55  2  0  0  0
 54125  1  0  0  0
 55 57  1  0  0  0
 55126  1  0  0  0
 56 69  2  0  0  0
 57 58  2  0  0  0
 57127  1  0  0  0
 58128  1  0  0  0
 59 60  1  0  0  0
 59 61  1  0  0  0
 59 62  1  0  0  0
 60129  1  0  0  0
 60130  1  0  0  0
 60131  1  0  0  0
 61132  1  0  0  0
 61133  1  0  0  0
 61134  1  0  0  0
 62135  1  0  0  0
 62136  1  0  0  0
 62137  1  0  0  0
 63 65  1  0  0  0
 63138  1  0  0  0
 63139  1  0  0  0
 63140  1  0  0  0
 64141  1  0  0  0
 65142  1  0  0  0
 68 80  1  0  0  0
 71 72  1  0  0  0
 71 73  2  0  0  0
 71143  1  0  0  0
 72 74  2  0  0  0
 72 82  1  0  0  0
 73 75  1  0  0  0
 73 83  1  0  0  0
 74 76  1  0  0  0
 74 83  1  0  0  0
 75 77  2  0  0  0
 75144  1  0  0  0
 76 78  2  0  0  0
 76145  1  0  0  0
 77146  1  0  0  0
 78 80  1  0  0  0
 78147  1  0  0  0
 79 81  1  0  0  0
 79148  1  0  0  0
 79149  1  0  0  0
 79150  1  0  0  0
 80151  1  0  0  0
 80152  1  0  0  0
 81 82  1  0  0  0
 81153  1  0  0  0
 81154  1  0  0  0
M  ISO  4   1 100  68 101  77 100  80 101
M  END
> <chiral flag>
0

> <version>
0

> <s_m_source_file>
/data/baiqing/PycharmProjects/Reinvent-master-3.2/result/LINK_invent/BTK/process_docking_weight1_custom_product_contain_oxygen_bond_distance_aromatic_linkinvent_7_9_3/rearranged_h_0116.sdf

> <i_m_source_file_index>
23

> <r_mmod_Potential_Energy-OPLS-2005>
384.894195556641

> <r_mmod_Stretch_Energy-OPLS-2005>
93.1317291259766

> <r_mmod_Bend_Energy-OPLS-2005>
345.420227050781

> <r_mmod_Torsional_Energy-OPLS-2005>
223.827713012695

> <r_mmod_Improper_Torsional_Energy-OPLS-2005>
13.4447221755981

> <r_mmod_Van_der_Waal_Energy-OPLS-2005>
138.102493286133

> <r_mmod_Electrostatic_Energy-OPLS-2005>
-302.038696289062

> <r_mmod_Solvation_Energy-OPLS-2005>
-207.737686157227

> <b_mmod_Minimization_Converged-OPLS-2005>
0

> <r_mmod_RMS_Derivative-OPLS-2005>
6.44050073623657

$$$$
23
                    3D
 Structure written by MMmdl.
159168  0  0  1  0            999 V2000
  -30.5449  -14.9541   20.3504 C   0  0  0  0  0  0
  -30.4485  -12.5739   19.4804 C   0  0  0  0  0  0
  -29.5167  -12.4354   18.2521 C   0  0  0  0  0  0
  -28.0452  -12.2734   18.6807 C   0  0  0  0  0  0
  -27.6248  -13.2308   19.8274 C   0  0  2  0  0  0
  -28.6799  -13.2991   20.9500 C   0  0  0  0  0  0
  -25.2490  -13.8183   20.5744 C   0  0  0  0  0  0
  -24.1776  -13.0433   20.9234 C   0  0  0  0  0  0
  -24.6367  -11.6910   20.8781 C   0  0  0  0  0  0
  -23.9051  -10.4288   21.0425 C   0  0  0  0  0  0
  -24.3608   -9.4198   21.9193 C   0  0  0  0  0  0
  -23.6287   -8.2232   22.0754 C   0  0  0  0  0  0
  -22.4270   -8.0273   21.3542 C   0  0  0  0  0  0
  -21.9906   -9.0248   20.4647 C   0  0  0  0  0  0
  -22.7231  -10.2129   20.3063 C   0  0  0  0  0  0
  -21.6850   -6.0730   22.5278 C   0  0  0  0  0  0
  -21.4012   -6.5635   23.8212 C   0  0  0  0  0  0
  -21.3659   -5.6790   24.9175 C   0  0  0  0  0  0
  -21.6045   -4.3052   24.7226 C   0  0  0  0  0  0
  -21.8819   -3.8143   23.4347 C   0  0  0  0  0  0
  -21.9191   -4.6958   22.3403 C   0  0  0  0  0  0
  -22.7799  -13.5220   21.1879 C   0  0  0  0  0  0
  -22.1660   -4.2144   21.0981 F   0  0  0  0  0  0
  -21.5630   -3.4536   25.7739 F   0  0  0  0  0  0
  -29.9452  -13.6947   20.3180 N   0  0  0  0  0  0
  -26.2886  -12.9369   20.3287 N   0  0  0  0  0  0
  -25.9296  -11.6521   20.5802 N   0  0  0  0  0  0
  -22.0441  -12.8212   22.0434 N   0  0  0  0  0  0
  -25.4220  -15.1903   20.4187 N   0  0  0  0  0  0
  -31.7782  -14.9900   20.2780 O   0  0  0  0  0  0
  -21.6636   -6.8870   21.4239 O   0  0  0  0  0  0
  -22.3485  -14.5521   20.6717 O   0  0  0  0  0  0
  -24.6414  -31.8464   23.1895 C   0  0  0  0  0  0
  -25.9192  -32.4710   23.8280 C   0  0  1  0  0  0
  -27.2193  -27.1563   20.1527 C   0  0  0  0  0  0
  -25.5943  -33.8514   24.2197 N   0  0  0  0  0  0
  -23.4438  -30.4656   21.5357 C   0  0  2  0  0  0
  -24.8927  -28.8941   20.1142 C   0  0  0  0  0  0
  -22.7556  -29.4559   22.4878 C   0  0  0  0  0  0
  -18.0301  -28.1396   22.8479 C   0  0  0  0  0  0
  -24.1490  -36.7264   23.2642 C   0  0  0  0  0  0
  -25.9982  -30.7275   21.3843 C   0  0  0  0  0  0
  -26.0702  -29.3394   20.7282 C   0  0  0  0  0  0
  -27.2357  -28.4877   20.7278 C   0  0  0  0  0  0
  -26.0148  -26.8072   19.5022 C   0  0  0  0  0  0
  -24.8769  -27.6405   19.4860 C   0  0  0  0  0  0
  -23.6686  -29.7940   20.1556 C   0  0  0  0  0  0
  -25.4121  -36.3043   24.0317 C   0  0  1  0  0  0
  -20.5912  -28.3718   23.1246 C   0  0  2  0  0  0
  -20.6787  -26.9425   22.5407 C   0  0  0  0  0  0
  -19.5759  -26.6383   21.5216 C   0  0  0  0  0  0
  -18.1940  -26.7934   22.1627 C   0  0  0  0  0  0
  -19.1558  -28.8875   23.2854 C   0  0  0  0  0  0
  -18.9474  -30.1472   23.8878 C   0  0  0  0  0  0
  -17.6471  -30.6593   24.0560 C   0  0  0  0  0  0
  -25.9071  -34.9417   23.5067 C   0  0  0  0  0  0
  -16.5362  -29.9086   23.6336 C   0  0  0  0  0  0
  -16.7287  -28.6505   23.0356 C   0  0  0  0  0  0
  -26.4515  -31.6572   25.0716 C   0  0  0  0  0  0
  -25.3700  -31.3757   26.1411 C   0  0  0  0  0  0
  -27.0376  -30.2971   24.6280 C   0  0  0  0  0  0
  -27.6046  -32.4335   25.7502 C   0  0  0  0  0  0
  -27.5576  -37.1789   24.8465 C   0  0  0  0  0  0
  -21.4252  -29.3046   22.3623 N   0  0  0  0  0  0
  -26.4288  -37.3753   23.9407 N   0  0  0  0  0  0
  -24.7143  -31.0336   22.0921 N   0  0  0  0  0  0
  -23.4209  -28.8110   23.3024 O   0  0  0  0  0  0
  -28.2883  -26.1949   20.1980 O   0  0  0  0  0  0
  -26.5660  -34.8912   22.4649 O   0  0  0  0  0  0
  -23.5538  -32.1330   23.7125 O   0  0  0  0  0  0
  -30.0301  -20.0640   19.7186 C   0  0  0  0  0  0
  -30.2955  -18.6440   19.5299 C   0  0  0  0  0  0
  -28.6396  -19.5049   21.5345 C   0  0  0  0  0  0
  -29.1811  -20.5917   20.7459 C   0  0  0  0  0  0
  -29.7571  -17.5692   20.3337 C   0  0  0  0  0  0
  -28.9072  -18.0892   21.3564 C   0  0  0  0  0  0
  -29.1736  -22.4241   22.3748 C   0  0  0  0  0  0
  -28.3095  -16.6289   18.0417 C   0  0  0  0  0  0
  -29.3479  -15.9660   18.5861 C   0  0  0  0  0  0
  -29.9644  -23.7168   22.5133 C   0  0  0  0  0  0
  -30.3487  -24.0171   21.0719 C   0  0  0  0  0  0
  -29.1628  -23.4348   20.3051 C   0  0  2  0  0  0
  -28.0179  -24.6693   20.3160 C   0  0  0  0  0  0
  -28.9447  -22.0815   21.0830 N   0  0  0  0  0  0
  -29.7945  -16.0924   19.9166 N   0  0  0  0  0  0
  -28.8190  -21.8002   23.3792 O   0  0  0  0  0  0
  -28.2710  -17.2068   22.1639 F   0  0  0  0  0  0
  -31.4738  -12.7474   19.1489 H   0  0  0  0  0  0
  -30.4691  -11.6482   20.0572 H   0  0  0  0  0  0
  -29.8199  -11.5720   17.6584 H   0  0  0  0  0  0
  -29.6153  -13.2850   17.5826 H   0  0  0  0  0  0
  -27.9261  -11.2410   19.0107 H   0  0  0  0  0  0
  -27.3827  -12.3929   17.8225 H   0  0  0  0  0  0
  -27.5630  -14.2164   19.3743 H   0  0  0  0  0  0
  -28.7749  -12.3436   21.4673 H   0  0  0  0  0  0
  -28.3896  -14.0389   21.6983 H   0  0  0  0  0  0
  -25.2749   -9.5677   22.4771 H   0  0  0  0  0  0
  -23.9997   -7.4623   22.7472 H   0  0  0  0  0  0
  -21.0837   -8.8767   19.8953 H   0  0  0  0  0  0
  -22.3688  -10.9672   19.6177 H   0  0  0  0  0  0
  -21.2003   -7.6144   23.9713 H   0  0  0  0  0  0
  -21.1482   -6.0520   25.9077 H   0  0  0  0  0  0
  -22.0599   -2.7605   23.2848 H   0  0  0  0  0  0
  -22.4060  -11.9882   22.4838 H   0  0  0  0  0  0
  -21.1056  -13.1234   22.2633 H   0  0  0  0  0  0
  -24.6671  -15.8532   20.5541 H   0  0  0  0  0  0
  -26.2963  -15.6288   20.1576 H   0  0  0  0  0  0
  -26.7259  -32.5324   23.1012 H   0  0  0  0  0  0
  -25.0051  -33.9632   25.0317 H   0  0  0  0  0  0
  -22.7452  -31.2907   21.3821 H   0  0  0  0  0  0
  -23.3758  -35.9591   23.3295 H   0  0  0  0  0  0
  -24.3574  -36.8905   22.2059 H   0  0  0  0  0  0
  -23.7241  -37.6456   23.6685 H   0  0  0  0  0  0
  -26.1485  -31.4813   20.6104 H   0  0  0  0  0  0
  -26.8710  -30.7798   22.0237 H   0  0  0  0  0  0
  -28.1355  -28.8264   21.2217 H   0  0  0  0  0  0
  -25.9189  -25.8566   19.0022 H   0  0  0  0  0  0
  -23.9788  -27.2950   18.9928 H   0  0  0  0  0  0
  -23.8034  -30.5675   19.3988 H   0  0  0  0  0  0
  -22.7839  -29.2342   19.8470 H   0  0  0  0  0  0
  -25.1309  -36.1873   25.0809 H   0  0  0  0  0  0
  -21.0001  -28.3304   24.1369 H   0  0  0  0  0  0
  -20.5687  -26.2330   23.3621 H   0  0  0  0  0  0
  -21.6653  -26.7437   22.1201 H   0  0  0  0  0  0
  -19.6921  -25.6289   21.1257 H   0  0  0  0  0  0
  -19.6695  -27.3184   20.6737 H   0  0  0  0  0  0
  -17.4209  -26.6678   21.4031 H   0  0  0  0  0  0
  -18.0341  -26.0082   22.9030 H   0  0  0  0  0  0
  -19.7949  -30.7294   24.2239 H   0  0  0  0  0  0
  -17.5024  -31.6272   24.5165 H   0  0  0  0  0  0
  -15.5362  -30.2982   23.7671 H   0  0  0  0  0  0
  -15.8687  -28.0818   22.7082 H   0  0  0  0  0  0
  -24.5883  -30.7102   25.7728 H   0  0  0  0  0  0
  -24.8880  -32.2937   26.4785 H   0  0  0  0  0  0
  -25.7979  -30.8961   27.0222 H   0  0  0  0  0  0
  -26.2987  -29.6702   24.1276 H   0  0  0  0  0  0
  -27.3982  -29.7263   25.4847 H   0  0  0  0  0  0
  -27.8897  -30.4215   23.9595 H   0  0  0  0  0  0
  -27.2640  -33.3652   26.2033 H   0  0  0  0  0  0
  -28.3882  -32.6872   25.0350 H   0  0  0  0  0  0
  -28.0688  -31.8492   26.5457 H   0  0  0  0  0  0
  -28.2588  -38.0090   24.7511 H   0  0  0  0  0  0
  -28.1076  -36.2619   24.6293 H   0  0  0  0  0  0
  -27.2292  -37.1438   25.8867 H   0  0  0  0  0  0
  -20.9462  -29.8752   21.6796 H   0  0  0  0  0  0
  -26.0157  -38.2823   24.1409 H   0  0  0  0  0  0
  -30.5127  -20.7619   19.0481 H   0  0  0  0  0  0
  -30.9161  -18.3719   18.6882 H   0  0  0  0  0  0
  -27.9624  -19.7472   22.3390 H   0  0  0  0  0  0
  -28.0526  -16.4863   17.0016 H   0  0  0  0  0  0
  -27.6991  -17.3168   18.6091 H   0  0  0  0  0  0
  -29.9441  -15.2994   17.9807 H   0  0  0  0  0  0
  -30.8357  -23.5910   23.1560 H   0  0  0  0  0  0
  -29.3261  -24.4935   22.9356 H   0  0  0  0  0  0
  -31.2693  -23.4933   20.8080 H   0  0  0  0  0  0
  -30.5108  -25.0792   20.8868 H   0  0  0  0  0  0
  -29.4586  -23.2265   19.2765 H   0  0  0  0  0  0
  -27.4457  -24.5665   21.2388 H   0  0  0  0  0  0
  -27.3171  -24.3901   19.5324 H   0  0  0  0  0  0
  1 25  1  0  0  0
  1 30  2  0  0  0
  1 85  1  0  0  0
  2  3  1  0  0  0
  2 25  1  0  0  0
  2 88  1  0  0  0
  2 89  1  0  0  0
  3  4  1  0  0  0
  3 90  1  0  0  0
  3 91  1  0  0  0
  4  5  1  0  0  0
  4 92  1  0  0  0
  4 93  1  0  0  0
  5  6  1  0  0  0
  5 26  1  0  0  0
  5 94  1  0  0  0
  6 25  1  0  0  0
  6 95  1  0  0  0
  6 96  1  0  0  0
  7  8  2  0  0  0
  7 26  1  0  0  0
  7 29  1  0  0  0
  8  9  1  0  0  0
  8 22  1  0  0  0
  9 10  1  0  0  0
  9 27  2  0  0  0
 10 11  2  0  0  0
 10 15  1  0  0  0
 11 12  1  0  0  0
 11 97  1  0  0  0
 12 13  2  0  0  0
 12 98  1  0  0  0
 13 14  1  0  0  0
 13 31  1  0  0  0
 14 15  2  0  0  0
 14 99  1  0  0  0
 15100  1  0  0  0
 16 17  2  0  0  0
 16 21  1  0  0  0
 16 31  1  0  0  0
 17 18  1  0  0  0
 17101  1  0  0  0
 18 19  2  0  0  0
 18102  1  0  0  0
 19 20  1  0  0  0
 19 24  1  0  0  0
 20 21  2  0  0  0
 20103  1  0  0  0
 21 23  1  0  0  0
 22 28  1  0  0  0
 22 32  2  0  0  0
 26 27  1  0  0  0
 28104  1  0  0  0
 28105  1  0  0  0
 29106  1  0  0  0
 29107  1  0  0  0
 33 34  1  0  0  0
 33 66  1  0  0  0
 33 70  2  0  0  0
 34 36  1  0  0  0
 34 59  1  0  0  0
 34108  1  0  0  0
 35 44  2  0  0  0
 35 45  1  0  0  0
 35 68  1  0  0  0
 36 56  1  0  0  0
 36109  1  0  0  0
 37 39  1  0  0  0
 37 47  1  0  0  0
 37 66  1  0  0  0
 37110  1  0  0  0
 38 43  2  0  0  0
 38 46  1  0  0  0
 38 47  1  0  0  0
 39 64  1  0  0  0
 39 67  2  0  0  0
 40 52  1  0  0  0
 40 53  2  0  0  0
 40 58  1  0  0  0
 41111  1  0  0  0
 41112  1  0  0  0
 41113  1  0  0  0
 41 48  1  0  0  0
 42 43  1  0  0  0
 42 66  1  0  0  0
 42114  1  0  0  0
 42115  1  0  0  0
 43 44  1  0  0  0
 44116  1  0  0  0
 45 46  2  0  0  0
 45117  1  0  0  0
 46118  1  0  0  0
 47119  1  0  0  0
 47120  1  0  0  0
 48 56  1  0  0  0
 48 65  1  0  0  0
 48121  1  0  0  0
 49 50  1  0  0  0
 49 53  1  0  0  0
 49 64  1  0  0  0
 49122  1  0  0  0
 50 51  1  0  0  0
 50123  1  0  0  0
 50124  1  0  0  0
 51 52  1  0  0  0
 51125  1  0  0  0
 51126  1  0  0  0
 52127  1  0  0  0
 52128  1  0  0  0
 53 54  1  0  0  0
 54 55  2  0  0  0
 54129  1  0  0  0
 55 57  1  0  0  0
 55130  1  0  0  0
 56 69  2  0  0  0
 57 58  2  0  0  0
 57131  1  0  0  0
 58132  1  0  0  0
 59 60  1  0  0  0
 59 61  1  0  0  0
 59 62  1  0  0  0
 60133  1  0  0  0
 60134  1  0  0  0
 60135  1  0  0  0
 61136  1  0  0  0
 61137  1  0  0  0
 61138  1  0  0  0
 62139  1  0  0  0
 62140  1  0  0  0
 62141  1  0  0  0
 63 65  1  0  0  0
 63142  1  0  0  0
 63143  1  0  0  0
 63144  1  0  0  0
 64145  1  0  0  0
 65146  1  0  0  0
 68 83  1  0  0  0
 71 72  2  0  0  0
 71 74  1  0  0  0
 71147  1  0  0  0
 72 75  1  0  0  0
 72148  1  0  0  0
 73 74  2  0  0  0
 73 76  1  0  0  0
 73149  1  0  0  0
 74 84  1  0  0  0
 75 76  2  0  0  0
 75 85  1  0  0  0
 76 87  1  0  0  0
 77 80  1  0  0  0
 77 84  1  0  0  0
 77 86  2  0  0  0
 78 79  2  0  0  0
 78150  1  0  0  0
 78151  1  0  0  0
 79 85  1  0  0  0
 79152  1  0  0  0
 80 81  1  0  0  0
 80153  1  0  0  0
 80154  1  0  0  0
 81 82  1  0  0  0
 81155  1  0  0  0
 81156  1  0  0  0
 82 83  1  0  0  0
 82 84  1  0  0  0
 82157  1  0  0  0
 83158  1  0  0  0
 83159  1  0  0  0
M  ISO  4   1 100  68 101  83 101  85 100
M  END
> <chiral flag>
0

> <version>
0

> <s_m_source_file>
/data/baiqing/PycharmProjects/Reinvent-master-3.2/result/LINK_invent/BTK/process_docking_weight1_custom_product_contain_oxygen_bond_distance_aromatic_linkinvent_7_9_3/rearranged_h_0116.sdf

> <i_m_source_file_index>
24

> <r_mmod_Potential_Energy-OPLS-2005>
804.634582519531

> <r_mmod_Stretch_Energy-OPLS-2005>
236.875900268555

> <r_mmod_Bend_Energy-OPLS-2005>
290.636993408203

> <r_mmod_Torsional_Energy-OPLS-2005>
430.782562255859

> <r_mmod_Improper_Torsional_Energy-OPLS-2005>
24.7128467559814

> <r_mmod_Van_der_Waal_Energy-OPLS-2005>
143.424163818359

> <r_mmod_Electrostatic_Energy-OPLS-2005>
-311.092926025391

> <r_mmod_Solvation_Energy-OPLS-2005>
-203.907287597656

> <b_mmod_Minimization_Converged-OPLS-2005>
0

> <r_mmod_RMS_Derivative-OPLS-2005>
0.452424973249435

$$$$
24
                    3D
 Structure written by MMmdl.
157165  0  0  1  0            999 V2000
  -30.6801  -14.5441   20.6242 C   0  0  0  0  0  0
  -30.4348  -12.3755   19.4231 C   0  0  0  0  0  0
  -29.4952  -12.5353   18.2064 C   0  0  0  0  0  0
  -28.0203  -12.3693   18.6198 C   0  0  0  0  0  0
  -27.6609  -13.2131   19.8727 C   0  0  2  0  0  0
  -28.7011  -12.9970   20.9914 C   0  0  0  0  0  0
  -25.2598  -13.8171   20.5696 C   0  0  0  0  0  0
  -24.1846  -13.0446   20.9169 C   0  0  0  0  0  0
  -24.6407  -11.6915   20.8726 C   0  0  0  0  0  0
  -23.9075  -10.4301   21.0405 C   0  0  0  0  0  0
  -24.3628   -9.4210   21.9182 C   0  0  0  0  0  0
  -23.6294   -8.2250   22.0756 C   0  0  0  0  0  0
  -22.4273   -8.0292   21.3547 C   0  0  0  0  0  0
  -21.9914   -9.0282   20.4649 C   0  0  0  0  0  0
  -22.7248  -10.2160   20.3057 C   0  0  0  0  0  0
  -21.6858   -6.0744   22.5276 C   0  0  0  0  0  0
  -21.4026   -6.5644   23.8212 C   0  0  0  0  0  0
  -21.3654   -5.6786   24.9167 C   0  0  0  0  0  0
  -21.6049   -4.3048   24.7222 C   0  0  0  0  0  0
  -21.8816   -3.8146   23.4340 C   0  0  0  0  0  0
  -21.9200   -4.6971   22.3403 C   0  0  0  0  0  0
  -22.7864  -13.5239   21.1826 C   0  0  0  0  0  0
  -22.1650   -4.2154   21.0977 F   0  0  0  0  0  0
  -21.5646   -3.4526   25.7738 F   0  0  0  0  0  0
  -30.0290  -13.3505   20.4530 N   0  0  0  0  0  0
  -26.3029  -12.9343   20.3358 N   0  0  0  0  0  0
  -25.9339  -11.6488   20.5763 N   0  0  0  0  0  0
  -22.0507  -12.8241   22.0388 N   0  0  0  0  0  0
  -25.4333  -15.1892   20.4138 N   0  0  0  0  0  0
  -31.7368  -14.7843   20.0310 O   0  0  0  0  0  0
  -21.6640   -6.8886   21.4237 O   0  0  0  0  0  0
  -22.3549  -14.5537   20.6662 O   0  0  0  0  0  0
  -24.6226  -31.8616   23.2046 C   0  0  0  0  0  0
  -25.9101  -32.4787   23.8352 C   0  0  1  0  0  0
  -27.2296  -27.3570   20.0943 C   0  0  0  0  0  0
  -25.5927  -33.8584   24.2286 N   0  0  0  0  0  0
  -23.4136  -30.4862   21.5469 C   0  0  2  0  0  0
  -24.8567  -28.9434   20.1135 C   0  0  0  0  0  0
  -22.7450  -29.4648   22.4961 C   0  0  0  0  0  0
  -18.0276  -28.1360   22.8489 C   0  0  0  0  0  0
  -24.1490  -36.7298   23.2636 C   0  0  0  0  0  0
  -25.9520  -30.8010   21.3729 C   0  0  0  0  0  0
  -26.0238  -29.4315   20.7139 C   0  0  0  0  0  0
  -27.2089  -28.6460   20.7004 C   0  0  0  0  0  0
  -26.0313  -26.9019   19.4956 C   0  0  0  0  0  0
  -24.8595  -27.6799   19.5028 C   0  0  0  0  0  0
  -23.6244  -29.8203   20.1622 C   0  0  0  0  0  0
  -25.4116  -36.3096   24.0328 C   0  0  1  0  0  0
  -20.5871  -28.3674   23.1294 C   0  0  2  0  0  0
  -20.6773  -26.9397   22.5412 C   0  0  0  0  0  0
  -19.5747  -26.6370   21.5215 C   0  0  0  0  0  0
  -18.1924  -26.7904   22.1613 C   0  0  0  0  0  0
  -19.1522  -28.8827   23.2892 C   0  0  0  0  0  0
  -18.9460  -30.1440   23.8898 C   0  0  0  0  0  0
  -17.6463  -30.6573   24.0554 C   0  0  0  0  0  0
  -25.9049  -34.9459   23.5106 C   0  0  0  0  0  0
  -16.5353  -29.9076   23.6326 C   0  0  0  0  0  0
  -16.7267  -28.6486   23.0354 C   0  0  0  0  0  0
  -26.4495  -31.6594   25.0714 C   0  0  0  0  0  0
  -25.3751  -31.3720   26.1459 C   0  0  0  0  0  0
  -27.0339  -30.3016   24.6157 C   0  0  0  0  0  0
  -27.6055  -32.4318   25.7485 C   0  0  0  0  0  0
  -27.5582  -37.1804   24.8457 C   0  0  0  0  0  0
  -21.4164  -29.3038   22.3691 N   0  0  0  0  0  0
  -26.4293  -37.3791   23.9402 N   0  0  0  0  0  0
  -24.6815  -31.0657   22.0986 N   0  0  0  0  0  0
  -23.4181  -28.8181   23.3034 O   0  0  0  0  0  0
  -28.3786  -26.5633   20.1432 O   0  0  0  0  0  0
  -26.5611  -34.8917   22.4667 O   0  0  0  0  0  0
  -23.5407  -32.1406   23.7401 O   0  0  0  0  0  0
  -30.2847  -17.7337   19.2761 C   0  0  0  0  0  0
  -29.9217  -20.0867   18.7040 C   0  0  0  0  0  0
  -29.8444  -17.9452   20.5993 C   0  0  0  0  0  0
  -29.4397  -19.2900   20.9557 C   0  0  0  0  0  0
  -29.4803  -20.3784   20.0164 C   0  0  0  0  0  0
  -30.3193  -18.7860   18.3421 C   0  0  0  0  0  0
  -29.7904  -16.7964   21.5853 C   0  0  0  0  0  0
  -30.0912  -15.4572   21.6185 C   0  0  0  0  0  0
  -29.0476  -24.2024   20.1346 C   0  0  0  0  0  0
  -28.4183  -25.2813   19.5844 C   0  0  0  0  0  0
  -27.4498  -19.2382   22.5444 C   0  0  0  0  0  0
  -28.9299  -19.6082   22.3635 C   0  0  0  0  0  0
  -29.2013  -22.7979   19.4913 C   0  0  0  0  0  0
  -29.0910  -21.6736   20.4088 O   0  0  0  0  0  0
  -30.7424  -18.5427   17.0785 F   0  0  0  0  0  0
  -31.4717  -12.5096   19.1099 H   0  0  0  0  0  0
  -30.3770  -11.3645   19.8287 H   0  0  0  0  0  0
  -29.7493  -11.8144   17.4275 H   0  0  0  0  0  0
  -29.6410  -13.5230   17.7655 H   0  0  0  0  0  0
  -27.8438  -11.3123   18.8216 H   0  0  0  0  0  0
  -27.3632  -12.6237   17.7857 H   0  0  0  0  0  0
  -27.7007  -14.2633   19.5791 H   0  0  0  0  0  0
  -28.7049  -11.9538   21.3120 H   0  0  0  0  0  0
  -28.4148  -13.5640   21.8755 H   0  0  0  0  0  0
  -25.2799   -9.5686   22.4735 H   0  0  0  0  0  0
  -24.0012   -7.4656   22.7483 H   0  0  0  0  0  0
  -21.0857   -8.8797   19.8942 H   0  0  0  0  0  0
  -22.3726  -10.9691   19.6150 H   0  0  0  0  0  0
  -21.1993   -7.6150   23.9724 H   0  0  0  0  0  0
  -21.1477   -6.0511   25.9075 H   0  0  0  0  0  0
  -22.0596   -2.7608   23.2853 H   0  0  0  0  0  0
  -22.4116  -11.9911   22.4780 H   0  0  0  0  0  0
  -21.1125  -13.1279   22.2580 H   0  0  0  0  0  0
  -24.6789  -15.8539   20.5435 H   0  0  0  0  0  0
  -26.3064  -15.6247   20.1444 H   0  0  0  0  0  0
  -26.7172  -32.5447   23.1098 H   0  0  0  0  0  0
  -25.0110  -33.9738   25.0457 H   0  0  0  0  0  0
  -22.7081  -31.3070   21.4052 H   0  0  0  0  0  0
  -23.3761  -35.9622   23.3295 H   0  0  0  0  0  0
  -24.3593  -36.8923   22.2053 H   0  0  0  0  0  0
  -23.7230  -37.6489   23.6663 H   0  0  0  0  0  0
  -26.0815  -31.5668   20.6071 H   0  0  0  0  0  0
  -26.8332  -30.8453   22.0020 H   0  0  0  0  0  0
  -28.1063  -29.0124   21.1772 H   0  0  0  0  0  0
  -25.9656  -25.9278   19.0366 H   0  0  0  0  0  0
  -23.9594  -27.2924   19.0455 H   0  0  0  0  0  0
  -23.7432  -30.5956   19.4047 H   0  0  0  0  0  0
  -22.7454  -29.2466   19.8622 H   0  0  0  0  0  0
  -25.1306  -36.1945   25.0824 H   0  0  0  0  0  0
  -20.9961  -28.3246   24.1415 H   0  0  0  0  0  0
  -20.5690  -26.2282   23.3611 H   0  0  0  0  0  0
  -21.6650  -26.7440   22.1193 H   0  0  0  0  0  0
  -19.6920  -25.6283   21.1245 H   0  0  0  0  0  0
  -19.6692  -27.3193   20.6756 H   0  0  0  0  0  0
  -17.4204  -26.6668   21.4002 H   0  0  0  0  0  0
  -18.0318  -26.0033   22.8989 H   0  0  0  0  0  0
  -19.7947  -30.7262   24.2246 H   0  0  0  0  0  0
  -17.5022  -31.6259   24.5145 H   0  0  0  0  0  0
  -15.5352  -30.2978   23.7650 H   0  0  0  0  0  0
  -15.8664  -28.0810   22.7069 H   0  0  0  0  0  0
  -24.5888  -30.7114   25.7788 H   0  0  0  0  0  0
  -24.9010  -32.2897   26.4948 H   0  0  0  0  0  0
  -25.8094  -30.8834   27.0192 H   0  0  0  0  0  0
  -26.2911  -29.6743   24.1205 H   0  0  0  0  0  0
  -27.4078  -29.7277   25.4652 H   0  0  0  0  0  0
  -27.8770  -30.4300   23.9358 H   0  0  0  0  0  0
  -27.2653  -33.3588   26.2104 H   0  0  0  0  0  0
  -28.3851  -32.6908   25.0311 H   0  0  0  0  0  0
  -28.0742  -31.8421   26.5371 H   0  0  0  0  0  0
  -28.2593  -38.0112   24.7540 H   0  0  0  0  0  0
  -28.1096  -36.2648   24.6253 H   0  0  0  0  0  0
  -27.2310  -37.1416   25.8865 H   0  0  0  0  0  0
  -20.9325  -29.8764   21.6907 H   0  0  0  0  0  0
  -26.0175  -38.2861   24.1432 H   0  0  0  0  0  0
  -30.5958  -16.7572   18.9445 H   0  0  0  0  0  0
  -29.9721  -20.8497   17.9420 H   0  0  0  0  0  0
  -29.3931  -17.0925   22.5419 H   0  0  0  0  0  0
  -29.8866  -14.9882   22.5715 H   0  0  0  0  0  0
  -29.5313  -24.3182   21.0944 H   0  0  0  0  0  0
  -27.9271  -25.2292   18.6225 H   0  0  0  0  0  0
  -27.0818  -19.5517   23.5223 H   0  0  0  0  0  0
  -27.2865  -18.1637   22.4564 H   0  0  0  0  0  0
  -26.8309  -19.7266   21.7906 H   0  0  0  0  0  0
  -29.0497  -20.6685   22.5812 H   0  0  0  0  0  0
  -29.5518  -19.1233   23.1154 H   0  0  0  0  0  0
  -30.1953  -22.7826   19.0439 H   0  0  0  0  0  0
  -28.4812  -22.6883   18.6782 H   0  0  0  0  0  0
  1 25  1  0  0  0
  1 30  2  0  0  0
  1 78  1  0  0  0
  2  3  1  0  0  0
  2 25  1  0  0  0
  2 86  1  0  0  0
  2 87  1  0  0  0
  3  4  1  0  0  0
  3 88  1  0  0  0
  3 89  1  0  0  0
  4  5  1  0  0  0
  4 90  1  0  0  0
  4 91  1  0  0  0
  5  6  1  0  0  0
  5 26  1  0  0  0
  5 92  1  0  0  0
  6 25  1  0  0  0
  6 93  1  0  0  0
  6 94  1  0  0  0
  7  8  2  0  0  0
  7 26  1  0  0  0
  7 29  1  0  0  0
  8  9  1  0  0  0
  8 22  1  0  0  0
  9 10  1  0  0  0
  9 27  2  0  0  0
 10 11  2  0  0  0
 10 15  1  0  0  0
 11 12  1  0  0  0
 11 95  1  0  0  0
 12 13  2  0  0  0
 12 96  1  0  0  0
 13 14  1  0  0  0
 13 31  1  0  0  0
 14 15  2  0  0  0
 14 97  1  0  0  0
 15 98  1  0  0  0
 16 17  2  0  0  0
 16 21  1  0  0  0
 16 31  1  0  0  0
 17 18  1  0  0  0
 17 99  1  0  0  0
 18 19  2  0  0  0
 18100  1  0  0  0
 19 20  1  0  0  0
 19 24  1  0  0  0
 20 21  2  0  0  0
 20101  1  0  0  0
 21 23  1  0  0  0
 22 28  1  0  0  0
 22 32  2  0  0  0
 26 27  1  0  0  0
 28102  1  0  0  0
 28103  1  0  0  0
 29104  1  0  0  0
 29105  1  0  0  0
 33 34  1  0  0  0
 33 66  1  0  0  0
 33 70  2  0  0  0
 34 36  1  0  0  0
 34 59  1  0  0  0
 34106  1  0  0  0
 35 44  2  0  0  0
 35 45  1  0  0  0
 35 68  1  0  0  0
 36 56  1  0  0  0
 36107  1  0  0  0
 37 39  1  0  0  0
 37 47  1  0  0  0
 37 66  1  0  0  0
 37108  1  0  0  0
 38 43  2  0  0  0
 38 46  1  0  0  0
 38 47  1  0  0  0
 39 64  1  0  0  0
 39 67  2  0  0  0
 40 52  1  0  0  0
 40 53  2  0  0  0
 40 58  1  0  0  0
 41109  1  0  0  0
 41110  1  0  0  0
 41111  1  0  0  0
 41 48  1  0  0  0
 42 43  1  0  0  0
 42 66  1  0  0  0
 42112  1  0  0  0
 42113  1  0  0  0
 43 44  1  0  0  0
 44114  1  0  0  0
 45 46  2  0  0  0
 45115  1  0  0  0
 46116  1  0  0  0
 47117  1  0  0  0
 47118  1  0  0  0
 48 56  1  0  0  0
 48 65  1  0  0  0
 48119  1  0  0  0
 49 50  1  0  0  0
 49 53  1  0  0  0
 49 64  1  0  0  0
 49120  1  0  0  0
 50 51  1  0  0  0
 50121  1  0  0  0
 50122  1  0  0  0
 51 52  1  0  0  0
 51123  1  0  0  0
 51124  1  0  0  0
 52125  1  0  0  0
 52126  1  0  0  0
 53 54  1  0  0  0
 54 55  2  0  0  0
 54127  1  0  0  0
 55 57  1  0  0  0
 55128  1  0  0  0
 56 69  2  0  0  0
 57 58  2  0  0  0
 57129  1  0  0  0
 58130  1  0  0  0
 59 60  1  0  0  0
 59 61  1  0  0  0
 59 62  1  0  0  0
 60131  1  0  0  0
 60132  1  0  0  0
 60133  1  0  0  0
 61134  1  0  0  0
 61135  1  0  0  0
 61136  1  0  0  0
 62137  1  0  0  0
 62138  1  0  0  0
 62139  1  0  0  0
 63 65  1  0  0  0
 63140  1  0  0  0
 63141  1  0  0  0
 63142  1  0  0  0
 64143  1  0  0  0
 65144  1  0  0  0
 68 80  1  0  0  0
 71 73  2  0  0  0
 71 76  1  0  0  0
 71145  1  0  0  0
 72 75  1  0  0  0
 72 76  2  0  0  0
 72146  1  0  0  0
 73 74  1  0  0  0
 73 77  1  0  0  0
 74 75  2  0  0  0
 74 82  1  0  0  0
 75 84  1  0  0  0
 76 85  1  0  0  0
 77 78  2  0  0  0
 77147  1  0  0  0
 78148  1  0  0  0
 79 80  2  0  0  0
 79 83  1  0  0  0
 79149  1  0  0  0
 80150  1  0  0  0
 81 82  1  0  0  0
 81151  1  0  0  0
 81152  1  0  0  0
 81153  1  0  0  0
 82154  1  0  0  0
 82155  1  0  0  0
 83 84  1  0  0  0
 83156  1  0  0  0
 83157  1  0  0  0
M  ISO  4   1 100  68 101  78 100  80 101
M  END
> <chiral flag>
0

> <version>
0

> <s_m_source_file>
/data/baiqing/PycharmProjects/Reinvent-master-3.2/result/LINK_invent/BTK/process_docking_weight1_custom_product_contain_oxygen_bond_distance_aromatic_linkinvent_7_9_3/rearranged_h_0116.sdf

> <i_m_source_file_index>
25

> <r_mmod_Potential_Energy-OPLS-2005>
64.0184631347656

> <r_mmod_Stretch_Energy-OPLS-2005>
65.444465637207

> <r_mmod_Bend_Energy-OPLS-2005>
153.094696044922

> <r_mmod_Torsional_Energy-OPLS-2005>
177.005416870117

> <r_mmod_Improper_Torsional_Energy-OPLS-2005>
2.87092781066895

> <r_mmod_Van_der_Waal_Energy-OPLS-2005>
157.612197875977

> <r_mmod_Electrostatic_Energy-OPLS-2005>
-330.694519042969

> <r_mmod_Solvation_Energy-OPLS-2005>
-188.221588134766

> <b_mmod_Minimization_Converged-OPLS-2005>
0

> <r_mmod_RMS_Derivative-OPLS-2005>
2.88332200050354

$$$$
25
                    3D
 Structure written by MMmdl.
155163  0  0  1  0            999 V2000
  -30.5920  -14.7486   20.5321 C   0  0  0  0  0  0
  -30.4492  -12.4696   19.4805 C   0  0  0  0  0  0
  -29.5206  -12.5378   18.2452 C   0  0  0  0  0  0
  -28.0462  -12.3506   18.6514 C   0  0  0  0  0  0
  -27.6541  -13.2270   19.8692 C   0  0  2  0  0  0
  -28.6960  -13.1130   21.0065 C   0  0  0  0  0  0
  -25.2465  -13.8072   20.5491 C   0  0  0  0  0  0
  -24.1797  -13.0369   20.9172 C   0  0  0  0  0  0
  -24.6418  -11.6865   20.8773 C   0  0  0  0  0  0
  -23.9085  -10.4258   21.0427 C   0  0  0  0  0  0
  -24.3624   -9.4174   21.9204 C   0  0  0  0  0  0
  -23.6286   -8.2220   22.0767 C   0  0  0  0  0  0
  -22.4271   -8.0271   21.3550 C   0  0  0  0  0  0
  -21.9914   -9.0249   20.4656 C   0  0  0  0  0  0
  -22.7258  -10.2118   20.3070 C   0  0  0  0  0  0
  -21.6847   -6.0728   22.5277 C   0  0  0  0  0  0
  -21.4010   -6.5633   23.8210 C   0  0  0  0  0  0
  -21.3658   -5.6788   24.9173 C   0  0  0  0  0  0
  -21.6043   -4.3050   24.7226 C   0  0  0  0  0  0
  -21.8820   -3.8142   23.4347 C   0  0  0  0  0  0
  -21.9191   -4.6957   22.3402 C   0  0  0  0  0  0
  -22.7826  -13.5186   21.1836 C   0  0  0  0  0  0
  -22.1661   -4.2143   21.0981 F   0  0  0  0  0  0
  -21.5630   -3.4537   25.7740 F   0  0  0  0  0  0
  -30.0099  -13.4962   20.4587 N   0  0  0  0  0  0
  -26.2989  -12.9338   20.3317 N   0  0  0  0  0  0
  -25.9370  -11.6490   20.5827 N   0  0  0  0  0  0
  -22.0474  -12.8203   22.0415 N   0  0  0  0  0  0
  -25.3967  -15.1710   20.3492 N   0  0  0  0  0  0
  -31.6913  -14.9519   20.0074 O   0  0  0  0  0  0
  -21.6630   -6.8872   21.4241 O   0  0  0  0  0  0
  -22.3516  -14.5498   20.6690 O   0  0  0  0  0  0
  -24.6334  -31.8543   23.1975 C   0  0  0  0  0  0
  -25.9151  -32.4752   23.8330 C   0  0  1  0  0  0
  -27.2287  -27.2519   20.1278 C   0  0  0  0  0  0
  -25.5938  -33.8555   24.2252 N   0  0  0  0  0  0
  -23.4313  -30.4770   21.5413 C   0  0  2  0  0  0
  -24.8801  -28.9232   20.1125 C   0  0  0  0  0  0
  -22.7518  -29.4598   22.4905 C   0  0  0  0  0  0
  -18.0295  -28.1391   22.8481 C   0  0  0  0  0  0
  -24.1489  -36.7280   23.2640 C   0  0  0  0  0  0
  -25.9793  -30.7649   21.3792 C   0  0  0  0  0  0
  -26.0539  -29.3869   20.7198 C   0  0  0  0  0  0
  -27.2304  -28.5663   20.7127 C   0  0  0  0  0  0
  -26.0248  -26.8599   19.4960 C   0  0  0  0  0  0
  -24.8716  -27.6678   19.4895 C   0  0  0  0  0  0
  -23.6514  -29.8113   20.1581 C   0  0  0  0  0  0
  -25.4117  -36.3068   24.0325 C   0  0  1  0  0  0
  -20.5902  -28.3706   23.1261 C   0  0  2  0  0  0
  -20.6784  -26.9421   22.5405 C   0  0  0  0  0  0
  -19.5757  -26.6384   21.5212 C   0  0  0  0  0  0
  -18.1938  -26.7932   22.1625 C   0  0  0  0  0  0
  -19.1550  -28.8865   23.2866 C   0  0  0  0  0  0
  -18.9471  -30.1464   23.8889 C   0  0  0  0  0  0
  -17.6469  -30.6591   24.0563 C   0  0  0  0  0  0
  -25.9059  -34.9438   23.5092 C   0  0  0  0  0  0
  -16.5360  -29.9087   23.6331 C   0  0  0  0  0  0
  -16.7281  -28.6505   23.0352 C   0  0  0  0  0  0
  -26.4509  -31.6583   25.0727 C   0  0  0  0  0  0
  -25.3723  -31.3740   26.1441 C   0  0  0  0  0  0
  -27.0364  -30.2998   24.6229 C   0  0  0  0  0  0
  -27.6057  -32.4331   25.7506 C   0  0  0  0  0  0
  -27.5578  -37.1797   24.8465 C   0  0  0  0  0  0
  -21.4223  -29.3049   22.3650 N   0  0  0  0  0  0
  -26.4289  -37.3768   23.9408 N   0  0  0  0  0  0
  -24.7005  -31.0500   22.0956 N   0  0  0  0  0  0
  -23.4209  -28.8135   23.3011 O   0  0  0  0  0  0
  -28.3267  -26.3506   20.1795 O   0  0  0  0  0  0
  -26.5634  -34.8916   22.4664 O   0  0  0  0  0  0
  -23.5478  -32.1370   23.7259 O   0  0  0  0  0  0
  -27.9453  -17.0568   21.3091 C   0  0  0  0  0  0
  -27.7094  -19.4519   20.9253 C   0  0  0  0  0  0
  -29.8868  -18.3739   20.6815 C   0  0  0  0  0  0
  -27.1431  -18.2137   21.2817 C   0  0  0  0  0  0
  -29.3191  -17.0592   20.9921 C   0  0  0  0  0  0
  -29.0892  -19.6110   20.6569 C   0  0  0  0  0  0
  -24.7506  -18.9991   21.3880 C   0  0  0  0  0  0
  -25.7150  -18.0944   21.6290 C   0  0  0  0  0  0
  -29.1703  -23.6920   20.3120 C   0  0  0  0  0  0
  -28.0591  -24.8642   20.1048 C   0  0  0  0  0  0
  -28.6737  -22.1437   20.4160 C   0  0  0  0  0  0
  -29.9302  -15.7229   21.2575 N   0  0  0  0  0  0
  -29.5878  -20.9402   20.4269 O   0  0  0  0  0  0
  -31.4879  -12.6132   19.1779 H   0  0  0  0  0  0
  -30.4101  -11.4782   19.9341 H   0  0  0  0  0  0
  -29.8064  -11.7794   17.5149 H   0  0  0  0  0  0
  -29.6427  -13.5017   17.7485 H   0  0  0  0  0  0
  -27.9003  -11.2972   18.8934 H   0  0  0  0  0  0
  -27.3910  -12.5618   17.8055 H   0  0  0  0  0  0
  -27.6632  -14.2600   19.5203 H   0  0  0  0  0  0
  -28.7313  -12.0927   21.3912 H   0  0  0  0  0  0
  -28.4066  -13.7351   21.8538 H   0  0  0  0  0  0
  -25.2768   -9.5641   22.4783 H   0  0  0  0  0  0
  -23.9984   -7.4608   22.7489 H   0  0  0  0  0  0
  -21.0844   -8.8779   19.8961 H   0  0  0  0  0  0
  -22.3728  -10.9662   19.6180 H   0  0  0  0  0  0
  -21.2001   -7.6140   23.9709 H   0  0  0  0  0  0
  -21.1480   -6.0520   25.9075 H   0  0  0  0  0  0
  -22.0601   -2.7603   23.2851 H   0  0  0  0  0  0
  -22.4078  -11.9862   22.4806 H   0  0  0  0  0  0
  -21.1105  -13.1256   22.2634 H   0  0  0  0  0  0
  -24.6088  -15.8057   20.4116 H   0  0  0  0  0  0
  -26.2167  -15.6024   19.9442 H   0  0  0  0  0  0
  -26.7220  -32.5401   23.1073 H   0  0  0  0  0  0
  -25.0079  -33.9691   25.0394 H   0  0  0  0  0  0
  -22.7282  -31.2996   21.3943 H   0  0  0  0  0  0
  -23.3754  -35.9609   23.3300 H   0  0  0  0  0  0
  -24.3576  -36.8907   22.2054 H   0  0  0  0  0  0
  -23.7242  -37.6478   23.6669 H   0  0  0  0  0  0
  -26.1207  -31.5256   20.6103 H   0  0  0  0  0  0
  -26.8555  -30.8132   22.0142 H   0  0  0  0  0  0
  -28.1284  -28.9194   21.1999 H   0  0  0  0  0  0
  -25.9352  -25.9030   19.0066 H   0  0  0  0  0  0
  -23.9731  -27.3063   19.0083 H   0  0  0  0  0  0
  -23.7794  -30.5880   19.4032 H   0  0  0  0  0  0
  -22.7694  -29.2467   19.8504 H   0  0  0  0  0  0
  -25.1299  -36.1911   25.0817 H   0  0  0  0  0  0
  -20.9993  -28.3287   24.1382 H   0  0  0  0  0  0
  -20.5685  -26.2318   23.3613 H   0  0  0  0  0  0
  -21.6652  -26.7442   22.1201 H   0  0  0  0  0  0
  -19.6919  -25.6292   21.1249 H   0  0  0  0  0  0
  -19.6691  -27.3188   20.6736 H   0  0  0  0  0  0
  -17.4206  -26.6676   21.4029 H   0  0  0  0  0  0
  -18.0338  -26.0078   22.9025 H   0  0  0  0  0  0
  -19.7946  -30.7281   24.2257 H   0  0  0  0  0  0
  -17.5023  -31.6269   24.5168 H   0  0  0  0  0  0
  -15.5360  -30.2988   23.7659 H   0  0  0  0  0  0
  -15.8681  -28.0820   22.7074 H   0  0  0  0  0  0
  -24.5897  -30.7093   25.7764 H   0  0  0  0  0  0
  -24.8916  -32.2913   26.4850 H   0  0  0  0  0  0
  -25.8028  -30.8924   27.0229 H   0  0  0  0  0  0
  -26.2959  -29.6737   24.1238 H   0  0  0  0  0  0
  -27.4025  -29.7270   25.4760 H   0  0  0  0  0  0
  -27.8844  -30.4268   23.9496 H   0  0  0  0  0  0
  -27.2659  -33.3637   26.2065 H   0  0  0  0  0  0
  -28.3877  -32.6884   25.0343 H   0  0  0  0  0  0
  -28.0715  -31.8470   26.5438 H   0  0  0  0  0  0
  -28.2595  -38.0094   24.7510 H   0  0  0  0  0  0
  -28.1075  -36.2625   24.6295 H   0  0  0  0  0  0
  -27.2295  -37.1450   25.8868 H   0  0  0  0  0  0
  -20.9415  -29.8772   21.6851 H   0  0  0  0  0  0
  -26.0166  -38.2841   24.1409 H   0  0  0  0  0  0
  -27.4827  -16.1310   21.6195 H   0  0  0  0  0  0
  -27.0515  -20.3031   20.9167 H   0  0  0  0  0  0
  -30.9505  -18.4473   20.5053 H   0  0  0  0  0  0
  -23.7340  -18.8071   21.7010 H   0  0  0  0  0  0
  -24.9354  -19.9337   20.8802 H   0  0  0  0  0  0
  -25.4281  -17.1882   22.1452 H   0  0  0  0  0  0
  -29.7381  -23.9186   21.2144 H   0  0  0  0  0  0
  -29.8857  -23.7651   19.4930 H   0  0  0  0  0  0
  -27.2583  -24.6621   20.8176 H   0  0  0  0  0  0
  -27.6382  -24.6652   19.1198 H   0  0  0  0  0  0
  -27.9679  -21.9843   19.5997 H   0  0  0  0  0  0
  -28.0875  -22.1095   21.3345 H   0  0  0  0  0  0
  -29.3260  -15.2087   21.8805 H   0  0  0  0  0  0
  1 25  1  0  0  0
  1 30  2  0  0  0
  1 82  1  0  0  0
  2  3  1  0  0  0
  2 25  1  0  0  0
  2 84  1  0  0  0
  2 85  1  0  0  0
  3  4  1  0  0  0
  3 86  1  0  0  0
  3 87  1  0  0  0
  4  5  1  0  0  0
  4 88  1  0  0  0
  4 89  1  0  0  0
  5  6  1  0  0  0
  5 26  1  0  0  0
  5 90  1  0  0  0
  6 25  1  0  0  0
  6 91  1  0  0  0
  6 92  1  0  0  0
  7  8  2  0  0  0
  7 26  1  0  0  0
  7 29  1  0  0  0
  8  9  1  0  0  0
  8 22  1  0  0  0
  9 10  1  0  0  0
  9 27  2  0  0  0
 10 11  2  0  0  0
 10 15  1  0  0  0
 11 12  1  0  0  0
 11 93  1  0  0  0
 12 13  2  0  0  0
 12 94  1  0  0  0
 13 14  1  0  0  0
 13 31  1  0  0  0
 14 15  2  0  0  0
 14 95  1  0  0  0
 15 96  1  0  0  0
 16 17  2  0  0  0
 16 21  1  0  0  0
 16 31  1  0  0  0
 17 18  1  0  0  0
 17 97  1  0  0  0
 18 19  2  0  0  0
 18 98  1  0  0  0
 19 20  1  0  0  0
 19 24  1  0  0  0
 20 21  2  0  0  0
 20 99  1  0  0  0
 21 23  1  0  0  0
 22 28  1  0  0  0
 22 32  2  0  0  0
 26 27  1  0  0  0
 28100  1  0  0  0
 28101  1  0  0  0
 29102  1  0  0  0
 29103  1  0  0  0
 33 34  1  0  0  0
 33 66  1  0  0  0
 33 70  2  0  0  0
 34 36  1  0  0  0
 34 59  1  0  0  0
 34104  1  0  0  0
 35 44  2  0  0  0
 35 45  1  0  0  0
 35 68  1  0  0  0
 36 56  1  0  0  0
 36105  1  0  0  0
 37 39  1  0  0  0
 37 47  1  0  0  0
 37 66  1  0  0  0
 37106  1  0  0  0
 38 43  2  0  0  0
 38 46  1  0  0  0
 38 47  1  0  0  0
 39 64  1  0  0  0
 39 67  2  0  0  0
 40 52  1  0  0  0
 40 53  2  0  0  0
 40 58  1  0  0  0
 41107  1  0  0  0
 41108  1  0  0  0
 41109  1  0  0  0
 41 48  1  0  0  0
 42 43  1  0  0  0
 42 66  1  0  0  0
 42110  1  0  0  0
 42111  1  0  0  0
 43 44  1  0  0  0
 44112  1  0  0  0
 45 46  2  0  0  0
 45113  1  0  0  0
 46114  1  0  0  0
 47115  1  0  0  0
 47116  1  0  0  0
 48 56  1  0  0  0
 48 65  1  0  0  0
 48117  1  0  0  0
 49 50  1  0  0  0
 49 53  1  0  0  0
 49 64  1  0  0  0
 49118  1  0  0  0
 50 51  1  0  0  0
 50119  1  0  0  0
 50120  1  0  0  0
 51 52  1  0  0  0
 51121  1  0  0  0
 51122  1  0  0  0
 52123  1  0  0  0
 52124  1  0  0  0
 53 54  1  0  0  0
 54 55  2  0  0  0
 54125  1  0  0  0
 55 57  1  0  0  0
 55126  1  0  0  0
 56 69  2  0  0  0
 57 58  2  0  0  0
 57127  1  0  0  0
 58128  1  0  0  0
 59 60  1  0  0  0
 59 61  1  0  0  0
 59 62  1  0  0  0
 60129  1  0  0  0
 60130  1  0  0  0
 60131  1  0  0  0
 61132  1  0  0  0
 61133  1  0  0  0
 61134  1  0  0  0
 62135  1  0  0  0
 62136  1  0  0  0
 62137  1  0  0  0
 63 65  1  0  0  0
 63138  1  0  0  0
 63139  1  0  0  0
 63140  1  0  0  0
 64141  1  0  0  0
 65142  1  0  0  0
 68 80  1  0  0  0
 71 74  2  0  0  0
 71 75  1  0  0  0
 71143  1  0  0  0
 72 74  1  0  0  0
 72 76  2  0  0  0
 72144  1  0  0  0
 73 75  2  0  0  0
 73 76  1  0  0  0
 73145  1  0  0  0
 74 78  1  0  0  0
 75 82  1  0  0  0
 76 83  1  0  0  0
 77 78  2  0  0  0
 77146  1  0  0  0
 77147  1  0  0  0
 78148  1  0  0  0
 79 80  1  0  0  0
 79 81  1  0  0  0
 79149  1  0  0  0
 79150  1  0  0  0
 80151  1  0  0  0
 80152  1  0  0  0
 81 83  1  0  0  0
 81153  1  0  0  0
 81154  1  0  0  0
 82155  1  0  0  0
M  ISO  4   1 100  68 101  80 101  82 100
M  END
> <chiral flag>
0

> <version>
0

> <s_m_source_file>
/data/baiqing/PycharmProjects/Reinvent-master-3.2/result/LINK_invent/BTK/process_docking_weight1_custom_product_contain_oxygen_bond_distance_aromatic_linkinvent_7_9_3/rearranged_h_0116.sdf

> <i_m_source_file_index>
26

> <r_mmod_Potential_Energy-OPLS-2005>
274.789154052734

> <r_mmod_Stretch_Energy-OPLS-2005>
143.832336425781

> <r_mmod_Bend_Energy-OPLS-2005>
216.220657348633

> <r_mmod_Torsional_Energy-OPLS-2005>
241.396224975586

> <r_mmod_Improper_Torsional_Energy-OPLS-2005>
7.59618139266968

> <r_mmod_Van_der_Waal_Energy-OPLS-2005>
144.894668579102

> <r_mmod_Electrostatic_Energy-OPLS-2005>
-354.947418212891

> <r_mmod_Solvation_Energy-OPLS-2005>
-212.924850463867

> <b_mmod_Minimization_Converged-OPLS-2005>
0

> <r_mmod_RMS_Derivative-OPLS-2005>
0.385523647069931

$$$$
26
                    3D
 Structure written by MMmdl.
159167  0  0  1  0            999 V2000
  -30.6573  -14.4937   20.5737 C   0  0  0  0  0  0
  -30.4358  -12.3182   19.4211 C   0  0  0  0  0  0
  -29.5007  -12.5035   18.2058 C   0  0  0  0  0  0
  -28.0193  -12.3688   18.6145 C   0  0  0  0  0  0
  -27.6643  -13.2006   19.8763 C   0  0  2  0  0  0
  -28.7033  -12.9571   20.9932 C   0  0  0  0  0  0
  -25.2606  -13.8141   20.5661 C   0  0  0  0  0  0
  -24.1842  -13.0436   20.9153 C   0  0  0  0  0  0
  -24.6375  -11.6896   20.8713 C   0  0  0  0  0  0
  -23.9035  -10.4290   21.0400 C   0  0  0  0  0  0
  -24.3597   -9.4211   21.9185 C   0  0  0  0  0  0
  -23.6276   -8.2249   22.0764 C   0  0  0  0  0  0
  -22.4262   -8.0281   21.3547 C   0  0  0  0  0  0
  -21.9882   -9.0253   20.4655 C   0  0  0  0  0  0
  -22.7203  -10.2136   20.3051 C   0  0  0  0  0  0
  -21.6849   -6.0728   22.5273 C   0  0  0  0  0  0
  -21.4018   -6.5638   23.8208 C   0  0  0  0  0  0
  -21.3654   -5.6788   24.9169 C   0  0  0  0  0  0
  -21.6042   -4.3050   24.7220 C   0  0  0  0  0  0
  -21.8822   -3.8141   23.4341 C   0  0  0  0  0  0
  -21.9196   -4.6955   22.3391 C   0  0  0  0  0  0
  -22.7870  -13.5265   21.1814 C   0  0  0  0  0  0
  -22.1670   -4.2143   21.0968 F   0  0  0  0  0  0
  -21.5618   -3.4532   25.7731 F   0  0  0  0  0  0
  -30.0351  -13.2881   20.4528 N   0  0  0  0  0  0
  -26.3033  -12.9300   20.3346 N   0  0  0  0  0  0
  -25.9302  -11.6465   20.5743 N   0  0  0  0  0  0
  -22.0489  -12.8286   22.0381 N   0  0  0  0  0  0
  -25.4381  -15.1857   20.4096 N   0  0  0  0  0  0
  -31.7778  -14.7213   20.1054 O   0  0  0  0  0  0
  -21.6633   -6.8876   21.4239 O   0  0  0  0  0  0
  -22.3571  -14.5568   20.6649 O   0  0  0  0  0  0
  -24.6166  -31.8654   23.2103 C   0  0  0  0  0  0
  -25.9054  -32.4807   23.8386 C   0  0  1  0  0  0
  -27.2359  -27.4200   20.0835 C   0  0  0  0  0  0
  -25.5914  -33.8607   24.2319 N   0  0  0  0  0  0
  -23.4040  -30.4909   21.5513 C   0  0  2  0  0  0
  -24.8486  -28.9569   20.1127 C   0  0  0  0  0  0
  -22.7408  -29.4646   22.4983 C   0  0  0  0  0  0
  -18.0271  -28.1373   22.8483 C   0  0  0  0  0  0
  -24.1478  -36.7306   23.2635 C   0  0  0  0  0  0
  -25.9355  -30.8262   21.3649 C   0  0  0  0  0  0
  -26.0110  -29.4613   20.7074 C   0  0  0  0  0  0
  -27.2052  -28.7000   20.6899 C   0  0  0  0  0  0
  -26.0442  -26.9291   19.4968 C   0  0  0  0  0  0
  -24.8598  -27.6900   19.5067 C   0  0  0  0  0  0
  -23.6111  -29.8260   20.1650 C   0  0  0  0  0  0
  -25.4098  -36.3097   24.0334 C   0  0  1  0  0  0
  -20.5859  -28.3653   23.1308 C   0  0  2  0  0  0
  -20.6755  -26.9387   22.5410 C   0  0  0  0  0  0
  -19.5739  -26.6374   21.5200 C   0  0  0  0  0  0
  -18.1918  -26.7919   22.1612 C   0  0  0  0  0  0
  -19.1520  -28.8830   23.2897 C   0  0  0  0  0  0
  -18.9454  -30.1435   23.8907 C   0  0  0  0  0  0
  -17.6457  -30.6580   24.0563 C   0  0  0  0  0  0
  -25.9033  -34.9466   23.5123 C   0  0  0  0  0  0
  -16.5348  -29.9080   23.6331 C   0  0  0  0  0  0
  -16.7260  -28.6501   23.0347 C   0  0  0  0  0  0
  -26.4486  -31.6599   25.0724 C   0  0  0  0  0  0
  -25.3767  -31.3719   26.1492 C   0  0  0  0  0  0
  -27.0311  -30.3036   24.6112 C   0  0  0  0  0  0
  -27.6050  -32.4329   25.7492 C   0  0  0  0  0  0
  -27.5576  -37.1796   24.8458 C   0  0  0  0  0  0
  -21.4132  -29.3025   22.3719 N   0  0  0  0  0  0
  -26.4279  -37.3787   23.9417 N   0  0  0  0  0  0
  -24.6703  -31.0747   22.1006 N   0  0  0  0  0  0
  -23.4177  -28.8180   23.3023 O   0  0  0  0  0  0
  -28.4051  -26.6753   20.1108 O   0  0  0  0  0  0
  -26.5589  -34.8921   22.4680 O   0  0  0  0  0  0
  -23.5356  -32.1412   23.7500 O   0  0  0  0  0  0
  -29.7762  -18.9609   19.6856 C   0  0  0  0  0  0
  -29.8671  -17.6601   22.1583 C   0  0  0  0  0  0
  -29.8544  -17.5403   19.7243 C   0  0  0  0  0  0
  -29.7716  -19.0691   22.1043 C   0  0  0  0  0  0
  -29.9276  -16.8767   20.9854 C   0  0  0  0  0  0
  -29.7242  -19.7474   20.8649 C   0  0  0  0  0  0
  -30.2419  -17.2541   17.2587 C   0  0  0  0  0  0
  -29.8402  -16.7892   18.4537 C   0  0  0  0  0  0
  -28.7108  -24.2813   20.0950 C   0  0  0  0  0  0
  -28.4514  -25.4536   19.4718 C   0  0  0  0  0  0
  -29.7097  -19.8629   23.3971 C   0  0  0  0  0  0
  -28.7241  -22.9161   19.4000 C   0  0  0  0  0  0
  -29.8937  -21.9690   19.7813 C   0  0  0  0  0  0
  -29.9033  -15.4513   21.1537 N   0  0  0  0  0  0
  -29.5721  -21.1318   20.9047 O   0  0  0  0  0  0
  -31.4773  -12.4427   19.1181 H   0  0  0  0  0  0
  -30.3618  -11.3034   19.8142 H   0  0  0  0  0  0
  -29.7390  -11.7690   17.4348 H   0  0  0  0  0  0
  -29.6708  -13.4820   17.7549 H   0  0  0  0  0  0
  -27.8245  -11.3128   18.8050 H   0  0  0  0  0  0
  -27.3746  -12.6537   17.7821 H   0  0  0  0  0  0
  -27.7129  -14.2509   19.5890 H   0  0  0  0  0  0
  -28.6838  -11.9108   21.3011 H   0  0  0  0  0  0
  -28.4541  -13.5216   21.8926 H   0  0  0  0  0  0
  -25.2743   -9.5687   22.4761 H   0  0  0  0  0  0
  -23.9979   -7.4643   22.7484 H   0  0  0  0  0  0
  -21.0811   -8.8765   19.8969 H   0  0  0  0  0  0
  -22.3656  -10.9675   19.6157 H   0  0  0  0  0  0
  -21.2018   -7.6148   23.9712 H   0  0  0  0  0  0
  -21.1471   -6.0520   25.9074 H   0  0  0  0  0  0
  -22.0603   -2.7601   23.2844 H   0  0  0  0  0  0
  -22.4078  -11.9952   22.4793 H   0  0  0  0  0  0
  -21.1108  -13.1354   22.2544 H   0  0  0  0  0  0
  -24.6794  -15.8491   20.5244 H   0  0  0  0  0  0
  -26.2994  -15.6190   20.1010 H   0  0  0  0  0  0
  -26.7119  -32.5506   23.1137 H   0  0  0  0  0  0
  -25.0086  -33.9762   25.0480 H   0  0  0  0  0  0
  -22.6939  -31.3094   21.4148 H   0  0  0  0  0  0
  -23.3738  -35.9643   23.3298 H   0  0  0  0  0  0
  -24.3570  -36.8925   22.2050 H   0  0  0  0  0  0
  -23.7231  -37.6510   23.6652 H   0  0  0  0  0  0
  -26.0523  -31.5935   20.5983 H   0  0  0  0  0  0
  -26.8219  -30.8750   21.9857 H   0  0  0  0  0  0
  -28.1036  -29.0870   21.1499 H   0  0  0  0  0  0
  -26.0046  -25.9528   19.0366 H   0  0  0  0  0  0
  -23.9638  -27.2909   19.0519 H   0  0  0  0  0  0
  -23.7185  -30.6032   19.4076 H   0  0  0  0  0  0
  -22.7331  -29.2494   19.8683 H   0  0  0  0  0  0
  -25.1267  -36.1957   25.0825 H   0  0  0  0  0  0
  -20.9952  -28.3218   24.1427 H   0  0  0  0  0  0
  -20.5631  -26.2260   23.3594 H   0  0  0  0  0  0
  -21.6631  -26.7410   22.1223 H   0  0  0  0  0  0
  -19.6899  -25.6285   21.1225 H   0  0  0  0  0  0
  -19.6687  -27.3185   20.6734 H   0  0  0  0  0  0
  -17.4179  -26.6652   21.4027 H   0  0  0  0  0  0
  -18.0335  -26.0063   22.9012 H   0  0  0  0  0  0
  -19.7931  -30.7245   24.2284 H   0  0  0  0  0  0
  -17.5016  -31.6264   24.5156 H   0  0  0  0  0  0
  -15.5350  -30.2988   23.7658 H   0  0  0  0  0  0
  -15.8655  -28.0829   22.7057 H   0  0  0  0  0  0
  -24.5914  -30.7084   25.7853 H   0  0  0  0  0  0
  -24.9003  -32.2890   26.4969 H   0  0  0  0  0  0
  -25.8147  -30.8873   27.0230 H   0  0  0  0  0  0
  -26.2851  -29.6793   24.1181 H   0  0  0  0  0  0
  -27.4090  -29.7275   25.4569 H   0  0  0  0  0  0
  -27.8685  -30.4343   23.9253 H   0  0  0  0  0  0
  -27.2647  -33.3605   26.2108 H   0  0  0  0  0  0
  -28.3847  -32.6934   25.0321 H   0  0  0  0  0  0
  -28.0735  -31.8439   26.5387 H   0  0  0  0  0  0
  -28.2581  -38.0104   24.7524 H   0  0  0  0  0  0
  -28.1083  -36.2640   24.6252 H   0  0  0  0  0  0
  -27.2304  -37.1409   25.8862 H   0  0  0  0  0  0
  -20.9281  -29.8770   21.6966 H   0  0  0  0  0  0
  -26.0166  -38.2856   24.1456 H   0  0  0  0  0  0
  -29.6852  -19.4323   18.7210 H   0  0  0  0  0  0
  -29.8806  -17.1683   23.1209 H   0  0  0  0  0  0
  -30.1735  -16.6344   16.3768 H   0  0  0  0  0  0
  -30.6490  -18.2457   17.1307 H   0  0  0  0  0  0
  -29.4426  -15.7867   18.4866 H   0  0  0  0  0  0
  -28.8986  -24.2757   21.1589 H   0  0  0  0  0  0
  -28.2511  -25.5392   18.4117 H   0  0  0  0  0  0
  -29.7967  -19.2193   24.2735 H   0  0  0  0  0  0
  -28.7667  -20.4055   23.4665 H   0  0  0  0  0  0
  -30.5225  -20.5885   23.4314 H   0  0  0  0  0  0
  -28.7623  -23.0982   18.3252 H   0  0  0  0  0  0
  -27.7725  -22.4160   19.5801 H   0  0  0  0  0  0
  -30.7752  -22.5574   20.0368 H   0  0  0  0  0  0
  -30.1907  -21.4104   18.8980 H   0  0  0  0  0  0
  -29.1114  -15.0942   21.6670 H   0  0  0  0  0  0
  1 25  1  0  0  0
  1 30  2  0  0  0
  1 84  1  0  0  0
  2  3  1  0  0  0
  2 25  1  0  0  0
  2 86  1  0  0  0
  2 87  1  0  0  0
  3  4  1  0  0  0
  3 88  1  0  0  0
  3 89  1  0  0  0
  4  5  1  0  0  0
  4 90  1  0  0  0
  4 91  1  0  0  0
  5  6  1  0  0  0
  5 26  1  0  0  0
  5 92  1  0  0  0
  6 25  1  0  0  0
  6 93  1  0  0  0
  6 94  1  0  0  0
  7  8  2  0  0  0
  7 26  1  0  0  0
  7 29  1  0  0  0
  8  9  1  0  0  0
  8 22  1  0  0  0
  9 10  1  0  0  0
  9 27  2  0  0  0
 10 11  2  0  0  0
 10 15  1  0  0  0
 11 12  1  0  0  0
 11 95  1  0  0  0
 12 13  2  0  0  0
 12 96  1  0  0  0
 13 14  1  0  0  0
 13 31  1  0  0  0
 14 15  2  0  0  0
 14 97  1  0  0  0
 15 98  1  0  0  0
 16 17  2  0  0  0
 16 21  1  0  0  0
 16 31  1  0  0  0
 17 18  1  0  0  0
 17 99  1  0  0  0
 18 19  2  0  0  0
 18100  1  0  0  0
 19 20  1  0  0  0
 19 24  1  0  0  0
 20 21  2  0  0  0
 20101  1  0  0  0
 21 23  1  0  0  0
 22 28  1  0  0  0
 22 32  2  0  0  0
 26 27  1  0  0  0
 28102  1  0  0  0
 28103  1  0  0  0
 29104  1  0  0  0
 29105  1  0  0  0
 33 34  1  0  0  0
 33 66  1  0  0  0
 33 70  2  0  0  0
 34 36  1  0  0  0
 34 59  1  0  0  0
 34106  1  0  0  0
 35 44  2  0  0  0
 35 45  1  0  0  0
 35 68  1  0  0  0
 36 56  1  0  0  0
 36107  1  0  0  0
 37 39  1  0  0  0
 37 47  1  0  0  0
 37 66  1  0  0  0
 37108  1  0  0  0
 38 43  2  0  0  0
 38 46  1  0  0  0
 38 47  1  0  0  0
 39 64  1  0  0  0
 39 67  2  0  0  0
 40 52  1  0  0  0
 40 53  2  0  0  0
 40 58  1  0  0  0
 41109  1  0  0  0
 41110  1  0  0  0
 41111  1  0  0  0
 41 48  1  0  0  0
 42 43  1  0  0  0
 42 66  1  0  0  0
 42112  1  0  0  0
 42113  1  0  0  0
 43 44  1  0  0  0
 44114  1  0  0  0
 45 46  2  0  0  0
 45115  1  0  0  0
 46116  1  0  0  0
 47117  1  0  0  0
 47118  1  0  0  0
 48 56  1  0  0  0
 48 65  1  0  0  0
 48119  1  0  0  0
 49 50  1  0  0  0
 49 53  1  0  0  0
 49 64  1  0  0  0
 49120  1  0  0  0
 50 51  1  0  0  0
 50121  1  0  0  0
 50122  1  0  0  0
 51 52  1  0  0  0
 51123  1  0  0  0
 51124  1  0  0  0
 52125  1  0  0  0
 52126  1  0  0  0
 53 54  1  0  0  0
 54 55  2  0  0  0
 54127  1  0  0  0
 55 57  1  0  0  0
 55128  1  0  0  0
 56 69  2  0  0  0
 57 58  2  0  0  0
 57129  1  0  0  0
 58130  1  0  0  0
 59 60  1  0  0  0
 59 61  1  0  0  0
 59 62  1  0  0  0
 60131  1  0  0  0
 60132  1  0  0  0
 60133  1  0  0  0
 61134  1  0  0  0
 61135  1  0  0  0
 61136  1  0  0  0
 62137  1  0  0  0
 62138  1  0  0  0
 62139  1  0  0  0
 63 65  1  0  0  0
 63140  1  0  0  0
 63141  1  0  0  0
 63142  1  0  0  0
 64143  1  0  0  0
 65144  1  0  0  0
 68 80  1  0  0  0
 71 73  2  0  0  0
 71 76  1  0  0  0
 71145  1  0  0  0
 72 74  1  0  0  0
 72 75  2  0  0  0
 72146  1  0  0  0
 73 75  1  0  0  0
 73 78  1  0  0  0
 74 76  2  0  0  0
 74 81  1  0  0  0
 75 84  1  0  0  0
 76 85  1  0  0  0
 77 78  2  0  0  0
 77147  1  0  0  0
 77148  1  0  0  0
 78149  1  0  0  0
 79 80  2  0  0  0
 79 82  1  0  0  0
 79150  1  0  0  0
 80151  1  0  0  0
 81152  1  0  0  0
 81153  1  0  0  0
 81154  1  0  0  0
 82 83  1  0  0  0
 82155  1  0  0  0
 82156  1  0  0  0
 83 85  1  0  0  0
 83157  1  0  0  0
 83158  1  0  0  0
 84159  1  0  0  0
M  ISO  4   1 100  68 101  80 101  84 100
M  END
> <chiral flag>
0

> <version>
0

> <s_m_source_file>
/data/baiqing/PycharmProjects/Reinvent-master-3.2/result/LINK_invent/BTK/process_docking_weight1_custom_product_contain_oxygen_bond_distance_aromatic_linkinvent_7_9_3/rearranged_h_0116.sdf

> <i_m_source_file_index>
27

> <r_mmod_Potential_Energy-OPLS-2005>
-15.7366228103638

> <r_mmod_Stretch_Energy-OPLS-2005>
42.7695770263672

> <r_mmod_Bend_Energy-OPLS-2005>
115.561996459961

> <r_mmod_Torsional_Energy-OPLS-2005>
249.301193237305

> <r_mmod_Improper_Torsional_Energy-OPLS-2005>
3.99800539016724

> <r_mmod_Van_der_Waal_Energy-OPLS-2005>
158.768463134766

> <r_mmod_Electrostatic_Energy-OPLS-2005>
-395.312225341797

> <r_mmod_Solvation_Energy-OPLS-2005>
-206.051940917969

> <b_mmod_Minimization_Converged-OPLS-2005>
0

> <r_mmod_RMS_Derivative-OPLS-2005>
1.90013194084167

$$$$
27
                    3D
 Structure written by MMmdl.
150158  0  0  1  0            999 V2000
  -30.5605  -14.8345   20.4378 C   0  0  0  0  0  0
  -30.4436  -12.5023   19.4939 C   0  0  0  0  0  0
  -29.5211  -12.5136   18.2526 C   0  0  0  0  0  0
  -28.0474  -12.3217   18.6608 C   0  0  0  0  0  0
  -27.6397  -13.2369   19.8441 C   0  0  2  0  0  0
  -28.6803  -13.1996   20.9809 C   0  0  0  0  0  0
  -25.2515  -13.8203   20.5707 C   0  0  0  0  0  0
  -24.1799  -13.0448   20.9188 C   0  0  0  0  0  0
  -24.6394  -11.6923   20.8728 C   0  0  0  0  0  0
  -23.9074  -10.4291   21.0396 C   0  0  0  0  0  0
  -24.3615   -9.4214   21.9185 C   0  0  0  0  0  0
  -23.6294   -8.2248   22.0759 C   0  0  0  0  0  0
  -22.4278   -8.0279   21.3550 C   0  0  0  0  0  0
  -21.9912   -9.0250   20.4650 C   0  0  0  0  0  0
  -22.7240  -10.2134   20.3057 C   0  0  0  0  0  0
  -21.6857   -6.0730   22.5277 C   0  0  0  0  0  0
  -21.4016   -6.5639   23.8209 C   0  0  0  0  0  0
  -21.3661   -5.6795   24.9170 C   0  0  0  0  0  0
  -21.6045   -4.3058   24.7226 C   0  0  0  0  0  0
  -21.8817   -3.8146   23.4349 C   0  0  0  0  0  0
  -21.9195   -4.6955   22.3403 C   0  0  0  0  0  0
  -22.7819  -13.5223   21.1863 C   0  0  0  0  0  0
  -22.1662   -4.2143   21.0979 F   0  0  0  0  0  0
  -21.5629   -3.4543   25.7741 F   0  0  0  0  0  0
  -29.9805  -13.5757   20.4116 N   0  0  0  0  0  0
  -26.2929  -12.9413   20.3256 N   0  0  0  0  0  0
  -25.9322  -11.6548   20.5727 N   0  0  0  0  0  0
  -22.0472  -12.8208   22.0417 N   0  0  0  0  0  0
  -25.4252  -15.1925   20.4168 N   0  0  0  0  0  0
  -31.7517  -14.9087   20.1245 O   0  0  0  0  0  0
  -21.6646   -6.8878   21.4243 O   0  0  0  0  0  0
  -22.3492  -14.5528   20.6712 O   0  0  0  0  0  0
  -24.6372  -31.8501   23.1932 C   0  0  0  0  0  0
  -25.9173  -32.4725   23.8299 C   0  0  1  0  0  0
  -27.2174  -27.1980   20.1462 C   0  0  0  0  0  0
  -25.5950  -33.8526   24.2222 N   0  0  0  0  0  0
  -23.4364  -30.4725   21.5370 C   0  0  2  0  0  0
  -24.8856  -28.9078   20.1127 C   0  0  0  0  0  0
  -22.7526  -29.4599   22.4880 C   0  0  0  0  0  0
  -18.0295  -28.1387   22.8477 C   0  0  0  0  0  0
  -24.1496  -36.7271   23.2640 C   0  0  0  0  0  0
  -25.9882  -30.7463   21.3810 C   0  0  0  0  0  0
  -26.0612  -29.3624   20.7240 C   0  0  0  0  0  0
  -27.2302  -28.5231   20.7232 C   0  0  0  0  0  0
  -26.0161  -26.8291   19.5020 C   0  0  0  0  0  0
  -24.8720  -27.6517   19.4882 C   0  0  0  0  0  0
  -23.6597  -29.8031   20.1557 C   0  0  0  0  0  0
  -25.4123  -36.3045   24.0318 C   0  0  1  0  0  0
  -20.5904  -28.3720   23.1246 C   0  0  2  0  0  0
  -20.6790  -26.9438   22.5396 C   0  0  0  0  0  0
  -19.5764  -26.6389   21.5212 C   0  0  0  0  0  0
  -18.1940  -26.7933   22.1612 C   0  0  0  0  0  0
  -19.1549  -28.8871   23.2859 C   0  0  0  0  0  0
  -18.9464  -30.1465   23.8886 C   0  0  0  0  0  0
  -17.6461  -30.6586   24.0560 C   0  0  0  0  0  0
  -25.9073  -34.9421   23.5073 C   0  0  0  0  0  0
  -16.5356  -29.9079   23.6324 C   0  0  0  0  0  0
  -16.7281  -28.6494   23.0348 C   0  0  0  0  0  0
  -26.4520  -31.6568   25.0710 C   0  0  0  0  0  0
  -25.3725  -31.3733   26.1417 C   0  0  0  0  0  0
  -27.0386  -30.2976   24.6246 C   0  0  0  0  0  0
  -27.6056  -32.4320   25.7494 C   0  0  0  0  0  0
  -27.5579  -37.1794   24.8465 C   0  0  0  0  0  0
  -21.4225  -29.3074   22.3631 N   0  0  0  0  0  0
  -26.4292  -37.3751   23.9402 N   0  0  0  0  0  0
  -24.7064  -31.0425   22.0926 N   0  0  0  0  0  0
  -23.4195  -28.8134   23.3002 O   0  0  0  0  0  0
  -28.2952  -26.2614   20.2045 O   0  0  0  0  0  0
  -26.5642  -34.8904   22.4641 O   0  0  0  0  0  0
  -23.5512  -32.1352   23.7201 O   0  0  0  0  0  0
  -27.9757  -18.9237   20.6097 C   0  0  0  0  0  0
  -27.8060  -20.3646   20.5520 C   0  0  0  0  0  0
  -29.3034  -18.5844   20.5030 C   0  0  0  0  0  0
  -29.0464  -20.9441   20.4325 C   0  0  0  0  0  0
  -29.5681  -22.3610   20.3450 C   0  0  0  0  0  0
  -30.0932  -17.2468   20.4561 C   0  0  0  0  0  0
  -29.2799  -23.7411   20.2620 C   0  0  0  0  0  0
  -25.4462  -20.3123   20.8106 C   0  0  0  0  0  0
  -28.0365  -24.7498   20.1726 C   0  0  0  0  0  0
  -29.6953  -15.9874   20.6548 N   0  0  0  0  0  0
  -29.9600  -19.8425   20.3937 O   0  0  0  0  0  0
  -26.6297  -21.0747   20.6100 O   0  0  0  0  0  0
  -31.4799  -12.6415   19.1818 H   0  0  0  0  0  0
  -30.4098  -11.5326   19.9933 H   0  0  0  0  0  0
  -29.8192  -11.7328   17.5513 H   0  0  0  0  0  0
  -29.6329  -13.4610   17.7232 H   0  0  0  0  0  0
  -27.9194  -11.2764   18.9446 H   0  0  0  0  0  0
  -27.3910  -12.4883   17.8060 H   0  0  0  0  0  0
  -27.6288  -14.2522   19.4471 H   0  0  0  0  0  0
  -28.7306  -12.2069   21.4308 H   0  0  0  0  0  0
  -28.3972  -13.8862   21.7809 H   0  0  0  0  0  0
  -25.2753   -9.5693   22.4768 H   0  0  0  0  0  0
  -23.9997   -7.4643   22.7484 H   0  0  0  0  0  0
  -21.0842   -8.8760   19.8963 H   0  0  0  0  0  0
  -22.3683  -10.9665   19.6168 H   0  0  0  0  0  0
  -21.2006   -7.6149   23.9708 H   0  0  0  0  0  0
  -21.1491   -6.0530   25.9076 H   0  0  0  0  0  0
  -22.0597   -2.7609   23.2852 H   0  0  0  0  0  0
  -22.4090  -11.9864   22.4780 H   0  0  0  0  0  0
  -21.1100  -13.1244   22.2651 H   0  0  0  0  0  0
  -24.6726  -15.8600   20.5414 H   0  0  0  0  0  0
  -26.3028  -15.6213   20.1493 H   0  0  0  0  0  0
  -26.7232  -32.5357   23.1029 H   0  0  0  0  0  0
  -25.0085  -33.9646   25.0360 H   0  0  0  0  0  0
  -22.7362  -31.2969   21.3854 H   0  0  0  0  0  0
  -23.3758  -35.9606   23.3296 H   0  0  0  0  0  0
  -24.3584  -36.8907   22.2058 H   0  0  0  0  0  0
  -23.7258  -37.6468   23.6678 H   0  0  0  0  0  0
  -26.1348  -31.5047   20.6106 H   0  0  0  0  0  0
  -26.8613  -30.7957   22.0198 H   0  0  0  0  0  0
  -28.1276  -28.8680   21.2176 H   0  0  0  0  0  0
  -25.9265  -25.8728   19.0138 H   0  0  0  0  0  0
  -23.9734  -27.2983   19.0013 H   0  0  0  0  0  0
  -23.7910  -30.5772   19.3983 H   0  0  0  0  0  0
  -22.7772  -29.2404   19.8470 H   0  0  0  0  0  0
  -25.1316  -36.1879   25.0813 H   0  0  0  0  0  0
  -20.9998  -28.3291   24.1362 H   0  0  0  0  0  0
  -20.5694  -26.2330   23.3596 H   0  0  0  0  0  0
  -21.6653  -26.7457   22.1182 H   0  0  0  0  0  0
  -19.6936  -25.6298   21.1245 H   0  0  0  0  0  0
  -19.6690  -27.3189   20.6738 H   0  0  0  0  0  0
  -17.4220  -26.6673   21.4006 H   0  0  0  0  0  0
  -18.0324  -26.0076   22.9007 H   0  0  0  0  0  0
  -19.7935  -30.7287   24.2264 H   0  0  0  0  0  0
  -17.5014  -31.6254   24.5181 H   0  0  0  0  0  0
  -15.5356  -30.2968   23.7676 H   0  0  0  0  0  0
  -15.8683  -28.0804   22.7069 H   0  0  0  0  0  0
  -24.5902  -30.7085   25.7733 H   0  0  0  0  0  0
  -24.8923  -32.2916   26.4813 H   0  0  0  0  0  0
  -25.8028  -30.8920   27.0212 H   0  0  0  0  0  0
  -26.2994  -29.6692   24.1267 H   0  0  0  0  0  0
  -27.4048  -29.7268   25.4792 H   0  0  0  0  0  0
  -27.8877  -30.4231   23.9520 H   0  0  0  0  0  0
  -27.2651  -33.3627   26.2046 H   0  0  0  0  0  0
  -28.3887  -32.6872   25.0339 H   0  0  0  0  0  0
  -28.0706  -31.8465   26.5440 H   0  0  0  0  0  0
  -28.2592  -38.0093   24.7503 H   0  0  0  0  0  0
  -28.1076  -36.2622   24.6305 H   0  0  0  0  0  0
  -27.2291  -37.1455   25.8866 H   0  0  0  0  0  0
  -20.9412  -29.8791   21.6826 H   0  0  0  0  0  0
  -26.0164  -38.2821   24.1396 H   0  0  0  0  0  0
  -27.1914  -18.1868   20.7053 H   0  0  0  0  0  0
  -30.6453  -22.2644   20.3588 H   0  0  0  0  0  0
  -31.1428  -17.4125   20.1990 H   0  0  0  0  0  0
  -30.1826  -24.3351   20.2299 H   0  0  0  0  0  0
  -25.4950  -19.7341   21.7351 H   0  0  0  0  0  0
  -25.2588  -19.6341   19.9768 H   0  0  0  0  0  0
  -24.5894  -20.9819   20.8870 H   0  0  0  0  0  0
  -27.3375  -24.4963   20.9703 H   0  0  0  0  0  0
  -27.5398  -24.4988   19.2371 H   0  0  0  0  0  0
  1 25  1  0  0  0
  1 30  2  0  0  0
  1 80  1  0  0  0
  2  3  1  0  0  0
  2 25  1  0  0  0
  2 83  1  0  0  0
  2 84  1  0  0  0
  3  4  1  0  0  0
  3 85  1  0  0  0
  3 86  1  0  0  0
  4  5  1  0  0  0
  4 87  1  0  0  0
  4 88  1  0  0  0
  5  6  1  0  0  0
  5 26  1  0  0  0
  5 89  1  0  0  0
  6 25  1  0  0  0
  6 90  1  0  0  0
  6 91  1  0  0  0
  7  8  2  0  0  0
  7 26  1  0  0  0
  7 29  1  0  0  0
  8  9  1  0  0  0
  8 22  1  0  0  0
  9 10  1  0  0  0
  9 27  2  0  0  0
 10 11  2  0  0  0
 10 15  1  0  0  0
 11 12  1  0  0  0
 11 92  1  0  0  0
 12 13  2  0  0  0
 12 93  1  0  0  0
 13 14  1  0  0  0
 13 31  1  0  0  0
 14 15  2  0  0  0
 14 94  1  0  0  0
 15 95  1  0  0  0
 16 17  2  0  0  0
 16 21  1  0  0  0
 16 31  1  0  0  0
 17 18  1  0  0  0
 17 96  1  0  0  0
 18 19  2  0  0  0
 18 97  1  0  0  0
 19 20  1  0  0  0
 19 24  1  0  0  0
 20 21  2  0  0  0
 20 98  1  0  0  0
 21 23  1  0  0  0
 22 28  1  0  0  0
 22 32  2  0  0  0
 26 27  1  0  0  0
 28 99  1  0  0  0
 28100  1  0  0  0
 29101  1  0  0  0
 29102  1  0  0  0
 33 34  1  0  0  0
 33 66  1  0  0  0
 33 70  2  0  0  0
 34 36  1  0  0  0
 34 59  1  0  0  0
 34103  1  0  0  0
 35 44  2  0  0  0
 35 45  1  0  0  0
 35 68  1  0  0  0
 36 56  1  0  0  0
 36104  1  0  0  0
 37 39  1  0  0  0
 37 47  1  0  0  0
 37 66  1  0  0  0
 37105  1  0  0  0
 38 43  2  0  0  0
 38 46  1  0  0  0
 38 47  1  0  0  0
 39 64  1  0  0  0
 39 67  2  0  0  0
 40 52  1  0  0  0
 40 53  2  0  0  0
 40 58  1  0  0  0
 41106  1  0  0  0
 41107  1  0  0  0
 41108  1  0  0  0
 41 48  1  0  0  0
 42 43  1  0  0  0
 42 66  1  0  0  0
 42109  1  0  0  0
 42110  1  0  0  0
 43 44  1  0  0  0
 44111  1  0  0  0
 45 46  2  0  0  0
 45112  1  0  0  0
 46113  1  0  0  0
 47114  1  0  0  0
 47115  1  0  0  0
 48 56  1  0  0  0
 48 65  1  0  0  0
 48116  1  0  0  0
 49 50  1  0  0  0
 49 53  1  0  0  0
 49 64  1  0  0  0
 49117  1  0  0  0
 50 51  1  0  0  0
 50118  1  0  0  0
 50119  1  0  0  0
 51 52  1  0  0  0
 51120  1  0  0  0
 51121  1  0  0  0
 52122  1  0  0  0
 52123  1  0  0  0
 53 54  1  0  0  0
 54 55  2  0  0  0
 54124  1  0  0  0
 55 57  1  0  0  0
 55125  1  0  0  0
 56 69  2  0  0  0
 57 58  2  0  0  0
 57126  1  0  0  0
 58127  1  0  0  0
 59 60  1  0  0  0
 59 61  1  0  0  0
 59 62  1  0  0  0
 60128  1  0  0  0
 60129  1  0  0  0
 60130  1  0  0  0
 61131  1  0  0  0
 61132  1  0  0  0
 61133  1  0  0  0
 62134  1  0  0  0
 62135  1  0  0  0
 62136  1  0  0  0
 63 65  1  0  0  0
 63137  1  0  0  0
 63138  1  0  0  0
 63139  1  0  0  0
 64140  1  0  0  0
 65141  1  0  0  0
 68 79  1  0  0  0
 71 72  1  0  0  0
 71 73  2  0  0  0
 71142  1  0  0  0
 72 74  2  0  0  0
 72 82  1  0  0  0
 73 76  1  0  0  0
 73 81  1  0  0  0
 74 75  1  0  0  0
 74 81  1  0  0  0
 75 77  2  0  0  0
 75143  1  0  0  0
 76 80  2  0  0  0
 76144  1  0  0  0
 77 79  1  0  0  0
 77145  1  0  0  0
 78 82  1  0  0  0
 78146  1  0  0  0
 78147  1  0  0  0
 78148  1  0  0  0
 79149  1  0  0  0
 79150  1  0  0  0
M  ISO  4   1 100  68 101  79 101  80 100
M  END
> <chiral flag>
0

> <version>
0

> <s_m_source_file>
/data/baiqing/PycharmProjects/Reinvent-master-3.2/result/LINK_invent/BTK/process_docking_weight1_custom_product_contain_oxygen_bond_distance_aromatic_linkinvent_7_9_3/rearranged_h_0116.sdf

> <i_m_source_file_index>
28

> <r_mmod_Potential_Energy-OPLS-2005>
280.807006835938

> <r_mmod_Stretch_Energy-OPLS-2005>
165.6171875

> <r_mmod_Bend_Energy-OPLS-2005>
227.922637939453

> <r_mmod_Torsional_Energy-OPLS-2005>
177.211791992188

> <r_mmod_Improper_Torsional_Energy-OPLS-2005>
3.81984758377075

> <r_mmod_Van_der_Waal_Energy-OPLS-2005>
122.046424865723

> <r_mmod_Electrostatic_Energy-OPLS-2005>
-350.181213378906

> <r_mmod_Solvation_Energy-OPLS-2005>
-192.2705078125

> <b_mmod_Minimization_Converged-OPLS-2005>
0

> <r_mmod_RMS_Derivative-OPLS-2005>
1.66484439373016

$$$$
28
                    3D
 Structure written by MMmdl.
156165  0  0  1  0            999 V2000
  -30.6780  -14.6938   20.4839 C   0  0  0  0  0  0
  -30.4150  -12.4265   19.4775 C   0  0  0  0  0  0
  -29.5026  -12.5054   18.2360 C   0  0  0  0  0  0
  -28.0292  -12.3386   18.6486 C   0  0  0  0  0  0
  -27.6413  -13.2381   19.8532 C   0  0  2  0  0  0
  -28.6860  -13.1781   20.9908 C   0  0  0  0  0  0
  -25.2499  -13.8214   20.5707 C   0  0  0  0  0  0
  -24.1796  -13.0449   20.9208 C   0  0  0  0  0  0
  -24.6396  -11.6932   20.8744 C   0  0  0  0  0  0
  -23.9076  -10.4299   21.0399 C   0  0  0  0  0  0
  -24.3625   -9.4212   21.9178 C   0  0  0  0  0  0
  -23.6296   -8.2247   22.0751 C   0  0  0  0  0  0
  -22.4280   -8.0283   21.3540 C   0  0  0  0  0  0
  -21.9915   -9.0257   20.4644 C   0  0  0  0  0  0
  -22.7246  -10.2134   20.3052 C   0  0  0  0  0  0
  -21.6854   -6.0733   22.5275 C   0  0  0  0  0  0
  -21.4018   -6.5639   23.8207 C   0  0  0  0  0  0
  -21.3663   -5.6792   24.9170 C   0  0  0  0  0  0
  -21.6045   -4.3055   24.7221 C   0  0  0  0  0  0
  -21.8819   -3.8146   23.4342 C   0  0  0  0  0  0
  -21.9193   -4.6962   22.3400 C   0  0  0  0  0  0
  -22.7818  -13.5224   21.1869 C   0  0  0  0  0  0
  -22.1660   -4.2147   21.0978 F   0  0  0  0  0  0
  -21.5629   -3.4543   25.7735 F   0  0  0  0  0  0
  -29.9942  -13.5012   20.4092 N   0  0  0  0  0  0
  -26.2936  -12.9440   20.3306 N   0  0  0  0  0  0
  -25.9330  -11.6573   20.5762 N   0  0  0  0  0  0
  -22.0475  -12.8200   22.0425 N   0  0  0  0  0  0
  -25.4181  -15.1935   20.4126 N   0  0  0  0  0  0
  -31.8535  -14.7171   20.1174 O   0  0  0  0  0  0
  -21.6644   -6.8878   21.4238 O   0  0  0  0  0  0
  -22.3494  -14.5529   20.6722 O   0  0  0  0  0  0
  -24.6315  -31.8576   23.2039 C   0  0  0  0  0  0
  -25.9148  -32.4763   23.8361 C   0  0  1  0  0  0
  -27.2009  -27.2573   20.1153 C   0  0  0  0  0  0
  -25.5941  -33.8569   24.2269 N   0  0  0  0  0  0
  -23.4268  -30.4860   21.5482 C   0  0  2  0  0  0
  -24.8718  -28.9501   20.1038 C   0  0  0  0  0  0
  -22.7500  -29.4615   22.4919 C   0  0  0  0  0  0
  -18.0283  -28.1390   22.8483 C   0  0  0  0  0  0
  -24.1490  -36.7289   23.2639 C   0  0  0  0  0  0
  -25.9768  -30.7644   21.3935 C   0  0  0  0  0  0
  -26.0435  -29.3906   20.7311 C   0  0  0  0  0  0
  -27.2066  -28.5514   20.7421 C   0  0  0  0  0  0
  -26.0185  -26.9277   19.4056 C   0  0  0  0  0  0
  -24.8658  -27.7261   19.4301 C   0  0  0  0  0  0
  -23.6435  -29.8341   20.1598 C   0  0  0  0  0  0
  -25.4116  -36.3072   24.0326 C   0  0  1  0  0  0
  -20.5888  -28.3700   23.1269 C   0  0  2  0  0  0
  -20.6778  -26.9417   22.5406 C   0  0  0  0  0  0
  -19.5750  -26.6381   21.5216 C   0  0  0  0  0  0
  -18.1928  -26.7928   22.1625 C   0  0  0  0  0  0
  -19.1539  -28.8861   23.2869 C   0  0  0  0  0  0
  -18.9464  -30.1460   23.8891 C   0  0  0  0  0  0
  -17.6465  -30.6592   24.0562 C   0  0  0  0  0  0
  -25.9058  -34.9445   23.5094 C   0  0  0  0  0  0
  -16.5354  -29.9089   23.6336 C   0  0  0  0  0  0
  -16.7271  -28.6508   23.0355 C   0  0  0  0  0  0
  -26.4507  -31.6589   25.0754 C   0  0  0  0  0  0
  -25.3714  -31.3770   26.1466 C   0  0  0  0  0  0
  -27.0345  -30.2990   24.6271 C   0  0  0  0  0  0
  -27.6061  -32.4334   25.7515 C   0  0  0  0  0  0
  -27.5577  -37.1795   24.8461 C   0  0  0  0  0  0
  -21.4207  -29.3051   22.3663 N   0  0  0  0  0  0
  -26.4288  -37.3771   23.9410 N   0  0  0  0  0  0
  -24.6973  -31.0532   22.1039 N   0  0  0  0  0  0
  -23.4204  -28.8132   23.2999 O   0  0  0  0  0  0
  -28.2531  -26.3073   20.2258 O   0  0  0  0  0  0
  -26.5624  -34.8912   22.4658 O   0  0  0  0  0  0
  -23.5462  -32.1414   23.7321 O   0  0  0  0  0  0
  -31.5236  -19.9695   20.7092 C   0  0  0  0  0  0
  -31.8548  -17.5556   20.8097 C   0  0  0  0  0  0
  -28.7389  -21.7943   21.7977 C   0  0  0  0  0  0
  -30.1216  -19.8402   20.7109 C   0  0  0  0  0  0
  -29.5968  -18.4729   20.7430 C   0  0  0  0  0  0
  -30.4625  -17.2903   20.7625 C   0  0  0  0  0  0
  -32.3741  -18.8583   20.7697 C   0  0  0  0  0  0
  -29.3957  -21.1766   20.7505 C   0  0  0  0  0  0
  -28.6652  -23.6564   20.3757 C   0  0  0  0  0  0
  -27.5237  -18.0872   19.3367 C   0  0  0  0  0  0
  -28.0890  -18.2728   20.7491 C   0  0  0  0  0  0
  -27.9821  -24.9115   19.7278 C   0  0  0  0  0  0
  -28.3454  -23.1462   21.5812 N   0  0  0  0  0  0
  -29.9916  -15.8706   20.7656 N   0  0  0  0  0  0
  -33.7153  -19.0444   20.8016 F   0  0  0  0  0  0
  -29.5447  -22.3839   19.4438 S   0  0  0  0  0  0
  -31.4608  -12.5089   19.1772 H   0  0  0  0  0  0
  -30.3245  -11.4519   19.9594 H   0  0  0  0  0  0
  -29.7777  -11.7359   17.5133 H   0  0  0  0  0  0
  -29.6398  -13.4637   17.7326 H   0  0  0  0  0  0
  -27.8795  -11.2896   18.9067 H   0  0  0  0  0  0
  -27.3730  -12.5374   17.8004 H   0  0  0  0  0  0
  -27.6354  -14.2598   19.4727 H   0  0  0  0  0  0
  -28.7069  -12.1877   21.4472 H   0  0  0  0  0  0
  -28.4285  -13.8769   21.7878 H   0  0  0  0  0  0
  -25.2767   -9.5687   22.4753 H   0  0  0  0  0  0
  -24.0004   -7.4640   22.7474 H   0  0  0  0  0  0
  -21.0845   -8.8776   19.8951 H   0  0  0  0  0  0
  -22.3702  -10.9674   19.6161 H   0  0  0  0  0  0
  -21.2014   -7.6146   23.9708 H   0  0  0  0  0  0
  -21.1488   -6.0526   25.9071 H   0  0  0  0  0  0
  -22.0596   -2.7607   23.2845 H   0  0  0  0  0  0
  -22.4112  -11.9861   22.4795 H   0  0  0  0  0  0
  -21.1092  -13.1208   22.2651 H   0  0  0  0  0  0
  -24.6460  -15.8427   20.5143 H   0  0  0  0  0  0
  -26.2598  -15.6316   20.0640 H   0  0  0  0  0  0
  -26.7212  -32.5404   23.1097 H   0  0  0  0  0  0
  -25.0077  -33.9714   25.0404 H   0  0  0  0  0  0
  -22.7232  -31.3095   21.4084 H   0  0  0  0  0  0
  -23.3759  -35.9611   23.3284 H   0  0  0  0  0  0
  -24.3585  -36.8936   22.2058 H   0  0  0  0  0  0
  -23.7237  -37.6480   23.6681 H   0  0  0  0  0  0
  -26.1223  -31.5264   20.6265 H   0  0  0  0  0  0
  -26.8529  -30.8062   22.0291 H   0  0  0  0  0  0
  -28.0897  -28.8710   21.2775 H   0  0  0  0  0  0
  -25.9211  -26.0315   18.8145 H   0  0  0  0  0  0
  -23.9792  -27.3988   18.9044 H   0  0  0  0  0  0
  -23.7648  -30.6169   19.4101 H   0  0  0  0  0  0
  -22.7620  -29.2681   19.8520 H   0  0  0  0  0  0
  -25.1297  -36.1922   25.0820 H   0  0  0  0  0  0
  -20.9971  -28.3277   24.1393 H   0  0  0  0  0  0
  -20.5694  -26.2308   23.3610 H   0  0  0  0  0  0
  -21.6643  -26.7447   22.1188 H   0  0  0  0  0  0
  -19.6918  -25.6293   21.1245 H   0  0  0  0  0  0
  -19.6692  -27.3193   20.6750 H   0  0  0  0  0  0
  -17.4195  -26.6674   21.4029 H   0  0  0  0  0  0
  -18.0329  -26.0074   22.9027 H   0  0  0  0  0  0
  -19.7942  -30.7273   24.2264 H   0  0  0  0  0  0
  -17.5021  -31.6274   24.5158 H   0  0  0  0  0  0
  -15.5358  -30.2990   23.7674 H   0  0  0  0  0  0
  -15.8668  -28.0830   22.7080 H   0  0  0  0  0  0
  -24.5863  -30.7157   25.7785 H   0  0  0  0  0  0
  -24.8942  -32.2958   26.4884 H   0  0  0  0  0  0
  -25.8001  -30.8926   27.0247 H   0  0  0  0  0  0
  -26.2938  -29.6740   24.1271 H   0  0  0  0  0  0
  -27.3973  -29.7264   25.4818 H   0  0  0  0  0  0
  -27.8844  -30.4243   23.9561 H   0  0  0  0  0  0
  -27.2681  -33.3664   26.2038 H   0  0  0  0  0  0
  -28.3891  -32.6845   25.0346 H   0  0  0  0  0  0
  -28.0697  -31.8489   26.5473 H   0  0  0  0  0  0
  -28.2581  -38.0103   24.7510 H   0  0  0  0  0  0
  -28.1083  -36.2632   24.6276 H   0  0  0  0  0  0
  -27.2289  -37.1431   25.8861 H   0  0  0  0  0  0
  -20.9400  -29.8798   21.6883 H   0  0  0  0  0  0
  -26.0166  -38.2844   24.1417 H   0  0  0  0  0  0
  -31.9708  -20.9533   20.6988 H   0  0  0  0  0  0
  -32.5873  -16.7701   20.8866 H   0  0  0  0  0  0
  -28.5425  -21.3546   22.7659 H   0  0  0  0  0  0
  -26.4433  -17.9452   19.3664 H   0  0  0  0  0  0
  -27.9610  -17.2190   18.8427 H   0  0  0  0  0  0
  -27.7238  -18.9616   18.7167 H   0  0  0  0  0  0
  -27.6049  -19.1234   21.2285 H   0  0  0  0  0  0
  -27.8362  -17.4121   21.3691 H   0  0  0  0  0  0
  -26.9352  -24.6573   19.8770 H   0  0  0  0  0  0
  -28.1625  -24.8864   18.6528 H   0  0  0  0  0  0
  -29.0081  -15.7380   20.9404 H   0  0  0  0  0  0
  1 25  1  0  0  0
  1 30  2  0  0  0
  1 84  1  0  0  0
  2  3  1  0  0  0
  2 25  1  0  0  0
  2 87  1  0  0  0
  2 88  1  0  0  0
  3  4  1  0  0  0
  3 89  1  0  0  0
  3 90  1  0  0  0
  4  5  1  0  0  0
  4 91  1  0  0  0
  4 92  1  0  0  0
  5  6  1  0  0  0
  5 26  1  0  0  0
  5 93  1  0  0  0
  6 25  1  0  0  0
  6 94  1  0  0  0
  6 95  1  0  0  0
  7  8  2  0  0  0
  7 26  1  0  0  0
  7 29  1  0  0  0
  8  9  1  0  0  0
  8 22  1  0  0  0
  9 10  1  0  0  0
  9 27  2  0  0  0
 10 11  2  0  0  0
 10 15  1  0  0  0
 11 12  1  0  0  0
 11 96  1  0  0  0
 12 13  2  0  0  0
 12 97  1  0  0  0
 13 14  1  0  0  0
 13 31  1  0  0  0
 14 15  2  0  0  0
 14 98  1  0  0  0
 15 99  1  0  0  0
 16 17  2  0  0  0
 16 21  1  0  0  0
 16 31  1  0  0  0
 17 18  1  0  0  0
 17100  1  0  0  0
 18 19  2  0  0  0
 18101  1  0  0  0
 19 20  1  0  0  0
 19 24  1  0  0  0
 20 21  2  0  0  0
 20102  1  0  0  0
 21 23  1  0  0  0
 22 28  1  0  0  0
 22 32  2  0  0  0
 26 27  1  0  0  0
 28103  1  0  0  0
 28104  1  0  0  0
 29105  1  0  0  0
 29106  1  0  0  0
 33 34  1  0  0  0
 33 66  1  0  0  0
 33 70  2  0  0  0
 34 36  1  0  0  0
 34 59  1  0  0  0
 34107  1  0  0  0
 35 44  2  0  0  0
 35 45  1  0  0  0
 35 68  1  0  0  0
 36 56  1  0  0  0
 36108  1  0  0  0
 37 39  1  0  0  0
 37 47  1  0  0  0
 37 66  1  0  0  0
 37109  1  0  0  0
 38 43  2  0  0  0
 38 46  1  0  0  0
 38 47  1  0  0  0
 39 64  1  0  0  0
 39 67  2  0  0  0
 40 52  1  0  0  0
 40 53  2  0  0  0
 40 58  1  0  0  0
 41110  1  0  0  0
 41111  1  0  0  0
 41112  1  0  0  0
 41 48  1  0  0  0
 42 43  1  0  0  0
 42 66  1  0  0  0
 42113  1  0  0  0
 42114  1  0  0  0
 43 44  1  0  0  0
 44115  1  0  0  0
 45 46  2  0  0  0
 45116  1  0  0  0
 46117  1  0  0  0
 47118  1  0  0  0
 47119  1  0  0  0
 48 56  1  0  0  0
 48 65  1  0  0  0
 48120  1  0  0  0
 49 50  1  0  0  0
 49 53  1  0  0  0
 49 64  1  0  0  0
 49121  1  0  0  0
 50 51  1  0  0  0
 50122  1  0  0  0
 50123  1  0  0  0
 51 52  1  0  0  0
 51124  1  0  0  0
 51125  1  0  0  0
 52126  1  0  0  0
 52127  1  0  0  0
 53 54  1  0  0  0
 54 55  2  0  0  0
 54128  1  0  0  0
 55 57  1  0  0  0
 55129  1  0  0  0
 56 69  2  0  0  0
 57 58  2  0  0  0
 57130  1  0  0  0
 58131  1  0  0  0
 59 60  1  0  0  0
 59 61  1  0  0  0
 59 62  1  0  0  0
 60132  1  0  0  0
 60133  1  0  0  0
 60134  1  0  0  0
 61135  1  0  0  0
 61136  1  0  0  0
 61137  1  0  0  0
 62138  1  0  0  0
 62139  1  0  0  0
 62140  1  0  0  0
 63 65  1  0  0  0
 63141  1  0  0  0
 63142  1  0  0  0
 63143  1  0  0  0
 64144  1  0  0  0
 65145  1  0  0  0
 68 82  1  0  0  0
 71 74  2  0  0  0
 71 77  1  0  0  0
 71146  1  0  0  0
 72 76  1  0  0  0
 72 77  2  0  0  0
 72147  1  0  0  0
 73 78  2  0  0  0
 73 83  1  0  0  0
 73148  1  0  0  0
 74 75  1  0  0  0
 74 78  1  0  0  0
 75 76  2  0  0  0
 75 81  1  0  0  0
 76 84  1  0  0  0
 77 85  1  0  0  0
 78 86  1  0  0  0
 79 82  1  0  0  0
 79 83  2  0  0  0
 79 86  1  0  0  0
 80 81  1  0  0  0
 80149  1  0  0  0
 80150  1  0  0  0
 80151  1  0  0  0
 81152  1  0  0  0
 81153  1  0  0  0
 82154  1  0  0  0
 82155  1  0  0  0
 84156  1  0  0  0
M  ISO  4   1 100  68 101  82 101  84 100
M  END
> <chiral flag>
0

> <version>
0

> <s_m_source_file>
/data/baiqing/PycharmProjects/Reinvent-master-3.2/result/LINK_invent/BTK/process_docking_weight1_custom_product_contain_oxygen_bond_distance_aromatic_linkinvent_7_9_3/rearranged_h_0116.sdf

> <i_m_source_file_index>
29

> <r_mmod_Potential_Energy-OPLS-2005>
231.574676513672

> <r_mmod_Stretch_Energy-OPLS-2005>
115.199150085449

> <r_mmod_Bend_Energy-OPLS-2005>
174.273315429688

> <r_mmod_Torsional_Energy-OPLS-2005>
238.220626831055

> <r_mmod_Improper_Torsional_Energy-OPLS-2005>
9.27643203735352

> <r_mmod_Van_der_Waal_Energy-OPLS-2005>
147.441741943359

> <r_mmod_Electrostatic_Energy-OPLS-2005>
-323.885559082031

> <r_mmod_Solvation_Energy-OPLS-2005>
-213.784194946289

> <b_mmod_Minimization_Converged-OPLS-2005>
0

> <r_mmod_RMS_Derivative-OPLS-2005>
0.79022091627121

$$$$
29
                    3D
 Structure written by MMmdl.
165174  0  0  1  0            999 V2000
  -30.6778  -14.6309   20.4708 C   0  0  0  0  0  0
  -30.4145  -12.3851   19.4650 C   0  0  0  0  0  0
  -29.4982  -12.4942   18.2290 C   0  0  0  0  0  0
  -28.0228  -12.3401   18.6449 C   0  0  0  0  0  0
  -27.6439  -13.2304   19.8591 C   0  0  2  0  0  0
  -28.6890  -13.1393   20.9920 C   0  0  0  0  0  0
  -25.2497  -13.8212   20.5731 C   0  0  0  0  0  0
  -24.1791  -13.0449   20.9227 C   0  0  0  0  0  0
  -24.6381  -11.6931   20.8763 C   0  0  0  0  0  0
  -23.9075  -10.4300   21.0418 C   0  0  0  0  0  0
  -24.3626   -9.4204   21.9193 C   0  0  0  0  0  0
  -23.6301   -8.2236   22.0750 C   0  0  0  0  0  0
  -22.4276   -8.0287   21.3543 C   0  0  0  0  0  0
  -21.9917   -9.0267   20.4644 C   0  0  0  0  0  0
  -22.7248  -10.2148   20.3058 C   0  0  0  0  0  0
  -21.6845   -6.0742   22.5285 C   0  0  0  0  0  0
  -21.4016   -6.5645   23.8222 C   0  0  0  0  0  0
  -21.3664   -5.6794   24.9182 C   0  0  0  0  0  0
  -21.6038   -4.3057   24.7225 C   0  0  0  0  0  0
  -21.8819   -3.8153   23.4345 C   0  0  0  0  0  0
  -21.9190   -4.6972   22.3403 C   0  0  0  0  0  0
  -22.7812  -13.5236   21.1883 C   0  0  0  0  0  0
  -22.1658   -4.2157   21.0979 F   0  0  0  0  0  0
  -21.5623   -3.4539   25.7742 F   0  0  0  0  0  0
  -30.0006  -13.4426   20.4098 N   0  0  0  0  0  0
  -26.2938  -12.9424   20.3343 N   0  0  0  0  0  0
  -25.9311  -11.6561   20.5788 N   0  0  0  0  0  0
  -22.0447  -12.8229   22.0431 N   0  0  0  0  0  0
  -25.4183  -15.1941   20.4158 N   0  0  0  0  0  0
  -31.8645  -14.6887   20.1423 O   0  0  0  0  0  0
  -21.6635   -6.8888   21.4246 O   0  0  0  0  0  0
  -22.3504  -14.5541   20.6733 O   0  0  0  0  0  0
  -24.6250  -31.8585   23.2021 C   0  0  0  0  0  0
  -25.9108  -32.4755   23.8341 C   0  0  1  0  0  0
  -27.2231  -27.3333   20.1189 C   0  0  0  0  0  0
  -25.5925  -33.8557   24.2259 N   0  0  0  0  0  0
  -23.4165  -30.4831   21.5435 C   0  0  2  0  0  0
  -24.8616  -28.9326   20.1149 C   0  0  0  0  0  0
  -22.7457  -29.4623   22.4931 C   0  0  0  0  0  0
  -18.0287  -28.1366   22.8492 C   0  0  0  0  0  0
  -24.1488  -36.7296   23.2633 C   0  0  0  0  0  0
  -25.9553  -30.7957   21.3689 C   0  0  0  0  0  0
  -26.0305  -29.4229   20.7127 C   0  0  0  0  0  0
  -27.2175  -28.6366   20.6982 C   0  0  0  0  0  0
  -26.0340  -26.8794   19.5125 C   0  0  0  0  0  0
  -24.8630  -27.6642   19.5082 C   0  0  0  0  0  0
  -23.6305  -29.8143   20.1598 C   0  0  0  0  0  0
  -25.4112  -36.3064   24.0311 C   0  0  1  0  0  0
  -20.5885  -28.3665   23.1288 C   0  0  2  0  0  0
  -20.6774  -26.9383   22.5413 C   0  0  0  0  0  0
  -19.5750  -26.6367   21.5217 C   0  0  0  0  0  0
  -18.1930  -26.7907   22.1628 C   0  0  0  0  0  0
  -19.1541  -28.8835   23.2888 C   0  0  0  0  0  0
  -18.9462  -30.1445   23.8887 C   0  0  0  0  0  0
  -17.6461  -30.6570   24.0564 C   0  0  0  0  0  0
  -25.9054  -34.9436   23.5084 C   0  0  0  0  0  0
  -16.5355  -29.9064   23.6327 C   0  0  0  0  0  0
  -16.7273  -28.6487   23.0335 C   0  0  0  0  0  0
  -26.4507  -31.6565   25.0717 C   0  0  0  0  0  0
  -25.3762  -31.3701   26.1464 C   0  0  0  0  0  0
  -27.0340  -30.2975   24.6180 C   0  0  0  0  0  0
  -27.6060  -32.4293   25.7507 C   0  0  0  0  0  0
  -27.5567  -37.1801   24.8455 C   0  0  0  0  0  0
  -21.4171  -29.3029   22.3676 N   0  0  0  0  0  0
  -26.4279  -37.3767   23.9405 N   0  0  0  0  0  0
  -24.6840  -31.0623   22.0953 N   0  0  0  0  0  0
  -23.4190  -28.8154   23.3002 O   0  0  0  0  0  0
  -28.3569  -26.5184   20.1033 O   0  0  0  0  0  0
  -26.5627  -34.8910   22.4654 O   0  0  0  0  0  0
  -23.5421  -32.1370   23.7368 O   0  0  0  0  0  0
  -29.6064  -19.3016   19.3277 C   0  0  0  0  0  0
  -29.3715  -20.7044   19.3759 C   0  0  0  0  0  0
  -29.5106  -20.6399   21.7965 C   0  0  0  0  0  0
  -29.8760  -18.5351   20.4927 C   0  0  0  0  0  0
  -29.7395  -19.2174   21.7375 C   0  0  0  0  0  0
  -29.4086  -21.4241   20.5966 C   0  0  0  0  0  0
  -30.8797  -23.3147   20.7776 C   0  0  0  0  0  0
  -28.6004  -22.3225   23.4359 C   0  0  0  0  0  0
  -29.4075  -21.2928   23.1232 C   0  0  0  0  0  0
  -31.2289  -24.4944   19.8878 C   0  0  0  0  0  0
  -30.0625  -24.4955   18.9086 C   0  0  0  0  0  0
  -28.9115  -23.9321   19.7527 C   0  0  2  0  0  0
  -29.9311  -18.4254   23.0264 C   0  0  0  0  0  0
  -30.5882  -17.1356   20.3455 C   0  0  0  0  0  0
  -28.2503  -25.1268   20.5940 C   0  0  0  0  0  0
  -29.6098  -22.8850   20.5886 N   0  0  0  0  0  0
  -29.9760  -15.7961   20.6544 N   0  0  0  0  0  0
  -31.7148  -22.8354   21.5525 O   0  0  0  0  0  0
  -31.4603  -12.4690   19.1640 H   0  0  0  0  0  0
  -30.3203  -11.4041   19.9317 H   0  0  0  0  0  0
  -29.7597  -11.7295   17.4967 H   0  0  0  0  0  0
  -29.6472  -13.4557   17.7357 H   0  0  0  0  0  0
  -27.8613  -11.2920   18.8978 H   0  0  0  0  0  0
  -27.3675  -12.5512   17.7999 H   0  0  0  0  0  0
  -27.6502  -14.2583   19.4957 H   0  0  0  0  0  0
  -28.6926  -12.1443   21.4397 H   0  0  0  0  0  0
  -28.4475  -13.8362   21.7960 H   0  0  0  0  0  0
  -25.2759   -9.5681   22.4783 H   0  0  0  0  0  0
  -24.0006   -7.4620   22.7463 H   0  0  0  0  0  0
  -21.0843   -8.8800   19.8953 H   0  0  0  0  0  0
  -22.3702  -10.9705   19.6183 H   0  0  0  0  0  0
  -21.2007   -7.6153   23.9731 H   0  0  0  0  0  0
  -21.1485   -6.0519   25.9088 H   0  0  0  0  0  0
  -22.0586   -2.7614   23.2840 H   0  0  0  0  0  0
  -22.4056  -11.9911   22.4866 H   0  0  0  0  0  0
  -21.1064  -13.1267   22.2629 H   0  0  0  0  0  0
  -24.6506  -15.8481   20.5232 H   0  0  0  0  0  0
  -26.2647  -15.6347   20.0801 H   0  0  0  0  0  0
  -26.7172  -32.5438   23.1086 H   0  0  0  0  0  0
  -25.0041  -33.9693   25.0381 H   0  0  0  0  0  0
  -22.7103  -31.3031   21.4001 H   0  0  0  0  0  0
  -23.3729  -35.9652   23.3303 H   0  0  0  0  0  0
  -24.3567  -36.8923   22.2046 H   0  0  0  0  0  0
  -23.7272  -37.6507   23.6668 H   0  0  0  0  0  0
  -26.0888  -31.5619   20.6040 H   0  0  0  0  0  0
  -26.8344  -30.8390   22.0012 H   0  0  0  0  0  0
  -28.1225  -29.0126   21.1546 H   0  0  0  0  0  0
  -26.0081  -25.9085   19.0378 H   0  0  0  0  0  0
  -23.9650  -27.2825   19.0419 H   0  0  0  0  0  0
  -23.7510  -30.5897   19.4025 H   0  0  0  0  0  0
  -22.7494  -29.2464   19.8550 H   0  0  0  0  0  0
  -25.1296  -36.1896   25.0800 H   0  0  0  0  0  0
  -21.0004  -28.3244   24.1400 H   0  0  0  0  0  0
  -20.5680  -26.2268   23.3609 H   0  0  0  0  0  0
  -21.6637  -26.7403   22.1212 H   0  0  0  0  0  0
  -19.6910  -25.6283   21.1230 H   0  0  0  0  0  0
  -19.6689  -27.3193   20.6757 H   0  0  0  0  0  0
  -17.4200  -26.6665   21.4025 H   0  0  0  0  0  0
  -18.0328  -26.0044   22.9018 H   0  0  0  0  0  0
  -19.7939  -30.7277   24.2237 H   0  0  0  0  0  0
  -17.5008  -31.6247   24.5159 H   0  0  0  0  0  0
  -15.5350  -30.2961   23.7645 H   0  0  0  0  0  0
  -15.8681  -28.0812   22.7023 H   0  0  0  0  0  0
  -24.5934  -30.7045   25.7809 H   0  0  0  0  0  0
  -24.8978  -32.2871   26.4919 H   0  0  0  0  0  0
  -25.8116  -30.8872   27.0221 H   0  0  0  0  0  0
  -26.2907  -29.6727   24.1216 H   0  0  0  0  0  0
  -27.4020  -29.7240   25.4697 H   0  0  0  0  0  0
  -27.8787  -30.4229   23.9403 H   0  0  0  0  0  0
  -27.2652  -33.3572   26.2110 H   0  0  0  0  0  0
  -28.3881  -32.6870   25.0356 H   0  0  0  0  0  0
  -28.0716  -31.8401   26.5420 H   0  0  0  0  0  0
  -28.2577  -38.0102   24.7486 H   0  0  0  0  0  0
  -28.1061  -36.2625   24.6291 H   0  0  0  0  0  0
  -27.2281  -37.1475   25.8857 H   0  0  0  0  0  0
  -20.9329  -29.8740   21.6893 H   0  0  0  0  0  0
  -26.0142  -38.2828   24.1432 H   0  0  0  0  0  0
  -29.6923  -18.8321   18.3563 H   0  0  0  0  0  0
  -29.2919  -21.2431   18.4423 H   0  0  0  0  0  0
  -28.6098  -22.7552   24.4268 H   0  0  0  0  0  0
  -27.9181  -22.7509   22.7160 H   0  0  0  0  0  0
  -30.0648  -20.9220   23.8977 H   0  0  0  0  0  0
  -32.1888  -24.3552   19.3900 H   0  0  0  0  0  0
  -31.2641  -25.4093   20.4801 H   0  0  0  0  0  0
  -30.2809  -23.8216   18.0783 H   0  0  0  0  0  0
  -29.8660  -25.4767   18.4753 H   0  0  0  0  0  0
  -28.1644  -23.4790   19.0998 H   0  0  0  0  0  0
  -29.2018  -18.7169   23.7818 H   0  0  0  0  0  0
  -30.9312  -18.5895   23.4282 H   0  0  0  0  0  0
  -29.7993  -17.3549   22.8763 H   0  0  0  0  0  0
  -31.5039  -17.2075   20.9357 H   0  0  0  0  0  0
  -30.9437  -17.0834   19.3149 H   0  0  0  0  0  0
  -28.7321  -25.1539   21.5714 H   0  0  0  0  0  0
  -27.2170  -24.8636   20.8185 H   0  0  0  0  0  0
  -28.9924  -15.7520   20.8722 H   0  0  0  0  0  0
  1 25  1  0  0  0
  1 30  2  0  0  0
  1 87  1  0  0  0
  2  3  1  0  0  0
  2 25  1  0  0  0
  2 89  1  0  0  0
  2 90  1  0  0  0
  3  4  1  0  0  0
  3 91  1  0  0  0
  3 92  1  0  0  0
  4  5  1  0  0  0
  4 93  1  0  0  0
  4 94  1  0  0  0
  5  6  1  0  0  0
  5 26  1  0  0  0
  5 95  1  0  0  0
  6 25  1  0  0  0
  6 96  1  0  0  0
  6 97  1  0  0  0
  7  8  2  0  0  0
  7 26  1  0  0  0
  7 29  1  0  0  0
  8  9  1  0  0  0
  8 22  1  0  0  0
  9 10  1  0  0  0
  9 27  2  0  0  0
 10 11  2  0  0  0
 10 15  1  0  0  0
 11 12  1  0  0  0
 11 98  1  0  0  0
 12 13  2  0  0  0
 12 99  1  0  0  0
 13 14  1  0  0  0
 13 31  1  0  0  0
 14 15  2  0  0  0
 14100  1  0  0  0
 15101  1  0  0  0
 16 17  2  0  0  0
 16 21  1  0  0  0
 16 31  1  0  0  0
 17 18  1  0  0  0
 17102  1  0  0  0
 18 19  2  0  0  0
 18103  1  0  0  0
 19 20  1  0  0  0
 19 24  1  0  0  0
 20 21  2  0  0  0
 20104  1  0  0  0
 21 23  1  0  0  0
 22 28  1  0  0  0
 22 32  2  0  0  0
 26 27  1  0  0  0
 28105  1  0  0  0
 28106  1  0  0  0
 29107  1  0  0  0
 29108  1  0  0  0
 33 34  1  0  0  0
 33 66  1  0  0  0
 33 70  2  0  0  0
 34 36  1  0  0  0
 34 59  1  0  0  0
 34109  1  0  0  0
 35 44  2  0  0  0
 35 45  1  0  0  0
 35 68  1  0  0  0
 36 56  1  0  0  0
 36110  1  0  0  0
 37 39  1  0  0  0
 37 47  1  0  0  0
 37 66  1  0  0  0
 37111  1  0  0  0
 38 43  2  0  0  0
 38 46  1  0  0  0
 38 47  1  0  0  0
 39 64  1  0  0  0
 39 67  2  0  0  0
 40 52  1  0  0  0
 40 53  2  0  0  0
 40 58  1  0  0  0
 41112  1  0  0  0
 41113  1  0  0  0
 41114  1  0  0  0
 41 48  1  0  0  0
 42 43  1  0  0  0
 42 66  1  0  0  0
 42115  1  0  0  0
 42116  1  0  0  0
 43 44  1  0  0  0
 44117  1  0  0  0
 45 46  2  0  0  0
 45118  1  0  0  0
 46119  1  0  0  0
 47120  1  0  0  0
 47121  1  0  0  0
 48 56  1  0  0  0
 48 65  1  0  0  0
 48122  1  0  0  0
 49 50  1  0  0  0
 49 53  1  0  0  0
 49 64  1  0  0  0
 49123  1  0  0  0
 50 51  1  0  0  0
 50124  1  0  0  0
 50125  1  0  0  0
 51 52  1  0  0  0
 51126  1  0  0  0
 51127  1  0  0  0
 52128  1  0  0  0
 52129  1  0  0  0
 53 54  1  0  0  0
 54 55  2  0  0  0
 54130  1  0  0  0
 55 57  1  0  0  0
 55131  1  0  0  0
 56 69  2  0  0  0
 57 58  2  0  0  0
 57132  1  0  0  0
 58133  1  0  0  0
 59 60  1  0  0  0
 59 61  1  0  0  0
 59 62  1  0  0  0
 60134  1  0  0  0
 60135  1  0  0  0
 60136  1  0  0  0
 61137  1  0  0  0
 61138  1  0  0  0
 61139  1  0  0  0
 62140  1  0  0  0
 62141  1  0  0  0
 62142  1  0  0  0
 63 65  1  0  0  0
 63143  1  0  0  0
 63144  1  0  0  0
 63145  1  0  0  0
 64146  1  0  0  0
 65147  1  0  0  0
 68 85  1  0  0  0
 71 72  2  0  0  0
 71 74  1  0  0  0
 71148  1  0  0  0
 72 76  1  0  0  0
 72149  1  0  0  0
 73 75  1  0  0  0
 73 76  2  0  0  0
 73 79  1  0  0  0
 74 75  2  0  0  0
 74 84  1  0  0  0
 75 83  1  0  0  0
 76 86  1  0  0  0
 77 80  1  0  0  0
 77 86  1  0  0  0
 77 88  2  0  0  0
 78 79  2  0  0  0
 78150  1  0  0  0
 78151  1  0  0  0
 79152  1  0  0  0
 80 81  1  0  0  0
 80153  1  0  0  0
 80154  1  0  0  0
 81 82  1  0  0  0
 81155  1  0  0  0
 81156  1  0  0  0
 82 85  1  0  0  0
 82 86  1  0  0  0
 82157  1  0  0  0
 83158  1  0  0  0
 83159  1  0  0  0
 83160  1  0  0  0
 84 87  1  0  0  0
 84161  1  0  0  0
 84162  1  0  0  0
 85163  1  0  0  0
 85164  1  0  0  0
 87165  1  0  0  0
M  ISO  4   1 100  68 101  85 101  87 100
M  END
> <chiral flag>
0

> <version>
0

> <s_m_source_file>
/data/baiqing/PycharmProjects/Reinvent-master-3.2/result/LINK_invent/BTK/process_docking_weight1_custom_product_contain_oxygen_bond_distance_aromatic_linkinvent_7_9_3/rearranged_h_0116.sdf

> <i_m_source_file_index>
30

> <r_mmod_Potential_Energy-OPLS-2005>
191.167922973633

> <r_mmod_Stretch_Energy-OPLS-2005>
85.938850402832

> <r_mmod_Bend_Energy-OPLS-2005>
181.70817565918

> <r_mmod_Torsional_Energy-OPLS-2005>
357.394439697266

> <r_mmod_Improper_Torsional_Energy-OPLS-2005>
11.8976936340332

> <r_mmod_Van_der_Waal_Energy-OPLS-2005>
148.704193115234

> <r_mmod_Electrostatic_Energy-OPLS-2005>
-420.69140625

> <r_mmod_Solvation_Energy-OPLS-2005>
-219.672088623047

> <b_mmod_Minimization_Converged-OPLS-2005>
0

> <r_mmod_RMS_Derivative-OPLS-2005>
1.90128612518311

$$$$
30
                    3D
 Structure written by MMmdl.
164173  0  0  1  0            999 V2000
  -30.6378  -14.7478   20.4075 C   0  0  0  0  0  0
  -30.4248  -12.4517   19.4632 C   0  0  0  0  0  0
  -29.5050  -12.4936   18.2253 C   0  0  0  0  0  0
  -28.0325  -12.3073   18.6481 C   0  0  0  0  0  0
  -27.6309  -13.2327   19.8275 C   0  0  2  0  0  0
  -28.6814  -13.2138   20.9542 C   0  0  0  0  0  0
  -25.2487  -13.8197   20.5697 C   0  0  0  0  0  0
  -24.1773  -13.0449   20.9223 C   0  0  0  0  0  0
  -24.6376  -11.6933   20.8774 C   0  0  0  0  0  0
  -23.9056  -10.4308   21.0419 C   0  0  0  0  0  0
  -24.3620   -9.4215   21.9176 C   0  0  0  0  0  0
  -23.6313   -8.2240   22.0740 C   0  0  0  0  0  0
  -22.4284   -8.0280   21.3541 C   0  0  0  0  0  0
  -21.9928   -9.0238   20.4638 C   0  0  0  0  0  0
  -22.7250  -10.2123   20.3051 C   0  0  0  0  0  0
  -21.6835   -6.0739   22.5283 C   0  0  0  0  0  0
  -21.4000   -6.5634   23.8223 C   0  0  0  0  0  0
  -21.3665   -5.6781   24.9183 C   0  0  0  0  0  0
  -21.6055   -4.3046   24.7227 C   0  0  0  0  0  0
  -21.8817   -3.8140   23.4342 C   0  0  0  0  0  0
  -21.9173   -4.6965   22.3401 C   0  0  0  0  0  0
  -22.7790  -13.5206   21.1879 C   0  0  0  0  0  0
  -22.1635   -4.2146   21.0984 F   0  0  0  0  0  0
  -21.5657   -3.4536   25.7748 F   0  0  0  0  0  0
  -29.9838  -13.5379   20.3646 N   0  0  0  0  0  0
  -26.2887  -12.9402   20.3214 N   0  0  0  0  0  0
  -25.9292  -11.6546   20.5748 N   0  0  0  0  0  0
  -22.0411  -12.8184   22.0440 N   0  0  0  0  0  0
  -25.4259  -15.1942   20.4162 N   0  0  0  0  0  0
  -31.8667  -14.7578   20.3068 O   0  0  0  0  0  0
  -21.6636   -6.8887   21.4248 O   0  0  0  0  0  0
  -22.3464  -14.5484   20.6712 O   0  0  0  0  0  0
  -24.6306  -31.8548   23.1930 C   0  0  0  0  0  0
  -25.9128  -32.4740   23.8295 C   0  0  1  0  0  0
  -27.2351  -27.2489   20.1555 C   0  0  0  0  0  0
  -25.5937  -33.8550   24.2233 N   0  0  0  0  0  0
  -23.4277  -30.4691   21.5427 C   0  0  2  0  0  0
  -24.8816  -28.8976   20.1236 C   0  0  0  0  0  0
  -22.7480  -29.4598   22.4993 C   0  0  0  0  0  0
  -18.0284  -28.1385   22.8503 C   0  0  0  0  0  0
  -24.1500  -36.7260   23.2634 C   0  0  0  0  0  0
  -25.9723  -30.7610   21.3733 C   0  0  0  0  0  0
  -26.0508  -29.3748   20.7321 C   0  0  0  0  0  0
  -27.2314  -28.5633   20.7348 C   0  0  0  0  0  0
  -26.0442  -26.8294   19.5282 C   0  0  0  0  0  0
  -24.8835  -27.6336   19.5093 C   0  0  0  0  0  0
  -23.6482  -29.7830   20.1652 C   0  0  0  0  0  0
  -25.4124  -36.3054   24.0319 C   0  0  1  0  0  0
  -20.5884  -28.3679   23.1330 C   0  0  2  0  0  0
  -20.6796  -26.9417   22.5440 C   0  0  0  0  0  0
  -19.5768  -26.6403   21.5235 C   0  0  0  0  0  0
  -18.1931  -26.7947   22.1611 C   0  0  0  0  0  0
  -19.1534  -28.8850   23.2910 C   0  0  0  0  0  0
  -18.9465  -30.1472   23.8891 C   0  0  0  0  0  0
  -17.6461  -30.6596   24.0552 C   0  0  0  0  0  0
  -25.9085  -34.9437   23.5083 C   0  0  0  0  0  0
  -16.5347  -29.9085   23.6344 C   0  0  0  0  0  0
  -16.7269  -28.6508   23.0350 C   0  0  0  0  0  0
  -26.4494  -31.6545   25.0673 C   0  0  0  0  0  0
  -25.3717  -31.3685   26.1374 C   0  0  0  0  0  0
  -27.0320  -30.2978   24.6087 C   0  0  0  0  0  0
  -27.6061  -32.4258   25.7446 C   0  0  0  0  0  0
  -27.5586  -37.1776   24.8442 C   0  0  0  0  0  0
  -21.4196  -29.3019   22.3715 N   0  0  0  0  0  0
  -26.4282  -37.3763   23.9418 N   0  0  0  0  0  0
  -24.6966  -31.0464   22.0930 N   0  0  0  0  0  0
  -23.4174  -28.8178   23.3124 O   0  0  0  0  0  0
  -28.3471  -26.3773   20.1346 O   0  0  0  0  0  0
  -26.5651  -34.8910   22.4652 O   0  0  0  0  0  0
  -23.5460  -32.1387   23.7224 O   0  0  0  0  0  0
  -30.1221  -18.7177   18.5297 C   0  0  0  0  0  0
  -30.2165  -19.9370   17.8422 C   0  0  0  0  0  0
  -29.5108  -19.9567   20.5198 C   0  0  0  0  0  0
  -29.8639  -18.6734   19.9105 C   0  0  0  0  0  0
  -29.9761  -21.1855   18.4554 C   0  0  0  0  0  0
  -29.4851  -21.2396   19.8008 C   0  0  0  0  0  0
  -29.9169  -24.0038   15.8633 C   0  0  0  0  0  0
  -30.1933  -17.2946   20.5383 C   0  0  0  0  0  0
  -29.8819  -16.0169   20.0883 C   0  0  0  0  0  0
  -28.5011  -23.6935   19.9294 C   0  0  0  0  0  0
  -28.9593  -24.1807   14.7016 C   0  0  0  0  0  0
  -28.2832  -22.8099   14.5822 C   0  0  0  0  0  0
  -28.6791  -22.0340   15.8500 C   0  0  0  0  0  0
  -30.4788  -22.4105   17.6728 C   0  0  0  0  0  0
  -28.2683  -25.0251   20.7992 C   0  0  0  0  0  0
  -29.7178  -22.8345   16.4883 N   0  0  0  0  0  0
  -29.1204  -22.5466   20.4395 N   0  0  0  0  0  0
  -30.7628  -24.8521   16.1593 O   0  0  0  0  0  0
  -28.0299  -23.6967   18.7924 O   0  0  0  0  0  0
  -31.4703  -12.5566   19.1658 H   0  0  0  0  0  0
  -30.3533  -11.4844   19.9626 H   0  0  0  0  0  0
  -29.7951  -11.7215   17.5124 H   0  0  0  0  0  0
  -29.6224  -13.4478   17.7095 H   0  0  0  0  0  0
  -27.9102  -11.2652   18.9452 H   0  0  0  0  0  0
  -27.3659  -12.4569   17.7979 H   0  0  0  0  0  0
  -27.6054  -14.2403   19.4141 H   0  0  0  0  0  0
  -28.7237  -12.2375   21.4362 H   0  0  0  0  0  0
  -28.4282  -13.9340   21.7340 H   0  0  0  0  0  0
  -25.2770   -9.5676   22.4749 H   0  0  0  0  0  0
  -24.0033   -7.4603   22.7434 H   0  0  0  0  0  0
  -21.0868   -8.8727   19.8939 H   0  0  0  0  0  0
  -22.3703  -10.9634   19.6152 H   0  0  0  0  0  0
  -21.1980   -7.6142   23.9732 H   0  0  0  0  0  0
  -21.1501   -6.0510   25.9091 H   0  0  0  0  0  0
  -22.0595   -2.7605   23.2829 H   0  0  0  0  0  0
  -22.3999  -11.9835   22.4822 H   0  0  0  0  0  0
  -21.1020  -13.1184   22.2611 H   0  0  0  0  0  0
  -24.6740  -15.8643   20.5379 H   0  0  0  0  0  0
  -26.3013  -15.6251   20.1445 H   0  0  0  0  0  0
  -26.7189  -32.5405   23.1036 H   0  0  0  0  0  0
  -25.0014  -33.9680   25.0327 H   0  0  0  0  0  0
  -22.7257  -31.2921   21.3906 H   0  0  0  0  0  0
  -23.3783  -35.9569   23.3222 H   0  0  0  0  0  0
  -24.3618  -36.8952   22.2070 H   0  0  0  0  0  0
  -23.7219  -37.6424   23.6700 H   0  0  0  0  0  0
  -26.0940  -31.5095   20.5879 H   0  0  0  0  0  0
  -26.8586  -30.8306   21.9937 H   0  0  0  0  0  0
  -28.1301  -28.9288   21.2142 H   0  0  0  0  0  0
  -26.0115  -25.8554   19.0573 H   0  0  0  0  0  0
  -23.9886  -27.2593   19.0309 H   0  0  0  0  0  0
  -23.7609  -30.5492   19.3984 H   0  0  0  0  0  0
  -22.7695  -29.2062   19.8712 H   0  0  0  0  0  0
  -25.1313  -36.1860   25.0808 H   0  0  0  0  0  0
  -20.9954  -28.3236   24.1458 H   0  0  0  0  0  0
  -20.5735  -26.2280   23.3629 H   0  0  0  0  0  0
  -21.6666  -26.7505   22.1202 H   0  0  0  0  0  0
  -19.6946  -25.6323   21.1234 H   0  0  0  0  0  0
  -19.6712  -27.3253   20.6794 H   0  0  0  0  0  0
  -17.4242  -26.6739   21.3960 H   0  0  0  0  0  0
  -18.0273  -26.0079   22.8979 H   0  0  0  0  0  0
  -19.7950  -30.7301   24.2226 H   0  0  0  0  0  0
  -17.5019  -31.6267   24.5166 H   0  0  0  0  0  0
  -15.5340  -30.2960   23.7719 H   0  0  0  0  0  0
  -15.8670  -28.0829   22.7038 H   0  0  0  0  0  0
  -24.5907  -30.7018   25.7668 H   0  0  0  0  0  0
  -24.8883  -32.2864   26.4742 H   0  0  0  0  0  0
  -25.8027  -30.8877   27.0163 H   0  0  0  0  0  0
  -26.2871  -29.6732   24.1131 H   0  0  0  0  0  0
  -27.4078  -29.7185   25.4524 H   0  0  0  0  0  0
  -27.8709  -30.4267   23.9244 H   0  0  0  0  0  0
  -27.2678  -33.3556   26.2011 H   0  0  0  0  0  0
  -28.3871  -32.6800   25.0276 H   0  0  0  0  0  0
  -28.0707  -31.8374   26.5358 H   0  0  0  0  0  0
  -28.2543  -38.0128   24.7566 H   0  0  0  0  0  0
  -28.1135  -36.2670   24.6149 H   0  0  0  0  0  0
  -27.2326  -37.1264   25.8842 H   0  0  0  0  0  0
  -20.9389  -29.8673   21.6856 H   0  0  0  0  0  0
  -26.0131  -38.2816   24.1442 H   0  0  0  0  0  0
  -30.4061  -17.8134   18.0074 H   0  0  0  0  0  0
  -30.5825  -19.9069   16.8258 H   0  0  0  0  0  0
  -29.2952  -19.9580   21.5803 H   0  0  0  0  0  0
  -30.9091  -17.3507   21.3470 H   0  0  0  0  0  0
  -29.1263  -15.9373   19.3192 H   0  0  0  0  0  0
  -29.4875  -24.4629   13.7892 H   0  0  0  0  0  0
  -28.2459  -24.9671   14.9496 H   0  0  0  0  0  0
  -28.6509  -22.2967   13.6907 H   0  0  0  0  0  0
  -27.1997  -22.9006   14.4871 H   0  0  0  0  0  0
  -29.0459  -21.0421   15.5884 H   0  0  0  0  0  0
  -27.8283  -21.9264   16.5244 H   0  0  0  0  0  0
  -31.4801  -22.1598   17.3154 H   0  0  0  0  0  0
  -30.6521  -23.2565   18.3370 H   0  0  0  0  0  0
  -29.0080  -25.0196   21.5993 H   0  0  0  0  0  0
  -27.3053  -24.9213   21.2999 H   0  0  0  0  0  0
  -29.3311  -22.6071   21.4271 H   0  0  0  0  0  0
  1 25  1  0  0  0
  1 30  2  0  0  0
  1 79  1  0  0  0
  2  3  1  0  0  0
  2 25  1  0  0  0
  2 90  1  0  0  0
  2 91  1  0  0  0
  3  4  1  0  0  0
  3 92  1  0  0  0
  3 93  1  0  0  0
  4  5  1  0  0  0
  4 94  1  0  0  0
  4 95  1  0  0  0
  5  6  1  0  0  0
  5 26  1  0  0  0
  5 96  1  0  0  0
  6 25  1  0  0  0
  6 97  1  0  0  0
  6 98  1  0  0  0
  7  8  2  0  0  0
  7 26  1  0  0  0
  7 29  1  0  0  0
  8  9  1  0  0  0
  8 22  1  0  0  0
  9 10  1  0  0  0
  9 27  2  0  0  0
 10 11  2  0  0  0
 10 15  1  0  0  0
 11 12  1  0  0  0
 11 99  1  0  0  0
 12 13  2  0  0  0
 12100  1  0  0  0
 13 14  1  0  0  0
 13 31  1  0  0  0
 14 15  2  0  0  0
 14101  1  0  0  0
 15102  1  0  0  0
 16 17  2  0  0  0
 16 21  1  0  0  0
 16 31  1  0  0  0
 17 18  1  0  0  0
 17103  1  0  0  0
 18 19  2  0  0  0
 18104  1  0  0  0
 19 20  1  0  0  0
 19 24  1  0  0  0
 20 21  2  0  0  0
 20105  1  0  0  0
 21 23  1  0  0  0
 22 28  1  0  0  0
 22 32  2  0  0  0
 26 27  1  0  0  0
 28106  1  0  0  0
 28107  1  0  0  0
 29108  1  0  0  0
 29109  1  0  0  0
 33 34  1  0  0  0
 33 66  1  0  0  0
 33 70  2  0  0  0
 34 36  1  0  0  0
 34 59  1  0  0  0
 34110  1  0  0  0
 35 44  2  0  0  0
 35 45  1  0  0  0
 35 68  1  0  0  0
 36 56  1  0  0  0
 36111  1  0  0  0
 37 39  1  0  0  0
 37 47  1  0  0  0
 37 66  1  0  0  0
 37112  1  0  0  0
 38 43  2  0  0  0
 38 46  1  0  0  0
 38 47  1  0  0  0
 39 64  1  0  0  0
 39 67  2  0  0  0
 40 52  1  0  0  0
 40 53  2  0  0  0
 40 58  1  0  0  0
 41113  1  0  0  0
 41114  1  0  0  0
 41115  1  0  0  0
 41 48  1  0  0  0
 42 43  1  0  0  0
 42 66  1  0  0  0
 42116  1  0  0  0
 42117  1  0  0  0
 43 44  1  0  0  0
 44118  1  0  0  0
 45 46  2  0  0  0
 45119  1  0  0  0
 46120  1  0  0  0
 47121  1  0  0  0
 47122  1  0  0  0
 48 56  1  0  0  0
 48 65  1  0  0  0
 48123  1  0  0  0
 49 50  1  0  0  0
 49 53  1  0  0  0
 49 64  1  0  0  0
 49124  1  0  0  0
 50 51  1  0  0  0
 50125  1  0  0  0
 50126  1  0  0  0
 51 52  1  0  0  0
 51127  1  0  0  0
 51128  1  0  0  0
 52129  1  0  0  0
 52130  1  0  0  0
 53 54  1  0  0  0
 54 55  2  0  0  0
 54131  1  0  0  0
 55 57  1  0  0  0
 55132  1  0  0  0
 56 69  2  0  0  0
 57 58  2  0  0  0
 57133  1  0  0  0
 58134  1  0  0  0
 59 60  1  0  0  0
 59 61  1  0  0  0
 59 62  1  0  0  0
 60135  1  0  0  0
 60136  1  0  0  0
 60137  1  0  0  0
 61138  1  0  0  0
 61139  1  0  0  0
 61140  1  0  0  0
 62141  1  0  0  0
 62142  1  0  0  0
 62143  1  0  0  0
 63 65  1  0  0  0
 63144  1  0  0  0
 63145  1  0  0  0
 63146  1  0  0  0
 64147  1  0  0  0
 65148  1  0  0  0
 68 85  1  0  0  0
 71 72  2  0  0  0
 71 74  1  0  0  0
 71149  1  0  0  0
 72 75  1  0  0  0
 72150  1  0  0  0
 73 74  2  0  0  0
 73 76  1  0  0  0
 73151  1  0  0  0
 74 78  1  0  0  0
 75 76  2  0  0  0
 75 84  1  0  0  0
 76 87  1  0  0  0
 77 81  1  0  0  0
 77 86  1  0  0  0
 77 88  2  0  0  0
 78 79  2  0  0  0
 78152  1  0  0  0
 79153  1  0  0  0
 80 85  1  0  0  0
 80 87  1  0  0  0
 80 89  2  0  0  0
 81 82  1  0  0  0
 81154  1  0  0  0
 81155  1  0  0  0
 82 83  1  0  0  0
 82156  1  0  0  0
 82157  1  0  0  0
 83 86  1  0  0  0
 83158  1  0  0  0
 83159  1  0  0  0
 84 86  1  0  0  0
 84160  1  0  0  0
 84161  1  0  0  0
 85162  1  0  0  0
 85163  1  0  0  0
 87164  1  0  0  0
M  ISO  4   1 100  68 101  79 100  85 101
M  END
> <chiral flag>
0

> <version>
0

> <s_m_source_file>
/data/baiqing/PycharmProjects/Reinvent-master-3.2/result/LINK_invent/BTK/process_docking_weight1_custom_product_contain_oxygen_bond_distance_aromatic_linkinvent_7_9_3/rearranged_h_0116.sdf

> <i_m_source_file_index>
31

> <r_mmod_Potential_Energy-OPLS-2005>
306.604095458984

> <r_mmod_Stretch_Energy-OPLS-2005>
134.08561706543

> <r_mmod_Bend_Energy-OPLS-2005>
201.517059326172

> <r_mmod_Torsional_Energy-OPLS-2005>
333.894256591797

> <r_mmod_Improper_Torsional_Energy-OPLS-2005>
23.1706447601318

> <r_mmod_Van_der_Waal_Energy-OPLS-2005>
128.425796508789

> <r_mmod_Electrostatic_Energy-OPLS-2005>
-363.379669189453

> <r_mmod_Solvation_Energy-OPLS-2005>
-247.436080932617

> <b_mmod_Minimization_Converged-OPLS-2005>
0

> <r_mmod_RMS_Derivative-OPLS-2005>
3.99966859817505

$$$$
31
                    3D
 Structure written by MMmdl.
166174  0  0  1  0            999 V2000
  -30.6923  -14.4763   20.5986 C   0  0  0  0  0  0
  -30.4312  -12.3177   19.4166 C   0  0  0  0  0  0
  -29.5026  -12.5323   18.2036 C   0  0  0  0  0  0
  -28.0194  -12.3940   18.6066 C   0  0  0  0  0  0
  -27.6650  -13.2105   19.8784 C   0  0  2  0  0  0
  -28.7078  -12.9577   20.9917 C   0  0  0  0  0  0
  -25.2546  -13.8107   20.5580 C   0  0  0  0  0  0
  -24.1825  -13.0404   20.9191 C   0  0  0  0  0  0
  -24.6396  -11.6880   20.8730 C   0  0  0  0  0  0
  -23.9041  -10.4282   21.0398 C   0  0  0  0  0  0
  -24.3592   -9.4203   21.9185 C   0  0  0  0  0  0
  -23.6275   -8.2225   22.0754 C   0  0  0  0  0  0
  -22.4264   -8.0258   21.3534 C   0  0  0  0  0  0
  -21.9897   -9.0234   20.4635 C   0  0  0  0  0  0
  -22.7214  -10.2118   20.3043 C   0  0  0  0  0  0
  -21.6850   -6.0717   22.5280 C   0  0  0  0  0  0
  -21.4004   -6.5621   23.8210 C   0  0  0  0  0  0
  -21.3665   -5.6777   24.9176 C   0  0  0  0  0  0
  -21.6062   -4.3039   24.7228 C   0  0  0  0  0  0
  -21.8818   -3.8126   23.4345 C   0  0  0  0  0  0
  -21.9193   -4.6941   22.3399 C   0  0  0  0  0  0
  -22.7845  -13.5216   21.1865 C   0  0  0  0  0  0
  -22.1659   -4.2131   21.0980 F   0  0  0  0  0  0
  -21.5637   -3.4523   25.7737 F   0  0  0  0  0  0
  -30.0418  -13.2849   20.4538 N   0  0  0  0  0  0
  -26.3027  -12.9317   20.3337 N   0  0  0  0  0  0
  -25.9327  -11.6477   20.5737 N   0  0  0  0  0  0
  -22.0456  -12.8218   22.0402 N   0  0  0  0  0  0
  -25.4154  -15.1793   20.3808 N   0  0  0  0  0  0
  -31.7974  -14.6903   20.0902 O   0  0  0  0  0  0
  -21.6638   -6.8850   21.4234 O   0  0  0  0  0  0
  -22.3542  -14.5522   20.6707 O   0  0  0  0  0  0
  -24.6130  -31.8684   23.2126 C   0  0  0  0  0  0
  -25.9019  -32.4840   23.8431 C   0  0  1  0  0  0
  -27.2436  -27.4466   20.0961 C   0  0  0  0  0  0
  -25.5868  -33.8642   24.2344 N   0  0  0  0  0  0
  -23.4026  -30.4902   21.5508 C   0  0  2  0  0  0
  -24.8546  -28.9530   20.1203 C   0  0  0  0  0  0
  -22.7403  -29.4650   22.4993 C   0  0  0  0  0  0
  -18.0248  -28.1355   22.8483 C   0  0  0  0  0  0
  -24.1472  -36.7327   23.2642 C   0  0  0  0  0  0
  -25.9338  -30.8355   21.3694 C   0  0  0  0  0  0
  -26.0135  -29.4715   20.7131 C   0  0  0  0  0  0
  -27.2155  -28.7273   20.6916 C   0  0  0  0  0  0
  -26.0703  -26.9344   19.5072 C   0  0  0  0  0  0
  -24.8767  -27.6837   19.5132 C   0  0  0  0  0  0
  -23.6155  -29.8193   20.1670 C   0  0  0  0  0  0
  -25.4103  -36.3136   24.0330 C   0  0  1  0  0  0
  -20.5833  -28.3648   23.1315 C   0  0  2  0  0  0
  -20.6725  -26.9391   22.5411 C   0  0  0  0  0  0
  -19.5718  -26.6367   21.5198 C   0  0  0  0  0  0
  -18.1894  -26.7907   22.1603 C   0  0  0  0  0  0
  -19.1495  -28.8815   23.2889 C   0  0  0  0  0  0
  -18.9441  -30.1414   23.8911 C   0  0  0  0  0  0
  -17.6451  -30.6589   24.0528 C   0  0  0  0  0  0
  -25.9031  -34.9491   23.5141 C   0  0  0  0  0  0
  -16.5335  -29.9087   23.6319 C   0  0  0  0  0  0
  -16.7234  -28.6479   23.0383 C   0  0  0  0  0  0
  -26.4445  -31.6633   25.0782 C   0  0  0  0  0  0
  -25.3681  -31.3767   26.1516 C   0  0  0  0  0  0
  -27.0304  -30.3066   24.6213 C   0  0  0  0  0  0
  -27.6036  -32.4348   25.7540 C   0  0  0  0  0  0
  -27.5583  -37.1815   24.8452 C   0  0  0  0  0  0
  -21.4131  -29.3028   22.3745 N   0  0  0  0  0  0
  -26.4286  -37.3821   23.9410 N   0  0  0  0  0  0
  -24.6672  -31.0790   22.1014 N   0  0  0  0  0  0
  -23.4187  -28.8172   23.3011 O   0  0  0  0  0  0
  -28.4055  -26.7108   20.0465 O   0  0  0  0  0  0
  -26.5618  -34.8931   22.4717 O   0  0  0  0  0  0
  -23.5317  -32.1425   23.7511 O   0  0  0  0  0  0
  -31.2839  -17.5538   21.0195 C   0  0  0  0  0  0
  -31.3543  -18.9609   21.1533 C   0  0  0  0  0  0
  -28.9536  -17.5942   21.7403 C   0  0  0  0  0  0
  -29.0144  -19.0132   21.8431 C   0  0  0  0  0  0
  -30.0932  -16.8485   21.3221 C   0  0  0  0  0  0
  -30.2260  -19.6949   21.5768 C   0  0  0  0  0  0
  -32.6589  -19.6813   20.8624 C   0  0  0  0  0  0
  -27.6491  -16.8907   22.1061 C   0  0  0  0  0  0
  -27.8154  -20.2010   23.7509 C   0  0  0  0  0  0
  -27.7941  -19.8348   22.2656 C   0  0  0  0  0  0
  -29.0883  -24.3505   20.3563 C   0  0  0  0  0  0
  -29.4361  -23.2575   21.3979 C   0  0  0  0  0  0
  -28.4812  -25.6291   20.9826 C   0  0  0  0  0  0
  -30.0122  -21.9507   20.7949 C   0  0  0  0  0  0
  -29.9891  -15.4156   21.2674 N   0  0  0  0  0  0
  -30.3349  -21.0440   21.8497 O   0  0  0  0  0  0
  -31.4766  -12.4302   19.1215 H   0  0  0  0  0  0
  -30.3362  -11.2972   19.7940 H   0  0  0  0  0  0
  -29.7461  -11.8241   17.4129 H   0  0  0  0  0  0
  -29.6748  -13.5262   17.7868 H   0  0  0  0  0  0
  -27.8175  -11.3360   18.7779 H   0  0  0  0  0  0
  -27.3772  -12.6944   17.7784 H   0  0  0  0  0  0
  -27.7117  -14.2657   19.6052 H   0  0  0  0  0  0
  -28.6862  -11.9080   21.2887 H   0  0  0  0  0  0
  -28.4645  -13.5127   21.8968 H   0  0  0  0  0  0
  -25.2726   -9.5698   22.4758 H   0  0  0  0  0  0
  -23.9995   -7.4621   22.7467 H   0  0  0  0  0  0
  -21.0830   -8.8742   19.8934 H   0  0  0  0  0  0
  -22.3666  -10.9648   19.6137 H   0  0  0  0  0  0
  -21.1972   -7.6127   23.9712 H   0  0  0  0  0  0
  -21.1508   -6.0499   25.9089 H   0  0  0  0  0  0
  -22.0596   -2.7589   23.2836 H   0  0  0  0  0  0
  -22.4014  -11.9875   22.4818 H   0  0  0  0  0  0
  -21.1063  -13.1275   22.2572 H   0  0  0  0  0  0
  -24.6354  -15.8198   20.4670 H   0  0  0  0  0  0
  -26.2490  -15.6122   20.0043 H   0  0  0  0  0  0
  -26.7108  -32.5563   23.1225 H   0  0  0  0  0  0
  -24.9946  -33.9815   25.0433 H   0  0  0  0  0  0
  -22.6896  -31.3056   21.4106 H   0  0  0  0  0  0
  -23.3746  -35.9655   23.3324 H   0  0  0  0  0  0
  -24.3537  -36.8935   22.2050 H   0  0  0  0  0  0
  -23.7212  -37.6529   23.6649 H   0  0  0  0  0  0
  -26.0561  -31.6087   20.6096 H   0  0  0  0  0  0
  -26.8152  -30.8782   21.9975 H   0  0  0  0  0  0
  -28.1175  -29.1310   21.1295 H   0  0  0  0  0  0
  -26.0848  -25.9604   19.0367 H   0  0  0  0  0  0
  -23.9862  -27.2817   19.0507 H   0  0  0  0  0  0
  -23.7246  -30.5925   19.4059 H   0  0  0  0  0  0
  -22.7420  -29.2351   19.8721 H   0  0  0  0  0  0
  -25.1276  -36.2007   25.0824 H   0  0  0  0  0  0
  -20.9905  -28.3201   24.1442 H   0  0  0  0  0  0
  -20.5581  -26.2276   23.3600 H   0  0  0  0  0  0
  -21.6606  -26.7411   22.1238 H   0  0  0  0  0  0
  -19.6880  -25.6270   21.1241 H   0  0  0  0  0  0
  -19.6666  -27.3157   20.6705 H   0  0  0  0  0  0
  -17.4168  -26.6656   21.3998 H   0  0  0  0  0  0
  -18.0292  -26.0033   22.8982 H   0  0  0  0  0  0
  -19.7926  -30.7179   24.2342 H   0  0  0  0  0  0
  -17.5033  -31.6290   24.5093 H   0  0  0  0  0  0
  -15.5338  -30.3009   23.7644 H   0  0  0  0  0  0
  -15.8621  -28.0787   22.7161 H   0  0  0  0  0  0
  -24.5797  -30.7203   25.7818 H   0  0  0  0  0  0
  -24.8932  -32.2943   26.5001 H   0  0  0  0  0  0
  -25.7966  -30.8863   27.0268 H   0  0  0  0  0  0
  -26.2911  -29.6843   24.1159 H   0  0  0  0  0  0
  -27.3933  -29.7291   25.4734 H   0  0  0  0  0  0
  -27.8801  -30.4381   23.9509 H   0  0  0  0  0  0
  -27.2669  -33.3616   26.2203 H   0  0  0  0  0  0
  -28.3809  -32.6961   25.0347 H   0  0  0  0  0  0
  -28.0770  -31.8422   26.5388 H   0  0  0  0  0  0
  -28.2602  -38.0114   24.7530 H   0  0  0  0  0  0
  -28.1070  -36.2643   24.6232 H   0  0  0  0  0  0
  -27.2299  -37.1416   25.8854 H   0  0  0  0  0  0
  -20.9294  -29.8791   21.7000 H   0  0  0  0  0  0
  -26.0182  -38.2909   24.1410 H   0  0  0  0  0  0
  -32.1733  -17.0248   20.7143 H   0  0  0  0  0  0
  -33.4796  -18.9841   20.6941 H   0  0  0  0  0  0
  -32.9347  -20.3243   21.6976 H   0  0  0  0  0  0
  -32.5568  -20.3042   19.9741 H   0  0  0  0  0  0
  -27.3356  -17.1671   23.1130 H   0  0  0  0  0  0
  -27.6896  -15.8044   22.0826 H   0  0  0  0  0  0
  -26.8663  -17.1935   21.4127 H   0  0  0  0  0  0
  -26.9647  -20.8348   24.0036 H   0  0  0  0  0  0
  -28.7242  -20.7479   24.0078 H   0  0  0  0  0  0
  -27.7692  -19.3089   24.3743 H   0  0  0  0  0  0
  -26.8581  -19.3337   22.0243 H   0  0  0  0  0  0
  -27.7547  -20.7472   21.6746 H   0  0  0  0  0  0
  -28.3826  -23.9456   19.6304 H   0  0  0  0  0  0
  -29.9921  -24.6013   19.7992 H   0  0  0  0  0  0
  -28.5469  -23.0247   21.9855 H   0  0  0  0  0  0
  -30.1610  -23.6664   22.1043 H   0  0  0  0  0  0
  -29.1023  -25.9661   21.8129 H   0  0  0  0  0  0
  -27.5023  -25.3865   21.4015 H   0  0  0  0  0  0
  -30.9255  -22.1676   20.2411 H   0  0  0  0  0  0
  -29.3059  -21.5055   20.0924 H   0  0  0  0  0  0
  -29.1288  -15.0513   21.6451 H   0  0  0  0  0  0
  1 25  1  0  0  0
  1 30  2  0  0  0
  1 85  1  0  0  0
  2  3  1  0  0  0
  2 25  1  0  0  0
  2 87  1  0  0  0
  2 88  1  0  0  0
  3  4  1  0  0  0
  3 89  1  0  0  0
  3 90  1  0  0  0
  4  5  1  0  0  0
  4 91  1  0  0  0
  4 92  1  0  0  0
  5  6  1  0  0  0
  5 26  1  0  0  0
  5 93  1  0  0  0
  6 25  1  0  0  0
  6 94  1  0  0  0
  6 95  1  0  0  0
  7  8  2  0  0  0
  7 26  1  0  0  0
  7 29  1  0  0  0
  8  9  1  0  0  0
  8 22  1  0  0  0
  9 10  1  0  0  0
  9 27  2  0  0  0
 10 11  2  0  0  0
 10 15  1  0  0  0
 11 12  1  0  0  0
 11 96  1  0  0  0
 12 13  2  0  0  0
 12 97  1  0  0  0
 13 14  1  0  0  0
 13 31  1  0  0  0
 14 15  2  0  0  0
 14 98  1  0  0  0
 15 99  1  0  0  0
 16 17  2  0  0  0
 16 21  1  0  0  0
 16 31  1  0  0  0
 17 18  1  0  0  0
 17100  1  0  0  0
 18 19  2  0  0  0
 18101  1  0  0  0
 19 20  1  0  0  0
 19 24  1  0  0  0
 20 21  2  0  0  0
 20102  1  0  0  0
 21 23  1  0  0  0
 22 28  1  0  0  0
 22 32  2  0  0  0
 26 27  1  0  0  0
 28103  1  0  0  0
 28104  1  0  0  0
 29105  1  0  0  0
 29106  1  0  0  0
 33 34  1  0  0  0
 33 66  1  0  0  0
 33 70  2  0  0  0
 34 36  1  0  0  0
 34 59  1  0  0  0
 34107  1  0  0  0
 35 44  2  0  0  0
 35 45  1  0  0  0
 35 68  1  0  0  0
 36 56  1  0  0  0
 36108  1  0  0  0
 37 39  1  0  0  0
 37 47  1  0  0  0
 37 66  1  0  0  0
 37109  1  0  0  0
 38 43  2  0  0  0
 38 46  1  0  0  0
 38 47  1  0  0  0
 39 64  1  0  0  0
 39 67  2  0  0  0
 40 52  1  0  0  0
 40 53  2  0  0  0
 40 58  1  0  0  0
 41110  1  0  0  0
 41111  1  0  0  0
 41112  1  0  0  0
 41 48  1  0  0  0
 42 43  1  0  0  0
 42 66  1  0  0  0
 42113  1  0  0  0
 42114  1  0  0  0
 43 44  1  0  0  0
 44115  1  0  0  0
 45 46  2  0  0  0
 45116  1  0  0  0
 46117  1  0  0  0
 47118  1  0  0  0
 47119  1  0  0  0
 48 56  1  0  0  0
 48 65  1  0  0  0
 48120  1  0  0  0
 49 50  1  0  0  0
 49 53  1  0  0  0
 49 64  1  0  0  0
 49121  1  0  0  0
 50 51  1  0  0  0
 50122  1  0  0  0
 50123  1  0  0  0
 51 52  1  0  0  0
 51124  1  0  0  0
 51125  1  0  0  0
 52126  1  0  0  0
 52127  1  0  0  0
 53 54  1  0  0  0
 54 55  2  0  0  0
 54128  1  0  0  0
 55 57  1  0  0  0
 55129  1  0  0  0
 56 69  2  0  0  0
 57 58  2  0  0  0
 57130  1  0  0  0
 58131  1  0  0  0
 59 60  1  0  0  0
 59 61  1  0  0  0
 59 62  1  0  0  0
 60132  1  0  0  0
 60133  1  0  0  0
 60134  1  0  0  0
 61135  1  0  0  0
 61136  1  0  0  0
 61137  1  0  0  0
 62138  1  0  0  0
 62139  1  0  0  0
 62140  1  0  0  0
 63 65  1  0  0  0
 63141  1  0  0  0
 63142  1  0  0  0
 63143  1  0  0  0
 64144  1  0  0  0
 65145  1  0  0  0
 68 83  1  0  0  0
 71 72  2  0  0  0
 71 75  1  0  0  0
 71146  1  0  0  0
 72 76  1  0  0  0
 72 77  1  0  0  0
 73 74  1  0  0  0
 73 75  2  0  0  0
 73 78  1  0  0  0
 74 76  2  0  0  0
 74 80  1  0  0  0
 75 85  1  0  0  0
 76 86  1  0  0  0
 77147  1  0  0  0
 77148  1  0  0  0
 77149  1  0  0  0
 78150  1  0  0  0
 78151  1  0  0  0
 78152  1  0  0  0
 79 80  1  0  0  0
 79153  1  0  0  0
 79154  1  0  0  0
 79155  1  0  0  0
 80156  1  0  0  0
 80157  1  0  0  0
 81 82  1  0  0  0
 81 83  1  0  0  0
 81158  1  0  0  0
 81159  1  0  0  0
 82 84  1  0  0  0
 82160  1  0  0  0
 82161  1  0  0  0
 83162  1  0  0  0
 83163  1  0  0  0
 84 86  1  0  0  0
 84164  1  0  0  0
 84165  1  0  0  0
 85166  1  0  0  0
M  ISO  4   1 100  68 101  83 101  85 100
M  END
> <chiral flag>
0

> <version>
0

> <s_m_source_file>
/data/baiqing/PycharmProjects/Reinvent-master-3.2/result/LINK_invent/BTK/process_docking_weight1_custom_product_contain_oxygen_bond_distance_aromatic_linkinvent_7_9_3/rearranged_h_0116.sdf

> <i_m_source_file_index>
32

> <r_mmod_Potential_Energy-OPLS-2005>
-46.9511184692383

> <r_mmod_Stretch_Energy-OPLS-2005>
40.9579048156738

> <r_mmod_Bend_Energy-OPLS-2005>
102.232192993164

> <r_mmod_Torsional_Energy-OPLS-2005>
267.154510498047

> <r_mmod_Improper_Torsional_Energy-OPLS-2005>
3.69430994987488

> <r_mmod_Van_der_Waal_Energy-OPLS-2005>
150.067642211914

> <r_mmod_Electrostatic_Energy-OPLS-2005>
-423.157623291016

> <r_mmod_Solvation_Energy-OPLS-2005>
-198.710662841797

> <b_mmod_Minimization_Converged-OPLS-2005>
0

> <r_mmod_RMS_Derivative-OPLS-2005>
2.84710574150085

$$$$
32
                    3D
 Structure written by MMmdl.
160168  0  0  1  0            999 V2000
  -30.6274  -14.7375   20.3414 C   0  0  0  0  0  0
  -30.4175  -12.4189   19.4654 C   0  0  0  0  0  0
  -29.4969  -12.4194   18.2272 C   0  0  0  0  0  0
  -28.0293  -12.2672   18.6624 C   0  0  0  0  0  0
  -27.6308  -13.2210   19.8242 C   0  0  2  0  0  0
  -28.6814  -13.2270   20.9532 C   0  0  0  0  0  0
  -25.2513  -13.8162   20.5719 C   0  0  0  0  0  0
  -24.1802  -13.0416   20.9188 C   0  0  0  0  0  0
  -24.6380  -11.6893   20.8734 C   0  0  0  0  0  0
  -23.9072  -10.4266   21.0393 C   0  0  0  0  0  0
  -24.3625   -9.4187   21.9179 C   0  0  0  0  0  0
  -23.6299   -8.2231   22.0764 C   0  0  0  0  0  0
  -22.4289   -8.0274   21.3543 C   0  0  0  0  0  0
  -21.9911   -9.0238   20.4643 C   0  0  0  0  0  0
  -22.7238  -10.2115   20.3035 C   0  0  0  0  0  0
  -21.6859   -6.0743   22.5282 C   0  0  0  0  0  0
  -21.4028   -6.5638   23.8216 C   0  0  0  0  0  0
  -21.3661   -5.6781   24.9171 C   0  0  0  0  0  0
  -21.6043   -4.3044   24.7212 C   0  0  0  0  0  0
  -21.8825   -3.8150   23.4328 C   0  0  0  0  0  0
  -21.9206   -4.6980   22.3392 C   0  0  0  0  0  0
  -22.7822  -13.5207   21.1854 C   0  0  0  0  0  0
  -22.1661   -4.2164   21.0971 F   0  0  0  0  0  0
  -21.5619   -3.4525   25.7726 F   0  0  0  0  0  0
  -29.9702  -13.5314   20.3262 N   0  0  0  0  0  0
  -26.2911  -12.9352   20.3232 N   0  0  0  0  0  0
  -25.9306  -11.6507   20.5753 N   0  0  0  0  0  0
  -22.0501  -12.8176   22.0413 N   0  0  0  0  0  0
  -25.4219  -15.1878   20.4234 N   0  0  0  0  0  0
  -31.8602  -14.7390   20.3326 O   0  0  0  0  0  0
  -21.6642   -6.8888   21.4240 O   0  0  0  0  0  0
  -22.3513  -14.5512   20.6730 O   0  0  0  0  0  0
  -24.6277  -31.8575   23.2037 C   0  0  0  0  0  0
  -25.9116  -32.4769   23.8356 C   0  0  1  0  0  0
  -27.2073  -27.2914   20.1428 C   0  0  0  0  0  0
  -25.5953  -33.8582   24.2291 N   0  0  0  0  0  0
  -23.4215  -30.4806   21.5460 C   0  0  2  0  0  0
  -24.8673  -28.9275   20.1164 C   0  0  0  0  0  0
  -22.7463  -29.4608   22.4941 C   0  0  0  0  0  0
  -18.0267  -28.1375   22.8468 C   0  0  0  0  0  0
  -24.1481  -36.7281   23.2644 C   0  0  0  0  0  0
  -25.9647  -30.7783   21.3804 C   0  0  0  0  0  0
  -26.0323  -29.4013   20.7289 C   0  0  0  0  0  0
  -27.2091  -28.5943   20.7304 C   0  0  0  0  0  0
  -26.0332  -26.8776   19.4886 C   0  0  0  0  0  0
  -24.8699  -27.6724   19.4852 C   0  0  0  0  0  0
  -23.6371  -29.8135   20.1617 C   0  0  0  0  0  0
  -25.4115  -36.3089   24.0325 C   0  0  1  0  0  0
  -20.5873  -28.3678   23.1287 C   0  0  2  0  0  0
  -20.6771  -26.9408   22.5410 C   0  0  0  0  0  0
  -19.5751  -26.6371   21.5205 C   0  0  0  0  0  0
  -18.1923  -26.7916   22.1602 C   0  0  0  0  0  0
  -19.1523  -28.8836   23.2870 C   0  0  0  0  0  0
  -18.9447  -30.1435   23.8889 C   0  0  0  0  0  0
  -17.6455  -30.6577   24.0551 C   0  0  0  0  0  0
  -25.9049  -34.9459   23.5095 C   0  0  0  0  0  0
  -16.5346  -29.9065   23.6340 C   0  0  0  0  0  0
  -16.7256  -28.6480   23.0362 C   0  0  0  0  0  0
  -26.4505  -31.6592   25.0732 C   0  0  0  0  0  0
  -25.3726  -31.3718   26.1452 C   0  0  0  0  0  0
  -27.0385  -30.3024   24.6219 C   0  0  0  0  0  0
  -27.6076  -32.4342   25.7486 C   0  0  0  0  0  0
  -27.5562  -37.1795   24.8460 C   0  0  0  0  0  0
  -21.4175  -29.3038   22.3692 N   0  0  0  0  0  0
  -26.4279  -37.3793   23.9399 N   0  0  0  0  0  0
  -24.6902  -31.0577   22.0992 N   0  0  0  0  0  0
  -23.4169  -28.8140   23.3037 O   0  0  0  0  0  0
  -28.3314  -26.4605   20.1021 O   0  0  0  0  0  0
  -26.5609  -34.8912   22.4660 O   0  0  0  0  0  0
  -23.5437  -32.1395   23.7342 O   0  0  0  0  0  0
  -29.8536  -19.5298   20.6690 C   0  0  0  0  0  0
  -28.1467  -17.4495   19.9263 C   0  0  0  0  0  0
  -30.3433  -18.1790   20.5693 C   0  0  0  0  0  0
  -28.5121  -19.8875   20.3538 C   0  0  0  0  0  0
  -29.4990  -17.0879   20.1745 C   0  0  0  0  0  0
  -27.6717  -18.7910   20.0111 C   0  0  0  0  0  0
  -30.1396  -16.8715   17.4257 C   0  0  0  0  0  0
  -30.3748  -15.8651   18.2949 C   0  0  0  0  0  0
  -28.5074  -22.3943   20.4123 C   0  0  0  0  0  0
  -31.8271  -17.9487   20.7933 C   0  0  0  0  0  0
  -26.2877  -23.6309   20.7569 C   0  0  0  0  0  0
  -28.3740  -25.1392   20.7904 C   0  0  0  0  0  0
  -27.7286  -23.7822   20.2140 C   0  0  1  0  0  0
  -27.9424  -21.2204   20.3108 N   0  0  0  0  0  0
  -29.9990  -15.7866   19.6657 N   0  0  0  0  0  0
  -26.3781  -19.0335   19.6831 F   0  0  0  0  0  0
  -31.4623  -12.5129   19.1677 H   0  0  0  0  0  0
  -30.3381  -11.4711   20.0010 H   0  0  0  0  0  0
  -29.7710  -11.6014   17.5572 H   0  0  0  0  0  0
  -29.6118  -13.3313   17.6457 H   0  0  0  0  0  0
  -27.9018  -11.2295   18.9755 H   0  0  0  0  0  0
  -27.3652  -12.4035   17.8097 H   0  0  0  0  0  0
  -27.6075  -14.2201   19.3925 H   0  0  0  0  0  0
  -28.7172  -12.2674   21.4723 H   0  0  0  0  0  0
  -28.4310  -13.9825   21.6999 H   0  0  0  0  0  0
  -25.2774   -9.5664   22.4743 H   0  0  0  0  0  0
  -24.0007   -7.4626   22.7473 H   0  0  0  0  0  0
  -21.0849   -8.8745   19.8929 H   0  0  0  0  0  0
  -22.3706  -10.9649   19.6134 H   0  0  0  0  0  0
  -21.2014   -7.6144   23.9724 H   0  0  0  0  0  0
  -21.1483   -6.0507   25.9075 H   0  0  0  0  0  0
  -22.0613   -2.7615   23.2824 H   0  0  0  0  0  0
  -22.4139  -11.9796   22.4708 H   0  0  0  0  0  0
  -21.1146  -13.1209   22.2699 H   0  0  0  0  0  0
  -24.6676  -15.8501   20.5699 H   0  0  0  0  0  0
  -26.3001  -15.6284   20.1939 H   0  0  0  0  0  0
  -26.7170  -32.5396   23.1085 H   0  0  0  0  0  0
  -25.0193  -33.9759   25.0504 H   0  0  0  0  0  0
  -22.7159  -31.3022   21.3993 H   0  0  0  0  0  0
  -23.3762  -35.9595   23.3316 H   0  0  0  0  0  0
  -24.3585  -36.8902   22.2059 H   0  0  0  0  0  0
  -23.7202  -37.6465   23.6668 H   0  0  0  0  0  0
  -26.1053  -31.5415   20.6125 H   0  0  0  0  0  0
  -26.8425  -30.8256   22.0141 H   0  0  0  0  0  0
  -28.1100  -28.9562   21.2034 H   0  0  0  0  0  0
  -26.0135  -25.9311   18.9689 H   0  0  0  0  0  0
  -23.9814  -27.3114   18.9852 H   0  0  0  0  0  0
  -23.7565  -30.5911   19.4053 H   0  0  0  0  0  0
  -22.7569  -29.2448   19.8570 H   0  0  0  0  0  0
  -25.1301  -36.1953   25.0820 H   0  0  0  0  0  0
  -20.9937  -28.3225   24.1420 H   0  0  0  0  0  0
  -20.5692  -26.2275   23.3602 H   0  0  0  0  0  0
  -21.6638  -26.7474   22.1193 H   0  0  0  0  0  0
  -19.6943  -25.6282   21.1239 H   0  0  0  0  0  0
  -19.6685  -27.3173   20.6735 H   0  0  0  0  0  0
  -17.4209  -26.6658   21.3990 H   0  0  0  0  0  0
  -18.0313  -26.0054   22.8991 H   0  0  0  0  0  0
  -19.7937  -30.7237   24.2261 H   0  0  0  0  0  0
  -17.5016  -31.6263   24.5139 H   0  0  0  0  0  0
  -15.5345  -30.2964   23.7667 H   0  0  0  0  0  0
  -15.8654  -28.0778   22.7117 H   0  0  0  0  0  0
  -24.5922  -30.7068   25.7751 H   0  0  0  0  0  0
  -24.8897  -32.2876   26.4869 H   0  0  0  0  0  0
  -25.8032  -30.8881   27.0231 H   0  0  0  0  0  0
  -26.2978  -29.6722   24.1288 H   0  0  0  0  0  0
  -27.4136  -29.7330   25.4729 H   0  0  0  0  0  0
  -27.8807  -30.4320   23.9421 H   0  0  0  0  0  0
  -27.2719  -33.3681   26.2008 H   0  0  0  0  0  0
  -28.3882  -32.6857   25.0295 H   0  0  0  0  0  0
  -28.0740  -31.8501   26.5416 H   0  0  0  0  0  0
  -28.2597  -38.0083   24.7550 H   0  0  0  0  0  0
  -28.1033  -36.2619   24.6247 H   0  0  0  0  0  0
  -27.2273  -37.1404   25.8861 H   0  0  0  0  0  0
  -20.9348  -29.8742   21.6888 H   0  0  0  0  0  0
  -26.0155  -38.2856   24.1441 H   0  0  0  0  0  0
  -30.5405  -20.3157   20.9493 H   0  0  0  0  0  0
  -27.4644  -16.7109   19.5396 H   0  0  0  0  0  0
  -30.4911  -16.7985   16.4039 H   0  0  0  0  0  0
  -29.6102  -17.7754   17.6875 H   0  0  0  0  0  0
  -30.9247  -15.0030   17.9345 H   0  0  0  0  0  0
  -29.5790  -22.4973   20.6051 H   0  0  0  0  0  0
  -32.3247  -18.8395   21.1798 H   0  0  0  0  0  0
  -32.3104  -17.6772   19.8549 H   0  0  0  0  0  0
  -31.9869  -17.1420   21.5098 H   0  0  0  0  0  0
  -25.7375  -22.8383   20.2481 H   0  0  0  0  0  0
  -25.7022  -24.5398   20.6514 H   0  0  0  0  0  0
  -26.2941  -23.3899   21.8205 H   0  0  0  0  0  0
  -29.4417  -24.9509   20.9007 H   0  0  0  0  0  0
  -28.0296  -25.2919   21.8140 H   0  0  0  0  0  0
  -27.6660  -23.9202   19.1358 H   0  0  0  0  0  0
  1 25  1  0  0  0
  1 30  2  0  0  0
  1 85  1  0  0  0
  2  3  1  0  0  0
  2 25  1  0  0  0
  2 87  1  0  0  0
  2 88  1  0  0  0
  3  4  1  0  0  0
  3 89  1  0  0  0
  3 90  1  0  0  0
  4  5  1  0  0  0
  4 91  1  0  0  0
  4 92  1  0  0  0
  5  6  1  0  0  0
  5 26  1  0  0  0
  5 93  1  0  0  0
  6 25  1  0  0  0
  6 94  1  0  0  0
  6 95  1  0  0  0
  7  8  2  0  0  0
  7 26  1  0  0  0
  7 29  1  0  0  0
  8  9  1  0  0  0
  8 22  1  0  0  0
  9 10  1  0  0  0
  9 27  2  0  0  0
 10 11  2  0  0  0
 10 15  1  0  0  0
 11 12  1  0  0  0
 11 96  1  0  0  0
 12 13  2  0  0  0
 12 97  1  0  0  0
 13 14  1  0  0  0
 13 31  1  0  0  0
 14 15  2  0  0  0
 14 98  1  0  0  0
 15 99  1  0  0  0
 16 17  2  0  0  0
 16 21  1  0  0  0
 16 31  1  0  0  0
 17 18  1  0  0  0
 17100  1  0  0  0
 18 19  2  0  0  0
 18101  1  0  0  0
 19 20  1  0  0  0
 19 24  1  0  0  0
 20 21  2  0  0  0
 20102  1  0  0  0
 21 23  1  0  0  0
 22 28  1  0  0  0
 22 32  2  0  0  0
 26 27  1  0  0  0
 28103  1  0  0  0
 28104  1  0  0  0
 29105  1  0  0  0
 29106  1  0  0  0
 33 34  1  0  0  0
 33 66  1  0  0  0
 33 70  2  0  0  0
 34 36  1  0  0  0
 34 59  1  0  0  0
 34107  1  0  0  0
 35 44  2  0  0  0
 35 45  1  0  0  0
 35 68  1  0  0  0
 36 56  1  0  0  0
 36108  1  0  0  0
 37 39  1  0  0  0
 37 47  1  0  0  0
 37 66  1  0  0  0
 37109  1  0  0  0
 38 43  2  0  0  0
 38 46  1  0  0  0
 38 47  1  0  0  0
 39 64  1  0  0  0
 39 67  2  0  0  0
 40 52  1  0  0  0
 40 53  2  0  0  0
 40 58  1  0  0  0
 41110  1  0  0  0
 41111  1  0  0  0
 41112  1  0  0  0
 41 48  1  0  0  0
 42 43  1  0  0  0
 42 66  1  0  0  0
 42113  1  0  0  0
 42114  1  0  0  0
 43 44  1  0  0  0
 44115  1  0  0  0
 45 46  2  0  0  0
 45116  1  0  0  0
 46117  1  0  0  0
 47118  1  0  0  0
 47119  1  0  0  0
 48 56  1  0  0  0
 48 65  1  0  0  0
 48120  1  0  0  0
 49 50  1  0  0  0
 49 53  1  0  0  0
 49 64  1  0  0  0
 49121  1  0  0  0
 50 51  1  0  0  0
 50122  1  0  0  0
 50123  1  0  0  0
 51 52  1  0  0  0
 51124  1  0  0  0
 51125  1  0  0  0
 52126  1  0  0  0
 52127  1  0  0  0
 53 54  1  0  0  0
 54 55  2  0  0  0
 54128  1  0  0  0
 55 57  1  0  0  0
 55129  1  0  0  0
 56 69  2  0  0  0
 57 58  2  0  0  0
 57130  1  0  0  0
 58131  1  0  0  0
 59 60  1  0  0  0
 59 61  1  0  0  0
 59 62  1  0  0  0
 60132  1  0  0  0
 60133  1  0  0  0
 60134  1  0  0  0
 61135  1  0  0  0
 61136  1  0  0  0
 61137  1  0  0  0
 62138  1  0  0  0
 62139  1  0  0  0
 62140  1  0  0  0
 63 65  1  0  0  0
 63141  1  0  0  0
 63142  1  0  0  0
 63143  1  0  0  0
 64144  1  0  0  0
 65145  1  0  0  0
 68 82  1  0  0  0
 71 73  2  0  0  0
 71 74  1  0  0  0
 71146  1  0  0  0
 72 75  2  0  0  0
 72 76  1  0  0  0
 72147  1  0  0  0
 73 75  1  0  0  0
 73 80  1  0  0  0
 74 76  2  0  0  0
 74 84  1  0  0  0
 75 85  1  0  0  0
 76 86  1  0  0  0
 77 78  2  0  0  0
 77148  1  0  0  0
 77149  1  0  0  0
 78 85  1  0  0  0
 78150  1  0  0  0
 79 83  1  0  0  0
 79 84  2  0  0  0
 79151  1  0  0  0
 80152  1  0  0  0
 80153  1  0  0  0
 80154  1  0  0  0
 81155  1  0  0  0
 81156  1  0  0  0
 81157  1  0  0  0
 81 83  1  0  0  0
 82 83  1  0  0  0
 82158  1  0  0  0
 82159  1  0  0  0
 83160  1  0  0  0
M  ISO  4   1 100  68 101  82 101  85 100
M  END
> <chiral flag>
0

> <version>
0

> <s_m_source_file>
/data/baiqing/PycharmProjects/Reinvent-master-3.2/result/LINK_invent/BTK/process_docking_weight1_custom_product_contain_oxygen_bond_distance_aromatic_linkinvent_7_9_3/rearranged_h_0116.sdf

> <i_m_source_file_index>
33

> <r_mmod_Potential_Energy-OPLS-2005>
441.792510986328

> <r_mmod_Stretch_Energy-OPLS-2005>
105.097869873047

> <r_mmod_Bend_Energy-OPLS-2005>
192.60302734375

> <r_mmod_Torsional_Energy-OPLS-2005>
360.295074462891

> <r_mmod_Improper_Torsional_Energy-OPLS-2005>
33.4819717407227

> <r_mmod_Van_der_Waal_Energy-OPLS-2005>
143.391891479492

> <r_mmod_Electrostatic_Energy-OPLS-2005>
-295.659240722656

> <r_mmod_Solvation_Energy-OPLS-2005>
-187.941787719727

> <b_mmod_Minimization_Converged-OPLS-2005>
0

> <r_mmod_RMS_Derivative-OPLS-2005>
3.76416707038879

$$$$
33
                    3D
 Structure written by MMmdl.
163171  0  0  1  0            999 V2000
  -30.6700  -14.4708   20.5571 C   0  0  0  0  0  0
  -30.4300  -12.2924   19.4430 C   0  0  0  0  0  0
  -29.5009  -12.4951   18.2239 C   0  0  0  0  0  0
  -28.0194  -12.3592   18.6309 C   0  0  0  0  0  0
  -27.6658  -13.1923   19.8908 C   0  0  2  0  0  0
  -28.7060  -12.9640   21.0158 C   0  0  0  0  0  0
  -25.2598  -13.8137   20.5717 C   0  0  0  0  0  0
  -24.1829  -13.0437   20.9178 C   0  0  0  0  0  0
  -24.6366  -11.6892   20.8760 C   0  0  0  0  0  0
  -23.9051  -10.4273   21.0414 C   0  0  0  0  0  0
  -24.3618   -9.4181   21.9176 C   0  0  0  0  0  0
  -23.6298   -8.2214   22.0750 C   0  0  0  0  0  0
  -22.4275   -8.0263   21.3545 C   0  0  0  0  0  0
  -21.9911   -9.0237   20.4638 C   0  0  0  0  0  0
  -22.7234  -10.2113   20.3043 C   0  0  0  0  0  0
  -21.6838   -6.0725   22.5273 C   0  0  0  0  0  0
  -21.4014   -6.5633   23.8208 C   0  0  0  0  0  0
  -21.3663   -5.6792   24.9175 C   0  0  0  0  0  0
  -21.6038   -4.3055   24.7220 C   0  0  0  0  0  0
  -21.8823   -3.8141   23.4349 C   0  0  0  0  0  0
  -21.9201   -4.6959   22.3400 C   0  0  0  0  0  0
  -22.7856  -13.5229   21.1848 C   0  0  0  0  0  0
  -22.1665   -4.2135   21.0986 F   0  0  0  0  0  0
  -21.5634   -3.4546   25.7737 F   0  0  0  0  0  0
  -30.0424  -13.2672   20.4747 N   0  0  0  0  0  0
  -26.3041  -12.9273   20.3456 N   0  0  0  0  0  0
  -25.9301  -11.6458   20.5847 N   0  0  0  0  0  0
  -22.0541  -12.8190   22.0407 N   0  0  0  0  0  0
  -25.4397  -15.1862   20.4126 N   0  0  0  0  0  0
  -31.7891  -14.6864   20.0822 O   0  0  0  0  0  0
  -21.6630   -6.8870   21.4236 O   0  0  0  0  0  0
  -22.3509  -14.5536   20.6701 O   0  0  0  0  0  0
  -24.6128  -31.8708   23.2114 C   0  0  0  0  0  0
  -25.9021  -32.4830   23.8411 C   0  0  1  0  0  0
  -27.2288  -27.4469   20.0833 C   0  0  0  0  0  0
  -25.5897  -33.8630   24.2344 N   0  0  0  0  0  0
  -23.3984  -30.4950   21.5547 C   0  0  2  0  0  0
  -24.8404  -28.9672   20.1108 C   0  0  0  0  0  0
  -22.7398  -29.4659   22.5024 C   0  0  0  0  0  0
  -18.0267  -28.1355   22.8494 C   0  0  0  0  0  0
  -24.1489  -36.7319   23.2642 C   0  0  0  0  0  0
  -25.9265  -30.8379   21.3636 C   0  0  0  0  0  0
  -26.0003  -29.4753   20.7064 C   0  0  0  0  0  0
  -27.1960  -28.7231   20.6878 C   0  0  0  0  0  0
  -26.0484  -26.9544   19.4767 C   0  0  0  0  0  0
  -24.8595  -27.7064   19.4919 C   0  0  0  0  0  0
  -23.6025  -29.8333   20.1669 C   0  0  0  0  0  0
  -25.4109  -36.3121   24.0348 C   0  0  1  0  0  0
  -20.5850  -28.3634   23.1334 C   0  0  2  0  0  0
  -20.6751  -26.9380   22.5417 C   0  0  0  0  0  0
  -19.5740  -26.6375   21.5201 C   0  0  0  0  0  0
  -18.1913  -26.7904   22.1611 C   0  0  0  0  0  0
  -19.1512  -28.8813   23.2909 C   0  0  0  0  0  0
  -18.9441  -30.1415   23.8919 C   0  0  0  0  0  0
  -17.6450  -30.6568   24.0553 C   0  0  0  0  0  0
  -25.9039  -34.9483   23.5138 C   0  0  0  0  0  0
  -16.5343  -29.9069   23.6311 C   0  0  0  0  0  0
  -16.7259  -28.6476   23.0355 C   0  0  0  0  0  0
  -26.4460  -31.6596   25.0721 C   0  0  0  0  0  0
  -25.3758  -31.3647   26.1487 C   0  0  0  0  0  0
  -27.0285  -30.3052   24.6050 C   0  0  0  0  0  0
  -27.6049  -32.4303   25.7473 C   0  0  0  0  0  0
  -27.5585  -37.1812   24.8465 C   0  0  0  0  0  0
  -21.4131  -29.3014   22.3757 N   0  0  0  0  0  0
  -26.4296  -37.3803   23.9413 N   0  0  0  0  0  0
  -24.6644  -31.0815   22.1018 N   0  0  0  0  0  0
  -23.4178  -28.8224   23.3078 O   0  0  0  0  0  0
  -28.4098  -26.7320   20.1040 O   0  0  0  0  0  0
  -26.5603  -34.8926   22.4702 O   0  0  0  0  0  0
  -23.5326  -32.1468   23.7520 O   0  0  0  0  0  0
  -29.9850  -20.2941   19.3710 C   0  0  0  0  0  0
  -29.7948  -19.9591   21.7632 C   0  0  0  0  0  0
  -29.7371  -18.0142   20.2644 C   0  0  0  0  0  0
  -29.9214  -20.8509   20.6726 C   0  0  0  0  0  0
  -29.8902  -18.9008   19.1703 C   0  0  0  0  0  0
  -29.6905  -18.5606   21.5703 C   0  0  0  0  0  0
  -29.5273  -23.0957   20.1218 C   0  0  0  0  0  0
  -31.1092  -17.2762   16.1508 C   0  0  0  0  0  0
  -30.8626  -25.1700   19.5621 C   0  0  0  0  0  0
  -29.5075  -16.5276   19.9558 C   0  0  0  0  0  0
  -31.2151  -18.1548   17.4008 C   0  0  0  0  0  0
  -28.3427  -25.3232   19.8477 C   0  0  0  0  0  0
  -29.6343  -24.6121   20.3052 C   0  0  1  0  0  0
  -30.0185  -22.2353   20.9324 N   0  0  0  0  0  0
  -29.8664  -15.4834   20.9276 N   0  0  0  0  0  0
  -29.9058  -18.4154   17.8881 O   0  0  0  0  0  0
  -29.5099  -17.7606   22.6491 F   0  0  0  0  0  0
  -31.4737  -12.4005   19.1421 H   0  0  0  0  0  0
  -30.3372  -11.2772   19.8348 H   0  0  0  0  0  0
  -29.7380  -11.7656   17.4478 H   0  0  0  0  0  0
  -29.6684  -13.4810   17.7860 H   0  0  0  0  0  0
  -27.8231  -11.3027   18.8212 H   0  0  0  0  0  0
  -27.3741  -12.6465   17.7991 H   0  0  0  0  0  0
  -27.7084  -14.2372   19.5923 H   0  0  0  0  0  0
  -28.6788  -11.9273   21.3545 H   0  0  0  0  0  0
  -28.4723  -13.5637   21.8985 H   0  0  0  0  0  0
  -25.2770   -9.5663   22.4731 H   0  0  0  0  0  0
  -24.0013   -7.4602   22.7460 H   0  0  0  0  0  0
  -21.0858   -8.8751   19.8922 H   0  0  0  0  0  0
  -22.3711  -10.9656   19.6147 H   0  0  0  0  0  0
  -21.1987   -7.6134   23.9705 H   0  0  0  0  0  0
  -21.1492   -6.0526   25.9083 H   0  0  0  0  0  0
  -22.0602   -2.7599   23.2855 H   0  0  0  0  0  0
  -22.4213  -11.9837   22.4720 H   0  0  0  0  0  0
  -21.1147  -13.1158   22.2656 H   0  0  0  0  0  0
  -24.6845  -15.8533   20.5260 H   0  0  0  0  0  0
  -26.2934  -15.6166   20.0856 H   0  0  0  0  0  0
  -26.7089  -32.5539   23.1179 H   0  0  0  0  0  0
  -25.0053  -33.9796   25.0491 H   0  0  0  0  0  0
  -22.6850  -31.3108   21.4212 H   0  0  0  0  0  0
  -23.3752  -35.9649   23.3301 H   0  0  0  0  0  0
  -24.3591  -36.8939   22.2057 H   0  0  0  0  0  0
  -23.7227  -37.6520   23.6655 H   0  0  0  0  0  0
  -26.0405  -31.6086   20.5994 H   0  0  0  0  0  0
  -26.8131  -30.8859   21.9843 H   0  0  0  0  0  0
  -28.0938  -29.1141   21.1454 H   0  0  0  0  0  0
  -26.0207  -25.9972   18.9772 H   0  0  0  0  0  0
  -23.9701  -27.3136   19.0183 H   0  0  0  0  0  0
  -23.7087  -30.6118   19.4110 H   0  0  0  0  0  0
  -22.7247  -29.2569   19.8702 H   0  0  0  0  0  0
  -25.1273  -36.2002   25.0841 H   0  0  0  0  0  0
  -20.9927  -28.3187   24.1464 H   0  0  0  0  0  0
  -20.5647  -26.2247   23.3596 H   0  0  0  0  0  0
  -21.6633  -26.7435   22.1225 H   0  0  0  0  0  0
  -19.6913  -25.6297   21.1209 H   0  0  0  0  0  0
  -19.6675  -27.3203   20.6744 H   0  0  0  0  0  0
  -17.4193  -26.6668   21.3995 H   0  0  0  0  0  0
  -18.0307  -26.0023   22.8982 H   0  0  0  0  0  0
  -19.7918  -30.7203   24.2324 H   0  0  0  0  0  0
  -17.5009  -31.6255   24.5146 H   0  0  0  0  0  0
  -15.5338  -30.2989   23.7607 H   0  0  0  0  0  0
  -15.8655  -28.0787   22.7089 H   0  0  0  0  0  0
  -24.5955  -30.6960   25.7826 H   0  0  0  0  0  0
  -24.8915  -32.2772   26.4972 H   0  0  0  0  0  0
  -25.8160  -30.8809   27.0218 H   0  0  0  0  0  0
  -26.2798  -29.6813   24.1154 H   0  0  0  0  0  0
  -27.4139  -29.7268   25.4453 H   0  0  0  0  0  0
  -27.8594  -30.4381   23.9121 H   0  0  0  0  0  0
  -27.2675  -33.3590   26.2082 H   0  0  0  0  0  0
  -28.3830  -32.6888   25.0279 H   0  0  0  0  0  0
  -28.0751  -31.8415   26.5360 H   0  0  0  0  0  0
  -28.2602  -38.0111   24.7531 H   0  0  0  0  0  0
  -28.1085  -36.2647   24.6268 H   0  0  0  0  0  0
  -27.2314  -37.1438   25.8871 H   0  0  0  0  0  0
  -20.9296  -29.8744   21.6982 H   0  0  0  0  0  0
  -26.0192  -38.2886   24.1416 H   0  0  0  0  0  0
  -30.0988  -20.9253   18.5022 H   0  0  0  0  0  0
  -29.7522  -20.3500   22.7700 H   0  0  0  0  0  0
  -28.9859  -22.8024   19.2169 H   0  0  0  0  0  0
  -32.0989  -17.0748   15.7409 H   0  0  0  0  0  0
  -30.5197  -17.7606   15.3708 H   0  0  0  0  0  0
  -30.6463  -16.3155   16.3755 H   0  0  0  0  0  0
  -31.7874  -24.7293   19.9360 H   0  0  0  0  0  0
  -30.9443  -26.2509   19.6903 H   0  0  0  0  0  0
  -30.8043  -24.9754   18.4902 H   0  0  0  0  0  0
  -29.9510  -16.2795   18.9904 H   0  0  0  0  0  0
  -28.4361  -16.4338   19.7878 H   0  0  0  0  0  0
  -31.7153  -19.0958   17.1662 H   0  0  0  0  0  0
  -31.8158  -17.6428   18.1562 H   0  0  0  0  0  0
  -27.4975  -24.8898   20.3871 H   0  0  0  0  0  0
  -28.1760  -25.1539   18.7818 H   0  0  0  0  0  0
  -29.7630  -24.8128   21.3706 H   0  0  0  0  0  0
  -29.0900  -15.1937   21.5033 H   0  0  0  0  0  0
  1 25  1  0  0  0
  1 30  2  0  0  0
  1 85  1  0  0  0
  2  3  1  0  0  0
  2 25  1  0  0  0
  2 88  1  0  0  0
  2 89  1  0  0  0
  3  4  1  0  0  0
  3 90  1  0  0  0
  3 91  1  0  0  0
  4  5  1  0  0  0
  4 92  1  0  0  0
  4 93  1  0  0  0
  5  6  1  0  0  0
  5 26  1  0  0  0
  5 94  1  0  0  0
  6 25  1  0  0  0
  6 95  1  0  0  0
  6 96  1  0  0  0
  7  8  2  0  0  0
  7 26  1  0  0  0
  7 29  1  0  0  0
  8  9  1  0  0  0
  8 22  1  0  0  0
  9 10  1  0  0  0
  9 27  2  0  0  0
 10 11  2  0  0  0
 10 15  1  0  0  0
 11 12  1  0  0  0
 11 97  1  0  0  0
 12 13  2  0  0  0
 12 98  1  0  0  0
 13 14  1  0  0  0
 13 31  1  0  0  0
 14 15  2  0  0  0
 14 99  1  0  0  0
 15100  1  0  0  0
 16 17  2  0  0  0
 16 21  1  0  0  0
 16 31  1  0  0  0
 17 18  1  0  0  0
 17101  1  0  0  0
 18 19  2  0  0  0
 18102  1  0  0  0
 19 20  1  0  0  0
 19 24  1  0  0  0
 20 21  2  0  0  0
 20103  1  0  0  0
 21 23  1  0  0  0
 22 28  1  0  0  0
 22 32  2  0  0  0
 26 27  1  0  0  0
 28104  1  0  0  0
 28105  1  0  0  0
 29106  1  0  0  0
 29107  1  0  0  0
 33 34  1  0  0  0
 33 66  1  0  0  0
 33 70  2  0  0  0
 34 36  1  0  0  0
 34 59  1  0  0  0
 34108  1  0  0  0
 35 44  2  0  0  0
 35 45  1  0  0  0
 35 68  1  0  0  0
 36 56  1  0  0  0
 36109  1  0  0  0
 37 39  1  0  0  0
 37 47  1  0  0  0
 37 66  1  0  0  0
 37110  1  0  0  0
 38 43  2  0  0  0
 38 46  1  0  0  0
 38 47  1  0  0  0
 39 64  1  0  0  0
 39 67  2  0  0  0
 40 52  1  0  0  0
 40 53  2  0  0  0
 40 58  1  0  0  0
 41111  1  0  0  0
 41112  1  0  0  0
 41113  1  0  0  0
 41 48  1  0  0  0
 42 43  1  0  0  0
 42 66  1  0  0  0
 42114  1  0  0  0
 42115  1  0  0  0
 43 44  1  0  0  0
 44116  1  0  0  0
 45 46  2  0  0  0
 45117  1  0  0  0
 46118  1  0  0  0
 47119  1  0  0  0
 47120  1  0  0  0
 48 56  1  0  0  0
 48 65  1  0  0  0
 48121  1  0  0  0
 49 50  1  0  0  0
 49 53  1  0  0  0
 49 64  1  0  0  0
 49122  1  0  0  0
 50 51  1  0  0  0
 50123  1  0  0  0
 50124  1  0  0  0
 51 52  1  0  0  0
 51125  1  0  0  0
 51126  1  0  0  0
 52127  1  0  0  0
 52128  1  0  0  0
 53 54  1  0  0  0
 54 55  2  0  0  0
 54129  1  0  0  0
 55 57  1  0  0  0
 55130  1  0  0  0
 56 69  2  0  0  0
 57 58  2  0  0  0
 57131  1  0  0  0
 58132  1  0  0  0
 59 60  1  0  0  0
 59 61  1  0  0  0
 59 62  1  0  0  0
 60133  1  0  0  0
 60134  1  0  0  0
 60135  1  0  0  0
 61136  1  0  0  0
 61137  1  0  0  0
 61138  1  0  0  0
 62139  1  0  0  0
 62140  1  0  0  0
 62141  1  0  0  0
 63 65  1  0  0  0
 63142  1  0  0  0
 63143  1  0  0  0
 63144  1  0  0  0
 64145  1  0  0  0
 65146  1  0  0  0
 68 82  1  0  0  0
 71 74  2  0  0  0
 71 75  1  0  0  0
 71147  1  0  0  0
 72 74  1  0  0  0
 72 76  2  0  0  0
 72148  1  0  0  0
 73 75  2  0  0  0
 73 76  1  0  0  0
 73 80  1  0  0  0
 74 84  1  0  0  0
 75 86  1  0  0  0
 76 87  1  0  0  0
 77 83  1  0  0  0
 77 84  2  0  0  0
 77149  1  0  0  0
 78 81  1  0  0  0
 78150  1  0  0  0
 78151  1  0  0  0
 78152  1  0  0  0
 79153  1  0  0  0
 79154  1  0  0  0
 79155  1  0  0  0
 79 83  1  0  0  0
 80 85  1  0  0  0
 80156  1  0  0  0
 80157  1  0  0  0
 81 86  1  0  0  0
 81158  1  0  0  0
 81159  1  0  0  0
 82 83  1  0  0  0
 82160  1  0  0  0
 82161  1  0  0  0
 83162  1  0  0  0
 85163  1  0  0  0
M  ISO  4   1 100  68 101  82 101  85 100
M  END
> <chiral flag>
0

> <version>
0

> <s_m_source_file>
/data/baiqing/PycharmProjects/Reinvent-master-3.2/result/LINK_invent/BTK/process_docking_weight1_custom_product_contain_oxygen_bond_distance_aromatic_linkinvent_7_9_3/rearranged_h_0116.sdf

> <i_m_source_file_index>
34

> <r_mmod_Potential_Energy-OPLS-2005>
9.8578462600708

> <r_mmod_Stretch_Energy-OPLS-2005>
37.9462051391602

> <r_mmod_Bend_Energy-OPLS-2005>
105.551536560059

> <r_mmod_Torsional_Energy-OPLS-2005>
269.973602294922

> <r_mmod_Improper_Torsional_Energy-OPLS-2005>
11.3504619598389

> <r_mmod_Van_der_Waal_Energy-OPLS-2005>
159.742126464844

> <r_mmod_Electrostatic_Energy-OPLS-2005>
-375.981323242188

> <r_mmod_Solvation_Energy-OPLS-2005>
-211.405792236328

> <b_mmod_Minimization_Converged-OPLS-2005>
0

> <r_mmod_RMS_Derivative-OPLS-2005>
2.42612910270691

$$$$
34
                    3D
 Structure written by MMmdl.
160169  0  0  1  0            999 V2000
  -30.5768  -14.7280   20.4957 C   0  0  0  0  0  0
  -30.4513  -12.4518   19.4588 C   0  0  0  0  0  0
  -29.5137  -12.5163   18.2304 C   0  0  0  0  0  0
  -28.0393  -12.3356   18.6444 C   0  0  0  0  0  0
  -27.6518  -13.2182   19.8603 C   0  0  2  0  0  0
  -28.6987  -13.0986   20.9909 C   0  0  0  0  0  0
  -25.2576  -13.8161   20.5692 C   0  0  0  0  0  0
  -24.1839  -13.0432   20.9188 C   0  0  0  0  0  0
  -24.6405  -11.6901   20.8747 C   0  0  0  0  0  0
  -23.9071  -10.4293   21.0414 C   0  0  0  0  0  0
  -24.3621   -9.4204   21.9191 C   0  0  0  0  0  0
  -23.6297   -8.2243   22.0761 C   0  0  0  0  0  0
  -22.4277   -8.0281   21.3546 C   0  0  0  0  0  0
  -21.9920   -9.0256   20.4654 C   0  0  0  0  0  0
  -22.7248  -10.2131   20.3057 C   0  0  0  0  0  0
  -21.6847   -6.0731   22.5274 C   0  0  0  0  0  0
  -21.3996   -6.5636   23.8209 C   0  0  0  0  0  0
  -21.3649   -5.6788   24.9172 C   0  0  0  0  0  0
  -21.6036   -4.3059   24.7232 C   0  0  0  0  0  0
  -21.8833   -3.8151   23.4346 C   0  0  0  0  0  0
  -21.9199   -4.6968   22.3401 C   0  0  0  0  0  0
  -22.7859  -13.5230   21.1833 C   0  0  0  0  0  0
  -22.1676   -4.2150   21.0976 F   0  0  0  0  0  0
  -21.5627   -3.4539   25.7743 F   0  0  0  0  0  0
  -30.0040  -13.4774   20.4266 N   0  0  0  0  0  0
  -26.2994  -12.9340   20.3318 N   0  0  0  0  0  0
  -25.9333  -11.6494   20.5748 N   0  0  0  0  0  0
  -22.0500  -12.8232   22.0395 N   0  0  0  0  0  0
  -25.4275  -15.1885   20.4103 N   0  0  0  0  0  0
  -31.7412  -14.9078   20.1234 O   0  0  0  0  0  0
  -21.6635   -6.8882   21.4241 O   0  0  0  0  0  0
  -22.3563  -14.5543   20.6684 O   0  0  0  0  0  0
  -24.6306  -31.8568   23.1967 C   0  0  0  0  0  0
  -25.9142  -32.4763   23.8310 C   0  0  1  0  0  0
  -27.2322  -27.2743   20.1450 C   0  0  0  0  0  0
  -25.5932  -33.8563   24.2249 N   0  0  0  0  0  0
  -23.4294  -30.4753   21.5386 C   0  0  2  0  0  0
  -24.8841  -28.9190   20.1157 C   0  0  0  0  0  0
  -22.7495  -29.4614   22.4901 C   0  0  0  0  0  0
  -18.0295  -28.1420   22.8493 C   0  0  0  0  0  0
  -24.1446  -36.7204   23.2631 C   0  0  0  0  0  0
  -25.9735  -30.7727   21.3779 C   0  0  0  0  0  0
  -26.0532  -29.3927   20.7284 C   0  0  0  0  0  0
  -27.2329  -28.5812   20.7358 C   0  0  0  0  0  0
  -26.0443  -26.8594   19.5118 C   0  0  0  0  0  0
  -24.8827  -27.6570   19.4993 C   0  0  0  0  0  0
  -23.6534  -29.8038   20.1579 C   0  0  0  0  0  0
  -25.4086  -36.3053   24.0323 C   0  0  1  0  0  0
  -20.5897  -28.3708   23.1258 C   0  0  2  0  0  0
  -20.6762  -26.9422   22.5415 C   0  0  0  0  0  0
  -19.5737  -26.6420   21.5207 C   0  0  0  0  0  0
  -18.1922  -26.7968   22.1629 C   0  0  0  0  0  0
  -19.1557  -28.8890   23.2869 C   0  0  0  0  0  0
  -18.9494  -30.1487   23.8890 C   0  0  0  0  0  0
  -17.6493  -30.6614   24.0586 C   0  0  0  0  0  0
  -25.9053  -34.9445   23.5094 C   0  0  0  0  0  0
  -16.5378  -29.9109   23.6364 C   0  0  0  0  0  0
  -16.7282  -28.6532   23.0373 C   0  0  0  0  0  0
  -26.4536  -31.6578   25.0686 C   0  0  0  0  0  0
  -25.3771  -31.3729   26.1417 C   0  0  0  0  0  0
  -27.0348  -30.2979   24.6155 C   0  0  0  0  0  0
  -27.6070  -32.4329   25.7481 C   0  0  0  0  0  0
  -27.5558  -37.1735   24.8467 C   0  0  0  0  0  0
  -21.4216  -29.3039   22.3625 N   0  0  0  0  0  0
  -26.4236  -37.3780   23.9467 N   0  0  0  0  0  0
  -24.6962  -31.0536   22.0945 N   0  0  0  0  0  0
  -23.4190  -28.8182   23.3033 O   0  0  0  0  0  0
  -28.2999  -26.3551   20.1414 O   0  0  0  0  0  0
  -26.5631  -34.8938   22.4664 O   0  0  0  0  0  0
  -23.5455  -32.1397   23.7256 O   0  0  0  0  0  0
  -30.7808  -18.0969   20.3665 C   0  0  0  0  0  0
  -28.5427  -17.9311   21.1785 C   0  0  0  0  0  0
  -30.6687  -19.5360   20.3850 C   0  0  0  0  0  0
  -28.4120  -19.3583   21.1957 C   0  0  0  0  0  0
  -29.4844  -20.2242   20.8166 C   0  0  0  0  0  0
  -29.7228  -17.2402   20.7824 C   0  0  0  0  0  0
  -28.6088  -24.0086   21.2282 C   0  0  0  0  0  0
  -28.3256  -25.3733   21.1575 C   0  0  0  0  0  0
  -28.6162  -23.3292   22.5841 C   0  0  0  0  0  0
  -28.9825  -22.8393   20.2466 C   0  0  0  0  0  0
  -29.4841  -22.0640   22.4626 C   0  0  0  0  0  0
  -31.8830  -20.3484   19.9722 C   0  0  0  0  0  0
  -27.0903  -19.9320   21.6855 C   0  0  0  0  0  0
  -29.4611  -21.6601   21.0621 N   0  0  0  0  0  0
  -29.7213  -15.7576   20.8448 N   0  0  0  0  0  0
  -31.4858  -12.6060   19.1494 H   0  0  0  0  0  0
  -30.4208  -11.4621   19.9168 H   0  0  0  0  0  0
  -29.7926  -11.7542   17.5018 H   0  0  0  0  0  0
  -29.6349  -13.4766   17.7268 H   0  0  0  0  0  0
  -27.8925  -11.2829   18.8914 H   0  0  0  0  0  0
  -27.3800  -12.5448   17.8002 H   0  0  0  0  0  0
  -27.6602  -14.2482   19.5025 H   0  0  0  0  0  0
  -28.7366  -12.0777   21.3722 H   0  0  0  0  0  0
  -28.4293  -13.7232   21.8439 H   0  0  0  0  0  0
  -25.2769   -9.5674   22.4766 H   0  0  0  0  0  0
  -23.9998   -7.4635   22.7485 H   0  0  0  0  0  0
  -21.0845   -8.8783   19.8964 H   0  0  0  0  0  0
  -22.3717  -10.9671   19.6162 H   0  0  0  0  0  0
  -21.1973   -7.6139   23.9706 H   0  0  0  0  0  0
  -21.1444   -6.0521   25.9075 H   0  0  0  0  0  0
  -22.0619   -2.7619   23.2850 H   0  0  0  0  0  0
  -22.4107  -11.9867   22.4741 H   0  0  0  0  0  0
  -21.1120  -13.1265   22.2606 H   0  0  0  0  0  0
  -24.6502  -15.8336   20.5010 H   0  0  0  0  0  0
  -26.2633  -15.6258   20.0465 H   0  0  0  0  0  0
  -26.7195  -32.5451   23.1040 H   0  0  0  0  0  0
  -25.0068  -33.9702   25.0388 H   0  0  0  0  0  0
  -22.7236  -31.2951   21.3857 H   0  0  0  0  0  0
  -23.3768  -35.9471   23.3292 H   0  0  0  0  0  0
  -24.3502  -36.8843   22.2041 H   0  0  0  0  0  0
  -23.7139  -37.6364   23.6677 H   0  0  0  0  0  0
  -26.1096  -31.5287   20.6038 H   0  0  0  0  0  0
  -26.8513  -30.8271   22.0112 H   0  0  0  0  0  0
  -28.1299  -28.9354   21.2244 H   0  0  0  0  0  0
  -26.0108  -25.8829   19.0505 H   0  0  0  0  0  0
  -23.9863  -27.2816   19.0235 H   0  0  0  0  0  0
  -23.7811  -30.5768   19.3988 H   0  0  0  0  0  0
  -22.7748  -29.2333   19.8519 H   0  0  0  0  0  0
  -25.1263  -36.1846   25.0803 H   0  0  0  0  0  0
  -21.0020  -28.3318   24.1368 H   0  0  0  0  0  0
  -20.5652  -26.2316   23.3623 H   0  0  0  0  0  0
  -21.6625  -26.7441   22.1217 H   0  0  0  0  0  0
  -19.6875  -25.6336   21.1219 H   0  0  0  0  0  0
  -19.6685  -27.3245   20.6747 H   0  0  0  0  0  0
  -17.4194  -26.6748   21.4031 H   0  0  0  0  0  0
  -18.0314  -26.0117   22.9035 H   0  0  0  0  0  0
  -19.7965  -30.7303   24.2264 H   0  0  0  0  0  0
  -17.5052  -31.6287   24.5198 H   0  0  0  0  0  0
  -15.5385  -30.3012   23.7711 H   0  0  0  0  0  0
  -15.8676  -28.0848   22.7115 H   0  0  0  0  0  0
  -24.5970  -30.7042   25.7774 H   0  0  0  0  0  0
  -24.8943  -32.2901   26.4800 H   0  0  0  0  0  0
  -25.8124  -30.8967   27.0211 H   0  0  0  0  0  0
  -26.2889  -29.6741   24.1220 H   0  0  0  0  0  0
  -27.4051  -29.7243   25.4656 H   0  0  0  0  0  0
  -27.8780  -30.4212   23.9352 H   0  0  0  0  0  0
  -27.2658  -33.3653   26.1999 H   0  0  0  0  0  0
  -28.3938  -32.6866   25.0360 H   0  0  0  0  0  0
  -28.0678  -31.8488   26.5464 H   0  0  0  0  0  0
  -28.2553  -38.0059   24.7624 H   0  0  0  0  0  0
  -28.1087  -36.2611   24.6174 H   0  0  0  0  0  0
  -27.2292  -37.1248   25.8867 H   0  0  0  0  0  0
  -20.9404  -29.8676   21.6755 H   0  0  0  0  0  0
  -26.0093  -38.2810   24.1624 H   0  0  0  0  0  0
  -31.7116  -17.6503   20.0463 H   0  0  0  0  0  0
  -27.6963  -17.3457   21.5078 H   0  0  0  0  0  0
  -28.0965  -25.8653   22.0931 H   0  0  0  0  0  0
  -27.5896  -23.0444   22.8192 H   0  0  0  0  0  0
  -28.9658  -23.9880   23.3810 H   0  0  0  0  0  0
  -29.7573  -23.1695   19.5535 H   0  0  0  0  0  0
  -28.1061  -22.5552   19.6623 H   0  0  0  0  0  0
  -29.1419  -21.2808   23.1406 H   0  0  0  0  0  0
  -30.5176  -22.2876   22.7337 H   0  0  0  0  0  0
  -32.6666  -19.7162   19.5553 H   0  0  0  0  0  0
  -32.2963  -20.8775   20.8313 H   0  0  0  0  0  0
  -31.6087  -21.0833   19.2152 H   0  0  0  0  0  0
  -26.2602  -19.2691   21.4408 H   0  0  0  0  0  0
  -26.8775  -20.8983   21.2301 H   0  0  0  0  0  0
  -27.1102  -20.0608   22.7677 H   0  0  0  0  0  0
  -28.8346  -15.3797   21.1409 H   0  0  0  0  0  0
  1 25  1  0  0  0
  1 30  2  0  0  0
  1 85  1  0  0  0
  2  3  1  0  0  0
  2 25  1  0  0  0
  2 86  1  0  0  0
  2 87  1  0  0  0
  3  4  1  0  0  0
  3 88  1  0  0  0
  3 89  1  0  0  0
  4  5  1  0  0  0
  4 90  1  0  0  0
  4 91  1  0  0  0
  5  6  1  0  0  0
  5 26  1  0  0  0
  5 92  1  0  0  0
  6 25  1  0  0  0
  6 93  1  0  0  0
  6 94  1  0  0  0
  7  8  2  0  0  0
  7 26  1  0  0  0
  7 29  1  0  0  0
  8  9  1  0  0  0
  8 22  1  0  0  0
  9 10  1  0  0  0
  9 27  2  0  0  0
 10 11  2  0  0  0
 10 15  1  0  0  0
 11 12  1  0  0  0
 11 95  1  0  0  0
 12 13  2  0  0  0
 12 96  1  0  0  0
 13 14  1  0  0  0
 13 31  1  0  0  0
 14 15  2  0  0  0
 14 97  1  0  0  0
 15 98  1  0  0  0
 16 17  2  0  0  0
 16 21  1  0  0  0
 16 31  1  0  0  0
 17 18  1  0  0  0
 17 99  1  0  0  0
 18 19  2  0  0  0
 18100  1  0  0  0
 19 20  1  0  0  0
 19 24  1  0  0  0
 20 21  2  0  0  0
 20101  1  0  0  0
 21 23  1  0  0  0
 22 28  1  0  0  0
 22 32  2  0  0  0
 26 27  1  0  0  0
 28102  1  0  0  0
 28103  1  0  0  0
 29104  1  0  0  0
 29105  1  0  0  0
 33 34  1  0  0  0
 33 66  1  0  0  0
 33 70  2  0  0  0
 34 36  1  0  0  0
 34 59  1  0  0  0
 34106  1  0  0  0
 35 44  2  0  0  0
 35 45  1  0  0  0
 35 68  1  0  0  0
 36 56  1  0  0  0
 36107  1  0  0  0
 37 39  1  0  0  0
 37 47  1  0  0  0
 37 66  1  0  0  0
 37108  1  0  0  0
 38 43  2  0  0  0
 38 46  1  0  0  0
 38 47  1  0  0  0
 39 64  1  0  0  0
 39 67  2  0  0  0
 40 52  1  0  0  0
 40 53  2  0  0  0
 40 58  1  0  0  0
 41109  1  0  0  0
 41110  1  0  0  0
 41111  1  0  0  0
 41 48  1  0  0  0
 42 43  1  0  0  0
 42 66  1  0  0  0
 42112  1  0  0  0
 42113  1  0  0  0
 43 44  1  0  0  0
 44114  1  0  0  0
 45 46  2  0  0  0
 45115  1  0  0  0
 46116  1  0  0  0
 47117  1  0  0  0
 47118  1  0  0  0
 48 56  1  0  0  0
 48 65  1  0  0  0
 48119  1  0  0  0
 49 50  1  0  0  0
 49 53  1  0  0  0
 49 64  1  0  0  0
 49120  1  0  0  0
 50 51  1  0  0  0
 50121  1  0  0  0
 50122  1  0  0  0
 51 52  1  0  0  0
 51123  1  0  0  0
 51124  1  0  0  0
 52125  1  0  0  0
 52126  1  0  0  0
 53 54  1  0  0  0
 54 55  2  0  0  0
 54127  1  0  0  0
 55 57  1  0  0  0
 55128  1  0  0  0
 56 69  2  0  0  0
 57 58  2  0  0  0
 57129  1  0  0  0
 58130  1  0  0  0
 59 60  1  0  0  0
 59 61  1  0  0  0
 59 62  1  0  0  0
 60131  1  0  0  0
 60132  1  0  0  0
 60133  1  0  0  0
 61134  1  0  0  0
 61135  1  0  0  0
 61136  1  0  0  0
 62137  1  0  0  0
 62138  1  0  0  0
 62139  1  0  0  0
 63 65  1  0  0  0
 63140  1  0  0  0
 63141  1  0  0  0
 63142  1  0  0  0
 64143  1  0  0  0
 65144  1  0  0  0
 68 78  1  0  0  0
 71 73  2  0  0  0
 71 76  1  0  0  0
 71145  1  0  0  0
 72 74  1  0  0  0
 72 76  2  0  0  0
 72146  1  0  0  0
 73 75  1  0  0  0
 73 82  1  0  0  0
 74 75  2  0  0  0
 74 83  1  0  0  0
 75 84  1  0  0  0
 76 85  1  0  0  0
 77 78  2  0  0  0
 77 79  1  0  0  0
 77 80  1  0  0  0
 78147  1  0  0  0
 79 81  1  0  0  0
 79148  1  0  0  0
 79149  1  0  0  0
 80 84  1  0  0  0
 80150  1  0  0  0
 80151  1  0  0  0
 81 84  1  0  0  0
 81152  1  0  0  0
 81153  1  0  0  0
 82154  1  0  0  0
 82155  1  0  0  0
 82156  1  0  0  0
 83157  1  0  0  0
 83158  1  0  0  0
 83159  1  0  0  0
 85160  1  0  0  0
M  ISO  4   1 100  68 101  78 101  85 100
M  END
> <chiral flag>
0

> <version>
0

> <s_m_source_file>
/data/baiqing/PycharmProjects/Reinvent-master-3.2/result/LINK_invent/BTK/process_docking_weight1_custom_product_contain_oxygen_bond_distance_aromatic_linkinvent_7_9_3/rearranged_h_0116.sdf

> <i_m_source_file_index>
35

> <r_mmod_Potential_Energy-OPLS-2005>
209.07177734375

> <r_mmod_Stretch_Energy-OPLS-2005>
100.621231079102

> <r_mmod_Bend_Energy-OPLS-2005>
241.069580078125

> <r_mmod_Torsional_Energy-OPLS-2005>
274.223846435547

> <r_mmod_Improper_Torsional_Energy-OPLS-2005>
6.50890254974365

> <r_mmod_Van_der_Waal_Energy-OPLS-2005>
128.603271484375

> <r_mmod_Electrostatic_Energy-OPLS-2005>
-414.928802490234

> <r_mmod_Solvation_Energy-OPLS-2005>
-206.686981201172

> <b_mmod_Minimization_Converged-OPLS-2005>
0

> <r_mmod_RMS_Derivative-OPLS-2005>
2.35887575149536

$$$$
35
                    3D
 Structure written by MMmdl.
161170  0  0  1  0            999 V2000
  -30.6465  -14.5798   20.5130 C   0  0  0  0  0  0
  -30.4225  -12.3586   19.4339 C   0  0  0  0  0  0
  -29.4952  -12.5015   18.2088 C   0  0  0  0  0  0
  -28.0170  -12.3474   18.6215 C   0  0  0  0  0  0
  -27.6469  -13.2130   19.8554 C   0  0  2  0  0  0
  -28.6913  -13.0588   20.9825 C   0  0  0  0  0  0
  -25.2533  -13.8168   20.5660 C   0  0  0  0  0  0
  -24.1807  -13.0437   20.9185 C   0  0  0  0  0  0
  -24.6371  -11.6905   20.8737 C   0  0  0  0  0  0
  -23.9047  -10.4285   21.0402 C   0  0  0  0  0  0
  -24.3608   -9.4205   21.9179 C   0  0  0  0  0  0
  -23.6288   -8.2239   22.0750 C   0  0  0  0  0  0
  -22.4273   -8.0271   21.3540 C   0  0  0  0  0  0
  -21.9901   -9.0244   20.4643 C   0  0  0  0  0  0
  -22.7223  -10.2123   20.3050 C   0  0  0  0  0  0
  -21.6851   -6.0732   22.5279 C   0  0  0  0  0  0
  -21.4016   -6.5637   23.8213 C   0  0  0  0  0  0
  -21.3662   -5.6790   24.9174 C   0  0  0  0  0  0
  -21.6044   -4.3054   24.7226 C   0  0  0  0  0  0
  -21.8819   -3.8144   23.4348 C   0  0  0  0  0  0
  -21.9192   -4.6959   22.3404 C   0  0  0  0  0  0
  -22.7832  -13.5224   21.1865 C   0  0  0  0  0  0
  -22.1660   -4.2143   21.0982 F   0  0  0  0  0  0
  -21.5630   -3.4539   25.7740 F   0  0  0  0  0  0
  -30.0058  -13.3791   20.4114 N   0  0  0  0  0  0
  -26.2948  -12.9342   20.3276 N   0  0  0  0  0  0
  -25.9290  -11.6501   20.5734 N   0  0  0  0  0  0
  -22.0485  -12.8206   22.0420 N   0  0  0  0  0  0
  -25.4252  -15.1892   20.4062 N   0  0  0  0  0  0
  -31.8262  -14.7146   20.1766 O   0  0  0  0  0  0
  -21.6637   -6.8871   21.4240 O   0  0  0  0  0  0
  -22.3512  -14.5532   20.6716 O   0  0  0  0  0  0
  -24.6215  -31.8633   23.2050 C   0  0  0  0  0  0
  -25.9076  -32.4800   23.8372 C   0  0  1  0  0  0
  -27.2262  -27.3759   20.1044 C   0  0  0  0  0  0
  -25.5905  -33.8601   24.2293 N   0  0  0  0  0  0
  -23.4133  -30.4868   21.5462 C   0  0  2  0  0  0
  -24.8623  -28.9484   20.1085 C   0  0  0  0  0  0
  -22.7455  -29.4635   22.4948 C   0  0  0  0  0  0
  -18.0287  -28.1373   22.8480 C   0  0  0  0  0  0
  -24.1498  -36.7307   23.2641 C   0  0  0  0  0  0
  -25.9500  -30.8107   21.3681 C   0  0  0  0  0  0
  -26.0277  -29.4424   20.7107 C   0  0  0  0  0  0
  -27.2180  -28.6644   20.7048 C   0  0  0  0  0  0
  -26.0471  -26.9155   19.4878 C   0  0  0  0  0  0
  -24.8696  -27.6871   19.4899 C   0  0  0  0  0  0
  -23.6270  -29.8221   20.1601 C   0  0  0  0  0  0
  -25.4119  -36.3096   24.0334 C   0  0  1  0  0  0
  -20.5885  -28.3674   23.1294 C   0  0  2  0  0  0
  -20.6775  -26.9398   22.5411 C   0  0  0  0  0  0
  -19.5757  -26.6375   21.5209 C   0  0  0  0  0  0
  -18.1936  -26.7916   22.1615 C   0  0  0  0  0  0
  -19.1540  -28.8842   23.2881 C   0  0  0  0  0  0
  -18.9466  -30.1446   23.8895 C   0  0  0  0  0  0
  -17.6466  -30.6579   24.0568 C   0  0  0  0  0  0
  -25.9053  -34.9463   23.5112 C   0  0  0  0  0  0
  -16.5358  -29.9083   23.6322 C   0  0  0  0  0  0
  -16.7273  -28.6499   23.0340 C   0  0  0  0  0  0
  -26.4470  -31.6601   25.0729 C   0  0  0  0  0  0
  -25.3715  -31.3738   26.1468 C   0  0  0  0  0  0
  -27.0303  -30.3039   24.6125 C   0  0  0  0  0  0
  -27.6032  -32.4335   25.7498 C   0  0  0  0  0  0
  -27.5583  -37.1811   24.8465 C   0  0  0  0  0  0
  -21.4172  -29.3039   22.3696 N   0  0  0  0  0  0
  -26.4298  -37.3784   23.9408 N   0  0  0  0  0  0
  -24.6798  -31.0692   22.0972 N   0  0  0  0  0  0
  -23.4198  -28.8168   23.3007 O   0  0  0  0  0  0
  -28.3082  -26.5096   20.1393 O   0  0  0  0  0  0
  -26.5622  -34.8919   22.4680 O   0  0  0  0  0  0
  -23.5390  -32.1412   23.7405 O   0  0  0  0  0  0
  -31.0630  -19.6824   21.6506 C   0  0  0  0  0  0
  -31.3040  -17.2684   21.9303 C   0  0  0  0  0  0
  -29.5701  -18.1674   20.4714 C   0  0  0  0  0  0
  -31.7132  -18.5816   22.2549 C   0  0  0  0  0  0
  -29.9699  -19.5151   20.7697 C   0  0  0  0  0  0
  -30.2475  -17.0314   21.0272 C   0  0  0  0  0  0
  -28.4653  -24.2263   21.1615 C   0  0  0  0  0  0
  -28.2549  -25.5779   21.1674 C   0  0  0  0  0  0
  -32.8302  -18.8300   23.2116 C   0  0  0  0  0  0
  -29.3708  -20.7365   20.0534 C   0  0  0  0  0  0
  -28.3243  -23.4045   22.4156 C   0  0  0  0  0  0
  -28.8514  -23.2396   20.0536 C   0  0  0  0  0  0
  -29.0956  -22.1029   22.1601 C   0  0  0  0  0  0
  -33.4385  -17.6273   23.9248 C   0  0  0  0  0  0
  -29.1810  -21.9332   20.7061 N   0  0  0  0  0  0
  -29.8520  -15.6641   20.7572 N   0  0  0  0  0  0
  -33.2704  -19.9552   23.4635 O   0  0  0  0  0  0
  -29.1049  -20.6240   18.8536 O   0  0  0  0  0  0
  -31.4660  -12.4676   19.1340 H   0  0  0  0  0  0
  -30.3366  -11.3609   19.8670 H   0  0  0  0  0  0
  -29.7494  -11.7604   17.4498 H   0  0  0  0  0  0
  -29.6450  -13.4775   17.7452 H   0  0  0  0  0  0
  -27.8423  -11.2934   18.8429 H   0  0  0  0  0  0
  -27.3638  -12.5904   17.7822 H   0  0  0  0  0  0
  -27.6662  -14.2487   19.5164 H   0  0  0  0  0  0
  -28.6892  -12.0394   21.3711 H   0  0  0  0  0  0
  -28.4500  -13.7032   21.8298 H   0  0  0  0  0  0
  -25.2760   -9.5680   22.4743 H   0  0  0  0  0  0
  -24.0002   -7.4630   22.7462 H   0  0  0  0  0  0
  -21.0837   -8.8754   19.8946 H   0  0  0  0  0  0
  -22.3684  -10.9657   19.6152 H   0  0  0  0  0  0
  -21.2008   -7.6145   23.9713 H   0  0  0  0  0  0
  -21.1486   -6.0523   25.9076 H   0  0  0  0  0  0
  -22.0597   -2.7606   23.2851 H   0  0  0  0  0  0
  -22.4113  -11.9863   22.4792 H   0  0  0  0  0  0
  -21.1106  -13.1219   22.2648 H   0  0  0  0  0  0
  -24.6568  -15.8435   20.5079 H   0  0  0  0  0  0
  -26.2692  -15.6264   20.0600 H   0  0  0  0  0  0
  -26.7146  -32.5486   23.1129 H   0  0  0  0  0  0
  -25.0051  -33.9757   25.0436 H   0  0  0  0  0  0
  -22.7061  -31.3071   21.4036 H   0  0  0  0  0  0
  -23.3751  -35.9649   23.3314 H   0  0  0  0  0  0
  -24.3598  -36.8917   22.2055 H   0  0  0  0  0  0
  -23.7265  -37.6518   23.6656 H   0  0  0  0  0  0
  -26.0765  -31.5754   20.6006 H   0  0  0  0  0  0
  -26.8329  -30.8606   21.9930 H   0  0  0  0  0  0
  -28.1151  -29.0322   21.1828 H   0  0  0  0  0  0
  -26.0377  -25.9381   19.0272 H   0  0  0  0  0  0
  -23.9751  -27.2995   19.0218 H   0  0  0  0  0  0
  -23.7437  -30.5992   19.4044 H   0  0  0  0  0  0
  -22.7491  -29.2497   19.8574 H   0  0  0  0  0  0
  -25.1304  -36.1948   25.0829 H   0  0  0  0  0  0
  -20.9985  -28.3230   24.1412 H   0  0  0  0  0  0
  -20.5677  -26.2275   23.3600 H   0  0  0  0  0  0
  -21.6646  -26.7428   22.1209 H   0  0  0  0  0  0
  -19.6922  -25.6288   21.1238 H   0  0  0  0  0  0
  -19.6699  -27.3186   20.6739 H   0  0  0  0  0  0
  -17.4206  -26.6660   21.4019 H   0  0  0  0  0  0
  -18.0333  -26.0062   22.9014 H   0  0  0  0  0  0
  -19.7952  -30.7262   24.2254 H   0  0  0  0  0  0
  -17.5032  -31.6263   24.5168 H   0  0  0  0  0  0
  -15.5361  -30.2994   23.7656 H   0  0  0  0  0  0
  -15.8668  -28.0837   22.7039 H   0  0  0  0  0  0
  -24.5873  -30.7098   25.7807 H   0  0  0  0  0  0
  -24.8921  -32.2912   26.4902 H   0  0  0  0  0  0
  -25.8048  -30.8913   27.0238 H   0  0  0  0  0  0
  -26.2859  -29.6819   24.1135 H   0  0  0  0  0  0
  -27.4031  -29.7255   25.4588 H   0  0  0  0  0  0
  -27.8714  -30.4368   23.9315 H   0  0  0  0  0  0
  -27.2630  -33.3625   26.2084 H   0  0  0  0  0  0
  -28.3827  -32.6916   25.0318 H   0  0  0  0  0  0
  -28.0710  -31.8461   26.5408 H   0  0  0  0  0  0
  -28.2597  -38.0108   24.7509 H   0  0  0  0  0  0
  -28.1077  -36.2639   24.6290 H   0  0  0  0  0  0
  -27.2306  -37.1472   25.8868 H   0  0  0  0  0  0
  -20.9328  -29.8793   21.6942 H   0  0  0  0  0  0
  -26.0179  -38.2863   24.1391 H   0  0  0  0  0  0
  -31.4325  -20.6769   21.8550 H   0  0  0  0  0  0
  -31.8021  -16.4209   22.3777 H   0  0  0  0  0  0
  -28.7553  -18.0108   19.7783 H   0  0  0  0  0  0
  -27.9821  -26.0669   22.0934 H   0  0  0  0  0  0
  -27.2653  -23.1847   22.5593 H   0  0  0  0  0  0
  -28.6767  -23.9352   23.3006 H   0  0  0  0  0  0
  -29.7074  -23.6190   19.4945 H   0  0  0  0  0  0
  -28.0148  -23.1186   19.3635 H   0  0  0  0  0  0
  -28.6182  -21.2519   22.6499 H   0  0  0  0  0  0
  -30.0975  -22.2089   22.5744 H   0  0  0  0  0  0
  -32.6621  -17.0532   24.4295 H   0  0  0  0  0  0
  -34.1616  -17.9528   24.6714 H   0  0  0  0  0  0
  -33.9467  -16.9828   23.2086 H   0  0  0  0  0  0
  -28.8623  -15.4722   20.7798 H   0  0  0  0  0  0
  1 25  1  0  0  0
  1 30  2  0  0  0
  1 86  1  0  0  0
  2  3  1  0  0  0
  2 25  1  0  0  0
  2 89  1  0  0  0
  2 90  1  0  0  0
  3  4  1  0  0  0
  3 91  1  0  0  0
  3 92  1  0  0  0
  4  5  1  0  0  0
  4 93  1  0  0  0
  4 94  1  0  0  0
  5  6  1  0  0  0
  5 26  1  0  0  0
  5 95  1  0  0  0
  6 25  1  0  0  0
  6 96  1  0  0  0
  6 97  1  0  0  0
  7  8  2  0  0  0
  7 26  1  0  0  0
  7 29  1  0  0  0
  8  9  1  0  0  0
  8 22  1  0  0  0
  9 10  1  0  0  0
  9 27  2  0  0  0
 10 11  2  0  0  0
 10 15  1  0  0  0
 11 12  1  0  0  0
 11 98  1  0  0  0
 12 13  2  0  0  0
 12 99  1  0  0  0
 13 14  1  0  0  0
 13 31  1  0  0  0
 14 15  2  0  0  0
 14100  1  0  0  0
 15101  1  0  0  0
 16 17  2  0  0  0
 16 21  1  0  0  0
 16 31  1  0  0  0
 17 18  1  0  0  0
 17102  1  0  0  0
 18 19  2  0  0  0
 18103  1  0  0  0
 19 20  1  0  0  0
 19 24  1  0  0  0
 20 21  2  0  0  0
 20104  1  0  0  0
 21 23  1  0  0  0
 22 28  1  0  0  0
 22 32  2  0  0  0
 26 27  1  0  0  0
 28105  1  0  0  0
 28106  1  0  0  0
 29107  1  0  0  0
 29108  1  0  0  0
 33 34  1  0  0  0
 33 66  1  0  0  0
 33 70  2  0  0  0
 34 36  1  0  0  0
 34 59  1  0  0  0
 34109  1  0  0  0
 35 44  2  0  0  0
 35 45  1  0  0  0
 35 68  1  0  0  0
 36 56  1  0  0  0
 36110  1  0  0  0
 37 39  1  0  0  0
 37 47  1  0  0  0
 37 66  1  0  0  0
 37111  1  0  0  0
 38 43  2  0  0  0
 38 46  1  0  0  0
 38 47  1  0  0  0
 39 64  1  0  0  0
 39 67  2  0  0  0
 40 52  1  0  0  0
 40 53  2  0  0  0
 40 58  1  0  0  0
 41112  1  0  0  0
 41113  1  0  0  0
 41114  1  0  0  0
 41 48  1  0  0  0
 42 43  1  0  0  0
 42 66  1  0  0  0
 42115  1  0  0  0
 42116  1  0  0  0
 43 44  1  0  0  0
 44117  1  0  0  0
 45 46  2  0  0  0
 45118  1  0  0  0
 46119  1  0  0  0
 47120  1  0  0  0
 47121  1  0  0  0
 48 56  1  0  0  0
 48 65  1  0  0  0
 48122  1  0  0  0
 49 50  1  0  0  0
 49 53  1  0  0  0
 49 64  1  0  0  0
 49123  1  0  0  0
 50 51  1  0  0  0
 50124  1  0  0  0
 50125  1  0  0  0
 51 52  1  0  0  0
 51126  1  0  0  0
 51127  1  0  0  0
 52128  1  0  0  0
 52129  1  0  0  0
 53 54  1  0  0  0
 54 55  2  0  0  0
 54130  1  0  0  0
 55 57  1  0  0  0
 55131  1  0  0  0
 56 69  2  0  0  0
 57 58  2  0  0  0
 57132  1  0  0  0
 58133  1  0  0  0
 59 60  1  0  0  0
 59 61  1  0  0  0
 59 62  1  0  0  0
 60134  1  0  0  0
 60135  1  0  0  0
 60136  1  0  0  0
 61137  1  0  0  0
 61138  1  0  0  0
 61139  1  0  0  0
 62140  1  0  0  0
 62141  1  0  0  0
 62142  1  0  0  0
 63 65  1  0  0  0
 63143  1  0  0  0
 63144  1  0  0  0
 63145  1  0  0  0
 64146  1  0  0  0
 65147  1  0  0  0
 68 78  1  0  0  0
 71 74  2  0  0  0
 71 75  1  0  0  0
 71148  1  0  0  0
 72 74  1  0  0  0
 72 76  2  0  0  0
 72149  1  0  0  0
 73 75  2  0  0  0
 73 76  1  0  0  0
 73150  1  0  0  0
 74 79  1  0  0  0
 75 80  1  0  0  0
 76 86  1  0  0  0
 77 78  2  0  0  0
 77 81  1  0  0  0
 77 82  1  0  0  0
 78151  1  0  0  0
 79 84  1  0  0  0
 79 87  2  0  0  0
 80 85  1  0  0  0
 80 88  2  0  0  0
 81 83  1  0  0  0
 81152  1  0  0  0
 81153  1  0  0  0
 82 85  1  0  0  0
 82154  1  0  0  0
 82155  1  0  0  0
 83 85  1  0  0  0
 83156  1  0  0  0
 83157  1  0  0  0
 84158  1  0  0  0
 84159  1  0  0  0
 84160  1  0  0  0
 86161  1  0  0  0
M  ISO  4   1 100  68 101  78 101  86 100
M  END
> <chiral flag>
0

> <version>
0

> <s_m_source_file>
/data/baiqing/PycharmProjects/Reinvent-master-3.2/result/LINK_invent/BTK/process_docking_weight1_custom_product_contain_oxygen_bond_distance_aromatic_linkinvent_7_9_3/rearranged_h_0116.sdf

> <i_m_source_file_index>
36

> <r_mmod_Potential_Energy-OPLS-2005>
90.9654693603516

> <r_mmod_Stretch_Energy-OPLS-2005>
59.094554901123

> <r_mmod_Bend_Energy-OPLS-2005>
141.593490600586

> <r_mmod_Torsional_Energy-OPLS-2005>
323.238128662109

> <r_mmod_Improper_Torsional_Energy-OPLS-2005>
6.88354206085205

> <r_mmod_Van_der_Waal_Energy-OPLS-2005>
145.941772460938

> <r_mmod_Electrostatic_Energy-OPLS-2005>
-383.879943847656

> <r_mmod_Solvation_Energy-OPLS-2005>
-236.807754516602

> <b_mmod_Minimization_Converged-OPLS-2005>
0

> <r_mmod_RMS_Derivative-OPLS-2005>
1.39840126037598

$$$$
36
                    3D
 Structure written by MMmdl.
160168  0  0  1  0            999 V2000
  -30.7301  -14.4716   20.6008 C   0  0  0  0  0  0
  -30.4174  -12.3220   19.4193 C   0  0  0  0  0  0
  -29.4880  -12.5009   18.2036 C   0  0  0  0  0  0
  -28.0128  -12.3573   18.6220 C   0  0  0  0  0  0
  -27.6578  -13.2104   19.8693 C   0  0  2  0  0  0
  -28.7003  -13.0125   20.9918 C   0  0  0  0  0  0
  -25.2579  -13.8176   20.5687 C   0  0  0  0  0  0
  -24.1832  -13.0454   20.9185 C   0  0  0  0  0  0
  -24.6387  -11.6919   20.8741 C   0  0  0  0  0  0
  -23.9056  -10.4302   21.0406 C   0  0  0  0  0  0
  -24.3609   -9.4216   21.9185 C   0  0  0  0  0  0
  -23.6288   -8.2248   22.0753 C   0  0  0  0  0  0
  -22.4271   -8.0283   21.3541 C   0  0  0  0  0  0
  -21.9907   -9.0257   20.4646 C   0  0  0  0  0  0
  -22.7230  -10.2142   20.3058 C   0  0  0  0  0  0
  -21.6852   -6.0740   22.5276 C   0  0  0  0  0  0
  -21.4010   -6.5640   23.8209 C   0  0  0  0  0  0
  -21.3660   -5.6794   24.9171 C   0  0  0  0  0  0
  -21.6042   -4.3057   24.7223 C   0  0  0  0  0  0
  -21.8821   -3.8151   23.4343 C   0  0  0  0  0  0
  -21.9191   -4.6968   22.3397 C   0  0  0  0  0  0
  -22.7858  -13.5251   21.1848 C   0  0  0  0  0  0
  -22.1662   -4.2153   21.0976 F   0  0  0  0  0  0
  -21.5632   -3.4540   25.7738 F   0  0  0  0  0  0
  -30.0286  -13.3159   20.4346 N   0  0  0  0  0  0
  -26.3002  -12.9344   20.3349 N   0  0  0  0  0  0
  -25.9310  -11.6501   20.5769 N   0  0  0  0  0  0
  -22.0490  -12.8241   22.0398 N   0  0  0  0  0  0
  -25.4318  -15.1891   20.4087 N   0  0  0  0  0  0
  -31.8367  -14.6501   20.0856 O   0  0  0  0  0  0
  -21.6637   -6.8882   21.4237 O   0  0  0  0  0  0
  -22.3550  -14.5559   20.6700 O   0  0  0  0  0  0
  -24.6165  -31.8676   23.2093 C   0  0  0  0  0  0
  -25.9056  -32.4816   23.8391 C   0  0  1  0  0  0
  -27.2280  -27.4122   20.1017 C   0  0  0  0  0  0
  -25.5899  -33.8616   24.2318 N   0  0  0  0  0  0
  -23.4042  -30.4918   21.5504 C   0  0  2  0  0  0
  -24.8489  -28.9570   20.1119 C   0  0  0  0  0  0
  -22.7421  -29.4655   22.4980 C   0  0  0  0  0  0
  -18.0273  -28.1374   22.8487 C   0  0  0  0  0  0
  -24.1488  -36.7309   23.2635 C   0  0  0  0  0  0
  -25.9348  -30.8264   21.3658 C   0  0  0  0  0  0
  -26.0105  -29.4606   20.7100 C   0  0  0  0  0  0
  -27.2023  -28.6968   20.6991 C   0  0  0  0  0  0
  -26.0476  -26.9348   19.4859 C   0  0  0  0  0  0
  -24.8640  -27.6955   19.4939 C   0  0  0  0  0  0
  -23.6130  -29.8265   20.1636 C   0  0  0  0  0  0
  -25.4108  -36.3105   24.0331 C   0  0  1  0  0  0
  -20.5868  -28.3669   23.1312 C   0  0  2  0  0  0
  -20.6765  -26.9407   22.5416 C   0  0  0  0  0  0
  -19.5743  -26.6388   21.5209 C   0  0  0  0  0  0
  -18.1920  -26.7920   22.1621 C   0  0  0  0  0  0
  -19.1519  -28.8837   23.2897 C   0  0  0  0  0  0
  -18.9453  -30.1443   23.8914 C   0  0  0  0  0  0
  -17.6454  -30.6585   24.0567 C   0  0  0  0  0  0
  -25.9037  -34.9471   23.5122 C   0  0  0  0  0  0
  -16.5346  -29.9087   23.6324 C   0  0  0  0  0  0
  -16.7263  -28.6499   23.0348 C   0  0  0  0  0  0
  -26.4479  -31.6600   25.0724 C   0  0  0  0  0  0
  -25.3737  -31.3705   26.1467 C   0  0  0  0  0  0
  -27.0312  -30.3040   24.6111 C   0  0  0  0  0  0
  -27.6060  -32.4326   25.7480 C   0  0  0  0  0  0
  -27.5583  -37.1807   24.8458 C   0  0  0  0  0  0
  -21.4149  -29.3035   22.3721 N   0  0  0  0  0  0
  -26.4292  -37.3790   23.9406 N   0  0  0  0  0  0
  -24.6698  -31.0761   22.1003 N   0  0  0  0  0  0
  -23.4192  -28.8192   23.3023 O   0  0  0  0  0  0
  -28.3924  -26.6639   20.1430 O   0  0  0  0  0  0
  -26.5606  -34.8920   22.4689 O   0  0  0  0  0  0
  -23.5355  -32.1449   23.7475 O   0  0  0  0  0  0
  -31.2368  -19.0560   21.2203 C   0  0  0  0  0  0
  -30.8176  -20.3943   21.0810 C   0  0  0  0  0  0
  -28.9389  -18.3618   21.5426 C   0  0  0  0  0  0
  -30.3099  -18.0268   21.4860 C   0  0  0  0  0  0
  -29.4509  -20.7531   21.1979 C   0  0  0  0  0  0
  -28.5004  -19.7135   21.4009 C   0  0  0  0  0  0
  -29.5823  -23.0054   20.5108 C   0  0  0  0  0  0
  -24.8042  -19.7139   21.4659 C   0  0  0  0  0  0
  -30.8377  -16.6294   21.8531 C   0  0  0  0  0  0
  -29.4568  -24.5202   20.7308 C   0  0  0  0  0  0
  -26.1848  -19.0666   21.5834 C   0  0  0  0  0  0
  -28.2916  -25.2278   20.0004 C   0  0  0  0  0  0
  -29.0415  -22.1101   21.2503 N   0  0  0  0  0  0
  -30.1394  -15.4430   21.3255 N   0  0  0  0  0  0
  -27.1724  -20.0859   21.4858 O   0  0  0  0  0  0
  -31.4601  -12.4185   19.1114 H   0  0  0  0  0  0
  -30.3241  -11.3158   19.8299 H   0  0  0  0  0  0
  -29.7297  -11.7656   17.4346 H   0  0  0  0  0  0
  -29.6500  -13.4810   17.7526 H   0  0  0  0  0  0
  -27.8329  -11.3026   18.8343 H   0  0  0  0  0  0
  -27.3568  -12.6137   17.7891 H   0  0  0  0  0  0
  -27.6978  -14.2550   19.5592 H   0  0  0  0  0  0
  -28.6816  -11.9819   21.3486 H   0  0  0  0  0  0
  -28.4546  -13.6254   21.8597 H   0  0  0  0  0  0
  -25.2757   -9.5694   22.4760 H   0  0  0  0  0  0
  -24.0000   -7.4642   22.7472 H   0  0  0  0  0  0
  -21.0841   -8.8774   19.8951 H   0  0  0  0  0  0
  -22.3684  -10.9680   19.6170 H   0  0  0  0  0  0
  -21.1999   -7.6149   23.9711 H   0  0  0  0  0  0
  -21.1481   -6.0526   25.9076 H   0  0  0  0  0  0
  -22.0601   -2.7613   23.2840 H   0  0  0  0  0  0
  -22.4099  -11.9904   22.4790 H   0  0  0  0  0  0
  -21.1108  -13.1271   22.2599 H   0  0  0  0  0  0
  -24.6625  -15.8432   20.5006 H   0  0  0  0  0  0
  -26.2817  -15.6176   20.0651 H   0  0  0  0  0  0
  -26.7131  -32.5522   23.1156 H   0  0  0  0  0  0
  -25.0040  -33.9777   25.0457 H   0  0  0  0  0  0
  -22.6931  -31.3094   21.4130 H   0  0  0  0  0  0
  -23.3741  -35.9652   23.3299 H   0  0  0  0  0  0
  -24.3583  -36.8922   22.2049 H   0  0  0  0  0  0
  -23.7249  -37.6512   23.6661 H   0  0  0  0  0  0
  -26.0510  -31.5945   20.5999 H   0  0  0  0  0  0
  -26.8206  -30.8763   21.9871 H   0  0  0  0  0  0
  -28.0967  -29.0796   21.1710 H   0  0  0  0  0  0
  -26.0234  -25.9744   18.9923 H   0  0  0  0  0  0
  -23.9725  -27.3051   19.0215 H   0  0  0  0  0  0
  -23.7226  -30.6033   19.4058 H   0  0  0  0  0  0
  -22.7372  -29.2462   19.8668 H   0  0  0  0  0  0
  -25.1287  -36.1971   25.0823 H   0  0  0  0  0  0
  -20.9956  -28.3247   24.1434 H   0  0  0  0  0  0
  -20.5670  -26.2280   23.3603 H   0  0  0  0  0  0
  -21.6639  -26.7458   22.1210 H   0  0  0  0  0  0
  -19.6907  -25.6302   21.1229 H   0  0  0  0  0  0
  -19.6678  -27.3208   20.6744 H   0  0  0  0  0  0
  -17.4193  -26.6668   21.4019 H   0  0  0  0  0  0
  -18.0317  -26.0060   22.9013 H   0  0  0  0  0  0
  -19.7933  -30.7242   24.2300 H   0  0  0  0  0  0
  -17.5016  -31.6266   24.5165 H   0  0  0  0  0  0
  -15.5348  -30.2994   23.7638 H   0  0  0  0  0  0
  -15.8661  -28.0829   22.7055 H   0  0  0  0  0  0
  -24.5918  -30.7053   25.7789 H   0  0  0  0  0  0
  -24.8921  -32.2854   26.4931 H   0  0  0  0  0  0
  -25.8080  -30.8862   27.0218 H   0  0  0  0  0  0
  -26.2857  -29.6795   24.1177 H   0  0  0  0  0  0
  -27.4073  -29.7298   25.4584 H   0  0  0  0  0  0
  -27.8699  -30.4335   23.9266 H   0  0  0  0  0  0
  -27.2685  -33.3617   26.2088 H   0  0  0  0  0  0
  -28.3851  -32.6899   25.0292 H   0  0  0  0  0  0
  -28.0748  -31.8428   26.5368 H   0  0  0  0  0  0
  -28.2598  -38.0112   24.7529 H   0  0  0  0  0  0
  -28.1087  -36.2644   24.6262 H   0  0  0  0  0  0
  -27.2301  -37.1423   25.8861 H   0  0  0  0  0  0
  -20.9314  -29.8760   21.6937 H   0  0  0  0  0  0
  -26.0180  -38.2861   24.1427 H   0  0  0  0  0  0
  -32.2950  -18.8361   21.1803 H   0  0  0  0  0  0
  -31.5788  -21.1503   20.9481 H   0  0  0  0  0  0
  -28.2401  -17.5680   21.7593 H   0  0  0  0  0  0
  -30.2411  -22.7410   19.6786 H   0  0  0  0  0  0
  -24.0166  -18.9639   21.5426 H   0  0  0  0  0  0
  -24.6895  -20.2178   20.5061 H   0  0  0  0  0  0
  -24.6442  -20.4491   22.2547 H   0  0  0  0  0  0
  -30.7942  -16.5575   22.9403 H   0  0  0  0  0  0
  -31.9037  -16.5889   21.6213 H   0  0  0  0  0  0
  -30.3943  -24.9738   20.4095 H   0  0  0  0  0  0
  -29.3849  -24.7143   21.8009 H   0  0  0  0  0  0
  -26.3033  -18.3316   20.7856 H   0  0  0  0  0  0
  -26.2694  -18.5476   22.5396 H   0  0  0  0  0  0
  -27.3595  -24.8484   20.4220 H   0  0  0  0  0  0
  -28.2986  -24.9785   18.9386 H   0  0  0  0  0  0
  -29.2163  -15.2498   21.6821 H   0  0  0  0  0  0
  1 25  1  0  0  0
  1 30  2  0  0  0
  1 84  1  0  0  0
  2  3  1  0  0  0
  2 25  1  0  0  0
  2 86  1  0  0  0
  2 87  1  0  0  0
  3  4  1  0  0  0
  3 88  1  0  0  0
  3 89  1  0  0  0
  4  5  1  0  0  0
  4 90  1  0  0  0
  4 91  1  0  0  0
  5  6  1  0  0  0
  5 26  1  0  0  0
  5 92  1  0  0  0
  6 25  1  0  0  0
  6 93  1  0  0  0
  6 94  1  0  0  0
  7  8  2  0  0  0
  7 26  1  0  0  0
  7 29  1  0  0  0
  8  9  1  0  0  0
  8 22  1  0  0  0
  9 10  1  0  0  0
  9 27  2  0  0  0
 10 11  2  0  0  0
 10 15  1  0  0  0
 11 12  1  0  0  0
 11 95  1  0  0  0
 12 13  2  0  0  0
 12 96  1  0  0  0
 13 14  1  0  0  0
 13 31  1  0  0  0
 14 15  2  0  0  0
 14 97  1  0  0  0
 15 98  1  0  0  0
 16 17  2  0  0  0
 16 21  1  0  0  0
 16 31  1  0  0  0
 17 18  1  0  0  0
 17 99  1  0  0  0
 18 19  2  0  0  0
 18100  1  0  0  0
 19 20  1  0  0  0
 19 24  1  0  0  0
 20 21  2  0  0  0
 20101  1  0  0  0
 21 23  1  0  0  0
 22 28  1  0  0  0
 22 32  2  0  0  0
 26 27  1  0  0  0
 28102  1  0  0  0
 28103  1  0  0  0
 29104  1  0  0  0
 29105  1  0  0  0
 33 34  1  0  0  0
 33 66  1  0  0  0
 33 70  2  0  0  0
 34 36  1  0  0  0
 34 59  1  0  0  0
 34106  1  0  0  0
 35 44  2  0  0  0
 35 45  1  0  0  0
 35 68  1  0  0  0
 36 56  1  0  0  0
 36107  1  0  0  0
 37 39  1  0  0  0
 37 47  1  0  0  0
 37 66  1  0  0  0
 37108  1  0  0  0
 38 43  2  0  0  0
 38 46  1  0  0  0
 38 47  1  0  0  0
 39 64  1  0  0  0
 39 67  2  0  0  0
 40 52  1  0  0  0
 40 53  2  0  0  0
 40 58  1  0  0  0
 41109  1  0  0  0
 41110  1  0  0  0
 41111  1  0  0  0
 41 48  1  0  0  0
 42 43  1  0  0  0
 42 66  1  0  0  0
 42112  1  0  0  0
 42113  1  0  0  0
 43 44  1  0  0  0
 44114  1  0  0  0
 45 46  2  0  0  0
 45115  1  0  0  0
 46116  1  0  0  0
 47117  1  0  0  0
 47118  1  0  0  0
 48 56  1  0  0  0
 48 65  1  0  0  0
 48119  1  0  0  0
 49 50  1  0  0  0
 49 53  1  0  0  0
 49 64  1  0  0  0
 49120  1  0  0  0
 50 51  1  0  0  0
 50121  1  0  0  0
 50122  1  0  0  0
 51 52  1  0  0  0
 51123  1  0  0  0
 51124  1  0  0  0
 52125  1  0  0  0
 52126  1  0  0  0
 53 54  1  0  0  0
 54 55  2  0  0  0
 54127  1  0  0  0
 55 57  1  0  0  0
 55128  1  0  0  0
 56 69  2  0  0  0
 57 58  2  0  0  0
 57129  1  0  0  0
 58130  1  0  0  0
 59 60  1  0  0  0
 59 61  1  0  0  0
 59 62  1  0  0  0
 60131  1  0  0  0
 60132  1  0  0  0
 60133  1  0  0  0
 61134  1  0  0  0
 61135  1  0  0  0
 61136  1  0  0  0
 62137  1  0  0  0
 62138  1  0  0  0
 62139  1  0  0  0
 63 65  1  0  0  0
 63140  1  0  0  0
 63141  1  0  0  0
 63142  1  0  0  0
 64143  1  0  0  0
 65144  1  0  0  0
 68 82  1  0  0  0
 71 72  2  0  0  0
 71 74  1  0  0  0
 71145  1  0  0  0
 72 75  1  0  0  0
 72146  1  0  0  0
 73 74  2  0  0  0
 73 76  1  0  0  0
 73147  1  0  0  0
 74 79  1  0  0  0
 75 76  2  0  0  0
 75 83  1  0  0  0
 76 85  1  0  0  0
 77 80  1  0  0  0
 77 83  2  0  0  0
 77148  1  0  0  0
 78 81  1  0  0  0
 78149  1  0  0  0
 78150  1  0  0  0
 78151  1  0  0  0
 79 84  1  0  0  0
 79152  1  0  0  0
 79153  1  0  0  0
 80 82  1  0  0  0
 80154  1  0  0  0
 80155  1  0  0  0
 81 85  1  0  0  0
 81156  1  0  0  0
 81157  1  0  0  0
 82158  1  0  0  0
 82159  1  0  0  0
 84160  1  0  0  0
M  ISO  4   1 100  68 101  82 101  84 100
M  END
> <chiral flag>
0

> <version>
0

> <s_m_source_file>
/data/baiqing/PycharmProjects/Reinvent-master-3.2/result/LINK_invent/BTK/process_docking_weight1_custom_product_contain_oxygen_bond_distance_aromatic_linkinvent_7_9_3/rearranged_h_0116.sdf

> <i_m_source_file_index>
37

> <r_mmod_Potential_Energy-OPLS-2005>
-122.541069030762

> <r_mmod_Stretch_Energy-OPLS-2005>
43.2568778991699

> <r_mmod_Bend_Energy-OPLS-2005>
109.717483520508

> <r_mmod_Torsional_Energy-OPLS-2005>
209.612014770508

> <r_mmod_Improper_Torsional_Energy-OPLS-2005>
3.64009213447571

> <r_mmod_Van_der_Waal_Energy-OPLS-2005>
162.404693603516

> <r_mmod_Electrostatic_Energy-OPLS-2005>
-437.729461669922

> <r_mmod_Solvation_Energy-OPLS-2005>
-228.472854614258

> <b_mmod_Minimization_Converged-OPLS-2005>
0

> <r_mmod_RMS_Derivative-OPLS-2005>
1.19356441497803

$$$$
37
                    3D
 Structure written by MMmdl.
165173  0  0  1  0            999 V2000
  -30.7140  -14.5008   20.5034 C   0  0  0  0  0  0
  -30.4094  -12.3040   19.4461 C   0  0  0  0  0  0
  -29.4939  -12.5000   18.2197 C   0  0  0  0  0  0
  -28.0149  -12.3654   18.6289 C   0  0  0  0  0  0
  -27.6582  -13.2168   19.8763 C   0  0  2  0  0  0
  -28.7025  -13.0482   21.0051 C   0  0  0  0  0  0
  -25.2567  -13.8169   20.5701 C   0  0  0  0  0  0
  -24.1820  -13.0429   20.9167 C   0  0  0  0  0  0
  -24.6389  -11.6894   20.8729 C   0  0  0  0  0  0
  -23.9055  -10.4280   21.0380 C   0  0  0  0  0  0
  -24.3603   -9.4195   21.9169 C   0  0  0  0  0  0
  -23.6275   -8.2236   22.0729 C   0  0  0  0  0  0
  -22.4259   -8.0277   21.3517 C   0  0  0  0  0  0
  -21.9897   -9.0246   20.4624 C   0  0  0  0  0  0
  -22.7228  -10.2131   20.3028 C   0  0  0  0  0  0
  -21.6852   -6.0728   22.5270 C   0  0  0  0  0  0
  -21.4024   -6.5634   23.8197 C   0  0  0  0  0  0
  -21.3650   -5.6796   24.9166 C   0  0  0  0  0  0
  -21.6030   -4.3054   24.7226 C   0  0  0  0  0  0
  -21.8823   -3.8138   23.4347 C   0  0  0  0  0  0
  -21.9196   -4.6952   22.3399 C   0  0  0  0  0  0
  -22.7846  -13.5228   21.1842 C   0  0  0  0  0  0
  -22.1672   -4.2137   21.0974 F   0  0  0  0  0  0
  -21.5602   -3.4536   25.7737 F   0  0  0  0  0  0
  -30.0308  -13.3252   20.4370 N   0  0  0  0  0  0
  -26.3015  -12.9365   20.3404 N   0  0  0  0  0  0
  -25.9332  -11.6507   20.5800 N   0  0  0  0  0  0
  -22.0511  -12.8204   22.0406 N   0  0  0  0  0  0
  -25.4313  -15.1878   20.4105 N   0  0  0  0  0  0
  -31.8701  -14.6139   20.0929 O   0  0  0  0  0  0
  -21.6620   -6.8878   21.4231 O   0  0  0  0  0  0
  -22.3529  -14.5539   20.6709 O   0  0  0  0  0  0
  -24.6182  -31.8680   23.2090 C   0  0  0  0  0  0
  -25.9066  -32.4820   23.8392 C   0  0  1  0  0  0
  -27.2231  -27.3980   20.0970 C   0  0  0  0  0  0
  -25.5914  -33.8618   24.2333 N   0  0  0  0  0  0
  -23.4067  -30.4938   21.5515 C   0  0  2  0  0  0
  -24.8504  -28.9643   20.1098 C   0  0  0  0  0  0
  -22.7433  -29.4660   22.4981 C   0  0  0  0  0  0
  -18.0274  -28.1365   22.8475 C   0  0  0  0  0  0
  -24.1485  -36.7307   23.2636 C   0  0  0  0  0  0
  -25.9416  -30.8228   21.3688 C   0  0  0  0  0  0
  -26.0162  -29.4583   20.7088 C   0  0  0  0  0  0
  -27.2065  -28.6854   20.6954 C   0  0  0  0  0  0
  -26.0353  -26.9425   19.4745 C   0  0  0  0  0  0
  -24.8585  -27.7081   19.4868 C   0  0  0  0  0  0
  -23.6148  -29.8340   20.1642 C   0  0  0  0  0  0
  -25.4104  -36.3110   24.0345 C   0  0  1  0  0  0
  -20.5865  -28.3654   23.1305 C   0  0  2  0  0  0
  -20.6763  -26.9385   22.5404 C   0  0  0  0  0  0
  -19.5745  -26.6373   21.5198 C   0  0  0  0  0  0
  -18.1925  -26.7910   22.1609 C   0  0  0  0  0  0
  -19.1522  -28.8824   23.2883 C   0  0  0  0  0  0
  -18.9451  -30.1425   23.8897 C   0  0  0  0  0  0
  -17.6459  -30.6575   24.0549 C   0  0  0  0  0  0
  -25.9037  -34.9478   23.5136 C   0  0  0  0  0  0
  -16.5347  -29.9076   23.6321 C   0  0  0  0  0  0
  -16.7263  -28.6490   23.0344 C   0  0  0  0  0  0
  -26.4461  -31.6600   25.0734 C   0  0  0  0  0  0
  -25.3726  -31.3741   26.1495 C   0  0  0  0  0  0
  -27.0261  -30.3025   24.6126 C   0  0  0  0  0  0
  -27.6041  -32.4308   25.7492 C   0  0  0  0  0  0
  -27.5591  -37.1797   24.8454 C   0  0  0  0  0  0
  -21.4157  -29.3032   22.3727 N   0  0  0  0  0  0
  -26.4280  -37.3806   23.9428 N   0  0  0  0  0  0
  -24.6740  -31.0761   22.1005 N   0  0  0  0  0  0
  -23.4200  -28.8208   23.3030 O   0  0  0  0  0  0
  -28.3627  -26.6013   20.1436 O   0  0  0  0  0  0
  -26.5596  -34.8936   22.4695 O   0  0  0  0  0  0
  -23.5370  -32.1447   23.7473 O   0  0  0  0  0  0
  -29.2827  -19.2782   23.3790 C   0  0  0  0  0  0
  -30.0565  -19.4768   20.7159 C   0  0  0  0  0  0
  -29.5418  -18.0966   22.6552 C   0  0  0  0  0  0
  -29.4396  -20.5659   22.8107 C   0  0  0  0  0  0
  -29.9645  -18.1849   21.3042 C   0  0  0  0  0  0
  -29.7949  -20.6688   21.4405 C   0  0  0  0  0  0
  -28.3729  -16.1749   23.6973 C   0  0  0  0  0  0
  -29.5037  -16.8310   23.3960 C   0  0  0  0  0  0
  -29.3395  -21.7792   23.6539 C   0  0  0  0  0  0
  -29.1575  -21.8252   24.9868 C   0  0  0  0  0  0
  -29.0677  -23.1058   25.7878 C   0  0  0  0  0  0
  -30.4342  -16.9764   20.4637 C   0  0  0  0  0  0
  -29.3046  -24.2491   20.4874 C   0  0  0  0  0  0
  -28.1395  -25.1705   20.0378 C   0  0  0  0  0  0
  -28.9141  -22.7367   20.5404 C   0  0  0  0  0  0
  -29.9973  -15.6034   20.8080 N   0  0  0  0  0  0
  -30.0406  -21.8944   20.8373 O   0  0  0  0  0  0
  -31.4584  -12.3648   19.1529 H   0  0  0  0  0  0
  -30.2802  -11.3055   19.8673 H   0  0  0  0  0  0
  -29.7354  -11.7685   17.4479 H   0  0  0  0  0  0
  -29.6625  -13.4826   17.7760 H   0  0  0  0  0  0
  -27.8251  -11.3115   18.8341 H   0  0  0  0  0  0
  -27.3654  -12.6373   17.7964 H   0  0  0  0  0  0
  -27.6909  -14.2583   19.5566 H   0  0  0  0  0  0
  -28.6744  -12.0350   21.4078 H   0  0  0  0  0  0
  -28.4771  -13.7072   21.8466 H   0  0  0  0  0  0
  -25.2743   -9.5671   22.4759 H   0  0  0  0  0  0
  -23.9975   -7.4612   22.7430 H   0  0  0  0  0  0
  -21.0830   -8.8769   19.8932 H   0  0  0  0  0  0
  -22.3676  -10.9667   19.6134 H   0  0  0  0  0  0
  -21.2070   -7.6154   23.9702 H   0  0  0  0  0  0
  -21.1444   -6.0529   25.9069 H   0  0  0  0  0  0
  -22.0629   -2.7607   23.2843 H   0  0  0  0  0  0
  -22.4164  -11.9873   22.4777 H   0  0  0  0  0  0
  -21.1128  -13.1191   22.2642 H   0  0  0  0  0  0
  -24.6669  -15.8469   20.5118 H   0  0  0  0  0  0
  -26.2951  -15.6242   20.1133 H   0  0  0  0  0  0
  -26.7141  -32.5515   23.1156 H   0  0  0  0  0  0
  -25.0084  -33.9774   25.0489 H   0  0  0  0  0  0
  -22.6954  -31.3104   21.4163 H   0  0  0  0  0  0
  -23.3767  -35.9615   23.3266 H   0  0  0  0  0  0
  -24.3596  -36.8950   22.2057 H   0  0  0  0  0  0
  -23.7207  -37.6493   23.6661 H   0  0  0  0  0  0
  -26.0670  -31.5934   20.6067 H   0  0  0  0  0  0
  -26.8248  -30.8678   21.9939 H   0  0  0  0  0  0
  -28.1020  -29.0609   21.1708 H   0  0  0  0  0  0
  -25.9854  -25.9866   18.9741 H   0  0  0  0  0  0
  -23.9660  -27.3245   19.0125 H   0  0  0  0  0  0
  -23.7245  -30.6126   19.4082 H   0  0  0  0  0  0
  -22.7370  -29.2577   19.8657 H   0  0  0  0  0  0
  -25.1272  -36.1971   25.0835 H   0  0  0  0  0  0
  -20.9940  -28.3208   24.1427 H   0  0  0  0  0  0
  -20.5646  -26.2258   23.3594 H   0  0  0  0  0  0
  -21.6640  -26.7425   22.1216 H   0  0  0  0  0  0
  -19.6912  -25.6287   21.1221 H   0  0  0  0  0  0
  -19.6687  -27.3175   20.6719 H   0  0  0  0  0  0
  -17.4191  -26.6628   21.4016 H   0  0  0  0  0  0
  -18.0337  -26.0053   22.9013 H   0  0  0  0  0  0
  -19.7934  -30.7219   24.2282 H   0  0  0  0  0  0
  -17.5026  -31.6260   24.5145 H   0  0  0  0  0  0
  -15.5349  -30.2976   23.7660 H   0  0  0  0  0  0
  -15.8658  -28.0811   22.7068 H   0  0  0  0  0  0
  -24.5853  -30.7134   25.7852 H   0  0  0  0  0  0
  -24.8971  -32.2916   26.4971 H   0  0  0  0  0  0
  -25.8079  -30.8886   27.0239 H   0  0  0  0  0  0
  -26.2797  -29.6824   24.1149 H   0  0  0  0  0  0
  -27.3970  -29.7231   25.4592 H   0  0  0  0  0  0
  -27.8668  -30.4318   23.9310 H   0  0  0  0  0  0
  -27.2664  -33.3607   26.2079 H   0  0  0  0  0  0
  -28.3839  -32.6870   25.0310 H   0  0  0  0  0  0
  -28.0709  -31.8421   26.5401 H   0  0  0  0  0  0
  -28.2573  -38.0131   24.7575 H   0  0  0  0  0  0
  -28.1121  -36.2672   24.6171 H   0  0  0  0  0  0
  -27.2328  -37.1326   25.8858 H   0  0  0  0  0  0
  -20.9321  -29.8765   21.6959 H   0  0  0  0  0  0
  -26.0174  -38.2876   24.1458 H   0  0  0  0  0  0
  -29.0147  -19.1700   24.4185 H   0  0  0  0  0  0
  -30.3958  -19.5635   19.6923 H   0  0  0  0  0  0
  -28.3984  -15.2468   24.2506 H   0  0  0  0  0  0
  -27.4043  -16.5471   23.3939 H   0  0  0  0  0  0
  -30.4594  -16.4318   23.7139 H   0  0  0  0  0  0
  -29.4327  -22.7256   23.1411 H   0  0  0  0  0  0
  -29.0665  -20.9217   25.5714 H   0  0  0  0  0  0
  -29.1875  -23.9876   25.1568 H   0  0  0  0  0  0
  -29.8464  -23.1243   26.5511 H   0  0  0  0  0  0
  -28.0998  -23.1648   26.2857 H   0  0  0  0  0  0
  -31.5251  -17.0305   20.4726 H   0  0  0  0  0  0
  -30.1426  -17.1527   19.4270 H   0  0  0  0  0  0
  -29.6500  -24.5622   21.4714 H   0  0  0  0  0  0
  -30.1459  -24.3867   19.8089 H   0  0  0  0  0  0
  -27.2708  -24.9013   20.6419 H   0  0  0  0  0  0
  -27.9000  -24.9230   19.0031 H   0  0  0  0  0  0
  -28.5141  -22.4255   19.5741 H   0  0  0  0  0  0
  -28.1085  -22.5914   21.2613 H   0  0  0  0  0  0
  -29.0514  -15.4799   21.1357 H   0  0  0  0  0  0
  1 25  1  0  0  0
  1 30  2  0  0  0
  1 86  1  0  0  0
  2  3  1  0  0  0
  2 25  1  0  0  0
  2 88  1  0  0  0
  2 89  1  0  0  0
  3  4  1  0  0  0
  3 90  1  0  0  0
  3 91  1  0  0  0
  4  5  1  0  0  0
  4 92  1  0  0  0
  4 93  1  0  0  0
  5  6  1  0  0  0
  5 26  1  0  0  0
  5 94  1  0  0  0
  6 25  1  0  0  0
  6 95  1  0  0  0
  6 96  1  0  0  0
  7  8  2  0  0  0
  7 26  1  0  0  0
  7 29  1  0  0  0
  8  9  1  0  0  0
  8 22  1  0  0  0
  9 10  1  0  0  0
  9 27  2  0  0  0
 10 11  2  0  0  0
 10 15  1  0  0  0
 11 12  1  0  0  0
 11 97  1  0  0  0
 12 13  2  0  0  0
 12 98  1  0  0  0
 13 14  1  0  0  0
 13 31  1  0  0  0
 14 15  2  0  0  0
 14 99  1  0  0  0
 15100  1  0  0  0
 16 17  2  0  0  0
 16 21  1  0  0  0
 16 31  1  0  0  0
 17 18  1  0  0  0
 17101  1  0  0  0
 18 19  2  0  0  0
 18102  1  0  0  0
 19 20  1  0  0  0
 19 24  1  0  0  0
 20 21  2  0  0  0
 20103  1  0  0  0
 21 23  1  0  0  0
 22 28  1  0  0  0
 22 32  2  0  0  0
 26 27  1  0  0  0
 28104  1  0  0  0
 28105  1  0  0  0
 29106  1  0  0  0
 29107  1  0  0  0
 33 34  1  0  0  0
 33 66  1  0  0  0
 33 70  2  0  0  0
 34 36  1  0  0  0
 34 59  1  0  0  0
 34108  1  0  0  0
 35 44  2  0  0  0
 35 45  1  0  0  0
 35 68  1  0  0  0
 36 56  1  0  0  0
 36109  1  0  0  0
 37 39  1  0  0  0
 37 47  1  0  0  0
 37 66  1  0  0  0
 37110  1  0  0  0
 38 43  2  0  0  0
 38 46  1  0  0  0
 38 47  1  0  0  0
 39 64  1  0  0  0
 39 67  2  0  0  0
 40 52  1  0  0  0
 40 53  2  0  0  0
 40 58  1  0  0  0
 41111  1  0  0  0
 41112  1  0  0  0
 41113  1  0  0  0
 41 48  1  0  0  0
 42 43  1  0  0  0
 42 66  1  0  0  0
 42114  1  0  0  0
 42115  1  0  0  0
 43 44  1  0  0  0
 44116  1  0  0  0
 45 46  2  0  0  0
 45117  1  0  0  0
 46118  1  0  0  0
 47119  1  0  0  0
 47120  1  0  0  0
 48 56  1  0  0  0
 48 65  1  0  0  0
 48121  1  0  0  0
 49 50  1  0  0  0
 49 53  1  0  0  0
 49 64  1  0  0  0
 49122  1  0  0  0
 50 51  1  0  0  0
 50123  1  0  0  0
 50124  1  0  0  0
 51 52  1  0  0  0
 51125  1  0  0  0
 51126  1  0  0  0
 52127  1  0  0  0
 52128  1  0  0  0
 53 54  1  0  0  0
 54 55  2  0  0  0
 54129  1  0  0  0
 55 57  1  0  0  0
 55130  1  0  0  0
 56 69  2  0  0  0
 57 58  2  0  0  0
 57131  1  0  0  0
 58132  1  0  0  0
 59 60  1  0  0  0
 59 61  1  0  0  0
 59 62  1  0  0  0
 60133  1  0  0  0
 60134  1  0  0  0
 60135  1  0  0  0
 61136  1  0  0  0
 61137  1  0  0  0
 61138  1  0  0  0
 62139  1  0  0  0
 62140  1  0  0  0
 62141  1  0  0  0
 63 65  1  0  0  0
 63142  1  0  0  0
 63143  1  0  0  0
 63144  1  0  0  0
 64145  1  0  0  0
 65146  1  0  0  0
 68 84  1  0  0  0
 71 73  2  0  0  0
 71 74  1  0  0  0
 71147  1  0  0  0
 72 75  2  0  0  0
 72 76  1  0  0  0
 72148  1  0  0  0
 73 75  1  0  0  0
 73 78  1  0  0  0
 74 76  2  0  0  0
 74 79  1  0  0  0
 75 82  1  0  0  0
 76 87  1  0  0  0
 77 78  2  0  0  0
 77149  1  0  0  0
 77150  1  0  0  0
 78151  1  0  0  0
 79 80  2  0  0  0
 79152  1  0  0  0
 80 81  1  0  0  0
 80153  1  0  0  0
 81154  1  0  0  0
 81155  1  0  0  0
 81156  1  0  0  0
 82 86  1  0  0  0
 82157  1  0  0  0
 82158  1  0  0  0
 83 84  1  0  0  0
 83 85  1  0  0  0
 83159  1  0  0  0
 83160  1  0  0  0
 84161  1  0  0  0
 84162  1  0  0  0
 85 87  1  0  0  0
 85163  1  0  0  0
 85164  1  0  0  0
 86165  1  0  0  0
M  ISO  4   1 100  68 101  84 101  86 100
M  END
> <chiral flag>
0

> <version>
0

> <s_m_source_file>
/data/baiqing/PycharmProjects/Reinvent-master-3.2/result/LINK_invent/BTK/process_docking_weight1_custom_product_contain_oxygen_bond_distance_aromatic_linkinvent_7_9_3/rearranged_h_0116.sdf

> <i_m_source_file_index>
38

> <r_mmod_Potential_Energy-OPLS-2005>
-11.9127435684204

> <r_mmod_Stretch_Energy-OPLS-2005>
46.1465911865234

> <r_mmod_Bend_Energy-OPLS-2005>
109.598785400391

> <r_mmod_Torsional_Energy-OPLS-2005>
264.362152099609

> <r_mmod_Improper_Torsional_Energy-OPLS-2005>
7.43773078918457

> <r_mmod_Van_der_Waal_Energy-OPLS-2005>
161.352355957031

> <r_mmod_Electrostatic_Energy-OPLS-2005>
-420.973724365234

> <r_mmod_Solvation_Energy-OPLS-2005>
-202.172805786133

> <b_mmod_Minimization_Converged-OPLS-2005>
0

> <r_mmod_RMS_Derivative-OPLS-2005>
2.48519158363342

$$$$
38
                    3D
 Structure written by MMmdl.
164172  0  0  1  0            999 V2000
  -30.6808  -14.4969   20.5522 C   0  0  0  0  0  0
  -30.4359  -12.3082   19.4312 C   0  0  0  0  0  0
  -29.5080  -12.5101   18.2148 C   0  0  0  0  0  0
  -28.0256  -12.3741   18.6188 C   0  0  0  0  0  0
  -27.6692  -13.2062   19.8788 C   0  0  2  0  0  0
  -28.7104  -12.9828   20.9975 C   0  0  0  0  0  0
  -25.2638  -13.8155   20.5689 C   0  0  0  0  0  0
  -24.1865  -13.0438   20.9148 C   0  0  0  0  0  0
  -24.6411  -11.6903   20.8709 C   0  0  0  0  0  0
  -23.9065  -10.4293   21.0392 C   0  0  0  0  0  0
  -24.3615   -9.4206   21.9179 C   0  0  0  0  0  0
  -23.6291   -8.2242   22.0749 C   0  0  0  0  0  0
  -22.4274   -8.0287   21.3536 C   0  0  0  0  0  0
  -21.9913   -9.0255   20.4645 C   0  0  0  0  0  0
  -22.7234  -10.2137   20.3044 C   0  0  0  0  0  0
  -21.6842   -6.0745   22.5276 C   0  0  0  0  0  0
  -21.4012   -6.5652   23.8211 C   0  0  0  0  0  0
  -21.3650   -5.6795   24.9166 C   0  0  0  0  0  0
  -21.6038   -4.3056   24.7207 C   0  0  0  0  0  0
  -21.8818   -3.8154   23.4323 C   0  0  0  0  0  0
  -21.9194   -4.6979   22.3388 C   0  0  0  0  0  0
  -22.7887  -13.5242   21.1802 C   0  0  0  0  0  0
  -22.1664   -4.2159   21.0967 F   0  0  0  0  0  0
  -21.5613   -3.4540   25.7722 F   0  0  0  0  0  0
  -30.0446  -13.2944   20.4517 N   0  0  0  0  0  0
  -26.3078  -12.9326   20.3383 N   0  0  0  0  0  0
  -25.9344  -11.6486   20.5744 N   0  0  0  0  0  0
  -22.0518  -12.8247   22.0365 N   0  0  0  0  0  0
  -25.4393  -15.1874   20.4124 N   0  0  0  0  0  0
  -31.8158  -14.6470   20.0942 O   0  0  0  0  0  0
  -21.6625   -6.8894   21.4246 O   0  0  0  0  0  0
  -22.3585  -14.5558   20.6662 O   0  0  0  0  0  0
  -24.6138  -31.8696   23.2119 C   0  0  0  0  0  0
  -25.9038  -32.4828   23.8413 C   0  0  1  0  0  0
  -27.2369  -27.4429   20.0869 C   0  0  0  0  0  0
  -25.5909  -33.8631   24.2350 N   0  0  0  0  0  0
  -23.3997  -30.4938   21.5532 C   0  0  2  0  0  0
  -24.8429  -28.9566   20.1203 C   0  0  0  0  0  0
  -22.7408  -29.4659   22.5009 C   0  0  0  0  0  0
  -18.0283  -28.1368   22.8487 C   0  0  0  0  0  0
  -24.1495  -36.7323   23.2627 C   0  0  0  0  0  0
  -25.9281  -30.8348   21.3627 C   0  0  0  0  0  0
  -26.0027  -29.4679   20.7143 C   0  0  0  0  0  0
  -27.1975  -28.7149   20.7010 C   0  0  0  0  0  0
  -26.0489  -26.9342   19.5095 C   0  0  0  0  0  0
  -24.8581  -27.6845   19.5233 C   0  0  0  0  0  0
  -23.6068  -29.8265   20.1676 C   0  0  0  0  0  0
  -25.4108  -36.3124   24.0342 C   0  0  1  0  0  0
  -20.5868  -28.3637   23.1331 C   0  0  2  0  0  0
  -20.6768  -26.9371   22.5424 C   0  0  0  0  0  0
  -19.5751  -26.6374   21.5213 C   0  0  0  0  0  0
  -18.1930  -26.7919   22.1620 C   0  0  0  0  0  0
  -19.1530  -28.8824   23.2903 C   0  0  0  0  0  0
  -18.9452  -30.1440   23.8897 C   0  0  0  0  0  0
  -17.6449  -30.6565   24.0563 C   0  0  0  0  0  0
  -25.9045  -34.9485   23.5146 C   0  0  0  0  0  0
  -16.5344  -29.9061   23.6319 C   0  0  0  0  0  0
  -16.7275  -28.6492   23.0327 C   0  0  0  0  0  0
  -26.4471  -31.6582   25.0725 C   0  0  0  0  0  0
  -25.3755  -31.3634   26.1477 C   0  0  0  0  0  0
  -27.0249  -30.3032   24.6044 C   0  0  0  0  0  0
  -27.6104  -32.4241   25.7463 C   0  0  0  0  0  0
  -27.5597  -37.1805   24.8454 C   0  0  0  0  0  0
  -21.4141  -29.3008   22.3741 N   0  0  0  0  0  0
  -26.4297  -37.3818   23.9424 N   0  0  0  0  0  0
  -24.6659  -31.0809   22.1007 N   0  0  0  0  0  0
  -23.4191  -28.8204   23.3047 O   0  0  0  0  0  0
  -28.4358  -26.7548   20.0878 O   0  0  0  0  0  0
  -26.5608  -34.8931   22.4710 O   0  0  0  0  0  0
  -23.5340  -32.1435   23.7528 O   0  0  0  0  0  0
  -29.2341  -19.0598   21.3623 C   0  0  0  0  0  0
  -29.1473  -17.7126   21.3997 C   0  0  0  0  0  0
  -31.4933  -19.4815   20.7350 C   0  0  0  0  0  0
  -32.1390  -18.3028   20.8731 C   0  0  0  0  0  0
  -31.6628  -17.1687   21.4461 C   0  0  0  0  0  0
  -30.2414  -19.8983   21.0216 C   0  0  0  0  0  0
  -30.2434  -16.7310   21.2401 C   0  0  0  0  0  0
  -29.0160  -22.1214   21.0070 C   0  0  0  0  0  0
  -33.5809  -18.2829   20.3926 C   0  0  0  0  0  0
  -33.4872  -15.7225   22.6076 C   0  0  0  0  0  0
  -32.2787  -16.6637   22.7555 C   0  0  0  0  0  0
  -29.2864  -23.6101   20.7262 C   0  0  0  0  0  0
  -28.1728  -24.2878   19.8926 C   0  0  0  0  0  0
  -28.5964  -25.6192   19.2332 C   0  0  0  0  0  0
  -29.8513  -15.5218   21.0188 N   0  0  0  0  0  0
  -30.0852  -21.3016   20.9015 N   0  0  0  0  0  0
  -27.8725  -21.7651   21.2949 O   0  0  0  0  0  0
  -31.4803  -12.4025   19.1273 H   0  0  0  0  0  0
  -30.3378  -11.2958   19.8268 H   0  0  0  0  0  0
  -29.7514  -11.7905   17.4325 H   0  0  0  0  0  0
  -29.6798  -13.4973   17.7819 H   0  0  0  0  0  0
  -27.8259  -11.3183   18.8038 H   0  0  0  0  0  0
  -27.3830  -12.6610   17.7865 H   0  0  0  0  0  0
  -27.7184  -14.2556   19.5892 H   0  0  0  0  0  0
  -28.6869  -11.9472   21.3399 H   0  0  0  0  0  0
  -28.4711  -13.5840   21.8755 H   0  0  0  0  0  0
  -25.2759   -9.5669   22.4760 H   0  0  0  0  0  0
  -23.9982   -7.4636   22.7486 H   0  0  0  0  0  0
  -21.0824   -8.8769   19.8979 H   0  0  0  0  0  0
  -22.3683  -10.9668   19.6151 H   0  0  0  0  0  0
  -21.2015   -7.6163   23.9713 H   0  0  0  0  0  0
  -21.1471   -6.0527   25.9069 H   0  0  0  0  0  0
  -22.0614   -2.7623   23.2807 H   0  0  0  0  0  0
  -22.4104  -11.9901   22.4768 H   0  0  0  0  0  0
  -21.1148  -13.1313   22.2569 H   0  0  0  0  0  0
  -24.6861  -15.8544   20.5354 H   0  0  0  0  0  0
  -26.3117  -15.6198   20.1337 H   0  0  0  0  0  0
  -26.7106  -32.5541   23.1171 H   0  0  0  0  0  0
  -25.0058  -33.9788   25.0497 H   0  0  0  0  0  0
  -22.6864  -31.3089   21.4167 H   0  0  0  0  0  0
  -23.3769  -35.9640   23.3273 H   0  0  0  0  0  0
  -24.3603  -36.8954   22.2047 H   0  0  0  0  0  0
  -23.7213  -37.6512   23.6644 H   0  0  0  0  0  0
  -26.0395  -31.5979   20.5907 H   0  0  0  0  0  0
  -26.8161  -30.8888   21.9803 H   0  0  0  0  0  0
  -28.0954  -29.1078   21.1564 H   0  0  0  0  0  0
  -26.0164  -25.9553   19.0547 H   0  0  0  0  0  0
  -23.9609  -27.2766   19.0780 H   0  0  0  0  0  0
  -23.7196  -30.6008   19.4081 H   0  0  0  0  0  0
  -22.7280  -29.2519   19.8703 H   0  0  0  0  0  0
  -25.1271  -36.1999   25.0831 H   0  0  0  0  0  0
  -20.9968  -28.3189   24.1450 H   0  0  0  0  0  0
  -20.5661  -26.2231   23.3599 H   0  0  0  0  0  0
  -21.6635  -26.7409   22.1214 H   0  0  0  0  0  0
  -19.6895  -25.6289   21.1221 H   0  0  0  0  0  0
  -19.6704  -27.3197   20.6755 H   0  0  0  0  0  0
  -17.4202  -26.6684   21.4016 H   0  0  0  0  0  0
  -18.0320  -26.0046   22.9003 H   0  0  0  0  0  0
  -19.7924  -30.7270   24.2242 H   0  0  0  0  0  0
  -17.4996  -31.6243   24.5162 H   0  0  0  0  0  0
  -15.5335  -30.2960   23.7634 H   0  0  0  0  0  0
  -15.8685  -28.0820   22.7002 H   0  0  0  0  0  0
  -24.5936  -30.6988   25.7777 H   0  0  0  0  0  0
  -24.8932  -32.2752   26.5011 H   0  0  0  0  0  0
  -25.8128  -30.8724   27.0181 H   0  0  0  0  0  0
  -26.2740  -29.6830   24.1131 H   0  0  0  0  0  0
  -27.4054  -29.7233   25.4461 H   0  0  0  0  0  0
  -27.8585  -30.4359   23.9141 H   0  0  0  0  0  0
  -27.2807  -33.3536   26.2112 H   0  0  0  0  0  0
  -28.3877  -32.6781   25.0242 H   0  0  0  0  0  0
  -28.0807  -31.8287   26.5298 H   0  0  0  0  0  0
  -28.2578  -38.0144   24.7570 H   0  0  0  0  0  0
  -28.1131  -36.2678   24.6190 H   0  0  0  0  0  0
  -27.2332  -37.1346   25.8859 H   0  0  0  0  0  0
  -20.9291  -29.8736   21.6974 H   0  0  0  0  0  0
  -26.0189  -38.2889   24.1461 H   0  0  0  0  0  0
  -28.3134  -19.5293   21.6584 H   0  0  0  0  0  0
  -28.1603  -17.3097   21.5708 H   0  0  0  0  0  0
  -32.1373  -20.2707   20.3690 H   0  0  0  0  0  0
  -33.7347  -18.9591   19.5508 H   0  0  0  0  0  0
  -33.8697  -17.2897   20.0530 H   0  0  0  0  0  0
  -34.2484  -18.5891   21.1995 H   0  0  0  0  0  0
  -34.0227  -15.6488   23.5548 H   0  0  0  0  0  0
  -34.2056  -16.0713   21.8694 H   0  0  0  0  0  0
  -33.1850  -14.7130   22.3299 H   0  0  0  0  0  0
  -31.5229  -16.1718   23.3712 H   0  0  0  0  0  0
  -32.5870  -17.5437   23.3219 H   0  0  0  0  0  0
  -30.2341  -23.6913   20.1938 H   0  0  0  0  0  0
  -29.4221  -24.1375   21.6703 H   0  0  0  0  0  0
  -27.2833  -24.4336   20.5069 H   0  0  0  0  0  0
  -27.8768  -23.6054   19.0944 H   0  0  0  0  0  0
  -28.0707  -25.7682   18.2889 H   0  0  0  0  0  0
  -29.6479  -25.5658   18.9467 H   0  0  0  0  0  0
  -30.9384  -21.7898   20.6648 H   0  0  0  0  0  0
  1 25  1  0  0  0
  1 30  2  0  0  0
  1 85  1  0  0  0
  2  3  1  0  0  0
  2 25  1  0  0  0
  2 88  1  0  0  0
  2 89  1  0  0  0
  3  4  1  0  0  0
  3 90  1  0  0  0
  3 91  1  0  0  0
  4  5  1  0  0  0
  4 92  1  0  0  0
  4 93  1  0  0  0
  5  6  1  0  0  0
  5 26  1  0  0  0
  5 94  1  0  0  0
  6 25  1  0  0  0
  6 95  1  0  0  0
  6 96  1  0  0  0
  7  8  2  0  0  0
  7 26  1  0  0  0
  7 29  1  0  0  0
  8  9  1  0  0  0
  8 22  1  0  0  0
  9 10  1  0  0  0
  9 27  2  0  0  0
 10 11  2  0  0  0
 10 15  1  0  0  0
 11 12  1  0  0  0
 11 97  1  0  0  0
 12 13  2  0  0  0
 12 98  1  0  0  0
 13 14  1  0  0  0
 13 31  1  0  0  0
 14 15  2  0  0  0
 14 99  1  0  0  0
 15100  1  0  0  0
 16 17  2  0  0  0
 16 21  1  0  0  0
 16 31  1  0  0  0
 17 18  1  0  0  0
 17101  1  0  0  0
 18 19  2  0  0  0
 18102  1  0  0  0
 19 20  1  0  0  0
 19 24  1  0  0  0
 20 21  2  0  0  0
 20103  1  0  0  0
 21 23  1  0  0  0
 22 28  1  0  0  0
 22 32  2  0  0  0
 26 27  1  0  0  0
 28104  1  0  0  0
 28105  1  0  0  0
 29106  1  0  0  0
 29107  1  0  0  0
 33 34  1  0  0  0
 33 66  1  0  0  0
 33 70  2  0  0  0
 34 36  1  0  0  0
 34 59  1  0  0  0
 34108  1  0  0  0
 35 44  2  0  0  0
 35 45  1  0  0  0
 35 68  1  0  0  0
 36 56  1  0  0  0
 36109  1  0  0  0
 37 39  1  0  0  0
 37 47  1  0  0  0
 37 66  1  0  0  0
 37110  1  0  0  0
 38 43  2  0  0  0
 38 46  1  0  0  0
 38 47  1  0  0  0
 39 64  1  0  0  0
 39 67  2  0  0  0
 40 52  1  0  0  0
 40 53  2  0  0  0
 40 58  1  0  0  0
 41111  1  0  0  0
 41112  1  0  0  0
 41113  1  0  0  0
 41 48  1  0  0  0
 42 43  1  0  0  0
 42 66  1  0  0  0
 42114  1  0  0  0
 42115  1  0  0  0
 43 44  1  0  0  0
 44116  1  0  0  0
 45 46  2  0  0  0
 45117  1  0  0  0
 46118  1  0  0  0
 47119  1  0  0  0
 47120  1  0  0  0
 48 56  1  0  0  0
 48 65  1  0  0  0
 48121  1  0  0  0
 49 50  1  0  0  0
 49 53  1  0  0  0
 49 64  1  0  0  0
 49122  1  0  0  0
 50 51  1  0  0  0
 50123  1  0  0  0
 50124  1  0  0  0
 51 52  1  0  0  0
 51125  1  0  0  0
 51126  1  0  0  0
 52127  1  0  0  0
 52128  1  0  0  0
 53 54  1  0  0  0
 54 55  2  0  0  0
 54129  1  0  0  0
 55 57  1  0  0  0
 55130  1  0  0  0
 56 69  2  0  0  0
 57 58  2  0  0  0
 57131  1  0  0  0
 58132  1  0  0  0
 59 60  1  0  0  0
 59 61  1  0  0  0
 59 62  1  0  0  0
 60133  1  0  0  0
 60134  1  0  0  0
 60135  1  0  0  0
 61136  1  0  0  0
 61137  1  0  0  0
 61138  1  0  0  0
 62139  1  0  0  0
 62140  1  0  0  0
 62141  1  0  0  0
 63 65  1  0  0  0
 63142  1  0  0  0
 63143  1  0  0  0
 63144  1  0  0  0
 64145  1  0  0  0
 65146  1  0  0  0
 68 84  1  0  0  0
 71 72  2  0  0  0
 71 76  1  0  0  0
 71147  1  0  0  0
 72 77  1  0  0  0
 72148  1  0  0  0
 73 74  1  0  0  0
 73 76  2  0  0  0
 73149  1  0  0  0
 74 75  2  0  0  0
 74 79  1  0  0  0
 75 77  1  0  0  0
 75 81  1  0  0  0
 76 86  1  0  0  0
 77 85  2  0  0  0
 78 82  1  0  0  0
 78 86  1  0  0  0
 78 87  2  0  0  0
 79150  1  0  0  0
 79151  1  0  0  0
 79152  1  0  0  0
 80 81  1  0  0  0
 80153  1  0  0  0
 80154  1  0  0  0
 80155  1  0  0  0
 81156  1  0  0  0
 81157  1  0  0  0
 82 83  1  0  0  0
 82158  1  0  0  0
 82159  1  0  0  0
 83 84  1  0  0  0
 83160  1  0  0  0
 83161  1  0  0  0
 84162  1  0  0  0
 84163  1  0  0  0
 86164  1  0  0  0
M  ISO  4   1 100  68 101  84 101  85 100
M  END
> <chiral flag>
0

> <version>
0

> <s_m_source_file>
/data/baiqing/PycharmProjects/Reinvent-master-3.2/result/LINK_invent/BTK/process_docking_weight1_custom_product_contain_oxygen_bond_distance_aromatic_linkinvent_7_9_3/rearranged_h_0116.sdf

> <i_m_source_file_index>
39

> <r_mmod_Potential_Energy-OPLS-2005>
-12.2164421081543

> <r_mmod_Stretch_Energy-OPLS-2005>
42.7722625732422

> <r_mmod_Bend_Energy-OPLS-2005>
164.303833007812

> <r_mmod_Torsional_Energy-OPLS-2005>
164.55339050293

> <r_mmod_Improper_Torsional_Energy-OPLS-2005>
6.98419332504272

> <r_mmod_Van_der_Waal_Energy-OPLS-2005>
173.705657958984

> <r_mmod_Electrostatic_Energy-OPLS-2005>
-381.063293457031

> <r_mmod_Solvation_Energy-OPLS-2005>
-197.014266967773

> <b_mmod_Minimization_Converged-OPLS-2005>
0

> <r_mmod_RMS_Derivative-OPLS-2005>
2.37206196784973

$$$$
39
                    3D
 Structure written by MMmdl.
156164  0  0  1  0            999 V2000
  -30.6091  -14.6549   20.4855 C   0  0  0  0  0  0
  -30.4395  -12.3977   19.4525 C   0  0  0  0  0  0
  -29.5077  -12.5002   18.2236 C   0  0  0  0  0  0
  -28.0312  -12.3380   18.6371 C   0  0  0  0  0  0
  -27.6524  -13.2139   19.8605 C   0  0  2  0  0  0
  -28.6969  -13.0754   20.9909 C   0  0  0  0  0  0
  -25.2555  -13.8137   20.5648 C   0  0  0  0  0  0
  -24.1832  -13.0417   20.9203 C   0  0  0  0  0  0
  -24.6399  -11.6891   20.8762 C   0  0  0  0  0  0
  -23.9063  -10.4278   21.0426 C   0  0  0  0  0  0
  -24.3618   -9.4191   21.9199 C   0  0  0  0  0  0
  -23.6294   -8.2224   22.0761 C   0  0  0  0  0  0
  -22.4278   -8.0269   21.3544 C   0  0  0  0  0  0
  -21.9912   -9.0246   20.4649 C   0  0  0  0  0  0
  -22.7240  -10.2123   20.3068 C   0  0  0  0  0  0
  -21.6848   -6.0731   22.5285 C   0  0  0  0  0  0
  -21.4000   -6.5637   23.8216 C   0  0  0  0  0  0
  -21.3665   -5.6795   24.9184 C   0  0  0  0  0  0
  -21.6054   -4.3057   24.7237 C   0  0  0  0  0  0
  -21.8817   -3.8144   23.4358 C   0  0  0  0  0  0
  -21.9189   -4.6958   22.3412 C   0  0  0  0  0  0
  -22.7859  -13.5222   21.1881 C   0  0  0  0  0  0
  -22.1659   -4.2142   21.0991 F   0  0  0  0  0  0
  -21.5638   -3.4540   25.7749 F   0  0  0  0  0  0
  -30.0124  -13.4210   20.4278 N   0  0  0  0  0  0
  -26.2985  -12.9322   20.3304 N   0  0  0  0  0  0
  -25.9325  -11.6482   20.5762 N   0  0  0  0  0  0
  -22.0496  -12.8209   22.0431 N   0  0  0  0  0  0
  -25.4251  -15.1833   20.3970 N   0  0  0  0  0  0
  -31.7691  -14.8220   20.0955 O   0  0  0  0  0  0
  -21.6640   -6.8869   21.4243 O   0  0  0  0  0  0
  -22.3549  -14.5542   20.6751 O   0  0  0  0  0  0
  -24.6279  -31.8582   23.2021 C   0  0  0  0  0  0
  -25.9119  -32.4775   23.8357 C   0  0  1  0  0  0
  -27.2222  -27.3111   20.1093 C   0  0  0  0  0  0
  -25.5937  -33.8574   24.2285 N   0  0  0  0  0  0
  -23.4213  -30.4835   21.5454 C   0  0  2  0  0  0
  -24.8665  -28.9391   20.1103 C   0  0  0  0  0  0
  -22.7486  -29.4622   22.4931 C   0  0  0  0  0  0
  -18.0298  -28.1382   22.8498 C   0  0  0  0  0  0
  -24.1489  -36.7280   23.2637 C   0  0  0  0  0  0
  -25.9650  -30.7872   21.3735 C   0  0  0  0  0  0
  -26.0372  -29.4152   20.7133 C   0  0  0  0  0  0
  -27.2196  -28.6141   20.7006 C   0  0  0  0  0  0
  -26.0230  -26.8903   19.4876 C   0  0  0  0  0  0
  -24.8610  -27.6829   19.4888 C   0  0  0  0  0  0
  -23.6353  -29.8204   20.1608 C   0  0  0  0  0  0
  -25.4117  -36.3073   24.0332 C   0  0  1  0  0  0
  -20.5900  -28.3669   23.1285 C   0  0  2  0  0  0
  -20.6792  -26.9393   22.5402 C   0  0  0  0  0  0
  -19.5768  -26.6379   21.5206 C   0  0  0  0  0  0
  -18.1943  -26.7934   22.1617 C   0  0  0  0  0  0
  -19.1553  -28.8845   23.2885 C   0  0  0  0  0  0
  -18.9473  -30.1454   23.8891 C   0  0  0  0  0  0
  -17.6470  -30.6588   24.0566 C   0  0  0  0  0  0
  -25.9052  -34.9444   23.5103 C   0  0  0  0  0  0
  -16.5358  -29.9084   23.6344 C   0  0  0  0  0  0
  -16.7281  -28.6503   23.0361 C   0  0  0  0  0  0
  -26.4505  -31.6583   25.0728 C   0  0  0  0  0  0
  -25.3743  -31.3747   26.1458 C   0  0  0  0  0  0
  -27.0343  -30.3012   24.6166 C   0  0  0  0  0  0
  -27.6068  -32.4313   25.7495 C   0  0  0  0  0  0
  -27.5579  -37.1797   24.8471 C   0  0  0  0  0  0
  -21.4202  -29.3030   22.3682 N   0  0  0  0  0  0
  -26.4293  -37.3767   23.9411 N   0  0  0  0  0  0
  -24.6906  -31.0598   22.0968 N   0  0  0  0  0  0
  -23.4220  -28.8162   23.2998 O   0  0  0  0  0  0
  -28.3394  -26.4570   20.1494 O   0  0  0  0  0  0
  -26.5602  -34.8916   22.4656 O   0  0  0  0  0  0
  -23.5448  -32.1369   23.7360 O   0  0  0  0  0  0
  -28.9090  -19.4259   21.1726 C   0  0  0  0  0  0
  -30.7473  -17.8193   19.8103 C   0  0  0  0  0  0
  -28.8928  -18.0019   21.3435 C   0  0  0  0  0  0
  -29.8271  -20.0915   20.3189 C   0  0  0  0  0  0
  -29.8367  -17.1536   20.6738 C   0  0  0  0  0  0
  -30.7422  -19.2366   19.6403 C   0  0  0  0  0  0
  -29.0415  -22.4349   20.3769 C   0  0  0  0  0  0
  -26.4408  -17.9907   22.1436 C   0  0  0  0  0  0
  -27.8560  -17.4095   22.3026 C   0  0  0  0  0  0
  -29.3164  -23.9930   20.3314 C   0  0  0  0  0  0
  -28.1126  -24.9915   20.0368 C   0  0  0  0  0  0
  -29.9496  -21.5239   20.1763 N   0  0  0  0  0  0
  -29.7941  -15.6931   20.8616 N   0  0  0  0  0  0
  -31.6577  -19.7868   18.8051 F   0  0  0  0  0  0
  -31.4797  -12.5276   19.1488 H   0  0  0  0  0  0
  -30.3805  -11.4030   19.8981 H   0  0  0  0  0  0
  -29.7718  -11.7391   17.4878 H   0  0  0  0  0  0
  -29.6492  -13.4634   17.7314 H   0  0  0  0  0  0
  -27.8738  -11.2854   18.8767 H   0  0  0  0  0  0
  -27.3743  -12.5575   17.7947 H   0  0  0  0  0  0
  -27.6677  -14.2474   19.5137 H   0  0  0  0  0  0
  -28.7114  -12.0549   21.3763 H   0  0  0  0  0  0
  -28.4379  -13.7077   21.8412 H   0  0  0  0  0  0
  -25.2762   -9.5670   22.4767 H   0  0  0  0  0  0
  -24.0009   -7.4615   22.7473 H   0  0  0  0  0  0
  -21.0848   -8.8770   19.8946 H   0  0  0  0  0  0
  -22.3715  -10.9669   19.6179 H   0  0  0  0  0  0
  -21.1973   -7.6142   23.9718 H   0  0  0  0  0  0
  -21.1499   -6.0526   25.9090 H   0  0  0  0  0  0
  -22.0590   -2.7605   23.2867 H   0  0  0  0  0  0
  -22.4113  -11.9856   22.4798 H   0  0  0  0  0  0
  -21.1118  -13.1232   22.2647 H   0  0  0  0  0  0
  -24.6528  -15.8324   20.4931 H   0  0  0  0  0  0
  -26.2644  -15.6162   20.0353 H   0  0  0  0  0  0
  -26.7179  -32.5434   23.1100 H   0  0  0  0  0  0
  -25.0149  -33.9724   25.0478 H   0  0  0  0  0  0
  -22.7170  -31.3062   21.4050 H   0  0  0  0  0  0
  -23.3757  -35.9604   23.3302 H   0  0  0  0  0  0
  -24.3592  -36.8889   22.2050 H   0  0  0  0  0  0
  -23.7243  -37.6486   23.6653 H   0  0  0  0  0  0
  -26.1030  -31.5533   20.6094 H   0  0  0  0  0  0
  -26.8441  -30.8309   22.0043 H   0  0  0  0  0  0
  -28.1194  -28.9788   21.1752 H   0  0  0  0  0  0
  -25.9499  -25.9322   18.9969 H   0  0  0  0  0  0
  -23.9624  -27.3151   19.0131 H   0  0  0  0  0  0
  -23.7532  -30.5974   19.4050 H   0  0  0  0  0  0
  -22.7559  -29.2486   19.8588 H   0  0  0  0  0  0
  -25.1303  -36.1915   25.0826 H   0  0  0  0  0  0
  -20.9996  -28.3226   24.1400 H   0  0  0  0  0  0
  -20.5700  -26.2268   23.3595 H   0  0  0  0  0  0
  -21.6657  -26.7437   22.1176 H   0  0  0  0  0  0
  -19.6922  -25.6286   21.1234 H   0  0  0  0  0  0
  -19.6711  -27.3205   20.6742 H   0  0  0  0  0  0
  -17.4214  -26.6684   21.4011 H   0  0  0  0  0  0
  -18.0341  -26.0084   22.9018 H   0  0  0  0  0  0
  -19.7940  -30.7286   24.2245 H   0  0  0  0  0  0
  -17.5020  -31.6274   24.5157 H   0  0  0  0  0  0
  -15.5360  -30.2981   23.7676 H   0  0  0  0  0  0
  -15.8683  -28.0823   22.7068 H   0  0  0  0  0  0
  -24.5904  -30.7107   25.7804 H   0  0  0  0  0  0
  -24.8960  -32.2925   26.4877 H   0  0  0  0  0  0
  -25.8068  -30.8934   27.0234 H   0  0  0  0  0  0
  -26.2907  -29.6768   24.1201 H   0  0  0  0  0  0
  -27.4073  -29.7264   25.4652 H   0  0  0  0  0  0
  -27.8764  -30.4330   23.9374 H   0  0  0  0  0  0
  -27.2694  -33.3631   26.2042 H   0  0  0  0  0  0
  -28.3891  -32.6826   25.0326 H   0  0  0  0  0  0
  -28.0704  -31.8444   26.5432 H   0  0  0  0  0  0
  -28.2595  -38.0092   24.7506 H   0  0  0  0  0  0
  -28.1072  -36.2622   24.6309 H   0  0  0  0  0  0
  -27.2298  -37.1454   25.8874 H   0  0  0  0  0  0
  -20.9379  -29.8748   21.6891 H   0  0  0  0  0  0
  -26.0171  -38.2839   24.1415 H   0  0  0  0  0  0
  -28.2154  -20.0261   21.7400 H   0  0  0  0  0  0
  -31.4742  -17.2488   19.2516 H   0  0  0  0  0  0
  -28.0087  -22.1715   20.6220 H   0  0  0  0  0  0
  -25.7352  -17.4549   22.7792 H   0  0  0  0  0  0
  -26.0910  -17.9017   21.1158 H   0  0  0  0  0  0
  -26.3852  -19.0407   22.4287 H   0  0  0  0  0  0
  -28.2041  -17.5723   23.3232 H   0  0  0  0  0  0
  -27.7790  -16.3302   22.1829 H   0  0  0  0  0  0
  -30.0980  -24.1746   19.5933 H   0  0  0  0  0  0
  -29.7515  -24.2646   21.2929 H   0  0  0  0  0  0
  -27.2903  -24.7267   20.7044 H   0  0  0  0  0  0
  -27.7718  -24.7750   19.0235 H   0  0  0  0  0  0
  -28.9315  -15.3605   21.2631 H   0  0  0  0  0  0
  1 25  1  0  0  0
  1 30  2  0  0  0
  1 83  1  0  0  0
  2  3  1  0  0  0
  2 25  1  0  0  0
  2 85  1  0  0  0
  2 86  1  0  0  0
  3  4  1  0  0  0
  3 87  1  0  0  0
  3 88  1  0  0  0
  4  5  1  0  0  0
  4 89  1  0  0  0
  4 90  1  0  0  0
  5  6  1  0  0  0
  5 26  1  0  0  0
  5 91  1  0  0  0
  6 25  1  0  0  0
  6 92  1  0  0  0
  6 93  1  0  0  0
  7  8  2  0  0  0
  7 26  1  0  0  0
  7 29  1  0  0  0
  8  9  1  0  0  0
  8 22  1  0  0  0
  9 10  1  0  0  0
  9 27  2  0  0  0
 10 11  2  0  0  0
 10 15  1  0  0  0
 11 12  1  0  0  0
 11 94  1  0  0  0
 12 13  2  0  0  0
 12 95  1  0  0  0
 13 14  1  0  0  0
 13 31  1  0  0  0
 14 15  2  0  0  0
 14 96  1  0  0  0
 15 97  1  0  0  0
 16 17  2  0  0  0
 16 21  1  0  0  0
 16 31  1  0  0  0
 17 18  1  0  0  0
 17 98  1  0  0  0
 18 19  2  0  0  0
 18 99  1  0  0  0
 19 20  1  0  0  0
 19 24  1  0  0  0
 20 21  2  0  0  0
 20100  1  0  0  0
 21 23  1  0  0  0
 22 28  1  0  0  0
 22 32  2  0  0  0
 26 27  1  0  0  0
 28101  1  0  0  0
 28102  1  0  0  0
 29103  1  0  0  0
 29104  1  0  0  0
 33 34  1  0  0  0
 33 66  1  0  0  0
 33 70  2  0  0  0
 34 36  1  0  0  0
 34 59  1  0  0  0
 34105  1  0  0  0
 35 44  2  0  0  0
 35 45  1  0  0  0
 35 68  1  0  0  0
 36 56  1  0  0  0
 36106  1  0  0  0
 37 39  1  0  0  0
 37 47  1  0  0  0
 37 66  1  0  0  0
 37107  1  0  0  0
 38 43  2  0  0  0
 38 46  1  0  0  0
 38 47  1  0  0  0
 39 64  1  0  0  0
 39 67  2  0  0  0
 40 52  1  0  0  0
 40 53  2  0  0  0
 40 58  1  0  0  0
 41108  1  0  0  0
 41109  1  0  0  0
 41110  1  0  0  0
 41 48  1  0  0  0
 42 43  1  0  0  0
 42 66  1  0  0  0
 42111  1  0  0  0
 42112  1  0  0  0
 43 44  1  0  0  0
 44113  1  0  0  0
 45 46  2  0  0  0
 45114  1  0  0  0
 46115  1  0  0  0
 47116  1  0  0  0
 47117  1  0  0  0
 48 56  1  0  0  0
 48 65  1  0  0  0
 48118  1  0  0  0
 49 50  1  0  0  0
 49 53  1  0  0  0
 49 64  1  0  0  0
 49119  1  0  0  0
 50 51  1  0  0  0
 50120  1  0  0  0
 50121  1  0  0  0
 51 52  1  0  0  0
 51122  1  0  0  0
 51123  1  0  0  0
 52124  1  0  0  0
 52125  1  0  0  0
 53 54  1  0  0  0
 54 55  2  0  0  0
 54126  1  0  0  0
 55 57  1  0  0  0
 55127  1  0  0  0
 56 69  2  0  0  0
 57 58  2  0  0  0
 57128  1  0  0  0
 58129  1  0  0  0
 59 60  1  0  0  0
 59 61  1  0  0  0
 59 62  1  0  0  0
 60130  1  0  0  0
 60131  1  0  0  0
 60132  1  0  0  0
 61133  1  0  0  0
 61134  1  0  0  0
 61135  1  0  0  0
 62136  1  0  0  0
 62137  1  0  0  0
 62138  1  0  0  0
 63 65  1  0  0  0
 63139  1  0  0  0
 63140  1  0  0  0
 63141  1  0  0  0
 64142  1  0  0  0
 65143  1  0  0  0
 68 81  1  0  0  0
 71 73  2  0  0  0
 71 74  1  0  0  0
 71144  1  0  0  0
 72 75  2  0  0  0
 72 76  1  0  0  0
 72145  1  0  0  0
 73 75  1  0  0  0
 73 79  1  0  0  0
 74 76  2  0  0  0
 74 82  1  0  0  0
 75 83  1  0  0  0
 76 84  1  0  0  0
 77 80  1  0  0  0
 77 82  2  0  0  0
 77146  1  0  0  0
 78 79  1  0  0  0
 78147  1  0  0  0
 78148  1  0  0  0
 78149  1  0  0  0
 79150  1  0  0  0
 79151  1  0  0  0
 80 81  1  0  0  0
 80152  1  0  0  0
 80153  1  0  0  0
 81154  1  0  0  0
 81155  1  0  0  0
 83156  1  0  0  0
M  ISO  4   1 100  68 101  81 101  83 100
M  END
> <chiral flag>
0

> <version>
0

> <s_m_source_file>
/data/baiqing/PycharmProjects/Reinvent-master-3.2/result/LINK_invent/BTK/process_docking_weight1_custom_product_contain_oxygen_bond_distance_aromatic_linkinvent_7_9_3/rearranged_h_0116.sdf

> <i_m_source_file_index>
40

> <r_mmod_Potential_Energy-OPLS-2005>
71.1858673095703

> <r_mmod_Stretch_Energy-OPLS-2005>
86.3687591552734

> <r_mmod_Bend_Energy-OPLS-2005>
147.445785522461

> <r_mmod_Torsional_Energy-OPLS-2005>
214.912170410156

> <r_mmod_Improper_Torsional_Energy-OPLS-2005>
4.0088996887207

> <r_mmod_Van_der_Waal_Energy-OPLS-2005>
145.931365966797

> <r_mmod_Electrostatic_Energy-OPLS-2005>
-367.320098876953

> <r_mmod_Solvation_Energy-OPLS-2005>
-213.010848999023

> <b_mmod_Minimization_Converged-OPLS-2005>
0

> <r_mmod_RMS_Derivative-OPLS-2005>
1.82558012008667

$$$$
40
                    3D
 Structure written by MMmdl.
149157  0  0  1  0            999 V2000
  -30.3712  -15.4256   20.3363 C   0  0  0  0  0  0
  -30.4322  -12.9148   19.5586 C   0  0  0  0  0  0
  -29.5467  -12.6169   18.3181 C   0  0  0  0  0  0
  -28.1038  -12.3047   18.7438 C   0  0  0  0  0  0
  -27.6067  -13.2919   19.8267 C   0  0  2  0  0  0
  -28.6274  -13.5295   20.9636 C   0  0  0  0  0  0
  -25.2357  -13.8275   20.5772 C   0  0  0  0  0  0
  -24.1724  -13.0443   20.9266 C   0  0  0  0  0  0
  -24.6399  -11.6945   20.8761 C   0  0  0  0  0  0
  -23.9100  -10.4297   21.0401 C   0  0  0  0  0  0
  -24.3641   -9.4210   21.9181 C   0  0  0  0  0  0
  -23.6305   -8.2251   22.0756 C   0  0  0  0  0  0
  -22.4285   -8.0288   21.3549 C   0  0  0  0  0  0
  -21.9926   -9.0263   20.4651 C   0  0  0  0  0  0
  -22.7266  -10.2136   20.3056 C   0  0  0  0  0  0
  -21.6857   -6.0740   22.5279 C   0  0  0  0  0  0
  -21.4019   -6.5644   23.8213 C   0  0  0  0  0  0
  -21.3660   -5.6796   24.9175 C   0  0  0  0  0  0
  -21.6043   -4.3058   24.7225 C   0  0  0  0  0  0
  -21.8818   -3.8150   23.4346 C   0  0  0  0  0  0
  -21.9194   -4.6967   22.3402 C   0  0  0  0  0  0
  -22.7740  -13.5184   21.1910 C   0  0  0  0  0  0
  -22.1662   -4.2153   21.0979 F   0  0  0  0  0  0
  -21.5626   -3.4540   25.7737 F   0  0  0  0  0  0
  -29.8469  -14.0812   20.3426 N   0  0  0  0  0  0
  -26.2794  -12.9576   20.3237 N   0  0  0  0  0  0
  -25.9341  -11.6665   20.5718 N   0  0  0  0  0  0
  -22.0402  -12.8163   22.0463 N   0  0  0  0  0  0
  -25.3984  -15.2013   20.4231 N   0  0  0  0  0  0
  -31.5817  -15.4091   20.0555 O   0  0  0  0  0  0
  -21.6647   -6.8885   21.4243 O   0  0  0  0  0  0
  -22.3418  -14.5485   20.6751 O   0  0  0  0  0  0
  -24.6717  -31.8115   23.1605 C   0  0  0  0  0  0
  -25.9353  -32.4523   23.8110 C   0  0  1  0  0  0
  -27.2270  -26.8244   20.1936 C   0  0  0  0  0  0
  -25.5979  -33.8344   24.2005 N   0  0  0  0  0  0
  -23.4928  -30.4172   21.5103 C   0  0  2  0  0  0
  -24.9502  -28.7832   20.1064 C   0  0  0  0  0  0
  -22.7714  -29.4372   22.4735 C   0  0  0  0  0  0
  -18.0332  -28.1412   22.8459 C   0  0  0  0  0  0
  -24.1500  -36.7189   23.2649 C   0  0  0  0  0  0
  -26.0658  -30.5826   21.4079 C   0  0  0  0  0  0
  -26.1319  -29.1614   20.7537 C   0  0  0  0  0  0
  -27.2549  -28.2022   20.7761 C   0  0  0  0  0  0
  -26.0198  -26.6268   19.4822 C   0  0  0  0  0  0
  -24.9256  -27.5399   19.4494 C   0  0  0  0  0  0
  -23.7392  -29.7227   20.1396 C   0  0  0  0  0  0
  -25.4142  -36.2931   24.0289 C   0  0  1  0  0  0
  -20.5961  -28.3765   23.1164 C   0  0  2  0  0  0
  -20.6803  -26.9435   22.5403 C   0  0  0  0  0  0
  -19.5779  -26.6370   21.5214 C   0  0  0  0  0  0
  -18.1962  -26.7942   22.1619 C   0  0  0  0  0  0
  -19.1596  -28.8911   23.2797 C   0  0  0  0  0  0
  -18.9501  -30.1496   23.8839 C   0  0  0  0  0  0
  -17.6492  -30.6596   24.0553 C   0  0  0  0  0  0
  -25.9111  -34.9315   23.4977 C   0  0  0  0  0  0
  -16.5383  -29.9082   23.6342 C   0  0  0  0  0  0
  -16.7313  -28.6504   23.0359 C   0  0  0  0  0  0
  -26.4570  -31.6516   25.0688 C   0  0  0  0  0  0
  -25.3669  -31.3801   26.1326 C   0  0  0  0  0  0
  -27.0485  -30.2868   24.6508 C   0  0  0  0  0  0
  -27.6037  -32.4355   25.7499 C   0  0  0  0  0  0
  -27.5571  -37.1749   24.8461 C   0  0  0  0  0  0
  -21.4373  -29.3035   22.3497 N   0  0  0  0  0  0
  -26.4278  -37.3678   23.9405 N   0  0  0  0  0  0
  -24.7654  -30.9675   22.0794 N   0  0  0  0  0  0
  -23.4214  -28.7960   23.3028 O   0  0  0  0  0  0
  -28.2039  -25.6692   20.3512 O   0  0  0  0  0  0
  -26.5740  -34.8872   22.4587 O   0  0  0  0  0  0
  -23.5762  -32.1134   23.6633 O   0  0  0  0  0  0
  -30.2529  -19.8166   18.1833 C   0  0  0  0  0  0
  -30.2437  -18.5556   18.8324 C   0  0  0  0  0  0
  -29.0840  -19.7201   20.5951 C   0  0  0  0  0  0
  -29.7019  -21.0435   18.6720 C   0  0  0  0  0  0
  -29.0934  -21.1720   19.9625 C   0  0  0  0  0  0
  -29.6417  -18.3307   20.0823 C   0  0  0  0  0  0
  -30.9432  -22.4665   17.0149 C   0  0  0  0  0  0
  -29.8802  -22.2222   17.8011 C   0  0  0  0  0  0
  -28.7116  -22.8326   20.4416 C   0  0  0  0  0  0
  -28.2075  -24.1582   19.9171 C   0  0  0  0  0  0
  -29.6164  -16.7299   20.5421 N   0  0  0  0  0  0
  -31.4483  -13.1280   19.2249 H   0  0  0  0  0  0
  -30.5220  -12.0285   20.1890 H   0  0  0  0  0  0
  -29.9587  -11.7861   17.7432 H   0  0  0  0  0  0
  -29.5515  -13.4832   17.6552 H   0  0  0  0  0  0
  -28.0891  -11.2894   19.1423 H   0  0  0  0  0  0
  -27.4369  -12.3078   17.8806 H   0  0  0  0  0  0
  -27.5031  -14.2423   19.3015 H   0  0  0  0  0  0
  -28.8247  -12.6152   21.5251 H   0  0  0  0  0  0
  -28.2318  -14.2512   21.6796 H   0  0  0  0  0  0
  -25.2780   -9.5686   22.4765 H   0  0  0  0  0  0
  -24.0009   -7.4643   22.7479 H   0  0  0  0  0  0
  -21.0855   -8.8789   19.8959 H   0  0  0  0  0  0
  -22.3720  -10.9680   19.6173 H   0  0  0  0  0  0
  -21.2015   -7.6153   23.9717 H   0  0  0  0  0  0
  -21.1481   -6.0527   25.9077 H   0  0  0  0  0  0
  -22.0594   -2.7612   23.2845 H   0  0  0  0  0  0
  -22.4033  -11.9828   22.4845 H   0  0  0  0  0  0
  -21.1018  -13.1179   22.2682 H   0  0  0  0  0  0
  -24.6279  -15.8505   20.5390 H   0  0  0  0  0  0
  -26.2390  -15.6442   20.0750 H   0  0  0  0  0  0
  -26.7428  -32.5027   23.0822 H   0  0  0  0  0  0
  -25.0054  -33.9404   25.0108 H   0  0  0  0  0  0
  -22.8116  -31.2515   21.3300 H   0  0  0  0  0  0
  -23.3773  -35.9506   23.3255 H   0  0  0  0  0  0
  -24.3578  -36.8900   22.2075 H   0  0  0  0  0  0
  -23.7247  -37.6353   23.6752 H   0  0  0  0  0  0
  -26.2578  -31.3162   20.6238 H   0  0  0  0  0  0
  -26.9212  -30.6440   22.0684 H   0  0  0  0  0  0
  -28.1399  -28.4848   21.3282 H   0  0  0  0  0  0
  -25.8780  -25.6751   18.9907 H   0  0  0  0  0  0
  -24.0301  -27.2442   18.9202 H   0  0  0  0  0  0
  -23.9020  -30.4875   19.3793 H   0  0  0  0  0  0
  -22.8470  -29.1815   19.8201 H   0  0  0  0  0  0
  -25.1347  -36.1709   25.0780 H   0  0  0  0  0  0
  -21.0050  -28.3384   24.1288 H   0  0  0  0  0  0
  -20.5672  -26.2389   23.3656 H   0  0  0  0  0  0
  -21.6667  -26.7393   22.1218 H   0  0  0  0  0  0
  -19.6938  -25.6264   21.1286 H   0  0  0  0  0  0
  -19.6719  -27.3146   20.6717 H   0  0  0  0  0  0
  -17.4232  -26.6684   21.4022 H   0  0  0  0  0  0
  -18.0352  -26.0098   22.9028 H   0  0  0  0  0  0
  -19.7976  -30.7329   24.2183 H   0  0  0  0  0  0
  -17.5041  -31.6269   24.5168 H   0  0  0  0  0  0
  -15.5380  -30.2963   23.7695 H   0  0  0  0  0  0
  -15.8716  -28.0802   22.7101 H   0  0  0  0  0  0
  -24.5867  -30.7135   25.7634 H   0  0  0  0  0  0
  -24.8840  -32.3013   26.4597 H   0  0  0  0  0  0
  -25.7873  -30.9068   27.0207 H   0  0  0  0  0  0
  -26.3174  -29.6507   24.1507 H   0  0  0  0  0  0
  -27.3962  -29.7282   25.5208 H   0  0  0  0  0  0
  -27.9136  -30.4018   23.9976 H   0  0  0  0  0  0
  -27.2585  -33.3708   26.1917 H   0  0  0  0  0  0
  -28.3929  -32.6833   25.0389 H   0  0  0  0  0  0
  -28.0617  -31.8594   26.5549 H   0  0  0  0  0  0
  -28.2552  -38.0078   24.7517 H   0  0  0  0  0  0
  -28.1103  -36.2603   24.6275 H   0  0  0  0  0  0
  -27.2290  -37.1372   25.8863 H   0  0  0  0  0  0
  -20.9649  -29.8712   21.6599 H   0  0  0  0  0  0
  -26.0114  -38.2733   24.1409 H   0  0  0  0  0  0
  -30.7165  -19.8230   17.2073 H   0  0  0  0  0  0
  -30.6877  -17.7199   18.3095 H   0  0  0  0  0  0
  -28.6212  -19.6741   21.5704 H   0  0  0  0  0  0
  -30.9744  -23.3465   16.3880 H   0  0  0  0  0  0
  -31.7985  -21.8066   16.9811 H   0  0  0  0  0  0
  -29.0675  -22.9261   17.7594 H   0  0  0  0  0  0
  -29.0780  -22.9702   21.4487 H   0  0  0  0  0  0
  -27.7866  -24.1376   18.9230 H   0  0  0  0  0  0
  -28.7552  -16.5156   21.0250 H   0  0  0  0  0  0
  1 25  1  0  0  0
  1 30  2  0  0  0
  1 81  1  0  0  0
  2  3  1  0  0  0
  2 25  1  0  0  0
  2 82  1  0  0  0
  2 83  1  0  0  0
  3  4  1  0  0  0
  3 84  1  0  0  0
  3 85  1  0  0  0
  4  5  1  0  0  0
  4 86  1  0  0  0
  4 87  1  0  0  0
  5  6  1  0  0  0
  5 26  1  0  0  0
  5 88  1  0  0  0
  6 25  1  0  0  0
  6 89  1  0  0  0
  6 90  1  0  0  0
  7  8  2  0  0  0
  7 26  1  0  0  0
  7 29  1  0  0  0
  8  9  1  0  0  0
  8 22  1  0  0  0
  9 10  1  0  0  0
  9 27  2  0  0  0
 10 11  2  0  0  0
 10 15  1  0  0  0
 11 12  1  0  0  0
 11 91  1  0  0  0
 12 13  2  0  0  0
 12 92  1  0  0  0
 13 14  1  0  0  0
 13 31  1  0  0  0
 14 15  2  0  0  0
 14 93  1  0  0  0
 15 94  1  0  0  0
 16 17  2  0  0  0
 16 21  1  0  0  0
 16 31  1  0  0  0
 17 18  1  0  0  0
 17 95  1  0  0  0
 18 19  2  0  0  0
 18 96  1  0  0  0
 19 20  1  0  0  0
 19 24  1  0  0  0
 20 21  2  0  0  0
 20 97  1  0  0  0
 21 23  1  0  0  0
 22 28  1  0  0  0
 22 32  2  0  0  0
 26 27  1  0  0  0
 28 98  1  0  0  0
 28 99  1  0  0  0
 29100  1  0  0  0
 29101  1  0  0  0
 33 34  1  0  0  0
 33 66  1  0  0  0
 33 70  2  0  0  0
 34 36  1  0  0  0
 34 59  1  0  0  0
 34102  1  0  0  0
 35 44  2  0  0  0
 35 45  1  0  0  0
 35 68  1  0  0  0
 36 56  1  0  0  0
 36103  1  0  0  0
 37 39  1  0  0  0
 37 47  1  0  0  0
 37 66  1  0  0  0
 37104  1  0  0  0
 38 43  2  0  0  0
 38 46  1  0  0  0
 38 47  1  0  0  0
 39 64  1  0  0  0
 39 67  2  0  0  0
 40 52  1  0  0  0
 40 53  2  0  0  0
 40 58  1  0  0  0
 41105  1  0  0  0
 41106  1  0  0  0
 41107  1  0  0  0
 41 48  1  0  0  0
 42 43  1  0  0  0
 42 66  1  0  0  0
 42108  1  0  0  0
 42109  1  0  0  0
 43 44  1  0  0  0
 44110  1  0  0  0
 45 46  2  0  0  0
 45111  1  0  0  0
 46112  1  0  0  0
 47113  1  0  0  0
 47114  1  0  0  0
 48 56  1  0  0  0
 48 65  1  0  0  0
 48115  1  0  0  0
 49 50  1  0  0  0
 49 53  1  0  0  0
 49 64  1  0  0  0
 49116  1  0  0  0
 50 51  1  0  0  0
 50117  1  0  0  0
 50118  1  0  0  0
 51 52  1  0  0  0
 51119  1  0  0  0
 51120  1  0  0  0
 52121  1  0  0  0
 52122  1  0  0  0
 53 54  1  0  0  0
 54 55  2  0  0  0
 54123  1  0  0  0
 55 57  1  0  0  0
 55124  1  0  0  0
 56 69  2  0  0  0
 57 58  2  0  0  0
 57125  1  0  0  0
 58126  1  0  0  0
 59 60  1  0  0  0
 59 61  1  0  0  0
 59 62  1  0  0  0
 60127  1  0  0  0
 60128  1  0  0  0
 60129  1  0  0  0
 61130  1  0  0  0
 61131  1  0  0  0
 61132  1  0  0  0
 62133  1  0  0  0
 62134  1  0  0  0
 62135  1  0  0  0
 63 65  1  0  0  0
 63136  1  0  0  0
 63137  1  0  0  0
 63138  1  0  0  0
 64139  1  0  0  0
 65140  1  0  0  0
 68 80  1  0  0  0
 71 72  2  0  0  0
 71 74  1  0  0  0
 71141  1  0  0  0
 72 76  1  0  0  0
 72142  1  0  0  0
 73 75  1  0  0  0
 73 76  2  0  0  0
 73143  1  0  0  0
 74 75  2  0  0  0
 74 78  1  0  0  0
 75 79  1  0  0  0
 76 81  1  0  0  0
 77 78  2  0  0  0
 77144  1  0  0  0
 77145  1  0  0  0
 78146  1  0  0  0
 79 80  2  0  0  0
 79147  1  0  0  0
 80148  1  0  0  0
 81149  1  0  0  0
M  ISO  4   1 100  68 101  80 101  81 100
M  END
> <chiral flag>
0

> <version>
0

> <s_m_source_file>
/data/baiqing/PycharmProjects/Reinvent-master-3.2/result/LINK_invent/BTK/process_docking_weight1_custom_product_contain_oxygen_bond_distance_aromatic_linkinvent_7_9_3/rearranged_h_0116.sdf

> <i_m_source_file_index>
41

> <r_mmod_Potential_Energy-OPLS-2005>
1675.17956542969

> <r_mmod_Stretch_Energy-OPLS-2005>
738.914123535156

> <r_mmod_Bend_Energy-OPLS-2005>
453.134124755859

> <r_mmod_Torsional_Energy-OPLS-2005>
263.282836914062

> <r_mmod_Improper_Torsional_Energy-OPLS-2005>
6.03390884399414

> <r_mmod_Van_der_Waal_Energy-OPLS-2005>
135.507141113281

> <r_mmod_Electrostatic_Energy-OPLS-2005>
-353.414398193359

> <r_mmod_Solvation_Energy-OPLS-2005>
-208.309555053711

> <b_mmod_Minimization_Converged-OPLS-2005>
0

> <r_mmod_RMS_Derivative-OPLS-2005>
0.502223193645477

$$$$
41
                    3D
 Structure written by MMmdl.
161169  0  0  1  0            999 V2000
  -30.6926  -14.5583   20.4623 C   0  0  0  0  0  0
  -30.4141  -12.3323   19.4412 C   0  0  0  0  0  0
  -29.4825  -12.4646   18.2159 C   0  0  0  0  0  0
  -28.0100  -12.3278   18.6395 C   0  0  0  0  0  0
  -27.6502  -13.2141   19.8604 C   0  0  2  0  0  0
  -28.7002  -13.0810   20.9865 C   0  0  0  0  0  0
  -25.2560  -13.8176   20.5742 C   0  0  0  0  0  0
  -24.1819  -13.0461   20.9221 C   0  0  0  0  0  0
  -24.6371  -11.6914   20.8773 C   0  0  0  0  0  0
  -23.9042  -10.4295   21.0399 C   0  0  0  0  0  0
  -24.3609   -9.4214   21.9179 C   0  0  0  0  0  0
  -23.6301   -8.2246   22.0747 C   0  0  0  0  0  0
  -22.4280   -8.0281   21.3537 C   0  0  0  0  0  0
  -21.9901   -9.0246   20.4640 C   0  0  0  0  0  0
  -22.7216  -10.2136   20.3043 C   0  0  0  0  0  0
  -21.6849   -6.0740   22.5271 C   0  0  0  0  0  0
  -21.4010   -6.5634   23.8214 C   0  0  0  0  0  0
  -21.3661   -5.6788   24.9174 C   0  0  0  0  0  0
  -21.6060   -4.3061   24.7224 C   0  0  0  0  0  0
  -21.8819   -3.8144   23.4340 C   0  0  0  0  0  0
  -21.9192   -4.6955   22.3400 C   0  0  0  0  0  0
  -22.7831  -13.5244   21.1883 C   0  0  0  0  0  0
  -22.1661   -4.2152   21.0971 F   0  0  0  0  0  0
  -21.5638   -3.4533   25.7727 F   0  0  0  0  0  0
  -30.0211  -13.3712   20.4106 N   0  0  0  0  0  0
  -26.2983  -12.9363   20.3373 N   0  0  0  0  0  0
  -25.9312  -11.6522   20.5827 N   0  0  0  0  0  0
  -22.0475  -12.8225   22.0420 N   0  0  0  0  0  0
  -25.4325  -15.1903   20.4147 N   0  0  0  0  0  0
  -31.8943  -14.6402   20.2008 O   0  0  0  0  0  0
  -21.6643   -6.8873   21.4238 O   0  0  0  0  0  0
  -22.3520  -14.5550   20.6715 O   0  0  0  0  0  0
  -24.6211  -31.8611   23.2051 C   0  0  0  0  0  0
  -25.9087  -32.4778   23.8365 C   0  0  1  0  0  0
  -27.2523  -27.3813   20.0865 C   0  0  0  0  0  0
  -25.5924  -33.8577   24.2304 N   0  0  0  0  0  0
  -23.4132  -30.4836   21.5449 C   0  0  2  0  0  0
  -24.8589  -28.9331   20.1164 C   0  0  0  0  0  0
  -22.7437  -29.4635   22.4945 C   0  0  0  0  0  0
  -18.0280  -28.1371   22.8486 C   0  0  0  0  0  0
  -24.1489  -36.7293   23.2640 C   0  0  0  0  0  0
  -25.9480  -30.8032   21.3718 C   0  0  0  0  0  0
  -26.0214  -29.4347   20.7138 C   0  0  0  0  0  0
  -27.2125  -28.6651   20.6939 C   0  0  0  0  0  0
  -26.0644  -26.9048   19.4814 C   0  0  0  0  0  0
  -24.8772  -27.6678   19.5028 C   0  0  0  0  0  0
  -23.6263  -29.8123   20.1612 C   0  0  0  0  0  0
  -25.4114  -36.3089   24.0339 C   0  0  1  0  0  0
  -20.5879  -28.3667   23.1280 C   0  0  2  0  0  0
  -20.6766  -26.9389   22.5407 C   0  0  0  0  0  0
  -19.5745  -26.6375   21.5210 C   0  0  0  0  0  0
  -18.1932  -26.7912   22.1626 C   0  0  0  0  0  0
  -19.1533  -28.8829   23.2888 C   0  0  0  0  0  0
  -18.9463  -30.1437   23.8895 C   0  0  0  0  0  0
  -17.6468  -30.6572   24.0559 C   0  0  0  0  0  0
  -25.9043  -34.9447   23.5121 C   0  0  0  0  0  0
  -16.5358  -29.9079   23.6324 C   0  0  0  0  0  0
  -16.7275  -28.6498   23.0341 C   0  0  0  0  0  0
  -26.4497  -31.6568   25.0713 C   0  0  0  0  0  0
  -25.3749  -31.3689   26.1453 C   0  0  0  0  0  0
  -27.0315  -30.2984   24.6143 C   0  0  0  0  0  0
  -27.6065  -32.4278   25.7474 C   0  0  0  0  0  0
  -27.5578  -37.1801   24.8469 C   0  0  0  0  0  0
  -21.4158  -29.3030   22.3679 N   0  0  0  0  0  0
  -26.4295  -37.3777   23.9408 N   0  0  0  0  0  0
  -24.6787  -31.0648   22.0979 N   0  0  0  0  0  0
  -23.4180  -28.8187   23.3019 O   0  0  0  0  0  0
  -28.4551  -26.6783   20.0965 O   0  0  0  0  0  0
  -26.5612  -34.8926   22.4686 O   0  0  0  0  0  0
  -23.5385  -32.1400   23.7402 O   0  0  0  0  0  0
  -30.7100  -18.4047   18.0233 C   0  0  0  0  0  0
  -30.0298  -18.1868   20.7073 C   0  0  0  0  0  0
  -30.5229  -17.1150   18.5635 C   0  0  0  0  0  0
  -30.6020  -19.5786   18.7923 C   0  0  0  0  0  0
  -30.1966  -16.9808   19.9493 C   0  0  0  0  0  0
  -30.2170  -19.4958   20.1550 C   0  0  0  0  0  0
  -30.1932  -15.9886   16.3425 C   0  0  0  0  0  0
  -30.6380  -15.9877   17.6117 C   0  0  0  0  0  0
  -30.9699  -20.8891   18.1183 C   0  0  0  0  0  0
  -29.2699  -24.5199   21.0278 C   0  0  0  0  0  0
  -30.0391  -23.1465   20.8519 C   0  0  0  0  0  0
  -28.5675  -25.2478   19.8327 C   0  0  0  0  0  0
  -29.3024  -21.7732   20.6312 C   0  0  0  0  0  0
  -29.9378  -15.6862   20.5654 N   0  0  0  0  0  0
  -30.1296  -20.6225   20.9806 O   0  0  0  0  0  0
  -31.4580  -12.4186   19.1351 H   0  0  0  0  0  0
  -30.3154  -11.3416   19.8874 H   0  0  0  0  0  0
  -29.7272  -11.7049   17.4721 H   0  0  0  0  0  0
  -29.6281  -13.4248   17.7253 H   0  0  0  0  0  0
  -27.8410  -11.2792   18.8865 H   0  0  0  0  0  0
  -27.3475  -12.5501   17.8018 H   0  0  0  0  0  0
  -27.6688  -14.2444   19.5066 H   0  0  0  0  0  0
  -28.6922  -12.0721   21.4017 H   0  0  0  0  0  0
  -28.4720  -13.7528   21.8149 H   0  0  0  0  0  0
  -25.2749   -9.5705   22.4777 H   0  0  0  0  0  0
  -24.0024   -7.4619   22.7451 H   0  0  0  0  0  0
  -21.0845   -8.8746   19.8933 H   0  0  0  0  0  0
  -22.3659  -10.9684   19.6166 H   0  0  0  0  0  0
  -21.1994   -7.6138   23.9717 H   0  0  0  0  0  0
  -21.1496   -6.0512   25.9083 H   0  0  0  0  0  0
  -22.0599   -2.7606   23.2822 H   0  0  0  0  0  0
  -22.4068  -11.9865   22.4794 H   0  0  0  0  0  0
  -21.1096  -13.1248   22.2630 H   0  0  0  0  0  0
  -24.6754  -15.8535   20.5385 H   0  0  0  0  0  0
  -26.2882  -15.6246   20.0938 H   0  0  0  0  0  0
  -26.7154  -32.5464   23.1106 H   0  0  0  0  0  0
  -25.0063  -33.9724   25.0441 H   0  0  0  0  0  0
  -22.7070  -31.3035   21.3988 H   0  0  0  0  0  0
  -23.3740  -35.9632   23.3322 H   0  0  0  0  0  0
  -24.3582  -36.8880   22.2050 H   0  0  0  0  0  0
  -23.7258  -37.6511   23.6639 H   0  0  0  0  0  0
  -26.0815  -31.5654   20.6043 H   0  0  0  0  0  0
  -26.8288  -30.8448   22.0020 H   0  0  0  0  0  0
  -28.1147  -29.0474   21.1488 H   0  0  0  0  0  0
  -26.0322  -25.9526   18.9738 H   0  0  0  0  0  0
  -23.9806  -27.2779   19.0385 H   0  0  0  0  0  0
  -23.7541  -30.5877   19.4050 H   0  0  0  0  0  0
  -22.7447  -29.2475   19.8562 H   0  0  0  0  0  0
  -25.1292  -36.1949   25.0834 H   0  0  0  0  0  0
  -20.9993  -28.3249   24.1398 H   0  0  0  0  0  0
  -20.5647  -26.2286   23.3605 H   0  0  0  0  0  0
  -21.6629  -26.7402   22.1205 H   0  0  0  0  0  0
  -19.6897  -25.6291   21.1226 H   0  0  0  0  0  0
  -19.6684  -27.3187   20.6743 H   0  0  0  0  0  0
  -17.4194  -26.6657   21.4044 H   0  0  0  0  0  0
  -18.0329  -26.0063   22.9031 H   0  0  0  0  0  0
  -19.7950  -30.7254   24.2251 H   0  0  0  0  0  0
  -17.5031  -31.6254   24.5155 H   0  0  0  0  0  0
  -15.5355  -30.2981   23.7638 H   0  0  0  0  0  0
  -15.8687  -28.0823   22.7033 H   0  0  0  0  0  0
  -24.5928  -30.7028   25.7795 H   0  0  0  0  0  0
  -24.8935  -32.2835   26.4906 H   0  0  0  0  0  0
  -25.8083  -30.8857   27.0218 H   0  0  0  0  0  0
  -26.2866  -29.6752   24.1178 H   0  0  0  0  0  0
  -27.4012  -29.7230   25.4646 H   0  0  0  0  0  0
  -27.8752  -30.4250   23.9356 H   0  0  0  0  0  0
  -27.2681  -33.3572   26.2065 H   0  0  0  0  0  0
  -28.3860  -32.6832   25.0285 H   0  0  0  0  0  0
  -28.0753  -31.8397   26.5374 H   0  0  0  0  0  0
  -28.2587  -38.0110   24.7505 H   0  0  0  0  0  0
  -28.1081  -36.2626   24.6292 H   0  0  0  0  0  0
  -27.2297  -37.1448   25.8877 H   0  0  0  0  0  0
  -20.9321  -29.8755   21.6896 H   0  0  0  0  0  0
  -26.0181  -38.2850   24.1404 H   0  0  0  0  0  0
  -30.9825  -18.4940   16.9811 H   0  0  0  0  0  0
  -29.7585  -18.1102   21.7505 H   0  0  0  0  0  0
  -30.3544  -15.1342   15.6994 H   0  0  0  0  0  0
  -29.6634  -16.8314   15.9209 H   0  0  0  0  0  0
  -31.1682  -15.1082   17.9341 H   0  0  0  0  0  0
  -31.6107  -20.7163   17.2520 H   0  0  0  0  0  0
  -31.5214  -21.5426   18.7928 H   0  0  0  0  0  0
  -30.0768  -21.3997   17.7615 H   0  0  0  0  0  0
  -30.0358  -25.2207   21.3700 H   0  0  0  0  0  0
  -28.5758  -24.4623   21.8650 H   0  0  0  0  0  0
  -30.5807  -23.0266   21.7910 H   0  0  0  0  0  0
  -30.8224  -23.2689   20.1048 H   0  0  0  0  0  0
  -27.6169  -24.7604   19.6269 H   0  0  0  0  0  0
  -29.1790  -25.1288   18.9352 H   0  0  0  0  0  0
  -28.8931  -21.7018   19.6253 H   0  0  0  0  0  0
  -28.4439  -21.7246   21.2995 H   0  0  0  0  0  0
  -29.0115  -15.5562   20.9423 H   0  0  0  0  0  0
  1 25  1  0  0  0
  1 30  2  0  0  0
  1 84  1  0  0  0
  2  3  1  0  0  0
  2 25  1  0  0  0
  2 86  1  0  0  0
  2 87  1  0  0  0
  3  4  1  0  0  0
  3 88  1  0  0  0
  3 89  1  0  0  0
  4  5  1  0  0  0
  4 90  1  0  0  0
  4 91  1  0  0  0
  5  6  1  0  0  0
  5 26  1  0  0  0
  5 92  1  0  0  0
  6 25  1  0  0  0
  6 93  1  0  0  0
  6 94  1  0  0  0
  7  8  2  0  0  0
  7 26  1  0  0  0
  7 29  1  0  0  0
  8  9  1  0  0  0
  8 22  1  0  0  0
  9 10  1  0  0  0
  9 27  2  0  0  0
 10 11  2  0  0  0
 10 15  1  0  0  0
 11 12  1  0  0  0
 11 95  1  0  0  0
 12 13  2  0  0  0
 12 96  1  0  0  0
 13 14  1  0  0  0
 13 31  1  0  0  0
 14 15  2  0  0  0
 14 97  1  0  0  0
 15 98  1  0  0  0
 16 17  2  0  0  0
 16 21  1  0  0  0
 16 31  1  0  0  0
 17 18  1  0  0  0
 17 99  1  0  0  0
 18 19  2  0  0  0
 18100  1  0  0  0
 19 20  1  0  0  0
 19 24  1  0  0  0
 20 21  2  0  0  0
 20101  1  0  0  0
 21 23  1  0  0  0
 22 28  1  0  0  0
 22 32  2  0  0  0
 26 27  1  0  0  0
 28102  1  0  0  0
 28103  1  0  0  0
 29104  1  0  0  0
 29105  1  0  0  0
 33 34  1  0  0  0
 33 66  1  0  0  0
 33 70  2  0  0  0
 34 36  1  0  0  0
 34 59  1  0  0  0
 34106  1  0  0  0
 35 44  2  0  0  0
 35 45  1  0  0  0
 35 68  1  0  0  0
 36 56  1  0  0  0
 36107  1  0  0  0
 37 39  1  0  0  0
 37 47  1  0  0  0
 37 66  1  0  0  0
 37108  1  0  0  0
 38 43  2  0  0  0
 38 46  1  0  0  0
 38 47  1  0  0  0
 39 64  1  0  0  0
 39 67  2  0  0  0
 40 52  1  0  0  0
 40 53  2  0  0  0
 40 58  1  0  0  0
 41109  1  0  0  0
 41110  1  0  0  0
 41111  1  0  0  0
 41 48  1  0  0  0
 42 43  1  0  0  0
 42 66  1  0  0  0
 42112  1  0  0  0
 42113  1  0  0  0
 43 44  1  0  0  0
 44114  1  0  0  0
 45 46  2  0  0  0
 45115  1  0  0  0
 46116  1  0  0  0
 47117  1  0  0  0
 47118  1  0  0  0
 48 56  1  0  0  0
 48 65  1  0  0  0
 48119  1  0  0  0
 49 50  1  0  0  0
 49 53  1  0  0  0
 49 64  1  0  0  0
 49120  1  0  0  0
 50 51  1  0  0  0
 50121  1  0  0  0
 50122  1  0  0  0
 51 52  1  0  0  0
 51123  1  0  0  0
 51124  1  0  0  0
 52125  1  0  0  0
 52126  1  0  0  0
 53 54  1  0  0  0
 54 55  2  0  0  0
 54127  1  0  0  0
 55 57  1  0  0  0
 55128  1  0  0  0
 56 69  2  0  0  0
 57 58  2  0  0  0
 57129  1  0  0  0
 58130  1  0  0  0
 59 60  1  0  0  0
 59 61  1  0  0  0
 59 62  1  0  0  0
 60131  1  0  0  0
 60132  1  0  0  0
 60133  1  0  0  0
 61134  1  0  0  0
 61135  1  0  0  0
 61136  1  0  0  0
 62137  1  0  0  0
 62138  1  0  0  0
 62139  1  0  0  0
 63 65  1  0  0  0
 63140  1  0  0  0
 63141  1  0  0  0
 63142  1  0  0  0
 64143  1  0  0  0
 65144  1  0  0  0
 68 82  1  0  0  0
 71 73  2  0  0  0
 71 74  1  0  0  0
 71145  1  0  0  0
 72 75  2  0  0  0
 72 76  1  0  0  0
 72146  1  0  0  0
 73 75  1  0  0  0
 73 78  1  0  0  0
 74 76  2  0  0  0
 74 79  1  0  0  0
 75 84  1  0  0  0
 76 85  1  0  0  0
 77 78  2  0  0  0
 77147  1  0  0  0
 77148  1  0  0  0
 78149  1  0  0  0
 79150  1  0  0  0
 79151  1  0  0  0
 79152  1  0  0  0
 80 81  1  0  0  0
 80 82  1  0  0  0
 80153  1  0  0  0
 80154  1  0  0  0
 81 83  1  0  0  0
 81155  1  0  0  0
 81156  1  0  0  0
 82157  1  0  0  0
 82158  1  0  0  0
 83 85  1  0  0  0
 83159  1  0  0  0
 83160  1  0  0  0
 84161  1  0  0  0
M  ISO  4   1 100  68 101  82 101  84 100
M  END
> <chiral flag>
0

> <version>
0

> <s_m_source_file>
/data/baiqing/PycharmProjects/Reinvent-master-3.2/result/LINK_invent/BTK/process_docking_weight1_custom_product_contain_oxygen_bond_distance_aromatic_linkinvent_7_9_3/rearranged_h_0116.sdf

> <i_m_source_file_index>
42

> <r_mmod_Potential_Energy-OPLS-2005>
77.8350372314453

> <r_mmod_Stretch_Energy-OPLS-2005>
62.6063499450684

> <r_mmod_Bend_Energy-OPLS-2005>
150.90657043457

> <r_mmod_Torsional_Energy-OPLS-2005>
282.471008300781

> <r_mmod_Improper_Torsional_Energy-OPLS-2005>
7.1589674949646

> <r_mmod_Van_der_Waal_Energy-OPLS-2005>
149.784622192383

> <r_mmod_Electrostatic_Energy-OPLS-2005>
-396.929595947266

> <r_mmod_Solvation_Energy-OPLS-2005>
-208.928100585938

> <b_mmod_Minimization_Converged-OPLS-2005>
0

> <r_mmod_RMS_Derivative-OPLS-2005>
3.92728137969971

$$$$
42
                    3D
 Structure written by MMmdl.
160168  0  0  1  0            999 V2000
  -30.6579  -14.4858   20.5423 C   0  0  0  0  0  0
  -30.4304  -12.3069   19.4180 C   0  0  0  0  0  0
  -29.4993  -12.5116   18.2028 C   0  0  0  0  0  0
  -28.0181  -12.3726   18.6108 C   0  0  0  0  0  0
  -27.6621  -13.2004   19.8743 C   0  0  2  0  0  0
  -28.7037  -12.9667   20.9930 C   0  0  0  0  0  0
  -25.2601  -13.8149   20.5668 C   0  0  0  0  0  0
  -24.1838  -13.0439   20.9153 C   0  0  0  0  0  0
  -24.6372  -11.6902   20.8706 C   0  0  0  0  0  0
  -23.9034  -10.4295   21.0395 C   0  0  0  0  0  0
  -24.3593   -9.4222   21.9181 C   0  0  0  0  0  0
  -23.6277   -8.2257   22.0756 C   0  0  0  0  0  0
  -22.4263   -8.0283   21.3549 C   0  0  0  0  0  0
  -21.9882   -9.0253   20.4652 C   0  0  0  0  0  0
  -22.7201  -10.2137   20.3056 C   0  0  0  0  0  0
  -21.6858   -6.0724   22.5274 C   0  0  0  0  0  0
  -21.4020   -6.5627   23.8205 C   0  0  0  0  0  0
  -21.3660   -5.6781   24.9165 C   0  0  0  0  0  0
  -21.6047   -4.3046   24.7216 C   0  0  0  0  0  0
  -21.8825   -3.8134   23.4339 C   0  0  0  0  0  0
  -21.9194   -4.6949   22.3392 C   0  0  0  0  0  0
  -22.7869  -13.5264   21.1828 C   0  0  0  0  0  0
  -22.1669   -4.2138   21.0970 F   0  0  0  0  0  0
  -21.5623   -3.4528   25.7731 F   0  0  0  0  0  0
  -30.0362  -13.2805   20.4456 N   0  0  0  0  0  0
  -26.3022  -12.9297   20.3340 N   0  0  0  0  0  0
  -25.9296  -11.6470   20.5725 N   0  0  0  0  0  0
  -22.0489  -12.8279   22.0381 N   0  0  0  0  0  0
  -25.4361  -15.1863   20.4101 N   0  0  0  0  0  0
  -31.8087  -14.6884   20.1394 O   0  0  0  0  0  0
  -21.6645   -6.8875   21.4240 O   0  0  0  0  0  0
  -22.3580  -14.5576   20.6677 O   0  0  0  0  0  0
  -24.6158  -31.8667   23.2109 C   0  0  0  0  0  0
  -25.9052  -32.4816   23.8400 C   0  0  1  0  0  0
  -27.2351  -27.4251   20.0839 C   0  0  0  0  0  0
  -25.5906  -33.8615   24.2329 N   0  0  0  0  0  0
  -23.4031  -30.4921   21.5523 C   0  0  2  0  0  0
  -24.8475  -28.9597   20.1143 C   0  0  0  0  0  0
  -22.7410  -29.4647   22.4987 C   0  0  0  0  0  0
  -18.0268  -28.1374   22.8487 C   0  0  0  0  0  0
  -24.1477  -36.7311   23.2635 C   0  0  0  0  0  0
  -25.9342  -30.8296   21.3647 C   0  0  0  0  0  0
  -26.0109  -29.4645   20.7079 C   0  0  0  0  0  0
  -27.2048  -28.7046   20.6903 C   0  0  0  0  0  0
  -26.0419  -26.9326   19.5001 C   0  0  0  0  0  0
  -24.8577  -27.6918   19.5106 C   0  0  0  0  0  0
  -23.6108  -29.8283   20.1660 C   0  0  0  0  0  0
  -25.4095  -36.3104   24.0337 C   0  0  1  0  0  0
  -20.5858  -28.3654   23.1313 C   0  0  2  0  0  0
  -20.6752  -26.9388   22.5415 C   0  0  0  0  0  0
  -19.5735  -26.6374   21.5205 C   0  0  0  0  0  0
  -18.1914  -26.7919   22.1617 C   0  0  0  0  0  0
  -19.1521  -28.8827   23.2898 C   0  0  0  0  0  0
  -18.9452  -30.1432   23.8917 C   0  0  0  0  0  0
  -17.6457  -30.6579   24.0564 C   0  0  0  0  0  0
  -25.9029  -34.9470   23.5127 C   0  0  0  0  0  0
  -16.5346  -29.9085   23.6323 C   0  0  0  0  0  0
  -16.7260  -28.6499   23.0346 C   0  0  0  0  0  0
  -26.4479  -31.6603   25.0733 C   0  0  0  0  0  0
  -25.3761  -31.3724   26.1500 C   0  0  0  0  0  0
  -27.0306  -30.3040   24.6115 C   0  0  0  0  0  0
  -27.6042  -32.4335   25.7502 C   0  0  0  0  0  0
  -27.5573  -37.1804   24.8459 C   0  0  0  0  0  0
  -21.4138  -29.3029   22.3730 N   0  0  0  0  0  0
  -26.4279  -37.3790   23.9414 N   0  0  0  0  0  0
  -24.6697  -31.0766   22.1014 N   0  0  0  0  0  0
  -23.4177  -28.8181   23.3024 O   0  0  0  0  0  0
  -28.4039  -26.6803   20.1104 O   0  0  0  0  0  0
  -26.5584  -34.8921   22.4685 O   0  0  0  0  0  0
  -23.5351  -32.1423   23.7503 O   0  0  0  0  0  0
  -30.0659  -18.9898   19.5152 C   0  0  0  0  0  0
  -29.5595  -17.6704   21.9126 C   0  0  0  0  0  0
  -30.1384  -17.5693   19.5481 C   0  0  0  0  0  0
  -29.9168  -16.8979   20.7884 C   0  0  0  0  0  0
  -29.6946  -19.7694   20.6438 C   0  0  0  0  0  0
  -29.4148  -19.0722   21.8491 C   0  0  0  0  0  0
  -30.0598  -17.3288   17.0381 C   0  0  0  0  0  0
  -30.3162  -16.8444   18.2666 C   0  0  0  0  0  0
  -28.6673  -24.2847   20.0104 C   0  0  0  0  0  0
  -28.4509  -25.4847   19.4283 C   0  0  0  0  0  0
  -27.9318  -20.6269   22.8789 C   0  0  0  0  0  0
  -28.6390  -22.9558   19.2555 C   0  0  0  0  0  0
  -29.8168  -21.9826   19.5083 C   0  0  0  0  0  0
  -29.8496  -15.4767   20.9659 N   0  0  0  0  0  0
  -29.0028  -19.6967   23.0042 O   0  0  0  0  0  0
  -29.5822  -21.1587   20.6626 O   0  0  0  0  0  0
  -31.4747  -12.4175   19.1197 H   0  0  0  0  0  0
  -30.3364  -11.2921   19.8089 H   0  0  0  0  0  0
  -29.7383  -11.7941   17.4172 H   0  0  0  0  0  0
  -29.6670  -13.5003   17.7713 H   0  0  0  0  0  0
  -27.8219  -11.3152   18.7933 H   0  0  0  0  0  0
  -27.3754  -12.6629   17.7789 H   0  0  0  0  0  0
  -27.7076  -14.2499   19.5830 H   0  0  0  0  0  0
  -28.6793  -11.9269   21.3232 H   0  0  0  0  0  0
  -28.4647  -13.5559   21.8798 H   0  0  0  0  0  0
  -25.2736   -9.5701   22.4756 H   0  0  0  0  0  0
  -23.9986   -7.4646   22.7476 H   0  0  0  0  0  0
  -21.0808   -8.8760   19.8955 H   0  0  0  0  0  0
  -22.3648  -10.9675   19.6164 H   0  0  0  0  0  0
  -21.2024   -7.6138   23.9706 H   0  0  0  0  0  0
  -21.1480   -6.0513   25.9071 H   0  0  0  0  0  0
  -22.0602   -2.7595   23.2846 H   0  0  0  0  0  0
  -22.4075  -11.9936   22.4787 H   0  0  0  0  0  0
  -21.1113  -13.1349   22.2564 H   0  0  0  0  0  0
  -24.6734  -15.8467   20.5176 H   0  0  0  0  0  0
  -26.2937  -15.6199   20.0922 H   0  0  0  0  0  0
  -26.7119  -32.5520   23.1158 H   0  0  0  0  0  0
  -25.0081  -33.9782   25.0491 H   0  0  0  0  0  0
  -22.6923  -31.3097   21.4158 H   0  0  0  0  0  0
  -23.3736  -35.9648   23.3303 H   0  0  0  0  0  0
  -24.3570  -36.8925   22.2049 H   0  0  0  0  0  0
  -23.7232  -37.6517   23.6651 H   0  0  0  0  0  0
  -26.0489  -31.5973   20.5983 H   0  0  0  0  0  0
  -26.8208  -30.8801   21.9851 H   0  0  0  0  0  0
  -28.1037  -29.0915   21.1489 H   0  0  0  0  0  0
  -26.0005  -25.9545   19.0428 H   0  0  0  0  0  0
  -23.9599  -27.2931   19.0575 H   0  0  0  0  0  0
  -23.7202  -30.6054   19.4090 H   0  0  0  0  0  0
  -22.7334  -29.2517   19.8672 H   0  0  0  0  0  0
  -25.1265  -36.1965   25.0829 H   0  0  0  0  0  0
  -20.9946  -28.3215   24.1434 H   0  0  0  0  0  0
  -20.5627  -26.2263   23.3600 H   0  0  0  0  0  0
  -21.6628  -26.7410   22.1230 H   0  0  0  0  0  0
  -19.6896  -25.6286   21.1230 H   0  0  0  0  0  0
  -19.6679  -27.3185   20.6736 H   0  0  0  0  0  0
  -17.4177  -26.6653   21.4027 H   0  0  0  0  0  0
  -18.0325  -26.0057   22.9010 H   0  0  0  0  0  0
  -19.7929  -30.7231   24.2300 H   0  0  0  0  0  0
  -17.5017  -31.6263   24.5159 H   0  0  0  0  0  0
  -15.5349  -30.2995   23.7640 H   0  0  0  0  0  0
  -15.8654  -28.0822   22.7062 H   0  0  0  0  0  0
  -24.5907  -30.7089   25.7864 H   0  0  0  0  0  0
  -24.8996  -32.2896   26.4970 H   0  0  0  0  0  0
  -25.8138  -30.8885   27.0242 H   0  0  0  0  0  0
  -26.2850  -29.6805   24.1165 H   0  0  0  0  0  0
  -27.4068  -29.7266   25.4570 H   0  0  0  0  0  0
  -27.8689  -30.4346   23.9268 H   0  0  0  0  0  0
  -27.2629  -33.3610   26.2109 H   0  0  0  0  0  0
  -28.3839  -32.6939   25.0335 H   0  0  0  0  0  0
  -28.0722  -31.8454   26.5406 H   0  0  0  0  0  0
  -28.2586  -38.0104   24.7511 H   0  0  0  0  0  0
  -28.1075  -36.2640   24.6269 H   0  0  0  0  0  0
  -27.2305  -37.1435   25.8866 H   0  0  0  0  0  0
  -20.9290  -29.8779   21.6984 H   0  0  0  0  0  0
  -26.0168  -38.2864   24.1437 H   0  0  0  0  0  0
  -30.2925  -19.4635   18.5778 H   0  0  0  0  0  0
  -29.3397  -17.1747   22.8472 H   0  0  0  0  0  0
  -30.2346  -16.7193   16.1627 H   0  0  0  0  0  0
  -29.6705  -18.3212   16.8679 H   0  0  0  0  0  0
  -30.7015  -15.8409   18.2989 H   0  0  0  0  0  0
  -28.8372  -24.2301   21.0766 H   0  0  0  0  0  0
  -28.2755  -25.6127   18.3680 H   0  0  0  0  0  0
  -28.3093  -21.6482   22.8312 H   0  0  0  0  0  0
  -27.2868  -20.5541   23.7552 H   0  0  0  0  0  0
  -27.3116  -20.4419   21.9988 H   0  0  0  0  0  0
  -28.6133  -23.1885   18.1899 H   0  0  0  0  0  0
  -27.6961  -22.4497   19.4658 H   0  0  0  0  0  0
  -30.7451  -22.5375   19.6502 H   0  0  0  0  0  0
  -29.9479  -21.4239   18.5881 H   0  0  0  0  0  0
  -29.0095  -15.1403   21.4117 H   0  0  0  0  0  0
  1 25  1  0  0  0
  1 30  2  0  0  0
  1 84  1  0  0  0
  2  3  1  0  0  0
  2 25  1  0  0  0
  2 87  1  0  0  0
  2 88  1  0  0  0
  3  4  1  0  0  0
  3 89  1  0  0  0
  3 90  1  0  0  0
  4  5  1  0  0  0
  4 91  1  0  0  0
  4 92  1  0  0  0
  5  6  1  0  0  0
  5 26  1  0  0  0
  5 93  1  0  0  0
  6 25  1  0  0  0
  6 94  1  0  0  0
  6 95  1  0  0  0
  7  8  2  0  0  0
  7 26  1  0  0  0
  7 29  1  0  0  0
  8  9  1  0  0  0
  8 22  1  0  0  0
  9 10  1  0  0  0
  9 27  2  0  0  0
 10 11  2  0  0  0
 10 15  1  0  0  0
 11 12  1  0  0  0
 11 96  1  0  0  0
 12 13  2  0  0  0
 12 97  1  0  0  0
 13 14  1  0  0  0
 13 31  1  0  0  0
 14 15  2  0  0  0
 14 98  1  0  0  0
 15 99  1  0  0  0
 16 17  2  0  0  0
 16 21  1  0  0  0
 16 31  1  0  0  0
 17 18  1  0  0  0
 17100  1  0  0  0
 18 19  2  0  0  0
 18101  1  0  0  0
 19 20  1  0  0  0
 19 24  1  0  0  0
 20 21  2  0  0  0
 20102  1  0  0  0
 21 23  1  0  0  0
 22 28  1  0  0  0
 22 32  2  0  0  0
 26 27  1  0  0  0
 28103  1  0  0  0
 28104  1  0  0  0
 29105  1  0  0  0
 29106  1  0  0  0
 33 34  1  0  0  0
 33 66  1  0  0  0
 33 70  2  0  0  0
 34 36  1  0  0  0
 34 59  1  0  0  0
 34107  1  0  0  0
 35 44  2  0  0  0
 35 45  1  0  0  0
 35 68  1  0  0  0
 36 56  1  0  0  0
 36108  1  0  0  0
 37 39  1  0  0  0
 37 47  1  0  0  0
 37 66  1  0  0  0
 37109  1  0  0  0
 38 43  2  0  0  0
 38 46  1  0  0  0
 38 47  1  0  0  0
 39 64  1  0  0  0
 39 67  2  0  0  0
 40 52  1  0  0  0
 40 53  2  0  0  0
 40 58  1  0  0  0
 41110  1  0  0  0
 41111  1  0  0  0
 41112  1  0  0  0
 41 48  1  0  0  0
 42 43  1  0  0  0
 42 66  1  0  0  0
 42113  1  0  0  0
 42114  1  0  0  0
 43 44  1  0  0  0
 44115  1  0  0  0
 45 46  2  0  0  0
 45116  1  0  0  0
 46117  1  0  0  0
 47118  1  0  0  0
 47119  1  0  0  0
 48 56  1  0  0  0
 48 65  1  0  0  0
 48120  1  0  0  0
 49 50  1  0  0  0
 49 53  1  0  0  0
 49 64  1  0  0  0
 49121  1  0  0  0
 50 51  1  0  0  0
 50122  1  0  0  0
 50123  1  0  0  0
 51 52  1  0  0  0
 51124  1  0  0  0
 51125  1  0  0  0
 52126  1  0  0  0
 52127  1  0  0  0
 53 54  1  0  0  0
 54 55  2  0  0  0
 54128  1  0  0  0
 55 57  1  0  0  0
 55129  1  0  0  0
 56 69  2  0  0  0
 57 58  2  0  0  0
 57130  1  0  0  0
 58131  1  0  0  0
 59 60  1  0  0  0
 59 61  1  0  0  0
 59 62  1  0  0  0
 60132  1  0  0  0
 60133  1  0  0  0
 60134  1  0  0  0
 61135  1  0  0  0
 61136  1  0  0  0
 61137  1  0  0  0
 62138  1  0  0  0
 62139  1  0  0  0
 62140  1  0  0  0
 63 65  1  0  0  0
 63141  1  0  0  0
 63142  1  0  0  0
 63143  1  0  0  0
 64144  1  0  0  0
 65145  1  0  0  0
 68 80  1  0  0  0
 71 73  2  0  0  0
 71 75  1  0  0  0
 71146  1  0  0  0
 72 74  2  0  0  0
 72 76  1  0  0  0
 72147  1  0  0  0
 73 74  1  0  0  0
 73 78  1  0  0  0
 74 84  1  0  0  0
 75 76  2  0  0  0
 75 86  1  0  0  0
 76 85  1  0  0  0
 77 78  2  0  0  0
 77148  1  0  0  0
 77149  1  0  0  0
 78150  1  0  0  0
 79 80  2  0  0  0
 79 82  1  0  0  0
 79151  1  0  0  0
 80152  1  0  0  0
 81 85  1  0  0  0
 81153  1  0  0  0
 81154  1  0  0  0
 81155  1  0  0  0
 82 83  1  0  0  0
 82156  1  0  0  0
 82157  1  0  0  0
 83 86  1  0  0  0
 83158  1  0  0  0
 83159  1  0  0  0
 84160  1  0  0  0
M  ISO  4   1 100  68 101  80 101  84 100
M  END
> <chiral flag>
0

> <version>
0

> <s_m_source_file>
/data/baiqing/PycharmProjects/Reinvent-master-3.2/result/LINK_invent/BTK/process_docking_weight1_custom_product_contain_oxygen_bond_distance_aromatic_linkinvent_7_9_3/rearranged_h_0116.sdf

> <i_m_source_file_index>
43

> <r_mmod_Potential_Energy-OPLS-2005>
29.343204498291

> <r_mmod_Stretch_Energy-OPLS-2005>
42.6482429504395

> <r_mmod_Bend_Energy-OPLS-2005>
129.467636108398

> <r_mmod_Torsional_Energy-OPLS-2005>
261.671997070312

> <r_mmod_Improper_Torsional_Energy-OPLS-2005>
5.26359224319458

> <r_mmod_Van_der_Waal_Energy-OPLS-2005>
169.256256103516

> <r_mmod_Electrostatic_Energy-OPLS-2005>
-384.271453857422

> <r_mmod_Solvation_Energy-OPLS-2005>
-209.974533081055

> <b_mmod_Minimization_Converged-OPLS-2005>
0

> <r_mmod_RMS_Derivative-OPLS-2005>
1.78217244148254

$$$$
43
                    3D
 Structure written by MMmdl.
167176  0  0  1  0            999 V2000
  -30.7041  -14.5198   20.5555 C   0  0  0  0  0  0
  -30.4221  -12.3282   19.4404 C   0  0  0  0  0  0
  -29.5030  -12.5066   18.2145 C   0  0  0  0  0  0
  -28.0230  -12.3680   18.6215 C   0  0  0  0  0  0
  -27.6606  -13.2165   19.8704 C   0  0  2  0  0  0
  -28.7011  -13.0366   20.9956 C   0  0  0  0  0  0
  -25.2598  -13.8173   20.5678 C   0  0  0  0  0  0
  -24.1847  -13.0447   20.9157 C   0  0  0  0  0  0
  -24.6408  -11.6911   20.8714 C   0  0  0  0  0  0
  -23.9071  -10.4299   21.0393 C   0  0  0  0  0  0
  -24.3617   -9.4215   21.9178 C   0  0  0  0  0  0
  -23.6293   -8.2251   22.0749 C   0  0  0  0  0  0
  -22.4276   -8.0286   21.3536 C   0  0  0  0  0  0
  -21.9916   -9.0256   20.4633 C   0  0  0  0  0  0
  -22.7246  -10.2135   20.3040 C   0  0  0  0  0  0
  -21.6842   -6.0742   22.5277 C   0  0  0  0  0  0
  -21.4009   -6.5633   23.8217 C   0  0  0  0  0  0
  -21.3664   -5.6779   24.9175 C   0  0  0  0  0  0
  -21.6052   -4.3046   24.7212 C   0  0  0  0  0  0
  -21.8823   -3.8143   23.4329 C   0  0  0  0  0  0
  -21.9187   -4.6969   22.3392 C   0  0  0  0  0  0
  -22.7872  -13.5257   21.1819 C   0  0  0  0  0  0
  -22.1663   -4.2159   21.0970 F   0  0  0  0  0  0
  -21.5631   -3.4524   25.7723 F   0  0  0  0  0  0
  -30.0290  -13.3389   20.4402 N   0  0  0  0  0  0
  -26.3033  -12.9358   20.3346 N   0  0  0  0  0  0
  -25.9335  -11.6506   20.5735 N   0  0  0  0  0  0
  -22.0489  -12.8257   22.0371 N   0  0  0  0  0  0
  -25.4336  -15.1894   20.4124 N   0  0  0  0  0  0
  -31.8375  -14.6362   20.0816 O   0  0  0  0  0  0
  -21.6631   -6.8887   21.4242 O   0  0  0  0  0  0
  -22.3567  -14.5567   20.6672 O   0  0  0  0  0  0
  -24.6165  -31.8655   23.2119 C   0  0  0  0  0  0
  -25.9055  -32.4802   23.8402 C   0  0  1  0  0  0
  -27.2218  -27.4045   20.1090 C   0  0  0  0  0  0
  -25.5915  -33.8601   24.2346 N   0  0  0  0  0  0
  -23.4074  -30.4906   21.5501 C   0  0  2  0  0  0
  -24.8565  -28.9556   20.1113 C   0  0  0  0  0  0
  -22.7440  -29.4632   22.4962 C   0  0  0  0  0  0
  -18.0279  -28.1371   22.8492 C   0  0  0  0  0  0
  -24.1478  -36.7298   23.2644 C   0  0  0  0  0  0
  -25.9398  -30.8161   21.3770 C   0  0  0  0  0  0
  -26.0148  -29.4464   20.7309 C   0  0  0  0  0  0
  -27.2019  -28.6707   20.7435 C   0  0  0  0  0  0
  -26.0659  -26.9604   19.4361 C   0  0  0  0  0  0
  -24.8768  -27.7099   19.4624 C   0  0  0  0  0  0
  -23.6207  -29.8269   20.1623 C   0  0  0  0  0  0
  -25.4101  -36.3097   24.0352 C   0  0  1  0  0  0
  -20.5875  -28.3651   23.1309 C   0  0  2  0  0  0
  -20.6761  -26.9381   22.5410 C   0  0  0  0  0  0
  -19.5729  -26.6374   21.5215 C   0  0  0  0  0  0
  -18.1917  -26.7914   22.1629 C   0  0  0  0  0  0
  -19.1530  -28.8837   23.2891 C   0  0  0  0  0  0
  -18.9452  -30.1450   23.8884 C   0  0  0  0  0  0
  -17.6447  -30.6574   24.0565 C   0  0  0  0  0  0
  -25.9034  -34.9460   23.5150 C   0  0  0  0  0  0
  -16.5341  -29.9068   23.6335 C   0  0  0  0  0  0
  -16.7261  -28.6496   23.0342 C   0  0  0  0  0  0
  -26.4487  -31.6563   25.0715 C   0  0  0  0  0  0
  -25.3774  -31.3637   26.1471 C   0  0  0  0  0  0
  -27.0335  -30.3010   24.6096 C   0  0  0  0  0  0
  -27.6072  -32.4267   25.7472 C   0  0  0  0  0  0
  -27.5574  -37.1808   24.8476 C   0  0  0  0  0  0
  -21.4157  -29.3022   22.3719 N   0  0  0  0  0  0
  -26.4283  -37.3784   23.9418 N   0  0  0  0  0  0
  -24.6721  -31.0728   22.1043 N   0  0  0  0  0  0
  -23.4209  -28.8174   23.3007 O   0  0  0  0  0  0
  -28.3285  -26.5816   20.0761 O   0  0  0  0  0  0
  -26.5571  -34.8924   22.4696 O   0  0  0  0  0  0
  -23.5352  -32.1422   23.7494 O   0  0  0  0  0  0
  -29.0346  -18.2937   22.0363 C   0  0  0  0  0  0
  -28.5319  -19.5496   22.4376 C   0  0  0  0  0  0
  -28.8982  -20.4162   20.2245 C   0  0  0  0  0  0
  -29.4849  -18.0568   20.7201 C   0  0  0  0  0  0
  -29.4343  -19.1619   19.8066 C   0  0  0  0  0  0
  -28.4268  -20.6457   21.5367 C   0  0  0  0  0  0
  -26.4565  -24.6467   21.6213 C   0  0  0  0  0  0
  -27.7960  -24.4995   21.4978 C   0  0  0  0  0  0
  -25.5222  -23.6192   22.0528 C   0  0  0  0  0  0
  -29.3825  -19.7186   17.3521 C   0  0  0  0  0  0
  -29.8744  -19.0324   18.3980 C   0  0  0  0  0  0
  -30.0032  -16.6825   20.3551 C   0  0  0  0  0  0
  -25.9098  -22.8662   23.3074 C   0  0  0  0  0  0
  -26.9320  -21.7541   23.0751 C   0  0  0  0  0  0
  -28.5936  -23.1582   21.6981 C   0  0  1  0  0  0
  -29.6384  -23.2959   22.8228 C   0  0  0  0  0  0
  -28.6307  -25.7893   21.2511 C   0  0  0  0  0  0
  -29.9805  -15.6067   21.0723 N   0  0  0  0  0  0
  -27.8264  -21.8928   21.9102 N   0  0  0  0  0  0
  -24.4374  -23.4088   21.5030 O   0  0  0  0  0  0
  -31.4696  -12.4051   19.1428 H   0  0  0  0  0  0
  -30.3096  -11.3262   19.8579 H   0  0  0  0  0  0
  -29.7524  -11.7700   17.4498 H   0  0  0  0  0  0
  -29.6727  -13.4851   17.7630 H   0  0  0  0  0  0
  -27.8339  -11.3126   18.8210 H   0  0  0  0  0  0
  -27.3755  -12.6358   17.7854 H   0  0  0  0  0  0
  -27.6975  -14.2608   19.5605 H   0  0  0  0  0  0
  -28.6829  -12.0131   21.3724 H   0  0  0  0  0  0
  -28.4621  -13.6708   21.8508 H   0  0  0  0  0  0
  -25.2756   -9.5682   22.4762 H   0  0  0  0  0  0
  -23.9986   -7.4638   22.7470 H   0  0  0  0  0  0
  -21.0848   -8.8779   19.8939 H   0  0  0  0  0  0
  -22.3710  -10.9671   19.6146 H   0  0  0  0  0  0
  -21.2002   -7.6140   23.9724 H   0  0  0  0  0  0
  -21.1491   -6.0503   25.9081 H   0  0  0  0  0  0
  -22.0599   -2.7607   23.2810 H   0  0  0  0  0  0
  -22.4067  -11.9900   22.4751 H   0  0  0  0  0  0
  -21.1114  -13.1310   22.2569 H   0  0  0  0  0  0
  -24.6765  -15.8531   20.5374 H   0  0  0  0  0  0
  -26.3100  -15.6245   20.1513 H   0  0  0  0  0  0
  -26.7124  -32.5510   23.1162 H   0  0  0  0  0  0
  -25.0096  -33.9747   25.0517 H   0  0  0  0  0  0
  -22.6965  -31.3083   21.4115 H   0  0  0  0  0  0
  -23.3736  -35.9631   23.3305 H   0  0  0  0  0  0
  -24.3586  -36.8900   22.2058 H   0  0  0  0  0  0
  -23.7226  -37.6513   23.6644 H   0  0  0  0  0  0
  -26.0614  -31.5757   20.6036 H   0  0  0  0  0  0
  -26.8258  -30.8698   21.9975 H   0  0  0  0  0  0
  -28.0898  -29.0395   21.2385 H   0  0  0  0  0  0
  -26.0808  -26.0098   18.9226 H   0  0  0  0  0  0
  -23.9938  -27.3316   18.9646 H   0  0  0  0  0  0
  -23.7335  -30.6034   19.4049 H   0  0  0  0  0  0
  -22.7443  -29.2504   19.8609 H   0  0  0  0  0  0
  -25.1277  -36.1963   25.0842 H   0  0  0  0  0  0
  -20.9972  -28.3186   24.1426 H   0  0  0  0  0  0
  -20.5653  -26.2250   23.3598 H   0  0  0  0  0  0
  -21.6627  -26.7396   22.1211 H   0  0  0  0  0  0
  -19.6869  -25.6294   21.1218 H   0  0  0  0  0  0
  -19.6660  -27.3206   20.6764 H   0  0  0  0  0  0
  -17.4189  -26.6678   21.4020 H   0  0  0  0  0  0
  -18.0295  -26.0054   22.9021 H   0  0  0  0  0  0
  -19.7932  -30.7288   24.2215 H   0  0  0  0  0  0
  -17.5002  -31.6251   24.5170 H   0  0  0  0  0  0
  -15.5344  -30.2961   23.7683 H   0  0  0  0  0  0
  -15.8661  -28.0833   22.7022 H   0  0  0  0  0  0
  -24.5982  -30.6935   25.7818 H   0  0  0  0  0  0
  -24.8923  -32.2765   26.4929 H   0  0  0  0  0  0
  -25.8163  -30.8818   27.0217 H   0  0  0  0  0  0
  -26.2878  -29.6740   24.1195 H   0  0  0  0  0  0
  -27.4164  -29.7266   25.4542 H   0  0  0  0  0  0
  -27.8688  -30.4336   23.9220 H   0  0  0  0  0  0
  -27.2720  -33.3581   26.2044 H   0  0  0  0  0  0
  -28.3886  -32.6785   25.0288 H   0  0  0  0  0  0
  -28.0730  -31.8375   26.5385 H   0  0  0  0  0  0
  -28.2608  -38.0089   24.7519 H   0  0  0  0  0  0
  -28.1051  -36.2628   24.6305 H   0  0  0  0  0  0
  -27.2295  -37.1462   25.8879 H   0  0  0  0  0  0
  -20.9314  -29.8776   21.6973 H   0  0  0  0  0  0
  -26.0169  -38.2863   24.1399 H   0  0  0  0  0  0
  -29.0738  -17.4975   22.7658 H   0  0  0  0  0  0
  -28.2182  -19.6309   23.4672 H   0  0  0  0  0  0
  -28.8351  -21.2271   19.5138 H   0  0  0  0  0  0
  -26.0132  -25.6206   21.5368 H   0  0  0  0  0  0
  -29.7832  -19.5706   16.3583 H   0  0  0  0  0  0
  -28.5763  -20.4306   17.4520 H   0  0  0  0  0  0
  -30.6886  -18.3543   18.1906 H   0  0  0  0  0  0
  -30.4501  -16.6363   19.3587 H   0  0  0  0  0  0
  -25.0160  -22.4674   23.7900 H   0  0  0  0  0  0
  -26.3311  -23.5942   24.0012 H   0  0  0  0  0  0
  -26.3529  -20.8350   22.9716 H   0  0  0  0  0  0
  -27.5305  -21.6513   23.9808 H   0  0  0  0  0  0
  -29.1529  -23.0388   20.7689 H   0  0  0  0  0  0
  -29.1654  -23.5152   23.7807 H   0  0  0  0  0  0
  -30.3627  -24.0865   22.6320 H   0  0  0  0  0  0
  -30.2184  -22.3805   22.9425 H   0  0  0  0  0  0
  -29.6766  -25.5117   21.1350 H   0  0  0  0  0  0
  -28.5810  -26.4123   22.1462 H   0  0  0  0  0  0
  1 25  1  0  0  0
  1 30  2  0  0  0
  1 88  1  0  0  0
  2  3  1  0  0  0
  2 25  1  0  0  0
  2 91  1  0  0  0
  2 92  1  0  0  0
  3  4  1  0  0  0
  3 93  1  0  0  0
  3 94  1  0  0  0
  4  5  1  0  0  0
  4 95  1  0  0  0
  4 96  1  0  0  0
  5  6  1  0  0  0
  5 26  1  0  0  0
  5 97  1  0  0  0
  6 25  1  0  0  0
  6 98  1  0  0  0
  6 99  1  0  0  0
  7  8  2  0  0  0
  7 26  1  0  0  0
  7 29  1  0  0  0
  8  9  1  0  0  0
  8 22  1  0  0  0
  9 10  1  0  0  0
  9 27  2  0  0  0
 10 11  2  0  0  0
 10 15  1  0  0  0
 11 12  1  0  0  0
 11100  1  0  0  0
 12 13  2  0  0  0
 12101  1  0  0  0
 13 14  1  0  0  0
 13 31  1  0  0  0
 14 15  2  0  0  0
 14102  1  0  0  0
 15103  1  0  0  0
 16 17  2  0  0  0
 16 21  1  0  0  0
 16 31  1  0  0  0
 17 18  1  0  0  0
 17104  1  0  0  0
 18 19  2  0  0  0
 18105  1  0  0  0
 19 20  1  0  0  0
 19 24  1  0  0  0
 20 21  2  0  0  0
 20106  1  0  0  0
 21 23  1  0  0  0
 22 28  1  0  0  0
 22 32  2  0  0  0
 26 27  1  0  0  0
 28107  1  0  0  0
 28108  1  0  0  0
 29109  1  0  0  0
 29110  1  0  0  0
 33 34  1  0  0  0
 33 66  1  0  0  0
 33 70  2  0  0  0
 34 36  1  0  0  0
 34 59  1  0  0  0
 34111  1  0  0  0
 35 44  2  0  0  0
 35 45  1  0  0  0
 35 68  1  0  0  0
 36 56  1  0  0  0
 36112  1  0  0  0
 37 39  1  0  0  0
 37 47  1  0  0  0
 37 66  1  0  0  0
 37113  1  0  0  0
 38 43  2  0  0  0
 38 46  1  0  0  0
 38 47  1  0  0  0
 39 64  1  0  0  0
 39 67  2  0  0  0
 40 52  1  0  0  0
 40 53  2  0  0  0
 40 58  1  0  0  0
 41114  1  0  0  0
 41115  1  0  0  0
 41116  1  0  0  0
 41 48  1  0  0  0
 42 43  1  0  0  0
 42 66  1  0  0  0
 42117  1  0  0  0
 42118  1  0  0  0
 43 44  1  0  0  0
 44119  1  0  0  0
 45 46  2  0  0  0
 45120  1  0  0  0
 46121  1  0  0  0
 47122  1  0  0  0
 47123  1  0  0  0
 48 56  1  0  0  0
 48 65  1  0  0  0
 48124  1  0  0  0
 49 50  1  0  0  0
 49 53  1  0  0  0
 49 64  1  0  0  0
 49125  1  0  0  0
 50 51  1  0  0  0
 50126  1  0  0  0
 50127  1  0  0  0
 51 52  1  0  0  0
 51128  1  0  0  0
 51129  1  0  0  0
 52130  1  0  0  0
 52131  1  0  0  0
 53 54  1  0  0  0
 54 55  2  0  0  0
 54132  1  0  0  0
 55 57  1  0  0  0
 55133  1  0  0  0
 56 69  2  0  0  0
 57 58  2  0  0  0
 57134  1  0  0  0
 58135  1  0  0  0
 59 60  1  0  0  0
 59 61  1  0  0  0
 59 62  1  0  0  0
 60136  1  0  0  0
 60137  1  0  0  0
 60138  1  0  0  0
 61139  1  0  0  0
 61140  1  0  0  0
 61141  1  0  0  0
 62142  1  0  0  0
 62143  1  0  0  0
 62144  1  0  0  0
 63 65  1  0  0  0
 63145  1  0  0  0
 63146  1  0  0  0
 63147  1  0  0  0
 64148  1  0  0  0
 65149  1  0  0  0
 68 87  1  0  0  0
 71 72  2  0  0  0
 71 74  1  0  0  0
 71150  1  0  0  0
 72 76  1  0  0  0
 72151  1  0  0  0
 73 75  1  0  0  0
 73 76  2  0  0  0
 73152  1  0  0  0
 74 75  2  0  0  0
 74 82  1  0  0  0
 75 81  1  0  0  0
 76 89  1  0  0  0
 77 78  2  0  0  0
 77 79  1  0  0  0
 77153  1  0  0  0
 78 85  1  0  0  0
 78 87  1  0  0  0
 79 83  1  0  0  0
 79 90  2  0  0  0
 80 81  2  0  0  0
 80154  1  0  0  0
 80155  1  0  0  0
 81156  1  0  0  0
 82 88  2  0  0  0
 82157  1  0  0  0
 83 84  1  0  0  0
 83158  1  0  0  0
 83159  1  0  0  0
 84 89  1  0  0  0
 84160  1  0  0  0
 84161  1  0  0  0
 85 86  1  0  0  0
 85 89  1  0  0  0
 85162  1  0  0  0
 86163  1  0  0  0
 86164  1  0  0  0
 86165  1  0  0  0
 87166  1  0  0  0
 87167  1  0  0  0
M  ISO  4   1 100  68 101  87 101  88 100
M  END
> <chiral flag>
0

> <version>
0

> <s_m_source_file>
/data/baiqing/PycharmProjects/Reinvent-master-3.2/result/LINK_invent/BTK/process_docking_weight1_custom_product_contain_oxygen_bond_distance_aromatic_linkinvent_7_9_3/rearranged_h_0116.sdf

> <i_m_source_file_index>
44

> <r_mmod_Potential_Energy-OPLS-2005>
53.2221183776855

> <r_mmod_Stretch_Energy-OPLS-2005>
63.2463417053223

> <r_mmod_Bend_Energy-OPLS-2005>
135.522308349609

> <r_mmod_Torsional_Energy-OPLS-2005>
216.567596435547

> <r_mmod_Improper_Torsional_Energy-OPLS-2005>
6.96758270263672

> <r_mmod_Van_der_Waal_Energy-OPLS-2005>
183.736999511719

> <r_mmod_Electrostatic_Energy-OPLS-2005>
-373.458831787109

> <r_mmod_Solvation_Energy-OPLS-2005>
-200.261291503906

> <b_mmod_Minimization_Converged-OPLS-2005>
0

> <r_mmod_RMS_Derivative-OPLS-2005>
2.02138018608093

$$$$
44
                    3D
 Structure written by MMmdl.
160168  0  0  1  0            999 V2000
  -30.7078  -14.4545   20.6058 C   0  0  0  0  0  0
  -30.4215  -12.3129   19.4070 C   0  0  0  0  0  0
  -29.4889  -12.5139   18.1961 C   0  0  0  0  0  0
  -28.0106  -12.3706   18.6096 C   0  0  0  0  0  0
  -27.6615  -13.2036   19.8719 C   0  0  2  0  0  0
  -28.7020  -12.9720   20.9889 C   0  0  0  0  0  0
  -25.2607  -13.8159   20.5649 C   0  0  0  0  0  0
  -24.1853  -13.0438   20.9153 C   0  0  0  0  0  0
  -24.6405  -11.6907   20.8724 C   0  0  0  0  0  0
  -23.9065  -10.4292   21.0402 C   0  0  0  0  0  0
  -24.3621   -9.4211   21.9184 C   0  0  0  0  0  0
  -23.6300   -8.2245   22.0759 C   0  0  0  0  0  0
  -22.4285   -8.0285   21.3543 C   0  0  0  0  0  0
  -21.9911   -9.0252   20.4640 C   0  0  0  0  0  0
  -22.7237  -10.2137   20.3049 C   0  0  0  0  0  0
  -21.6859   -6.0749   22.5284 C   0  0  0  0  0  0
  -21.4013   -6.5647   23.8217 C   0  0  0  0  0  0
  -21.3648   -5.6798   24.9175 C   0  0  0  0  0  0
  -21.6046   -4.3062   24.7225 C   0  0  0  0  0  0
  -21.8819   -3.8158   23.4342 C   0  0  0  0  0  0
  -21.9192   -4.6975   22.3402 C   0  0  0  0  0  0
  -22.7877  -13.5241   21.1825 C   0  0  0  0  0  0
  -22.1664   -4.2157   21.0981 F   0  0  0  0  0  0
  -21.5622   -3.4543   25.7737 F   0  0  0  0  0  0
  -30.0297  -13.2879   20.4356 N   0  0  0  0  0  0
  -26.3031  -12.9315   20.3343 N   0  0  0  0  0  0
  -25.9326  -11.6476   20.5743 N   0  0  0  0  0  0
  -22.0529  -12.8218   22.0384 N   0  0  0  0  0  0
  -25.4346  -15.1869   20.4050 N   0  0  0  0  0  0
  -31.8221  -14.6558   20.1125 O   0  0  0  0  0  0
  -21.6643   -6.8890   21.4248 O   0  0  0  0  0  0
  -22.3546  -14.5547   20.6688 O   0  0  0  0  0  0
  -24.6140  -31.8695   23.2120 C   0  0  0  0  0  0
  -25.9035  -32.4834   23.8417 C   0  0  1  0  0  0
  -27.2230  -27.4222   20.1013 C   0  0  0  0  0  0
  -25.5899  -33.8627   24.2351 N   0  0  0  0  0  0
  -23.4035  -30.4914   21.5539 C   0  0  2  0  0  0
  -24.8495  -28.9584   20.1163 C   0  0  0  0  0  0
  -22.7429  -29.4647   22.5012 C   0  0  0  0  0  0
  -18.0266  -28.1365   22.8483 C   0  0  0  0  0  0
  -24.1482  -36.7312   23.2630 C   0  0  0  0  0  0
  -25.9335  -30.8256   21.3706 C   0  0  0  0  0  0
  -26.0094  -29.4580   20.7235 C   0  0  0  0  0  0
  -27.2011  -28.6942   20.7216 C   0  0  0  0  0  0
  -26.0617  -26.9631   19.4509 C   0  0  0  0  0  0
  -24.8697  -27.7064   19.4798 C   0  0  0  0  0  0
  -23.6123  -29.8260   20.1669 C   0  0  0  0  0  0
  -25.4094  -36.3116   24.0336 C   0  0  1  0  0  0
  -20.5853  -28.3663   23.1308 C   0  0  2  0  0  0
  -20.6764  -26.9411   22.5403 C   0  0  0  0  0  0
  -19.5748  -26.6381   21.5190 C   0  0  0  0  0  0
  -18.1915  -26.7907   22.1598 C   0  0  0  0  0  0
  -19.1511  -28.8835   23.2881 C   0  0  0  0  0  0
  -18.9443  -30.1432   23.8903 C   0  0  0  0  0  0
  -17.6458  -30.6589   24.0559 C   0  0  0  0  0  0
  -25.9043  -34.9480   23.5145 C   0  0  0  0  0  0
  -16.5346  -29.9095   23.6326 C   0  0  0  0  0  0
  -16.7255  -28.6494   23.0355 C   0  0  0  0  0  0
  -26.4488  -31.6597   25.0724 C   0  0  0  0  0  0
  -25.3766  -31.3648   26.1470 C   0  0  0  0  0  0
  -27.0339  -30.3057   24.6079 C   0  0  0  0  0  0
  -27.6074  -32.4312   25.7493 C   0  0  0  0  0  0
  -27.5574  -37.1793   24.8461 C   0  0  0  0  0  0
  -21.4150  -29.3047   22.3752 N   0  0  0  0  0  0
  -26.4284  -37.3791   23.9413 N   0  0  0  0  0  0
  -24.6682  -31.0775   22.1034 N   0  0  0  0  0  0
  -23.4197  -28.8183   23.3054 O   0  0  0  0  0  0
  -28.3641  -26.6516   20.0783 O   0  0  0  0  0  0
  -26.5624  -34.8942   22.4719 O   0  0  0  0  0  0
  -23.5332  -32.1470   23.7500 O   0  0  0  0  0  0
  -29.7700  -19.0275   22.1757 C   0  0  0  0  0  0
  -29.2551  -20.2795   21.7854 C   0  0  0  0  0  0
  -29.1103  -19.4888   19.5024 C   0  0  0  0  0  0
  -29.9749  -17.9894   21.2393 C   0  0  0  0  0  0
  -28.9171  -20.5342   20.4345 C   0  0  0  0  0  0
  -29.6573  -18.2271   19.8776 C   0  0  0  0  0  0
  -28.5171  -22.8624   20.5716 C   0  0  0  0  0  0
  -26.2533  -23.9335   20.4690 C   0  0  0  0  0  0
  -29.8316  -17.5131   17.5821 C   0  0  0  0  0  0
  -30.6298  -16.6911   21.7426 C   0  0  0  0  0  0
  -28.3442  -25.4328   20.8596 C   0  0  0  0  0  0
  -27.7633  -24.1451   20.1795 C   0  0  1  0  0  0
  -28.3434  -21.7403   19.9766 N   0  0  0  0  0  0
  -30.0613  -15.4095   21.2989 N   0  0  0  0  0  0
  -29.9167  -17.2195   18.9718 O   0  0  0  0  0  0
  -31.4638  -12.4209   19.1012 H   0  0  0  0  0  0
  -30.3315  -11.2983   19.7974 H   0  0  0  0  0  0
  -29.7279  -11.7953   17.4108 H   0  0  0  0  0  0
  -29.6521  -13.5031   17.7654 H   0  0  0  0  0  0
  -27.8165  -11.3130   18.7961 H   0  0  0  0  0  0
  -27.3605  -12.6551   17.7816 H   0  0  0  0  0  0
  -27.7096  -14.2534   19.5822 H   0  0  0  0  0  0
  -28.6829  -11.9298   21.3104 H   0  0  0  0  0  0
  -28.4576  -13.5533   21.8783 H   0  0  0  0  0  0
  -25.2774   -9.5690   22.4744 H   0  0  0  0  0  0
  -24.0012   -7.4640   22.7479 H   0  0  0  0  0  0
  -21.0842   -8.8770   19.8939 H   0  0  0  0  0  0
  -22.3706  -10.9673   19.6147 H   0  0  0  0  0  0
  -21.2016   -7.6158   23.9721 H   0  0  0  0  0  0
  -21.1463   -6.0531   25.9078 H   0  0  0  0  0  0
  -22.0608   -2.7620   23.2844 H   0  0  0  0  0  0
  -22.4147  -11.9864   22.4729 H   0  0  0  0  0  0
  -21.1150  -13.1223   22.2619 H   0  0  0  0  0  0
  -24.6707  -15.8467   20.5040 H   0  0  0  0  0  0
  -26.2954  -15.6202   20.0942 H   0  0  0  0  0  0
  -26.7091  -32.5564   23.1170 H   0  0  0  0  0  0
  -25.0067  -33.9805   25.0513 H   0  0  0  0  0  0
  -22.6885  -31.3049   21.4157 H   0  0  0  0  0  0
  -23.3747  -35.9638   23.3291 H   0  0  0  0  0  0
  -24.3586  -36.8944   22.2047 H   0  0  0  0  0  0
  -23.7239  -37.6508   23.6670 H   0  0  0  0  0  0
  -26.0470  -31.5822   20.5917 H   0  0  0  0  0  0
  -26.8213  -30.8836   21.9887 H   0  0  0  0  0  0
  -28.0954  -29.0715   21.2002 H   0  0  0  0  0  0
  -26.0785  -26.0283   18.9126 H   0  0  0  0  0  0
  -23.9860  -27.3216   18.9905 H   0  0  0  0  0  0
  -23.7187  -30.6033   19.4095 H   0  0  0  0  0  0
  -22.7365  -29.2433   19.8750 H   0  0  0  0  0  0
  -25.1250  -36.1969   25.0824 H   0  0  0  0  0  0
  -20.9906  -28.3222   24.1439 H   0  0  0  0  0  0
  -20.5648  -26.2291   23.3602 H   0  0  0  0  0  0
  -21.6640  -26.7477   22.1201 H   0  0  0  0  0  0
  -19.6939  -25.6284   21.1231 H   0  0  0  0  0  0
  -19.6667  -27.3191   20.6715 H   0  0  0  0  0  0
  -17.4192  -26.6642   21.4002 H   0  0  0  0  0  0
  -18.0331  -26.0050   22.8995 H   0  0  0  0  0  0
  -19.7938  -30.7211   24.2308 H   0  0  0  0  0  0
  -17.5034  -31.6277   24.5156 H   0  0  0  0  0  0
  -15.5343  -30.3000   23.7672 H   0  0  0  0  0  0
  -15.8644  -28.0828   22.7076 H   0  0  0  0  0  0
  -24.5953  -30.6998   25.7777 H   0  0  0  0  0  0
  -24.8939  -32.2779   26.4961 H   0  0  0  0  0  0
  -25.8123  -30.8786   27.0209 H   0  0  0  0  0  0
  -26.2883  -29.6776   24.1200 H   0  0  0  0  0  0
  -27.4214  -29.7308   25.4498 H   0  0  0  0  0  0
  -27.8669  -30.4388   23.9172 H   0  0  0  0  0  0
  -27.2718  -33.3617   26.2074 H   0  0  0  0  0  0
  -28.3890  -32.6852   25.0322 H   0  0  0  0  0  0
  -28.0743  -31.8434   26.5408 H   0  0  0  0  0  0
  -28.2566  -38.0113   24.7554 H   0  0  0  0  0  0
  -28.1107  -36.2659   24.6231 H   0  0  0  0  0  0
  -27.2327  -37.1357   25.8871 H   0  0  0  0  0  0
  -20.9331  -29.8799   21.6989 H   0  0  0  0  0  0
  -26.0178  -38.2867   24.1420 H   0  0  0  0  0  0
  -30.0246  -18.8746   23.2156 H   0  0  0  0  0  0
  -29.1178  -21.0316   22.5497 H   0  0  0  0  0  0
  -28.8375  -19.6829   18.4759 H   0  0  0  0  0  0
  -29.1913  -22.9744   21.4257 H   0  0  0  0  0  0
  -25.7177  -23.6644   19.5562 H   0  0  0  0  0  0
  -25.7739  -24.8206   20.8776 H   0  0  0  0  0  0
  -26.0680  -23.1382   21.1948 H   0  0  0  0  0  0
  -30.3110  -16.7135   17.0185 H   0  0  0  0  0  0
  -30.3466  -18.4414   17.3237 H   0  0  0  0  0  0
  -28.7932  -17.5746   17.2531 H   0  0  0  0  0  0
  -30.5749  -16.6764   22.8321 H   0  0  0  0  0  0
  -31.6939  -16.7520   21.5123 H   0  0  0  0  0  0
  -29.3925  -25.2603   21.1065 H   0  0  0  0  0  0
  -27.8550  -25.6073   21.8194 H   0  0  0  0  0  0
  -27.8966  -24.2674   19.1029 H   0  0  0  0  0  0
  -29.1333  -15.1838   21.6235 H   0  0  0  0  0  0
  1 25  1  0  0  0
  1 30  2  0  0  0
  1 84  1  0  0  0
  2  3  1  0  0  0
  2 25  1  0  0  0
  2 86  1  0  0  0
  2 87  1  0  0  0
  3  4  1  0  0  0
  3 88  1  0  0  0
  3 89  1  0  0  0
  4  5  1  0  0  0
  4 90  1  0  0  0
  4 91  1  0  0  0
  5  6  1  0  0  0
  5 26  1  0  0  0
  5 92  1  0  0  0
  6 25  1  0  0  0
  6 93  1  0  0  0
  6 94  1  0  0  0
  7  8  2  0  0  0
  7 26  1  0  0  0
  7 29  1  0  0  0
  8  9  1  0  0  0
  8 22  1  0  0  0
  9 10  1  0  0  0
  9 27  2  0  0  0
 10 11  2  0  0  0
 10 15  1  0  0  0
 11 12  1  0  0  0
 11 95  1  0  0  0
 12 13  2  0  0  0
 12 96  1  0  0  0
 13 14  1  0  0  0
 13 31  1  0  0  0
 14 15  2  0  0  0
 14 97  1  0  0  0
 15 98  1  0  0  0
 16 17  2  0  0  0
 16 21  1  0  0  0
 16 31  1  0  0  0
 17 18  1  0  0  0
 17 99  1  0  0  0
 18 19  2  0  0  0
 18100  1  0  0  0
 19 20  1  0  0  0
 19 24  1  0  0  0
 20 21  2  0  0  0
 20101  1  0  0  0
 21 23  1  0  0  0
 22 28  1  0  0  0
 22 32  2  0  0  0
 26 27  1  0  0  0
 28102  1  0  0  0
 28103  1  0  0  0
 29104  1  0  0  0
 29105  1  0  0  0
 33 34  1  0  0  0
 33 66  1  0  0  0
 33 70  2  0  0  0
 34 36  1  0  0  0
 34 59  1  0  0  0
 34106  1  0  0  0
 35 44  2  0  0  0
 35 45  1  0  0  0
 35 68  1  0  0  0
 36 56  1  0  0  0
 36107  1  0  0  0
 37 39  1  0  0  0
 37 47  1  0  0  0
 37 66  1  0  0  0
 37108  1  0  0  0
 38 43  2  0  0  0
 38 46  1  0  0  0
 38 47  1  0  0  0
 39 64  1  0  0  0
 39 67  2  0  0  0
 40 52  1  0  0  0
 40 53  2  0  0  0
 40 58  1  0  0  0
 41109  1  0  0  0
 41110  1  0  0  0
 41111  1  0  0  0
 41 48  1  0  0  0
 42 43  1  0  0  0
 42 66  1  0  0  0
 42112  1  0  0  0
 42113  1  0  0  0
 43 44  1  0  0  0
 44114  1  0  0  0
 45 46  2  0  0  0
 45115  1  0  0  0
 46116  1  0  0  0
 47117  1  0  0  0
 47118  1  0  0  0
 48 56  1  0  0  0
 48 65  1  0  0  0
 48119  1  0  0  0
 49 50  1  0  0  0
 49 53  1  0  0  0
 49 64  1  0  0  0
 49120  1  0  0  0
 50 51  1  0  0  0
 50121  1  0  0  0
 50122  1  0  0  0
 51 52  1  0  0  0
 51123  1  0  0  0
 51124  1  0  0  0
 52125  1  0  0  0
 52126  1  0  0  0
 53 54  1  0  0  0
 54 55  2  0  0  0
 54127  1  0  0  0
 55 57  1  0  0  0
 55128  1  0  0  0
 56 69  2  0  0  0
 57 58  2  0  0  0
 57129  1  0  0  0
 58130  1  0  0  0
 59 60  1  0  0  0
 59 61  1  0  0  0
 59 62  1  0  0  0
 60131  1  0  0  0
 60132  1  0  0  0
 60133  1  0  0  0
 61134  1  0  0  0
 61135  1  0  0  0
 61136  1  0  0  0
 62137  1  0  0  0
 62138  1  0  0  0
 62139  1  0  0  0
 63 65  1  0  0  0
 63140  1  0  0  0
 63141  1  0  0  0
 63142  1  0  0  0
 64143  1  0  0  0
 65144  1  0  0  0
 68 81  1  0  0  0
 71 72  2  0  0  0
 71 74  1  0  0  0
 71145  1  0  0  0
 72 75  1  0  0  0
 72146  1  0  0  0
 73 75  2  0  0  0
 73 76  1  0  0  0
 73147  1  0  0  0
 74 76  2  0  0  0
 74 80  1  0  0  0
 75 83  1  0  0  0
 76 85  1  0  0  0
 77 82  1  0  0  0
 77 83  2  0  0  0
 77148  1  0  0  0
 78149  1  0  0  0
 78150  1  0  0  0
 78151  1  0  0  0
 78 82  1  0  0  0
 79 85  1  0  0  0
 79152  1  0  0  0
 79153  1  0  0  0
 79154  1  0  0  0
 80 84  1  0  0  0
 80155  1  0  0  0
 80156  1  0  0  0
 81 82  1  0  0  0
 81157  1  0  0  0
 81158  1  0  0  0
 82159  1  0  0  0
 84160  1  0  0  0
M  ISO  4   1 100  68 101  81 101  84 100
M  END
> <chiral flag>
0

> <version>
0

> <s_m_source_file>
/data/baiqing/PycharmProjects/Reinvent-master-3.2/result/LINK_invent/BTK/process_docking_weight1_custom_product_contain_oxygen_bond_distance_aromatic_linkinvent_7_9_3/rearranged_h_0116.sdf

> <i_m_source_file_index>
45

> <r_mmod_Potential_Energy-OPLS-2005>
-49.8615837097168

> <r_mmod_Stretch_Energy-OPLS-2005>
42.4901657104492

> <r_mmod_Bend_Energy-OPLS-2005>
115.514762878418

> <r_mmod_Torsional_Energy-OPLS-2005>
233.218978881836

> <r_mmod_Improper_Torsional_Energy-OPLS-2005>
2.52725386619568

> <r_mmod_Van_der_Waal_Energy-OPLS-2005>
164.239715576172

> <r_mmod_Electrostatic_Energy-OPLS-2005>
-403.958465576172

> <r_mmod_Solvation_Energy-OPLS-2005>
-216.279769897461

> <b_mmod_Minimization_Converged-OPLS-2005>
0

> <r_mmod_RMS_Derivative-OPLS-2005>
2.58957195281982

$$$$
45
                    3D
 Structure written by MMmdl.
155163  0  0  1  0            999 V2000
  -30.6452  -14.6685   20.4726 C   0  0  0  0  0  0
  -30.4257  -12.4084   19.4692 C   0  0  0  0  0  0
  -29.5080  -12.5127   18.2309 C   0  0  0  0  0  0
  -28.0313  -12.3453   18.6374 C   0  0  0  0  0  0
  -27.6421  -13.2272   19.8544 C   0  0  2  0  0  0
  -28.6855  -13.1303   20.9882 C   0  0  0  0  0  0
  -25.2515  -13.8170   20.5687 C   0  0  0  0  0  0
  -24.1801  -13.0419   20.9196 C   0  0  0  0  0  0
  -24.6370  -11.6900   20.8729 C   0  0  0  0  0  0
  -23.9035  -10.4287   21.0397 C   0  0  0  0  0  0
  -24.3603   -9.4204   21.9185 C   0  0  0  0  0  0
  -23.6290   -8.2229   22.0731 C   0  0  0  0  0  0
  -22.4272   -8.0273   21.3524 C   0  0  0  0  0  0
  -21.9903   -9.0241   20.4631 C   0  0  0  0  0  0
  -22.7212  -10.2130   20.3035 C   0  0  0  0  0  0
  -21.6842   -6.0741   22.5279 C   0  0  0  0  0  0
  -21.4021   -6.5646   23.8220 C   0  0  0  0  0  0
  -21.3665   -5.6781   24.9179 C   0  0  0  0  0  0
  -21.6038   -4.3042   24.7226 C   0  0  0  0  0  0
  -21.8821   -3.8139   23.4343 C   0  0  0  0  0  0
  -21.9196   -4.6964   22.3408 C   0  0  0  0  0  0
  -22.7839  -13.5226   21.1866 C   0  0  0  0  0  0
  -22.1667   -4.2144   21.0994 F   0  0  0  0  0  0
  -21.5609   -3.4544   25.7738 F   0  0  0  0  0  0
  -30.0004  -13.4563   20.4227 N   0  0  0  0  0  0
  -26.2933  -12.9361   20.3292 N   0  0  0  0  0  0
  -25.9303  -11.6506   20.5745 N   0  0  0  0  0  0
  -22.0468  -12.8246   22.0414 N   0  0  0  0  0  0
  -25.4203  -15.1890   20.4101 N   0  0  0  0  0  0
  -31.8383  -14.7314   20.1636 O   0  0  0  0  0  0
  -21.6636   -6.8879   21.4235 O   0  0  0  0  0  0
  -22.3557  -14.5544   20.6713 O   0  0  0  0  0  0
  -24.6250  -31.8621   23.2019 C   0  0  0  0  0  0
  -25.9094  -32.4789   23.8369 C   0  0  1  0  0  0
  -27.2198  -27.3161   20.1173 C   0  0  0  0  0  0
  -25.5915  -33.8592   24.2300 N   0  0  0  0  0  0
  -23.4182  -30.4845   21.5466 C   0  0  2  0  0  0
  -24.8603  -28.9370   20.1122 C   0  0  0  0  0  0
  -22.7474  -29.4638   22.4964 C   0  0  0  0  0  0
  -18.0281  -28.1401   22.8471 C   0  0  0  0  0  0
  -24.1487  -36.7306   23.2637 C   0  0  0  0  0  0
  -25.9563  -30.7909   21.3714 C   0  0  0  0  0  0
  -26.0278  -29.4166   20.7154 C   0  0  0  0  0  0
  -27.2056  -28.6148   20.7123 C   0  0  0  0  0  0
  -26.0191  -26.8809   19.5053 C   0  0  0  0  0  0
  -24.8562  -27.6743   19.5013 C   0  0  0  0  0  0
  -23.6315  -29.8204   20.1610 C   0  0  0  0  0  0
  -25.4113  -36.3093   24.0332 C   0  0  1  0  0  0
  -20.5880  -28.3697   23.1301 C   0  0  2  0  0  0
  -20.6775  -26.9431   22.5420 C   0  0  0  0  0  0
  -19.5764  -26.6397   21.5214 C   0  0  0  0  0  0
  -18.1934  -26.7947   22.1604 C   0  0  0  0  0  0
  -19.1529  -28.8869   23.2873 C   0  0  0  0  0  0
  -18.9455  -30.1466   23.8895 C   0  0  0  0  0  0
  -17.6458  -30.6594   24.0570 C   0  0  0  0  0  0
  -25.9041  -34.9461   23.5112 C   0  0  0  0  0  0
  -16.5351  -29.9092   23.6336 C   0  0  0  0  0  0
  -16.7270  -28.6518   23.0335 C   0  0  0  0  0  0
  -26.4476  -31.6593   25.0742 C   0  0  0  0  0  0
  -25.3721  -31.3750   26.1495 C   0  0  0  0  0  0
  -27.0298  -30.3016   24.6179 C   0  0  0  0  0  0
  -27.6073  -32.4301   25.7487 C   0  0  0  0  0  0
  -27.5594  -37.1795   24.8444 C   0  0  0  0  0  0
  -21.4192  -29.3042   22.3701 N   0  0  0  0  0  0
  -26.4279  -37.3796   23.9435 N   0  0  0  0  0  0
  -24.6862  -31.0625   22.0976 N   0  0  0  0  0  0
  -23.4199  -28.8188   23.3050 O   0  0  0  0  0  0
  -28.3635  -26.5054   20.1938 O   0  0  0  0  0  0
  -26.5623  -34.8918   22.4686 O   0  0  0  0  0  0
  -23.5414  -32.1426   23.7339 O   0  0  0  0  0  0
  -28.5640  -18.9552   20.1220 C   0  0  0  0  0  0
  -28.2069  -20.3240   19.9305 C   0  0  0  0  0  0
  -30.6275  -19.6741   21.1002 C   0  0  0  0  0  0
  -29.8276  -18.5869   20.6487 C   0  0  0  0  0  0
  -30.2799  -21.0532   20.9252 C   0  0  0  0  0  0
  -29.0552  -21.4146   20.2777 C   0  0  0  0  0  0
  -30.3918  -17.1672   20.6734 C   0  0  0  0  0  0
  -29.8213  -15.9169   20.6310 C   0  0  0  0  0  0
  -28.7144  -23.8827   20.3235 C   0  0  0  0  0  0
  -31.1804  -22.4935   22.8436 C   0  0  0  0  0  0
  -31.3149  -22.0872   21.3661 C   0  0  0  0  0  0
  -28.4821  -25.2072   19.4961 C   0  0  0  0  0  0
  -28.7149  -22.7115   19.7557 N   0  0  0  0  0  0
  -31.4701  -12.5131   19.1719 H   0  0  0  0  0  0
  -30.3465  -11.4205   19.9280 H   0  0  0  0  0  0
  -29.7810  -11.7604   17.4904 H   0  0  0  0  0  0
  -29.6483  -13.4829   17.7468 H   0  0  0  0  0  0
  -27.8738  -11.2931   18.8775 H   0  0  0  0  0  0
  -27.3776  -12.5624   17.7930 H   0  0  0  0  0  0
  -27.6409  -14.2544   19.4917 H   0  0  0  0  0  0
  -28.6967  -12.1266   21.4136 H   0  0  0  0  0  0
  -28.4330  -13.8005   21.8117 H   0  0  0  0  0  0
  -25.2737   -9.5673   22.4773 H   0  0  0  0  0  0
  -23.9989   -7.4611   22.7444 H   0  0  0  0  0  0
  -21.0821   -8.8725   19.8972 H   0  0  0  0  0  0
  -22.3632  -10.9652   19.6140 H   0  0  0  0  0  0
  -21.2029   -7.6155   23.9726 H   0  0  0  0  0  0
  -21.1486   -6.0516   25.9074 H   0  0  0  0  0  0
  -22.0606   -2.7604   23.2832 H   0  0  0  0  0  0
  -22.4085  -11.9933   22.4845 H   0  0  0  0  0  0
  -21.1069  -13.1257   22.2590 H   0  0  0  0  0  0
  -24.6473  -15.8365   20.5154 H   0  0  0  0  0  0
  -26.2691  -15.6305   20.0796 H   0  0  0  0  0  0
  -26.7172  -32.5468   23.1129 H   0  0  0  0  0  0
  -25.0034  -33.9747   25.0424 H   0  0  0  0  0  0
  -22.7091  -31.3026   21.4051 H   0  0  0  0  0  0
  -23.3761  -35.9614   23.3233 H   0  0  0  0  0  0
  -24.3598  -36.8999   22.2060 H   0  0  0  0  0  0
  -23.7187  -37.6466   23.6709 H   0  0  0  0  0  0
  -26.0780  -31.5508   20.5983 H   0  0  0  0  0  0
  -26.8407  -30.8454   21.9956 H   0  0  0  0  0  0
  -28.1014  -28.9772   21.1969 H   0  0  0  0  0  0
  -25.9201  -25.9098   19.0490 H   0  0  0  0  0  0
  -23.9532  -27.2968   19.0408 H   0  0  0  0  0  0
  -23.7548  -30.5978   19.4055 H   0  0  0  0  0  0
  -22.7494  -29.2534   19.8589 H   0  0  0  0  0  0
  -25.1270  -36.1941   25.0814 H   0  0  0  0  0  0
  -20.9931  -28.3263   24.1441 H   0  0  0  0  0  0
  -20.5676  -26.2315   23.3613 H   0  0  0  0  0  0
  -21.6653  -26.7472   22.1227 H   0  0  0  0  0  0
  -19.6932  -25.6303   21.1258 H   0  0  0  0  0  0
  -19.6719  -27.3200   20.6741 H   0  0  0  0  0  0
  -17.4218  -26.6696   21.3995 H   0  0  0  0  0  0
  -18.0315  -26.0097   22.8993 H   0  0  0  0  0  0
  -19.7936  -30.7284   24.2259 H   0  0  0  0  0  0
  -17.5015  -31.6272   24.5186 H   0  0  0  0  0  0
  -15.5351  -30.3001   23.7662 H   0  0  0  0  0  0
  -15.8663  -28.0847   22.7043 H   0  0  0  0  0  0
  -24.5783  -30.7248   25.7801 H   0  0  0  0  0  0
  -24.9062  -32.2941   26.5058 H   0  0  0  0  0  0
  -25.8020  -30.8770   27.0190 H   0  0  0  0  0  0
  -26.2864  -29.6779   24.1207 H   0  0  0  0  0  0
  -27.3997  -29.7259   25.4665 H   0  0  0  0  0  0
  -27.8729  -30.4303   23.9392 H   0  0  0  0  0  0
  -27.2726  -33.3592   26.2104 H   0  0  0  0  0  0
  -28.3851  -32.6865   25.0286 H   0  0  0  0  0  0
  -28.0776  -31.8400   26.5356 H   0  0  0  0  0  0
  -28.2546  -38.0150   24.7575 H   0  0  0  0  0  0
  -28.1141  -36.2697   24.6137 H   0  0  0  0  0  0
  -27.2345  -37.1267   25.8842 H   0  0  0  0  0  0
  -20.9371  -29.8778   21.6922 H   0  0  0  0  0  0
  -26.0153  -38.2855   24.1483 H   0  0  0  0  0  0
  -27.8909  -18.1871   19.7677 H   0  0  0  0  0  0
  -27.2704  -20.5307   19.4308 H   0  0  0  0  0  0
  -31.5873  -19.4457   21.5423 H   0  0  0  0  0  0
  -31.4742  -17.1730   20.6619 H   0  0  0  0  0  0
  -28.7451  -15.8509   20.6656 H   0  0  0  0  0  0
  -28.9007  -24.0238   21.3907 H   0  0  0  0  0  0
  -32.0000  -23.1510   23.1381 H   0  0  0  0  0  0
  -31.2125  -21.6248   23.5018 H   0  0  0  0  0  0
  -30.2481  -23.0233   23.0390 H   0  0  0  0  0  0
  -31.2800  -22.9672   20.7250 H   0  0  0  0  0  0
  -32.3136  -21.6736   21.2105 H   0  0  0  0  0  0
  -27.7089  -25.0208   18.7577 H   0  0  0  0  0  0
  -29.3760  -25.3215   18.8827 H   0  0  0  0  0  0
  1 25  1  0  0  0
  1 30  2  0  0  0
  1 78  1  0  0  0
  2  3  1  0  0  0
  2 25  1  0  0  0
  2 84  1  0  0  0
  2 85  1  0  0  0
  3  4  1  0  0  0
  3 86  1  0  0  0
  3 87  1  0  0  0
  4  5  1  0  0  0
  4 88  1  0  0  0
  4 89  1  0  0  0
  5  6  1  0  0  0
  5 26  1  0  0  0
  5 90  1  0  0  0
  6 25  1  0  0  0
  6 91  1  0  0  0
  6 92  1  0  0  0
  7  8  2  0  0  0
  7 26  1  0  0  0
  7 29  1  0  0  0
  8  9  1  0  0  0
  8 22  1  0  0  0
  9 10  1  0  0  0
  9 27  2  0  0  0
 10 11  2  0  0  0
 10 15  1  0  0  0
 11 12  1  0  0  0
 11 93  1  0  0  0
 12 13  2  0  0  0
 12 94  1  0  0  0
 13 14  1  0  0  0
 13 31  1  0  0  0
 14 15  2  0  0  0
 14 95  1  0  0  0
 15 96  1  0  0  0
 16 17  2  0  0  0
 16 21  1  0  0  0
 16 31  1  0  0  0
 17 18  1  0  0  0
 17 97  1  0  0  0
 18 19  2  0  0  0
 18 98  1  0  0  0
 19 20  1  0  0  0
 19 24  1  0  0  0
 20 21  2  0  0  0
 20 99  1  0  0  0
 21 23  1  0  0  0
 22 28  1  0  0  0
 22 32  2  0  0  0
 26 27  1  0  0  0
 28100  1  0  0  0
 28101  1  0  0  0
 29102  1  0  0  0
 29103  1  0  0  0
 33 34  1  0  0  0
 33 66  1  0  0  0
 33 70  2  0  0  0
 34 36  1  0  0  0
 34 59  1  0  0  0
 34104  1  0  0  0
 35 44  2  0  0  0
 35 45  1  0  0  0
 35 68  1  0  0  0
 36 56  1  0  0  0
 36105  1  0  0  0
 37 39  1  0  0  0
 37 47  1  0  0  0
 37 66  1  0  0  0
 37106  1  0  0  0
 38 43  2  0  0  0
 38 46  1  0  0  0
 38 47  1  0  0  0
 39 64  1  0  0  0
 39 67  2  0  0  0
 40 52  1  0  0  0
 40 53  2  0  0  0
 40 58  1  0  0  0
 41107  1  0  0  0
 41108  1  0  0  0
 41109  1  0  0  0
 41 48  1  0  0  0
 42 43  1  0  0  0
 42 66  1  0  0  0
 42110  1  0  0  0
 42111  1  0  0  0
 43 44  1  0  0  0
 44112  1  0  0  0
 45 46  2  0  0  0
 45113  1  0  0  0
 46114  1  0  0  0
 47115  1  0  0  0
 47116  1  0  0  0
 48 56  1  0  0  0
 48 65  1  0  0  0
 48117  1  0  0  0
 49 50  1  0  0  0
 49 53  1  0  0  0
 49 64  1  0  0  0
 49118  1  0  0  0
 50 51  1  0  0  0
 50119  1  0  0  0
 50120  1  0  0  0
 51 52  1  0  0  0
 51121  1  0  0  0
 51122  1  0  0  0
 52123  1  0  0  0
 52124  1  0  0  0
 53 54  1  0  0  0
 54 55  2  0  0  0
 54125  1  0  0  0
 55 57  1  0  0  0
 55126  1  0  0  0
 56 69  2  0  0  0
 57 58  2  0  0  0
 57127  1  0  0  0
 58128  1  0  0  0
 59 60  1  0  0  0
 59 61  1  0  0  0
 59 62  1  0  0  0
 60129  1  0  0  0
 60130  1  0  0  0
 60131  1  0  0  0
 61132  1  0  0  0
 61133  1  0  0  0
 61134  1  0  0  0
 62135  1  0  0  0
 62136  1  0  0  0
 62137  1  0  0  0
 63 65  1  0  0  0
 63138  1  0  0  0
 63139  1  0  0  0
 63140  1  0  0  0
 64141  1  0  0  0
 65142  1  0  0  0
 68 82  1  0  0  0
 71 72  2  0  0  0
 71 74  1  0  0  0
 71143  1  0  0  0
 72 76  1  0  0  0
 72144  1  0  0  0
 73 74  2  0  0  0
 73 75  1  0  0  0
 73145  1  0  0  0
 74 77  1  0  0  0
 75 76  2  0  0  0
 75 81  1  0  0  0
 76 83  1  0  0  0
 77 78  2  0  0  0
 77146  1  0  0  0
 78147  1  0  0  0
 79 82  1  0  0  0
 79 83  2  0  0  0
 79148  1  0  0  0
 80 81  1  0  0  0
 80149  1  0  0  0
 80150  1  0  0  0
 80151  1  0  0  0
 81152  1  0  0  0
 81153  1  0  0  0
 82154  1  0  0  0
 82155  1  0  0  0
M  ISO  4   1 100  68 101  78 100  82 101
M  END
> <chiral flag>
0

> <version>
0

> <s_m_source_file>
/data/baiqing/PycharmProjects/Reinvent-master-3.2/result/LINK_invent/BTK/process_docking_weight1_custom_product_contain_oxygen_bond_distance_aromatic_linkinvent_7_9_3/rearranged_h_0116.sdf

> <i_m_source_file_index>
46

> <r_mmod_Potential_Energy-OPLS-2005>
117.463661193848

> <r_mmod_Stretch_Energy-OPLS-2005>
81.9428176879883

> <r_mmod_Bend_Energy-OPLS-2005>
169.050308227539

> <r_mmod_Torsional_Energy-OPLS-2005>
206.304595947266

> <r_mmod_Improper_Torsional_Energy-OPLS-2005>
8.74657917022705

> <r_mmod_Van_der_Waal_Energy-OPLS-2005>
146.197814941406

> <r_mmod_Electrostatic_Energy-OPLS-2005>
-351.6630859375

> <r_mmod_Solvation_Energy-OPLS-2005>
-197.888931274414

> <b_mmod_Minimization_Converged-OPLS-2005>
0

> <r_mmod_RMS_Derivative-OPLS-2005>
3.12211585044861

$$$$
46
                    3D
 Structure written by MMmdl.
157165  0  0  1  0            999 V2000
  -30.6149  -14.5061   20.4112 C   0  0  0  0  0  0
  -30.4492  -12.2874   19.3987 C   0  0  0  0  0  0
  -29.4911  -12.4365   18.1929 C   0  0  0  0  0  0
  -28.0149  -12.2986   18.6279 C   0  0  0  0  0  0
  -27.6506  -13.1696   19.8572 C   0  0  2  0  0  0
  -28.7159  -13.0150   20.9749 C   0  0  0  0  0  0
  -25.2666  -13.8041   20.5724 C   0  0  0  0  0  0
  -24.1885  -13.0394   20.9215 C   0  0  0  0  0  0
  -24.6387  -11.6836   20.8792 C   0  0  0  0  0  0
  -23.9033  -10.4255   21.0437 C   0  0  0  0  0  0
  -24.3573   -9.4172   21.9221 C   0  0  0  0  0  0
  -23.6257   -8.2203   22.0758 C   0  0  0  0  0  0
  -22.4248   -8.0262   21.3522 C   0  0  0  0  0  0
  -21.9884   -9.0242   20.4645 C   0  0  0  0  0  0
  -22.7211  -10.2126   20.3078 C   0  0  0  0  0  0
  -21.6853   -6.0722   22.5259 C   0  0  0  0  0  0
  -21.4019   -6.5632   23.8204 C   0  0  0  0  0  0
  -21.3658   -5.6796   24.9174 C   0  0  0  0  0  0
  -21.6046   -4.3051   24.7238 C   0  0  0  0  0  0
  -21.8830   -3.8132   23.4362 C   0  0  0  0  0  0
  -21.9195   -4.6944   22.3416 C   0  0  0  0  0  0
  -22.7918  -13.5224   21.1837 C   0  0  0  0  0  0
  -22.1663   -4.2136   21.0992 F   0  0  0  0  0  0
  -21.5637   -3.4534   25.7751 F   0  0  0  0  0  0
  -30.0502  -13.2785   20.4037 N   0  0  0  0  0  0
  -26.3020  -12.9127   20.3380 N   0  0  0  0  0  0
  -25.9303  -11.6346   20.5851 N   0  0  0  0  0  0
  -22.0534  -12.8241   22.0402 N   0  0  0  0  0  0
  -25.4436  -15.1765   20.4085 N   0  0  0  0  0  0
  -31.8226  -14.7313   20.3004 O   0  0  0  0  0  0
  -21.6623   -6.8851   21.4212 O   0  0  0  0  0  0
  -22.3617  -14.5531   20.6677 O   0  0  0  0  0  0
  -24.6154  -31.8648   23.2062 C   0  0  0  0  0  0
  -25.9028  -32.4820   23.8371 C   0  0  1  0  0  0
  -27.2330  -27.4307   20.0700 C   0  0  0  0  0  0
  -25.5860  -33.8608   24.2322 N   0  0  0  0  0  0
  -23.4073  -30.4847   21.5518 C   0  0  2  0  0  0
  -24.8460  -28.9559   20.1159 C   0  0  0  0  0  0
  -22.7471  -29.4587   22.5022 C   0  0  0  0  0  0
  -18.0314  -28.1371   22.8422 C   0  0  0  0  0  0
  -24.1483  -36.7291   23.2643 C   0  0  0  0  0  0
  -25.9392  -30.8300   21.3654 C   0  0  0  0  0  0
  -26.0103  -29.4662   20.7046 C   0  0  0  0  0  0
  -27.2052  -28.7128   20.6714 C   0  0  0  0  0  0
  -26.0347  -26.9283   19.5017 C   0  0  0  0  0  0
  -24.8520  -27.6907   19.5120 C   0  0  0  0  0  0
  -23.6130  -29.8228   20.1649 C   0  0  0  0  0  0
  -25.4120  -36.3124   24.0340 C   0  0  1  0  0  0
  -20.5913  -28.3561   23.1296 C   0  0  2  0  0  0
  -20.6730  -26.9244   22.5579 C   0  0  0  0  0  0
  -19.5826  -26.6298   21.5185 C   0  0  0  0  0  0
  -18.1895  -26.7969   22.1420 C   0  0  0  0  0  0
  -19.1608  -28.8816   23.2764 C   0  0  0  0  0  0
  -18.9641  -30.1434   23.8740 C   0  0  0  0  0  0
  -17.6666  -30.6606   24.0533 C   0  0  0  0  0  0
  -25.9034  -34.9474   23.5154 C   0  0  0  0  0  0
  -16.5532  -29.9113   23.6432 C   0  0  0  0  0  0
  -16.7354  -28.6541   23.0387 C   0  0  0  0  0  0
  -26.4464  -31.6603   25.0703 C   0  0  0  0  0  0
  -25.3751  -31.3650   26.1462 C   0  0  0  0  0  0
  -27.0341  -30.3061   24.6114 C   0  0  0  0  0  0
  -27.6056  -32.4306   25.7463 C   0  0  0  0  0  0
  -27.5593  -37.1789   24.8477 C   0  0  0  0  0  0
  -21.4231  -29.2790   22.3588 N   0  0  0  0  0  0
  -26.4319  -37.3795   23.9398 N   0  0  0  0  0  0
  -24.6726  -31.0760   22.0966 N   0  0  0  0  0  0
  -23.4187  -28.8259   23.3215 O   0  0  0  0  0  0
  -28.4326  -26.7379   20.0454 O   0  0  0  0  0  0
  -26.5602  -34.8913   22.4725 O   0  0  0  0  0  0
  -23.5330  -32.1405   23.7438 O   0  0  0  0  0  0
  -28.0530  -18.5902   19.2613 C   0  0  0  0  0  0
  -28.5730  -17.2985   19.0984 C   0  0  0  0  0  0
  -29.7488  -17.4913   21.2172 C   0  0  0  0  0  0
  -28.3476  -19.3607   20.4026 C   0  0  0  0  0  0
  -29.1914  -18.7888   21.4014 C   0  0  0  0  0  0
  -29.4188  -16.7388   20.0717 C   0  0  0  0  0  0
  -27.7052  -20.7027   20.4254 C   0  0  0  0  0  0
  -28.1689  -21.8946   20.8600 C   0  0  0  0  0  0
  -29.4327  -19.4877   22.7256 C   0  0  0  0  0  0
  -27.3113  -23.1610   20.8138 C   0  0  0  0  0  0
  -28.0176  -24.5249   21.0371 C   0  0  0  0  0  0
  -28.4336  -25.3235   19.7754 C   0  0  0  0  0  0
  -29.7232  -15.3706   19.8955 N   0  0  0  0  0  0
  -31.4816  -12.4330   19.0668 H   0  0  0  0  0  0
  -30.3939  -11.2764   19.8124 H   0  0  0  0  0  0
  -29.7130  -11.6727   17.4444 H   0  0  0  0  0  0
  -29.6502  -13.3953   17.6958 H   0  0  0  0  0  0
  -27.8475  -11.2490   18.8704 H   0  0  0  0  0  0
  -27.3449  -12.5263   17.7942 H   0  0  0  0  0  0
  -27.6293  -14.1920   19.4947 H   0  0  0  0  0  0
  -28.6894  -12.0159   21.4156 H   0  0  0  0  0  0
  -28.5146  -13.7157   21.7855 H   0  0  0  0  0  0
  -25.2721   -9.5679   22.4789 H   0  0  0  0  0  0
  -23.9993   -7.4598   22.7467 H   0  0  0  0  0  0
  -21.0826   -8.8768   19.8925 H   0  0  0  0  0  0
  -22.3680  -10.9677   19.6192 H   0  0  0  0  0  0
  -21.2003   -7.6142   23.9705 H   0  0  0  0  0  0
  -21.1466   -6.0526   25.9087 H   0  0  0  0  0  0
  -22.0601   -2.7585   23.2876 H   0  0  0  0  0  0
  -22.4112  -11.9903   22.4802 H   0  0  0  0  0  0
  -21.1138  -13.1268   22.2538 H   0  0  0  0  0  0
  -24.6783  -15.8312   20.5215 H   0  0  0  0  0  0
  -26.3109  -15.6230   20.1388 H   0  0  0  0  0  0
  -26.7134  -32.5490   23.1148 H   0  0  0  0  0  0
  -25.0059  -33.9801   25.0491 H   0  0  0  0  0  0
  -22.6947  -31.2998   21.4125 H   0  0  0  0  0  0
  -23.3756  -35.9610   23.3343 H   0  0  0  0  0  0
  -24.3571  -36.8864   22.2056 H   0  0  0  0  0  0
  -23.7210  -37.6488   23.6632 H   0  0  0  0  0  0
  -26.0739  -31.6045   20.6092 H   0  0  0  0  0  0
  -26.8186  -30.8591   21.9971 H   0  0  0  0  0  0
  -28.1159  -29.1220   21.0889 H   0  0  0  0  0  0
  -25.9856  -25.9595   19.0253 H   0  0  0  0  0  0
  -23.9489  -27.3039   19.0551 H   0  0  0  0  0  0
  -23.7181  -30.5964   19.4055 H   0  0  0  0  0  0
  -22.7359  -29.2447   19.8718 H   0  0  0  0  0  0
  -25.1294  -36.2028   25.0830 H   0  0  0  0  0  0
  -20.9961  -28.3227   24.1452 H   0  0  0  0  0  0
  -20.5258  -26.2340   23.3863 H   0  0  0  0  0  0
  -21.6704  -26.6988   22.1697 H   0  0  0  0  0  0
  -19.7053  -25.6208   21.1278 H   0  0  0  0  0  0
  -19.6980  -27.3068   20.6731 H   0  0  0  0  0  0
  -17.4283  -26.7147   21.3625 H   0  0  0  0  0  0
  -17.9948  -25.9961   22.8575 H   0  0  0  0  0  0
  -19.8190  -30.7207   24.2056 H   0  0  0  0  0  0
  -17.5312  -31.6315   24.5118 H   0  0  0  0  0  0
  -15.5557  -30.2985   23.7960 H   0  0  0  0  0  0
  -15.8660  -28.0892   22.7272 H   0  0  0  0  0  0
  -24.5912  -30.7056   25.7741 H   0  0  0  0  0  0
  -24.8960  -32.2788   26.4981 H   0  0  0  0  0  0
  -25.8083  -30.8721   27.0190 H   0  0  0  0  0  0
  -26.2928  -29.6766   24.1228 H   0  0  0  0  0  0
  -27.4199  -29.7321   25.4552 H   0  0  0  0  0  0
  -27.8691  -30.4381   23.9242 H   0  0  0  0  0  0
  -27.2711  -33.3570   26.2140 H   0  0  0  0  0  0
  -28.3800  -32.6953   25.0249 H   0  0  0  0  0  0
  -28.0857  -31.8406   26.5296 H   0  0  0  0  0  0
  -28.2638  -38.0069   24.7511 H   0  0  0  0  0  0
  -28.1064  -36.2586   24.6337 H   0  0  0  0  0  0
  -27.2286  -37.1483   25.8879 H   0  0  0  0  0  0
  -20.9430  -29.8076   21.6422 H   0  0  0  0  0  0
  -26.0219  -38.2872   24.1396 H   0  0  0  0  0  0
  -27.3885  -18.9722   18.4975 H   0  0  0  0  0  0
  -28.2836  -16.7285   18.2245 H   0  0  0  0  0  0
  -30.3684  -17.0368   21.9771 H   0  0  0  0  0  0
  -26.6947  -20.7031   20.0425 H   0  0  0  0  0  0
  -29.1648  -21.9844   21.2622 H   0  0  0  0  0  0
  -29.7707  -18.7933   23.4927 H   0  0  0  0  0  0
  -28.5043  -19.9355   23.0855 H   0  0  0  0  0  0
  -30.1774  -20.2724   22.6225 H   0  0  0  0  0  0
  -26.5777  -23.0429   21.6140 H   0  0  0  0  0  0
  -26.7371  -23.1827   19.8869 H   0  0  0  0  0  0
  -28.8608  -24.4291   21.7238 H   0  0  0  0  0  0
  -27.2960  -25.1436   21.5709 H   0  0  0  0  0  0
  -27.8487  -25.0772   18.8901 H   0  0  0  0  0  0
  -29.4495  -25.0398   19.5052 H   0  0  0  0  0  0
  -28.9827  -14.8694   19.4381 H   0  0  0  0  0  0
  1 25  1  0  0  0
  1 30  2  0  0  0
  1 83  1  0  0  0
  2  3  1  0  0  0
  2 25  1  0  0  0
  2 84  1  0  0  0
  2 85  1  0  0  0
  3  4  1  0  0  0
  3 86  1  0  0  0
  3 87  1  0  0  0
  4  5  1  0  0  0
  4 88  1  0  0  0
  4 89  1  0  0  0
  5  6  1  0  0  0
  5 26  1  0  0  0
  5 90  1  0  0  0
  6 25  1  0  0  0
  6 91  1  0  0  0
  6 92  1  0  0  0
  7  8  2  0  0  0
  7 26  1  0  0  0
  7 29  1  0  0  0
  8  9  1  0  0  0
  8 22  1  0  0  0
  9 10  1  0  0  0
  9 27  2  0  0  0
 10 11  2  0  0  0
 10 15  1  0  0  0
 11 12  1  0  0  0
 11 93  1  0  0  0
 12 13  2  0  0  0
 12 94  1  0  0  0
 13 14  1  0  0  0
 13 31  1  0  0  0
 14 15  2  0  0  0
 14 95  1  0  0  0
 15 96  1  0  0  0
 16 17  2  0  0  0
 16 21  1  0  0  0
 16 31  1  0  0  0
 17 18  1  0  0  0
 17 97  1  0  0  0
 18 19  2  0  0  0
 18 98  1  0  0  0
 19 20  1  0  0  0
 19 24  1  0  0  0
 20 21  2  0  0  0
 20 99  1  0  0  0
 21 23  1  0  0  0
 22 28  1  0  0  0
 22 32  2  0  0  0
 26 27  1  0  0  0
 28100  1  0  0  0
 28101  1  0  0  0
 29102  1  0  0  0
 29103  1  0  0  0
 33 34  1  0  0  0
 33 66  1  0  0  0
 33 70  2  0  0  0
 34 36  1  0  0  0
 34 59  1  0  0  0
 34104  1  0  0  0
 35 44  2  0  0  0
 35 45  1  0  0  0
 35 68  1  0  0  0
 36 56  1  0  0  0
 36105  1  0  0  0
 37 39  1  0  0  0
 37 47  1  0  0  0
 37 66  1  0  0  0
 37106  1  0  0  0
 38 43  2  0  0  0
 38 46  1  0  0  0
 38 47  1  0  0  0
 39 64  1  0  0  0
 39 67  2  0  0  0
 40 52  1  0  0  0
 40 53  2  0  0  0
 40 58  1  0  0  0
 41107  1  0  0  0
 41108  1  0  0  0
 41109  1  0  0  0
 41 48  1  0  0  0
 42 43  1  0  0  0
 42 66  1  0  0  0
 42110  1  0  0  0
 42111  1  0  0  0
 43 44  1  0  0  0
 44112  1  0  0  0
 45 46  2  0  0  0
 45113  1  0  0  0
 46114  1  0  0  0
 47115  1  0  0  0
 47116  1  0  0  0
 48 56  1  0  0  0
 48 65  1  0  0  0
 48117  1  0  0  0
 49 50  1  0  0  0
 49 53  1  0  0  0
 49 64  1  0  0  0
 49118  1  0  0  0
 50 51  1  0  0  0
 50119  1  0  0  0
 50120  1  0  0  0
 51 52  1  0  0  0
 51121  1  0  0  0
 51122  1  0  0  0
 52123  1  0  0  0
 52124  1  0  0  0
 53 54  1  0  0  0
 54 55  2  0  0  0
 54125  1  0  0  0
 55 57  1  0  0  0
 55126  1  0  0  0
 56 69  2  0  0  0
 57 58  2  0  0  0
 57127  1  0  0  0
 58128  1  0  0  0
 59 60  1  0  0  0
 59 61  1  0  0  0
 59 62  1  0  0  0
 60129  1  0  0  0
 60130  1  0  0  0
 60131  1  0  0  0
 61132  1  0  0  0
 61133  1  0  0  0
 61134  1  0  0  0
 62135  1  0  0  0
 62136  1  0  0  0
 62137  1  0  0  0
 63 65  1  0  0  0
 63138  1  0  0  0
 63139  1  0  0  0
 63140  1  0  0  0
 64141  1  0  0  0
 65142  1  0  0  0
 68 82  1  0  0  0
 71 72  2  0  0  0
 71 74  1  0  0  0
 71143  1  0  0  0
 72 76  1  0  0  0
 72144  1  0  0  0
 73 75  1  0  0  0
 73 76  2  0  0  0
 73145  1  0  0  0
 74 75  2  0  0  0
 74 77  1  0  0  0
 75 79  1  0  0  0
 76 83  1  0  0  0
 77 78  2  0  0  0
 77146  1  0  0  0
 78 80  1  0  0  0
 78147  1  0  0  0
 79148  1  0  0  0
 79149  1  0  0  0
 79150  1  0  0  0
 80 81  1  0  0  0
 80151  1  0  0  0
 80152  1  0  0  0
 81 82  1  0  0  0
 81153  1  0  0  0
 81154  1  0  0  0
 82155  1  0  0  0
 82156  1  0  0  0
 83157  1  0  0  0
M  ISO  4   1 100  68 101  82 101  83 100
M  END
> <chiral flag>
0

> <version>
0

> <s_m_source_file>
/data/baiqing/PycharmProjects/Reinvent-master-3.2/result/LINK_invent/BTK/process_docking_weight1_custom_product_contain_oxygen_bond_distance_aromatic_linkinvent_7_9_3/rearranged_h_0116.sdf

> <i_m_source_file_index>
47

> <r_mmod_Potential_Energy-OPLS-2005>
81.3950805664062

> <r_mmod_Stretch_Energy-OPLS-2005>
37.1498908996582

> <r_mmod_Bend_Energy-OPLS-2005>
136.398223876953

> <r_mmod_Torsional_Energy-OPLS-2005>
273.620971679688

> <r_mmod_Improper_Torsional_Energy-OPLS-2005>
24.4547576904297

> <r_mmod_Van_der_Waal_Energy-OPLS-2005>
151.184188842773

> <r_mmod_Electrostatic_Energy-OPLS-2005>
-370.749938964844

> <r_mmod_Solvation_Energy-OPLS-2005>
-201.010528564453

> <b_mmod_Minimization_Converged-OPLS-2005>
0

> <r_mmod_RMS_Derivative-OPLS-2005>
7.73432207107544

$$$$
47
                    3D
 Structure written by MMmdl.
152160  0  0  1  0            999 V2000
  -30.6407  -14.6857   20.4445 C   0  0  0  0  0  0
  -30.4265  -12.4082   19.4779 C   0  0  0  0  0  0
  -29.5150  -12.5021   18.2347 C   0  0  0  0  0  0
  -28.0364  -12.3362   18.6385 C   0  0  0  0  0  0
  -27.6436  -13.2280   19.8468 C   0  0  2  0  0  0
  -28.6853  -13.1470   20.9837 C   0  0  0  0  0  0
  -25.2528  -13.8189   20.5683 C   0  0  0  0  0  0
  -24.1813  -13.0437   20.9197 C   0  0  0  0  0  0
  -24.6394  -11.6911   20.8729 C   0  0  0  0  0  0
  -23.9066  -10.4293   21.0409 C   0  0  0  0  0  0
  -24.3616   -9.4210   21.9188 C   0  0  0  0  0  0
  -23.6295   -8.2246   22.0757 C   0  0  0  0  0  0
  -22.4275   -8.0283   21.3548 C   0  0  0  0  0  0
  -21.9911   -9.0257   20.4652 C   0  0  0  0  0  0
  -22.7238  -10.2136   20.3060 C   0  0  0  0  0  0
  -21.6855   -6.0737   22.5279 C   0  0  0  0  0  0
  -21.4017   -6.5639   23.8212 C   0  0  0  0  0  0
  -21.3659   -5.6792   24.9175 C   0  0  0  0  0  0
  -21.6044   -4.3055   24.7228 C   0  0  0  0  0  0
  -21.8816   -3.8147   23.4346 C   0  0  0  0  0  0
  -21.9193   -4.6966   22.3404 C   0  0  0  0  0  0
  -22.7834  -13.5228   21.1863 C   0  0  0  0  0  0
  -22.1658   -4.2149   21.0979 F   0  0  0  0  0  0
  -21.5632   -3.4535   25.7740 F   0  0  0  0  0  0
  -29.9997  -13.4698   20.4159 N   0  0  0  0  0  0
  -26.2947  -12.9387   20.3241 N   0  0  0  0  0  0
  -25.9323  -11.6531   20.5716 N   0  0  0  0  0  0
  -22.0475  -12.8226   22.0419 N   0  0  0  0  0  0
  -25.4224  -15.1914   20.4124 N   0  0  0  0  0  0
  -31.8410  -14.7383   20.1604 O   0  0  0  0  0  0
  -21.6639   -6.8885   21.4243 O   0  0  0  0  0  0
  -22.3524  -14.5535   20.6713 O   0  0  0  0  0  0
  -24.6261  -31.8587   23.2020 C   0  0  0  0  0  0
  -25.9105  -32.4770   23.8354 C   0  0  1  0  0  0
  -27.2285  -27.3129   20.1050 C   0  0  0  0  0  0
  -25.5918  -33.8572   24.2276 N   0  0  0  0  0  0
  -23.4198  -30.4821   21.5451 C   0  0  2  0  0  0
  -24.8654  -28.9358   20.1108 C   0  0  0  0  0  0
  -22.7472  -29.4614   22.4939 C   0  0  0  0  0  0
  -18.0281  -28.1387   22.8481 C   0  0  0  0  0  0
  -24.1484  -36.7288   23.2644 C   0  0  0  0  0  0
  -25.9608  -30.7876   21.3722 C   0  0  0  0  0  0
  -26.0341  -29.4141   20.7141 C   0  0  0  0  0  0
  -27.2138  -28.6120   20.7050 C   0  0  0  0  0  0
  -26.0250  -26.8790   19.4999 C   0  0  0  0  0  0
  -24.8628  -27.6734   19.4992 C   0  0  0  0  0  0
  -23.6337  -29.8164   20.1603 C   0  0  0  0  0  0
  -25.4108  -36.3077   24.0332 C   0  0  1  0  0  0
  -20.5881  -28.3683   23.1290 C   0  0  2  0  0  0
  -20.6763  -26.9406   22.5418 C   0  0  0  0  0  0
  -19.5745  -26.6382   21.5212 C   0  0  0  0  0  0
  -18.1923  -26.7930   22.1619 C   0  0  0  0  0  0
  -19.1535  -28.8851   23.2880 C   0  0  0  0  0  0
  -18.9457  -30.1454   23.8894 C   0  0  0  0  0  0
  -17.6459  -30.6588   24.0560 C   0  0  0  0  0  0
  -25.9047  -34.9446   23.5102 C   0  0  0  0  0  0
  -16.5348  -29.9087   23.6334 C   0  0  0  0  0  0
  -16.7268  -28.6508   23.0347 C   0  0  0  0  0  0
  -26.4493  -31.6585   25.0726 C   0  0  0  0  0  0
  -25.3733  -31.3714   26.1459 C   0  0  0  0  0  0
  -27.0336  -30.3010   24.6176 C   0  0  0  0  0  0
  -27.6060  -32.4317   25.7492 C   0  0  0  0  0  0
  -27.5575  -37.1796   24.8464 C   0  0  0  0  0  0
  -21.4184  -29.3035   22.3685 N   0  0  0  0  0  0
  -26.4285  -37.3775   23.9414 N   0  0  0  0  0  0
  -24.6880  -31.0595   22.0967 N   0  0  0  0  0  0
  -23.4197  -28.8157   23.3022 O   0  0  0  0  0  0
  -28.3686  -26.4917   20.1737 O   0  0  0  0  0  0
  -26.5623  -34.8919   22.4673 O   0  0  0  0  0  0
  -23.5424  -32.1387   23.7345 O   0  0  0  0  0  0
  -30.1795  -19.6485   21.2285 C   0  0  0  0  0  0
  -29.8087  -21.0154   21.0383 C   0  0  0  0  0  0
  -29.7433  -18.6142   20.3509 C   0  0  0  0  0  0
  -28.8895  -19.0737   19.3051 C   0  0  0  0  0  0
  -28.9892  -21.3803   19.9470 C   0  0  0  0  0  0
  -27.7633  -18.4889   17.1352 C   0  0  0  0  0  0
  -30.3517  -17.2046   20.4353 C   0  0  0  0  0  0
  -28.4143  -18.1423   18.2610 C   0  0  0  0  0  0
  -29.8126  -15.9382   20.5536 C   0  0  0  0  0  0
  -28.7702  -23.8527   20.1320 C   0  0  0  0  0  0
  -28.5085  -25.2333   19.4005 C   0  0  0  0  0  0
  -28.5432  -20.3909   19.1347 N   0  0  0  0  0  0
  -28.6529  -22.7107   19.5165 N   0  0  0  0  0  0
  -31.4745  -12.5007   19.1877 H   0  0  0  0  0  0
  -30.3348  -11.4280   19.9477 H   0  0  0  0  0  0
  -29.7937  -11.7406   17.5046 H   0  0  0  0  0  0
  -29.6589  -13.4661   17.7433 H   0  0  0  0  0  0
  -27.8802  -11.2865   18.8881 H   0  0  0  0  0  0
  -27.3864  -12.5454   17.7884 H   0  0  0  0  0  0
  -27.6407  -14.2503   19.4707 H   0  0  0  0  0  0
  -28.7014  -12.1500   21.4259 H   0  0  0  0  0  0
  -28.4306  -13.8318   21.7942 H   0  0  0  0  0  0
  -25.2764   -9.5697   22.4755 H   0  0  0  0  0  0
  -24.0011   -7.4640   22.7472 H   0  0  0  0  0  0
  -21.0845   -8.8780   19.8952 H   0  0  0  0  0  0
  -22.3706  -10.9675   19.6164 H   0  0  0  0  0  0
  -21.2006   -7.6149   23.9719 H   0  0  0  0  0  0
  -21.1485   -6.0521   25.9081 H   0  0  0  0  0  0
  -22.0595   -2.7610   23.2842 H   0  0  0  0  0  0
  -22.4077  -11.9887   22.4820 H   0  0  0  0  0  0
  -21.1093  -13.1265   22.2607 H   0  0  0  0  0  0
  -24.6540  -15.8438   20.5273 H   0  0  0  0  0  0
  -26.2740  -15.6354   20.0939 H   0  0  0  0  0  0
  -26.7172  -32.5437   23.1104 H   0  0  0  0  0  0
  -25.0037  -33.9718   25.0401 H   0  0  0  0  0  0
  -22.7130  -31.3020   21.4025 H   0  0  0  0  0  0
  -23.3749  -35.9617   23.3299 H   0  0  0  0  0  0
  -24.3568  -36.8915   22.2058 H   0  0  0  0  0  0
  -23.7234  -37.6486   23.6669 H   0  0  0  0  0  0
  -26.0903  -31.5513   20.6042 H   0  0  0  0  0  0
  -26.8412  -30.8375   22.0010 H   0  0  0  0  0  0
  -28.1111  -28.9764   21.1855 H   0  0  0  0  0  0
  -25.9248  -25.9037   19.0521 H   0  0  0  0  0  0
  -23.9608  -27.2937   19.0390 H   0  0  0  0  0  0
  -23.7519  -30.5921   19.4028 H   0  0  0  0  0  0
  -22.7533  -29.2456   19.8598 H   0  0  0  0  0  0
  -25.1288  -36.1925   25.0825 H   0  0  0  0  0  0
  -20.9966  -28.3257   24.1415 H   0  0  0  0  0  0
  -20.5649  -26.2296   23.3617 H   0  0  0  0  0  0
  -21.6636  -26.7426   22.1226 H   0  0  0  0  0  0
  -19.6904  -25.6291   21.1247 H   0  0  0  0  0  0
  -19.6691  -27.3189   20.6740 H   0  0  0  0  0  0
  -17.4195  -26.6678   21.4017 H   0  0  0  0  0  0
  -18.0319  -26.0073   22.9018 H   0  0  0  0  0  0
  -19.7931  -30.7266   24.2267 H   0  0  0  0  0  0
  -17.5014  -31.6265   24.5161 H   0  0  0  0  0  0
  -15.5347  -30.2985   23.7659 H   0  0  0  0  0  0
  -15.8670  -28.0827   22.7058 H   0  0  0  0  0  0
  -24.5891  -30.7087   25.7780 H   0  0  0  0  0  0
  -24.8945  -32.2878   26.4922 H   0  0  0  0  0  0
  -25.8061  -30.8856   27.0213 H   0  0  0  0  0  0
  -26.2905  -29.6756   24.1212 H   0  0  0  0  0  0
  -27.4049  -29.7270   25.4678 H   0  0  0  0  0  0
  -27.8772  -30.4297   23.9388 H   0  0  0  0  0  0
  -27.2675  -33.3615   26.2078 H   0  0  0  0  0  0
  -28.3864  -32.6878   25.0312 H   0  0  0  0  0  0
  -28.0739  -31.8435   26.5397 H   0  0  0  0  0  0
  -28.2593  -38.0093   24.7508 H   0  0  0  0  0  0
  -28.1065  -36.2620   24.6282 H   0  0  0  0  0  0
  -27.2292  -37.1446   25.8868 H   0  0  0  0  0  0
  -20.9362  -29.8762   21.6899 H   0  0  0  0  0  0
  -26.0159  -38.2847   24.1419 H   0  0  0  0  0  0
  -30.8562  -19.4022   22.0338 H   0  0  0  0  0  0
  -30.2089  -21.7671   21.7046 H   0  0  0  0  0  0
  -27.4498  -17.7398   16.4236 H   0  0  0  0  0  0
  -27.5353  -19.5196   16.9042 H   0  0  0  0  0  0
  -31.4264  -17.2356   20.3162 H   0  0  0  0  0  0
  -28.6032  -17.0925   18.4211 H   0  0  0  0  0  0
  -28.7458  -15.8542   20.6891 H   0  0  0  0  0  0
  -29.0912  -23.9304   21.1736 H   0  0  0  0  0  0
  -27.7335  -25.0862   18.6549 H   0  0  0  0  0  0
  -29.3953  -25.4044   18.7895 H   0  0  0  0  0  0
  1 25  1  0  0  0
  1 30  2  0  0  0
  1 79  1  0  0  0
  2  3  1  0  0  0
  2 25  1  0  0  0
  2 84  1  0  0  0
  2 85  1  0  0  0
  3  4  1  0  0  0
  3 86  1  0  0  0
  3 87  1  0  0  0
  4  5  1  0  0  0
  4 88  1  0  0  0
  4 89  1  0  0  0
  5  6  1  0  0  0
  5 26  1  0  0  0
  5 90  1  0  0  0
  6 25  1  0  0  0
  6 91  1  0  0  0
  6 92  1  0  0  0
  7  8  2  0  0  0
  7 26  1  0  0  0
  7 29  1  0  0  0
  8  9  1  0  0  0
  8 22  1  0  0  0
  9 10  1  0  0  0
  9 27  2  0  0  0
 10 11  2  0  0  0
 10 15  1  0  0  0
 11 12  1  0  0  0
 11 93  1  0  0  0
 12 13  2  0  0  0
 12 94  1  0  0  0
 13 14  1  0  0  0
 13 31  1  0  0  0
 14 15  2  0  0  0
 14 95  1  0  0  0
 15 96  1  0  0  0
 16 17  2  0  0  0
 16 21  1  0  0  0
 16 31  1  0  0  0
 17 18  1  0  0  0
 17 97  1  0  0  0
 18 19  2  0  0  0
 18 98  1  0  0  0
 19 20  1  0  0  0
 19 24  1  0  0  0
 20 21  2  0  0  0
 20 99  1  0  0  0
 21 23  1  0  0  0
 22 28  1  0  0  0
 22 32  2  0  0  0
 26 27  1  0  0  0
 28100  1  0  0  0
 28101  1  0  0  0
 29102  1  0  0  0
 29103  1  0  0  0
 33 34  1  0  0  0
 33 66  1  0  0  0
 33 70  2  0  0  0
 34 36  1  0  0  0
 34 59  1  0  0  0
 34104  1  0  0  0
 35 44  2  0  0  0
 35 45  1  0  0  0
 35 68  1  0  0  0
 36 56  1  0  0  0
 36105  1  0  0  0
 37 39  1  0  0  0
 37 47  1  0  0  0
 37 66  1  0  0  0
 37106  1  0  0  0
 38 43  2  0  0  0
 38 46  1  0  0  0
 38 47  1  0  0  0
 39 64  1  0  0  0
 39 67  2  0  0  0
 40 52  1  0  0  0
 40 53  2  0  0  0
 40 58  1  0  0  0
 41107  1  0  0  0
 41108  1  0  0  0
 41109  1  0  0  0
 41 48  1  0  0  0
 42 43  1  0  0  0
 42 66  1  0  0  0
 42110  1  0  0  0
 42111  1  0  0  0
 43 44  1  0  0  0
 44112  1  0  0  0
 45 46  2  0  0  0
 45113  1  0  0  0
 46114  1  0  0  0
 47115  1  0  0  0
 47116  1  0  0  0
 48 56  1  0  0  0
 48 65  1  0  0  0
 48117  1  0  0  0
 49 50  1  0  0  0
 49 53  1  0  0  0
 49 64  1  0  0  0
 49118  1  0  0  0
 50 51  1  0  0  0
 50119  1  0  0  0
 50120  1  0  0  0
 51 52  1  0  0  0
 51121  1  0  0  0
 51122  1  0  0  0
 52123  1  0  0  0
 52124  1  0  0  0
 53 54  1  0  0  0
 54 55  2  0  0  0
 54125  1  0  0  0
 55 57  1  0  0  0
 55126  1  0  0  0
 56 69  2  0  0  0
 57 58  2  0  0  0
 57127  1  0  0  0
 58128  1  0  0  0
 59 60  1  0  0  0
 59 61  1  0  0  0
 59 62  1  0  0  0
 60129  1  0  0  0
 60130  1  0  0  0
 60131  1  0  0  0
 61132  1  0  0  0
 61133  1  0  0  0
 61134  1  0  0  0
 62135  1  0  0  0
 62136  1  0  0  0
 62137  1  0  0  0
 63 65  1  0  0  0
 63138  1  0  0  0
 63139  1  0  0  0
 63140  1  0  0  0
 64141  1  0  0  0
 65142  1  0  0  0
 68 81  1  0  0  0
 71 72  2  0  0  0
 71 73  1  0  0  0
 71143  1  0  0  0
 72 75  1  0  0  0
 72144  1  0  0  0
 73 74  2  0  0  0
 73 77  1  0  0  0
 74 78  1  0  0  0
 74 82  1  0  0  0
 75 82  2  0  0  0
 75 83  1  0  0  0
 76 78  2  0  0  0
 76145  1  0  0  0
 76146  1  0  0  0
 77 79  2  0  0  0
 77147  1  0  0  0
 78148  1  0  0  0
 79149  1  0  0  0
 80 81  1  0  0  0
 80 83  2  0  0  0
 80150  1  0  0  0
 81151  1  0  0  0
 81152  1  0  0  0
M  ISO  4   1 100  68 101  79 100  81 101
M  END
> <chiral flag>
0

> <version>
0

> <s_m_source_file>
/data/baiqing/PycharmProjects/Reinvent-master-3.2/result/LINK_invent/BTK/process_docking_weight1_custom_product_contain_oxygen_bond_distance_aromatic_linkinvent_7_9_3/rearranged_h_0116.sdf

> <i_m_source_file_index>
48

> <r_mmod_Potential_Energy-OPLS-2005>
-12.2454433441162

> <r_mmod_Stretch_Energy-OPLS-2005>
87.3567428588867

> <r_mmod_Bend_Energy-OPLS-2005>
174.011917114258

> <r_mmod_Torsional_Energy-OPLS-2005>
209.57307434082

> <r_mmod_Improper_Torsional_Energy-OPLS-2005>
8.40650749206543

> <r_mmod_Van_der_Waal_Energy-OPLS-2005>
151.610549926758

> <r_mmod_Electrostatic_Energy-OPLS-2005>
-487.868927001953

> <r_mmod_Solvation_Energy-OPLS-2005>
-214.621322631836

> <b_mmod_Minimization_Converged-OPLS-2005>
0

> <r_mmod_RMS_Derivative-OPLS-2005>
1.08896553516388

$$$$
48
                    3D
 Structure written by MMmdl.
156164  0  0  1  0            999 V2000
  -30.5793  -14.7787   20.5012 C   0  0  0  0  0  0
  -30.4347  -12.4828   19.4872 C   0  0  0  0  0  0
  -29.5051  -12.5292   18.2506 C   0  0  0  0  0  0
  -28.0399  -12.3140   18.6680 C   0  0  0  0  0  0
  -27.6421  -13.2203   19.8648 C   0  0  2  0  0  0
  -28.6834  -13.1358   21.0038 C   0  0  0  0  0  0
  -25.2532  -13.8175   20.5774 C   0  0  0  0  0  0
  -24.1774  -13.0443   20.9206 C   0  0  0  0  0  0
  -24.6358  -11.6921   20.8773 C   0  0  0  0  0  0
  -23.9056  -10.4298   21.0400 C   0  0  0  0  0  0
  -24.3622   -9.4211   21.9184 C   0  0  0  0  0  0
  -23.6310   -8.2242   22.0729 C   0  0  0  0  0  0
  -22.4296   -8.0274   21.3526 C   0  0  0  0  0  0
  -21.9924   -9.0236   20.4635 C   0  0  0  0  0  0
  -22.7228  -10.2129   20.3036 C   0  0  0  0  0  0
  -21.6842   -6.0745   22.5309 C   0  0  0  0  0  0
  -21.4013   -6.5648   23.8246 C   0  0  0  0  0  0
  -21.3650   -5.6778   24.9204 C   0  0  0  0  0  0
  -21.6045   -4.3055   24.7258 C   0  0  0  0  0  0
  -21.8808   -3.8146   23.4373 C   0  0  0  0  0  0
  -21.9205   -4.6959   22.3431 C   0  0  0  0  0  0
  -22.7822  -13.5251   21.1887 C   0  0  0  0  0  0
  -22.1648   -4.2162   21.1005 F   0  0  0  0  0  0
  -21.5626   -3.4532   25.7767 F   0  0  0  0  0  0
  -29.9819  -13.5312   20.4431 N   0  0  0  0  0  0
  -26.2934  -12.9346   20.3386 N   0  0  0  0  0  0
  -25.9292  -11.6502   20.5809 N   0  0  0  0  0  0
  -22.0483  -12.8215   22.0442 N   0  0  0  0  0  0
  -25.4346  -15.1888   20.4214 N   0  0  0  0  0  0
  -31.7320  -14.8870   20.0642 O   0  0  0  0  0  0
  -21.6630   -6.8888   21.4265 O   0  0  0  0  0  0
  -22.3534  -14.5576   20.6749 O   0  0  0  0  0  0
  -24.6335  -31.8471   23.2025 C   0  0  0  0  0  0
  -25.9169  -32.4705   23.8330 C   0  0  1  0  0  0
  -27.2024  -27.2292   20.1412 C   0  0  0  0  0  0
  -25.5975  -33.8506   24.2211 N   0  0  0  0  0  0
  -23.4215  -30.4799   21.5502 C   0  0  2  0  0  0
  -24.8613  -28.9211   20.1167 C   0  0  0  0  0  0
  -22.7486  -29.4579   22.4963 C   0  0  0  0  0  0
  -18.0260  -28.1373   22.8479 C   0  0  0  0  0  0
  -24.1490  -36.7236   23.2647 C   0  0  0  0  0  0
  -25.9717  -30.7576   21.3784 C   0  0  0  0  0  0
  -26.0399  -29.3814   20.7141 C   0  0  0  0  0  0
  -27.2111  -28.5544   20.7050 C   0  0  0  0  0  0
  -25.9820  -26.8237   19.5588 C   0  0  0  0  0  0
  -24.8392  -27.6497   19.5256 C   0  0  0  0  0  0
  -23.6340  -29.8167   20.1661 C   0  0  0  0  0  0
  -25.4119  -36.3000   24.0299 C   0  0  1  0  0  0
  -20.5869  -28.3661   23.1268 C   0  0  2  0  0  0
  -20.6788  -26.9395   22.5382 C   0  0  0  0  0  0
  -19.5754  -26.6348   21.5219 C   0  0  0  0  0  0
  -18.1919  -26.7891   22.1611 C   0  0  0  0  0  0
  -19.1516  -28.8841   23.2856 C   0  0  0  0  0  0
  -18.9436  -30.1473   23.8848 C   0  0  0  0  0  0
  -17.6434  -30.6588   24.0560 C   0  0  0  0  0  0
  -25.9055  -34.9398   23.5029 C   0  0  0  0  0  0
  -16.5321  -29.9064   23.6408 C   0  0  0  0  0  0
  -16.7244  -28.6493   23.0380 C   0  0  0  0  0  0
  -26.4542  -31.6573   25.0740 C   0  0  0  0  0  0
  -25.3794  -31.3695   26.1491 C   0  0  0  0  0  0
  -27.0427  -30.2984   24.6313 C   0  0  0  0  0  0
  -27.6042  -32.4432   25.7454 C   0  0  0  0  0  0
  -27.5562  -37.1772   24.8461 C   0  0  0  0  0  0
  -21.4189  -29.2996   22.3674 N   0  0  0  0  0  0
  -26.4260  -37.3732   23.9430 N   0  0  0  0  0  0
  -24.6953  -31.0473   22.0975 N   0  0  0  0  0  0
  -23.4195  -28.8118   23.3045 O   0  0  0  0  0  0
  -28.3350  -26.3698   20.2143 O   0  0  0  0  0  0
  -26.5628  -34.8865   22.4597 O   0  0  0  0  0  0
  -23.5502  -32.1233   23.7401 O   0  0  0  0  0  0
  -28.8098  -18.6547   22.4245 C   0  0  0  0  0  0
  -28.3328  -21.0381   22.2481 C   0  0  0  0  0  0
  -28.3005  -19.8403   22.9981 C   0  0  0  0  0  0
  -29.3928  -18.6554   21.1410 C   0  0  0  0  0  0
  -28.8774  -21.0512   20.9514 C   0  0  0  0  0  0
  -26.9890  -20.7535   24.9669 C   0  0  0  0  0  0
  -27.7306  -19.8017   24.3627 C   0  0  0  0  0  0
  -30.0149  -17.3202   20.6243 C   0  0  0  0  0  0
  -29.7976  -15.9888   20.9945 C   0  0  0  0  0  0
  -27.9197  -24.6989   18.3167 C   0  0  0  0  0  0
  -28.3569  -23.5834   20.6580 C   0  0  0  0  0  0
  -28.4806  -24.9305   19.7303 C   0  0  1  0  0  0
  -29.4026  -19.8627   20.4286 N   0  0  0  0  0  0
  -28.9196  -22.2618   20.1778 O   0  0  0  0  0  0
  -31.4740  -12.6175   19.1808 H   0  0  0  0  0  0
  -30.4007  -11.4983   19.9580 H   0  0  0  0  0  0
  -29.8014  -11.7748   17.5217 H   0  0  0  0  0  0
  -29.6010  -13.4951   17.7500 H   0  0  0  0  0  0
  -27.9268  -11.2651   18.9479 H   0  0  0  0  0  0
  -27.3664  -12.4662   17.8233 H   0  0  0  0  0  0
  -27.6442  -14.2417   19.4854 H   0  0  0  0  0  0
  -28.7374  -12.1170   21.3844 H   0  0  0  0  0  0
  -28.3959  -13.7500   21.8562 H   0  0  0  0  0  0
  -25.2766   -9.5686   22.4774 H   0  0  0  0  0  0
  -24.0027   -7.4612   22.7414 H   0  0  0  0  0  0
  -21.0859   -8.8734   19.8936 H   0  0  0  0  0  0
  -22.3676  -10.9659   19.6128 H   0  0  0  0  0  0
  -21.1988   -7.6150   23.9784 H   0  0  0  0  0  0
  -21.1467   -6.0502   25.9122 H   0  0  0  0  0  0
  -22.0602   -2.7614   23.2889 H   0  0  0  0  0  0
  -22.4078  -11.9857   22.4806 H   0  0  0  0  0  0
  -21.1082  -13.1202   22.2651 H   0  0  0  0  0  0
  -24.6940  -15.8656   20.5647 H   0  0  0  0  0  0
  -26.3150  -15.6147   20.1658 H   0  0  0  0  0  0
  -26.7215  -32.5346   23.1033 H   0  0  0  0  0  0
  -25.0276  -33.9651   25.0476 H   0  0  0  0  0  0
  -22.7169  -31.3053   21.4191 H   0  0  0  0  0  0
  -23.3753  -35.9578   23.3260 H   0  0  0  0  0  0
  -24.3561  -36.8909   22.2071 H   0  0  0  0  0  0
  -23.7231  -37.6407   23.6725 H   0  0  0  0  0  0
  -26.1240  -31.5260   20.6202 H   0  0  0  0  0  0
  -26.8412  -30.7816   22.0250 H   0  0  0  0  0  0
  -28.1095  -28.9165   21.1816 H   0  0  0  0  0  0
  -25.8505  -25.8292   19.1726 H   0  0  0  0  0  0
  -23.9240  -27.2754   19.0850 H   0  0  0  0  0  0
  -23.7576  -30.5988   19.4157 H   0  0  0  0  0  0
  -22.7427  -29.2632   19.8630 H   0  0  0  0  0  0
  -25.1308  -36.1766   25.0782 H   0  0  0  0  0  0
  -20.9949  -28.3219   24.1391 H   0  0  0  0  0  0
  -20.5759  -26.2258   23.3556 H   0  0  0  0  0  0
  -21.6644  -26.7460   22.1133 H   0  0  0  0  0  0
  -19.6932  -25.6256   21.1254 H   0  0  0  0  0  0
  -19.6714  -27.3196   20.6772 H   0  0  0  0  0  0
  -17.4215  -26.6671   21.3984 H   0  0  0  0  0  0
  -18.0299  -25.9998   22.8963 H   0  0  0  0  0  0
  -19.7910  -30.7350   24.2133 H   0  0  0  0  0  0
  -17.4982  -31.6282   24.5133 H   0  0  0  0  0  0
  -15.5336  -30.2963   23.7767 H   0  0  0  0  0  0
  -15.8612  -28.0840   22.7101 H   0  0  0  0  0  0
  -24.5985  -30.6989   25.7865 H   0  0  0  0  0  0
  -24.9017  -32.2861   26.4969 H   0  0  0  0  0  0
  -25.8162  -30.8853   27.0240 H   0  0  0  0  0  0
  -26.3025  -29.6672   24.1375 H   0  0  0  0  0  0
  -27.4084  -29.7294   25.4870 H   0  0  0  0  0  0
  -27.8907  -30.4190   23.9563 H   0  0  0  0  0  0
  -27.2593  -33.3807   26.1826 H   0  0  0  0  0  0
  -28.3896  -32.6903   25.0301 H   0  0  0  0  0  0
  -28.0677  -31.8742   26.5519 H   0  0  0  0  0  0
  -28.2543  -38.0118   24.7582 H   0  0  0  0  0  0
  -28.1070  -36.2637   24.6167 H   0  0  0  0  0  0
  -27.2275  -37.1275   25.8863 H   0  0  0  0  0  0
  -20.9401  -29.8641   21.6813 H   0  0  0  0  0  0
  -26.0065  -38.2748   24.1555 H   0  0  0  0  0  0
  -28.7960  -17.7425   23.0056 H   0  0  0  0  0  0
  -27.9533  -21.9472   22.6834 H   0  0  0  0  0  0
  -26.6557  -20.6160   25.9871 H   0  0  0  0  0  0
  -26.6943  -21.6739   24.4847 H   0  0  0  0  0  0
  -27.9587  -18.9107   24.9351 H   0  0  0  0  0  0
  -30.7871  -17.4677   19.8837 H   0  0  0  0  0  0
  -29.0208  -15.8188   21.7243 H   0  0  0  0  0  0
  -26.9316  -24.2399   18.3410 H   0  0  0  0  0  0
  -28.5552  -24.0078   17.7638 H   0  0  0  0  0  0
  -27.8632  -25.6210   17.7360 H   0  0  0  0  0  0
  -27.3058  -23.4391   20.9043 H   0  0  0  0  0  0
  -28.8545  -23.8021   21.6038 H   0  0  0  0  0  0
  -29.5586  -24.9561   19.5556 H   0  0  0  0  0  0
  1 25  1  0  0  0
  1 30  2  0  0  0
  1 79  1  0  0  0
  2  3  1  0  0  0
  2 25  1  0  0  0
  2 85  1  0  0  0
  2 86  1  0  0  0
  3  4  1  0  0  0
  3 87  1  0  0  0
  3 88  1  0  0  0
  4  5  1  0  0  0
  4 89  1  0  0  0
  4 90  1  0  0  0
  5  6  1  0  0  0
  5 26  1  0  0  0
  5 91  1  0  0  0
  6 25  1  0  0  0
  6 92  1  0  0  0
  6 93  1  0  0  0
  7  8  2  0  0  0
  7 26  1  0  0  0
  7 29  1  0  0  0
  8  9  1  0  0  0
  8 22  1  0  0  0
  9 10  1  0  0  0
  9 27  2  0  0  0
 10 11  2  0  0  0
 10 15  1  0  0  0
 11 12  1  0  0  0
 11 94  1  0  0  0
 12 13  2  0  0  0
 12 95  1  0  0  0
 13 14  1  0  0  0
 13 31  1  0  0  0
 14 15  2  0  0  0
 14 96  1  0  0  0
 15 97  1  0  0  0
 16 17  2  0  0  0
 16 21  1  0  0  0
 16 31  1  0  0  0
 17 18  1  0  0  0
 17 98  1  0  0  0
 18 19  2  0  0  0
 18 99  1  0  0  0
 19 20  1  0  0  0
 19 24  1  0  0  0
 20 21  2  0  0  0
 20100  1  0  0  0
 21 23  1  0  0  0
 22 28  1  0  0  0
 22 32  2  0  0  0
 26 27  1  0  0  0
 28101  1  0  0  0
 28102  1  0  0  0
 29103  1  0  0  0
 29104  1  0  0  0
 33 34  1  0  0  0
 33 66  1  0  0  0
 33 70  2  0  0  0
 34 36  1  0  0  0
 34 59  1  0  0  0
 34105  1  0  0  0
 35 44  2  0  0  0
 35 45  1  0  0  0
 35 68  1  0  0  0
 36 56  1  0  0  0
 36106  1  0  0  0
 37 39  1  0  0  0
 37 47  1  0  0  0
 37 66  1  0  0  0
 37107  1  0  0  0
 38 43  2  0  0  0
 38 46  1  0  0  0
 38 47  1  0  0  0
 39 64  1  0  0  0
 39 67  2  0  0  0
 40 52  1  0  0  0
 40 53  2  0  0  0
 40 58  1  0  0  0
 41108  1  0  0  0
 41109  1  0  0  0
 41110  1  0  0  0
 41 48  1  0  0  0
 42 43  1  0  0  0
 42 66  1  0  0  0
 42111  1  0  0  0
 42112  1  0  0  0
 43 44  1  0  0  0
 44113  1  0  0  0
 45 46  2  0  0  0
 45114  1  0  0  0
 46115  1  0  0  0
 47116  1  0  0  0
 47117  1  0  0  0
 48 56  1  0  0  0
 48 65  1  0  0  0
 48118  1  0  0  0
 49 50  1  0  0  0
 49 53  1  0  0  0
 49 64  1  0  0  0
 49119  1  0  0  0
 50 51  1  0  0  0
 50120  1  0  0  0
 50121  1  0  0  0
 51 52  1  0  0  0
 51122  1  0  0  0
 51123  1  0  0  0
 52124  1  0  0  0
 52125  1  0  0  0
 53 54  1  0  0  0
 54 55  2  0  0  0
 54126  1  0  0  0
 55 57  1  0  0  0
 55127  1  0  0  0
 56 69  2  0  0  0
 57 58  2  0  0  0
 57128  1  0  0  0
 58129  1  0  0  0
 59 60  1  0  0  0
 59 61  1  0  0  0
 59 62  1  0  0  0
 60130  1  0  0  0
 60131  1  0  0  0
 60132  1  0  0  0
 61133  1  0  0  0
 61134  1  0  0  0
 61135  1  0  0  0
 62136  1  0  0  0
 62137  1  0  0  0
 62138  1  0  0  0
 63 65  1  0  0  0
 63139  1  0  0  0
 63140  1  0  0  0
 63141  1  0  0  0
 64142  1  0  0  0
 65143  1  0  0  0
 68 82  1  0  0  0
 71 73  2  0  0  0
 71 74  1  0  0  0
 71144  1  0  0  0
 72 73  1  0  0  0
 72 75  2  0  0  0
 72145  1  0  0  0
 73 77  1  0  0  0
 74 78  1  0  0  0
 74 83  2  0  0  0
 75 83  1  0  0  0
 75 84  1  0  0  0
 76 77  2  0  0  0
 76146  1  0  0  0
 76147  1  0  0  0
 77148  1  0  0  0
 78 79  2  0  0  0
 78149  1  0  0  0
 79150  1  0  0  0
 80151  1  0  0  0
 80152  1  0  0  0
 80153  1  0  0  0
 80 82  1  0  0  0
 81 82  1  0  0  0
 81 84  1  0  0  0
 81154  1  0  0  0
 81155  1  0  0  0
 82156  1  0  0  0
M  ISO  4   1 100  68 101  79 100  82 101
M  END
> <chiral flag>
0

> <version>
0

> <s_m_source_file>
/data/baiqing/PycharmProjects/Reinvent-master-3.2/result/LINK_invent/BTK/process_docking_weight1_custom_product_contain_oxygen_bond_distance_aromatic_linkinvent_7_9_3/rearranged_h_0116.sdf

> <i_m_source_file_index>
49

> <r_mmod_Potential_Energy-OPLS-2005>
-17.0482273101807

> <r_mmod_Stretch_Energy-OPLS-2005>
153.810791015625

> <r_mmod_Bend_Energy-OPLS-2005>
217.87239074707

> <r_mmod_Torsional_Energy-OPLS-2005>
180.538543701172

> <r_mmod_Improper_Torsional_Energy-OPLS-2005>
2.94681906700134

> <r_mmod_Van_der_Waal_Energy-OPLS-2005>
145.826904296875

> <r_mmod_Electrostatic_Energy-OPLS-2005>
-604.328369140625

> <r_mmod_Solvation_Energy-OPLS-2005>
-209.822662353516

> <b_mmod_Minimization_Converged-OPLS-2005>
0

> <r_mmod_RMS_Derivative-OPLS-2005>
6.23468589782715

$$$$
49
                    3D
 Structure written by MMmdl.
164172  0  0  1  0            999 V2000
  -30.6810  -14.5310   20.5603 C   0  0  0  0  0  0
  -30.4337  -12.3379   19.4365 C   0  0  0  0  0  0
  -29.5022  -12.4961   18.2158 C   0  0  0  0  0  0
  -28.0253  -12.3308   18.6268 C   0  0  0  0  0  0
  -27.6564  -13.1842   19.8668 C   0  0  2  0  0  0
  -28.7012  -13.0135   20.9943 C   0  0  0  0  0  0
  -25.2497  -13.8014   20.5635 C   0  0  0  0  0  0
  -24.1789  -13.0323   20.9213 C   0  0  0  0  0  0
  -24.6360  -11.6811   20.8767 C   0  0  0  0  0  0
  -23.9028  -10.4229   21.0421 C   0  0  0  0  0  0
  -24.3587   -9.4155   21.9204 C   0  0  0  0  0  0
  -23.6255   -8.2198   22.0755 C   0  0  0  0  0  0
  -22.4245   -8.0254   21.3539 C   0  0  0  0  0  0
  -21.9872   -9.0226   20.4640 C   0  0  0  0  0  0
  -22.7203  -10.2101   20.3061 C   0  0  0  0  0  0
  -21.6842   -6.0721   22.5279 C   0  0  0  0  0  0
  -21.4009   -6.5627   23.8211 C   0  0  0  0  0  0
  -21.3651   -5.6783   24.9176 C   0  0  0  0  0  0
  -21.6044   -4.3046   24.7226 C   0  0  0  0  0  0
  -21.8820   -3.8133   23.4348 C   0  0  0  0  0  0
  -21.9186   -4.6949   22.3400 C   0  0  0  0  0  0
  -22.7824  -13.5167   21.1861 C   0  0  0  0  0  0
  -22.1661   -4.2137   21.0978 F   0  0  0  0  0  0
  -21.5622   -3.4534   25.7738 F   0  0  0  0  0  0
  -30.0301  -13.3359   20.4411 N   0  0  0  0  0  0
  -26.2967  -12.9196   20.3310 N   0  0  0  0  0  0
  -25.9282  -11.6382   20.5794 N   0  0  0  0  0  0
  -22.0437  -12.8206   22.0429 N   0  0  0  0  0  0
  -25.3965  -15.1711   20.3945 N   0  0  0  0  0  0
  -31.8174  -14.7157   20.1169 O   0  0  0  0  0  0
  -21.6606   -6.8858   21.4240 O   0  0  0  0  0  0
  -22.3537  -14.5481   20.6693 O   0  0  0  0  0  0
  -24.6157  -31.8662   23.2081 C   0  0  0  0  0  0
  -25.9040  -32.4814   23.8389 C   0  0  1  0  0  0
  -27.2462  -27.4258   20.1061 C   0  0  0  0  0  0
  -25.5890  -33.8611   24.2317 N   0  0  0  0  0  0
  -23.4071  -30.4862   21.5479 C   0  0  2  0  0  0
  -24.8581  -28.9437   20.1213 C   0  0  0  0  0  0
  -22.7423  -29.4646   22.4989 C   0  0  0  0  0  0
  -18.0278  -28.1381   22.8492 C   0  0  0  0  0  0
  -24.1483  -36.7315   23.2640 C   0  0  0  0  0  0
  -25.9357  -30.8259   21.3658 C   0  0  0  0  0  0
  -26.0166  -29.4564   20.7203 C   0  0  0  0  0  0
  -27.2150  -28.7033   20.7127 C   0  0  0  0  0  0
  -26.0742  -26.9253   19.5051 C   0  0  0  0  0  0
  -24.8807  -27.6751   19.5132 C   0  0  0  0  0  0
  -23.6192  -29.8119   20.1655 C   0  0  0  0  0  0
  -25.4102  -36.3103   24.0337 C   0  0  1  0  0  0
  -20.5870  -28.3667   23.1316 C   0  0  2  0  0  0
  -20.6768  -26.9402   22.5417 C   0  0  0  0  0  0
  -19.5746  -26.6384   21.5216 C   0  0  0  0  0  0
  -18.1925  -26.7929   22.1622 C   0  0  0  0  0  0
  -19.1528  -28.8840   23.2903 C   0  0  0  0  0  0
  -18.9452  -30.1446   23.8918 C   0  0  0  0  0  0
  -17.6453  -30.6583   24.0570 C   0  0  0  0  0  0
  -25.9034  -34.9469   23.5127 C   0  0  0  0  0  0
  -16.5345  -29.9089   23.6324 C   0  0  0  0  0  0
  -16.7267  -28.6506   23.0344 C   0  0  0  0  0  0
  -26.4463  -31.6600   25.0723 C   0  0  0  0  0  0
  -25.3727  -31.3720   26.1474 C   0  0  0  0  0  0
  -27.0300  -30.3047   24.6103 C   0  0  0  0  0  0
  -27.6041  -32.4327   25.7468 C   0  0  0  0  0  0
  -27.5578  -37.1806   24.8457 C   0  0  0  0  0  0
  -21.4151  -29.3029   22.3717 N   0  0  0  0  0  0
  -26.4289  -37.3783   23.9405 N   0  0  0  0  0  0
  -24.6709  -31.0745   22.0992 N   0  0  0  0  0  0
  -23.4175  -28.8206   23.3056 O   0  0  0  0  0  0
  -28.4053  -26.6821   20.0340 O   0  0  0  0  0  0
  -26.5610  -34.8928   22.4697 O   0  0  0  0  0  0
  -23.5343  -32.1419   23.7462 O   0  0  0  0  0  0
  -31.1758  -17.6499   21.5097 C   0  0  0  0  0  0
  -29.2319  -19.1488   20.0943 C   0  0  0  0  0  0
  -29.1244  -17.7298   20.2022 C   0  0  0  0  0  0
  -30.1035  -16.9624   20.9012 C   0  0  0  0  0  0
  -30.2735  -19.8264   20.7840 C   0  0  0  0  0  0
  -31.2514  -19.0608   21.4636 C   0  0  0  0  0  0
  -28.6629  -20.8902   18.3787 C   0  0  0  0  0  0
  -28.3045  -19.9030   19.2166 C   0  0  0  0  0  0
  -28.2310  -16.5513   18.1273 C   0  0  0  0  0  0
  -27.9457  -17.0169   19.5603 C   0  0  0  0  0  0
  -28.9385  -24.3033   20.6165 C   0  0  0  0  0  0
  -29.4465  -23.3789   21.7613 C   0  0  0  0  0  0
  -28.6288  -25.7502   21.1037 C   0  0  0  0  0  0
  -29.3002  -21.8435   21.5785 C   0  0  0  0  0  0
  -29.9405  -15.5387   21.0779 N   0  0  0  0  0  0
  -30.3472  -21.2127   20.8229 O   0  0  0  0  0  0
  -32.2674  -19.6907   22.1026 F   0  0  0  0  0  0
  -31.4770  -12.4501   19.1351 H   0  0  0  0  0  0
  -30.3517  -11.3334   19.8549 H   0  0  0  0  0  0
  -29.7577  -11.7635   17.4489 H   0  0  0  0  0  0
  -29.6525  -13.4773   17.7636 H   0  0  0  0  0  0
  -27.8568  -11.2754   18.8420 H   0  0  0  0  0  0
  -27.3719  -12.5805   17.7904 H   0  0  0  0  0  0
  -27.6830  -14.2091   19.5215 H   0  0  0  0  0  0
  -28.6979  -11.9843   21.3559 H   0  0  0  0  0  0
  -28.4465  -13.6250   21.8609 H   0  0  0  0  0  0
  -25.2728   -9.5638   22.4790 H   0  0  0  0  0  0
  -23.9953   -7.4589   22.7476 H   0  0  0  0  0  0
  -21.0798   -8.8755   19.8955 H   0  0  0  0  0  0
  -22.3665  -10.9655   19.6183 H   0  0  0  0  0  0
  -21.2010   -7.6138   23.9721 H   0  0  0  0  0  0
  -21.1468   -6.0508   25.9081 H   0  0  0  0  0  0
  -22.0602   -2.7595   23.2853 H   0  0  0  0  0  0
  -22.3996  -11.9862   22.4853 H   0  0  0  0  0  0
  -21.1072  -13.1308   22.2609 H   0  0  0  0  0  0
  -24.6063  -15.8013   20.4772 H   0  0  0  0  0  0
  -26.2009  -15.5987   19.9596 H   0  0  0  0  0  0
  -26.7113  -32.5530   23.1160 H   0  0  0  0  0  0
  -25.0034  -33.9760   25.0458 H   0  0  0  0  0  0
  -22.6974  -31.3033   21.4028 H   0  0  0  0  0  0
  -23.3729  -35.9666   23.3314 H   0  0  0  0  0  0
  -24.3576  -36.8917   22.2052 H   0  0  0  0  0  0
  -23.7257  -37.6533   23.6648 H   0  0  0  0  0  0
  -26.0492  -31.5874   20.5935 H   0  0  0  0  0  0
  -26.8236  -30.8834   21.9838 H   0  0  0  0  0  0
  -28.1138  -29.0990   21.1652 H   0  0  0  0  0  0
  -26.0900  -25.9567   19.0252 H   0  0  0  0  0  0
  -23.9912  -27.2724   19.0482 H   0  0  0  0  0  0
  -23.7305  -30.5832   19.4024 H   0  0  0  0  0  0
  -22.7438  -29.2308   19.8698 H   0  0  0  0  0  0
  -25.1278  -36.1969   25.0830 H   0  0  0  0  0  0
  -20.9960  -28.3234   24.1437 H   0  0  0  0  0  0
  -20.5664  -26.2282   23.3607 H   0  0  0  0  0  0
  -21.6641  -26.7440   22.1216 H   0  0  0  0  0  0
  -19.6910  -25.6298   21.1236 H   0  0  0  0  0  0
  -19.6691  -27.3202   20.6755 H   0  0  0  0  0  0
  -17.4201  -26.6686   21.4021 H   0  0  0  0  0  0
  -18.0314  -26.0065   22.9006 H   0  0  0  0  0  0
  -19.7927  -30.7259   24.2297 H   0  0  0  0  0  0
  -17.5006  -31.6265   24.5167 H   0  0  0  0  0  0
  -15.5347  -30.2997   23.7634 H   0  0  0  0  0  0
  -15.8667  -28.0834   22.7045 H   0  0  0  0  0  0
  -24.5868  -30.7104   25.7809 H   0  0  0  0  0  0
  -24.8961  -32.2888   26.4957 H   0  0  0  0  0  0
  -25.8071  -30.8849   27.0213 H   0  0  0  0  0  0
  -26.2850  -29.6806   24.1153 H   0  0  0  0  0  0
  -27.4072  -29.7288   25.4564 H   0  0  0  0  0  0
  -27.8681  -30.4380   23.9259 H   0  0  0  0  0  0
  -27.2656  -33.3605   26.2093 H   0  0  0  0  0  0
  -28.3809  -32.6925   25.0264 H   0  0  0  0  0  0
  -28.0755  -31.8430   26.5338 H   0  0  0  0  0  0
  -28.2599  -38.0097   24.7491 H   0  0  0  0  0  0
  -28.1067  -36.2632   24.6286 H   0  0  0  0  0  0
  -27.2302  -37.1464   25.8861 H   0  0  0  0  0  0
  -20.9323  -29.8751   21.6933 H   0  0  0  0  0  0
  -26.0179  -38.2864   24.1391 H   0  0  0  0  0  0
  -31.9293  -17.1024   22.0579 H   0  0  0  0  0  0
  -27.9258  -21.4082   17.7823 H   0  0  0  0  0  0
  -29.6942  -21.1958   18.2743 H   0  0  0  0  0  0
  -27.2532  -19.6662   19.2755 H   0  0  0  0  0  0
  -27.3766  -16.0145   17.7142 H   0  0  0  0  0  0
  -29.0933  -15.8851   18.0897 H   0  0  0  0  0  0
  -28.4344  -17.3990   17.4725 H   0  0  0  0  0  0
  -27.0418  -17.6219   19.5860 H   0  0  0  0  0  0
  -27.6988  -16.1860   20.2048 H   0  0  0  0  0  0
  -28.0364  -23.8836   20.1698 H   0  0  0  0  0  0
  -29.6866  -24.3279   19.8235 H   0  0  0  0  0  0
  -28.8661  -23.6311   22.6498 H   0  0  0  0  0  0
  -30.4778  -23.6254   22.0143 H   0  0  0  0  0  0
  -29.4745  -26.1250   21.6810 H   0  0  0  0  0  0
  -27.7802  -25.7261   21.7907 H   0  0  0  0  0  0
  -28.3136  -21.6271   21.1722 H   0  0  0  0  0  0
  -29.3104  -21.3911   22.5722 H   0  0  0  0  0  0
  -29.0186  -15.2409   21.3579 H   0  0  0  0  0  0
  1 25  1  0  0  0
  1 30  2  0  0  0
  1 85  1  0  0  0
  2  3  1  0  0  0
  2 25  1  0  0  0
  2 88  1  0  0  0
  2 89  1  0  0  0
  3  4  1  0  0  0
  3 90  1  0  0  0
  3 91  1  0  0  0
  4  5  1  0  0  0
  4 92  1  0  0  0
  4 93  1  0  0  0
  5  6  1  0  0  0
  5 26  1  0  0  0
  5 94  1  0  0  0
  6 25  1  0  0  0
  6 95  1  0  0  0
  6 96  1  0  0  0
  7  8  2  0  0  0
  7 26  1  0  0  0
  7 29  1  0  0  0
  8  9  1  0  0  0
  8 22  1  0  0  0
  9 10  1  0  0  0
  9 27  2  0  0  0
 10 11  2  0  0  0
 10 15  1  0  0  0
 11 12  1  0  0  0
 11 97  1  0  0  0
 12 13  2  0  0  0
 12 98  1  0  0  0
 13 14  1  0  0  0
 13 31  1  0  0  0
 14 15  2  0  0  0
 14 99  1  0  0  0
 15100  1  0  0  0
 16 17  2  0  0  0
 16 21  1  0  0  0
 16 31  1  0  0  0
 17 18  1  0  0  0
 17101  1  0  0  0
 18 19  2  0  0  0
 18102  1  0  0  0
 19 20  1  0  0  0
 19 24  1  0  0  0
 20 21  2  0  0  0
 20103  1  0  0  0
 21 23  1  0  0  0
 22 28  1  0  0  0
 22 32  2  0  0  0
 26 27  1  0  0  0
 28104  1  0  0  0
 28105  1  0  0  0
 29106  1  0  0  0
 29107  1  0  0  0
 33 34  1  0  0  0
 33 66  1  0  0  0
 33 70  2  0  0  0
 34 36  1  0  0  0
 34 59  1  0  0  0
 34108  1  0  0  0
 35 44  2  0  0  0
 35 45  1  0  0  0
 35 68  1  0  0  0
 36 56  1  0  0  0
 36109  1  0  0  0
 37 39  1  0  0  0
 37 47  1  0  0  0
 37 66  1  0  0  0
 37110  1  0  0  0
 38 43  2  0  0  0
 38 46  1  0  0  0
 38 47  1  0  0  0
 39 64  1  0  0  0
 39 67  2  0  0  0
 40 52  1  0  0  0
 40 53  2  0  0  0
 40 58  1  0  0  0
 41111  1  0  0  0
 41112  1  0  0  0
 41113  1  0  0  0
 41 48  1  0  0  0
 42 43  1  0  0  0
 42 66  1  0  0  0
 42114  1  0  0  0
 42115  1  0  0  0
 43 44  1  0  0  0
 44116  1  0  0  0
 45 46  2  0  0  0
 45117  1  0  0  0
 46118  1  0  0  0
 47119  1  0  0  0
 47120  1  0  0  0
 48 56  1  0  0  0
 48 65  1  0  0  0
 48121  1  0  0  0
 49 50  1  0  0  0
 49 53  1  0  0  0
 49 64  1  0  0  0
 49122  1  0  0  0
 50 51  1  0  0  0
 50123  1  0  0  0
 50124  1  0  0  0
 51 52  1  0  0  0
 51125  1  0  0  0
 51126  1  0  0  0
 52127  1  0  0  0
 52128  1  0  0  0
 53 54  1  0  0  0
 54 55  2  0  0  0
 54129  1  0  0  0
 55 57  1  0  0  0
 55130  1  0  0  0
 56 69  2  0  0  0
 57 58  2  0  0  0
 57131  1  0  0  0
 58132  1  0  0  0
 59 60  1  0  0  0
 59 61  1  0  0  0
 59 62  1  0  0  0
 60133  1  0  0  0
 60134  1  0  0  0
 60135  1  0  0  0
 61136  1  0  0  0
 61137  1  0  0  0
 61138  1  0  0  0
 62139  1  0  0  0
 62140  1  0  0  0
 62141  1  0  0  0
 63 65  1  0  0  0
 63142  1  0  0  0
 63143  1  0  0  0
 63144  1  0  0  0
 64145  1  0  0  0
 65146  1  0  0  0
 68 83  1  0  0  0
 71 74  2  0  0  0
 71 76  1  0  0  0
 71147  1  0  0  0
 72 73  2  0  0  0
 72 75  1  0  0  0
 72 78  1  0  0  0
 73 74  1  0  0  0
 73 80  1  0  0  0
 74 85  1  0  0  0
 75 76  2  0  0  0
 75 86  1  0  0  0
 76 87  1  0  0  0
 77 78  2  0  0  0
 77148  1  0  0  0
 77149  1  0  0  0
 78150  1  0  0  0
 79 80  1  0  0  0
 79151  1  0  0  0
 79152  1  0  0  0
 79153  1  0  0  0
 80154  1  0  0  0
 80155  1  0  0  0
 81 82  1  0  0  0
 81 83  1  0  0  0
 81156  1  0  0  0
 81157  1  0  0  0
 82 84  1  0  0  0
 82158  1  0  0  0
 82159  1  0  0  0
 83160  1  0  0  0
 83161  1  0  0  0
 84 86  1  0  0  0
 84162  1  0  0  0
 84163  1  0  0  0
 85164  1  0  0  0
M  ISO  4   1 100  68 101  83 101  85 100
M  END
> <chiral flag>
0

> <version>
0

> <s_m_source_file>
/data/baiqing/PycharmProjects/Reinvent-master-3.2/result/LINK_invent/BTK/process_docking_weight1_custom_product_contain_oxygen_bond_distance_aromatic_linkinvent_7_9_3/rearranged_h_0116.sdf

> <i_m_source_file_index>
50

> <r_mmod_Potential_Energy-OPLS-2005>
82.6880950927734

> <r_mmod_Stretch_Energy-OPLS-2005>
44.826301574707

> <r_mmod_Bend_Energy-OPLS-2005>
101.085624694824

> <r_mmod_Torsional_Energy-OPLS-2005>
310.121734619141

> <r_mmod_Improper_Torsional_Energy-OPLS-2005>
5.3477840423584

> <r_mmod_Van_der_Waal_Energy-OPLS-2005>
148.076095581055

> <r_mmod_Electrostatic_Energy-OPLS-2005>
-341.538665771484

> <r_mmod_Solvation_Energy-OPLS-2005>
-202.558090209961

> <b_mmod_Minimization_Converged-OPLS-2005>
0

> <r_mmod_RMS_Derivative-OPLS-2005>
1.53441417217255

$$$$
50
                    3D
 Structure written by MMmdl.
162170  0  0  1  0            999 V2000
  -30.5292  -14.9196   20.4729 C   0  0  0  0  0  0
  -30.4497  -12.5748   19.5061 C   0  0  0  0  0  0
  -29.5323  -12.5792   18.2606 C   0  0  0  0  0  0
  -28.0556  -12.3716   18.6491 C   0  0  0  0  0  0
  -27.6338  -13.2551   19.8496 C   0  0  2  0  0  0
  -28.6715  -13.2317   20.9929 C   0  0  0  0  0  0
  -25.2352  -13.8117   20.5500 C   0  0  0  0  0  0
  -24.1733  -13.0356   20.9184 C   0  0  0  0  0  0
  -24.6391  -11.6868   20.8758 C   0  0  0  0  0  0
  -23.9070  -10.4232   21.0421 C   0  0  0  0  0  0
  -24.3605   -9.4145   21.9208 C   0  0  0  0  0  0
  -23.6271   -8.2184   22.0753 C   0  0  0  0  0  0
  -22.4243   -8.0242   21.3556 C   0  0  0  0  0  0
  -21.9906   -9.0216   20.4653 C   0  0  0  0  0  0
  -22.7237  -10.2081   20.3068 C   0  0  0  0  0  0
  -21.6835   -6.0696   22.5280 C   0  0  0  0  0  0
  -21.4007   -6.5600   23.8223 C   0  0  0  0  0  0
  -21.3699   -5.6764   24.9188 C   0  0  0  0  0  0
  -21.6061   -4.3034   24.7241 C   0  0  0  0  0  0
  -21.8796   -3.8106   23.4351 C   0  0  0  0  0  0
  -21.9175   -4.6932   22.3413 C   0  0  0  0  0  0
  -22.7751  -13.5148   21.1863 C   0  0  0  0  0  0
  -22.1639   -4.2116   21.0992 F   0  0  0  0  0  0
  -21.5658   -3.4515   25.7752 F   0  0  0  0  0  0
  -29.9657  -13.6430   20.4250 N   0  0  0  0  0  0
  -26.2873  -12.9417   20.3204 N   0  0  0  0  0  0
  -25.9350  -11.6544   20.5749 N   0  0  0  0  0  0
  -22.0391  -12.8165   22.0431 N   0  0  0  0  0  0
  -25.3804  -15.1782   20.3611 N   0  0  0  0  0  0
  -31.7054  -15.0486   20.1158 O   0  0  0  0  0  0
  -21.6613   -6.8840   21.4241 O   0  0  0  0  0  0
  -22.3461  -14.5505   20.6771 O   0  0  0  0  0  0
  -24.6399  -31.8518   23.1951 C   0  0  0  0  0  0
  -25.9187  -32.4746   23.8319 C   0  0  1  0  0  0
  -27.1856  -27.1609   20.1362 C   0  0  0  0  0  0
  -25.5939  -33.8553   24.2243 N   0  0  0  0  0  0
  -23.4349  -30.4787   21.5455 C   0  0  2  0  0  0
  -24.8759  -28.9229   20.1036 C   0  0  0  0  0  0
  -22.7525  -29.4595   22.4905 C   0  0  0  0  0  0
  -18.0304  -28.1385   22.8482 C   0  0  0  0  0  0
  -24.1481  -36.7266   23.2628 C   0  0  0  0  0  0
  -25.9899  -30.7373   21.3835 C   0  0  0  0  0  0
  -26.0580  -29.3529   20.7210 C   0  0  0  0  0  0
  -27.2154  -28.4884   20.7190 C   0  0  0  0  0  0
  -25.9768  -26.8347   19.4751 C   0  0  0  0  0  0
  -24.8486  -27.6781   19.4643 C   0  0  0  0  0  0
  -23.6512  -29.8224   20.1591 C   0  0  0  0  0  0
  -25.4102  -36.3074   24.0328 C   0  0  1  0  0  0
  -20.5910  -28.3699   23.1268 C   0  0  2  0  0  0
  -20.6792  -26.9414   22.5412 C   0  0  0  0  0  0
  -19.5770  -26.6406   21.5202 C   0  0  0  0  0  0
  -18.1949  -26.7932   22.1619 C   0  0  0  0  0  0
  -19.1560  -28.8860   23.2876 C   0  0  0  0  0  0
  -18.9467  -30.1454   23.8899 C   0  0  0  0  0  0
  -17.6464  -30.6580   24.0560 C   0  0  0  0  0  0
  -25.9060  -34.9445   23.5099 C   0  0  0  0  0  0
  -16.5359  -29.9069   23.6329 C   0  0  0  0  0  0
  -16.7291  -28.6493   23.0346 C   0  0  0  0  0  0
  -26.4498  -31.6569   25.0728 C   0  0  0  0  0  0
  -25.3669  -31.3716   26.1405 C   0  0  0  0  0  0
  -27.0331  -30.2983   24.6219 C   0  0  0  0  0  0
  -27.6064  -32.4281   25.7521 C   0  0  0  0  0  0
  -27.5592  -37.1784   24.8423 C   0  0  0  0  0  0
  -21.4228  -29.3030   22.3638 N   0  0  0  0  0  0
  -26.4256  -37.3798   23.9439 N   0  0  0  0  0  0
  -24.7099  -31.0394   22.0980 N   0  0  0  0  0  0
  -23.4205  -28.8119   23.3022 O   0  0  0  0  0  0
  -28.2211  -26.1650   20.2195 O   0  0  0  0  0  0
  -26.5627  -34.8925   22.4666 O   0  0  0  0  0  0
  -23.5531  -32.1386   23.7190 O   0  0  0  0  0  0
  -30.5631  -18.5532   20.3239 C   0  0  0  0  0  0
  -28.0301  -19.5200   20.8319 C   0  0  0  0  0  0
  -30.2688  -19.9923   20.2603 C   0  0  0  0  0  0
  -28.9471  -20.5397   20.4406 C   0  0  0  0  0  0
  -29.5996  -17.5371   20.6880 C   0  0  0  0  0  0
  -28.3410  -18.1209   21.0380 C   0  0  0  0  0  0
  -32.5327  -20.9063   20.6998 C   0  0  0  0  0  0
  -31.3530  -20.9654   20.0609 C   0  0  0  0  0  0
  -28.3836  -22.0253   20.2973 C   0  0  0  0  0  0
  -28.7741  -23.3767   20.3896 C   0  0  0  0  0  0
  -24.9749  -19.2654   23.7427 C   0  0  0  0  0  0
  -27.8284  -24.6764   20.0970 C   0  0  0  0  0  0
  -26.3349  -18.6577   23.3795 C   0  0  0  0  0  0
  -26.2071  -17.7354   22.1497 C   0  0  0  0  0  0
  -29.6930  -16.0103   20.7983 N   0  0  0  0  0  0
  -27.4444  -17.2463   21.6256 O   0  0  0  0  0  0
  -31.4861  -12.7390   19.2071 H   0  0  0  0  0  0
  -30.4360  -11.6027   20.0022 H   0  0  0  0  0  0
  -29.8467  -11.8236   17.5399 H   0  0  0  0  0  0
  -29.6359  -13.5429   17.7583 H   0  0  0  0  0  0
  -27.9095  -11.3207   18.8934 H   0  0  0  0  0  0
  -27.4185  -12.5857   17.7892 H   0  0  0  0  0  0
  -27.6068  -14.2710   19.4575 H   0  0  0  0  0  0
  -28.7319  -12.2417   21.4485 H   0  0  0  0  0  0
  -28.3658  -13.9142   21.7871 H   0  0  0  0  0  0
  -25.2738   -9.5614   22.4800 H   0  0  0  0  0  0
  -23.9985   -7.4554   22.7438 H   0  0  0  0  0  0
  -21.0866   -8.8731   19.8932 H   0  0  0  0  0  0
  -22.3712  -10.9624   19.6172 H   0  0  0  0  0  0
  -21.1987   -7.6100   23.9713 H   0  0  0  0  0  0
  -21.1573   -6.0505   25.9110 H   0  0  0  0  0  0
  -22.0544   -2.7567   23.2862 H   0  0  0  0  0  0
  -22.3999  -11.9872   22.4912 H   0  0  0  0  0  0
  -21.1006  -13.1208   22.2594 H   0  0  0  0  0  0
  -24.5795  -15.7977   20.4274 H   0  0  0  0  0  0
  -26.2105  -15.6318   20.0033 H   0  0  0  0  0  0
  -26.7238  -32.5360   23.1038 H   0  0  0  0  0  0
  -24.9988  -33.9670   25.0325 H   0  0  0  0  0  0
  -22.7342  -31.3055   21.4098 H   0  0  0  0  0  0
  -23.3801  -35.9531   23.3189 H   0  0  0  0  0  0
  -24.3617  -36.8988   22.2066 H   0  0  0  0  0  0
  -23.7153  -37.6405   23.6710 H   0  0  0  0  0  0
  -26.1225  -31.4950   20.6100 H   0  0  0  0  0  0
  -26.8708  -30.7967   22.0108 H   0  0  0  0  0  0
  -28.1169  -28.8052   21.2215 H   0  0  0  0  0  0
  -25.8457  -25.8865   18.9758 H   0  0  0  0  0  0
  -23.9430  -27.3528   18.9712 H   0  0  0  0  0  0
  -23.7655  -30.6048   19.4081 H   0  0  0  0  0  0
  -22.7613  -29.2656   19.8600 H   0  0  0  0  0  0
  -25.1278  -36.1903   25.0818 H   0  0  0  0  0  0
  -21.0017  -28.3286   24.1381 H   0  0  0  0  0  0
  -20.5704  -26.2290   23.3602 H   0  0  0  0  0  0
  -21.6664  -26.7446   22.1214 H   0  0  0  0  0  0
  -19.6937  -25.6327   21.1202 H   0  0  0  0  0  0
  -19.6716  -27.3234   20.6736 H   0  0  0  0  0  0
  -17.4229  -26.6679   21.4009 H   0  0  0  0  0  0
  -18.0360  -26.0076   22.9023 H   0  0  0  0  0  0
  -19.7938  -30.7272   24.2291 H   0  0  0  0  0  0
  -17.5005  -31.6257   24.5165 H   0  0  0  0  0  0
  -15.5352  -30.2954   23.7655 H   0  0  0  0  0  0
  -15.8695  -28.0792   22.7058 H   0  0  0  0  0  0
  -24.5858  -30.7071   25.7678 H   0  0  0  0  0  0
  -24.8819  -32.2870   26.4801 H   0  0  0  0  0  0
  -25.7921  -30.8882   27.0208 H   0  0  0  0  0  0
  -26.2913  -29.6763   24.1189 H   0  0  0  0  0  0
  -27.3939  -29.7218   25.4744 H   0  0  0  0  0  0
  -27.8827  -30.4255   23.9509 H   0  0  0  0  0  0
  -27.2728  -33.3638   26.2014 H   0  0  0  0  0  0
  -28.3927  -32.6731   25.0373 H   0  0  0  0  0  0
  -28.0647  -31.8423   26.5495 H   0  0  0  0  0  0
  -28.2486  -38.0201   24.7680 H   0  0  0  0  0  0
  -28.1222  -36.2765   24.5987 H   0  0  0  0  0  0
  -27.2363  -37.1113   25.8824 H   0  0  0  0  0  0
  -20.9400  -29.8695   21.6797 H   0  0  0  0  0  0
  -26.0126  -38.2845   24.1546 H   0  0  0  0  0  0
  -31.5708  -18.2336   20.0966 H   0  0  0  0  0  0
  -27.0276  -19.8691   21.0273 H   0  0  0  0  0  0
  -33.3021  -21.6455   20.5348 H   0  0  0  0  0  0
  -32.7428  -20.1220   21.4136 H   0  0  0  0  0  0
  -31.1776  -21.7687   19.3550 H   0  0  0  0  0  0
  -27.3453  -21.9672   19.9993 H   0  0  0  0  0  0
  -29.7900  -23.5976   20.6869 H   0  0  0  0  0  0
  -25.0351  -19.8669   24.6490 H   0  0  0  0  0  0
  -24.2299  -18.4855   23.9049 H   0  0  0  0  0  0
  -24.6148  -19.9101   22.9386 H   0  0  0  0  0  0
  -26.9481  -24.5391   20.7316 H   0  0  0  0  0  0
  -27.4759  -24.5228   19.0746 H   0  0  0  0  0  0
  -26.7389  -18.1009   24.2256 H   0  0  0  0  0  0
  -27.0368  -19.4731   23.2164 H   0  0  0  0  0  0
  -25.6179  -18.1972   21.3567 H   0  0  0  0  0  0
  -25.6325  -16.8641   22.4631 H   0  0  0  0  0  0
  -28.8051  -15.6555   21.1225 H   0  0  0  0  0  0
  1 25  1  0  0  0
  1 30  2  0  0  0
  1 85  1  0  0  0
  2  3  1  0  0  0
  2 25  1  0  0  0
  2 87  1  0  0  0
  2 88  1  0  0  0
  3  4  1  0  0  0
  3 89  1  0  0  0
  3 90  1  0  0  0
  4  5  1  0  0  0
  4 91  1  0  0  0
  4 92  1  0  0  0
  5  6  1  0  0  0
  5 26  1  0  0  0
  5 93  1  0  0  0
  6 25  1  0  0  0
  6 94  1  0  0  0
  6 95  1  0  0  0
  7  8  2  0  0  0
  7 26  1  0  0  0
  7 29  1  0  0  0
  8  9  1  0  0  0
  8 22  1  0  0  0
  9 10  1  0  0  0
  9 27  2  0  0  0
 10 11  2  0  0  0
 10 15  1  0  0  0
 11 12  1  0  0  0
 11 96  1  0  0  0
 12 13  2  0  0  0
 12 97  1  0  0  0
 13 14  1  0  0  0
 13 31  1  0  0  0
 14 15  2  0  0  0
 14 98  1  0  0  0
 15 99  1  0  0  0
 16 17  2  0  0  0
 16 21  1  0  0  0
 16 31  1  0  0  0
 17 18  1  0  0  0
 17100  1  0  0  0
 18 19  2  0  0  0
 18101  1  0  0  0
 19 20  1  0  0  0
 19 24  1  0  0  0
 20 21  2  0  0  0
 20102  1  0  0  0
 21 23  1  0  0  0
 22 28  1  0  0  0
 22 32  2  0  0  0
 26 27  1  0  0  0
 28103  1  0  0  0
 28104  1  0  0  0
 29105  1  0  0  0
 29106  1  0  0  0
 33 34  1  0  0  0
 33 66  1  0  0  0
 33 70  2  0  0  0
 34 36  1  0  0  0
 34 59  1  0  0  0
 34107  1  0  0  0
 35 44  2  0  0  0
 35 45  1  0  0  0
 35 68  1  0  0  0
 36 56  1  0  0  0
 36108  1  0  0  0
 37 39  1  0  0  0
 37 47  1  0  0  0
 37 66  1  0  0  0
 37109  1  0  0  0
 38 43  2  0  0  0
 38 46  1  0  0  0
 38 47  1  0  0  0
 39 64  1  0  0  0
 39 67  2  0  0  0
 40 52  1  0  0  0
 40 53  2  0  0  0
 40 58  1  0  0  0
 41110  1  0  0  0
 41111  1  0  0  0
 41112  1  0  0  0
 41 48  1  0  0  0
 42 43  1  0  0  0
 42 66  1  0  0  0
 42113  1  0  0  0
 42114  1  0  0  0
 43 44  1  0  0  0
 44115  1  0  0  0
 45 46  2  0  0  0
 45116  1  0  0  0
 46117  1  0  0  0
 47118  1  0  0  0
 47119  1  0  0  0
 48 56  1  0  0  0
 48 65  1  0  0  0
 48120  1  0  0  0
 49 50  1  0  0  0
 49 53  1  0  0  0
 49 64  1  0  0  0
 49121  1  0  0  0
 50 51  1  0  0  0
 50122  1  0  0  0
 50123  1  0  0  0
 51 52  1  0  0  0
 51124  1  0  0  0
 51125  1  0  0  0
 52126  1  0  0  0
 52127  1  0  0  0
 53 54  1  0  0  0
 54 55  2  0  0  0
 54128  1  0  0  0
 55 57  1  0  0  0
 55129  1  0  0  0
 56 69  2  0  0  0
 57 58  2  0  0  0
 57130  1  0  0  0
 58131  1  0  0  0
 59 60  1  0  0  0
 59 61  1  0  0  0
 59 62  1  0  0  0
 60132  1  0  0  0
 60133  1  0  0  0
 60134  1  0  0  0
 61135  1  0  0  0
 61136  1  0  0  0
 61137  1  0  0  0
 62138  1  0  0  0
 62139  1  0  0  0
 62140  1  0  0  0
 63 65  1  0  0  0
 63141  1  0  0  0
 63142  1  0  0  0
 63143  1  0  0  0
 64144  1  0  0  0
 65145  1  0  0  0
 68 82  1  0  0  0
 71 73  2  0  0  0
 71 75  1  0  0  0
 71146  1  0  0  0
 72 74  2  0  0  0
 72 76  1  0  0  0
 72147  1  0  0  0
 73 74  1  0  0  0
 73 78  1  0  0  0
 74 79  1  0  0  0
 75 76  2  0  0  0
 75 85  1  0  0  0
 76 86  1  0  0  0
 77 78  2  0  0  0
 77148  1  0  0  0
 77149  1  0  0  0
 78150  1  0  0  0
 79 80  2  0  0  0
 79151  1  0  0  0
 80 82  1  0  0  0
 80152  1  0  0  0
 81 83  1  0  0  0
 81153  1  0  0  0
 81154  1  0  0  0
 81155  1  0  0  0
 82156  1  0  0  0
 82157  1  0  0  0
 83 84  1  0  0  0
 83158  1  0  0  0
 83159  1  0  0  0
 84 86  1  0  0  0
 84160  1  0  0  0
 84161  1  0  0  0
 85162  1  0  0  0
M  ISO  4   1 100  68 101  82 101  85 100
M  END
> <chiral flag>
0

> <version>
0

> <s_m_source_file>
/data/baiqing/PycharmProjects/Reinvent-master-3.2/result/LINK_invent/BTK/process_docking_weight1_custom_product_contain_oxygen_bond_distance_aromatic_linkinvent_7_9_3/rearranged_h_0116.sdf

> <i_m_source_file_index>
51

> <r_mmod_Potential_Energy-OPLS-2005>
443.459045410156

> <r_mmod_Stretch_Energy-OPLS-2005>
203.833297729492

> <r_mmod_Bend_Energy-OPLS-2005>
280.123626708984

> <r_mmod_Torsional_Energy-OPLS-2005>
246.60188293457

> <r_mmod_Improper_Torsional_Energy-OPLS-2005>
3.93363881111145

> <r_mmod_Van_der_Waal_Energy-OPLS-2005>
142.336013793945

> <r_mmod_Electrostatic_Energy-OPLS-2005>
-411.544403076172

> <r_mmod_Solvation_Energy-OPLS-2005>
-197.055648803711

> <b_mmod_Minimization_Converged-OPLS-2005>
0

> <r_mmod_RMS_Derivative-OPLS-2005>
4.78308916091919

$$$$
51
                    3D
 Structure written by MMmdl.
159167  0  0  1  0            999 V2000
  -30.6798  -14.7761   20.4823 C   0  0  0  0  0  0
  -30.4277  -12.4828   19.4772 C   0  0  0  0  0  0
  -29.5224  -12.5219   18.2256 C   0  0  0  0  0  0
  -28.0472  -12.3464   18.6346 C   0  0  0  0  0  0
  -27.6394  -13.2509   19.8231 C   0  0  2  0  0  0
  -28.6791  -13.2472   20.9556 C   0  0  0  0  0  0
  -25.2466  -13.8099   20.5538 C   0  0  0  0  0  0
  -24.1800  -13.0376   20.9124 C   0  0  0  0  0  0
  -24.6413  -11.6858   20.8690 C   0  0  0  0  0  0
  -23.9099  -10.4239   21.0411 C   0  0  0  0  0  0
  -24.3600   -9.4144   21.9193 C   0  0  0  0  0  0
  -23.6241   -8.2194   22.0766 C   0  0  0  0  0  0
  -22.4225   -8.0215   21.3536 C   0  0  0  0  0  0
  -21.9860   -9.0231   20.4673 C   0  0  0  0  0  0
  -22.7242  -10.2090   20.3099 C   0  0  0  0  0  0
  -21.6839   -6.0666   22.5273 C   0  0  0  0  0  0
  -21.4007   -6.5593   23.8198 C   0  0  0  0  0  0
  -21.3704   -5.6771   24.9176 C   0  0  0  0  0  0
  -21.6058   -4.3029   24.7241 C   0  0  0  0  0  0
  -21.8811   -3.8091   23.4366 C   0  0  0  0  0  0
  -21.9164   -4.6888   22.3402 C   0  0  0  0  0  0
  -22.7849  -13.5195   21.1866 C   0  0  0  0  0  0
  -22.1627   -4.2051   21.0991 F   0  0  0  0  0  0
  -21.5659   -3.4534   25.7777 F   0  0  0  0  0  0
  -29.9934  -13.5716   20.3894 N   0  0  0  0  0  0
  -26.2961  -12.9412   20.3081 N   0  0  0  0  0  0
  -25.9352  -11.6558   20.5600 N   0  0  0  0  0  0
  -22.0515  -12.8232   22.0448 N   0  0  0  0  0  0
  -25.4084  -15.1823   20.3862 N   0  0  0  0  0  0
  -31.9013  -14.7954   20.3055 O   0  0  0  0  0  0
  -21.6598   -6.8798   21.4229 O   0  0  0  0  0  0
  -22.3504  -14.5526   20.6737 O   0  0  0  0  0  0
  -24.6191  -31.8640   23.1941 C   0  0  0  0  0  0
  -25.9046  -32.4771   23.8312 C   0  0  1  0  0  0
  -27.2707  -27.3207   20.1238 C   0  0  0  0  0  0
  -25.5905  -33.8568   24.2303 N   0  0  0  0  0  0
  -23.4205  -30.4735   21.5305 C   0  0  2  0  0  0
  -24.8879  -28.9331   20.0946 C   0  0  0  0  0  0
  -22.7619  -29.4508   22.4862 C   0  0  0  0  0  0
  -18.0369  -28.1401   22.8684 C   0  0  0  0  0  0
  -24.1517  -36.7282   23.2609 C   0  0  0  0  0  0
  -25.9633  -30.7987   21.3680 C   0  0  0  0  0  0
  -26.0497  -29.4230   20.7106 C   0  0  0  0  0  0
  -27.2317  -28.6243   20.7129 C   0  0  0  0  0  0
  -26.0803  -26.8715   19.5005 C   0  0  0  0  0  0
  -24.9145  -27.6682   19.4851 C   0  0  0  0  0  0
  -23.6446  -29.8103   20.1417 C   0  0  0  0  0  0
  -25.4137  -36.3060   24.0323 C   0  0  1  0  0  0
  -20.5981  -28.3801   23.1641 C   0  0  2  0  0  0
  -20.6591  -26.9315   22.6365 C   0  0  0  0  0  0
  -19.6249  -26.6897   21.5362 C   0  0  0  0  0  0
  -18.2202  -26.8082   22.1444 C   0  0  0  0  0  0
  -19.1603  -28.8977   23.3059 C   0  0  0  0  0  0
  -18.9450  -30.1482   23.9214 C   0  0  0  0  0  0
  -17.6396  -30.6397   24.0973 C   0  0  0  0  0  0
  -25.9071  -34.9419   23.5092 C   0  0  0  0  0  0
  -16.5321  -29.8859   23.6785 C   0  0  0  0  0  0
  -16.7333  -28.6357   23.0588 C   0  0  0  0  0  0
  -26.4490  -31.6542   25.0636 C   0  0  0  0  0  0
  -25.3670  -31.3777   26.1332 C   0  0  0  0  0  0
  -27.0379  -30.2977   24.6046 C   0  0  0  0  0  0
  -27.6101  -32.4247   25.7381 C   0  0  0  0  0  0
  -27.5592  -37.1791   24.8444 C   0  0  0  0  0  0
  -21.4330  -29.2849   22.3716 N   0  0  0  0  0  0
  -26.4343  -37.3746   23.9368 N   0  0  0  0  0  0
  -24.6822  -31.0677   22.0845 N   0  0  0  0  0  0
  -23.4420  -28.8175   23.3037 O   0  0  0  0  0  0
  -28.4336  -26.5305   20.2311 O   0  0  0  0  0  0
  -26.5629  -34.8828   22.4635 O   0  0  0  0  0  0
  -23.5357  -32.1446   23.7274 O   0  0  0  0  0  0
  -29.2158  -18.9942   22.8560 C   0  0  0  0  0  0
  -29.7172  -18.8089   20.1679 C   0  0  0  0  0  0
  -29.5234  -17.7004   22.3309 C   0  0  0  0  0  0
  -29.0315  -20.1500   22.0572 C   0  0  0  0  0  0
  -29.7626  -17.5536   20.9274 C   0  0  0  0  0  0
  -29.3742  -20.1145   20.6877 C   0  0  0  0  0  0
  -29.7112  -16.6117   24.6086 C   0  0  0  0  0  0
  -27.0483  -21.5963   22.1878 C   0  0  0  0  0  0
  -29.4615  -16.5583   23.2836 C   0  0  0  0  0  0
  -28.2701  -21.2642   22.6479 C   0  0  0  0  0  0
  -29.8725  -16.1836   20.1459 C   0  0  0  0  0  0
  -28.5072  -23.8178   20.3363 C   0  0  0  0  0  0
  -28.6749  -25.2215   19.5698 C   0  0  0  0  0  0
  -29.6018  -22.6412   20.1730 C   0  0  0  0  0  0
  -29.3736  -16.1937   19.0143 O   0  0  0  0  0  0
  -29.2148  -21.2428   19.8436 O   0  0  0  0  0  0
  -31.4786  -12.5791   19.2053 H   0  0  0  0  0  0
  -30.3296  -11.5109   19.9737 H   0  0  0  0  0  0
  -29.8130  -11.7412   17.5215 H   0  0  0  0  0  0
  -29.6528  -13.4671   17.6935 H   0  0  0  0  0  0
  -27.9191  -11.3019   18.9039 H   0  0  0  0  0  0
  -27.3775  -12.5202   17.7883 H   0  0  0  0  0  0
  -27.6183  -14.2635   19.4325 H   0  0  0  0  0  0
  -28.7250  -12.2707   21.4416 H   0  0  0  0  0  0
  -28.3906  -13.9647   21.7232 H   0  0  0  0  0  0
  -25.2731   -9.5581   22.4768 H   0  0  0  0  0  0
  -23.9938   -7.4557   22.7492 H   0  0  0  0  0  0
  -21.0774   -8.8768   19.8974 H   0  0  0  0  0  0
  -22.3690  -10.9632   19.6208 H   0  0  0  0  0  0
  -21.2003   -7.6100   23.9665 H   0  0  0  0  0  0
  -21.1568   -6.0518   25.9073 H   0  0  0  0  0  0
  -22.0544   -2.7539   23.2924 H   0  0  0  0  0  0
  -22.4147  -11.9948   22.4955 H   0  0  0  0  0  0
  -21.1083  -13.1230   22.2619 H   0  0  0  0  0  0
  -24.6088  -15.8073   20.4296 H   0  0  0  0  0  0
  -26.2422  -15.6118   20.0115 H   0  0  0  0  0  0
  -26.7084  -32.5436   23.1028 H   0  0  0  0  0  0
  -25.0016  -33.9798   25.0439 H   0  0  0  0  0  0
  -22.6943  -31.2759   21.3907 H   0  0  0  0  0  0
  -23.3756  -35.9625   23.3283 H   0  0  0  0  0  0
  -24.3586  -36.8903   22.1999 H   0  0  0  0  0  0
  -23.7292  -37.6495   23.6675 H   0  0  0  0  0  0
  -26.0780  -31.5755   20.6089 H   0  0  0  0  0  0
  -26.8322  -30.8507   22.0053 H   0  0  0  0  0  0
  -28.1173  -28.9993   21.2065 H   0  0  0  0  0  0
  -26.0246  -25.8913   19.0488 H   0  0  0  0  0  0
  -24.0185  -27.2881   19.0178 H   0  0  0  0  0  0
  -23.7509  -30.5878   19.3880 H   0  0  0  0  0  0
  -22.7644  -29.2457   19.8377 H   0  0  0  0  0  0
  -25.1310  -36.1904   25.0845 H   0  0  0  0  0  0
  -21.0063  -28.3922   24.1784 H   0  0  0  0  0  0
  -20.4210  -26.2636   23.4759 H   0  0  0  0  0  0
  -21.6647  -26.6444   22.3224 H   0  0  0  0  0  0
  -19.7816  -25.7242   21.0570 H   0  0  0  0  0  0
  -19.7668  -27.4436   20.7593 H   0  0  0  0  0  0
  -17.4575  -26.7175   21.3704 H   0  0  0  0  0  0
  -18.0613  -25.9756   22.8341 H   0  0  0  0  0  0
  -19.7961  -30.7187   24.2676 H   0  0  0  0  0  0
  -17.4969  -31.6024   24.5686 H   0  0  0  0  0  0
  -15.5255  -30.2644   23.8236 H   0  0  0  0  0  0
  -15.8765  -28.0734   22.7212 H   0  0  0  0  0  0
  -24.5921  -30.7023   25.7685 H   0  0  0  0  0  0
  -24.8731  -32.3013   26.4430 H   0  0  0  0  0  0
  -25.7874  -30.9204   27.0296 H   0  0  0  0  0  0
  -26.3093  -29.6711   24.0882 H   0  0  0  0  0  0
  -27.4046  -29.7159   25.4515 H   0  0  0  0  0  0
  -27.8911  -30.4348   23.9362 H   0  0  0  0  0  0
  -27.2874  -33.3695   26.1769 H   0  0  0  0  0  0
  -28.4005  -32.6529   25.0215 H   0  0  0  0  0  0
  -28.0667  -31.8414   26.5404 H   0  0  0  0  0  0
  -28.2570  -38.0128   24.7479 H   0  0  0  0  0  0
  -28.1158  -36.2622   24.6344 H   0  0  0  0  0  0
  -27.2288  -37.1477   25.8853 H   0  0  0  0  0  0
  -20.9436  -29.8473   21.6858 H   0  0  0  0  0  0
  -26.0172  -38.2820   24.1382 H   0  0  0  0  0  0
  -28.9714  -19.1050   23.8993 H   0  0  0  0  0  0
  -29.8924  -18.7585   19.1065 H   0  0  0  0  0  0
  -29.5773  -15.7290   25.2174 H   0  0  0  0  0  0
  -30.0494  -17.5055   25.1125 H   0  0  0  0  0  0
  -26.4593  -22.3922   22.6244 H   0  0  0  0  0  0
  -26.6189  -21.0530   21.3537 H   0  0  0  0  0  0
  -29.1309  -15.6113   22.8884 H   0  0  0  0  0  0
  -28.7167  -21.8125   23.4731 H   0  0  0  0  0  0
  -27.5375  -23.4021   20.0638 H   0  0  0  0  0  0
  -28.4353  -24.0236   21.4072 H   0  0  0  0  0  0
  -29.7122  -25.2700   19.2292 H   0  0  0  0  0  0
  -28.1119  -25.2024   18.6410 H   0  0  0  0  0  0
  -30.2272  -22.9077   19.3168 H   0  0  0  0  0  0
  -30.3120  -22.6741   21.0090 H   0  0  0  0  0  0
  1 25  1  0  0  0
  1 30  2  0  0  0
  1 81  1  0  0  0
  2  3  1  0  0  0
  2 25  1  0  0  0
  2 87  1  0  0  0
  2 88  1  0  0  0
  3  4  1  0  0  0
  3 89  1  0  0  0
  3 90  1  0  0  0
  4  5  1  0  0  0
  4 91  1  0  0  0
  4 92  1  0  0  0
  5  6  1  0  0  0
  5 26  1  0  0  0
  5 93  1  0  0  0
  6 25  1  0  0  0
  6 94  1  0  0  0
  6 95  1  0  0  0
  7  8  2  0  0  0
  7 26  1  0  0  0
  7 29  1  0  0  0
  8  9  1  0  0  0
  8 22  1  0  0  0
  9 10  1  0  0  0
  9 27  2  0  0  0
 10 11  2  0  0  0
 10 15  1  0  0  0
 11 12  1  0  0  0
 11 96  1  0  0  0
 12 13  2  0  0  0
 12 97  1  0  0  0
 13 14  1  0  0  0
 13 31  1  0  0  0
 14 15  2  0  0  0
 14 98  1  0  0  0
 15 99  1  0  0  0
 16 17  2  0  0  0
 16 21  1  0  0  0
 16 31  1  0  0  0
 17 18  1  0  0  0
 17100  1  0  0  0
 18 19  2  0  0  0
 18101  1  0  0  0
 19 20  1  0  0  0
 19 24  1  0  0  0
 20 21  2  0  0  0
 20102  1  0  0  0
 21 23  1  0  0  0
 22 28  1  0  0  0
 22 32  2  0  0  0
 26 27  1  0  0  0
 28103  1  0  0  0
 28104  1  0  0  0
 29105  1  0  0  0
 29106  1  0  0  0
 33 34  1  0  0  0
 33 66  1  0  0  0
 33 70  2  0  0  0
 34 36  1  0  0  0
 34 59  1  0  0  0
 34107  1  0  0  0
 35 44  2  0  0  0
 35 45  1  0  0  0
 35 68  1  0  0  0
 36 56  1  0  0  0
 36108  1  0  0  0
 37 39  1  0  0  0
 37 47  1  0  0  0
 37 66  1  0  0  0
 37109  1  0  0  0
 38 43  2  0  0  0
 38 46  1  0  0  0
 38 47  1  0  0  0
 39 64  1  0  0  0
 39 67  2  0  0  0
 40 52  1  0  0  0
 40 53  2  0  0  0
 40 58  1  0  0  0
 41110  1  0  0  0
 41111  1  0  0  0
 41112  1  0  0  0
 41 48  1  0  0  0
 42 43  1  0  0  0
 42 66  1  0  0  0
 42113  1  0  0  0
 42114  1  0  0  0
 43 44  1  0  0  0
 44115  1  0  0  0
 45 46  2  0  0  0
 45116  1  0  0  0
 46117  1  0  0  0
 47118  1  0  0  0
 47119  1  0  0  0
 48 56  1  0  0  0
 48 65  1  0  0  0
 48120  1  0  0  0
 49 50  1  0  0  0
 49 53  1  0  0  0
 49 64  1  0  0  0
 49121  1  0  0  0
 50 51  1  0  0  0
 50122  1  0  0  0
 50123  1  0  0  0
 51 52  1  0  0  0
 51124  1  0  0  0
 51125  1  0  0  0
 52126  1  0  0  0
 52127  1  0  0  0
 53 54  1  0  0  0
 54 55  2  0  0  0
 54128  1  0  0  0
 55 57  1  0  0  0
 55129  1  0  0  0
 56 69  2  0  0  0
 57 58  2  0  0  0
 57130  1  0  0  0
 58131  1  0  0  0
 59 60  1  0  0  0
 59 61  1  0  0  0
 59 62  1  0  0  0
 60132  1  0  0  0
 60133  1  0  0  0
 60134  1  0  0  0
 61135  1  0  0  0
 61136  1  0  0  0
 61137  1  0  0  0
 62138  1  0  0  0
 62139  1  0  0  0
 62140  1  0  0  0
 63 65  1  0  0  0
 63141  1  0  0  0
 63142  1  0  0  0
 63143  1  0  0  0
 64144  1  0  0  0
 65145  1  0  0  0
 68 83  1  0  0  0
 71 73  2  0  0  0
 71 74  1  0  0  0
 71146  1  0  0  0
 72 75  2  0  0  0
 72 76  1  0  0  0
 72147  1  0  0  0
 73 75  1  0  0  0
 73 79  1  0  0  0
 74 76  2  0  0  0
 74 80  1  0  0  0
 75 81  1  0  0  0
 76 86  1  0  0  0
 77 79  2  0  0  0
 77148  1  0  0  0
 77149  1  0  0  0
 78 80  2  0  0  0
 78150  1  0  0  0
 78151  1  0  0  0
 79152  1  0  0  0
 80153  1  0  0  0
 81 85  2  0  0  0
 82 83  1  0  0  0
 82 84  1  0  0  0
 82154  1  0  0  0
 82155  1  0  0  0
 83156  1  0  0  0
 83157  1  0  0  0
 84 86  1  0  0  0
 84158  1  0  0  0
 84159  1  0  0  0
M  ISO  4   1 100  68 101  81 100  83 101
M  END
> <chiral flag>
0

> <version>
0

> <s_m_source_file>
/data/baiqing/PycharmProjects/Reinvent-master-3.2/result/LINK_invent/BTK/process_docking_weight1_custom_product_contain_oxygen_bond_distance_aromatic_linkinvent_7_9_3/rearranged_h_0116.sdf

> <i_m_source_file_index>
52

> <r_mmod_Potential_Energy-OPLS-2005>
496.688812255859

> <r_mmod_Stretch_Energy-OPLS-2005>
137.083648681641

> <r_mmod_Bend_Energy-OPLS-2005>
225.592041015625

> <r_mmod_Torsional_Energy-OPLS-2005>
292.84521484375

> <r_mmod_Improper_Torsional_Energy-OPLS-2005>
24.816822052002

> <r_mmod_Van_der_Waal_Energy-OPLS-2005>
131.239593505859

> <r_mmod_Electrostatic_Energy-OPLS-2005>
-207.483489990234

> <r_mmod_Solvation_Energy-OPLS-2005>
-197.068588256836

> <b_mmod_Minimization_Converged-OPLS-2005>
0

> <r_mmod_RMS_Derivative-OPLS-2005>
13.5342855453491

$$$$
52
                    3D
 Structure written by MMmdl.
148156  0  0  1  0            999 V2000
  -30.5106  -14.9290   20.4535 C   0  0  0  0  0  0
  -30.4586  -12.5736   19.4925 C   0  0  0  0  0  0
  -29.5288  -12.5401   18.2544 C   0  0  0  0  0  0
  -28.0593  -12.3239   18.6678 C   0  0  0  0  0  0
  -27.6411  -13.2375   19.8472 C   0  0  2  0  0  0
  -28.6870  -13.2199   20.9825 C   0  0  0  0  0  0
  -25.2520  -13.8179   20.5729 C   0  0  0  0  0  0
  -24.1816  -13.0420   20.9215 C   0  0  0  0  0  0
  -24.6414  -11.6902   20.8746 C   0  0  0  0  0  0
  -23.9080  -10.4284   21.0405 C   0  0  0  0  0  0
  -24.3627   -9.4199   21.9186 C   0  0  0  0  0  0
  -23.6291   -8.2240   22.0765 C   0  0  0  0  0  0
  -22.4273   -8.0280   21.3551 C   0  0  0  0  0  0
  -21.9917   -9.0250   20.4640 C   0  0  0  0  0  0
  -22.7255  -10.2123   20.3044 C   0  0  0  0  0  0
  -21.6856   -6.0727   22.5283 C   0  0  0  0  0  0
  -21.4019   -6.5639   23.8214 C   0  0  0  0  0  0
  -21.3658   -5.6799   24.9181 C   0  0  0  0  0  0
  -21.6044   -4.3061   24.7234 C   0  0  0  0  0  0
  -21.8822   -3.8144   23.4360 C   0  0  0  0  0  0
  -21.9197   -4.6953   22.3410 C   0  0  0  0  0  0
  -22.7828  -13.5197   21.1862 C   0  0  0  0  0  0
  -22.1668   -4.2138   21.0985 F   0  0  0  0  0  0
  -21.5625   -3.4546   25.7750 F   0  0  0  0  0  0
  -29.9717  -13.6431   20.4069 N   0  0  0  0  0  0
  -26.2949  -12.9397   20.3286 N   0  0  0  0  0  0
  -25.9350  -11.6537   20.5747 N   0  0  0  0  0  0
  -22.0456  -12.8177   22.0391 N   0  0  0  0  0  0
  -25.4190  -15.1912   20.4190 N   0  0  0  0  0  0
  -31.6856  -15.0539   20.0871 O   0  0  0  0  0  0
  -21.6642   -6.8875   21.4245 O   0  0  0  0  0  0
  -22.3518  -14.5512   20.6717 O   0  0  0  0  0  0
  -24.6429  -31.8456   23.1890 C   0  0  0  0  0  0
  -25.9205  -32.4709   23.8269 C   0  0  1  0  0  0
  -27.2191  -27.1442   20.1550 C   0  0  0  0  0  0
  -25.5968  -33.8510   24.2205 N   0  0  0  0  0  0
  -23.4455  -30.4643   21.5369 C   0  0  2  0  0  0
  -24.8962  -28.8929   20.1148 C   0  0  0  0  0  0
  -22.7560  -29.4546   22.4885 C   0  0  0  0  0  0
  -18.0301  -28.1392   22.8470 C   0  0  0  0  0  0
  -24.1487  -36.7242   23.2638 C   0  0  0  0  0  0
  -26.0006  -30.7237   21.3851 C   0  0  0  0  0  0
  -26.0742  -29.3332   20.7322 C   0  0  0  0  0  0
  -27.2377  -28.4753   20.7363 C   0  0  0  0  0  0
  -26.0193  -26.8135   19.4860 C   0  0  0  0  0  0
  -24.8809  -27.6457   19.4749 C   0  0  0  0  0  0
  -23.6718  -29.7932   20.1571 C   0  0  0  0  0  0
  -25.4119  -36.3043   24.0323 C   0  0  1  0  0  0
  -20.5909  -28.3718   23.1242 C   0  0  2  0  0  0
  -20.6784  -26.9430   22.5394 C   0  0  0  0  0  0
  -19.5760  -26.6392   21.5197 C   0  0  0  0  0  0
  -18.1939  -26.7932   22.1608 C   0  0  0  0  0  0
  -19.1558  -28.8875   23.2842 C   0  0  0  0  0  0
  -18.9471  -30.1473   23.8863 C   0  0  0  0  0  0
  -17.6470  -30.6589   24.0560 C   0  0  0  0  0  0
  -25.9072  -34.9417   23.5070 C   0  0  0  0  0  0
  -16.5361  -29.9080   23.6343 C   0  0  0  0  0  0
  -16.7285  -28.6502   23.0355 C   0  0  0  0  0  0
  -26.4540  -31.6547   25.0690 C   0  0  0  0  0  0
  -25.3741  -31.3690   26.1394 C   0  0  0  0  0  0
  -27.0410  -30.2962   24.6214 C   0  0  0  0  0  0
  -27.6063  -32.4302   25.7481 C   0  0  0  0  0  0
  -27.5577  -37.1788   24.8465 C   0  0  0  0  0  0
  -21.4255  -29.3048   22.3625 N   0  0  0  0  0  0
  -26.4281  -37.3761   23.9416 N   0  0  0  0  0  0
  -24.7165  -31.0311   22.0931 N   0  0  0  0  0  0
  -23.4202  -28.8091   23.3034 O   0  0  0  0  0  0
  -28.2666  -26.1519   20.1962 O   0  0  0  0  0  0
  -26.5645  -34.8911   22.4641 O   0  0  0  0  0  0
  -23.5551  -32.1329   23.7114 O   0  0  0  0  0  0
  -30.6405  -18.7026   19.8973 C   0  0  0  0  0  0
  -29.7305  -17.8653   20.5479 C   0  0  0  0  0  0
  -29.1830  -20.5411   20.4345 C   0  0  0  0  0  0
  -28.5489  -21.9901   20.5566 C   0  0  0  0  0  0
  -28.8541  -23.3389   20.2402 C   0  0  0  0  0  0
  -31.9104  -18.2520   19.2434 C   0  0  0  0  0  0
  -29.6295  -16.2606   20.9064 C   0  0  0  0  0  0
  -27.9131  -24.6650   20.4894 C   0  0  0  0  0  0
  -30.3348  -20.1241   19.8545 N   0  0  0  0  0  0
  -28.4327  -19.0113   21.0994 S   0  0  0  0  0  0
  -31.4896  -12.7472   19.1803 H   0  0  0  0  0  0
  -30.4609  -11.6090   20.0027 H   0  0  0  0  0  0
  -29.8416  -11.7545   17.5657 H   0  0  0  0  0  0
  -29.6192  -13.4803   17.7083 H   0  0  0  0  0  0
  -27.9470  -11.2774   18.9540 H   0  0  0  0  0  0
  -27.3975  -12.4786   17.8144 H   0  0  0  0  0  0
  -27.6151  -14.2473   19.4400 H   0  0  0  0  0  0
  -28.7671  -12.2249   21.4214 H   0  0  0  0  0  0
  -28.3886  -13.8844   21.7945 H   0  0  0  0  0  0
  -25.2768   -9.5672   22.4762 H   0  0  0  0  0  0
  -23.9987   -7.4638   22.7497 H   0  0  0  0  0  0
  -21.0851   -8.8763   19.8941 H   0  0  0  0  0  0
  -22.3715  -10.9656   19.6148 H   0  0  0  0  0  0
  -21.2015   -7.6153   23.9710 H   0  0  0  0  0  0
  -21.1478   -6.0539   25.9084 H   0  0  0  0  0  0
  -22.0599   -2.7599   23.2885 H   0  0  0  0  0  0
  -22.4087  -11.9846   22.4776 H   0  0  0  0  0  0
  -21.1052  -13.1168   22.2540 H   0  0  0  0  0  0
  -24.6483  -15.8411   20.5320 H   0  0  0  0  0  0
  -26.2657  -15.6376   20.0915 H   0  0  0  0  0  0
  -26.7263  -32.5337   23.0989 H   0  0  0  0  0  0
  -25.0147  -33.9625   25.0382 H   0  0  0  0  0  0
  -22.7475  -31.2901   21.3828 H   0  0  0  0  0  0
  -23.3777  -35.9549   23.3279 H   0  0  0  0  0  0
  -24.3580  -36.8892   22.2059 H   0  0  0  0  0  0
  -23.7205  -37.6417   23.6680 H   0  0  0  0  0  0
  -26.1450  -31.4743   20.6062 H   0  0  0  0  0  0
  -26.8761  -30.7825   22.0197 H   0  0  0  0  0  0
  -28.1355  -28.8092   21.2375 H   0  0  0  0  0  0
  -25.9316  -25.8744   18.9623 H   0  0  0  0  0  0
  -23.9861  -27.3083   18.9694 H   0  0  0  0  0  0
  -23.8049  -30.5674   19.4006 H   0  0  0  0  0  0
  -22.7878  -29.2334   19.8474 H   0  0  0  0  0  0
  -25.1297  -36.1874   25.0814 H   0  0  0  0  0  0
  -20.9985  -28.3301   24.1370 H   0  0  0  0  0  0
  -20.5682  -26.2327   23.3601 H   0  0  0  0  0  0
  -21.6649  -26.7444   22.1197 H   0  0  0  0  0  0
  -19.6928  -25.6304   21.1227 H   0  0  0  0  0  0
  -19.6694  -27.3200   20.6723 H   0  0  0  0  0  0
  -17.4209  -26.6690   21.4003 H   0  0  0  0  0  0
  -18.0336  -26.0068   22.8997 H   0  0  0  0  0  0
  -19.7950  -30.7293   24.2218 H   0  0  0  0  0  0
  -17.5029  -31.6268   24.5166 H   0  0  0  0  0  0
  -15.5358  -30.2977   23.7684 H   0  0  0  0  0  0
  -15.8685  -28.0813   22.7088 H   0  0  0  0  0  0
  -24.5955  -30.6997   25.7715 H   0  0  0  0  0  0
  -24.8899  -32.2851   26.4776 H   0  0  0  0  0  0
  -25.8070  -30.8903   27.0190 H   0  0  0  0  0  0
  -26.3014  -29.6676   24.1247 H   0  0  0  0  0  0
  -27.4099  -29.7245   25.4738 H   0  0  0  0  0  0
  -27.8883  -30.4221   23.9472 H   0  0  0  0  0  0
  -27.2674  -33.3662   26.1927 H   0  0  0  0  0  0
  -28.3955  -32.6752   25.0359 H   0  0  0  0  0  0
  -28.0632  -31.8496   26.5510 H   0  0  0  0  0  0
  -28.2562  -38.0120   24.7566 H   0  0  0  0  0  0
  -28.1113  -36.2649   24.6234 H   0  0  0  0  0  0
  -27.2298  -37.1362   25.8870 H   0  0  0  0  0  0
  -20.9471  -29.8774   21.6812 H   0  0  0  0  0  0
  -26.0146  -38.2823   24.1458 H   0  0  0  0  0  0
  -27.5755  -21.9098   21.0195 H   0  0  0  0  0  0
  -29.8067  -23.5416   19.7729 H   0  0  0  0  0  0
  -31.7070  -17.5844   18.4057 H   0  0  0  0  0  0
  -32.5509  -17.7180   19.9454 H   0  0  0  0  0  0
  -32.4891  -19.0919   18.8561 H   0  0  0  0  0  0
  -28.6056  -15.9927   20.6574 H   0  0  0  0  0  0
  -29.6447  -16.2015   21.9950 H   0  0  0  0  0  0
  -27.6692  -24.6411   21.5520 H   0  0  0  0  0  0
  -26.9769  -24.4076   20.0026 H   0  0  0  0  0  0
  1 25  1  0  0  0
  1 30  2  0  0  0
  1 77  1  0  0  0
  2  3  1  0  0  0
  2 25  1  0  0  0
  2 81  1  0  0  0
  2 82  1  0  0  0
  3  4  1  0  0  0
  3 83  1  0  0  0
  3 84  1  0  0  0
  4  5  1  0  0  0
  4 85  1  0  0  0
  4 86  1  0  0  0
  5  6  1  0  0  0
  5 26  1  0  0  0
  5 87  1  0  0  0
  6 25  1  0  0  0
  6 88  1  0  0  0
  6 89  1  0  0  0
  7  8  2  0  0  0
  7 26  1  0  0  0
  7 29  1  0  0  0
  8  9  1  0  0  0
  8 22  1  0  0  0
  9 10  1  0  0  0
  9 27  2  0  0  0
 10 11  2  0  0  0
 10 15  1  0  0  0
 11 12  1  0  0  0
 11 90  1  0  0  0
 12 13  2  0  0  0
 12 91  1  0  0  0
 13 14  1  0  0  0
 13 31  1  0  0  0
 14 15  2  0  0  0
 14 92  1  0  0  0
 15 93  1  0  0  0
 16 17  2  0  0  0
 16 21  1  0  0  0
 16 31  1  0  0  0
 17 18  1  0  0  0
 17 94  1  0  0  0
 18 19  2  0  0  0
 18 95  1  0  0  0
 19 20  1  0  0  0
 19 24  1  0  0  0
 20 21  2  0  0  0
 20 96  1  0  0  0
 21 23  1  0  0  0
 22 28  1  0  0  0
 22 32  2  0  0  0
 26 27  1  0  0  0
 28 97  1  0  0  0
 28 98  1  0  0  0
 29 99  1  0  0  0
 29100  1  0  0  0
 33 34  1  0  0  0
 33 66  1  0  0  0
 33 70  2  0  0  0
 34 36  1  0  0  0
 34 59  1  0  0  0
 34101  1  0  0  0
 35 44  2  0  0  0
 35 45  1  0  0  0
 35 68  1  0  0  0
 36 56  1  0  0  0
 36102  1  0  0  0
 37 39  1  0  0  0
 37 47  1  0  0  0
 37 66  1  0  0  0
 37103  1  0  0  0
 38 43  2  0  0  0
 38 46  1  0  0  0
 38 47  1  0  0  0
 39 64  1  0  0  0
 39 67  2  0  0  0
 40 52  1  0  0  0
 40 53  2  0  0  0
 40 58  1  0  0  0
 41104  1  0  0  0
 41105  1  0  0  0
 41106  1  0  0  0
 41 48  1  0  0  0
 42 43  1  0  0  0
 42 66  1  0  0  0
 42107  1  0  0  0
 42108  1  0  0  0
 43 44  1  0  0  0
 44109  1  0  0  0
 45 46  2  0  0  0
 45110  1  0  0  0
 46111  1  0  0  0
 47112  1  0  0  0
 47113  1  0  0  0
 48 56  1  0  0  0
 48 65  1  0  0  0
 48114  1  0  0  0
 49 50  1  0  0  0
 49 53  1  0  0  0
 49 64  1  0  0  0
 49115  1  0  0  0
 50 51  1  0  0  0
 50116  1  0  0  0
 50117  1  0  0  0
 51 52  1  0  0  0
 51118  1  0  0  0
 51119  1  0  0  0
 52120  1  0  0  0
 52121  1  0  0  0
 53 54  1  0  0  0
 54 55  2  0  0  0
 54122  1  0  0  0
 55 57  1  0  0  0
 55123  1  0  0  0
 56 69  2  0  0  0
 57 58  2  0  0  0
 57124  1  0  0  0
 58125  1  0  0  0
 59 60  1  0  0  0
 59 61  1  0  0  0
 59 62  1  0  0  0
 60126  1  0  0  0
 60127  1  0  0  0
 60128  1  0  0  0
 61129  1  0  0  0
 61130  1  0  0  0
 61131  1  0  0  0
 62132  1  0  0  0
 62133  1  0  0  0
 62134  1  0  0  0
 63 65  1  0  0  0
 63135  1  0  0  0
 63136  1  0  0  0
 63137  1  0  0  0
 64138  1  0  0  0
 65139  1  0  0  0
 68 78  1  0  0  0
 71 72  2  0  0  0
 71 76  1  0  0  0
 71 79  1  0  0  0
 72 77  1  0  0  0
 72 80  1  0  0  0
 73 74  1  0  0  0
 73 79  2  0  0  0
 73 80  1  0  0  0
 74 75  2  0  0  0
 74140  1  0  0  0
 75 78  1  0  0  0
 75141  1  0  0  0
 76142  1  0  0  0
 76143  1  0  0  0
 76144  1  0  0  0
 77145  1  0  0  0
 77146  1  0  0  0
 78147  1  0  0  0
 78148  1  0  0  0
M  ISO  4   1 100  68 101  77 100  78 101
M  END
> <chiral flag>
0

> <version>
0

> <s_m_source_file>
/data/baiqing/PycharmProjects/Reinvent-master-3.2/result/LINK_invent/BTK/process_docking_weight1_custom_product_contain_oxygen_bond_distance_aromatic_linkinvent_7_9_3/rearranged_h_0116.sdf

> <i_m_source_file_index>
53

> <r_mmod_Potential_Energy-OPLS-2005>
444.426147460938

> <r_mmod_Stretch_Energy-OPLS-2005>
229.558547973633

> <r_mmod_Bend_Energy-OPLS-2005>
272.670288085938

> <r_mmod_Torsional_Energy-OPLS-2005>
188.796035766602

> <r_mmod_Improper_Torsional_Energy-OPLS-2005>
2.0503830909729

> <r_mmod_Van_der_Waal_Energy-OPLS-2005>
110.014190673828

> <r_mmod_Electrostatic_Energy-OPLS-2005>
-338.514923095703

> <r_mmod_Solvation_Energy-OPLS-2005>
-200.544067382812

> <b_mmod_Minimization_Converged-OPLS-2005>
0

> <r_mmod_RMS_Derivative-OPLS-2005>
1.60821139812469

$$$$
53
                    3D
 Structure written by MMmdl.
164172  0  0  1  0            999 V2000
  -27.1676  -17.7380   21.1327 C   0  0  0  0  0  0
  -29.1718  -15.1675   19.9466 C   0  0  0  0  0  0
  -29.2383  -13.8151   18.8965 C   0  0  0  0  0  0
  -28.2598  -12.6943   19.2128 C   0  0  0  0  0  0
  -27.2771  -13.5328   19.9999 C   0  0  2  0  0  0
  -27.7125  -14.4920   21.2089 C   0  0  0  0  0  0
  -24.9891  -13.8171   20.5332 C   0  0  0  0  0  0
  -24.0120  -12.9942   20.9287 C   0  0  0  0  0  0
  -24.5554  -11.6700   20.8864 C   0  0  0  0  0  0
  -23.8730  -10.3994   21.0458 C   0  0  0  0  0  0
  -24.3452   -9.4031   21.9234 C   0  0  0  0  0  0
  -23.6194   -8.2053   22.0775 C   0  0  0  0  0  0
  -22.4191   -8.0072   21.3543 C   0  0  0  0  0  0
  -21.9737   -8.9968   20.4636 C   0  0  0  0  0  0
  -22.6984  -10.1840   20.3043 C   0  0  0  0  0  0
  -21.6793   -6.0632   22.5307 C   0  0  0  0  0  0
  -21.3973   -6.5585   23.8224 C   0  0  0  0  0  0
  -21.3645   -5.6759   24.9199 C   0  0  0  0  0  0
  -21.6031   -4.3018   24.7260 C   0  0  0  0  0  0
  -21.8836   -3.8088   23.4396 C   0  0  0  0  0  0
  -21.9180   -4.6880   22.3440 C   0  0  0  0  0  0
  -22.6294  -13.4577   21.2110 C   0  0  0  0  0  0
  -22.1668   -4.2082   21.1013 F   0  0  0  0  0  0
  -21.5629   -3.4517   25.7782 F   0  0  0  0  0  0
  -27.7951  -16.0155   20.7474 N   0  0  0  0  0  0
  -26.0572  -12.9894   20.3352 N   0  0  0  0  0  0
  -25.8476  -11.6823   20.5790 N   0  0  0  0  0  0
  -21.9310  -12.7637   22.0931 N   0  0  0  0  0  0
  -25.0440  -15.1983   20.3309 N   0  0  0  0  0  0
  -28.5288  -17.6770   20.9292 O   0  0  0  0  0  0
  -21.6571   -6.8700   21.4244 O   0  0  0  0  0  0
  -22.1970  -14.4928   20.7018 O   0  0  0  0  0  0
  -24.6461  -32.0307   23.0218 C   0  0  0  0  0  0
  -25.9138  -32.5378   23.7942 C   0  0  1  0  0  0
  -26.6670  -27.4998   20.8850 C   0  0  0  0  0  0
  -25.5949  -33.8958   24.2263 N   0  0  0  0  0  0
  -23.5649  -30.7044   21.1633 C   0  0  2  0  0  0
  -25.0594  -29.2754   19.6704 C   0  0  0  0  0  0
  -23.6093  -29.4077   21.8622 C   0  0  0  0  0  0
  -18.9944  -25.7076   22.3886 C   0  0  0  0  0  0
  -24.1452  -36.7506   23.2648 C   0  0  0  0  0  0
  -26.0497  -31.1240   21.1220 C   0  0  0  0  0  0
  -26.1398  -29.7417   20.4514 C   0  0  0  0  0  0
  -27.0938  -28.8270   20.9002 C   0  0  0  0  0  0
  -25.8726  -26.9983   19.8359 C   0  0  0  0  0  0
  -24.9991  -27.9237   19.2442 C   0  0  0  0  0  0
  -23.8293  -30.1953   19.7115 C   0  0  0  0  0  0
  -25.4078  -36.3354   24.0361 C   0  0  1  0  0  0
  -22.6217  -26.9573   22.2931 C   0  0  2  0  0  0
  -22.0208  -26.8024   20.4720 C   0  0  0  0  0  0
  -20.2881  -26.4082   19.9191 C   0  0  0  0  0  0
  -18.9084  -25.8764   20.8250 C   0  0  0  0  0  0
  -21.1153  -26.4371   23.8268 C   0  0  0  0  0  0
  -20.2845  -27.5289   25.2258 C   0  0  0  0  0  0
  -18.6232  -28.0028   25.3127 C   0  0  0  0  0  0
  -25.9039  -34.9811   23.5092 C   0  0  0  0  0  0
  -17.3774  -27.4756   24.3734 C   0  0  0  0  0  0
  -17.4816  -26.4256   23.0746 C   0  0  0  0  0  0
  -26.4281  -31.6796   25.0299 C   0  0  0  0  0  0
  -25.3591  -31.3671   26.1132 C   0  0  0  0  0  0
  -27.0572  -30.3505   24.5510 C   0  0  0  0  0  0
  -27.5927  -32.4348   25.7262 C   0  0  0  0  0  0
  -27.5589  -37.1918   24.8466 C   0  0  0  0  0  0
  -22.9070  -28.3303   21.5588 N   0  0  0  0  0  0
  -26.4273  -37.4011   23.9465 N   0  0  0  0  0  0
  -24.7418  -31.4482   21.7682 N   0  0  0  0  0  0
  -24.4350  -29.3188   22.7120 O   0  0  0  0  0  0
  -26.5514  -26.9829   22.1792 O   0  0  0  0  0  0
  -26.5544  -34.9287   22.4611 O   0  0  0  0  0  0
  -23.5475  -32.1727   23.5849 O   0  0  0  0  0  0
  -21.2328  -25.1102   21.9284 C   0  0  0  0  0  0
  -19.2980  -25.5040   24.5047 C   0  0  0  0  0  0
  -21.9688  -23.4511   22.6412 C   0  0  0  0  0  0
  -20.5582  -24.0491   23.8574 C   0  0  0  0  0  0
  -19.4346  -27.6868   23.1196 C   0  0  0  0  0  0
  -20.4310  -27.4620   22.0569 C   0  0  0  0  0  0
  -23.8204  -21.1515   22.0844 C   0  0  0  0  0  0
  -25.4730  -19.7119   21.6451 C   0  0  0  0  0  0
  -22.2361  -28.8294   24.0842 C   0  0  0  0  0  0
  -18.6267  -29.0553   22.7429 C   0  0  0  0  0  0
  -23.6140  -26.7847   25.5567 C   0  0  0  0  0  0
  -20.2655  -22.8716   24.7640 C   0  0  0  0  0  0
  -25.2614  -26.9891   23.3291 C   0  0  0  0  0  0
  -23.8366  -27.7889   24.4091 C   0  0  1  0  0  0
  -21.0902  -28.7559   23.0835 N   0  0  0  0  0  0
  -19.0320  -22.1991   24.3391 N   0  3  0  0  0  0
  -29.5729  -15.9635   19.3197 H   0  0  0  0  0  0
  -29.9889  -15.0743   20.6681 H   0  0  0  0  0  0
  -30.2549  -13.4270   18.8395 H   0  0  0  0  0  0
  -29.0103  -14.1749   17.8919 H   0  0  0  0  0  0
  -28.7093  -11.9284   19.8434 H   0  0  0  0  0  0
  -27.8400  -12.2271   18.3207 H   0  0  0  0  0  0
  -26.9693  -14.2051   19.1920 H   0  0  0  0  0  0
  -28.5374  -14.0843   21.8080 H   0  0  0  0  0  0
  -26.9554  -14.5106   21.9951 H   0  0  0  0  0  0
  -25.2550   -9.5633   22.4851 H   0  0  0  0  0  0
  -23.9920   -7.4463   22.7503 H   0  0  0  0  0  0
  -21.0676   -8.8424   19.8945 H   0  0  0  0  0  0
  -22.3398  -10.9384   19.6181 H   0  0  0  0  0  0
  -21.1961   -7.6097   23.9700 H   0  0  0  0  0  0
  -21.1449   -6.0503   25.9095 H   0  0  0  0  0  0
  -22.0630   -2.7551   23.2915 H   0  0  0  0  0  0
  -22.3108  -11.9337   22.5240 H   0  0  0  0  0  0
  -20.9989  -13.0627   22.3421 H   0  0  0  0  0  0
  -24.2059  -15.7688   20.3588 H   0  0  0  0  0  0
  -25.8505  -15.6617   19.9339 H   0  0  0  0  0  0
  -26.7677  -32.6340   23.1309 H   0  0  0  0  0  0
  -25.0106  -33.9954   25.0442 H   0  0  0  0  0  0
  -22.6085  -31.2148   21.2825 H   0  0  0  0  0  0
  -23.3723  -35.9826   23.3318 H   0  0  0  0  0  0
  -24.3556  -36.9116   22.2060 H   0  0  0  0  0  0
  -23.7186  -37.6711   23.6655 H   0  0  0  0  0  0
  -26.2475  -31.8892   20.3704 H   0  0  0  0  0  0
  -26.8911  -31.1625   21.8016 H   0  0  0  0  0  0
  -27.7527  -29.1490   21.6943 H   0  0  0  0  0  0
  -25.6254  -25.9476   19.7718 H   0  0  0  0  0  0
  -24.1892  -27.5675   18.6267 H   0  0  0  0  0  0
  -24.0259  -31.0511   19.0680 H   0  0  0  0  0  0
  -22.9546  -29.7092   19.2763 H   0  0  0  0  0  0
  -25.1261  -36.2174   25.0852 H   0  0  0  0  0  0
  -23.3931  -26.2076   22.2349 H   0  0  0  0  0  0
  -22.6600  -26.0130   20.0643 H   0  0  0  0  0  0
  -22.3070  -27.5234   19.6936 H   0  0  0  0  0  0
  -20.3705  -25.7450   19.0553 H   0  0  0  0  0  0
  -19.9480  -27.3309   19.4453 H   0  0  0  0  0  0
  -18.0794  -26.5427   20.5869 H   0  0  0  0  0  0
  -18.6038  -24.9086   20.4278 H   0  0  0  0  0  0
  -20.9032  -27.9603   25.9985 H   0  0  0  0  0  0
  -18.3615  -28.6761   26.1147 H   0  0  0  0  0  0
  -16.3984  -27.8694   24.6129 H   0  0  0  0  0  0
  -16.5746  -26.2995   22.5034 H   0  0  0  0  0  0
  -25.4504  -30.3458   26.4855 H   0  0  0  0  0  0
  -24.3354  -31.4739   25.7646 H   0  0  0  0  0  0
  -25.4518  -32.0233   26.9803 H   0  0  0  0  0  0
  -27.5019  -29.8023   25.3809 H   0  0  0  0  0  0
  -27.8575  -30.5192   23.8298 H   0  0  0  0  0  0
  -26.3413  -29.6831   24.0883 H   0  0  0  0  0  0
  -27.2736  -33.3786   26.1688 H   0  0  0  0  0  0
  -28.3936  -32.6659   25.0227 H   0  0  0  0  0  0
  -28.0341  -31.8466   26.5316 H   0  0  0  0  0  0
  -28.2622  -38.0206   24.7574 H   0  0  0  0  0  0
  -28.1072  -36.2770   24.6188 H   0  0  0  0  0  0
  -27.2356  -37.1461   25.8877 H   0  0  0  0  0  0
  -22.2498  -28.4960   20.8132 H   0  0  0  0  0  0
  -26.0194  -38.3082   24.1556 H   0  0  0  0  0  0
  -21.3497  -24.6894   20.9394 H   0  0  0  0  0  0
  -18.5821  -25.3214   25.2944 H   0  0  0  0  0  0
  -23.0421  -20.4008   22.0665 H   0  0  0  0  0  0
  -26.2409  -20.4687   21.6333 H   0  0  0  0  0  0
  -22.2610  -29.7189   24.7182 H   0  0  0  0  0  0
  -17.6089  -28.9014   22.3909 H   0  0  0  0  0  0
  -19.0777  -29.5535   21.8822 H   0  0  0  0  0  0
  -18.6148  -29.7947   23.5451 H   0  0  0  0  0  0
  -23.1911  -25.8424   25.2112 H   0  0  0  0  0  0
  -22.9789  -27.1867   26.3443 H   0  0  0  0  0  0
  -24.5652  -26.5341   26.0224 H   0  0  0  0  0  0
  -20.1585  -23.2188   25.7924 H   0  0  0  0  0  0
  -21.0984  -22.1684   24.7481 H   0  0  0  0  0  0
  -25.0278  -25.9248   23.3361 H   0  0  0  0  0  0
  -25.9811  -27.0135   24.1467 H   0  0  0  0  0  0
  -24.4045  -28.5438   24.9564 H   0  0  0  0  0  0
  -18.2584  -22.8330   24.4034 H   0  0  0  0  0  0
  -18.8519  -21.4068   24.9277 H   0  0  0  0  0  0
  -19.1164  -21.8861   23.3906 H   0  0  0  0  0  0
  1 25  1  0  0  0
  1 30  2  0  0  0
  1 78  1  0  0  0
  2  3  1  0  0  0
  2 25  1  0  0  0
  2 87  1  0  0  0
  2 88  1  0  0  0
  3  4  1  0  0  0
  3 89  1  0  0  0
  3 90  1  0  0  0
  4  5  1  0  0  0
  4 91  1  0  0  0
  4 92  1  0  0  0
  5  6  1  0  0  0
  5 26  1  0  0  0
  5 93  1  0  0  0
  6 25  1  0  0  0
  6 94  1  0  0  0
  6 95  1  0  0  0
  7  8  2  0  0  0
  7 26  1  0  0  0
  7 29  1  0  0  0
  8  9  1  0  0  0
  8 22  1  0  0  0
  9 10  1  0  0  0
  9 27  2  0  0  0
 10 11  2  0  0  0
 10 15  1  0  0  0
 11 12  1  0  0  0
 11 96  1  0  0  0
 12 13  2  0  0  0
 12 97  1  0  0  0
 13 14  1  0  0  0
 13 31  1  0  0  0
 14 15  2  0  0  0
 14 98  1  0  0  0
 15 99  1  0  0  0
 16 17  2  0  0  0
 16 21  1  0  0  0
 16 31  1  0  0  0
 17 18  1  0  0  0
 17100  1  0  0  0
 18 19  2  0  0  0
 18101  1  0  0  0
 19 20  1  0  0  0
 19 24  1  0  0  0
 20 21  2  0  0  0
 20102  1  0  0  0
 21 23  1  0  0  0
 22 28  1  0  0  0
 22 32  2  0  0  0
 26 27  1  0  0  0
 28103  1  0  0  0
 28104  1  0  0  0
 29105  1  0  0  0
 29106  1  0  0  0
 33 34  1  0  0  0
 33 66  1  0  0  0
 33 70  2  0  0  0
 34 36  1  0  0  0
 34 59  1  0  0  0
 34107  1  0  0  0
 35 44  2  0  0  0
 35 45  1  0  0  0
 35 68  1  0  0  0
 36 56  1  0  0  0
 36108  1  0  0  0
 37 39  1  0  0  0
 37 47  1  0  0  0
 37 66  1  0  0  0
 37109  1  0  0  0
 38 43  2  0  0  0
 38 46  1  0  0  0
 38 47  1  0  0  0
 39 64  1  0  0  0
 39 67  2  0  0  0
 40 52  1  0  0  0
 40 53  2  0  0  0
 40 58  1  0  0  0
 41110  1  0  0  0
 41111  1  0  0  0
 41112  1  0  0  0
 41 48  1  0  0  0
 42 43  1  0  0  0
 42 66  1  0  0  0
 42113  1  0  0  0
 42114  1  0  0  0
 43 44  1  0  0  0
 44115  1  0  0  0
 45 46  2  0  0  0
 45116  1  0  0  0
 46117  1  0  0  0
 47118  1  0  0  0
 47119  1  0  0  0
 48 56  1  0  0  0
 48 65  1  0  0  0
 48120  1  0  0  0
 49 50  1  0  0  0
 49 53  1  0  0  0
 49 64  1  0  0  0
 49121  1  0  0  0
 50 51  1  0  0  0
 50122  1  0  0  0
 50123  1  0  0  0
 51 52  1  0  0  0
 51124  1  0  0  0
 51125  1  0  0  0
 52126  1  0  0  0
 52127  1  0  0  0
 53 54  1  0  0  0
 54 55  2  0  0  0
 54128  1  0  0  0
 55 57  1  0  0  0
 55129  1  0  0  0
 56 69  2  0  0  0
 57 58  2  0  0  0
 57130  1  0  0  0
 58131  1  0  0  0
 59 60  1  0  0  0
 59 61  1  0  0  0
 59 62  1  0  0  0
 60132  1  0  0  0
 60133  1  0  0  0
 60134  1  0  0  0
 61135  1  0  0  0
 61136  1  0  0  0
 61137  1  0  0  0
 62138  1  0  0  0
 62139  1  0  0  0
 62140  1  0  0  0
 63 65  1  0  0  0
 63141  1  0  0  0
 63142  1  0  0  0
 63143  1  0  0  0
 64144  1  0  0  0
 65145  1  0  0  0
 68 83  1  0  0  0
 71 73  2  0  0  0
 71 76  1  0  0  0
 71146  1  0  0  0
 72 74  2  0  0  0
 72 75  1  0  0  0
 72147  1  0  0  0
 73 74  1  0  0  0
 73 77  1  0  0  0
 74 82  1  0  0  0
 75 76  2  0  0  0
 75 80  1  0  0  0
 76 85  1  0  0  0
 77 78  2  0  0  0
 77148  1  0  0  0
 78149  1  0  0  0
 79 84  1  0  0  0
 79 85  2  0  0  0
 79150  1  0  0  0
 80151  1  0  0  0
 80152  1  0  0  0
 80153  1  0  0  0
 81154  1  0  0  0
 81155  1  0  0  0
 81156  1  0  0  0
 81 84  1  0  0  0
 82 86  1  0  0  0
 82157  1  0  0  0
 82158  1  0  0  0
 83 84  1  0  0  0
 83159  1  0  0  0
 83160  1  0  0  0
 84161  1  0  0  0
 86162  1  0  0  0
 86163  1  0  0  0
 86164  1  0  0  0
M  CHG  1  86   1
M  ISO  4   1 100  68 101  78 100  83 101
M  END
> <chiral flag>
0

> <version>
0

> <s_m_source_file>
/data/baiqing/PycharmProjects/Reinvent-master-3.2/result/LINK_invent/BTK/process_docking_weight1_custom_product_contain_oxygen_bond_distance_aromatic_linkinvent_7_9_3/rearranged_h_0116.sdf

> <i_m_source_file_index>
54

> <r_mmod_Potential_Energy-OPLS-2005>
47219.3046875

> <r_mmod_Stretch_Energy-OPLS-2005>
22137.931640625

> <r_mmod_Bend_Energy-OPLS-2005>
3059.10327148438

> <r_mmod_Torsional_Energy-OPLS-2005>
723.798400878906

> <r_mmod_Improper_Torsional_Energy-OPLS-2005>
104.75838470459

> <r_mmod_Van_der_Waal_Energy-OPLS-2005>
5791.32177734375

> <r_mmod_Electrostatic_Energy-OPLS-2005>
-352.199584960938

> <r_mmod_Solvation_Energy-OPLS-2005>
-468.255645751953

> <b_mmod_Minimization_Converged-OPLS-2005>
0

> <r_mmod_RMS_Derivative-OPLS-2005>
6.05023670196533

$$$$
54
                    3D
 Structure written by MMmdl.
158166  0  0  1  0            999 V2000
  -30.6570  -14.6046   20.5928 C   0  0  0  0  0  0
  -30.4342  -12.4122   19.4278 C   0  0  0  0  0  0
  -29.5072  -12.5742   18.2054 C   0  0  0  0  0  0
  -28.0182  -12.4304   18.5966 C   0  0  0  0  0  0
  -27.6562  -13.2394   19.8697 C   0  0  2  0  0  0
  -28.6954  -13.0430   20.9905 C   0  0  0  0  0  0
  -25.2522  -13.8219   20.5763 C   0  0  0  0  0  0
  -24.1819  -13.0445   20.9152 C   0  0  0  0  0  0
  -24.6429  -11.6910   20.8657 C   0  0  0  0  0  0
  -23.9093  -10.4305   21.0360 C   0  0  0  0  0  0
  -24.3640   -9.4227   21.9156 C   0  0  0  0  0  0
  -23.6313   -8.2266   22.0738 C   0  0  0  0  0  0
  -22.4288   -8.0293   21.3546 C   0  0  0  0  0  0
  -21.9933   -9.0253   20.4639 C   0  0  0  0  0  0
  -22.7258  -10.2130   20.3027 C   0  0  0  0  0  0
  -21.6856   -6.0734   22.5287 C   0  0  0  0  0  0
  -21.4024   -6.5648   23.8215 C   0  0  0  0  0  0
  -21.3663   -5.6791   24.9184 C   0  0  0  0  0  0
  -21.6033   -4.3046   24.7223 C   0  0  0  0  0  0
  -21.8823   -3.8156   23.4343 C   0  0  0  0  0  0
  -21.9195   -4.6972   22.3411 C   0  0  0  0  0  0
  -22.7828  -13.5177   21.1836 C   0  0  0  0  0  0
  -22.1658   -4.2157   21.0975 F   0  0  0  0  0  0
  -21.5623   -3.4545   25.7731 F   0  0  0  0  0  0
  -30.0142  -13.4012   20.4456 N   0  0  0  0  0  0
  -26.2984  -12.9456   20.3346 N   0  0  0  0  0  0
  -25.9376  -11.6593   20.5684 N   0  0  0  0  0  0
  -22.0509  -12.8172   22.0415 N   0  0  0  0  0  0
  -25.4219  -15.1980   20.4247 N   0  0  0  0  0  0
  -31.7267  -14.8326   20.0158 O   0  0  0  0  0  0
  -21.6632   -6.8888   21.4250 O   0  0  0  0  0  0
  -22.3508  -14.5491   20.6676 O   0  0  0  0  0  0
  -24.6424  -31.8532   23.1931 C   0  0  0  0  0  0
  -25.9156  -32.4745   23.8324 C   0  0  1  0  0  0
  -27.2229  -27.2737   20.0685 C   0  0  0  0  0  0
  -25.5958  -33.8529   24.2259 N   0  0  0  0  0  0
  -23.4300  -30.4862   21.5412 C   0  0  2  0  0  0
  -24.8653  -28.9170   20.1092 C   0  0  0  0  0  0
  -22.7434  -29.4713   22.4919 C   0  0  0  0  0  0
  -18.0280  -28.1604   22.8740 C   0  0  0  0  0  0
  -24.1488  -36.7281   23.2661 C   0  0  0  0  0  0
  -25.9795  -30.7504   21.3775 C   0  0  0  0  0  0
  -26.0424  -29.3783   20.7158 C   0  0  0  0  0  0
  -27.2219  -28.5699   20.6878 C   0  0  0  0  0  0
  -26.0120  -26.8589   19.4686 C   0  0  0  0  0  0
  -24.8554  -27.6604   19.4875 C   0  0  0  0  0  0
  -23.6455  -29.8110   20.1644 C   0  0  0  0  0  0
  -25.4118  -36.3045   24.0349 C   0  0  1  0  0  0
  -20.5890  -28.3940   23.1255 C   0  0  2  0  0  0
  -20.6761  -26.9730   22.5237 C   0  0  0  0  0  0
  -19.5407  -26.6399   21.5434 C   0  0  0  0  0  0
  -18.1853  -26.7981   22.2333 C   0  0  0  0  0  0
  -19.1570  -28.9119   23.2935 C   0  0  0  0  0  0
  -18.9525  -30.1790   23.8726 C   0  0  0  0  0  0
  -17.6538  -30.6900   24.0464 C   0  0  0  0  0  0
  -25.9056  -34.9409   23.5075 C   0  0  0  0  0  0
  -16.5415  -29.9315   23.6409 C   0  0  0  0  0  0
  -16.7279  -28.6694   23.0541 C   0  0  0  0  0  0
  -26.4486  -31.6552   25.0704 C   0  0  0  0  0  0
  -25.3703  -31.3656   26.1434 C   0  0  0  0  0  0
  -27.0352  -30.2970   24.6186 C   0  0  0  0  0  0
  -27.6034  -32.4310   25.7508 C   0  0  0  0  0  0
  -27.5580  -37.1796   24.8456 C   0  0  0  0  0  0
  -21.4122  -29.3405   22.3739 N   0  0  0  0  0  0
  -26.4287  -37.3763   23.9408 N   0  0  0  0  0  0
  -24.7078  -31.0533   22.0910 N   0  0  0  0  0  0
  -23.4143  -28.8103   23.2869 O   0  0  0  0  0  0
  -28.3561  -26.4362   20.0497 O   0  0  0  0  0  0
  -26.5628  -34.8902   22.4634 O   0  0  0  0  0  0
  -23.5551  -32.1330   23.7181 O   0  0  0  0  0  0
  -28.8457  -17.1811   22.6426 C   0  0  0  0  0  0
  -28.5949  -19.4843   21.9001 C   0  0  0  0  0  0
  -28.4110  -18.4928   22.8708 C   0  0  0  0  0  0
  -29.5619  -16.8007   21.4751 C   0  0  0  0  0  0
  -29.2168  -19.2069   20.6670 C   0  0  0  0  0  0
  -29.6814  -17.8274   20.4499 C   0  0  0  0  0  0
  -27.9944  -23.8862   20.3971 C   0  0  0  0  0  0
  -28.1082  -22.5064   20.3984 C   0  0  0  0  0  0
  -27.8327  -18.8514   24.2275 C   0  0  0  0  0  0
  -30.6938  -15.0563   22.9023 C   0  0  0  0  0  0
  -28.3442  -25.0729   19.4350 C   0  0  0  0  0  0
  -28.6119  -21.4016   19.4091 C   0  0  0  0  0  0
  -30.1876  -15.4527   21.5649 N   0  0  0  0  0  0
  -29.5409  -20.3145   19.8423 O   0  0  0  0  0  0
  -30.2754  -17.5088   19.2751 F   0  0  0  0  0  0
  -31.4768  -12.5433   19.1264 H   0  0  0  0  0  0
  -30.3755  -11.4025   19.8293 H   0  0  0  0  0  0
  -29.7594  -11.8595   17.4199 H   0  0  0  0  0  0
  -29.6751  -13.5687   17.7773 H   0  0  0  0  0  0
  -27.7959  -11.3729   18.7483 H   0  0  0  0  0  0
  -27.3970  -12.7647   17.7673 H   0  0  0  0  0  0
  -27.6854  -14.2954   19.5935 H   0  0  0  0  0  0
  -28.7054  -12.0051   21.3330 H   0  0  0  0  0  0
  -28.4218  -13.6383   21.8624 H   0  0  0  0  0  0
  -25.2797   -9.5684   22.4723 H   0  0  0  0  0  0
  -24.0004   -7.4657   22.7483 H   0  0  0  0  0  0
  -21.0850   -8.8783   19.8955 H   0  0  0  0  0  0
  -22.3737  -10.9650   19.6121 H   0  0  0  0  0  0
  -21.2021   -7.6161   23.9731 H   0  0  0  0  0  0
  -21.1478   -6.0517   25.9075 H   0  0  0  0  0  0
  -22.0598   -2.7623   23.2842 H   0  0  0  0  0  0
  -22.4104  -11.9805   22.4756 H   0  0  0  0  0  0
  -21.1117  -13.1194   22.2649 H   0  0  0  0  0  0
  -24.6608  -15.8497   20.5681 H   0  0  0  0  0  0
  -26.2836  -15.6501   20.1580 H   0  0  0  0  0  0
  -26.7161  -32.5345   23.1035 H   0  0  0  0  0  0
  -25.0076  -33.9665   25.0381 H   0  0  0  0  0  0
  -22.7429  -31.3187   21.3921 H   0  0  0  0  0  0
  -23.3756  -35.9604   23.3288 H   0  0  0  0  0  0
  -24.3572  -36.8939   22.2079 H   0  0  0  0  0  0
  -23.7216  -37.6465   23.6678 H   0  0  0  0  0  0
  -26.1273  -31.5035   20.5996 H   0  0  0  0  0  0
  -26.8517  -30.7995   22.0144 H   0  0  0  0  0  0
  -28.1214  -28.9345   21.1634 H   0  0  0  0  0  0
  -25.9099  -25.9004   18.9836 H   0  0  0  0  0  0
  -23.9612  -27.2842   19.0209 H   0  0  0  0  0  0
  -23.7688  -30.5826   19.4083 H   0  0  0  0  0  0
  -22.7526  -29.2599   19.8551 H   0  0  0  0  0  0
  -25.1287  -36.1941   25.0853 H   0  0  0  0  0  0
  -21.0045  -28.3370   24.1327 H   0  0  0  0  0  0
  -20.5980  -26.2717   23.3531 H   0  0  0  0  0  0
  -21.6515  -26.8001   22.0695 H   0  0  0  0  0  0
  -19.6452  -25.6227   21.1674 H   0  0  0  0  0  0
  -19.5926  -27.3054   20.6836 H   0  0  0  0  0  0
  -17.3648  -26.6143   21.5368 H   0  0  0  0  0  0
  -18.0621  -26.0674   23.0303 H   0  0  0  0  0  0
  -19.7976  -30.7716   24.1858 H   0  0  0  0  0  0
  -17.5186  -31.6650   24.4986 H   0  0  0  0  0  0
  -15.5410  -30.3234   23.7885 H   0  0  0  0  0  0
  -15.8660  -28.0921   22.7491 H   0  0  0  0  0  0
  -24.5913  -30.6998   25.7710 H   0  0  0  0  0  0
  -24.8884  -32.2796   26.4890 H   0  0  0  0  0  0
  -25.8065  -30.8791   27.0179 H   0  0  0  0  0  0
  -26.2914  -29.6775   24.1180 H   0  0  0  0  0  0
  -27.3964  -29.7215   25.4724 H   0  0  0  0  0  0
  -27.8812  -30.4244   23.9449 H   0  0  0  0  0  0
  -27.2591  -33.3610   26.2061 H   0  0  0  0  0  0
  -28.3849  -32.6923   25.0345 H   0  0  0  0  0  0
  -28.0671  -31.8460   26.5471 H   0  0  0  0  0  0
  -28.2594  -38.0099   24.7511 H   0  0  0  0  0  0
  -28.1098  -36.2644   24.6265 H   0  0  0  0  0  0
  -27.2301  -37.1386   25.8858 H   0  0  0  0  0  0
  -20.9279  -29.9474   21.7206 H   0  0  0  0  0  0
  -26.0196  -38.2858   24.1366 H   0  0  0  0  0  0
  -28.7034  -16.5027   23.4617 H   0  0  0  0  0  0
  -28.3586  -20.4946   22.1745 H   0  0  0  0  0  0
  -27.5145  -24.2528   21.2900 H   0  0  0  0  0  0
  -27.6772  -22.0777   21.2782 H   0  0  0  0  0  0
  -28.4875  -18.4976   25.0257 H   0  0  0  0  0  0
  -26.8495  -18.4061   24.3676 H   0  0  0  0  0  0
  -27.7355  -19.9352   24.3471 H   0  0  0  0  0  0
  -31.4936  -14.3081   22.8930 H   0  0  0  0  0  0
  -31.1172  -15.9249   23.4119 H   0  0  0  0  0  0
  -29.8979  -14.6508   23.5332 H   0  0  0  0  0  0
  -27.6995  -25.0354   18.5564 H   0  0  0  0  0  0
  -29.3426  -24.8833   19.0227 H   0  0  0  0  0  0
  -27.7386  -20.9265   18.9560 H   0  0  0  0  0  0
  -29.0889  -21.9415   18.5903 H   0  0  0  0  0  0
  1 25  1  0  0  0
  1 30  2  0  0  0
  1 83  1  0  0  0
  2  3  1  0  0  0
  2 25  1  0  0  0
  2 86  1  0  0  0
  2 87  1  0  0  0
  3  4  1  0  0  0
  3 88  1  0  0  0
  3 89  1  0  0  0
  4  5  1  0  0  0
  4 90  1  0  0  0
  4 91  1  0  0  0
  5  6  1  0  0  0
  5 26  1  0  0  0
  5 92  1  0  0  0
  6 25  1  0  0  0
  6 93  1  0  0  0
  6 94  1  0  0  0
  7  8  2  0  0  0
  7 26  1  0  0  0
  7 29  1  0  0  0
  8  9  1  0  0  0
  8 22  1  0  0  0
  9 10  1  0  0  0
  9 27  2  0  0  0
 10 11  2  0  0  0
 10 15  1  0  0  0
 11 12  1  0  0  0
 11 95  1  0  0  0
 12 13  2  0  0  0
 12 96  1  0  0  0
 13 14  1  0  0  0
 13 31  1  0  0  0
 14 15  2  0  0  0
 14 97  1  0  0  0
 15 98  1  0  0  0
 16 17  2  0  0  0
 16 21  1  0  0  0
 16 31  1  0  0  0
 17 18  1  0  0  0
 17 99  1  0  0  0
 18 19  2  0  0  0
 18100  1  0  0  0
 19 20  1  0  0  0
 19 24  1  0  0  0
 20 21  2  0  0  0
 20101  1  0  0  0
 21 23  1  0  0  0
 22 28  1  0  0  0
 22 32  2  0  0  0
 26 27  1  0  0  0
 28102  1  0  0  0
 28103  1  0  0  0
 29104  1  0  0  0
 29105  1  0  0  0
 33 34  1  0  0  0
 33 66  1  0  0  0
 33 70  2  0  0  0
 34 36  1  0  0  0
 34 59  1  0  0  0
 34106  1  0  0  0
 35 44  2  0  0  0
 35 45  1  0  0  0
 35 68  1  0  0  0
 36 56  1  0  0  0
 36107  1  0  0  0
 37 39  1  0  0  0
 37 47  1  0  0  0
 37 66  1  0  0  0
 37108  1  0  0  0
 38 43  2  0  0  0
 38 46  1  0  0  0
 38 47  1  0  0  0
 39 64  1  0  0  0
 39 67  2  0  0  0
 40 52  1  0  0  0
 40 53  2  0  0  0
 40 58  1  0  0  0
 41109  1  0  0  0
 41110  1  0  0  0
 41111  1  0  0  0
 41 48  1  0  0  0
 42 43  1  0  0  0
 42 66  1  0  0  0
 42112  1  0  0  0
 42113  1  0  0  0
 43 44  1  0  0  0
 44114  1  0  0  0
 45 46  2  0  0  0
 45115  1  0  0  0
 46116  1  0  0  0
 47117  1  0  0  0
 47118  1  0  0  0
 48 56  1  0  0  0
 48 65  1  0  0  0
 48119  1  0  0  0
 49 50  1  0  0  0
 49 53  1  0  0  0
 49 64  1  0  0  0
 49120  1  0  0  0
 50 51  1  0  0  0
 50121  1  0  0  0
 50122  1  0  0  0
 51 52  1  0  0  0
 51123  1  0  0  0
 51124  1  0  0  0
 52125  1  0  0  0
 52126  1  0  0  0
 53 54  1  0  0  0
 54 55  2  0  0  0
 54127  1  0  0  0
 55 57  1  0  0  0
 55128  1  0  0  0
 56 69  2  0  0  0
 57 58  2  0  0  0
 57129  1  0  0  0
 58130  1  0  0  0
 59 60  1  0  0  0
 59 61  1  0  0  0
 59 62  1  0  0  0
 60131  1  0  0  0
 60132  1  0  0  0
 60133  1  0  0  0
 61134  1  0  0  0
 61135  1  0  0  0
 61136  1  0  0  0
 62137  1  0  0  0
 62138  1  0  0  0
 62139  1  0  0  0
 63 65  1  0  0  0
 63140  1  0  0  0
 63141  1  0  0  0
 63142  1  0  0  0
 64143  1  0  0  0
 65144  1  0  0  0
 68 81  1  0  0  0
 71 73  2  0  0  0
 71 74  1  0  0  0
 71145  1  0  0  0
 72 73  1  0  0  0
 72 75  2  0  0  0
 72146  1  0  0  0
 73 79  1  0  0  0
 74 76  2  0  0  0
 74 83  1  0  0  0
 75 76  1  0  0  0
 75 84  1  0  0  0
 76 85  1  0  0  0
 77 78  2  0  0  0
 77 81  1  0  0  0
 77147  1  0  0  0
 78 82  1  0  0  0
 78148  1  0  0  0
 79149  1  0  0  0
 79150  1  0  0  0
 79151  1  0  0  0
 80 83  1  0  0  0
 80152  1  0  0  0
 80153  1  0  0  0
 80154  1  0  0  0
 81155  1  0  0  0
 81156  1  0  0  0
 82 84  1  0  0  0
 82157  1  0  0  0
 82158  1  0  0  0
M  ISO  4   1 100  68 101  81 101  83 100
M  END
> <chiral flag>
0

> <version>
0

> <s_m_source_file>
/data/baiqing/PycharmProjects/Reinvent-master-3.2/result/LINK_invent/BTK/process_docking_weight1_custom_product_contain_oxygen_bond_distance_aromatic_linkinvent_7_9_3/rearranged_h_0116.sdf

> <i_m_source_file_index>
55

> <r_mmod_Potential_Energy-OPLS-2005>
371.863067626953

> <r_mmod_Stretch_Energy-OPLS-2005>
111.455307006836

> <r_mmod_Bend_Energy-OPLS-2005>
221.412796020508

> <r_mmod_Torsional_Energy-OPLS-2005>
296.805023193359

> <r_mmod_Improper_Torsional_Energy-OPLS-2005>
8.057785987854

> <r_mmod_Van_der_Waal_Energy-OPLS-2005>
155.130599975586

> <r_mmod_Electrostatic_Energy-OPLS-2005>
-280.541168212891

> <r_mmod_Solvation_Energy-OPLS-2005>
-193.274215698242

> <b_mmod_Minimization_Converged-OPLS-2005>
0

> <r_mmod_RMS_Derivative-OPLS-2005>
12.4344463348389

$$$$
55
                    3D
 Structure written by MMmdl.
158166  0  0  1  0            999 V2000
  -30.5806  -14.7190   20.4348 C   0  0  0  0  0  0
  -30.4329  -12.4035   19.5141 C   0  0  0  0  0  0
  -29.5280  -12.4129   18.2605 C   0  0  0  0  0  0
  -28.0349  -12.3163   18.6458 C   0  0  0  0  0  0
  -27.6385  -13.2239   19.8447 C   0  0  2  0  0  0
  -28.6740  -13.1402   20.9886 C   0  0  0  0  0  0
  -25.2473  -13.8196   20.5659 C   0  0  0  0  0  0
  -24.1787  -13.0455   20.9244 C   0  0  0  0  0  0
  -24.6351  -11.6921   20.8757 C   0  0  0  0  0  0
  -23.9040  -10.4292   21.0398 C   0  0  0  0  0  0
  -24.3590   -9.4195   21.9166 C   0  0  0  0  0  0
  -23.6276   -8.2225   22.0730 C   0  0  0  0  0  0
  -22.4255   -8.0265   21.3536 C   0  0  0  0  0  0
  -21.9897   -9.0228   20.4634 C   0  0  0  0  0  0
  -22.7210  -10.2115   20.3038 C   0  0  0  0  0  0
  -21.6841   -6.0734   22.5282 C   0  0  0  0  0  0
  -21.4013   -6.5628   23.8220 C   0  0  0  0  0  0
  -21.3674   -5.6778   24.9188 C   0  0  0  0  0  0
  -21.6050   -4.3039   24.7230 C   0  0  0  0  0  0
  -21.8816   -3.8136   23.4348 C   0  0  0  0  0  0
  -21.9174   -4.6964   22.3409 C   0  0  0  0  0  0
  -22.7804  -13.5210   21.1921 C   0  0  0  0  0  0
  -22.1626   -4.2152   21.0989 F   0  0  0  0  0  0
  -21.5648   -3.4519   25.7742 F   0  0  0  0  0  0
  -29.9811  -13.4821   20.4217 N   0  0  0  0  0  0
  -26.2879  -12.9374   20.3187 N   0  0  0  0  0  0
  -25.9273  -11.6534   20.5758 N   0  0  0  0  0  0
  -22.0468  -12.8174   22.0481 N   0  0  0  0  0  0
  -25.4174  -15.1931   20.4039 N   0  0  0  0  0  0
  -31.7628  -14.8353   20.0971 O   0  0  0  0  0  0
  -21.6620   -6.8864   21.4236 O   0  0  0  0  0  0
  -22.3453  -14.5491   20.6746 O   0  0  0  0  0  0
  -24.6318  -31.8569   23.2012 C   0  0  0  0  0  0
  -25.9163  -32.4755   23.8333 C   0  0  1  0  0  0
  -27.2001  -27.2605   20.1251 C   0  0  0  0  0  0
  -25.5986  -33.8559   24.2277 N   0  0  0  0  0  0
  -23.4264  -30.4798   21.5495 C   0  0  2  0  0  0
  -24.8658  -28.9283   20.1129 C   0  0  0  0  0  0
  -22.7491  -29.4604   22.4980 C   0  0  0  0  0  0
  -18.0295  -28.1389   22.8485 C   0  0  0  0  0  0
  -24.1487  -36.7243   23.2638 C   0  0  0  0  0  0
  -25.9734  -30.7662   21.3829 C   0  0  0  0  0  0
  -26.0400  -29.3904   20.7213 C   0  0  0  0  0  0
  -27.2141  -28.5711   20.7108 C   0  0  0  0  0  0
  -26.0078  -26.8708   19.4788 C   0  0  0  0  0  0
  -24.8548  -27.6780   19.4778 C   0  0  0  0  0  0
  -23.6392  -29.8167   20.1648 C   0  0  0  0  0  0
  -25.4118  -36.3057   24.0332 C   0  0  1  0  0  0
  -20.5894  -28.3629   23.1209 C   0  0  2  0  0  0
  -20.6865  -26.9437   22.5150 C   0  0  0  0  0  0
  -19.5660  -26.6236   21.5215 C   0  0  0  0  0  0
  -18.1898  -26.7890   22.1722 C   0  0  0  0  0  0
  -19.1563  -28.8806   23.2876 C   0  0  0  0  0  0
  -18.9506  -30.1377   23.8958 C   0  0  0  0  0  0
  -17.6508  -30.6509   24.0695 C   0  0  0  0  0  0
  -25.9077  -34.9438   23.5089 C   0  0  0  0  0  0
  -16.5390  -29.9083   23.6393 C   0  0  0  0  0  0
  -16.7304  -28.6541   23.0327 C   0  0  0  0  0  0
  -26.4521  -31.6580   25.0733 C   0  0  0  0  0  0
  -25.3722  -31.3719   26.1440 C   0  0  0  0  0  0
  -27.0379  -30.3005   24.6230 C   0  0  0  0  0  0
  -27.6071  -32.4338   25.7495 C   0  0  0  0  0  0
  -27.5571  -37.1771   24.8470 C   0  0  0  0  0  0
  -21.4202  -29.3075   22.3724 N   0  0  0  0  0  0
  -26.4276  -37.3775   23.9418 N   0  0  0  0  0  0
  -24.6962  -31.0518   22.0997 N   0  0  0  0  0  0
  -23.4193  -28.8103   23.3046 O   0  0  0  0  0  0
  -28.2755  -26.3469   20.1533 O   0  0  0  0  0  0
  -26.5627  -34.8896   22.4643 O   0  0  0  0  0  0
  -23.5483  -32.1413   23.7309 O   0  0  0  0  0  0
  -29.6073  -18.5555   17.9952 C   0  0  0  0  0  0
  -29.4079  -18.3987   20.7401 C   0  0  0  0  0  0
  -29.2205  -19.7191   18.7012 C   0  0  0  0  0  0
  -29.1429  -19.6951   20.1173 C   0  0  0  0  0  0
  -29.8216  -17.3059   18.6153 C   0  0  0  0  0  0
  -29.7315  -17.1715   20.0282 C   0  0  0  0  0  0
  -29.2021  -21.2124   16.6763 C   0  0  0  0  0  0
  -28.8293  -20.9086   17.9312 C   0  0  0  0  0  0
  -28.7208  -20.9119   20.9788 C   0  0  0  0  0  0
  -28.5590  -22.3034   21.0031 C   0  0  0  0  0  0
  -30.0196  -16.1155   17.6950 C   0  0  0  0  0  0
  -28.7855  -23.6179   20.1304 C   0  0  0  0  0  0
  -27.9895  -24.9455   20.6243 C   0  0  0  0  0  0
  -29.7795  -15.8307   20.6748 N   0  0  0  0  0  0
  -31.4790  -12.5209   19.2296 H   0  0  0  0  0  0
  -30.3750  -11.4371   20.0204 H   0  0  0  0  0  0
  -29.7915  -11.5705   17.6205 H   0  0  0  0  0  0
  -29.7224  -13.2964   17.6621 H   0  0  0  0  0  0
  -27.8381  -11.2749   18.9046 H   0  0  0  0  0  0
  -27.4065  -12.5326   17.7816 H   0  0  0  0  0  0
  -27.6350  -14.2461   19.4670 H   0  0  0  0  0  0
  -28.6950  -12.1389   21.4224 H   0  0  0  0  0  0
  -28.4092  -13.8153   21.8027 H   0  0  0  0  0  0
  -25.2745   -9.5682   22.4717 H   0  0  0  0  0  0
  -24.0018   -7.4601   22.7413 H   0  0  0  0  0  0
  -21.0842   -8.8716   19.8916 H   0  0  0  0  0  0
  -22.3656  -10.9637   19.6130 H   0  0  0  0  0  0
  -21.1995   -7.6128   23.9751 H   0  0  0  0  0  0
  -21.1510   -6.0495   25.9102 H   0  0  0  0  0  0
  -22.0591   -2.7600   23.2841 H   0  0  0  0  0  0
  -22.4083  -11.9834   22.4872 H   0  0  0  0  0  0
  -21.1075  -13.1167   22.2679 H   0  0  0  0  0  0
  -24.6591  -15.8556   20.5346 H   0  0  0  0  0  0
  -26.2517  -15.6261   20.0293 H   0  0  0  0  0  0
  -26.7193  -32.5392   23.1032 H   0  0  0  0  0  0
  -25.0127  -33.9700   25.0426 H   0  0  0  0  0  0
  -22.7215  -31.3010   21.4081 H   0  0  0  0  0  0
  -23.3781  -35.9545   23.3311 H   0  0  0  0  0  0
  -24.3542  -36.8874   22.2044 H   0  0  0  0  0  0
  -23.7201  -37.6426   23.6660 H   0  0  0  0  0  0
  -26.1187  -31.5299   20.6166 H   0  0  0  0  0  0
  -26.8486  -30.8072   22.0192 H   0  0  0  0  0  0
  -28.1132  -28.9163   21.2002 H   0  0  0  0  0  0
  -25.9527  -25.9163   18.9760 H   0  0  0  0  0  0
  -23.9579  -27.3283   18.9850 H   0  0  0  0  0  0
  -23.7529  -30.5931   19.4077 H   0  0  0  0  0  0
  -22.7575  -29.2471   19.8685 H   0  0  0  0  0  0
  -25.1299  -36.1875   25.0826 H   0  0  0  0  0  0
  -20.9957  -28.3071   24.1331 H   0  0  0  0  0  0
  -20.6296  -26.2178   23.3280 H   0  0  0  0  0  0
  -21.6588  -26.7759   22.0481 H   0  0  0  0  0  0
  -19.6719  -25.6040   21.1489 H   0  0  0  0  0  0
  -19.6468  -27.2844   20.6574 H   0  0  0  0  0  0
  -17.4098  -26.6540   21.4220 H   0  0  0  0  0  0
  -18.0360  -26.0132   22.9233 H   0  0  0  0  0  0
  -19.7996  -30.7151   24.2365 H   0  0  0  0  0  0
  -17.5100  -31.6107   24.5478 H   0  0  0  0  0  0
  -15.5403  -30.2997   23.7756 H   0  0  0  0  0  0
  -15.8718  -28.0903   22.6983 H   0  0  0  0  0  0
  -24.5913  -30.7071   25.7735 H   0  0  0  0  0  0
  -24.8894  -32.2896   26.4826 H   0  0  0  0  0  0
  -25.8027  -30.8896   27.0233 H   0  0  0  0  0  0
  -26.2980  -29.6752   24.1238 H   0  0  0  0  0  0
  -27.4058  -29.7262   25.4739 H   0  0  0  0  0  0
  -27.8848  -30.4292   23.9486 H   0  0  0  0  0  0
  -27.2675  -33.3654   26.2015 H   0  0  0  0  0  0
  -28.3882  -32.6885   25.0326 H   0  0  0  0  0  0
  -28.0732  -31.8511   26.5447 H   0  0  0  0  0  0
  -28.2591  -38.0073   24.7548 H   0  0  0  0  0  0
  -28.1085  -36.2607   24.6281 H   0  0  0  0  0  0
  -27.2289  -37.1392   25.8877 H   0  0  0  0  0  0
  -20.9399  -29.8903   21.7015 H   0  0  0  0  0  0
  -26.0163  -38.2848   24.1463 H   0  0  0  0  0  0
  -29.6420  -18.5873   16.9157 H   0  0  0  0  0  0
  -29.3253  -18.3359   21.8169 H   0  0  0  0  0  0
  -28.8229  -22.1024   16.1987 H   0  0  0  0  0  0
  -29.8785  -20.5969   16.0999 H   0  0  0  0  0  0
  -28.1324  -21.5658   18.4177 H   0  0  0  0  0  0
  -28.4000  -20.5158   21.9320 H   0  0  0  0  0  0
  -28.1703  -22.6198   21.9626 H   0  0  0  0  0  0
  -29.8796  -16.3686   16.6455 H   0  0  0  0  0  0
  -29.2761  -15.3596   17.9361 H   0  0  0  0  0  0
  -31.0216  -15.6986   17.7855 H   0  0  0  0  0  0
  -28.5894  -23.4607   19.0739 H   0  0  0  0  0  0
  -29.8511  -23.8411   20.1921 H   0  0  0  0  0  0
  -26.9289  -24.7136   20.5320 H   0  0  0  0  0  0
  -28.1389  -25.0094   21.7019 H   0  0  0  0  0  0
  -28.9383  -15.6071   21.1854 H   0  0  0  0  0  0
  1 25  1  0  0  0
  1 30  2  0  0  0
  1 84  1  0  0  0
  2  3  1  0  0  0
  2 25  1  0  0  0
  2 85  1  0  0  0
  2 86  1  0  0  0
  3  4  1  0  0  0
  3 87  1  0  0  0
  3 88  1  0  0  0
  4  5  1  0  0  0
  4 89  1  0  0  0
  4 90  1  0  0  0
  5  6  1  0  0  0
  5 26  1  0  0  0
  5 91  1  0  0  0
  6 25  1  0  0  0
  6 92  1  0  0  0
  6 93  1  0  0  0
  7  8  2  0  0  0
  7 26  1  0  0  0
  7 29  1  0  0  0
  8  9  1  0  0  0
  8 22  1  0  0  0
  9 10  1  0  0  0
  9 27  2  0  0  0
 10 11  2  0  0  0
 10 15  1  0  0  0
 11 12  1  0  0  0
 11 94  1  0  0  0
 12 13  2  0  0  0
 12 95  1  0  0  0
 13 14  1  0  0  0
 13 31  1  0  0  0
 14 15  2  0  0  0
 14 96  1  0  0  0
 15 97  1  0  0  0
 16 17  2  0  0  0
 16 21  1  0  0  0
 16 31  1  0  0  0
 17 18  1  0  0  0
 17 98  1  0  0  0
 18 19  2  0  0  0
 18 99  1  0  0  0
 19 20  1  0  0  0
 19 24  1  0  0  0
 20 21  2  0  0  0
 20100  1  0  0  0
 21 23  1  0  0  0
 22 28  1  0  0  0
 22 32  2  0  0  0
 26 27  1  0  0  0
 28101  1  0  0  0
 28102  1  0  0  0
 29103  1  0  0  0
 29104  1  0  0  0
 33 34  1  0  0  0
 33 66  1  0  0  0
 33 70  2  0  0  0
 34 36  1  0  0  0
 34 59  1  0  0  0
 34105  1  0  0  0
 35 44  2  0  0  0
 35 45  1  0  0  0
 35 68  1  0  0  0
 36 56  1  0  0  0
 36106  1  0  0  0
 37 39  1  0  0  0
 37 47  1  0  0  0
 37 66  1  0  0  0
 37107  1  0  0  0
 38 43  2  0  0  0
 38 46  1  0  0  0
 38 47  1  0  0  0
 39 64  1  0  0  0
 39 67  2  0  0  0
 40 52  1  0  0  0
 40 53  2  0  0  0
 40 58  1  0  0  0
 41108  1  0  0  0
 41109  1  0  0  0
 41110  1  0  0  0
 41 48  1  0  0  0
 42 43  1  0  0  0
 42 66  1  0  0  0
 42111  1  0  0  0
 42112  1  0  0  0
 43 44  1  0  0  0
 44113  1  0  0  0
 45 46  2  0  0  0
 45114  1  0  0  0
 46115  1  0  0  0
 47116  1  0  0  0
 47117  1  0  0  0
 48 56  1  0  0  0
 48 65  1  0  0  0
 48118  1  0  0  0
 49 50  1  0  0  0
 49 53  1  0  0  0
 49 64  1  0  0  0
 49119  1  0  0  0
 50 51  1  0  0  0
 50120  1  0  0  0
 50121  1  0  0  0
 51 52  1  0  0  0
 51122  1  0  0  0
 51123  1  0  0  0
 52124  1  0  0  0
 52125  1  0  0  0
 53 54  1  0  0  0
 54 55  2  0  0  0
 54126  1  0  0  0
 55 57  1  0  0  0
 55127  1  0  0  0
 56 69  2  0  0  0
 57 58  2  0  0  0
 57128  1  0  0  0
 58129  1  0  0  0
 59 60  1  0  0  0
 59 61  1  0  0  0
 59 62  1  0  0  0
 60130  1  0  0  0
 60131  1  0  0  0
 60132  1  0  0  0
 61133  1  0  0  0
 61134  1  0  0  0
 61135  1  0  0  0
 62136  1  0  0  0
 62137  1  0  0  0
 62138  1  0  0  0
 63 65  1  0  0  0
 63139  1  0  0  0
 63140  1  0  0  0
 63141  1  0  0  0
 64142  1  0  0  0
 65143  1  0  0  0
 68 83  1  0  0  0
 71 73  2  0  0  0
 71 75  1  0  0  0
 71144  1  0  0  0
 72 74  2  0  0  0
 72 76  1  0  0  0
 72145  1  0  0  0
 73 74  1  0  0  0
 73 78  1  0  0  0
 74 79  1  0  0  0
 75 76  2  0  0  0
 75 81  1  0  0  0
 76 84  1  0  0  0
 77 78  2  0  0  0
 77146  1  0  0  0
 77147  1  0  0  0
 78148  1  0  0  0
 79 80  2  0  0  0
 79149  1  0  0  0
 80 82  1  0  0  0
 80150  1  0  0  0
 81151  1  0  0  0
 81152  1  0  0  0
 81153  1  0  0  0
 82 83  1  0  0  0
 82154  1  0  0  0
 82155  1  0  0  0
 83156  1  0  0  0
 83157  1  0  0  0
 84158  1  0  0  0
M  ISO  4   1 100  68 101  83 101  84 100
M  END
> <chiral flag>
0

> <version>
0

> <s_m_source_file>
/data/baiqing/PycharmProjects/Reinvent-master-3.2/result/LINK_invent/BTK/process_docking_weight1_custom_product_contain_oxygen_bond_distance_aromatic_linkinvent_7_9_3/rearranged_h_0116.sdf

> <i_m_source_file_index>
56

> <r_mmod_Potential_Energy-OPLS-2005>
291.556091308594

> <r_mmod_Stretch_Energy-OPLS-2005>
126.04704284668

> <r_mmod_Bend_Energy-OPLS-2005>
227.497955322266

> <r_mmod_Torsional_Energy-OPLS-2005>
274.671752929688

> <r_mmod_Improper_Torsional_Energy-OPLS-2005>
6.67868900299072

> <r_mmod_Van_der_Waal_Energy-OPLS-2005>
152.171371459961

> <r_mmod_Electrostatic_Energy-OPLS-2005>
-374.256195068359

> <r_mmod_Solvation_Energy-OPLS-2005>
-206.019226074219

> <b_mmod_Minimization_Converged-OPLS-2005>
0

> <r_mmod_RMS_Derivative-OPLS-2005>
4.19807863235474

$$$$
56
                    3D
 Structure written by MMmdl.
165173  0  0  1  0            999 V2000
  -30.7071  -14.5263   20.5569 C   0  0  0  0  0  0
  -30.4126  -12.3326   19.4518 C   0  0  0  0  0  0
  -29.5048  -12.4998   18.2126 C   0  0  0  0  0  0
  -28.0329  -12.3268   18.6216 C   0  0  0  0  0  0
  -27.6555  -13.2144   19.8388 C   0  0  2  0  0  0
  -28.6830  -13.0689   20.9842 C   0  0  0  0  0  0
  -25.2684  -13.8219   20.5534 C   0  0  0  0  0  0
  -24.1960  -13.0488   20.9146 C   0  0  0  0  0  0
  -24.6506  -11.6977   20.8701 C   0  0  0  0  0  0
  -23.9147  -10.4352   21.0392 C   0  0  0  0  0  0
  -24.3674   -9.4261   21.9167 C   0  0  0  0  0  0
  -23.6329   -8.2309   22.0758 C   0  0  0  0  0  0
  -22.4299   -8.0366   21.3560 C   0  0  0  0  0  0
  -21.9958   -9.0363   20.4653 C   0  0  0  0  0  0
  -22.7327  -10.2218   20.3039 C   0  0  0  0  0  0
  -21.6880   -6.0783   22.5283 C   0  0  0  0  0  0
  -21.4004   -6.5660   23.8225 C   0  0  0  0  0  0
  -21.3629   -5.6792   24.9191 C   0  0  0  0  0  0
  -21.6058   -4.3072   24.7229 C   0  0  0  0  0  0
  -21.8848   -3.8172   23.4357 C   0  0  0  0  0  0
  -21.9195   -4.7001   22.3411 C   0  0  0  0  0  0
  -22.8015  -13.5410   21.1743 C   0  0  0  0  0  0
  -22.1634   -4.2183   21.0984 F   0  0  0  0  0  0
  -21.5626   -3.4527   25.7729 F   0  0  0  0  0  0
  -30.0164  -13.3532   20.4382 N   0  0  0  0  0  0
  -26.3045  -12.9356   20.3109 N   0  0  0  0  0  0
  -25.9414  -11.6533   20.5619 N   0  0  0  0  0  0
  -22.0632  -12.8395   22.0285 N   0  0  0  0  0  0
  -25.4398  -15.1895   20.3922 N   0  0  0  0  0  0
  -31.8535  -14.6547   20.1212 O   0  0  0  0  0  0
  -21.6706   -6.8924   21.4230 O   0  0  0  0  0  0
  -22.3796  -14.5731   20.6597 O   0  0  0  0  0  0
  -24.6156  -31.8590   23.2043 C   0  0  0  0  0  0
  -25.9049  -32.4773   23.8330 C   0  0  1  0  0  0
  -27.2465  -27.4004   20.0970 C   0  0  0  0  0  0
  -25.5862  -33.8579   24.2269 N   0  0  0  0  0  0
  -23.4075  -30.4826   21.5413 C   0  0  2  0  0  0
  -24.8579  -28.9432   20.1166 C   0  0  0  0  0  0
  -22.7430  -29.4580   22.4866 C   0  0  0  0  0  0
  -18.0324  -28.1283   22.8559 C   0  0  0  0  0  0
  -24.1475  -36.7294   23.2637 C   0  0  0  0  0  0
  -25.9400  -30.8183   21.3594 C   0  0  0  0  0  0
  -26.0187  -29.4508   20.7074 C   0  0  0  0  0  0
  -27.2114  -28.6885   20.6952 C   0  0  0  0  0  0
  -26.0510  -26.9068   19.5220 C   0  0  0  0  0  0
  -24.8674  -27.6682   19.5300 C   0  0  0  0  0  0
  -23.6211  -29.8193   20.1568 C   0  0  0  0  0  0
  -25.4092  -36.3067   24.0323 C   0  0  1  0  0  0
  -20.5920  -28.3632   23.1369 C   0  0  2  0  0  0
  -20.6685  -26.9241   22.5858 C   0  0  0  0  0  0
  -19.5872  -26.6530   21.5326 C   0  0  0  0  0  0
  -18.2066  -26.7768   22.1808 C   0  0  0  0  0  0
  -19.1591  -28.8846   23.2817 C   0  0  0  0  0  0
  -18.9474  -30.1507   23.8713 C   0  0  0  0  0  0
  -17.6501  -30.6657   24.0420 C   0  0  0  0  0  0
  -25.9017  -34.9436   23.5085 C   0  0  0  0  0  0
  -16.5409  -29.8975   23.6443 C   0  0  0  0  0  0
  -16.7312  -28.6330   23.0573 C   0  0  0  0  0  0
  -26.4454  -31.6536   25.0651 C   0  0  0  0  0  0
  -25.3729  -31.3732   26.1424 C   0  0  0  0  0  0
  -27.0325  -30.2967   24.6069 C   0  0  0  0  0  0
  -27.5963  -32.4294   25.7438 C   0  0  0  0  0  0
  -27.5556  -37.1786   24.8465 C   0  0  0  0  0  0
  -21.4191  -29.2787   22.3460 N   0  0  0  0  0  0
  -26.4263  -37.3768   23.9410 N   0  0  0  0  0  0
  -24.6711  -31.0712   22.0908 N   0  0  0  0  0  0
  -23.4121  -28.8301   23.3108 O   0  0  0  0  0  0
  -28.4176  -26.6503   20.1654 O   0  0  0  0  0  0
  -26.5640  -34.8884   22.4686 O   0  0  0  0  0  0
  -23.5339  -32.1355   23.7429 O   0  0  0  0  0  0
  -30.1867  -19.3927   21.8854 C   0  0  0  0  0  0
  -28.1614  -19.8104   20.0470 C   0  0  0  0  0  0
  -29.7973  -18.2817   21.0849 C   0  0  0  0  0  0
  -29.6094  -20.6946   21.7609 C   0  0  0  0  0  0
  -28.7685  -18.5252   20.1338 C   0  0  0  0  0  0
  -28.5678  -20.9222   20.8180 C   0  0  0  0  0  0
  -27.9376  -23.3008   20.4061 C   0  0  0  0  0  0
  -28.2741  -17.4875   19.1456 C   0  0  0  0  0  0
  -29.2216  -22.0653   23.8866 C   0  0  0  0  0  0
  -30.0603  -23.4426   18.9189 C   0  0  0  0  0  0
  -30.1119  -21.8202   22.6595 C   0  0  0  0  0  0
  -30.6144  -16.9543   21.2530 C   0  0  0  0  0  0
  -28.6720  -25.5310   19.2818 C   0  0  0  0  0  0
  -29.1290  -24.1617   19.9223 C   0  0  1  0  0  0
  -27.7394  -22.0695   20.7516 N   0  0  0  0  0  0
  -30.0295  -15.5981   21.0415 N   0  0  0  0  0  0
  -31.4634  -12.3989   19.1691 H   0  0  0  0  0  0
  -30.2881  -11.3378   19.8842 H   0  0  0  0  0  0
  -29.7709  -11.7667   17.4504 H   0  0  0  0  0  0
  -29.6532  -13.4809   17.7551 H   0  0  0  0  0  0
  -27.8888  -11.2774   18.8689 H   0  0  0  0  0  0
  -27.3676  -12.5266   17.7814 H   0  0  0  0  0  0
  -27.6635  -14.2486   19.4863 H   0  0  0  0  0  0
  -28.6705  -12.0524   21.3874 H   0  0  0  0  0  0
  -28.4240  -13.7229   21.8180 H   0  0  0  0  0  0
  -25.2860   -9.5720   22.4708 H   0  0  0  0  0  0
  -24.0079   -7.4703   22.7482 H   0  0  0  0  0  0
  -21.0897   -8.8981   19.8900 H   0  0  0  0  0  0
  -22.3908  -10.9788   19.6123 H   0  0  0  0  0  0
  -21.1978   -7.6160   23.9769 H   0  0  0  0  0  0
  -21.1374   -6.0487   25.9098 H   0  0  0  0  0  0
  -22.0645   -2.7633   23.2865 H   0  0  0  0  0  0
  -22.4297  -12.0079   22.4609 H   0  0  0  0  0  0
  -21.1192  -13.1306   22.2399 H   0  0  0  0  0  0
  -24.6530  -15.8297   20.4161 H   0  0  0  0  0  0
  -26.3017  -15.6163   20.0782 H   0  0  0  0  0  0
  -26.7130  -32.5452   23.1084 H   0  0  0  0  0  0
  -24.9913  -33.9716   25.0336 H   0  0  0  0  0  0
  -22.6929  -31.2924   21.4058 H   0  0  0  0  0  0
  -23.3710  -35.9657   23.3333 H   0  0  0  0  0  0
  -24.3555  -36.8894   22.2049 H   0  0  0  0  0  0
  -23.7280  -37.6507   23.6669 H   0  0  0  0  0  0
  -26.0622  -31.5937   20.5987 H   0  0  0  0  0  0
  -26.8229  -30.8685   21.9885 H   0  0  0  0  0  0
  -28.1088  -29.0829   21.1529 H   0  0  0  0  0  0
  -25.9942  -25.9172   19.1014 H   0  0  0  0  0  0
  -23.9647  -27.2621   19.0958 H   0  0  0  0  0  0
  -23.7534  -30.6021   19.4104 H   0  0  0  0  0  0
  -22.7417  -29.2584   19.8401 H   0  0  0  0  0  0
  -25.1290  -36.1880   25.0827 H   0  0  0  0  0  0
  -20.9852  -28.3407   24.1551 H   0  0  0  0  0  0
  -20.4780  -26.2403   23.4162 H   0  0  0  0  0  0
  -21.6641  -26.6715   22.2266 H   0  0  0  0  0  0
  -19.6895  -27.3747   20.7178 H   0  0  0  0  0  0
  -19.7300  -25.6633   21.1070 H   0  0  0  0  0  0
  -17.4220  -26.6397   21.4313 H   0  0  0  0  0  0
  -18.0724  -25.9885   22.9307 H   0  0  0  0  0  0
  -19.7946  -30.7354   24.1946 H   0  0  0  0  0  0
  -17.5216  -31.6397   24.4954 H   0  0  0  0  0  0
  -15.5430  -30.2809   23.7998 H   0  0  0  0  0  0
  -15.8755  -28.0405   22.7725 H   0  0  0  0  0  0
  -24.5821  -30.7125   25.7862 H   0  0  0  0  0  0
  -24.8983  -32.2943   26.4837 H   0  0  0  0  0  0
  -25.8047  -30.8951   27.0221 H   0  0  0  0  0  0
  -26.2925  -29.6677   24.1083 H   0  0  0  0  0  0
  -27.4103  -29.7220   25.4535 H   0  0  0  0  0  0
  -27.8737  -30.4303   23.9239 H   0  0  0  0  0  0
  -27.2487  -33.3572   26.2020 H   0  0  0  0  0  0
  -28.3762  -32.6907   25.0276 H   0  0  0  0  0  0
  -28.0641  -31.8429   26.5371 H   0  0  0  0  0  0
  -28.2579  -38.0074   24.7481 H   0  0  0  0  0  0
  -28.1028  -36.2591   24.6322 H   0  0  0  0  0  0
  -27.2253  -37.1486   25.8860 H   0  0  0  0  0  0
  -20.9320  -29.7997   21.6278 H   0  0  0  0  0  0
  -26.0124  -38.2816   24.1458 H   0  0  0  0  0  0
  -30.9598  -19.2407   22.6207 H   0  0  0  0  0  0
  -27.3508  -19.9484   19.3394 H   0  0  0  0  0  0
  -27.0583  -23.9462   20.4659 H   0  0  0  0  0  0
  -28.2724  -17.9285   18.1508 H   0  0  0  0  0  0
  -27.2421  -17.2074   19.3625 H   0  0  0  0  0  0
  -28.8869  -16.5912   19.0916 H   0  0  0  0  0  0
  -28.1693  -22.1181   23.6145 H   0  0  0  0  0  0
  -29.4710  -23.0108   24.3708 H   0  0  0  0  0  0
  -29.3377  -21.2689   24.6238 H   0  0  0  0  0  0
  -29.5376  -23.1718   17.9996 H   0  0  0  0  0  0
  -30.5202  -22.5504   19.3394 H   0  0  0  0  0  0
  -30.8734  -24.1117   18.6275 H   0  0  0  0  0  0
  -30.1520  -22.7354   22.0843 H   0  0  0  0  0  0
  -31.1493  -21.6392   22.9563 H   0  0  0  0  0  0
  -31.5257  -17.0698   20.6541 H   0  0  0  0  0  0
  -30.9632  -16.9200   22.2837 H   0  0  0  0  0  0
  -27.9244  -25.3756   18.5084 H   0  0  0  0  0  0
  -29.5229  -25.9064   18.7156 H   0  0  0  0  0  0
  -29.7287  -24.4198   20.7885 H   0  0  0  0  0  0
  -29.0958  -15.4316   21.3768 H   0  0  0  0  0  0
  1 25  1  0  0  0
  1 30  2  0  0  0
  1 86  1  0  0  0
  2  3  1  0  0  0
  2 25  1  0  0  0
  2 87  1  0  0  0
  2 88  1  0  0  0
  3  4  1  0  0  0
  3 89  1  0  0  0
  3 90  1  0  0  0
  4  5  1  0  0  0
  4 91  1  0  0  0
  4 92  1  0  0  0
  5  6  1  0  0  0
  5 26  1  0  0  0
  5 93  1  0  0  0
  6 25  1  0  0  0
  6 94  1  0  0  0
  6 95  1  0  0  0
  7  8  2  0  0  0
  7 26  1  0  0  0
  7 29  1  0  0  0
  8  9  1  0  0  0
  8 22  1  0  0  0
  9 10  1  0  0  0
  9 27  2  0  0  0
 10 11  2  0  0  0
 10 15  1  0  0  0
 11 12  1  0  0  0
 11 96  1  0  0  0
 12 13  2  0  0  0
 12 97  1  0  0  0
 13 14  1  0  0  0
 13 31  1  0  0  0
 14 15  2  0  0  0
 14 98  1  0  0  0
 15 99  1  0  0  0
 16 17  2  0  0  0
 16 21  1  0  0  0
 16 31  1  0  0  0
 17 18  1  0  0  0
 17100  1  0  0  0
 18 19  2  0  0  0
 18101  1  0  0  0
 19 20  1  0  0  0
 19 24  1  0  0  0
 20 21  2  0  0  0
 20102  1  0  0  0
 21 23  1  0  0  0
 22 28  1  0  0  0
 22 32  2  0  0  0
 26 27  1  0  0  0
 28103  1  0  0  0
 28104  1  0  0  0
 29105  1  0  0  0
 29106  1  0  0  0
 33 34  1  0  0  0
 33 66  1  0  0  0
 33 70  2  0  0  0
 34 36  1  0  0  0
 34 59  1  0  0  0
 34107  1  0  0  0
 35 44  2  0  0  0
 35 45  1  0  0  0
 35 68  1  0  0  0
 36 56  1  0  0  0
 36108  1  0  0  0
 37 39  1  0  0  0
 37 47  1  0  0  0
 37 66  1  0  0  0
 37109  1  0  0  0
 38 43  2  0  0  0
 38 46  1  0  0  0
 38 47  1  0  0  0
 39 64  1  0  0  0
 39 67  2  0  0  0
 40 52  1  0  0  0
 40 53  2  0  0  0
 40 58  1  0  0  0
 41110  1  0  0  0
 41111  1  0  0  0
 41112  1  0  0  0
 41 48  1  0  0  0
 42 43  1  0  0  0
 42 66  1  0  0  0
 42113  1  0  0  0
 42114  1  0  0  0
 43 44  1  0  0  0
 44115  1  0  0  0
 45 46  2  0  0  0
 45116  1  0  0  0
 46117  1  0  0  0
 47118  1  0  0  0
 47119  1  0  0  0
 48 56  1  0  0  0
 48 65  1  0  0  0
 48120  1  0  0  0
 49 50  1  0  0  0
 49 53  1  0  0  0
 49 64  1  0  0  0
 49121  1  0  0  0
 50 51  1  0  0  0
 50122  1  0  0  0
 50123  1  0  0  0
 51 52  1  0  0  0
 51124  1  0  0  0
 51125  1  0  0  0
 52126  1  0  0  0
 52127  1  0  0  0
 53 54  1  0  0  0
 54 55  2  0  0  0
 54128  1  0  0  0
 55 57  1  0  0  0
 55129  1  0  0  0
 56 69  2  0  0  0
 57 58  2  0  0  0
 57130  1  0  0  0
 58131  1  0  0  0
 59 60  1  0  0  0
 59 61  1  0  0  0
 59 62  1  0  0  0
 60132  1  0  0  0
 60133  1  0  0  0
 60134  1  0  0  0
 61135  1  0  0  0
 61136  1  0  0  0
 61137  1  0  0  0
 62138  1  0  0  0
 62139  1  0  0  0
 62140  1  0  0  0
 63 65  1  0  0  0
 63141  1  0  0  0
 63142  1  0  0  0
 63143  1  0  0  0
 64144  1  0  0  0
 65145  1  0  0  0
 68 83  1  0  0  0
 71 73  2  0  0  0
 71 74  1  0  0  0
 71146  1  0  0  0
 72 75  2  0  0  0
 72 76  1  0  0  0
 72147  1  0  0  0
 73 75  1  0  0  0
 73 82  1  0  0  0
 74 76  2  0  0  0
 74 81  1  0  0  0
 75 78  1  0  0  0
 76 85  1  0  0  0
 77 84  1  0  0  0
 77 85  2  0  0  0
 77148  1  0  0  0
 78149  1  0  0  0
 78150  1  0  0  0
 78151  1  0  0  0
 79 81  1  0  0  0
 79152  1  0  0  0
 79153  1  0  0  0
 79154  1  0  0  0
 80155  1  0  0  0
 80156  1  0  0  0
 80157  1  0  0  0
 80 84  1  0  0  0
 81158  1  0  0  0
 81159  1  0  0  0
 82 86  1  0  0  0
 82160  1  0  0  0
 82161  1  0  0  0
 83 84  1  0  0  0
 83162  1  0  0  0
 83163  1  0  0  0
 84164  1  0  0  0
 86165  1  0  0  0
M  ISO  4   1 100  68 101  83 101  86 100
M  END
> <chiral flag>
0

> <version>
0

> <s_m_source_file>
/data/baiqing/PycharmProjects/Reinvent-master-3.2/result/LINK_invent/BTK/process_docking_weight1_custom_product_contain_oxygen_bond_distance_aromatic_linkinvent_7_9_3/rearranged_h_0116.sdf

> <i_m_source_file_index>
57

> <r_mmod_Potential_Energy-OPLS-2005>
13.6957769393921

> <r_mmod_Stretch_Energy-OPLS-2005>
58.791919708252

> <r_mmod_Bend_Energy-OPLS-2005>
200.434844970703

> <r_mmod_Torsional_Energy-OPLS-2005>
221.271850585938

> <r_mmod_Improper_Torsional_Energy-OPLS-2005>
5.73490476608276

> <r_mmod_Van_der_Waal_Energy-OPLS-2005>
145.730651855469

> <r_mmod_Electrostatic_Energy-OPLS-2005>
-434.367370605469

> <r_mmod_Solvation_Energy-OPLS-2005>
-208.153610229492

> <b_mmod_Minimization_Converged-OPLS-2005>
0

> <r_mmod_RMS_Derivative-OPLS-2005>
11.0872821807861

$$$$
57
                    3D
 Structure written by MMmdl.
155164  0  0  1  0            999 V2000
  -30.5644  -15.0110   20.3779 C   0  0  0  0  0  0
  -30.4322  -12.6274   19.4942 C   0  0  0  0  0  0
  -29.5137  -12.5250   18.2541 C   0  0  0  0  0  0
  -28.0518  -12.3107   18.6836 C   0  0  0  0  0  0
  -27.6237  -13.2623   19.8308 C   0  0  2  0  0  0
  -28.6728  -13.3511   20.9612 C   0  0  0  0  0  0
  -25.2434  -13.8249   20.5731 C   0  0  0  0  0  0
  -24.1783  -13.0447   20.9248 C   0  0  0  0  0  0
  -24.6427  -11.6937   20.8788 C   0  0  0  0  0  0
  -23.9119  -10.4301   21.0421 C   0  0  0  0  0  0
  -24.3661   -9.4210   21.9193 C   0  0  0  0  0  0
  -23.6324   -8.2255   22.0756 C   0  0  0  0  0  0
  -22.4307   -8.0305   21.3547 C   0  0  0  0  0  0
  -21.9955   -9.0281   20.4653 C   0  0  0  0  0  0
  -22.7295  -10.2150   20.3062 C   0  0  0  0  0  0
  -21.6845   -6.0750   22.5279 C   0  0  0  0  0  0
  -21.4018   -6.5654   23.8214 C   0  0  0  0  0  0
  -21.3658   -5.6802   24.9176 C   0  0  0  0  0  0
  -21.6036   -4.3063   24.7219 C   0  0  0  0  0  0
  -21.8823   -3.8162   23.4344 C   0  0  0  0  0  0
  -21.9198   -4.6981   22.3403 C   0  0  0  0  0  0
  -22.7797  -13.5207   21.1902 C   0  0  0  0  0  0
  -22.1663   -4.2161   21.0971 F   0  0  0  0  0  0
  -21.5625   -3.4549   25.7734 F   0  0  0  0  0  0
  -29.9382  -13.7582   20.3385 N   0  0  0  0  0  0
  -26.2882  -12.9508   20.3291 N   0  0  0  0  0  0
  -25.9363  -11.6611   20.5790 N   0  0  0  0  0  0
  -22.0462  -12.8163   22.0451 N   0  0  0  0  0  0
  -25.4072  -15.1999   20.4163 N   0  0  0  0  0  0
  -31.7783  -14.9891   20.1554 O   0  0  0  0  0  0
  -21.6657   -6.8913   21.4248 O   0  0  0  0  0  0
  -22.3462  -14.5495   20.6756 O   0  0  0  0  0  0
  -24.6467  -31.8375   23.1810 C   0  0  0  0  0  0
  -25.9189  -32.4653   23.8226 C   0  0  1  0  0  0
  -27.2747  -27.1026   20.1880 C   0  0  0  0  0  0
  -25.5927  -33.8469   24.2134 N   0  0  0  0  0  0
  -23.4615  -30.4428   21.5231 C   0  0  2  0  0  0
  -24.9335  -28.8580   20.1197 C   0  0  0  0  0  0
  -22.7619  -29.4460   22.4824 C   0  0  0  0  0  0
  -18.0294  -28.1409   22.8474 C   0  0  0  0  0  0
  -24.1485  -36.7218   23.2649 C   0  0  0  0  0  0
  -26.0184  -30.7057   21.3903 C   0  0  0  0  0  0
  -26.1045  -29.3095   20.7372 C   0  0  0  0  0  0
  -27.2749  -28.4514   20.7481 C   0  0  0  0  0  0
  -26.0709  -26.7575   19.5359 C   0  0  0  0  0  0
  -24.9297  -27.5933   19.5067 C   0  0  0  0  0  0
  -23.7035  -29.7527   20.1524 C   0  0  0  0  0  0
  -25.4121  -36.2998   24.0308 C   0  0  1  0  0  0
  -20.5918  -28.3728   23.1241 C   0  0  2  0  0  0
  -20.6794  -26.9421   22.5425 C   0  0  0  0  0  0
  -19.5766  -26.6380   21.5236 C   0  0  0  0  0  0
  -18.1945  -26.7940   22.1637 C   0  0  0  0  0  0
  -19.1575  -28.8877   23.2828 C   0  0  0  0  0  0
  -18.9488  -30.1481   23.8860 C   0  0  0  0  0  0
  -17.6492  -30.6597   24.0553 C   0  0  0  0  0  0
  -25.9082  -34.9381   23.5037 C   0  0  0  0  0  0
  -16.5370  -29.9084   23.6358 C   0  0  0  0  0  0
  -16.7298  -28.6514   23.0367 C   0  0  0  0  0  0
  -26.4520  -31.6549   25.0699 C   0  0  0  0  0  0
  -25.3686  -31.3792   26.1397 C   0  0  0  0  0  0
  -27.0411  -30.2939   24.6356 C   0  0  0  0  0  0
  -27.6048  -32.4337   25.7473 C   0  0  0  0  0  0
  -27.5553  -37.1751   24.8466 C   0  0  0  0  0  0
  -21.4292  -29.3019   22.3582 N   0  0  0  0  0  0
  -26.4273  -37.3707   23.9409 N   0  0  0  0  0  0
  -24.7262  -31.0173   22.0862 N   0  0  0  0  0  0
  -23.4199  -28.8031   23.3024 O   0  0  0  0  0  0
  -28.3304  -26.1064   20.2842 O   0  0  0  0  0  0
  -26.5682  -34.8882   22.4633 O   0  0  0  0  0  0
  -23.5564  -32.1226   23.7012 O   0  0  0  0  0  0
  -31.6008  -18.0440   20.3587 C   0  0  0  0  0  0
  -29.3729  -19.0223   20.3709 C   0  0  0  0  0  0
  -32.0539  -19.3721   20.3880 C   0  0  0  0  0  0
  -31.2611  -20.5186   20.4379 C   0  0  0  0  0  0
  -30.2191  -17.7618   20.3865 C   0  0  0  0  0  0
  -29.8224  -20.4740   20.3805 C   0  0  0  0  0  0
  -33.4774  -19.7789   20.4492 C   0  0  0  0  0  0
  -32.2469  -21.6452   20.6097 C   0  0  0  0  0  0
  -34.7379  -21.8561   20.8360 C   0  0  0  0  0  0
  -28.1277  -24.5501   20.0829 C   0  0  0  0  0  0
  -29.1842  -23.2254   20.4088 C   0  0  0  0  0  0
  -33.4941  -21.1150   20.5940 N   0  0  0  0  0  0
  -29.8287  -16.2524   20.4398 N   0  0  0  0  0  0
  -34.4422  -19.0089   20.4155 O   0  0  0  0  0  0
  -31.9941  -22.8302   20.8178 O   0  0  0  0  0  0
  -28.9195  -21.6665   20.3265 O   0  0  0  0  0  0
  -31.4645  -12.7726   19.1694 H   0  0  0  0  0  0
  -30.4279  -11.6928   20.0580 H   0  0  0  0  0  0
  -29.8347  -11.7064   17.6076 H   0  0  0  0  0  0
  -29.5938  -13.4362   17.6590 H   0  0  0  0  0  0
  -27.9578  -11.2763   19.0131 H   0  0  0  0  0  0
  -27.3829  -12.4177   17.8293 H   0  0  0  0  0  0
  -27.5688  -14.2513   19.3744 H   0  0  0  0  0  0
  -28.7749  -12.4036   21.4926 H   0  0  0  0  0  0
  -28.3715  -14.0945   21.7014 H   0  0  0  0  0  0
  -25.2793   -9.5670   22.4776 H   0  0  0  0  0  0
  -24.0014   -7.4642   22.7481 H   0  0  0  0  0  0
  -21.0876   -8.8833   19.8957 H   0  0  0  0  0  0
  -22.3774  -10.9705   19.6192 H   0  0  0  0  0  0
  -21.2010   -7.6159   23.9722 H   0  0  0  0  0  0
  -21.1467   -6.0528   25.9071 H   0  0  0  0  0  0
  -22.0599   -2.7624   23.2839 H   0  0  0  0  0  0
  -22.4093  -11.9820   22.4800 H   0  0  0  0  0  0
  -21.1099  -13.1189   22.2712 H   0  0  0  0  0  0
  -24.6336  -15.8472   20.5182 H   0  0  0  0  0  0
  -26.2532  -15.6446   20.0810 H   0  0  0  0  0  0
  -26.7266  -32.5271   23.0970 H   0  0  0  0  0  0
  -25.0025  -33.9572   25.0251 H   0  0  0  0  0  0
  -22.7652  -31.2647   21.3453 H   0  0  0  0  0  0
  -23.3745  -35.9551   23.3343 H   0  0  0  0  0  0
  -24.3556  -36.8839   22.2053 H   0  0  0  0  0  0
  -23.7264  -37.6424   23.6693 H   0  0  0  0  0  0
  -26.1831  -31.4632   20.6206 H   0  0  0  0  0  0
  -26.8806  -30.7618   22.0435 H   0  0  0  0  0  0
  -28.1655  -28.8036   21.2550 H   0  0  0  0  0  0
  -25.9990  -25.7864   19.0752 H   0  0  0  0  0  0
  -24.0382  -27.2267   19.0214 H   0  0  0  0  0  0
  -23.8478  -30.5139   19.3880 H   0  0  0  0  0  0
  -22.8276  -29.1804   19.8402 H   0  0  0  0  0  0
  -25.1316  -36.1802   25.0793 H   0  0  0  0  0  0
  -21.0006  -28.3336   24.1365 H   0  0  0  0  0  0
  -20.5750  -26.2308   23.3637 H   0  0  0  0  0  0
  -21.6641  -26.7450   22.1167 H   0  0  0  0  0  0
  -19.6941  -25.6293   21.1261 H   0  0  0  0  0  0
  -19.6728  -27.3192   20.6776 H   0  0  0  0  0  0
  -17.4212  -26.6703   21.4033 H   0  0  0  0  0  0
  -18.0312  -26.0098   22.9050 H   0  0  0  0  0  0
  -19.7964  -30.7296   24.2219 H   0  0  0  0  0  0
  -17.5038  -31.6290   24.5142 H   0  0  0  0  0  0
  -15.5364  -30.2963   23.7721 H   0  0  0  0  0  0
  -15.8698  -28.0819   22.7106 H   0  0  0  0  0  0
  -24.5825  -30.7213   25.7697 H   0  0  0  0  0  0
  -24.8934  -32.3000   26.4779 H   0  0  0  0  0  0
  -25.7919  -30.8955   27.0208 H   0  0  0  0  0  0
  -26.3083  -29.6620   24.1349 H   0  0  0  0  0  0
  -27.3972  -29.7301   25.4976 H   0  0  0  0  0  0
  -27.8979  -30.4146   23.9740 H   0  0  0  0  0  0
  -27.2673  -33.3700   26.1927 H   0  0  0  0  0  0
  -28.3905  -32.6802   25.0319 H   0  0  0  0  0  0
  -28.0658  -31.8545   26.5480 H   0  0  0  0  0  0
  -28.2556  -38.0045   24.7471 H   0  0  0  0  0  0
  -28.1051  -36.2573   24.6348 H   0  0  0  0  0  0
  -27.2261  -37.1452   25.8861 H   0  0  0  0  0  0
  -20.9546  -29.8681   21.6699 H   0  0  0  0  0  0
  -26.0135  -38.2772   24.1424 H   0  0  0  0  0  0
  -32.3456  -17.2628   20.3571 H   0  0  0  0  0  0
  -28.3026  -18.8740   20.3592 H   0  0  0  0  0  0
  -35.4100  -21.8092   19.9777 H   0  0  0  0  0  0
  -35.2704  -21.4259   21.6865 H   0  0  0  0  0  0
  -34.5603  -22.9072   21.0644 H   0  0  0  0  0  0
  -27.1707  -24.3027   20.5422 H   0  0  0  0  0  0
  -27.9401  -24.4746   19.0132 H   0  0  0  0  0  0
  -29.5672  -23.3858   21.4192 H   0  0  0  0  0  0
  -30.0060  -23.4193   19.7283 H   0  0  0  0  0  0
  -28.8355  -16.0971   20.5205 H   0  0  0  0  0  0
  1 25  1  0  0  0
  1 30  2  0  0  0
  1 83  1  0  0  0
  2  3  1  0  0  0
  2 25  1  0  0  0
  2 87  1  0  0  0
  2 88  1  0  0  0
  3  4  1  0  0  0
  3 89  1  0  0  0
  3 90  1  0  0  0
  4  5  1  0  0  0
  4 91  1  0  0  0
  4 92  1  0  0  0
  5  6  1  0  0  0
  5 26  1  0  0  0
  5 93  1  0  0  0
  6 25  1  0  0  0
  6 94  1  0  0  0
  6 95  1  0  0  0
  7  8  2  0  0  0
  7 26  1  0  0  0
  7 29  1  0  0  0
  8  9  1  0  0  0
  8 22  1  0  0  0
  9 10  1  0  0  0
  9 27  2  0  0  0
 10 11  2  0  0  0
 10 15  1  0  0  0
 11 12  1  0  0  0
 11 96  1  0  0  0
 12 13  2  0  0  0
 12 97  1  0  0  0
 13 14  1  0  0  0
 13 31  1  0  0  0
 14 15  2  0  0  0
 14 98  1  0  0  0
 15 99  1  0  0  0
 16 17  2  0  0  0
 16 21  1  0  0  0
 16 31  1  0  0  0
 17 18  1  0  0  0
 17100  1  0  0  0
 18 19  2  0  0  0
 18101  1  0  0  0
 19 20  1  0  0  0
 19 24  1  0  0  0
 20 21  2  0  0  0
 20102  1  0  0  0
 21 23  1  0  0  0
 22 28  1  0  0  0
 22 32  2  0  0  0
 26 27  1  0  0  0
 28103  1  0  0  0
 28104  1  0  0  0
 29105  1  0  0  0
 29106  1  0  0  0
 33 34  1  0  0  0
 33 66  1  0  0  0
 33 70  2  0  0  0
 34 36  1  0  0  0
 34 59  1  0  0  0
 34107  1  0  0  0
 35 44  2  0  0  0
 35 45  1  0  0  0
 35 68  1  0  0  0
 36 56  1  0  0  0
 36108  1  0  0  0
 37 39  1  0  0  0
 37 47  1  0  0  0
 37 66  1  0  0  0
 37109  1  0  0  0
 38 43  2  0  0  0
 38 46  1  0  0  0
 38 47  1  0  0  0
 39 64  1  0  0  0
 39 67  2  0  0  0
 40 52  1  0  0  0
 40 53  2  0  0  0
 40 58  1  0  0  0
 41110  1  0  0  0
 41111  1  0  0  0
 41112  1  0  0  0
 41 48  1  0  0  0
 42 43  1  0  0  0
 42 66  1  0  0  0
 42113  1  0  0  0
 42114  1  0  0  0
 43 44  1  0  0  0
 44115  1  0  0  0
 45 46  2  0  0  0
 45116  1  0  0  0
 46117  1  0  0  0
 47118  1  0  0  0
 47119  1  0  0  0
 48 56  1  0  0  0
 48 65  1  0  0  0
 48120  1  0  0  0
 49 50  1  0  0  0
 49 53  1  0  0  0
 49 64  1  0  0  0
 49121  1  0  0  0
 50 51  1  0  0  0
 50122  1  0  0  0
 50123  1  0  0  0
 51 52  1  0  0  0
 51124  1  0  0  0
 51125  1  0  0  0
 52126  1  0  0  0
 52127  1  0  0  0
 53 54  1  0  0  0
 54 55  2  0  0  0
 54128  1  0  0  0
 55 57  1  0  0  0
 55129  1  0  0  0
 56 69  2  0  0  0
 57 58  2  0  0  0
 57130  1  0  0  0
 58131  1  0  0  0
 59 60  1  0  0  0
 59 61  1  0  0  0
 59 62  1  0  0  0
 60132  1  0  0  0
 60133  1  0  0  0
 60134  1  0  0  0
 61135  1  0  0  0
 61136  1  0  0  0
 61137  1  0  0  0
 62138  1  0  0  0
 62139  1  0  0  0
 62140  1  0  0  0
 63 65  1  0  0  0
 63141  1  0  0  0
 63142  1  0  0  0
 63143  1  0  0  0
 64144  1  0  0  0
 65145  1  0  0  0
 68 80  1  0  0  0
 71 73  2  0  0  0
 71 75  1  0  0  0
 71146  1  0  0  0
 72 75  2  0  0  0
 72 76  1  0  0  0
 72147  1  0  0  0
 73 74  1  0  0  0
 73 77  1  0  0  0
 74 76  2  0  0  0
 74 78  1  0  0  0
 75 83  1  0  0  0
 76 86  1  0  0  0
 77 82  1  0  0  0
 77 84  2  0  0  0
 78 82  1  0  0  0
 78 85  2  0  0  0
 79 82  1  0  0  0
 79148  1  0  0  0
 79149  1  0  0  0
 79150  1  0  0  0
 80 81  1  0  0  0
 80151  1  0  0  0
 80152  1  0  0  0
 81 86  1  0  0  0
 81153  1  0  0  0
 81154  1  0  0  0
 83155  1  0  0  0
M  ISO  4   1 100  68 101  80 101  83 100
M  END
> <chiral flag>
0

> <version>
0

> <s_m_source_file>
/data/baiqing/PycharmProjects/Reinvent-master-3.2/result/LINK_invent/BTK/process_docking_weight1_custom_product_contain_oxygen_bond_distance_aromatic_linkinvent_7_9_3/rearranged_h_0116.sdf

> <i_m_source_file_index>
58

> <r_mmod_Potential_Energy-OPLS-2005>
749.3310546875

> <r_mmod_Stretch_Energy-OPLS-2005>
350.544799804688

> <r_mmod_Bend_Energy-OPLS-2005>
400.538787841797

> <r_mmod_Torsional_Energy-OPLS-2005>
231.638076782227

> <r_mmod_Improper_Torsional_Energy-OPLS-2005>
5.61675786972046

> <r_mmod_Van_der_Waal_Energy-OPLS-2005>
143.922561645508

> <r_mmod_Electrostatic_Energy-OPLS-2005>
-382.041778564453

> <r_mmod_Solvation_Energy-OPLS-2005>
-236.304748535156

> <b_mmod_Minimization_Converged-OPLS-2005>
0

> <r_mmod_RMS_Derivative-OPLS-2005>
5.45258665084839

$$$$
58
                    3D
 Structure written by MMmdl.
153161  0  0  1  0            999 V2000
  -30.6991  -14.5007   20.5518 C   0  0  0  0  0  0
  -30.4209  -12.3190   19.4294 C   0  0  0  0  0  0
  -29.4945  -12.4990   18.2093 C   0  0  0  0  0  0
  -28.0165  -12.3574   18.6232 C   0  0  0  0  0  0
  -27.6578  -13.2100   19.8701 C   0  0  2  0  0  0
  -28.7013  -13.0198   20.9946 C   0  0  0  0  0  0
  -25.2574  -13.8166   20.5680 C   0  0  0  0  0  0
  -24.1833  -13.0438   20.9185 C   0  0  0  0  0  0
  -24.6393  -11.6907   20.8742 C   0  0  0  0  0  0
  -23.9063  -10.4292   21.0408 C   0  0  0  0  0  0
  -24.3616   -9.4206   21.9185 C   0  0  0  0  0  0
  -23.6290   -8.2242   22.0755 C   0  0  0  0  0  0
  -22.4273   -8.0281   21.3545 C   0  0  0  0  0  0
  -21.9909   -9.0255   20.4648 C   0  0  0  0  0  0
  -22.7237  -10.2134   20.3057 C   0  0  0  0  0  0
  -21.6853   -6.0736   22.5279 C   0  0  0  0  0  0
  -21.4014   -6.5640   23.8212 C   0  0  0  0  0  0
  -21.3659   -5.6793   24.9173 C   0  0  0  0  0  0
  -21.6044   -4.3055   24.7224 C   0  0  0  0  0  0
  -21.8819   -3.8148   23.4345 C   0  0  0  0  0  0
  -21.9192   -4.6964   22.3402 C   0  0  0  0  0  0
  -22.7856  -13.5235   21.1847 C   0  0  0  0  0  0
  -22.1661   -4.2151   21.0979 F   0  0  0  0  0  0
  -21.5629   -3.4539   25.7737 F   0  0  0  0  0  0
  -30.0275  -13.3215   20.4332 N   0  0  0  0  0  0
  -26.3008  -12.9340   20.3353 N   0  0  0  0  0  0
  -25.9321  -11.6497   20.5772 N   0  0  0  0  0  0
  -22.0498  -12.8228   22.0405 N   0  0  0  0  0  0
  -25.4286  -15.1884   20.4074 N   0  0  0  0  0  0
  -31.8454  -14.6466   20.1185 O   0  0  0  0  0  0
  -21.6637   -6.8878   21.4241 O   0  0  0  0  0  0
  -22.3542  -14.5543   20.6697 O   0  0  0  0  0  0
  -24.6164  -31.8664   23.2084 C   0  0  0  0  0  0
  -25.9049  -32.4815   23.8388 C   0  0  1  0  0  0
  -27.2315  -27.4186   20.1063 C   0  0  0  0  0  0
  -25.5899  -33.8613   24.2320 N   0  0  0  0  0  0
  -23.4054  -30.4893   21.5489 C   0  0  2  0  0  0
  -24.8531  -28.9533   20.1137 C   0  0  0  0  0  0
  -22.7418  -29.4653   22.4981 C   0  0  0  0  0  0
  -18.0270  -28.1377   22.8492 C   0  0  0  0  0  0
  -24.1486  -36.7314   23.2639 C   0  0  0  0  0  0
  -25.9356  -30.8294   21.3622 C   0  0  0  0  0  0
  -26.0148  -29.4629   20.7085 C   0  0  0  0  0  0
  -27.2112  -28.7056   20.6956 C   0  0  0  0  0  0
  -26.0557  -26.9287   19.5001 C   0  0  0  0  0  0
  -24.8694  -27.6869   19.5036 C   0  0  0  0  0  0
  -23.6147  -29.8207   20.1640 C   0  0  0  0  0  0
  -25.4108  -36.3107   24.0336 C   0  0  1  0  0  0
  -20.5863  -28.3668   23.1311 C   0  0  2  0  0  0
  -20.6760  -26.9402   22.5417 C   0  0  0  0  0  0
  -19.5740  -26.6384   21.5212 C   0  0  0  0  0  0
  -18.1918  -26.7924   22.1623 C   0  0  0  0  0  0
  -19.1520  -28.8838   23.2899 C   0  0  0  0  0  0
  -18.9450  -30.1445   23.8909 C   0  0  0  0  0  0
  -17.6453  -30.6584   24.0566 C   0  0  0  0  0  0
  -25.9035  -34.9472   23.5126 C   0  0  0  0  0  0
  -16.5344  -29.9087   23.6328 C   0  0  0  0  0  0
  -16.7260  -28.6503   23.0349 C   0  0  0  0  0  0
  -26.4473  -31.6596   25.0719 C   0  0  0  0  0  0
  -25.3739  -31.3701   26.1468 C   0  0  0  0  0  0
  -27.0305  -30.3037   24.6097 C   0  0  0  0  0  0
  -27.6048  -32.4318   25.7479 C   0  0  0  0  0  0
  -27.5582  -37.1810   24.8466 C   0  0  0  0  0  0
  -21.4144  -29.3035   22.3719 N   0  0  0  0  0  0
  -26.4295  -37.3792   23.9409 N   0  0  0  0  0  0
  -24.6710  -31.0758   22.0986 N   0  0  0  0  0  0
  -23.4184  -28.8196   23.3030 O   0  0  0  0  0  0
  -28.3705  -26.6399   20.1171 O   0  0  0  0  0  0
  -26.5600  -34.8924   22.4690 O   0  0  0  0  0  0
  -23.5352  -32.1418   23.7473 O   0  0  0  0  0  0
  -32.0257  -18.6618   21.5804 C   0  0  0  0  0  0
  -31.6638  -17.3045   21.4903 C   0  0  0  0  0  0
  -31.1036  -19.6743   21.2527 C   0  0  0  0  0  0
  -29.4359  -17.9679   20.7688 C   0  0  0  0  0  0
  -30.3650  -16.9330   21.0727 C   0  0  0  0  0  0
  -29.7964  -19.3442   20.8257 C   0  0  0  0  0  0
  -28.8396  -24.1773   20.0895 C   0  0  0  0  0  0
  -28.6763  -22.7848   20.7511 C   0  0  0  0  0  0
  -28.2201  -25.3874   20.8287 C   0  0  0  0  0  0
  -29.2428  -21.5785   19.9485 C   0  0  0  0  0  0
  -29.9702  -15.5515   20.9993 N   0  0  0  0  0  0
  -29.4403  -24.3170   19.0184 O   0  0  0  0  0  0
  -28.8443  -20.3034   20.5039 O   0  0  0  0  0  0
  -31.4658  -12.4124   19.1279 H   0  0  0  0  0  0
  -30.3208  -11.3146   19.8435 H   0  0  0  0  0  0
  -29.7382  -11.7656   17.4394 H   0  0  0  0  0  0
  -29.6591  -13.4800   17.7604 H   0  0  0  0  0  0
  -27.8331  -11.3028   18.8320 H   0  0  0  0  0  0
  -27.3643  -12.6184   17.7889 H   0  0  0  0  0  0
  -27.6926  -14.2530   19.5552 H   0  0  0  0  0  0
  -28.6834  -11.9928   21.3623 H   0  0  0  0  0  0
  -28.4655  -13.6445   21.8576 H   0  0  0  0  0  0
  -25.2762   -9.5680   22.4758 H   0  0  0  0  0  0
  -24.0002   -7.4632   22.7474 H   0  0  0  0  0  0
  -21.0841   -8.8771   19.8953 H   0  0  0  0  0  0
  -22.3696  -10.9672   19.6166 H   0  0  0  0  0  0
  -21.2007   -7.6148   23.9717 H   0  0  0  0  0  0
  -21.1482   -6.0522   25.9076 H   0  0  0  0  0  0
  -22.0600   -2.7611   23.2844 H   0  0  0  0  0  0
  -22.4111  -11.9884   22.4785 H   0  0  0  0  0  0
  -21.1120  -13.1259   22.2619 H   0  0  0  0  0  0
  -24.6593  -15.8413   20.5111 H   0  0  0  0  0  0
  -26.2736  -15.6264   20.0636 H   0  0  0  0  0  0
  -26.7122  -32.5520   23.1154 H   0  0  0  0  0  0
  -25.0055  -33.9776   25.0469 H   0  0  0  0  0  0
  -22.6949  -31.3065   21.4085 H   0  0  0  0  0  0
  -23.3743  -35.9652   23.3312 H   0  0  0  0  0  0
  -24.3581  -36.8919   22.2052 H   0  0  0  0  0  0
  -23.7243  -37.6523   23.6649 H   0  0  0  0  0  0
  -26.0489  -31.5958   20.5941 H   0  0  0  0  0  0
  -26.8230  -30.8830   21.9813 H   0  0  0  0  0  0
  -28.1087  -29.0946   21.1563 H   0  0  0  0  0  0
  -26.0540  -25.9560   19.0283 H   0  0  0  0  0  0
  -23.9774  -27.2897   19.0390 H   0  0  0  0  0  0
  -23.7224  -30.5949   19.4034 H   0  0  0  0  0  0
  -22.7388  -29.2402   19.8688 H   0  0  0  0  0  0
  -25.1286  -36.1974   25.0829 H   0  0  0  0  0  0
  -20.9953  -28.3234   24.1432 H   0  0  0  0  0  0
  -20.5659  -26.2278   23.3607 H   0  0  0  0  0  0
  -21.6633  -26.7442   22.1212 H   0  0  0  0  0  0
  -19.6904  -25.6299   21.1232 H   0  0  0  0  0  0
  -19.6679  -27.3203   20.6748 H   0  0  0  0  0  0
  -17.4190  -26.6674   21.4021 H   0  0  0  0  0  0
  -18.0319  -26.0058   22.9012 H   0  0  0  0  0  0
  -19.7926  -30.7255   24.2284 H   0  0  0  0  0  0
  -17.5009  -31.6265   24.5167 H   0  0  0  0  0  0
  -15.5346  -30.2994   23.7644 H   0  0  0  0  0  0
  -15.8657  -28.0827   22.7061 H   0  0  0  0  0  0
  -24.5914  -30.7043   25.7809 H   0  0  0  0  0  0
  -24.8926  -32.2853   26.4923 H   0  0  0  0  0  0
  -25.8096  -30.8868   27.0222 H   0  0  0  0  0  0
  -26.2849  -29.6795   24.1157 H   0  0  0  0  0  0
  -27.4081  -29.7276   25.4556 H   0  0  0  0  0  0
  -27.8681  -30.4357   23.9243 H   0  0  0  0  0  0
  -27.2667  -33.3609   26.2080 H   0  0  0  0  0  0
  -28.3841  -32.6895   25.0294 H   0  0  0  0  0  0
  -28.0732  -31.8427   26.5373 H   0  0  0  0  0  0
  -28.2608  -38.0100   24.7510 H   0  0  0  0  0  0
  -28.1070  -36.2633   24.6297 H   0  0  0  0  0  0
  -27.2301  -37.1466   25.8869 H   0  0  0  0  0  0
  -20.9307  -29.8762   21.6944 H   0  0  0  0  0  0
  -26.0185  -38.2873   24.1404 H   0  0  0  0  0  0
  -33.0198  -18.9290   21.9106 H   0  0  0  0  0  0
  -32.3954  -16.5549   21.7581 H   0  0  0  0  0  0
  -31.4175  -20.7022   21.3611 H   0  0  0  0  0  0
  -28.4326  -17.7089   20.4617 H   0  0  0  0  0  0
  -27.6105  -22.6305   20.9189 H   0  0  0  0  0  0
  -29.1411  -22.8180   21.7360 H   0  0  0  0  0  0
  -28.7112  -25.4844   21.7967 H   0  0  0  0  0  0
  -27.1738  -25.1615   21.0375 H   0  0  0  0  0  0
  -30.3183  -21.6837   19.8126 H   0  0  0  0  0  0
  -28.8324  -21.6080   18.9384 H   0  0  0  0  0  0
  -29.0009  -15.3471   21.1876 H   0  0  0  0  0  0
  1 25  1  0  0  0
  1 30  2  0  0  0
  1 81  1  0  0  0
  2  3  1  0  0  0
  2 25  1  0  0  0
  2 84  1  0  0  0
  2 85  1  0  0  0
  3  4  1  0  0  0
  3 86  1  0  0  0
  3 87  1  0  0  0
  4  5  1  0  0  0
  4 88  1  0  0  0
  4 89  1  0  0  0
  5  6  1  0  0  0
  5 26  1  0  0  0
  5 90  1  0  0  0
  6 25  1  0  0  0
  6 91  1  0  0  0
  6 92  1  0  0  0
  7  8  2  0  0  0
  7 26  1  0  0  0
  7 29  1  0  0  0
  8  9  1  0  0  0
  8 22  1  0  0  0
  9 10  1  0  0  0
  9 27  2  0  0  0
 10 11  2  0  0  0
 10 15  1  0  0  0
 11 12  1  0  0  0
 11 93  1  0  0  0
 12 13  2  0  0  0
 12 94  1  0  0  0
 13 14  1  0  0  0
 13 31  1  0  0  0
 14 15  2  0  0  0
 14 95  1  0  0  0
 15 96  1  0  0  0
 16 17  2  0  0  0
 16 21  1  0  0  0
 16 31  1  0  0  0
 17 18  1  0  0  0
 17 97  1  0  0  0
 18 19  2  0  0  0
 18 98  1  0  0  0
 19 20  1  0  0  0
 19 24  1  0  0  0
 20 21  2  0  0  0
 20 99  1  0  0  0
 21 23  1  0  0  0
 22 28  1  0  0  0
 22 32  2  0  0  0
 26 27  1  0  0  0
 28100  1  0  0  0
 28101  1  0  0  0
 29102  1  0  0  0
 29103  1  0  0  0
 33 34  1  0  0  0
 33 66  1  0  0  0
 33 70  2  0  0  0
 34 36  1  0  0  0
 34 59  1  0  0  0
 34104  1  0  0  0
 35 44  2  0  0  0
 35 45  1  0  0  0
 35 68  1  0  0  0
 36 56  1  0  0  0
 36105  1  0  0  0
 37 39  1  0  0  0
 37 47  1  0  0  0
 37 66  1  0  0  0
 37106  1  0  0  0
 38 43  2  0  0  0
 38 46  1  0  0  0
 38 47  1  0  0  0
 39 64  1  0  0  0
 39 67  2  0  0  0
 40 52  1  0  0  0
 40 53  2  0  0  0
 40 58  1  0  0  0
 41107  1  0  0  0
 41108  1  0  0  0
 41109  1  0  0  0
 41 48  1  0  0  0
 42 43  1  0  0  0
 42 66  1  0  0  0
 42110  1  0  0  0
 42111  1  0  0  0
 43 44  1  0  0  0
 44112  1  0  0  0
 45 46  2  0  0  0
 45113  1  0  0  0
 46114  1  0  0  0
 47115  1  0  0  0
 47116  1  0  0  0
 48 56  1  0  0  0
 48 65  1  0  0  0
 48117  1  0  0  0
 49 50  1  0  0  0
 49 53  1  0  0  0
 49 64  1  0  0  0
 49118  1  0  0  0
 50 51  1  0  0  0
 50119  1  0  0  0
 50120  1  0  0  0
 51 52  1  0  0  0
 51121  1  0  0  0
 51122  1  0  0  0
 52123  1  0  0  0
 52124  1  0  0  0
 53 54  1  0  0  0
 54 55  2  0  0  0
 54125  1  0  0  0
 55 57  1  0  0  0
 55126  1  0  0  0
 56 69  2  0  0  0
 57 58  2  0  0  0
 57127  1  0  0  0
 58128  1  0  0  0
 59 60  1  0  0  0
 59 61  1  0  0  0
 59 62  1  0  0  0
 60129  1  0  0  0
 60130  1  0  0  0
 60131  1  0  0  0
 61132  1  0  0  0
 61133  1  0  0  0
 61134  1  0  0  0
 62135  1  0  0  0
 62136  1  0  0  0
 62137  1  0  0  0
 63 65  1  0  0  0
 63138  1  0  0  0
 63139  1  0  0  0
 63140  1  0  0  0
 64141  1  0  0  0
 65142  1  0  0  0
 68 79  1  0  0  0
 71 72  2  0  0  0
 71 73  1  0  0  0
 71143  1  0  0  0
 72 75  1  0  0  0
 72144  1  0  0  0
 73 76  2  0  0  0
 73145  1  0  0  0
 74 75  2  0  0  0
 74 76  1  0  0  0
 74146  1  0  0  0
 75 81  1  0  0  0
 76 83  1  0  0  0
 77 78  1  0  0  0
 77 79  1  0  0  0
 77 82  2  0  0  0
 78 80  1  0  0  0
 78147  1  0  0  0
 78148  1  0  0  0
 79149  1  0  0  0
 79150  1  0  0  0
 80 83  1  0  0  0
 80151  1  0  0  0
 80152  1  0  0  0
 81153  1  0  0  0
M  ISO  4   1 100  68 101  79 101  81 100
M  END
> <chiral flag>
0

> <version>
0

> <s_m_source_file>
/data/baiqing/PycharmProjects/Reinvent-master-3.2/result/LINK_invent/BTK/process_docking_weight1_custom_product_contain_oxygen_bond_distance_aromatic_linkinvent_7_9_3/rearranged_h_0116.sdf

> <i_m_source_file_index>
59

> <r_mmod_Potential_Energy-OPLS-2005>
-21.7302398681641

> <r_mmod_Stretch_Energy-OPLS-2005>
43.7838134765625

> <r_mmod_Bend_Energy-OPLS-2005>
101.77165222168

> <r_mmod_Torsional_Energy-OPLS-2005>
242.524429321289

> <r_mmod_Improper_Torsional_Energy-OPLS-2005>
4.32492971420288

> <r_mmod_Van_der_Waal_Energy-OPLS-2005>
153.409378051758

> <r_mmod_Electrostatic_Energy-OPLS-2005>
-354.68408203125

> <r_mmod_Solvation_Energy-OPLS-2005>
-229.892486572266

> <b_mmod_Minimization_Converged-OPLS-2005>
0

> <r_mmod_RMS_Derivative-OPLS-2005>
0.323682397603989

$$$$
59
                    3D
 Structure written by MMmdl.
158166  0  0  1  0            999 V2000
  -30.6699  -14.4414   20.6367 C   0  0  0  0  0  0
  -30.4432  -12.3128   19.3976 C   0  0  0  0  0  0
  -29.4990  -12.5165   18.1936 C   0  0  0  0  0  0
  -28.0185  -12.3712   18.6062 C   0  0  0  0  0  0
  -27.6695  -13.1897   19.8778 C   0  0  2  0  0  0
  -28.7059  -12.9012   20.9844 C   0  0  0  0  0  0
  -25.2651  -13.8126   20.5666 C   0  0  0  0  0  0
  -24.1871  -13.0432   20.9144 C   0  0  0  0  0  0
  -24.6395  -11.6891   20.8707 C   0  0  0  0  0  0
  -23.9055  -10.4285   21.0395 C   0  0  0  0  0  0
  -24.3601   -9.4199   21.9174 C   0  0  0  0  0  0
  -23.6273   -8.2241   22.0752 C   0  0  0  0  0  0
  -22.4255   -8.0280   21.3549 C   0  0  0  0  0  0
  -21.9888   -9.0259   20.4658 C   0  0  0  0  0  0
  -22.7227  -10.2132   20.3049 C   0  0  0  0  0  0
  -21.6854   -6.0721   22.5276 C   0  0  0  0  0  0
  -21.4015   -6.5621   23.8208 C   0  0  0  0  0  0
  -21.3643   -5.6777   24.9171 C   0  0  0  0  0  0
  -21.6036   -4.3042   24.7231 C   0  0  0  0  0  0
  -21.8822   -3.8131   23.4354 C   0  0  0  0  0  0
  -21.9202   -4.6949   22.3405 C   0  0  0  0  0  0
  -22.7898  -13.5259   21.1810 C   0  0  0  0  0  0
  -22.1667   -4.2135   21.0988 F   0  0  0  0  0  0
  -21.5621   -3.4522   25.7739 F   0  0  0  0  0  0
  -30.0431  -13.2467   20.4584 N   0  0  0  0  0  0
  -26.3059  -12.9255   20.3338 N   0  0  0  0  0  0
  -25.9306  -11.6435   20.5709 N   0  0  0  0  0  0
  -22.0520  -12.8282   22.0375 N   0  0  0  0  0  0
  -25.4420  -15.1841   20.4088 N   0  0  0  0  0  0
  -31.7459  -14.7316   20.1022 O   0  0  0  0  0  0
  -21.6631   -6.8867   21.4241 O   0  0  0  0  0  0
  -22.3592  -14.5564   20.6653 O   0  0  0  0  0  0
  -24.6122  -31.8699   23.2099 C   0  0  0  0  0  0
  -25.9011  -32.4823   23.8406 C   0  0  1  0  0  0
  -27.2428  -27.4569   20.0935 C   0  0  0  0  0  0
  -25.5864  -33.8620   24.2355 N   0  0  0  0  0  0
  -23.4016  -30.4933   21.5503 C   0  0  2  0  0  0
  -24.8506  -28.9582   20.1181 C   0  0  0  0  0  0
  -22.7397  -29.4689   22.4999 C   0  0  0  0  0  0
  -18.0287  -28.1390   22.8519 C   0  0  0  0  0  0
  -24.1470  -36.7311   23.2653 C   0  0  0  0  0  0
  -25.9277  -30.8409   21.3614 C   0  0  0  0  0  0
  -26.0095  -29.4759   20.7130 C   0  0  0  0  0  0
  -27.2103  -28.7322   20.6986 C   0  0  0  0  0  0
  -26.0718  -26.9461   19.4959 C   0  0  0  0  0  0
  -24.8758  -27.6910   19.5083 C   0  0  0  0  0  0
  -23.6115  -29.8237   20.1660 C   0  0  0  0  0  0
  -25.4090  -36.3115   24.0358 C   0  0  1  0  0  0
  -20.5877  -28.3677   23.1325 C   0  0  2  0  0  0
  -20.6766  -26.9410   22.5443 C   0  0  0  0  0  0
  -19.5742  -26.6409   21.5232 C   0  0  0  0  0  0
  -18.1923  -26.7936   22.1646 C   0  0  0  0  0  0
  -19.1535  -28.8847   23.2922 C   0  0  0  0  0  0
  -18.9464  -30.1457   23.8931 C   0  0  0  0  0  0
  -17.6463  -30.6588   24.0593 C   0  0  0  0  0  0
  -25.9012  -34.9475   23.5158 C   0  0  0  0  0  0
  -16.5358  -29.9100   23.6336 C   0  0  0  0  0  0
  -16.7275  -28.6521   23.0351 C   0  0  0  0  0  0
  -26.4444  -31.6583   25.0726 C   0  0  0  0  0  0
  -25.3712  -31.3685   26.1486 C   0  0  0  0  0  0
  -27.0276  -30.3026   24.6077 C   0  0  0  0  0  0
  -27.6060  -32.4276   25.7453 C   0  0  0  0  0  0
  -27.5562  -37.1829   24.8487 C   0  0  0  0  0  0
  -21.4135  -29.3036   22.3706 N   0  0  0  0  0  0
  -26.4292  -37.3791   23.9407 N   0  0  0  0  0  0
  -24.6657  -31.0819   22.0988 N   0  0  0  0  0  0
  -23.4163  -28.8249   23.3062 O   0  0  0  0  0  0
  -28.3981  -26.7107   20.0777 O   0  0  0  0  0  0
  -26.5609  -34.8916   22.4730 O   0  0  0  0  0  0
  -23.5310  -32.1455   23.7469 O   0  0  0  0  0  0
  -28.7958  -17.2204   22.2020 C   0  0  0  0  0  0
  -30.7865  -17.5970   20.8665 C   0  0  0  0  0  0
  -28.5831  -18.6130   22.3228 C   0  0  0  0  0  0
  -29.8874  -16.6962   21.4809 C   0  0  0  0  0  0
  -29.4953  -19.5171   21.7189 C   0  0  0  0  0  0
  -30.5961  -18.9943   20.9851 C   0  0  0  0  0  0
  -26.6270  -18.4286   23.9103 C   0  0  0  0  0  0
  -27.4319  -19.1335   23.0953 C   0  0  0  0  0  0
  -29.0950  -24.3529   20.4326 C   0  0  0  0  0  0
  -28.9815  -23.1623   21.4147 C   0  0  0  0  0  0
  -28.3785  -25.6039   20.9868 C   0  0  0  0  0  0
  -29.6646  -21.8466   20.9809 C   0  0  0  0  0  0
  -29.9819  -15.2738   21.4400 N   0  0  0  0  0  0
  -29.2677  -20.8657   21.9390 O   0  0  0  0  0  0
  -31.5055  -19.8152   20.4082 F   0  0  0  0  0  0
  -31.4796  -12.4628   19.0893 H   0  0  0  0  0  0
  -30.3875  -11.2865   19.7640 H   0  0  0  0  0  0
  -29.7392  -11.8000   17.4070 H   0  0  0  0  0  0
  -29.6628  -13.5057   17.7608 H   0  0  0  0  0  0
  -27.8268  -11.3129   18.7898 H   0  0  0  0  0  0
  -27.3668  -12.6587   17.7805 H   0  0  0  0  0  0
  -27.7357  -14.2451   19.6125 H   0  0  0  0  0  0
  -28.6852  -11.8407   21.2429 H   0  0  0  0  0  0
  -28.4415  -13.4126   21.9099 H   0  0  0  0  0  0
  -25.2746   -9.5662   22.4750 H   0  0  0  0  0  0
  -23.9972   -7.4629   22.7469 H   0  0  0  0  0  0
  -21.0810   -8.8789   19.8976 H   0  0  0  0  0  0
  -22.3689  -10.9666   19.6146 H   0  0  0  0  0  0
  -21.2008   -7.6126   23.9705 H   0  0  0  0  0  0
  -21.1448   -6.0506   25.9072 H   0  0  0  0  0  0
  -22.0620   -2.7598   23.2865 H   0  0  0  0  0  0
  -22.4101  -11.9933   22.4773 H   0  0  0  0  0  0
  -21.1151  -13.1355   22.2575 H   0  0  0  0  0  0
  -24.6820  -15.8450   20.5239 H   0  0  0  0  0  0
  -26.3038  -15.6211   20.1068 H   0  0  0  0  0  0
  -26.7080  -32.5575   23.1181 H   0  0  0  0  0  0
  -24.9951  -33.9753   25.0454 H   0  0  0  0  0  0
  -22.6928  -31.3126   21.4105 H   0  0  0  0  0  0
  -23.3693  -35.9694   23.3406 H   0  0  0  0  0  0
  -24.3551  -36.8813   22.2050 H   0  0  0  0  0  0
  -23.7254  -37.6563   23.6585 H   0  0  0  0  0  0
  -26.0342  -31.6015   20.5863 H   0  0  0  0  0  0
  -26.8178  -30.9004   21.9758 H   0  0  0  0  0  0
  -28.1070  -29.1294   21.1548 H   0  0  0  0  0  0
  -26.0881  -25.9742   19.0214 H   0  0  0  0  0  0
  -23.9845  -27.2875   19.0467 H   0  0  0  0  0  0
  -23.7174  -30.5974   19.4041 H   0  0  0  0  0  0
  -22.7366  -29.2420   19.8720 H   0  0  0  0  0  0
  -25.1247  -36.2012   25.0854 H   0  0  0  0  0  0
  -21.0012  -28.3241   24.1427 H   0  0  0  0  0  0
  -20.5684  -26.2269   23.3628 H   0  0  0  0  0  0
  -21.6631  -26.7459   22.1225 H   0  0  0  0  0  0
  -19.6889  -25.6330   21.1226 H   0  0  0  0  0  0
  -19.6650  -27.3243   20.6776 H   0  0  0  0  0  0
  -17.4197  -26.6726   21.4032 H   0  0  0  0  0  0
  -18.0310  -26.0054   22.9024 H   0  0  0  0  0  0
  -19.7932  -30.7285   24.2290 H   0  0  0  0  0  0
  -17.5013  -31.6261   24.5211 H   0  0  0  0  0  0
  -15.5354  -30.3016   23.7622 H   0  0  0  0  0  0
  -15.8687  -28.0850   22.7039 H   0  0  0  0  0  0
  -24.5871  -30.7040   25.7831 H   0  0  0  0  0  0
  -24.8909  -32.2840   26.4962 H   0  0  0  0  0  0
  -25.8072  -30.8839   27.0232 H   0  0  0  0  0  0
  -26.2814  -29.6781   24.1147 H   0  0  0  0  0  0
  -27.4074  -29.7258   25.4521 H   0  0  0  0  0  0
  -27.8634  -30.4361   23.9202 H   0  0  0  0  0  0
  -27.2731  -33.3567   26.2087 H   0  0  0  0  0  0
  -28.3825  -32.6838   25.0235 H   0  0  0  0  0  0
  -28.0774  -31.8352   26.5304 H   0  0  0  0  0  0
  -28.2677  -38.0031   24.7425 H   0  0  0  0  0  0
  -28.0954  -36.2565   24.6442 H   0  0  0  0  0  0
  -27.2288  -37.1662   25.8899 H   0  0  0  0  0  0
  -20.9295  -29.8707   21.6888 H   0  0  0  0  0  0
  -26.0186  -38.2890   24.1328 H   0  0  0  0  0  0
  -28.1014  -16.5311   22.6591 H   0  0  0  0  0  0
  -31.6371  -17.2404   20.3067 H   0  0  0  0  0  0
  -25.8047  -18.9146   24.4166 H   0  0  0  0  0  0
  -26.7552  -17.3731   24.0996 H   0  0  0  0  0  0
  -27.2092  -20.1858   22.9785 H   0  0  0  0  0  0
  -28.6528  -24.0784   19.4746 H   0  0  0  0  0  0
  -30.1440  -24.5788   20.2380 H   0  0  0  0  0  0
  -27.9247  -22.9616   21.5932 H   0  0  0  0  0  0
  -29.3903  -23.4602   22.3822 H   0  0  0  0  0  0
  -28.8613  -25.9210   21.9114 H   0  0  0  0  0  0
  -27.3564  -25.3294   21.2570 H   0  0  0  0  0  0
  -30.7458  -21.9799   20.9792 H   0  0  0  0  0  0
  -29.3440  -21.5564   19.9781 H   0  0  0  0  0  0
  -29.2142  -14.7959   21.8870 H   0  0  0  0  0  0
  1 25  1  0  0  0
  1 30  2  0  0  0
  1 83  1  0  0  0
  2  3  1  0  0  0
  2 25  1  0  0  0
  2 86  1  0  0  0
  2 87  1  0  0  0
  3  4  1  0  0  0
  3 88  1  0  0  0
  3 89  1  0  0  0
  4  5  1  0  0  0
  4 90  1  0  0  0
  4 91  1  0  0  0
  5  6  1  0  0  0
  5 26  1  0  0  0
  5 92  1  0  0  0
  6 25  1  0  0  0
  6 93  1  0  0  0
  6 94  1  0  0  0
  7  8  2  0  0  0
  7 26  1  0  0  0
  7 29  1  0  0  0
  8  9  1  0  0  0
  8 22  1  0  0  0
  9 10  1  0  0  0
  9 27  2  0  0  0
 10 11  2  0  0  0
 10 15  1  0  0  0
 11 12  1  0  0  0
 11 95  1  0  0  0
 12 13  2  0  0  0
 12 96  1  0  0  0
 13 14  1  0  0  0
 13 31  1  0  0  0
 14 15  2  0  0  0
 14 97  1  0  0  0
 15 98  1  0  0  0
 16 17  2  0  0  0
 16 21  1  0  0  0
 16 31  1  0  0  0
 17 18  1  0  0  0
 17 99  1  0  0  0
 18 19  2  0  0  0
 18100  1  0  0  0
 19 20  1  0  0  0
 19 24  1  0  0  0
 20 21  2  0  0  0
 20101  1  0  0  0
 21 23  1  0  0  0
 22 28  1  0  0  0
 22 32  2  0  0  0
 26 27  1  0  0  0
 28102  1  0  0  0
 28103  1  0  0  0
 29104  1  0  0  0
 29105  1  0  0  0
 33 34  1  0  0  0
 33 66  1  0  0  0
 33 70  2  0  0  0
 34 36  1  0  0  0
 34 59  1  0  0  0
 34106  1  0  0  0
 35 44  2  0  0  0
 35 45  1  0  0  0
 35 68  1  0  0  0
 36 56  1  0  0  0
 36107  1  0  0  0
 37 39  1  0  0  0
 37 47  1  0  0  0
 37 66  1  0  0  0
 37108  1  0  0  0
 38 43  2  0  0  0
 38 46  1  0  0  0
 38 47  1  0  0  0
 39 64  1  0  0  0
 39 67  2  0  0  0
 40 52  1  0  0  0
 40 53  2  0  0  0
 40 58  1  0  0  0
 41109  1  0  0  0
 41110  1  0  0  0
 41111  1  0  0  0
 41 48  1  0  0  0
 42 43  1  0  0  0
 42 66  1  0  0  0
 42112  1  0  0  0
 42113  1  0  0  0
 43 44  1  0  0  0
 44114  1  0  0  0
 45 46  2  0  0  0
 45115  1  0  0  0
 46116  1  0  0  0
 47117  1  0  0  0
 47118  1  0  0  0
 48 56  1  0  0  0
 48 65  1  0  0  0
 48119  1  0  0  0
 49 50  1  0  0  0
 49 53  1  0  0  0
 49 64  1  0  0  0
 49120  1  0  0  0
 50 51  1  0  0  0
 50121  1  0  0  0
 50122  1  0  0  0
 51 52  1  0  0  0
 51123  1  0  0  0
 51124  1  0  0  0
 52125  1  0  0  0
 52126  1  0  0  0
 53 54  1  0  0  0
 54 55  2  0  0  0
 54127  1  0  0  0
 55 57  1  0  0  0
 55128  1  0  0  0
 56 69  2  0  0  0
 57 58  2  0  0  0
 57129  1  0  0  0
 58130  1  0  0  0
 59 60  1  0  0  0
 59 61  1  0  0  0
 59 62  1  0  0  0
 60131  1  0  0  0
 60132  1  0  0  0
 60133  1  0  0  0
 61134  1  0  0  0
 61135  1  0  0  0
 61136  1  0  0  0
 62137  1  0  0  0
 62138  1  0  0  0
 62139  1  0  0  0
 63 65  1  0  0  0
 63140  1  0  0  0
 63141  1  0  0  0
 63142  1  0  0  0
 64143  1  0  0  0
 65144  1  0  0  0
 68 81  1  0  0  0
 71 73  2  0  0  0
 71 74  1  0  0  0
 71145  1  0  0  0
 72 74  2  0  0  0
 72 76  1  0  0  0
 72146  1  0  0  0
 73 75  1  0  0  0
 73 78  1  0  0  0
 74 83  1  0  0  0
 75 76  2  0  0  0
 75 84  1  0  0  0
 76 85  1  0  0  0
 77 78  2  0  0  0
 77147  1  0  0  0
 77148  1  0  0  0
 78149  1  0  0  0
 79 80  1  0  0  0
 79 81  1  0  0  0
 79150  1  0  0  0
 79151  1  0  0  0
 80 82  1  0  0  0
 80152  1  0  0  0
 80153  1  0  0  0
 81154  1  0  0  0
 81155  1  0  0  0
 82 84  1  0  0  0
 82156  1  0  0  0
 82157  1  0  0  0
 83158  1  0  0  0
M  ISO  4   1 100  68 101  81 101  83 100
M  END
> <chiral flag>
0

> <version>
0

> <s_m_source_file>
/data/baiqing/PycharmProjects/Reinvent-master-3.2/result/LINK_invent/BTK/process_docking_weight1_custom_product_contain_oxygen_bond_distance_aromatic_linkinvent_7_9_3/rearranged_h_0116.sdf

> <i_m_source_file_index>
60

> <r_mmod_Potential_Energy-OPLS-2005>
13.2693853378296

> <r_mmod_Stretch_Energy-OPLS-2005>
36.8253021240234

> <r_mmod_Bend_Energy-OPLS-2005>
113.71932220459

> <r_mmod_Torsional_Energy-OPLS-2005>
241.745132446289

> <r_mmod_Improper_Torsional_Energy-OPLS-2005>
3.20345592498779

> <r_mmod_Van_der_Waal_Energy-OPLS-2005>
157.827133178711

> <r_mmod_Electrostatic_Energy-OPLS-2005>
-350.105133056641

> <r_mmod_Solvation_Energy-OPLS-2005>
-200.240219116211

> <b_mmod_Minimization_Converged-OPLS-2005>
0

> <r_mmod_RMS_Derivative-OPLS-2005>
2.53612518310547

$$$$
60
                    3D
 Structure written by MMmdl.
162170  0  0  1  0            999 V2000
  -30.6945  -14.6164   20.4791 C   0  0  0  0  0  0
  -30.4157  -12.3810   19.4521 C   0  0  0  0  0  0
  -29.5007  -12.5020   18.2181 C   0  0  0  0  0  0
  -28.0235  -12.3545   18.6293 C   0  0  0  0  0  0
  -27.6465  -13.2330   19.8528 C   0  0  2  0  0  0
  -28.6934  -13.1353   20.9843 C   0  0  0  0  0  0
  -25.2514  -13.8215   20.5683 C   0  0  0  0  0  0
  -24.1813  -13.0454   20.9215 C   0  0  0  0  0  0
  -24.6404  -11.6936   20.8758 C   0  0  0  0  0  0
  -23.9088  -10.4310   21.0408 C   0  0  0  0  0  0
  -24.3624   -9.4218   21.9189 C   0  0  0  0  0  0
  -23.6299   -8.2254   22.0760 C   0  0  0  0  0  0
  -22.4278   -8.0300   21.3558 C   0  0  0  0  0  0
  -21.9915   -9.0273   20.4662 C   0  0  0  0  0  0
  -22.7258  -10.2142   20.3067 C   0  0  0  0  0  0
  -21.6861   -6.0733   22.5288 C   0  0  0  0  0  0
  -21.4013   -6.5631   23.8214 C   0  0  0  0  0  0
  -21.3662   -5.6785   24.9183 C   0  0  0  0  0  0
  -21.6037   -4.3053   24.7241 C   0  0  0  0  0  0
  -21.8816   -3.8148   23.4359 C   0  0  0  0  0  0
  -21.9193   -4.6960   22.3411 C   0  0  0  0  0  0
  -22.7830  -13.5243   21.1861 C   0  0  0  0  0  0
  -22.1664   -4.2142   21.0990 F   0  0  0  0  0  0
  -21.5628   -3.4535   25.7752 F   0  0  0  0  0  0
  -30.0060  -13.4362   20.4010 N   0  0  0  0  0  0
  -26.2968  -12.9430   20.3296 N   0  0  0  0  0  0
  -25.9342  -11.6568   20.5757 N   0  0  0  0  0  0
  -22.0438  -12.8265   22.0404 N   0  0  0  0  0  0
  -25.4179  -15.1921   20.4038 N   0  0  0  0  0  0
  -31.8795  -14.6747   20.1485 O   0  0  0  0  0  0
  -21.6643   -6.8889   21.4259 O   0  0  0  0  0  0
  -22.3533  -14.5557   20.6705 O   0  0  0  0  0  0
  -24.6245  -31.8630   23.2043 C   0  0  0  0  0  0
  -25.9110  -32.4782   23.8350 C   0  0  1  0  0  0
  -27.2140  -27.3472   20.1260 C   0  0  0  0  0  0
  -25.5939  -33.8577   24.2299 N   0  0  0  0  0  0
  -23.4146  -30.4886   21.5456 C   0  0  2  0  0  0
  -24.8614  -28.9482   20.1074 C   0  0  0  0  0  0
  -22.7452  -29.4650   22.4931 C   0  0  0  0  0  0
  -18.0280  -28.1378   22.8474 C   0  0  0  0  0  0
  -24.1490  -36.7287   23.2632 C   0  0  0  0  0  0
  -25.9519  -30.8056   21.3679 C   0  0  0  0  0  0
  -26.0281  -29.4350   20.7124 C   0  0  0  0  0  0
  -27.2122  -28.6441   20.7137 C   0  0  0  0  0  0
  -26.0350  -26.9095   19.4872 C   0  0  0  0  0  0
  -24.8641  -27.6881   19.4870 C   0  0  0  0  0  0
  -23.6276  -29.8251   20.1581 C   0  0  0  0  0  0
  -25.4106  -36.3075   24.0329 C   0  0  1  0  0  0
  -20.5875  -28.3684   23.1269 C   0  0  2  0  0  0
  -20.6776  -26.9409   22.5403 C   0  0  0  0  0  0
  -19.5760  -26.6383   21.5190 C   0  0  0  0  0  0
  -18.1935  -26.7917   22.1599 C   0  0  0  0  0  0
  -19.1530  -28.8848   23.2866 C   0  0  0  0  0  0
  -18.9466  -30.1448   23.8881 C   0  0  0  0  0  0
  -17.6470  -30.6583   24.0567 C   0  0  0  0  0  0
  -25.9050  -34.9448   23.5115 C   0  0  0  0  0  0
  -16.5359  -29.9085   23.6325 C   0  0  0  0  0  0
  -16.7272  -28.6506   23.0339 C   0  0  0  0  0  0
  -26.4507  -31.6555   25.0694 C   0  0  0  0  0  0
  -25.3766  -31.3683   26.1437 C   0  0  0  0  0  0
  -27.0335  -30.2982   24.6106 C   0  0  0  0  0  0
  -27.6079  -32.4263   25.7477 C   0  0  0  0  0  0
  -27.5575  -37.1792   24.8453 C   0  0  0  0  0  0
  -21.4168  -29.3043   22.3670 N   0  0  0  0  0  0
  -26.4279  -37.3780   23.9419 N   0  0  0  0  0  0
  -24.6817  -31.0672   22.0968 N   0  0  0  0  0  0
  -23.4192  -28.8190   23.2998 O   0  0  0  0  0  0
  -28.2947  -26.4700   20.1844 O   0  0  0  0  0  0
  -26.5615  -34.8917   22.4674 O   0  0  0  0  0  0
  -23.5416  -32.1417   23.7404 O   0  0  0  0  0  0
  -28.2374  -20.1703   21.3627 C   0  0  0  0  0  0
  -30.5775  -19.6203   19.9988 C   0  0  0  0  0  0
  -28.8905  -21.2711   20.7372 C   0  0  0  0  0  0
  -28.7305  -18.8297   21.3295 C   0  0  0  0  0  0
  -29.9288  -18.5209   20.6309 C   0  0  0  0  0  0
  -30.0894  -20.9643   20.0429 C   0  0  0  0  0  0
  -33.4806  -24.0328   19.5098 C   0  0  0  0  0  0
  -28.3099  -22.6713   20.9080 C   0  0  0  0  0  0
  -32.6332  -23.2903   18.7806 C   0  0  0  0  0  0
  -28.7719  -23.9296   20.6069 C   0  0  0  0  0  0
  -27.9652  -17.7586   22.0872 C   0  0  0  0  0  0
  -30.6645  -17.1279   20.5901 C   0  0  0  0  0  0
  -32.1247  -21.9191   19.1745 C   0  0  0  0  0  0
  -28.0202  -25.2500   20.9602 C   0  0  0  0  0  0
  -30.0084  -15.7798   20.7065 N   0  0  0  0  0  0
  -30.7288  -22.0071   19.4123 O   0  0  0  0  0  0
  -31.4606  -12.4653   19.1479 H   0  0  0  0  0  0
  -30.3201  -11.3960   19.9120 H   0  0  0  0  0  0
  -29.7595  -11.7456   17.4767 H   0  0  0  0  0  0
  -29.6590  -13.4692   17.7360 H   0  0  0  0  0  0
  -27.8514  -11.3034   18.8640 H   0  0  0  0  0  0
  -27.3752  -12.5898   17.7845 H   0  0  0  0  0  0
  -27.6541  -14.2623   19.4929 H   0  0  0  0  0  0
  -28.6964  -12.1374   21.4255 H   0  0  0  0  0  0
  -28.4533  -13.8306   21.7914 H   0  0  0  0  0  0
  -25.2750   -9.5687   22.4785 H   0  0  0  0  0  0
  -23.9999   -7.4637   22.7477 H   0  0  0  0  0  0
  -21.0840   -8.8814   19.8964 H   0  0  0  0  0  0
  -22.3728  -10.9688   19.6182 H   0  0  0  0  0  0
  -21.2000   -7.6131   23.9726 H   0  0  0  0  0  0
  -21.1479   -6.0509   25.9081 H   0  0  0  0  0  0
  -22.0586   -2.7613   23.2871 H   0  0  0  0  0  0
  -22.4008  -11.9917   22.4816 H   0  0  0  0  0  0
  -21.1062  -13.1328   22.2573 H   0  0  0  0  0  0
  -24.6434  -15.8416   20.4941 H   0  0  0  0  0  0
  -26.2500  -15.6257   20.0276 H   0  0  0  0  0  0
  -26.7171  -32.5472   23.1091 H   0  0  0  0  0  0
  -25.0111  -33.9712   25.0460 H   0  0  0  0  0  0
  -22.7079  -31.3082   21.4047 H   0  0  0  0  0  0
  -23.3754  -35.9614   23.3280 H   0  0  0  0  0  0
  -24.3605  -36.8924   22.2051 H   0  0  0  0  0  0
  -23.7232  -37.6479   23.6668 H   0  0  0  0  0  0
  -26.0739  -31.5683   20.5969 H   0  0  0  0  0  0
  -26.8357  -30.8580   21.9914 H   0  0  0  0  0  0
  -28.1041  -29.0082   21.2028 H   0  0  0  0  0  0
  -26.0132  -25.9383   19.0128 H   0  0  0  0  0  0
  -23.9688  -27.3063   19.0155 H   0  0  0  0  0  0
  -23.7488  -30.6043   19.4047 H   0  0  0  0  0  0
  -22.7470  -29.2559   19.8544 H   0  0  0  0  0  0
  -25.1277  -36.1923   25.0818 H   0  0  0  0  0  0
  -20.9964  -28.3268   24.1386 H   0  0  0  0  0  0
  -20.5645  -26.2300   23.3606 H   0  0  0  0  0  0
  -21.6655  -26.7439   22.1220 H   0  0  0  0  0  0
  -19.6936  -25.6292   21.1222 H   0  0  0  0  0  0
  -19.6692  -27.3191   20.6718 H   0  0  0  0  0  0
  -17.4205  -26.6650   21.4003 H   0  0  0  0  0  0
  -18.0346  -26.0053   22.8994 H   0  0  0  0  0  0
  -19.7958  -30.7259   24.2229 H   0  0  0  0  0  0
  -17.5045  -31.6261   24.5182 H   0  0  0  0  0  0
  -15.5363  -30.2998   23.7658 H   0  0  0  0  0  0
  -15.8666  -28.0833   22.7045 H   0  0  0  0  0  0
  -24.5953  -30.7000   25.7798 H   0  0  0  0  0  0
  -24.8941  -32.2840   26.4857 H   0  0  0  0  0  0
  -25.8115  -30.8891   27.0214 H   0  0  0  0  0  0
  -26.2886  -29.6733   24.1166 H   0  0  0  0  0  0
  -27.4090  -29.7221   25.4572 H   0  0  0  0  0  0
  -27.8730  -30.4273   23.9270 H   0  0  0  0  0  0
  -27.2701  -33.3567   26.2050 H   0  0  0  0  0  0
  -28.3905  -32.6795   25.0315 H   0  0  0  0  0  0
  -28.0720  -31.8376   26.5401 H   0  0  0  0  0  0
  -28.2565  -38.0119   24.7547 H   0  0  0  0  0  0
  -28.1095  -36.2649   24.6211 H   0  0  0  0  0  0
  -27.2312  -37.1373   25.8862 H   0  0  0  0  0  0
  -20.9334  -29.8769   21.6890 H   0  0  0  0  0  0
  -26.0150  -38.2845   24.1445 H   0  0  0  0  0  0
  -27.3302  -20.3648   21.9173 H   0  0  0  0  0  0
  -31.4941  -19.4142   19.4659 H   0  0  0  0  0  0
  -33.7939  -25.0118   19.1741 H   0  0  0  0  0  0
  -33.8725  -23.6810   20.4545 H   0  0  0  0  0  0
  -27.3366  -22.6610   21.3810 H   0  0  0  0  0  0
  -32.2589  -23.6799   17.8433 H   0  0  0  0  0  0
  -29.7348  -24.0613   20.1377 H   0  0  0  0  0  0
  -27.3063  -18.1997   22.8354 H   0  0  0  0  0  0
  -28.6403  -17.0843   22.6143 H   0  0  0  0  0  0
  -27.3464  -17.1753   21.4057 H   0  0  0  0  0  0
  -31.4294  -17.1674   21.3673 H   0  0  0  0  0  0
  -31.2197  -17.1179   19.6495 H   0  0  0  0  0  0
  -32.6474  -21.5755   20.0688 H   0  0  0  0  0  0
  -32.3407  -21.2190   18.3661 H   0  0  0  0  0  0
  -28.2858  -25.4941   21.9900 H   0  0  0  0  0  0
  -26.9550  -25.0161   20.9933 H   0  0  0  0  0  0
  -29.0198  -15.7341   20.8894 H   0  0  0  0  0  0
  1 25  1  0  0  0
  1 30  2  0  0  0
  1 85  1  0  0  0
  2  3  1  0  0  0
  2 25  1  0  0  0
  2 87  1  0  0  0
  2 88  1  0  0  0
  3  4  1  0  0  0
  3 89  1  0  0  0
  3 90  1  0  0  0
  4  5  1  0  0  0
  4 91  1  0  0  0
  4 92  1  0  0  0
  5  6  1  0  0  0
  5 26  1  0  0  0
  5 93  1  0  0  0
  6 25  1  0  0  0
  6 94  1  0  0  0
  6 95  1  0  0  0
  7  8  2  0  0  0
  7 26  1  0  0  0
  7 29  1  0  0  0
  8  9  1  0  0  0
  8 22  1  0  0  0
  9 10  1  0  0  0
  9 27  2  0  0  0
 10 11  2  0  0  0
 10 15  1  0  0  0
 11 12  1  0  0  0
 11 96  1  0  0  0
 12 13  2  0  0  0
 12 97  1  0  0  0
 13 14  1  0  0  0
 13 31  1  0  0  0
 14 15  2  0  0  0
 14 98  1  0  0  0
 15 99  1  0  0  0
 16 17  2  0  0  0
 16 21  1  0  0  0
 16 31  1  0  0  0
 17 18  1  0  0  0
 17100  1  0  0  0
 18 19  2  0  0  0
 18101  1  0  0  0
 19 20  1  0  0  0
 19 24  1  0  0  0
 20 21  2  0  0  0
 20102  1  0  0  0
 21 23  1  0  0  0
 22 28  1  0  0  0
 22 32  2  0  0  0
 26 27  1  0  0  0
 28103  1  0  0  0
 28104  1  0  0  0
 29105  1  0  0  0
 29106  1  0  0  0
 33 34  1  0  0  0
 33 66  1  0  0  0
 33 70  2  0  0  0
 34 36  1  0  0  0
 34 59  1  0  0  0
 34107  1  0  0  0
 35 44  2  0  0  0
 35 45  1  0  0  0
 35 68  1  0  0  0
 36 56  1  0  0  0
 36108  1  0  0  0
 37 39  1  0  0  0
 37 47  1  0  0  0
 37 66  1  0  0  0
 37109  1  0  0  0
 38 43  2  0  0  0
 38 46  1  0  0  0
 38 47  1  0  0  0
 39 64  1  0  0  0
 39 67  2  0  0  0
 40 52  1  0  0  0
 40 53  2  0  0  0
 40 58  1  0  0  0
 41110  1  0  0  0
 41111  1  0  0  0
 41112  1  0  0  0
 41 48  1  0  0  0
 42 43  1  0  0  0
 42 66  1  0  0  0
 42113  1  0  0  0
 42114  1  0  0  0
 43 44  1  0  0  0
 44115  1  0  0  0
 45 46  2  0  0  0
 45116  1  0  0  0
 46117  1  0  0  0
 47118  1  0  0  0
 47119  1  0  0  0
 48 56  1  0  0  0
 48 65  1  0  0  0
 48120  1  0  0  0
 49 50  1  0  0  0
 49 53  1  0  0  0
 49 64  1  0  0  0
 49121  1  0  0  0
 50 51  1  0  0  0
 50122  1  0  0  0
 50123  1  0  0  0
 51 52  1  0  0  0
 51124  1  0  0  0
 51125  1  0  0  0
 52126  1  0  0  0
 52127  1  0  0  0
 53 54  1  0  0  0
 54 55  2  0  0  0
 54128  1  0  0  0
 55 57  1  0  0  0
 55129  1  0  0  0
 56 69  2  0  0  0
 57 58  2  0  0  0
 57130  1  0  0  0
 58131  1  0  0  0
 59 60  1  0  0  0
 59 61  1  0  0  0
 59 62  1  0  0  0
 60132  1  0  0  0
 60133  1  0  0  0
 60134  1  0  0  0
 61135  1  0  0  0
 61136  1  0  0  0
 61137  1  0  0  0
 62138  1  0  0  0
 62139  1  0  0  0
 62140  1  0  0  0
 63 65  1  0  0  0
 63141  1  0  0  0
 63142  1  0  0  0
 63143  1  0  0  0
 64144  1  0  0  0
 65145  1  0  0  0
 68 84  1  0  0  0
 71 73  2  0  0  0
 71 74  1  0  0  0
 71146  1  0  0  0
 72 75  1  0  0  0
 72 76  2  0  0  0
 72147  1  0  0  0
 73 76  1  0  0  0
 73 78  1  0  0  0
 74 75  2  0  0  0
 74 81  1  0  0  0
 75 82  1  0  0  0
 76 86  1  0  0  0
 77 79  2  0  0  0
 77148  1  0  0  0
 77149  1  0  0  0
 78 80  2  0  0  0
 78150  1  0  0  0
 79 83  1  0  0  0
 79151  1  0  0  0
 80 84  1  0  0  0
 80152  1  0  0  0
 81153  1  0  0  0
 81154  1  0  0  0
 81155  1  0  0  0
 82 85  1  0  0  0
 82156  1  0  0  0
 82157  1  0  0  0
 83 86  1  0  0  0
 83158  1  0  0  0
 83159  1  0  0  0
 84160  1  0  0  0
 84161  1  0  0  0
 85162  1  0  0  0
M  ISO  4   1 100  68 101  84 101  85 100
M  END
> <chiral flag>
0

> <version>
0

> <s_m_source_file>
/data/baiqing/PycharmProjects/Reinvent-master-3.2/result/LINK_invent/BTK/process_docking_weight1_custom_product_contain_oxygen_bond_distance_aromatic_linkinvent_7_9_3/rearranged_h_0116.sdf

> <i_m_source_file_index>
61

> <r_mmod_Potential_Energy-OPLS-2005>
37.7375755310059

> <r_mmod_Stretch_Energy-OPLS-2005>
71.0382461547852

> <r_mmod_Bend_Energy-OPLS-2005>
150.959548950195

> <r_mmod_Torsional_Energy-OPLS-2005>
227.470855712891

> <r_mmod_Improper_Torsional_Energy-OPLS-2005>
6.04218435287476

> <r_mmod_Van_der_Waal_Energy-OPLS-2005>
148.882949829102

> <r_mmod_Electrostatic_Energy-OPLS-2005>
-406.119140625

> <r_mmod_Solvation_Energy-OPLS-2005>
-208.198364257812

> <b_mmod_Minimization_Converged-OPLS-2005>
0

> <r_mmod_RMS_Derivative-OPLS-2005>
2.25379300117493

$$$$
61
                    3D
 Structure written by MMmdl.
148156  0  0  1  0            999 V2000
  -30.4896  -15.1229   20.4010 C   0  0  0  0  0  0
  -30.4434  -12.6967   19.5477 C   0  0  0  0  0  0
  -29.5331  -12.5399   18.3044 C   0  0  0  0  0  0
  -28.0711  -12.2849   18.7192 C   0  0  0  0  0  0
  -27.6142  -13.2594   19.8328 C   0  0  2  0  0  0
  -28.6504  -13.3708   20.9677 C   0  0  0  0  0  0
  -25.2352  -13.8239   20.5750 C   0  0  0  0  0  0
  -24.1681  -13.0406   20.9254 C   0  0  0  0  0  0
  -24.6340  -11.6910   20.8738 C   0  0  0  0  0  0
  -23.9018  -10.4270   21.0379 C   0  0  0  0  0  0
  -24.3579   -9.4199   21.9166 C   0  0  0  0  0  0
  -23.6271   -8.2216   22.0739 C   0  0  0  0  0  0
  -22.4248   -8.0246   21.3529 C   0  0  0  0  0  0
  -21.9874   -9.0203   20.4622 C   0  0  0  0  0  0
  -22.7190  -10.2096   20.3025 C   0  0  0  0  0  0
  -21.6840   -6.0714   22.5272 C   0  0  0  0  0  0
  -21.4032   -6.5622   23.8226 C   0  0  0  0  0  0
  -21.3674   -5.6772   24.9177 C   0  0  0  0  0  0
  -21.6037   -4.3034   24.7223 C   0  0  0  0  0  0
  -21.8827   -3.8130   23.4343 C   0  0  0  0  0  0
  -21.9198   -4.6939   22.3408 C   0  0  0  0  0  0
  -22.7707  -13.5158   21.1907 C   0  0  0  0  0  0
  -22.1654   -4.2125   21.0979 F   0  0  0  0  0  0
  -21.5625   -3.4534   25.7744 F   0  0  0  0  0  0
  -29.9125  -13.8335   20.3697 N   0  0  0  0  0  0
  -26.2770  -12.9475   20.3236 N   0  0  0  0  0  0
  -25.9274  -11.6599   20.5749 N   0  0  0  0  0  0
  -22.0374  -12.8157   22.0491 N   0  0  0  0  0  0
  -25.4055  -15.1973   20.4256 N   0  0  0  0  0  0
  -31.7204  -15.1120   20.2412 O   0  0  0  0  0  0
  -21.6623   -6.8829   21.4222 O   0  0  0  0  0  0
  -22.3400  -14.5485   20.6799 O   0  0  0  0  0  0
  -24.6586  -31.8275   23.1724 C   0  0  0  0  0  0
  -25.9267  -32.4601   23.8204 C   0  0  1  0  0  0
  -27.2274  -26.9869   20.2355 C   0  0  0  0  0  0
  -25.5959  -33.8422   24.2115 N   0  0  0  0  0  0
  -23.4770  -30.4367   21.5167 C   0  0  2  0  0  0
  -24.9352  -28.8281   20.1312 C   0  0  0  0  0  0
  -22.7669  -29.4449   22.4754 C   0  0  0  0  0  0
  -18.0314  -28.1456   22.8424 C   0  0  0  0  0  0
  -24.1501  -36.7227   23.2648 C   0  0  0  0  0  0
  -26.0414  -30.6539   21.4019 C   0  0  0  0  0  0
  -26.1132  -29.2429   20.7708 C   0  0  0  0  0  0
  -27.2621  -28.3430   20.7999 C   0  0  0  0  0  0
  -26.0280  -26.7079   19.5454 C   0  0  0  0  0  0
  -24.9133  -27.5782   19.4989 C   0  0  0  0  0  0
  -23.7240  -29.7506   20.1456 C   0  0  0  0  0  0
  -25.4138  -36.2979   24.0300 C   0  0  1  0  0  0
  -20.5956  -28.3781   23.1158 C   0  0  2  0  0  0
  -20.6799  -26.9454   22.5411 C   0  0  0  0  0  0
  -19.5831  -26.6468   21.5164 C   0  0  0  0  0  0
  -18.1964  -26.8002   22.1536 C   0  0  0  0  0  0
  -19.1581  -28.8939   23.2782 C   0  0  0  0  0  0
  -18.9491  -30.1509   23.8847 C   0  0  0  0  0  0
  -17.6479  -30.6610   24.0562 C   0  0  0  0  0  0
  -25.9080  -34.9354   23.5032 C   0  0  0  0  0  0
  -16.5375  -29.9102   23.6346 C   0  0  0  0  0  0
  -16.7296  -28.6543   23.0329 C   0  0  0  0  0  0
  -26.4575  -31.6516   25.0696 C   0  0  0  0  0  0
  -25.3731  -31.3714   26.1355 C   0  0  0  0  0  0
  -27.0478  -30.2905   24.6371 C   0  0  0  0  0  0
  -27.6071  -32.4338   25.7499 C   0  0  0  0  0  0
  -27.5570  -37.1773   24.8465 C   0  0  0  0  0  0
  -21.4340  -29.3039   22.3486 N   0  0  0  0  0  0
  -26.4291  -37.3705   23.9393 N   0  0  0  0  0  0
  -24.7462  -31.0013   22.0839 N   0  0  0  0  0  0
  -23.4197  -28.8022   23.2993 O   0  0  0  0  0  0
  -28.2362  -25.9161   20.1749 O   0  0  0  0  0  0
  -26.5687  -34.8892   22.4621 O   0  0  0  0  0  0
  -23.5662  -32.1221   23.6826 O   0  0  0  0  0  0
  -28.3482  -19.7392   19.3142 C   0  0  0  0  0  0
  -27.9905  -21.1501   19.4276 C   0  0  0  0  0  0
  -29.2699  -19.3217   20.2530 C   0  0  0  0  0  0
  -28.7210  -21.7885   20.4113 C   0  0  0  0  0  0
  -29.9294  -17.8859   20.5303 C   0  0  0  0  0  0
  -28.5702  -23.2428   21.0472 C   0  0  0  0  0  0
  -29.6448  -16.4758   20.2953 C   0  0  0  0  0  0
  -28.3265  -24.6931   21.0351 C   0  0  0  0  0  0
  -25.9603  -22.3508   19.4759 C   0  0  0  0  0  0
  -29.4955  -20.6249   20.9400 O   0  0  0  0  0  0
  -26.9897  -21.7349   18.6955 O   0  0  0  0  0  0
  -31.4759  -12.8650   19.2425 H   0  0  0  0  0  0
  -30.4679  -11.7737   20.1269 H   0  0  0  0  0  0
  -29.8855  -11.7279   17.6687 H   0  0  0  0  0  0
  -29.5843  -13.4543   17.7124 H   0  0  0  0  0  0
  -27.9994  -11.2525   19.0767 H   0  0  0  0  0  0
  -27.4073  -12.3437   17.8568 H   0  0  0  0  0  0
  -27.5439  -14.2384   19.3576 H   0  0  0  0  0  0
  -28.7701  -12.4036   21.4585 H   0  0  0  0  0  0
  -28.3231  -14.0691   21.7366 H   0  0  0  0  0  0
  -25.2692   -9.5704   22.4776 H   0  0  0  0  0  0
  -23.9982   -7.4614   22.7472 H   0  0  0  0  0  0
  -21.0811   -8.8707   19.8924 H   0  0  0  0  0  0
  -22.3619  -10.9634   19.6157 H   0  0  0  0  0  0
  -21.2038   -7.6143   23.9716 H   0  0  0  0  0  0
  -21.1487   -6.0510   25.9087 H   0  0  0  0  0  0
  -22.0600   -2.7586   23.2855 H   0  0  0  0  0  0
  -22.4015  -11.9826   22.4891 H   0  0  0  0  0  0
  -21.1007  -13.1203   22.2732 H   0  0  0  0  0  0
  -24.6508  -15.8588   20.5725 H   0  0  0  0  0  0
  -26.2748  -15.6391   20.1586 H   0  0  0  0  0  0
  -26.7322  -32.5206   23.0923 H   0  0  0  0  0  0
  -25.0093  -33.9514   25.0257 H   0  0  0  0  0  0
  -22.7879  -31.2645   21.3355 H   0  0  0  0  0  0
  -23.3756  -35.9566   23.3298 H   0  0  0  0  0  0
  -24.3565  -36.8891   22.2061 H   0  0  0  0  0  0
  -23.7272  -37.6426   23.6712 H   0  0  0  0  0  0
  -26.2062  -31.3786   20.6041 H   0  0  0  0  0  0
  -26.9067  -30.7225   22.0485 H   0  0  0  0  0  0
  -28.1650  -28.6526   21.3093 H   0  0  0  0  0  0
  -25.9465  -25.7507   19.0513 H   0  0  0  0  0  0
  -24.0230  -27.2527   18.9741 H   0  0  0  0  0  0
  -23.8859  -30.5102   19.3784 H   0  0  0  0  0  0
  -22.8421  -29.1913   19.8312 H   0  0  0  0  0  0
  -25.1333  -36.1783   25.0792 H   0  0  0  0  0  0
  -21.0052  -28.3378   24.1264 H   0  0  0  0  0  0
  -20.5581  -26.2428   23.3650 H   0  0  0  0  0  0
  -21.6681  -26.7395   22.1288 H   0  0  0  0  0  0
  -19.7012  -25.6414   21.1095 H   0  0  0  0  0  0
  -19.6781  -27.3372   20.6760 H   0  0  0  0  0  0
  -17.4259  -26.6760   21.3907 H   0  0  0  0  0  0
  -18.0340  -26.0121   22.8927 H   0  0  0  0  0  0
  -19.7962  -30.7324   24.2219 H   0  0  0  0  0  0
  -17.5025  -31.6261   24.5223 H   0  0  0  0  0  0
  -15.5376  -30.2986   23.7695 H   0  0  0  0  0  0
  -15.8697  -28.0846   22.7103 H   0  0  0  0  0  0
  -24.5923  -30.7052   25.7654 H   0  0  0  0  0  0
  -24.8908  -32.2899   26.4712 H   0  0  0  0  0  0
  -25.7993  -30.8917   27.0170 H   0  0  0  0  0  0
  -26.3130  -29.6568   24.1391 H   0  0  0  0  0  0
  -27.4059  -29.7260   25.4981 H   0  0  0  0  0  0
  -27.9048  -30.4113   23.9747 H   0  0  0  0  0  0
  -27.2616  -33.3659   26.1994 H   0  0  0  0  0  0
  -28.3935  -32.6877   25.0370 H   0  0  0  0  0  0
  -28.0700  -31.8527   26.5489 H   0  0  0  0  0  0
  -28.2577  -38.0078   24.7487 H   0  0  0  0  0  0
  -28.1082  -36.2596   24.6331 H   0  0  0  0  0  0
  -27.2274  -37.1460   25.8868 H   0  0  0  0  0  0
  -20.9594  -29.8704   21.6589 H   0  0  0  0  0  0
  -26.0135  -38.2769   24.1391 H   0  0  0  0  0  0
  -27.9322  -19.0663   18.5762 H   0  0  0  0  0  0
  -30.9110  -18.0157   20.9720 H   0  0  0  0  0  0
  -28.5611  -23.0035   22.1020 H   0  0  0  0  0  0
  -28.6626  -16.2944   19.8802 H   0  0  0  0  0  0
  -28.2038  -25.0799   22.0410 H   0  0  0  0  0  0
  -25.7894  -23.3600   19.1044 H   0  0  0  0  0  0
  -26.1540  -22.4278   20.5496 H   0  0  0  0  0  0
  -25.0329  -21.7899   19.3744 H   0  0  0  0  0  0
  1 25  1  0  0  0
  1 30  2  0  0  0
  1 77  1  0  0  0
  2  3  1  0  0  0
  2 25  1  0  0  0
  2 82  1  0  0  0
  2 83  1  0  0  0
  3  4  1  0  0  0
  3 84  1  0  0  0
  3 85  1  0  0  0
  4  5  1  0  0  0
  4 86  1  0  0  0
  4 87  1  0  0  0
  5  6  1  0  0  0
  5 26  1  0  0  0
  5 88  1  0  0  0
  6 25  1  0  0  0
  6 89  1  0  0  0
  6 90  1  0  0  0
  7  8  2  0  0  0
  7 26  1  0  0  0
  7 29  1  0  0  0
  8  9  1  0  0  0
  8 22  1  0  0  0
  9 10  1  0  0  0
  9 27  2  0  0  0
 10 11  2  0  0  0
 10 15  1  0  0  0
 11 12  1  0  0  0
 11 91  1  0  0  0
 12 13  2  0  0  0
 12 92  1  0  0  0
 13 14  1  0  0  0
 13 31  1  0  0  0
 14 15  2  0  0  0
 14 93  1  0  0  0
 15 94  1  0  0  0
 16 17  2  0  0  0
 16 21  1  0  0  0
 16 31  1  0  0  0
 17 18  1  0  0  0
 17 95  1  0  0  0
 18 19  2  0  0  0
 18 96  1  0  0  0
 19 20  1  0  0  0
 19 24  1  0  0  0
 20 21  2  0  0  0
 20 97  1  0  0  0
 21 23  1  0  0  0
 22 28  1  0  0  0
 22 32  2  0  0  0
 26 27  1  0  0  0
 28 98  1  0  0  0
 28 99  1  0  0  0
 29100  1  0  0  0
 29101  1  0  0  0
 33 34  1  0  0  0
 33 66  1  0  0  0
 33 70  2  0  0  0
 34 36  1  0  0  0
 34 59  1  0  0  0
 34102  1  0  0  0
 35 44  2  0  0  0
 35 45  1  0  0  0
 35 68  1  0  0  0
 36 56  1  0  0  0
 36103  1  0  0  0
 37 39  1  0  0  0
 37 47  1  0  0  0
 37 66  1  0  0  0
 37104  1  0  0  0
 38 43  2  0  0  0
 38 46  1  0  0  0
 38 47  1  0  0  0
 39 64  1  0  0  0
 39 67  2  0  0  0
 40 52  1  0  0  0
 40 53  2  0  0  0
 40 58  1  0  0  0
 41105  1  0  0  0
 41106  1  0  0  0
 41107  1  0  0  0
 41 48  1  0  0  0
 42 43  1  0  0  0
 42 66  1  0  0  0
 42108  1  0  0  0
 42109  1  0  0  0
 43 44  1  0  0  0
 44110  1  0  0  0
 45 46  2  0  0  0
 45111  1  0  0  0
 46112  1  0  0  0
 47113  1  0  0  0
 47114  1  0  0  0
 48 56  1  0  0  0
 48 65  1  0  0  0
 48115  1  0  0  0
 49 50  1  0  0  0
 49 53  1  0  0  0
 49 64  1  0  0  0
 49116  1  0  0  0
 50 51  1  0  0  0
 50117  1  0  0  0
 50118  1  0  0  0
 51 52  1  0  0  0
 51119  1  0  0  0
 51120  1  0  0  0
 52121  1  0  0  0
 52122  1  0  0  0
 53 54  1  0  0  0
 54 55  2  0  0  0
 54123  1  0  0  0
 55 57  1  0  0  0
 55124  1  0  0  0
 56 69  2  0  0  0
 57 58  2  0  0  0
 57125  1  0  0  0
 58126  1  0  0  0
 59 60  1  0  0  0
 59 61  1  0  0  0
 59 62  1  0  0  0
 60127  1  0  0  0
 60128  1  0  0  0
 60129  1  0  0  0
 61130  1  0  0  0
 61131  1  0  0  0
 61132  1  0  0  0
 62133  1  0  0  0
 62134  1  0  0  0
 62135  1  0  0  0
 63 65  1  0  0  0
 63136  1  0  0  0
 63137  1  0  0  0
 63138  1  0  0  0
 64139  1  0  0  0
 65140  1  0  0  0
 68 78  1  0  0  0
 71 72  1  0  0  0
 71 73  2  0  0  0
 71141  1  0  0  0
 72 74  2  0  0  0
 72 81  1  0  0  0
 73 75  1  0  0  0
 73 80  1  0  0  0
 74 76  1  0  0  0
 74 80  1  0  0  0
 75 77  2  0  0  0
 75142  1  0  0  0
 76 78  2  0  0  0
 76143  1  0  0  0
 77144  1  0  0  0
 78145  1  0  0  0
 79 81  1  0  0  0
 79146  1  0  0  0
 79147  1  0  0  0
 79148  1  0  0  0
M  ISO  4   1 100  68 101  77 100  78 101
M  END
> <chiral flag>
0

> <version>
0

> <s_m_source_file>
/data/baiqing/PycharmProjects/Reinvent-master-3.2/result/LINK_invent/BTK/process_docking_weight1_custom_product_contain_oxygen_bond_distance_aromatic_linkinvent_7_9_3/rearranged_h_0116.sdf

> <i_m_source_file_index>
62

> <r_mmod_Potential_Energy-OPLS-2005>
991.156433105469

> <r_mmod_Stretch_Energy-OPLS-2005>
387.118774414062

> <r_mmod_Bend_Energy-OPLS-2005>
422.736267089844

> <r_mmod_Torsional_Energy-OPLS-2005>
252.780700683594

> <r_mmod_Improper_Torsional_Energy-OPLS-2005>
11.4377117156982

> <r_mmod_Van_der_Waal_Energy-OPLS-2005>
112.52921295166

> <r_mmod_Electrostatic_Energy-OPLS-2005>
-332.585784912109

> <r_mmod_Solvation_Energy-OPLS-2005>
-206.311218261719

> <b_mmod_Minimization_Converged-OPLS-2005>
0

> <r_mmod_RMS_Derivative-OPLS-2005>
7.11075162887573

$$$$
62
                    3D
 Structure written by MMmdl.
164173  0  0  1  0            999 V2000
  -30.6871  -14.7469   20.5206 C   0  0  0  0  0  0
  -30.4117  -12.4663   19.4915 C   0  0  0  0  0  0
  -29.5057  -12.4973   18.2422 C   0  0  0  0  0  0
  -28.0389  -12.2941   18.6581 C   0  0  0  0  0  0
  -27.6319  -13.2179   19.8329 C   0  0  2  0  0  0
  -28.6712  -13.2159   20.9852 C   0  0  0  0  0  0
  -25.2425  -13.8079   20.5614 C   0  0  0  0  0  0
  -24.1758  -13.0364   20.9207 C   0  0  0  0  0  0
  -24.6344  -11.6854   20.8727 C   0  0  0  0  0  0
  -23.9020  -10.4239   21.0378 C   0  0  0  0  0  0
  -24.3596   -9.4185   21.9159 C   0  0  0  0  0  0
  -23.6284   -8.2221   22.0743 C   0  0  0  0  0  0
  -22.4269   -8.0244   21.3536 C   0  0  0  0  0  0
  -21.9881   -9.0211   20.4637 C   0  0  0  0  0  0
  -22.7195  -10.2091   20.3041 C   0  0  0  0  0  0
  -21.6851   -6.0714   22.5289 C   0  0  0  0  0  0
  -21.4012   -6.5620   23.8211 C   0  0  0  0  0  0
  -21.3661   -5.6780   24.9174 C   0  0  0  0  0  0
  -21.6047   -4.3038   24.7229 C   0  0  0  0  0  0
  -21.8826   -3.8130   23.4349 C   0  0  0  0  0  0
  -21.9192   -4.6940   22.3401 C   0  0  0  0  0  0
  -22.7777  -13.5153   21.1885 C   0  0  0  0  0  0
  -22.1666   -4.2130   21.0973 F   0  0  0  0  0  0
  -21.5624   -3.4519   25.7735 F   0  0  0  0  0  0
  -29.9851  -13.5538   20.4185 N   0  0  0  0  0  0
  -26.2859  -12.9325   20.3139 N   0  0  0  0  0  0
  -25.9270  -11.6476   20.5706 N   0  0  0  0  0  0
  -22.0457  -12.8177   22.0486 N   0  0  0  0  0  0
  -25.3881  -15.1791   20.3926 N   0  0  0  0  0  0
  -31.8053  -14.8171   19.9978 O   0  0  0  0  0  0
  -21.6638   -6.8850   21.4246 O   0  0  0  0  0  0
  -22.3459  -14.5469   20.6713 O   0  0  0  0  0  0
  -24.6312  -31.8547   23.1976 C   0  0  0  0  0  0
  -25.9125  -32.4760   23.8335 C   0  0  1  0  0  0
  -27.2205  -27.2530   20.1384 C   0  0  0  0  0  0
  -25.5919  -33.8561   24.2268 N   0  0  0  0  0  0
  -23.4304  -30.4779   21.5417 C   0  0  2  0  0  0
  -24.8752  -28.9196   20.1092 C   0  0  0  0  0  0
  -22.7512  -29.4615   22.4907 C   0  0  0  0  0  0
  -18.0295  -28.1421   22.8468 C   0  0  0  0  0  0
  -24.1482  -36.7293   23.2644 C   0  0  0  0  0  0
  -25.9743  -30.7672   21.3726 C   0  0  0  0  0  0
  -26.0469  -29.3871   20.7180 C   0  0  0  0  0  0
  -27.2219  -28.5680   20.7165 C   0  0  0  0  0  0
  -26.0252  -26.8501   19.5035 C   0  0  0  0  0  0
  -24.8708  -27.6606   19.4875 C   0  0  0  0  0  0
  -23.6455  -29.8094   20.1589 C   0  0  0  0  0  0
  -25.4108  -36.3086   24.0335 C   0  0  1  0  0  0
  -20.5903  -28.3727   23.1259 C   0  0  2  0  0  0
  -20.6790  -26.9442   22.5408 C   0  0  0  0  0  0
  -19.5766  -26.6398   21.5216 C   0  0  0  0  0  0
  -18.1944  -26.7959   22.1619 C   0  0  0  0  0  0
  -19.1549  -28.8890   23.2860 C   0  0  0  0  0  0
  -18.9471  -30.1492   23.8881 C   0  0  0  0  0  0
  -17.6466  -30.6609   24.0579 C   0  0  0  0  0  0
  -25.9040  -34.9455   23.5106 C   0  0  0  0  0  0
  -16.5358  -29.9108   23.6337 C   0  0  0  0  0  0
  -16.7283  -28.6539   23.0332 C   0  0  0  0  0  0
  -26.4500  -31.6582   25.0721 C   0  0  0  0  0  0
  -25.3734  -31.3714   26.1457 C   0  0  0  0  0  0
  -27.0330  -30.3011   24.6179 C   0  0  0  0  0  0
  -27.6058  -32.4334   25.7476 C   0  0  0  0  0  0
  -27.5579  -37.1797   24.8471 C   0  0  0  0  0  0
  -21.4225  -29.3063   22.3639 N   0  0  0  0  0  0
  -26.4292  -37.3781   23.9415 N   0  0  0  0  0  0
  -24.6993  -31.0511   22.0948 N   0  0  0  0  0  0
  -23.4186  -28.8177   23.3040 O   0  0  0  0  0  0
  -28.3183  -26.3614   20.2087 O   0  0  0  0  0  0
  -26.5635  -34.8919   22.4683 O   0  0  0  0  0  0
  -23.5460  -32.1367   23.7272 O   0  0  0  0  0  0
  -30.0997  -18.4786   20.8615 C   0  0  0  0  0  0
  -27.9990  -19.4360   20.0802 C   0  0  0  0  0  0
  -28.2707  -17.0053   20.3090 C   0  0  0  0  0  0
  -29.3110  -19.6684   20.5306 C   0  0  0  0  0  0
  -29.5915  -17.1072   20.7793 C   0  0  0  0  0  0
  -27.4906  -18.1312   19.9668 C   0  0  0  0  0  0
  -28.4920  -22.3066   22.3008 C   0  0  0  0  0  0
  -28.6758  -23.6235   23.0417 C   0  0  0  0  0  0
  -29.6441  -24.3690   22.1277 C   0  0  0  0  0  0
  -29.2530  -23.8593   20.7343 C   0  0  2  0  0  0
  -30.5216  -16.9634   23.5768 C   0  0  0  0  0  0
  -29.8095  -21.1902   20.5508 C   0  0  0  0  0  0
  -28.0818  -24.8687   20.2156 C   0  0  0  0  0  0
  -30.8941  -15.8333   22.6008 C   0  0  0  0  0  0
  -28.9479  -22.3756   21.0321 N   0  0  0  0  0  0
  -30.2315  -15.8377   21.2743 N   0  0  0  0  0  0
  -28.1034  -21.2910   22.8836 O   0  0  0  0  0  0
  -26.2235  -17.9552   19.5226 F   0  0  0  0  0  0
  -31.4589  -12.5465   19.1995 H   0  0  0  0  0  0
  -30.3276  -11.4963   19.9905 H   0  0  0  0  0  0
  -29.8052  -11.7161   17.5437 H   0  0  0  0  0  0
  -29.6247  -13.4449   17.7163 H   0  0  0  0  0  0
  -27.9161  -11.2477   18.9474 H   0  0  0  0  0  0
  -27.3802  -12.4490   17.8005 H   0  0  0  0  0  0
  -27.6055  -14.2072   19.3875 H   0  0  0  0  0  0
  -28.7057  -12.2371   21.4686 H   0  0  0  0  0  0
  -28.3817  -13.9322   21.7564 H   0  0  0  0  0  0
  -25.2751   -9.5684   22.4721 H   0  0  0  0  0  0
  -24.0007   -7.4612   22.7458 H   0  0  0  0  0  0
  -21.0807   -8.8705   19.8944 H   0  0  0  0  0  0
  -22.3630  -10.9624   19.6150 H   0  0  0  0  0  0
  -21.2016   -7.6126   23.9717 H   0  0  0  0  0  0
  -21.1480   -6.0492   25.9068 H   0  0  0  0  0  0
  -22.0613   -2.7591   23.2846 H   0  0  0  0  0  0
  -22.4094  -11.9879   22.4919 H   0  0  0  0  0  0
  -21.1082  -13.1210   22.2694 H   0  0  0  0  0  0
  -24.5917  -15.8016   20.4866 H   0  0  0  0  0  0
  -26.1735  -15.6347   19.9532 H   0  0  0  0  0  0
  -26.7198  -32.5413   23.1079 H   0  0  0  0  0  0
  -25.0039  -33.9703   25.0402 H   0  0  0  0  0  0
  -22.7273  -31.3006   21.3959 H   0  0  0  0  0  0
  -23.3749  -35.9622   23.3312 H   0  0  0  0  0  0
  -24.3573  -36.8904   22.2059 H   0  0  0  0  0  0
  -23.7225  -37.6490   23.6657 H   0  0  0  0  0  0
  -26.1037  -31.5249   20.5986 H   0  0  0  0  0  0
  -26.8558  -30.8263   22.0001 H   0  0  0  0  0  0
  -28.1206  -28.9199   21.2011 H   0  0  0  0  0  0
  -25.9520  -25.8867   19.0210 H   0  0  0  0  0  0
  -23.9734  -27.2995   19.0027 H   0  0  0  0  0  0
  -23.7645  -30.5841   19.4003 H   0  0  0  0  0  0
  -22.7625  -29.2412   19.8593 H   0  0  0  0  0  0
  -25.1286  -36.1949   25.0831 H   0  0  0  0  0  0
  -20.9991  -28.3327   24.1383 H   0  0  0  0  0  0
  -20.5704  -26.2347   23.3623 H   0  0  0  0  0  0
  -21.6656  -26.7478   22.1201 H   0  0  0  0  0  0
  -19.6929  -25.6304   21.1264 H   0  0  0  0  0  0
  -19.6713  -27.3194   20.6737 H   0  0  0  0  0  0
  -17.4216  -26.6702   21.4024 H   0  0  0  0  0  0
  -18.0344  -26.0121   22.9034 H   0  0  0  0  0  0
  -19.7952  -30.7324   24.2229 H   0  0  0  0  0  0
  -17.5026  -31.6278   24.5206 H   0  0  0  0  0  0
  -15.5367  -30.3008   23.7683 H   0  0  0  0  0  0
  -15.8686  -28.0879   22.7019 H   0  0  0  0  0  0
  -24.5916  -30.7052   25.7794 H   0  0  0  0  0  0
  -24.8906  -32.2861   26.4913 H   0  0  0  0  0  0
  -25.8071  -30.8882   27.0224 H   0  0  0  0  0  0
  -26.2890  -29.6772   24.1220 H   0  0  0  0  0  0
  -27.4039  -29.7276   25.4679 H   0  0  0  0  0  0
  -27.8757  -30.4309   23.9392 H   0  0  0  0  0  0
  -27.2681  -33.3650   26.2037 H   0  0  0  0  0  0
  -28.3852  -32.6880   25.0282 H   0  0  0  0  0  0
  -28.0745  -31.8476   26.5393 H   0  0  0  0  0  0
  -28.2614  -38.0080   24.7507 H   0  0  0  0  0  0
  -28.1059  -36.2611   24.6311 H   0  0  0  0  0  0
  -27.2300  -37.1466   25.8877 H   0  0  0  0  0  0
  -20.9428  -29.8734   21.6792 H   0  0  0  0  0  0
  -26.0181  -38.2859   24.1416 H   0  0  0  0  0  0
  -31.1168  -18.6236   21.1972 H   0  0  0  0  0  0
  -27.3722  -20.2715   19.7978 H   0  0  0  0  0  0
  -27.8171  -16.0377   20.2661 H   0  0  0  0  0  0
  -29.0788  -23.4859   24.0457 H   0  0  0  0  0  0
  -27.7148  -24.1330   23.1170 H   0  0  0  0  0  0
  -30.6739  -24.0873   22.3617 H   0  0  0  0  0  0
  -29.5720  -25.4505   22.2356 H   0  0  0  0  0  0
  -30.1027  -23.9253   20.0528 H   0  0  0  0  0  0
  -29.4504  -17.1453   23.6178 H   0  0  0  0  0  0
  -31.0113  -17.8979   23.3199 H   0  0  0  0  0  0
  -30.8514  -16.7090   24.5864 H   0  0  0  0  0  0
  -30.1017  -21.4274   19.5284 H   0  0  0  0  0  0
  -30.7435  -21.2259   21.1125 H   0  0  0  0  0  0
  -27.1956  -24.6859   20.8243 H   0  0  0  0  0  0
  -27.7899  -24.5537   19.2126 H   0  0  0  0  0  0
  -31.9790  -15.8007   22.4928 H   0  0  0  0  0  0
  -30.6320  -14.8872   23.0810 H   0  0  0  0  0  0
  1 25  1  0  0  0
  1 30  2  0  0  0
  1 86  1  0  0  0
  2  3  1  0  0  0
  2 25  1  0  0  0
  2 89  1  0  0  0
  2 90  1  0  0  0
  3  4  1  0  0  0
  3 91  1  0  0  0
  3 92  1  0  0  0
  4  5  1  0  0  0
  4 93  1  0  0  0
  4 94  1  0  0  0
  5  6  1  0  0  0
  5 26  1  0  0  0
  5 95  1  0  0  0
  6 25  1  0  0  0
  6 96  1  0  0  0
  6 97  1  0  0  0
  7  8  2  0  0  0
  7 26  1  0  0  0
  7 29  1  0  0  0
  8  9  1  0  0  0
  8 22  1  0  0  0
  9 10  1  0  0  0
  9 27  2  0  0  0
 10 11  2  0  0  0
 10 15  1  0  0  0
 11 12  1  0  0  0
 11 98  1  0  0  0
 12 13  2  0  0  0
 12 99  1  0  0  0
 13 14  1  0  0  0
 13 31  1  0  0  0
 14 15  2  0  0  0
 14100  1  0  0  0
 15101  1  0  0  0
 16 17  2  0  0  0
 16 21  1  0  0  0
 16 31  1  0  0  0
 17 18  1  0  0  0
 17102  1  0  0  0
 18 19  2  0  0  0
 18103  1  0  0  0
 19 20  1  0  0  0
 19 24  1  0  0  0
 20 21  2  0  0  0
 20104  1  0  0  0
 21 23  1  0  0  0
 22 28  1  0  0  0
 22 32  2  0  0  0
 26 27  1  0  0  0
 28105  1  0  0  0
 28106  1  0  0  0
 29107  1  0  0  0
 29108  1  0  0  0
 33 34  1  0  0  0
 33 66  1  0  0  0
 33 70  2  0  0  0
 34 36  1  0  0  0
 34 59  1  0  0  0
 34109  1  0  0  0
 35 44  2  0  0  0
 35 45  1  0  0  0
 35 68  1  0  0  0
 36 56  1  0  0  0
 36110  1  0  0  0
 37 39  1  0  0  0
 37 47  1  0  0  0
 37 66  1  0  0  0
 37111  1  0  0  0
 38 43  2  0  0  0
 38 46  1  0  0  0
 38 47  1  0  0  0
 39 64  1  0  0  0
 39 67  2  0  0  0
 40 52  1  0  0  0
 40 53  2  0  0  0
 40 58  1  0  0  0
 41112  1  0  0  0
 41113  1  0  0  0
 41114  1  0  0  0
 41 48  1  0  0  0
 42 43  1  0  0  0
 42 66  1  0  0  0
 42115  1  0  0  0
 42116  1  0  0  0
 43 44  1  0  0  0
 44117  1  0  0  0
 45 46  2  0  0  0
 45118  1  0  0  0
 46119  1  0  0  0
 47120  1  0  0  0
 47121  1  0  0  0
 48 56  1  0  0  0
 48 65  1  0  0  0
 48122  1  0  0  0
 49 50  1  0  0  0
 49 53  1  0  0  0
 49 64  1  0  0  0
 49123  1  0  0  0
 50 51  1  0  0  0
 50124  1  0  0  0
 50125  1  0  0  0
 51 52  1  0  0  0
 51126  1  0  0  0
 51127  1  0  0  0
 52128  1  0  0  0
 52129  1  0  0  0
 53 54  1  0  0  0
 54 55  2  0  0  0
 54130  1  0  0  0
 55 57  1  0  0  0
 55131  1  0  0  0
 56 69  2  0  0  0
 57 58  2  0  0  0
 57132  1  0  0  0
 58133  1  0  0  0
 59 60  1  0  0  0
 59 61  1  0  0  0
 59 62  1  0  0  0
 60134  1  0  0  0
 60135  1  0  0  0
 60136  1  0  0  0
 61137  1  0  0  0
 61138  1  0  0  0
 61139  1  0  0  0
 62140  1  0  0  0
 62141  1  0  0  0
 62142  1  0  0  0
 63 65  1  0  0  0
 63143  1  0  0  0
 63144  1  0  0  0
 63145  1  0  0  0
 64146  1  0  0  0
 65147  1  0  0  0
 68 83  1  0  0  0
 71 74  2  0  0  0
 71 75  1  0  0  0
 71148  1  0  0  0
 72 74  1  0  0  0
 72 76  2  0  0  0
 72149  1  0  0  0
 73 75  2  0  0  0
 73 76  1  0  0  0
 73150  1  0  0  0
 74 82  1  0  0  0
 75 86  1  0  0  0
 76 88  1  0  0  0
 77 78  1  0  0  0
 77 85  1  0  0  0
 77 87  2  0  0  0
 78 79  1  0  0  0
 78151  1  0  0  0
 78152  1  0  0  0
 79 80  1  0  0  0
 79153  1  0  0  0
 79154  1  0  0  0
 80 83  1  0  0  0
 80 85  1  0  0  0
 80155  1  0  0  0
 81 84  1  0  0  0
 81156  1  0  0  0
 81157  1  0  0  0
 81158  1  0  0  0
 82 85  1  0  0  0
 82159  1  0  0  0
 82160  1  0  0  0
 83161  1  0  0  0
 83162  1  0  0  0
 84 86  1  0  0  0
 84163  1  0  0  0
 84164  1  0  0  0
M  ISO  4   1 100  68 101  83 101  86 100
M  END
> <chiral flag>
0

> <version>
0

> <s_m_source_file>
/data/baiqing/PycharmProjects/Reinvent-master-3.2/result/LINK_invent/BTK/process_docking_weight1_custom_product_contain_oxygen_bond_distance_aromatic_linkinvent_7_9_3/rearranged_h_0116.sdf

> <i_m_source_file_index>
63

> <r_mmod_Potential_Energy-OPLS-2005>
471.979705810547

> <r_mmod_Stretch_Energy-OPLS-2005>
152.085296630859

> <r_mmod_Bend_Energy-OPLS-2005>
230.760009765625

> <r_mmod_Torsional_Energy-OPLS-2005>
345.762115478516

> <r_mmod_Improper_Torsional_Energy-OPLS-2005>
9.0819149017334

> <r_mmod_Van_der_Waal_Energy-OPLS-2005>
134.271148681641

> <r_mmod_Electrostatic_Energy-OPLS-2005>
-287.924133300781

> <r_mmod_Solvation_Energy-OPLS-2005>
-201.839462280273

> <b_mmod_Minimization_Converged-OPLS-2005>
0

> <r_mmod_RMS_Derivative-OPLS-2005>
4.58126544952393

$$$$
63
                    3D
 Structure written by MMmdl.
156164  0  0  1  0            999 V2000
  -30.5705  -14.7782   20.4797 C   0  0  0  0  0  0
  -30.4419  -12.4803   19.4764 C   0  0  0  0  0  0
  -29.5108  -12.5195   18.2409 C   0  0  0  0  0  0
  -28.0371  -12.3203   18.6475 C   0  0  0  0  0  0
  -27.6433  -13.2015   19.8592 C   0  0  2  0  0  0
  -28.6906  -13.0871   20.9897 C   0  0  0  0  0  0
  -25.2553  -13.8104   20.5722 C   0  0  0  0  0  0
  -24.1781  -13.0395   20.9138 C   0  0  0  0  0  0
  -24.6336  -11.6867   20.8713 C   0  0  0  0  0  0
  -23.9003  -10.4272   21.0397 C   0  0  0  0  0  0
  -24.3565   -9.4206   21.9186 C   0  0  0  0  0  0
  -23.6258   -8.2240   22.0765 C   0  0  0  0  0  0
  -22.4250   -8.0261   21.3542 C   0  0  0  0  0  0
  -21.9859   -9.0224   20.4650 C   0  0  0  0  0  0
  -22.7168  -10.2114   20.3060 C   0  0  0  0  0  0
  -21.6848   -6.0723   22.5281 C   0  0  0  0  0  0
  -21.4011   -6.5626   23.8212 C   0  0  0  0  0  0
  -21.3663   -5.6780   24.9172 C   0  0  0  0  0  0
  -21.6048   -4.3044   24.7228 C   0  0  0  0  0  0
  -21.8813   -3.8135   23.4353 C   0  0  0  0  0  0
  -21.9190   -4.6952   22.3404 C   0  0  0  0  0  0
  -22.7827  -13.5228   21.1803 C   0  0  0  0  0  0
  -22.1659   -4.2138   21.0983 F   0  0  0  0  0  0
  -21.5635   -3.4527   25.7743 F   0  0  0  0  0  0
  -29.9786  -13.5219   20.4291 N   0  0  0  0  0  0
  -26.2930  -12.9235   20.3334 N   0  0  0  0  0  0
  -25.9257  -11.6411   20.5763 N   0  0  0  0  0  0
  -22.0467  -12.8249   22.0378 N   0  0  0  0  0  0
  -25.4401  -15.1810   20.4311 N   0  0  0  0  0  0
  -31.7462  -14.8759   20.1051 O   0  0  0  0  0  0
  -21.6626   -6.8855   21.4241 O   0  0  0  0  0  0
  -22.3525  -14.5539   20.6664 O   0  0  0  0  0  0
  -24.6338  -31.8521   23.1945 C   0  0  0  0  0  0
  -25.9143  -32.4733   23.8320 C   0  0  1  0  0  0
  -27.2369  -27.2631   20.1257 C   0  0  0  0  0  0
  -25.5921  -33.8539   24.2249 N   0  0  0  0  0  0
  -23.4328  -30.4709   21.5370 C   0  0  2  0  0  0
  -24.8837  -28.9155   20.1035 C   0  0  0  0  0  0
  -22.7518  -29.4577   22.4896 C   0  0  0  0  0  0
  -18.0294  -28.1401   22.8492 C   0  0  0  0  0  0
  -24.1480  -36.7293   23.2639 C   0  0  0  0  0  0
  -25.9762  -30.7664   21.3715 C   0  0  0  0  0  0
  -26.0508  -29.3874   20.7157 C   0  0  0  0  0  0
  -27.2256  -28.5720   20.7164 C   0  0  0  0  0  0
  -26.0443  -26.8492   19.4922 C   0  0  0  0  0  0
  -24.8869  -27.6559   19.4784 C   0  0  0  0  0  0
  -23.6518  -29.7993   20.1535 C   0  0  0  0  0  0
  -25.4104  -36.3069   24.0328 C   0  0  1  0  0  0
  -20.5897  -28.3714   23.1265 C   0  0  2  0  0  0
  -20.6778  -26.9428   22.5412 C   0  0  0  0  0  0
  -19.5747  -26.6395   21.5221 C   0  0  0  0  0  0
  -18.1929  -26.7944   22.1633 C   0  0  0  0  0  0
  -19.1548  -28.8877   23.2873 C   0  0  0  0  0  0
  -18.9465  -30.1472   23.8900 C   0  0  0  0  0  0
  -17.6462  -30.6596   24.0575 C   0  0  0  0  0  0
  -25.9047  -34.9435   23.5098 C   0  0  0  0  0  0
  -16.5356  -29.9100   23.6324 C   0  0  0  0  0  0
  -16.7280  -28.6517   23.0354 C   0  0  0  0  0  0
  -26.4502  -31.6557   25.0716 C   0  0  0  0  0  0
  -25.3727  -31.3738   26.1451 C   0  0  0  0  0  0
  -27.0319  -30.2959   24.6205 C   0  0  0  0  0  0
  -27.6071  -32.4287   25.7481 C   0  0  0  0  0  0
  -27.5583  -37.1794   24.8457 C   0  0  0  0  0  0
  -21.4223  -29.3051   22.3644 N   0  0  0  0  0  0
  -26.4281  -37.3771   23.9415 N   0  0  0  0  0  0
  -24.6999  -31.0484   22.0913 N   0  0  0  0  0  0
  -23.4207  -28.8137   23.3015 O   0  0  0  0  0  0
  -28.3436  -26.3899   20.2405 O   0  0  0  0  0  0
  -26.5644  -34.8916   22.4681 O   0  0  0  0  0  0
  -23.5480  -32.1344   23.7226 O   0  0  0  0  0  0
  -31.0477  -20.3802   20.8964 C   0  0  0  0  0  0
  -29.3527  -18.7202   20.4678 C   0  0  0  0  0  0
  -31.9588  -19.3485   21.2367 C   0  0  0  0  0  0
  -30.2354  -17.5967   20.7854 C   0  0  0  0  0  0
  -31.5473  -17.9786   21.2155 C   0  0  0  0  0  0
  -29.7170  -20.1233   20.5249 C   0  0  0  0  0  0
  -33.8005  -20.9572   21.9341 C   0  0  0  0  0  0
  -33.3322  -19.7220   21.6729 C   0  0  0  0  0  0
  -28.8626  -23.9135   20.3233 C   0  0  0  0  0  0
  -28.4051  -25.0703   19.7019 C   0  0  0  0  0  0
  -29.6891  -16.1157   20.8219 C   0  0  0  0  0  0
  -29.1779  -22.4926   19.6700 C   0  0  0  0  0  0
  -28.4563  -16.0336   21.1139 N   0  0  0  0  0  0
  -32.4474  -17.0254   21.7045 N   0  0  0  0  0  0
  -28.8040  -21.2087   20.3414 O   0  0  0  0  0  0
  -31.4771  -12.6284   19.1666 H   0  0  0  0  0  0
  -30.4177  -11.4958   19.9465 H   0  0  0  0  0  0
  -29.8081  -11.7582   17.5183 H   0  0  0  0  0  0
  -29.6170  -13.4795   17.7340 H   0  0  0  0  0  0
  -27.8991  -11.2671   18.8965 H   0  0  0  0  0  0
  -27.3793  -12.5248   17.8016 H   0  0  0  0  0  0
  -27.6407  -14.2217   19.4795 H   0  0  0  0  0  0
  -28.7567  -12.0570   21.3443 H   0  0  0  0  0  0
  -28.4112  -13.6608   21.8711 H   0  0  0  0  0  0
  -25.2705   -9.5698   22.4761 H   0  0  0  0  0  0
  -23.9973   -7.4635   22.7485 H   0  0  0  0  0  0
  -21.0801   -8.8717   19.8948 H   0  0  0  0  0  0
  -22.3608  -10.9649   19.6177 H   0  0  0  0  0  0
  -21.2001   -7.6132   23.9709 H   0  0  0  0  0  0
  -21.1497   -6.0520   25.9078 H   0  0  0  0  0  0
  -22.0591   -2.7601   23.2862 H   0  0  0  0  0  0
  -22.4073  -11.9916   22.4773 H   0  0  0  0  0  0
  -21.1108  -13.1346   22.2584 H   0  0  0  0  0  0
  -24.7263  -15.8521   20.6914 H   0  0  0  0  0  0
  -26.3786  -15.5747   20.4169 H   0  0  0  0  0  0
  -26.7233  -32.5390   23.1083 H   0  0  0  0  0  0
  -25.0016  -33.9652   25.0362 H   0  0  0  0  0  0
  -22.7314  -31.2932   21.3850 H   0  0  0  0  0  0
  -23.3744  -35.9619   23.3260 H   0  0  0  0  0  0
  -24.3587  -36.8959   22.2062 H   0  0  0  0  0  0
  -23.7214  -37.6475   23.6690 H   0  0  0  0  0  0
  -26.1085  -31.5243   20.5976 H   0  0  0  0  0  0
  -26.8576  -30.8244   21.9995 H   0  0  0  0  0  0
  -28.1193  -28.9243   21.2119 H   0  0  0  0  0  0
  -25.9830  -25.8719   19.0355 H   0  0  0  0  0  0
  -23.9934  -27.2875   18.9935 H   0  0  0  0  0  0
  -23.7742  -30.5726   19.3942 H   0  0  0  0  0  0
  -22.7728  -29.2273   19.8513 H   0  0  0  0  0  0
  -25.1279  -36.1917   25.0822 H   0  0  0  0  0  0
  -20.9995  -28.3304   24.1383 H   0  0  0  0  0  0
  -20.5675  -26.2332   23.3627 H   0  0  0  0  0  0
  -21.6641  -26.7446   22.1199 H   0  0  0  0  0  0
  -19.6900  -25.6305   21.1260 H   0  0  0  0  0  0
  -19.6675  -27.3207   20.6754 H   0  0  0  0  0  0
  -17.4190  -26.6701   21.4039 H   0  0  0  0  0  0
  -18.0323  -26.0090   22.9036 H   0  0  0  0  0  0
  -19.7932  -30.7299   24.2271 H   0  0  0  0  0  0
  -17.5005  -31.6270   24.5191 H   0  0  0  0  0  0
  -15.5357  -30.3012   23.7624 H   0  0  0  0  0  0
  -15.8679  -28.0839   22.7067 H   0  0  0  0  0  0
  -24.5823  -30.7186   25.7773 H   0  0  0  0  0  0
  -24.9019  -32.2930   26.4950 H   0  0  0  0  0  0
  -25.8021  -30.8825   27.0187 H   0  0  0  0  0  0
  -26.2893  -29.6720   24.1219 H   0  0  0  0  0  0
  -27.3971  -29.7213   25.4725 H   0  0  0  0  0  0
  -27.8790  -30.4208   23.9455 H   0  0  0  0  0  0
  -27.2693  -33.3587   26.2065 H   0  0  0  0  0  0
  -28.3872  -32.6841   25.0299 H   0  0  0  0  0  0
  -28.0747  -31.8403   26.5383 H   0  0  0  0  0  0
  -28.2575  -38.0116   24.7531 H   0  0  0  0  0  0
  -28.1103  -36.2649   24.6234 H   0  0  0  0  0  0
  -27.2317  -37.1386   25.8864 H   0  0  0  0  0  0
  -20.9425  -29.8775   21.6839 H   0  0  0  0  0  0
  -26.0159  -38.2841   24.1436 H   0  0  0  0  0  0
  -31.3574  -21.4086   20.9748 H   0  0  0  0  0  0
  -28.3319  -18.5005   20.1894 H   0  0  0  0  0  0
  -34.8312  -21.0848   22.2339 H   0  0  0  0  0  0
  -33.2061  -21.8558   21.8678 H   0  0  0  0  0  0
  -34.0500  -18.9233   21.7808 H   0  0  0  0  0  0
  -29.1195  -23.9789   21.3709 H   0  0  0  0  0  0
  -28.1200  -25.0672   18.6585 H   0  0  0  0  0  0
  -30.2410  -22.4866   19.4335 H   0  0  0  0  0  0
  -28.6927  -22.4807   18.6938 H   0  0  0  0  0  0
  -28.0779  -16.9526   21.3065 H   0  0  0  0  0  0
  -32.4463  -16.1266   21.2177 H   0  0  0  0  0  0
  -33.3917  -17.3390   21.8945 H   0  0  0  0  0  0
  1 25  1  0  0  0
  1 30  2  0  0  0
  1 81  1  0  0  0
  2  3  1  0  0  0
  2 25  1  0  0  0
  2 86  1  0  0  0
  2 87  1  0  0  0
  3  4  1  0  0  0
  3 88  1  0  0  0
  3 89  1  0  0  0
  4  5  1  0  0  0
  4 90  1  0  0  0
  4 91  1  0  0  0
  5  6  1  0  0  0
  5 26  1  0  0  0
  5 92  1  0  0  0
  6 25  1  0  0  0
  6 93  1  0  0  0
  6 94  1  0  0  0
  7  8  2  0  0  0
  7 26  1  0  0  0
  7 29  1  0  0  0
  8  9  1  0  0  0
  8 22  1  0  0  0
  9 10  1  0  0  0
  9 27  2  0  0  0
 10 11  2  0  0  0
 10 15  1  0  0  0
 11 12  1  0  0  0
 11 95  1  0  0  0
 12 13  2  0  0  0
 12 96  1  0  0  0
 13 14  1  0  0  0
 13 31  1  0  0  0
 14 15  2  0  0  0
 14 97  1  0  0  0
 15 98  1  0  0  0
 16 17  2  0  0  0
 16 21  1  0  0  0
 16 31  1  0  0  0
 17 18  1  0  0  0
 17 99  1  0  0  0
 18 19  2  0  0  0
 18100  1  0  0  0
 19 20  1  0  0  0
 19 24  1  0  0  0
 20 21  2  0  0  0
 20101  1  0  0  0
 21 23  1  0  0  0
 22 28  1  0  0  0
 22 32  2  0  0  0
 26 27  1  0  0  0
 28102  1  0  0  0
 28103  1  0  0  0
 29104  1  0  0  0
 29105  1  0  0  0
 33 34  1  0  0  0
 33 66  1  0  0  0
 33 70  2  0  0  0
 34 36  1  0  0  0
 34 59  1  0  0  0
 34106  1  0  0  0
 35 44  2  0  0  0
 35 45  1  0  0  0
 35 68  1  0  0  0
 36 56  1  0  0  0
 36107  1  0  0  0
 37 39  1  0  0  0
 37 47  1  0  0  0
 37 66  1  0  0  0
 37108  1  0  0  0
 38 43  2  0  0  0
 38 46  1  0  0  0
 38 47  1  0  0  0
 39 64  1  0  0  0
 39 67  2  0  0  0
 40 52  1  0  0  0
 40 53  2  0  0  0
 40 58  1  0  0  0
 41109  1  0  0  0
 41110  1  0  0  0
 41111  1  0  0  0
 41 48  1  0  0  0
 42 43  1  0  0  0
 42 66  1  0  0  0
 42112  1  0  0  0
 42113  1  0  0  0
 43 44  1  0  0  0
 44114  1  0  0  0
 45 46  2  0  0  0
 45115  1  0  0  0
 46116  1  0  0  0
 47117  1  0  0  0
 47118  1  0  0  0
 48 56  1  0  0  0
 48 65  1  0  0  0
 48119  1  0  0  0
 49 50  1  0  0  0
 49 53  1  0  0  0
 49 64  1  0  0  0
 49120  1  0  0  0
 50 51  1  0  0  0
 50121  1  0  0  0
 50122  1  0  0  0
 51 52  1  0  0  0
 51123  1  0  0  0
 51124  1  0  0  0
 52125  1  0  0  0
 52126  1  0  0  0
 53 54  1  0  0  0
 54 55  2  0  0  0
 54127  1  0  0  0
 55 57  1  0  0  0
 55128  1  0  0  0
 56 69  2  0  0  0
 57 58  2  0  0  0
 57129  1  0  0  0
 58130  1  0  0  0
 59 60  1  0  0  0
 59 61  1  0  0  0
 59 62  1  0  0  0
 60131  1  0  0  0
 60132  1  0  0  0
 60133  1  0  0  0
 61134  1  0  0  0
 61135  1  0  0  0
 61136  1  0  0  0
 62137  1  0  0  0
 62138  1  0  0  0
 62139  1  0  0  0
 63 65  1  0  0  0
 63140  1  0  0  0
 63141  1  0  0  0
 63142  1  0  0  0
 64143  1  0  0  0
 65144  1  0  0  0
 68 80  1  0  0  0
 71 73  2  0  0  0
 71 76  1  0  0  0
 71145  1  0  0  0
 72 74  1  0  0  0
 72 76  2  0  0  0
 72146  1  0  0  0
 73 75  1  0  0  0
 73 78  1  0  0  0
 74 75  2  0  0  0
 74 81  1  0  0  0
 75 84  1  0  0  0
 76 85  1  0  0  0
 77 78  2  0  0  0
 77147  1  0  0  0
 77148  1  0  0  0
 78149  1  0  0  0
 79 80  2  0  0  0
 79 82  1  0  0  0
 79150  1  0  0  0
 80151  1  0  0  0
 81 83  2  0  0  0
 82 85  1  0  0  0
 82152  1  0  0  0
 82153  1  0  0  0
 83154  1  0  0  0
 84155  1  0  0  0
 84156  1  0  0  0
M  ISO  4   1 100  68 101  80 101  81 100
M  END
> <chiral flag>
0

> <version>
0

> <s_m_source_file>
/data/baiqing/PycharmProjects/Reinvent-master-3.2/result/LINK_invent/BTK/process_docking_weight1_custom_product_contain_oxygen_bond_distance_aromatic_linkinvent_7_9_3/rearranged_h_0116.sdf

> <i_m_source_file_index>
64

> <r_mmod_Potential_Energy-OPLS-2005>
371.695129394531

> <r_mmod_Stretch_Energy-OPLS-2005>
149.313629150391

> <r_mmod_Bend_Energy-OPLS-2005>
187.725677490234

> <r_mmod_Torsional_Energy-OPLS-2005>
211.035400390625

> <r_mmod_Improper_Torsional_Energy-OPLS-2005>
12.5626525878906

> <r_mmod_Van_der_Waal_Energy-OPLS-2005>
176.325637817383

> <r_mmod_Electrostatic_Energy-OPLS-2005>
-260.54541015625

> <r_mmod_Solvation_Energy-OPLS-2005>
-194.135162353516

> <b_mmod_Minimization_Converged-OPLS-2005>
0

> <r_mmod_RMS_Derivative-OPLS-2005>
1.9485570192337

$$$$
64
                    3D
 Structure written by MMmdl.
162171  0  0  1  0            999 V2000
  -30.6069  -14.7249   20.4652 C   0  0  0  0  0  0
  -30.4361  -12.4366   19.4845 C   0  0  0  0  0  0
  -29.5169  -12.5029   18.2433 C   0  0  0  0  0  0
  -28.0395  -12.3367   18.6495 C   0  0  0  0  0  0
  -27.6486  -13.2291   19.8580 C   0  0  2  0  0  0
  -28.6888  -13.1375   20.9972 C   0  0  0  0  0  0
  -25.2542  -13.8193   20.5698 C   0  0  0  0  0  0
  -24.1820  -13.0439   20.9193 C   0  0  0  0  0  0
  -24.6402  -11.6915   20.8728 C   0  0  0  0  0  0
  -23.9078  -10.4291   21.0390 C   0  0  0  0  0  0
  -24.3629   -9.4207   21.9173 C   0  0  0  0  0  0
  -23.6301   -8.2244   22.0746 C   0  0  0  0  0  0
  -22.4280   -8.0283   21.3542 C   0  0  0  0  0  0
  -21.9918   -9.0253   20.4641 C   0  0  0  0  0  0
  -22.7248  -10.2129   20.3044 C   0  0  0  0  0  0
  -21.6855   -6.0742   22.5281 C   0  0  0  0  0  0
  -21.4018   -6.5642   23.8217 C   0  0  0  0  0  0
  -21.3660   -5.6794   24.9177 C   0  0  0  0  0  0
  -21.6042   -4.3057   24.7227 C   0  0  0  0  0  0
  -21.8820   -3.8149   23.4350 C   0  0  0  0  0  0
  -21.9194   -4.6969   22.3407 C   0  0  0  0  0  0
  -22.7843  -13.5220   21.1870 C   0  0  0  0  0  0
  -22.1661   -4.2157   21.0983 F   0  0  0  0  0  0
  -21.5627   -3.4538   25.7738 F   0  0  0  0  0  0
  -29.9994  -13.4884   20.4337 N   0  0  0  0  0  0
  -26.2969  -12.9394   20.3293 N   0  0  0  0  0  0
  -25.9331  -11.6539   20.5736 N   0  0  0  0  0  0
  -22.0502  -12.8190   22.0423 N   0  0  0  0  0  0
  -25.4250  -15.1917   20.4152 N   0  0  0  0  0  0
  -31.7684  -14.8503   20.0658 O   0  0  0  0  0  0
  -21.6640   -6.8883   21.4243 O   0  0  0  0  0  0
  -22.3516  -14.5529   20.6732 O   0  0  0  0  0  0
  -24.6307  -31.8556   23.1987 C   0  0  0  0  0  0
  -25.9132  -32.4756   23.8332 C   0  0  1  0  0  0
  -27.2186  -27.2583   20.1291 C   0  0  0  0  0  0
  -25.5930  -33.8560   24.2249 N   0  0  0  0  0  0
  -23.4287  -30.4785   21.5410 C   0  0  2  0  0  0
  -24.8768  -28.9288   20.1077 C   0  0  0  0  0  0
  -22.7505  -29.4603   22.4896 C   0  0  0  0  0  0
  -18.0295  -28.1394   22.8476 C   0  0  0  0  0  0
  -24.1494  -36.7283   23.2640 C   0  0  0  0  0  0
  -25.9757  -30.7657   21.3829 C   0  0  0  0  0  0
  -26.0472  -29.3895   20.7231 C   0  0  0  0  0  0
  -27.2188  -28.5652   20.7268 C   0  0  0  0  0  0
  -26.0294  -26.8804   19.4622 C   0  0  0  0  0  0
  -24.8734  -27.6827   19.4662 C   0  0  0  0  0  0
  -23.6483  -29.8152   20.1561 C   0  0  0  0  0  0
  -25.4121  -36.3072   24.0326 C   0  0  1  0  0  0
  -20.5899  -28.3709   23.1259 C   0  0  2  0  0  0
  -20.6786  -26.9427   22.5403 C   0  0  0  0  0  0
  -19.5762  -26.6386   21.5211 C   0  0  0  0  0  0
  -18.1941  -26.7936   22.1621 C   0  0  0  0  0  0
  -19.1549  -28.8869   23.2864 C   0  0  0  0  0  0
  -18.9473  -30.1467   23.8890 C   0  0  0  0  0  0
  -17.6475  -30.6595   24.0565 C   0  0  0  0  0  0
  -25.9062  -34.9443   23.5093 C   0  0  0  0  0  0
  -16.5363  -29.9094   23.6333 C   0  0  0  0  0  0
  -16.7283  -28.6512   23.0350 C   0  0  0  0  0  0
  -26.4501  -31.6583   25.0719 C   0  0  0  0  0  0
  -25.3711  -31.3734   26.1424 C   0  0  0  0  0  0
  -27.0358  -30.3000   24.6221 C   0  0  0  0  0  0
  -27.6053  -32.4330   25.7488 C   0  0  0  0  0  0
  -27.5583  -37.1797   24.8467 C   0  0  0  0  0  0
  -21.4211  -29.3055   22.3645 N   0  0  0  0  0  0
  -26.4297  -37.3770   23.9408 N   0  0  0  0  0  0
  -24.6971  -31.0517   22.0967 N   0  0  0  0  0  0
  -23.4203  -28.8137   23.2993 O   0  0  0  0  0  0
  -28.3051  -26.3519   20.2199 O   0  0  0  0  0  0
  -26.5635  -34.8918   22.4662 O   0  0  0  0  0  0
  -23.5454  -32.1382   23.7275 O   0  0  0  0  0  0
  -29.0803  -19.5322   18.6943 C   0  0  0  0  0  0
  -29.1489  -18.2773   18.0597 C   0  0  0  0  0  0
  -29.6434  -18.4513   20.7889 C   0  0  0  0  0  0
  -29.3411  -19.6958   20.0741 C   0  0  0  0  0  0
  -29.7103  -17.1351   20.1585 C   0  0  0  0  0  0
  -29.4527  -17.1022   18.7692 C   0  0  0  0  0  0
  -29.5404  -24.0591   21.7810 C   0  0  0  0  0  0
  -28.9699  -23.7633   20.5930 C   0  0  0  0  0  0
  -30.4091  -23.1610   22.5618 C   0  0  0  0  0  0
  -29.9698  -21.7356   22.9221 C   0  0  0  0  0  0
  -28.8650  -21.1229   22.0494 C   0  0  0  0  0  0
  -29.1575  -22.3517   19.8569 C   0  0  1  0  0  0
  -30.3722  -22.5103   18.9192 C   0  0  0  0  0  0
  -28.0978  -24.8931   19.8942 C   0  0  0  0  0  0
  -29.2544  -21.0435   20.6445 N   0  0  0  0  0  0
  -29.8668  -15.8303   20.8530 N   0  0  0  0  0  0
  -31.4940  -23.5538   22.9981 O   0  0  0  0  0  0
  -29.4312  -15.9240   18.1024 F   0  0  0  0  0  0
  -31.4785  -12.5555   19.1847 H   0  0  0  0  0  0
  -30.3744  -11.4540   19.9550 H   0  0  0  0  0  0
  -29.7948  -11.7295   17.5260 H   0  0  0  0  0  0
  -29.6556  -13.4552   17.7304 H   0  0  0  0  0  0
  -27.8865  -11.2869   18.9021 H   0  0  0  0  0  0
  -27.3879  -12.5414   17.7991 H   0  0  0  0  0  0
  -27.6524  -14.2557   19.4911 H   0  0  0  0  0  0
  -28.7137  -12.1304   21.4161 H   0  0  0  0  0  0
  -28.4202  -13.8004   21.8206 H   0  0  0  0  0  0
  -25.2774   -9.5684   22.4744 H   0  0  0  0  0  0
  -24.0011   -7.4633   22.7463 H   0  0  0  0  0  0
  -21.0849   -8.8773   19.8948 H   0  0  0  0  0  0
  -22.3707  -10.9667   19.6149 H   0  0  0  0  0  0
  -21.2013   -7.6150   23.9727 H   0  0  0  0  0  0
  -21.1479   -6.0520   25.9081 H   0  0  0  0  0  0
  -22.0601   -2.7614   23.2848 H   0  0  0  0  0  0
  -22.4130  -11.9838   22.4776 H   0  0  0  0  0  0
  -21.1123  -13.1208   22.2658 H   0  0  0  0  0  0
  -24.6591  -15.8467   20.5290 H   0  0  0  0  0  0
  -26.2777  -15.6313   20.0931 H   0  0  0  0  0  0
  -26.7192  -32.5406   23.1065 H   0  0  0  0  0  0
  -25.0073  -33.9704   25.0392 H   0  0  0  0  0  0
  -22.7257  -31.3012   21.3942 H   0  0  0  0  0  0
  -23.3762  -35.9609   23.3304 H   0  0  0  0  0  0
  -24.3583  -36.8904   22.2056 H   0  0  0  0  0  0
  -23.7245  -37.6481   23.6667 H   0  0  0  0  0  0
  -26.1204  -31.5271   20.6155 H   0  0  0  0  0  0
  -26.8508  -30.8103   22.0192 H   0  0  0  0  0  0
  -28.1104  -28.9085   21.2329 H   0  0  0  0  0  0
  -25.9536  -25.9405   18.9378 H   0  0  0  0  0  0
  -23.9805  -27.3288   18.9694 H   0  0  0  0  0  0
  -23.7760  -30.5926   19.4018 H   0  0  0  0  0  0
  -22.7670  -29.2492   19.8482 H   0  0  0  0  0  0
  -25.1309  -36.1919   25.0820 H   0  0  0  0  0  0
  -20.9995  -28.3292   24.1378 H   0  0  0  0  0  0
  -20.5690  -26.2325   23.3612 H   0  0  0  0  0  0
  -21.6654  -26.7453   22.1198 H   0  0  0  0  0  0
  -19.6930  -25.6291   21.1256 H   0  0  0  0  0  0
  -19.6702  -27.3183   20.6730 H   0  0  0  0  0  0
  -17.4211  -26.6678   21.4023 H   0  0  0  0  0  0
  -18.0344  -26.0082   22.9022 H   0  0  0  0  0  0
  -19.7951  -30.7280   24.2257 H   0  0  0  0  0  0
  -17.5033  -31.6274   24.5167 H   0  0  0  0  0  0
  -15.5366  -30.3000   23.7662 H   0  0  0  0  0  0
  -15.8680  -28.0834   22.7069 H   0  0  0  0  0  0
  -24.5902  -30.7074   25.7737 H   0  0  0  0  0  0
  -24.8881  -32.2901   26.4819 H   0  0  0  0  0  0
  -25.8008  -30.8925   27.0219 H   0  0  0  0  0  0
  -26.2948  -29.6732   24.1244 H   0  0  0  0  0  0
  -27.4036  -29.7283   25.4752 H   0  0  0  0  0  0
  -27.8829  -30.4276   23.9476 H   0  0  0  0  0  0
  -27.2670  -33.3650   26.2031 H   0  0  0  0  0  0
  -28.3874  -32.6858   25.0314 H   0  0  0  0  0  0
  -28.0708  -31.8472   26.5425 H   0  0  0  0  0  0
  -28.2598  -38.0095   24.7517 H   0  0  0  0  0  0
  -28.1082  -36.2628   24.6295 H   0  0  0  0  0  0
  -27.2299  -37.1444   25.8867 H   0  0  0  0  0  0
  -20.9399  -29.8781   21.6851 H   0  0  0  0  0  0
  -26.0178  -38.2845   24.1400 H   0  0  0  0  0  0
  -28.8004  -20.3732   18.0796 H   0  0  0  0  0  0
  -28.9344  -18.2096   17.0036 H   0  0  0  0  0  0
  -29.8310  -18.4939   21.8509 H   0  0  0  0  0  0
  -29.3882  -25.0427   22.1993 H   0  0  0  0  0  0
  -29.6387  -21.7491   23.9605 H   0  0  0  0  0  0
  -30.8496  -21.0925   22.8937 H   0  0  0  0  0  0
  -27.9594  -21.7259   22.1332 H   0  0  0  0  0  0
  -28.5804  -20.1508   22.4509 H   0  0  0  0  0  0
  -28.2645  -22.2451   19.2383 H   0  0  0  0  0  0
  -31.2903  -22.6463   19.4916 H   0  0  0  0  0  0
  -30.2593  -23.3872   18.2806 H   0  0  0  0  0  0
  -30.5379  -21.6666   18.2543 H   0  0  0  0  0  0
  -27.0766  -24.5951   20.1295 H   0  0  0  0  0  0
  -28.2127  -24.7863   18.8151 H   0  0  0  0  0  0
  -29.0715  -15.5849   21.4230 H   0  0  0  0  0  0
  1 25  1  0  0  0
  1 30  2  0  0  0
  1 86  1  0  0  0
  2  3  1  0  0  0
  2 25  1  0  0  0
  2 89  1  0  0  0
  2 90  1  0  0  0
  3  4  1  0  0  0
  3 91  1  0  0  0
  3 92  1  0  0  0
  4  5  1  0  0  0
  4 93  1  0  0  0
  4 94  1  0  0  0
  5  6  1  0  0  0
  5 26  1  0  0  0
  5 95  1  0  0  0
  6 25  1  0  0  0
  6 96  1  0  0  0
  6 97  1  0  0  0
  7  8  2  0  0  0
  7 26  1  0  0  0
  7 29  1  0  0  0
  8  9  1  0  0  0
  8 22  1  0  0  0
  9 10  1  0  0  0
  9 27  2  0  0  0
 10 11  2  0  0  0
 10 15  1  0  0  0
 11 12  1  0  0  0
 11 98  1  0  0  0
 12 13  2  0  0  0
 12 99  1  0  0  0
 13 14  1  0  0  0
 13 31  1  0  0  0
 14 15  2  0  0  0
 14100  1  0  0  0
 15101  1  0  0  0
 16 17  2  0  0  0
 16 21  1  0  0  0
 16 31  1  0  0  0
 17 18  1  0  0  0
 17102  1  0  0  0
 18 19  2  0  0  0
 18103  1  0  0  0
 19 20  1  0  0  0
 19 24  1  0  0  0
 20 21  2  0  0  0
 20104  1  0  0  0
 21 23  1  0  0  0
 22 28  1  0  0  0
 22 32  2  0  0  0
 26 27  1  0  0  0
 28105  1  0  0  0
 28106  1  0  0  0
 29107  1  0  0  0
 29108  1  0  0  0
 33 34  1  0  0  0
 33 66  1  0  0  0
 33 70  2  0  0  0
 34 36  1  0  0  0
 34 59  1  0  0  0
 34109  1  0  0  0
 35 44  2  0  0  0
 35 45  1  0  0  0
 35 68  1  0  0  0
 36 56  1  0  0  0
 36110  1  0  0  0
 37 39  1  0  0  0
 37 47  1  0  0  0
 37 66  1  0  0  0
 37111  1  0  0  0
 38 43  2  0  0  0
 38 46  1  0  0  0
 38 47  1  0  0  0
 39 64  1  0  0  0
 39 67  2  0  0  0
 40 52  1  0  0  0
 40 53  2  0  0  0
 40 58  1  0  0  0
 41112  1  0  0  0
 41113  1  0  0  0
 41114  1  0  0  0
 41 48  1  0  0  0
 42 43  1  0  0  0
 42 66  1  0  0  0
 42115  1  0  0  0
 42116  1  0  0  0
 43 44  1  0  0  0
 44117  1  0  0  0
 45 46  2  0  0  0
 45118  1  0  0  0
 46119  1  0  0  0
 47120  1  0  0  0
 47121  1  0  0  0
 48 56  1  0  0  0
 48 65  1  0  0  0
 48122  1  0  0  0
 49 50  1  0  0  0
 49 53  1  0  0  0
 49 64  1  0  0  0
 49123  1  0  0  0
 50 51  1  0  0  0
 50124  1  0  0  0
 50125  1  0  0  0
 51 52  1  0  0  0
 51126  1  0  0  0
 51127  1  0  0  0
 52128  1  0  0  0
 52129  1  0  0  0
 53 54  1  0  0  0
 54 55  2  0  0  0
 54130  1  0  0  0
 55 57  1  0  0  0
 55131  1  0  0  0
 56 69  2  0  0  0
 57 58  2  0  0  0
 57132  1  0  0  0
 58133  1  0  0  0
 59 60  1  0  0  0
 59 61  1  0  0  0
 59 62  1  0  0  0
 60134  1  0  0  0
 60135  1  0  0  0
 60136  1  0  0  0
 61137  1  0  0  0
 61138  1  0  0  0
 61139  1  0  0  0
 62140  1  0  0  0
 62141  1  0  0  0
 62142  1  0  0  0
 63 65  1  0  0  0
 63143  1  0  0  0
 63144  1  0  0  0
 63145  1  0  0  0
 64146  1  0  0  0
 65147  1  0  0  0
 68 84  1  0  0  0
 71 72  2  0  0  0
 71 74  1  0  0  0
 71148  1  0  0  0
 72 76  1  0  0  0
 72149  1  0  0  0
 73 74  2  0  0  0
 73 75  1  0  0  0
 73150  1  0  0  0
 74 85  1  0  0  0
 75 76  2  0  0  0
 75 86  1  0  0  0
 76 88  1  0  0  0
 77 78  2  0  0  0
 77 79  1  0  0  0
 77151  1  0  0  0
 78 82  1  0  0  0
 78 84  1  0  0  0
 79 80  1  0  0  0
 79 87  2  0  0  0
 80 81  1  0  0  0
 80152  1  0  0  0
 80153  1  0  0  0
 81 85  1  0  0  0
 81154  1  0  0  0
 81155  1  0  0  0
 82 83  1  0  0  0
 82 85  1  0  0  0
 82156  1  0  0  0
 83157  1  0  0  0
 83158  1  0  0  0
 83159  1  0  0  0
 84160  1  0  0  0
 84161  1  0  0  0
 86162  1  0  0  0
M  ISO  4   1 100  68 101  84 101  86 100
M  END
> <chiral flag>
0

> <version>
0

> <s_m_source_file>
/data/baiqing/PycharmProjects/Reinvent-master-3.2/result/LINK_invent/BTK/process_docking_weight1_custom_product_contain_oxygen_bond_distance_aromatic_linkinvent_7_9_3/rearranged_h_0116.sdf

> <i_m_source_file_index>
65

> <r_mmod_Potential_Energy-OPLS-2005>
129.534423828125

> <r_mmod_Stretch_Energy-OPLS-2005>
131.802780151367

> <r_mmod_Bend_Energy-OPLS-2005>
180.74543762207

> <r_mmod_Torsional_Energy-OPLS-2005>
250.099792480469

> <r_mmod_Improper_Torsional_Energy-OPLS-2005>
6.22145128250122

> <r_mmod_Van_der_Waal_Energy-OPLS-2005>
153.426696777344

> <r_mmod_Electrostatic_Energy-OPLS-2005>
-437.545776367188

> <r_mmod_Solvation_Energy-OPLS-2005>
-237.962295532227

> <b_mmod_Minimization_Converged-OPLS-2005>
0

> <r_mmod_RMS_Derivative-OPLS-2005>
0.792559802532196

$$$$
65
                    3D
 Structure written by MMmdl.
156164  0  0  1  0            999 V2000
  -30.5899  -14.7662   20.4953 C   0  0  0  0  0  0
  -30.4476  -12.4779   19.4778 C   0  0  0  0  0  0
  -29.5192  -12.5372   18.2400 C   0  0  0  0  0  0
  -28.0397  -12.3560   18.6391 C   0  0  0  0  0  0
  -27.6494  -13.2234   19.8647 C   0  0  2  0  0  0
  -28.6926  -13.0720   20.9887 C   0  0  0  0  0  0
  -25.2541  -13.8172   20.5694 C   0  0  0  0  0  0
  -24.1810  -13.0429   20.9172 C   0  0  0  0  0  0
  -24.6391  -11.6902   20.8721 C   0  0  0  0  0  0
  -23.9063  -10.4288   21.0395 C   0  0  0  0  0  0
  -24.3615   -9.4208   21.9180 C   0  0  0  0  0  0
  -23.6291   -8.2244   22.0753 C   0  0  0  0  0  0
  -22.4273   -8.0279   21.3544 C   0  0  0  0  0  0
  -21.9906   -9.0250   20.4646 C   0  0  0  0  0  0
  -22.7233  -10.2129   20.3050 C   0  0  0  0  0  0
  -21.6854   -6.0735   22.5280 C   0  0  0  0  0  0
  -21.4015   -6.5639   23.8213 C   0  0  0  0  0  0
  -21.3660   -5.6792   24.9175 C   0  0  0  0  0  0
  -21.6043   -4.3055   24.7225 C   0  0  0  0  0  0
  -21.8819   -3.8147   23.4347 C   0  0  0  0  0  0
  -21.9194   -4.6963   22.3403 C   0  0  0  0  0  0
  -22.7837  -13.5223   21.1848 C   0  0  0  0  0  0
  -22.1662   -4.2148   21.0982 F   0  0  0  0  0  0
  -21.5628   -3.4539   25.7739 F   0  0  0  0  0  0
  -29.9917  -13.5106   20.4462 N   0  0  0  0  0  0
  -26.2969  -12.9360   20.3317 N   0  0  0  0  0  0
  -25.9320  -11.6505   20.5726 N   0  0  0  0  0  0
  -22.0487  -12.8214   22.0410 N   0  0  0  0  0  0
  -25.4260  -15.1896   20.4158 N   0  0  0  0  0  0
  -31.7456  -14.8851   20.0697 O   0  0  0  0  0  0
  -21.6638   -6.8876   21.4241 O   0  0  0  0  0  0
  -22.3519  -14.5531   20.6705 O   0  0  0  0  0  0
  -24.6321  -31.8542   23.1978 C   0  0  0  0  0  0
  -25.9140  -32.4754   23.8330 C   0  0  1  0  0  0
  -27.2271  -27.2666   20.1275 C   0  0  0  0  0  0
  -25.5933  -33.8555   24.2253 N   0  0  0  0  0  0
  -23.4313  -30.4752   21.5403 C   0  0  2  0  0  0
  -24.8835  -28.9235   20.1084 C   0  0  0  0  0  0
  -22.7516  -29.4592   22.4903 C   0  0  0  0  0  0
  -18.0292  -28.1390   22.8479 C   0  0  0  0  0  0
  -24.1489  -36.7281   23.2640 C   0  0  0  0  0  0
  -25.9775  -30.7683   21.3789 C   0  0  0  0  0  0
  -26.0555  -29.3911   20.7201 C   0  0  0  0  0  0
  -27.2341  -28.5742   20.7214 C   0  0  0  0  0  0
  -26.0362  -26.8658   19.4885 C   0  0  0  0  0  0
  -24.8785  -27.6680   19.4807 C   0  0  0  0  0  0
  -23.6521  -29.8083   20.1570 C   0  0  0  0  0  0
  -25.4116  -36.3067   24.0325 C   0  0  1  0  0  0
  -20.5897  -28.3704   23.1261 C   0  0  2  0  0  0
  -20.6776  -26.9420   22.5406 C   0  0  0  0  0  0
  -19.5754  -26.6385   21.5208 C   0  0  0  0  0  0
  -18.1935  -26.7930   22.1622 C   0  0  0  0  0  0
  -19.1546  -28.8865   23.2864 C   0  0  0  0  0  0
  -18.9469  -30.1462   23.8888 C   0  0  0  0  0  0
  -17.6467  -30.6591   24.0560 C   0  0  0  0  0  0
  -25.9055  -34.9439   23.5093 C   0  0  0  0  0  0
  -16.5358  -29.9087   23.6330 C   0  0  0  0  0  0
  -16.7277  -28.6504   23.0352 C   0  0  0  0  0  0
  -26.4504  -31.6583   25.0723 C   0  0  0  0  0  0
  -25.3721  -31.3739   26.1440 C   0  0  0  0  0  0
  -27.0356  -30.2997   24.6220 C   0  0  0  0  0  0
  -27.6053  -32.4329   25.7500 C   0  0  0  0  0  0
  -27.5577  -37.1798   24.8466 C   0  0  0  0  0  0
  -21.4219  -29.3046   22.3648 N   0  0  0  0  0  0
  -26.4291  -37.3767   23.9406 N   0  0  0  0  0  0
  -24.6991  -31.0500   22.0957 N   0  0  0  0  0  0
  -23.4207  -28.8136   23.3010 O   0  0  0  0  0  0
  -28.2670  -26.3099   20.1763 O   0  0  0  0  0  0
  -26.5630  -34.8916   22.4662 O   0  0  0  0  0  0
  -23.5468  -32.1364   23.7267 O   0  0  0  0  0  0
  -30.6136  -17.6749   19.1796 C   0  0  0  0  0  0
  -30.2505  -20.1085   19.0513 C   0  0  0  0  0  0
  -29.9290  -17.5389   20.4120 C   0  0  0  0  0  0
  -29.3822  -18.8171   20.9319 C   0  0  0  0  0  0
  -29.5351  -20.1123   20.2634 C   0  0  0  0  0  0
  -30.7748  -18.9129   18.5238 C   0  0  0  0  0  0
  -28.3036  -23.8035   20.9851 C   0  0  0  0  0  0
  -28.0010  -25.1669   20.9775 C   0  0  0  0  0  0
  -29.7828  -16.0760   21.0299 C   0  0  0  0  0  0
  -29.5065  -18.8614   23.4796 C   0  0  0  0  0  0
  -28.5957  -18.8762   22.2440 C   0  0  0  0  0  0
  -29.0760  -22.6928   20.1612 C   0  0  0  0  0  0
  -29.0107  -15.9275   22.0173 N   0  0  0  0  0  0
  -28.9955  -21.3304   20.7893 O   0  0  0  0  0  0
  -31.4474  -18.9511   17.3489 F   0  0  0  0  0  0
  -31.4846  -12.6225   19.1712 H   0  0  0  0  0  0
  -30.4200  -11.4858   19.9311 H   0  0  0  0  0  0
  -29.8076  -11.7747   17.5153 H   0  0  0  0  0  0
  -29.6447  -13.4979   17.7383 H   0  0  0  0  0  0
  -27.8872  -11.3014   18.8717 H   0  0  0  0  0  0
  -27.3879  -12.5783   17.7931 H   0  0  0  0  0  0
  -27.6652  -14.2614   19.5327 H   0  0  0  0  0  0
  -28.7482  -12.0288   21.3032 H   0  0  0  0  0  0
  -28.3908  -13.5959   21.8904 H   0  0  0  0  0  0
  -25.2762   -9.5687   22.4751 H   0  0  0  0  0  0
  -24.0002   -7.4637   22.7473 H   0  0  0  0  0  0
  -21.0836   -8.8766   19.8953 H   0  0  0  0  0  0
  -22.3691  -10.9665   19.6156 H   0  0  0  0  0  0
  -21.2008   -7.6148   23.9716 H   0  0  0  0  0  0
  -21.1482   -6.0524   25.9078 H   0  0  0  0  0  0
  -22.0598   -2.7609   23.2848 H   0  0  0  0  0  0
  -22.4106  -11.9875   22.4794 H   0  0  0  0  0  0
  -21.1107  -13.1239   22.2622 H   0  0  0  0  0  0
  -24.6718  -15.8529   20.5546 H   0  0  0  0  0  0
  -26.3059  -15.6310   20.1806 H   0  0  0  0  0  0
  -26.7207  -32.5412   23.1073 H   0  0  0  0  0  0
  -25.0073  -33.9685   25.0396 H   0  0  0  0  0  0
  -22.7283  -31.2973   21.3918 H   0  0  0  0  0  0
  -23.3751  -35.9613   23.3304 H   0  0  0  0  0  0
  -24.3573  -36.8905   22.2054 H   0  0  0  0  0  0
  -23.7246  -37.6484   23.6664 H   0  0  0  0  0  0
  -26.1149  -31.5298   20.6100 H   0  0  0  0  0  0
  -26.8550  -30.8186   22.0122 H   0  0  0  0  0  0
  -28.1293  -28.9195   21.2195 H   0  0  0  0  0  0
  -25.9932  -25.8915   19.0222 H   0  0  0  0  0  0
  -23.9817  -27.3024   18.9996 H   0  0  0  0  0  0
  -23.7753  -30.5845   19.4009 H   0  0  0  0  0  0
  -22.7716  -29.2399   19.8520 H   0  0  0  0  0  0
  -25.1298  -36.1911   25.0818 H   0  0  0  0  0  0
  -20.9983  -28.3286   24.1383 H   0  0  0  0  0  0
  -20.5670  -26.2318   23.3615 H   0  0  0  0  0  0
  -21.6646  -26.7440   22.1206 H   0  0  0  0  0  0
  -19.6920  -25.6293   21.1247 H   0  0  0  0  0  0
  -19.6691  -27.3187   20.6732 H   0  0  0  0  0  0
  -17.4202  -26.6670   21.4028 H   0  0  0  0  0  0
  -18.0343  -26.0078   22.9027 H   0  0  0  0  0  0
  -19.7946  -30.7275   24.2263 H   0  0  0  0  0  0
  -17.5023  -31.6271   24.5162 H   0  0  0  0  0  0
  -15.5359  -30.2987   23.7658 H   0  0  0  0  0  0
  -15.8677  -28.0819   22.7074 H   0  0  0  0  0  0
  -24.5899  -30.7084   25.7767 H   0  0  0  0  0  0
  -24.8906  -32.2911   26.4842 H   0  0  0  0  0  0
  -25.8033  -30.8933   27.0230 H   0  0  0  0  0  0
  -26.2947  -29.6743   24.1225 H   0  0  0  0  0  0
  -27.4011  -29.7261   25.4748 H   0  0  0  0  0  0
  -27.8835  -30.4266   23.9484 H   0  0  0  0  0  0
  -27.2656  -33.3633   26.2060 H   0  0  0  0  0  0
  -28.3877  -32.6884   25.0341 H   0  0  0  0  0  0
  -28.0705  -31.8466   26.5434 H   0  0  0  0  0  0
  -28.2599  -38.0091   24.7502 H   0  0  0  0  0  0
  -28.1072  -36.2623   24.6307 H   0  0  0  0  0  0
  -27.2292  -37.1461   25.8869 H   0  0  0  0  0  0
  -20.9412  -29.8771   21.6851 H   0  0  0  0  0  0
  -26.0170  -38.2841   24.1406 H   0  0  0  0  0  0
  -31.0334  -16.8127   18.6861 H   0  0  0  0  0  0
  -30.4052  -21.0239   18.5004 H   0  0  0  0  0  0
  -27.8586  -23.3184   21.8424 H   0  0  0  0  0  0
  -27.3899  -25.4928   21.8103 H   0  0  0  0  0  0
  -28.9176  -18.9111   24.3958 H   0  0  0  0  0  0
  -30.1808  -19.7183   23.4745 H   0  0  0  0  0  0
  -30.1175  -17.9605   23.5277 H   0  0  0  0  0  0
  -27.8383  -18.0967   22.2869 H   0  0  0  0  0  0
  -27.9957  -19.7848   22.2824 H   0  0  0  0  0  0
  -30.1214  -22.9881   20.0676 H   0  0  0  0  0  0
  -28.6573  -22.6530   19.1551 H   0  0  0  0  0  0
  -28.5892  -16.8087   22.2774 H   0  0  0  0  0  0
  1 25  1  0  0  0
  1 30  2  0  0  0
  1 79  1  0  0  0
  2  3  1  0  0  0
  2 25  1  0  0  0
  2 86  1  0  0  0
  2 87  1  0  0  0
  3  4  1  0  0  0
  3 88  1  0  0  0
  3 89  1  0  0  0
  4  5  1  0  0  0
  4 90  1  0  0  0
  4 91  1  0  0  0
  5  6  1  0  0  0
  5 26  1  0  0  0
  5 92  1  0  0  0
  6 25  1  0  0  0
  6 93  1  0  0  0
  6 94  1  0  0  0
  7  8  2  0  0  0
  7 26  1  0  0  0
  7 29  1  0  0  0
  8  9  1  0  0  0
  8 22  1  0  0  0
  9 10  1  0  0  0
  9 27  2  0  0  0
 10 11  2  0  0  0
 10 15  1  0  0  0
 11 12  1  0  0  0
 11 95  1  0  0  0
 12 13  2  0  0  0
 12 96  1  0  0  0
 13 14  1  0  0  0
 13 31  1  0  0  0
 14 15  2  0  0  0
 14 97  1  0  0  0
 15 98  1  0  0  0
 16 17  2  0  0  0
 16 21  1  0  0  0
 16 31  1  0  0  0
 17 18  1  0  0  0
 17 99  1  0  0  0
 18 19  2  0  0  0
 18100  1  0  0  0
 19 20  1  0  0  0
 19 24  1  0  0  0
 20 21  2  0  0  0
 20101  1  0  0  0
 21 23  1  0  0  0
 22 28  1  0  0  0
 22 32  2  0  0  0
 26 27  1  0  0  0
 28102  1  0  0  0
 28103  1  0  0  0
 29104  1  0  0  0
 29105  1  0  0  0
 33 34  1  0  0  0
 33 66  1  0  0  0
 33 70  2  0  0  0
 34 36  1  0  0  0
 34 59  1  0  0  0
 34106  1  0  0  0
 35 44  2  0  0  0
 35 45  1  0  0  0
 35 68  1  0  0  0
 36 56  1  0  0  0
 36107  1  0  0  0
 37 39  1  0  0  0
 37 47  1  0  0  0
 37 66  1  0  0  0
 37108  1  0  0  0
 38 43  2  0  0  0
 38 46  1  0  0  0
 38 47  1  0  0  0
 39 64  1  0  0  0
 39 67  2  0  0  0
 40 52  1  0  0  0
 40 53  2  0  0  0
 40 58  1  0  0  0
 41109  1  0  0  0
 41110  1  0  0  0
 41111  1  0  0  0
 41 48  1  0  0  0
 42 43  1  0  0  0
 42 66  1  0  0  0
 42112  1  0  0  0
 42113  1  0  0  0
 43 44  1  0  0  0
 44114  1  0  0  0
 45 46  2  0  0  0
 45115  1  0  0  0
 46116  1  0  0  0
 47117  1  0  0  0
 47118  1  0  0  0
 48 56  1  0  0  0
 48 65  1  0  0  0
 48119  1  0  0  0
 49 50  1  0  0  0
 49 53  1  0  0  0
 49 64  1  0  0  0
 49120  1  0  0  0
 50 51  1  0  0  0
 50121  1  0  0  0
 50122  1  0  0  0
 51 52  1  0  0  0
 51123  1  0  0  0
 51124  1  0  0  0
 52125  1  0  0  0
 52126  1  0  0  0
 53 54  1  0  0  0
 54 55  2  0  0  0
 54127  1  0  0  0
 55 57  1  0  0  0
 55128  1  0  0  0
 56 69  2  0  0  0
 57 58  2  0  0  0
 57129  1  0  0  0
 58130  1  0  0  0
 59 60  1  0  0  0
 59 61  1  0  0  0
 59 62  1  0  0  0
 60131  1  0  0  0
 60132  1  0  0  0
 60133  1  0  0  0
 61134  1  0  0  0
 61135  1  0  0  0
 61136  1  0  0  0
 62137  1  0  0  0
 62138  1  0  0  0
 62139  1  0  0  0
 63 65  1  0  0  0
 63140  1  0  0  0
 63141  1  0  0  0
 63142  1  0  0  0
 64143  1  0  0  0
 65144  1  0  0  0
 68 78  1  0  0  0
 71 73  2  0  0  0
 71 76  1  0  0  0
 71145  1  0  0  0
 72 75  1  0  0  0
 72 76  2  0  0  0
 72146  1  0  0  0
 73 74  1  0  0  0
 73 79  1  0  0  0
 74 75  2  0  0  0
 74 81  1  0  0  0
 75 84  1  0  0  0
 76 85  1  0  0  0
 77 78  2  0  0  0
 77 82  1  0  0  0
 77147  1  0  0  0
 78148  1  0  0  0
 79 83  2  0  0  0
 80 81  1  0  0  0
 80149  1  0  0  0
 80150  1  0  0  0
 80151  1  0  0  0
 81152  1  0  0  0
 81153  1  0  0  0
 82 84  1  0  0  0
 82154  1  0  0  0
 82155  1  0  0  0
 83156  1  0  0  0
M  ISO  4   1 100  68 101  78 101  79 100
M  END
> <chiral flag>
0

> <version>
0

> <s_m_source_file>
/data/baiqing/PycharmProjects/Reinvent-master-3.2/result/LINK_invent/BTK/process_docking_weight1_custom_product_contain_oxygen_bond_distance_aromatic_linkinvent_7_9_3/rearranged_h_0116.sdf

> <i_m_source_file_index>
66

> <r_mmod_Potential_Energy-OPLS-2005>
405.005584716797

> <r_mmod_Stretch_Energy-OPLS-2005>
156.621963500977

> <r_mmod_Bend_Energy-OPLS-2005>
237.303558349609

> <r_mmod_Torsional_Energy-OPLS-2005>
201.294464111328

> <r_mmod_Improper_Torsional_Energy-OPLS-2005>
2.35380148887634

> <r_mmod_Van_der_Waal_Energy-OPLS-2005>
154.185791015625

> <r_mmod_Electrostatic_Energy-OPLS-2005>
-253.243621826172

> <r_mmod_Solvation_Energy-OPLS-2005>
-183.044311523438

> <b_mmod_Minimization_Converged-OPLS-2005>
0

> <r_mmod_RMS_Derivative-OPLS-2005>
0.430994898080826

$$$$
66
                    3D
 Structure written by MMmdl.
159167  0  0  1  0            999 V2000
  -30.5812  -14.7482   20.4790 C   0  0  0  0  0  0
  -30.4435  -12.4628   19.4578 C   0  0  0  0  0  0
  -29.5090  -12.5052   18.2282 C   0  0  0  0  0  0
  -28.0362  -12.3205   18.6488 C   0  0  0  0  0  0
  -27.6417  -13.2201   19.8492 C   0  0  2  0  0  0
  -28.6898  -13.1425   20.9795 C   0  0  0  0  0  0
  -25.2526  -13.8168   20.5691 C   0  0  0  0  0  0
  -24.1809  -13.0423   20.9207 C   0  0  0  0  0  0
  -24.6385  -11.6901   20.8755 C   0  0  0  0  0  0
  -23.9055  -10.4283   21.0407 C   0  0  0  0  0  0
  -24.3609   -9.4201   21.9182 C   0  0  0  0  0  0
  -23.6287   -8.2235   22.0754 C   0  0  0  0  0  0
  -22.4272   -8.0271   21.3541 C   0  0  0  0  0  0
  -21.9903   -9.0242   20.4644 C   0  0  0  0  0  0
  -22.7229  -10.2122   20.3054 C   0  0  0  0  0  0
  -21.6852   -6.0727   22.5275 C   0  0  0  0  0  0
  -21.4017   -6.5635   23.8208 C   0  0  0  0  0  0
  -21.3663   -5.6793   24.9172 C   0  0  0  0  0  0
  -21.6042   -4.3053   24.7226 C   0  0  0  0  0  0
  -21.8821   -3.8142   23.4349 C   0  0  0  0  0  0
  -21.9195   -4.6957   22.3402 C   0  0  0  0  0  0
  -22.7835  -13.5210   21.1860 C   0  0  0  0  0  0
  -22.1664   -4.2140   21.0981 F   0  0  0  0  0  0
  -21.5628   -3.4540   25.7740 F   0  0  0  0  0  0
  -29.9846  -13.5114   20.3923 N   0  0  0  0  0  0
  -26.2936  -12.9347   20.3280 N   0  0  0  0  0  0
  -25.9310  -11.6503   20.5758 N   0  0  0  0  0  0
  -22.0490  -12.8198   22.0426 N   0  0  0  0  0  0
  -25.4199  -15.1893   20.4086 N   0  0  0  0  0  0
  -31.7809  -14.8809   20.2191 O   0  0  0  0  0  0
  -21.6639   -6.8868   21.4236 O   0  0  0  0  0  0
  -22.3525  -14.5519   20.6712 O   0  0  0  0  0  0
  -24.6333  -31.8556   23.1994 C   0  0  0  0  0  0
  -25.9154  -32.4760   23.8345 C   0  0  1  0  0  0
  -27.2163  -27.2522   20.1206 C   0  0  0  0  0  0
  -25.5950  -33.8559   24.2273 N   0  0  0  0  0  0
  -23.4304  -30.4803   21.5442 C   0  0  2  0  0  0
  -24.8756  -28.9298   20.1106 C   0  0  0  0  0  0
  -22.7511  -29.4604   22.4909 C   0  0  0  0  0  0
  -18.0303  -28.1377   22.8477 C   0  0  0  0  0  0
  -24.1491  -36.7286   23.2638 C   0  0  0  0  0  0
  -25.9779  -30.7656   21.3801 C   0  0  0  0  0  0
  -26.0504  -29.3883   20.7195 C   0  0  0  0  0  0
  -27.2241  -28.5634   20.7118 C   0  0  0  0  0  0
  -26.0123  -26.8695   19.4833 C   0  0  0  0  0  0
  -24.8618  -27.6786   19.4825 C   0  0  0  0  0  0
  -23.6488  -29.8192   20.1585 C   0  0  0  0  0  0
  -25.4116  -36.3071   24.0327 C   0  0  1  0  0  0
  -20.5902  -28.3696   23.1257 C   0  0  2  0  0  0
  -20.6784  -26.9415   22.5395 C   0  0  0  0  0  0
  -19.5761  -26.6375   21.5195 C   0  0  0  0  0  0
  -18.1944  -26.7922   22.1611 C   0  0  0  0  0  0
  -19.1555  -28.8855   23.2862 C   0  0  0  0  0  0
  -18.9475  -30.1449   23.8883 C   0  0  0  0  0  0
  -17.6472  -30.6578   24.0558 C   0  0  0  0  0  0
  -25.9056  -34.9437   23.5097 C   0  0  0  0  0  0
  -16.5367  -29.9074   23.6319 C   0  0  0  0  0  0
  -16.7288  -28.6495   23.0341 C   0  0  0  0  0  0
  -26.4516  -31.6575   25.0727 C   0  0  0  0  0  0
  -25.3732  -31.3713   26.1440 C   0  0  0  0  0  0
  -27.0366  -30.2994   24.6210 C   0  0  0  0  0  0
  -27.6077  -32.4310   25.7494 C   0  0  0  0  0  0
  -27.5582  -37.1800   24.8466 C   0  0  0  0  0  0
  -21.4215  -29.3051   22.3652 N   0  0  0  0  0  0
  -26.4292  -37.3766   23.9410 N   0  0  0  0  0  0
  -24.7001  -31.0510   22.0980 N   0  0  0  0  0  0
  -23.4204  -28.8126   23.3000 O   0  0  0  0  0  0
  -28.3046  -26.3407   20.1685 O   0  0  0  0  0  0
  -26.5618  -34.8909   22.4658 O   0  0  0  0  0  0
  -23.5482  -32.1394   23.7278 O   0  0  0  0  0  0
  -29.9055  -18.7209   23.0395 C   0  0  0  0  0  0
  -29.6783  -18.4341   20.2994 C   0  0  0  0  0  0
  -29.9704  -17.4136   22.4962 C   0  0  0  0  0  0
  -29.8714  -17.2239   21.0895 C   0  0  0  0  0  0
  -29.7378  -19.8927   22.2562 C   0  0  0  0  0  0
  -29.5978  -19.7825   20.8512 C   0  0  0  0  0  0
  -29.5849  -16.2474   24.6940 C   0  0  0  0  0  0
  -30.0450  -16.2670   23.4305 C   0  0  0  0  0  0
  -29.6619  -21.2984   24.2198 C   0  0  0  0  0  0
  -29.1058  -23.6739   20.2601 C   0  0  0  0  0  0
  -28.0058  -24.8594   20.1259 C   0  0  0  0  0  0
  -28.5986  -22.1310   20.3622 C   0  0  0  0  0  0
  -29.7277  -15.8403   20.5645 N   0  0  0  0  0  0
  -29.7483  -21.1593   22.8062 O   0  0  0  0  0  0
  -29.4825  -20.9600   20.0485 O   0  0  0  0  0  0
  -31.4790  -12.6163   19.1505 H   0  0  0  0  0  0
  -30.4123  -11.4836   19.9381 H   0  0  0  0  0  0
  -29.7917  -11.7329   17.5110 H   0  0  0  0  0  0
  -29.6252  -13.4599   17.7133 H   0  0  0  0  0  0
  -27.9017  -11.2723   18.9184 H   0  0  0  0  0  0
  -27.3730  -12.5037   17.8024 H   0  0  0  0  0  0
  -27.6357  -14.2406   19.4669 H   0  0  0  0  0  0
  -28.7332  -12.1383   21.4043 H   0  0  0  0  0  0
  -28.4252  -13.8104   21.8015 H   0  0  0  0  0  0
  -25.2751   -9.5680   22.4759 H   0  0  0  0  0  0
  -23.9996   -7.4629   22.7474 H   0  0  0  0  0  0
  -21.0835   -8.8755   19.8949 H   0  0  0  0  0  0
  -22.3681  -10.9662   19.6165 H   0  0  0  0  0  0
  -21.2013   -7.6143   23.9708 H   0  0  0  0  0  0
  -21.1483   -6.0524   25.9073 H   0  0  0  0  0  0
  -22.0598   -2.7603   23.2853 H   0  0  0  0  0  0
  -22.4119  -11.9854   22.4800 H   0  0  0  0  0  0
  -21.1110  -13.1219   22.2643 H   0  0  0  0  0  0
  -24.6445  -15.8347   20.5111 H   0  0  0  0  0  0
  -26.2533  -15.6340   20.0479 H   0  0  0  0  0  0
  -26.7214  -32.5395   23.1084 H   0  0  0  0  0  0
  -25.0103  -33.9706   25.0424 H   0  0  0  0  0  0
  -22.7276  -31.3038   21.3997 H   0  0  0  0  0  0
  -23.3751  -35.9617   23.3295 H   0  0  0  0  0  0
  -24.3598  -36.8919   22.2056 H   0  0  0  0  0  0
  -23.7251  -37.6486   23.6669 H   0  0  0  0  0  0
  -26.1172  -31.5288   20.6135 H   0  0  0  0  0  0
  -26.8554  -30.8145   22.0129 H   0  0  0  0  0  0
  -28.1222  -28.9101   21.2029 H   0  0  0  0  0  0
  -25.9163  -25.9225   18.9783 H   0  0  0  0  0  0
  -23.9624  -27.3260   18.9958 H   0  0  0  0  0  0
  -23.7798  -30.6003   19.4090 H   0  0  0  0  0  0
  -22.7649  -29.2594   19.8466 H   0  0  0  0  0  0
  -25.1298  -36.1923   25.0823 H   0  0  0  0  0  0
  -21.0000  -28.3275   24.1374 H   0  0  0  0  0  0
  -20.5673  -26.2314   23.3606 H   0  0  0  0  0  0
  -21.6654  -26.7430   22.1199 H   0  0  0  0  0  0
  -19.6926  -25.6280   21.1243 H   0  0  0  0  0  0
  -19.6690  -27.3161   20.6703 H   0  0  0  0  0  0
  -17.4209  -26.6657   21.4020 H   0  0  0  0  0  0
  -18.0357  -26.0062   22.9006 H   0  0  0  0  0  0
  -19.7950  -30.7260   24.2259 H   0  0  0  0  0  0
  -17.5030  -31.6260   24.5153 H   0  0  0  0  0  0
  -15.5365  -30.2971   23.7649 H   0  0  0  0  0  0
  -15.8690  -28.0809   22.7049 H   0  0  0  0  0  0
  -24.5942  -30.7021   25.7777 H   0  0  0  0  0  0
  -24.8872  -32.2863   26.4824 H   0  0  0  0  0  0
  -25.8046  -30.8936   27.0245 H   0  0  0  0  0  0
  -26.2946  -29.6730   24.1240 H   0  0  0  0  0  0
  -27.4063  -29.7270   25.4727 H   0  0  0  0  0  0
  -27.8819  -30.4276   23.9445 H   0  0  0  0  0  0
  -27.2717  -33.3642   26.2022 H   0  0  0  0  0  0
  -28.3909  -32.6811   25.0330 H   0  0  0  0  0  0
  -28.0715  -31.8458   26.5450 H   0  0  0  0  0  0
  -28.2587  -38.0105   24.7519 H   0  0  0  0  0  0
  -28.1090  -36.2636   24.6281 H   0  0  0  0  0  0
  -27.2307  -37.1445   25.8871 H   0  0  0  0  0  0
  -20.9400  -29.8810   21.6888 H   0  0  0  0  0  0
  -26.0166  -38.2840   24.1405 H   0  0  0  0  0  0
  -30.0087  -18.8137   24.1088 H   0  0  0  0  0  0
  -29.5626  -18.3250   19.2310 H   0  0  0  0  0  0
  -29.7049  -15.3665   25.3091 H   0  0  0  0  0  0
  -29.0794  -17.0911   25.1415 H   0  0  0  0  0  0
  -30.5383  -15.3746   23.0806 H   0  0  0  0  0  0
  -29.5517  -22.3534   24.4701 H   0  0  0  0  0  0
  -30.5647  -20.9386   24.7143 H   0  0  0  0  0  0
  -28.7930  -20.7769   24.6253 H   0  0  0  0  0  0
  -29.7317  -23.8778   21.1283 H   0  0  0  0  0  0
  -29.7695  -23.7491   19.3980 H   0  0  0  0  0  0
  -27.2483  -24.6756   20.8894 H   0  0  0  0  0  0
  -27.5266  -24.6489   19.1718 H   0  0  0  0  0  0
  -27.7963  -22.0400   19.6298 H   0  0  0  0  0  0
  -28.0836  -21.9878   21.3108 H   0  0  0  0  0  0
  -28.7645  -15.5552   20.4845 H   0  0  0  0  0  0
  1 25  1  0  0  0
  1 30  2  0  0  0
  1 83  1  0  0  0
  2  3  1  0  0  0
  2 25  1  0  0  0
  2 86  1  0  0  0
  2 87  1  0  0  0
  3  4  1  0  0  0
  3 88  1  0  0  0
  3 89  1  0  0  0
  4  5  1  0  0  0
  4 90  1  0  0  0
  4 91  1  0  0  0
  5  6  1  0  0  0
  5 26  1  0  0  0
  5 92  1  0  0  0
  6 25  1  0  0  0
  6 93  1  0  0  0
  6 94  1  0  0  0
  7  8  2  0  0  0
  7 26  1  0  0  0
  7 29  1  0  0  0
  8  9  1  0  0  0
  8 22  1  0  0  0
  9 10  1  0  0  0
  9 27  2  0  0  0
 10 11  2  0  0  0
 10 15  1  0  0  0
 11 12  1  0  0  0
 11 95  1  0  0  0
 12 13  2  0  0  0
 12 96  1  0  0  0
 13 14  1  0  0  0
 13 31  1  0  0  0
 14 15  2  0  0  0
 14 97  1  0  0  0
 15 98  1  0  0  0
 16 17  2  0  0  0
 16 21  1  0  0  0
 16 31  1  0  0  0
 17 18  1  0  0  0
 17 99  1  0  0  0
 18 19  2  0  0  0
 18100  1  0  0  0
 19 20  1  0  0  0
 19 24  1  0  0  0
 20 21  2  0  0  0
 20101  1  0  0  0
 21 23  1  0  0  0
 22 28  1  0  0  0
 22 32  2  0  0  0
 26 27  1  0  0  0
 28102  1  0  0  0
 28103  1  0  0  0
 29104  1  0  0  0
 29105  1  0  0  0
 33 34  1  0  0  0
 33 66  1  0  0  0
 33 70  2  0  0  0
 34 36  1  0  0  0
 34 59  1  0  0  0
 34106  1  0  0  0
 35 44  2  0  0  0
 35 45  1  0  0  0
 35 68  1  0  0  0
 36 56  1  0  0  0
 36107  1  0  0  0
 37 39  1  0  0  0
 37 47  1  0  0  0
 37 66  1  0  0  0
 37108  1  0  0  0
 38 43  2  0  0  0
 38 46  1  0  0  0
 38 47  1  0  0  0
 39 64  1  0  0  0
 39 67  2  0  0  0
 40 52  1  0  0  0
 40 53  2  0  0  0
 40 58  1  0  0  0
 41109  1  0  0  0
 41110  1  0  0  0
 41111  1  0  0  0
 41 48  1  0  0  0
 42 43  1  0  0  0
 42 66  1  0  0  0
 42112  1  0  0  0
 42113  1  0  0  0
 43 44  1  0  0  0
 44114  1  0  0  0
 45 46  2  0  0  0
 45115  1  0  0  0
 46116  1  0  0  0
 47117  1  0  0  0
 47118  1  0  0  0
 48 56  1  0  0  0
 48 65  1  0  0  0
 48119  1  0  0  0
 49 50  1  0  0  0
 49 53  1  0  0  0
 49 64  1  0  0  0
 49120  1  0  0  0
 50 51  1  0  0  0
 50121  1  0  0  0
 50122  1  0  0  0
 51 52  1  0  0  0
 51123  1  0  0  0
 51124  1  0  0  0
 52125  1  0  0  0
 52126  1  0  0  0
 53 54  1  0  0  0
 54 55  2  0  0  0
 54127  1  0  0  0
 55 57  1  0  0  0
 55128  1  0  0  0
 56 69  2  0  0  0
 57 58  2  0  0  0
 57129  1  0  0  0
 58130  1  0  0  0
 59 60  1  0  0  0
 59 61  1  0  0  0
 59 62  1  0  0  0
 60131  1  0  0  0
 60132  1  0  0  0
 60133  1  0  0  0
 61134  1  0  0  0
 61135  1  0  0  0
 61136  1  0  0  0
 62137  1  0  0  0
 62138  1  0  0  0
 62139  1  0  0  0
 63 65  1  0  0  0
 63140  1  0  0  0
 63141  1  0  0  0
 63142  1  0  0  0
 64143  1  0  0  0
 65144  1  0  0  0
 68 81  1  0  0  0
 71 73  2  0  0  0
 71 75  1  0  0  0
 71145  1  0  0  0
 72 74  2  0  0  0
 72 76  1  0  0  0
 72146  1  0  0  0
 73 74  1  0  0  0
 73 78  1  0  0  0
 74 83  1  0  0  0
 75 76  2  0  0  0
 75 84  1  0  0  0
 76 85  1  0  0  0
 77 78  2  0  0  0
 77147  1  0  0  0
 77148  1  0  0  0
 78149  1  0  0  0
 79 84  1  0  0  0
 79150  1  0  0  0
 79151  1  0  0  0
 79152  1  0  0  0
 80 81  1  0  0  0
 80 82  1  0  0  0
 80153  1  0  0  0
 80154  1  0  0  0
 81155  1  0  0  0
 81156  1  0  0  0
 82 85  1  0  0  0
 82157  1  0  0  0
 82158  1  0  0  0
 83159  1  0  0  0
M  ISO  4   1 100  68 101  81 101  83 100
M  END
> <chiral flag>
0

> <version>
0

> <s_m_source_file>
/data/baiqing/PycharmProjects/Reinvent-master-3.2/result/LINK_invent/BTK/process_docking_weight1_custom_product_contain_oxygen_bond_distance_aromatic_linkinvent_7_9_3/rearranged_h_0116.sdf

> <i_m_source_file_index>
67

> <r_mmod_Potential_Energy-OPLS-2005>
241.034652709961

> <r_mmod_Stretch_Energy-OPLS-2005>
131.492767333984

> <r_mmod_Bend_Energy-OPLS-2005>
185.86376953125

> <r_mmod_Torsional_Energy-OPLS-2005>
274.504791259766

> <r_mmod_Improper_Torsional_Energy-OPLS-2005>
10.1413955688477

> <r_mmod_Van_der_Waal_Energy-OPLS-2005>
153.482604980469

> <r_mmod_Electrostatic_Energy-OPLS-2005>
-387.252807617188

> <r_mmod_Solvation_Energy-OPLS-2005>
-218.449447631836

> <b_mmod_Minimization_Converged-OPLS-2005>
0

> <r_mmod_RMS_Derivative-OPLS-2005>
1.30567514896393

$$$$
67
                    3D
 Structure written by MMmdl.
156164  0  0  1  0            999 V2000
  -30.7063  -14.7113   20.5755 C   0  0  0  0  0  0
  -30.4231  -12.4725   19.4819 C   0  0  0  0  0  0
  -29.5015  -12.5418   18.2457 C   0  0  0  0  0  0
  -28.0295  -12.3707   18.6532 C   0  0  0  0  0  0
  -27.6514  -13.2437   19.8776 C   0  0  2  0  0  0
  -28.7018  -13.1343   21.0095 C   0  0  0  0  0  0
  -25.2429  -13.8187   20.5470 C   0  0  0  0  0  0
  -24.1789  -13.0438   20.9150 C   0  0  0  0  0  0
  -24.6424  -11.6926   20.8802 C   0  0  0  0  0  0
  -23.9106  -10.4292   21.0450 C   0  0  0  0  0  0
  -24.3640   -9.4190   21.9223 C   0  0  0  0  0  0
  -23.6303   -8.2233   22.0782 C   0  0  0  0  0  0
  -22.4292   -8.0280   21.3560 C   0  0  0  0  0  0
  -21.9948   -9.0259   20.4661 C   0  0  0  0  0  0
  -22.7279  -10.2139   20.3096 C   0  0  0  0  0  0
  -21.6850   -6.0727   22.5281 C   0  0  0  0  0  0
  -21.4009   -6.5638   23.8215 C   0  0  0  0  0  0
  -21.3669   -5.6799   24.9185 C   0  0  0  0  0  0
  -21.6050   -4.3061   24.7240 C   0  0  0  0  0  0
  -21.8818   -3.8142   23.4362 C   0  0  0  0  0  0
  -21.9197   -4.6952   22.3409 C   0  0  0  0  0  0
  -22.7804  -13.5199   21.1824 C   0  0  0  0  0  0
  -22.1659   -4.2127   21.0993 F   0  0  0  0  0  0
  -21.5642   -3.4557   25.7757 F   0  0  0  0  0  0
  -30.0060  -13.5191   20.4580 N   0  0  0  0  0  0
  -26.2987  -12.9469   20.3416 N   0  0  0  0  0  0
  -25.9386  -11.6596   20.5913 N   0  0  0  0  0  0
  -22.0480  -12.8213   22.0415 N   0  0  0  0  0  0
  -25.3925  -15.1854   20.3349 N   0  0  0  0  0  0
  -31.7695  -14.8291   19.9577 O   0  0  0  0  0  0
  -21.6645   -6.8881   21.4246 O   0  0  0  0  0  0
  -22.3460  -14.5494   20.6667 O   0  0  0  0  0  0
  -24.6325  -31.8534   23.1992 C   0  0  0  0  0  0
  -25.9146  -32.4747   23.8334 C   0  0  1  0  0  0
  -27.2264  -27.2583   20.1487 C   0  0  0  0  0  0
  -25.5940  -33.8547   24.2258 N   0  0  0  0  0  0
  -23.4317  -30.4748   21.5426 C   0  0  2  0  0  0
  -24.8823  -28.9241   20.1116 C   0  0  0  0  0  0
  -22.7515  -29.4578   22.4915 C   0  0  0  0  0  0
  -18.0289  -28.1404   22.8478 C   0  0  0  0  0  0
  -24.1493  -36.7304   23.2635 C   0  0  0  0  0  0
  -25.9769  -30.7691   21.3780 C   0  0  0  0  0  0
  -26.0529  -29.3899   20.7245 C   0  0  0  0  0  0
  -27.2302  -28.5731   20.7264 C   0  0  0  0  0  0
  -26.0419  -26.8741   19.4799 C   0  0  0  0  0  0
  -24.8840  -27.6759   19.4714 C   0  0  0  0  0  0
  -23.6521  -29.8096   20.1583 C   0  0  0  0  0  0
  -25.4112  -36.3070   24.0323 C   0  0  1  0  0  0
  -20.5891  -28.3706   23.1280 C   0  0  2  0  0  0
  -20.6781  -26.9424   22.5419 C   0  0  0  0  0  0
  -19.5757  -26.6397   21.5225 C   0  0  0  0  0  0
  -18.1934  -26.7943   22.1627 C   0  0  0  0  0  0
  -19.1539  -28.8875   23.2869 C   0  0  0  0  0  0
  -18.9460  -30.1481   23.8878 C   0  0  0  0  0  0
  -17.6451  -30.6595   24.0575 C   0  0  0  0  0  0
  -25.9052  -34.9432   23.5094 C   0  0  0  0  0  0
  -16.5344  -29.9090   23.6336 C   0  0  0  0  0  0
  -16.7272  -28.6521   23.0332 C   0  0  0  0  0  0
  -26.4513  -31.6560   25.0712 C   0  0  0  0  0  0
  -25.3755  -31.3702   26.1449 C   0  0  0  0  0  0
  -27.0349  -30.2973   24.6193 C   0  0  0  0  0  0
  -27.6062  -32.4293   25.7495 C   0  0  0  0  0  0
  -27.5584  -37.1790   24.8444 C   0  0  0  0  0  0
  -21.4215  -29.3045   22.3662 N   0  0  0  0  0  0
  -26.4282  -37.3773   23.9417 N   0  0  0  0  0  0
  -24.6995  -31.0493   22.0974 N   0  0  0  0  0  0
  -23.4199  -28.8115   23.3023 O   0  0  0  0  0  0
  -28.3079  -26.3449   20.2174 O   0  0  0  0  0  0
  -26.5625  -34.8905   22.4664 O   0  0  0  0  0  0
  -23.5472  -32.1352   23.7284 O   0  0  0  0  0  0
  -29.7703  -18.4239   20.9538 C   0  0  0  0  0  0
  -27.2568  -18.1364   22.0629 C   0  0  0  0  0  0
  -29.4021  -17.0945   21.4466 C   0  0  0  0  0  0
  -28.1403  -17.0340   22.1155 C   0  0  0  0  0  0
  -28.9344  -19.6209   21.0443 C   0  0  0  0  0  0
  -27.6333  -19.3945   21.5627 C   0  0  0  0  0  0
  -26.5006  -15.5221   23.3162 C   0  0  0  0  0  0
  -27.7452  -15.8874   22.9703 C   0  0  0  0  0  0
  -30.3876  -15.8886   21.6145 C   0  0  0  0  0  0
  -29.0507  -23.6731   20.4639 C   0  0  0  0  0  0
  -28.0020  -24.9104   20.5832 C   0  0  0  0  0  0
  -28.5536  -22.1793   20.8748 C   0  0  0  0  0  0
  -31.0872  -15.9112   22.6737 N   0  0  0  0  0  0
  -29.3776  -20.9374   20.6660 O   0  0  0  0  0  0
  -26.7147  -20.3845   21.6505 F   0  0  0  0  0  0
  -31.4631  -12.5718   19.1691 H   0  0  0  0  0  0
  -30.3649  -11.4876   19.9469 H   0  0  0  0  0  0
  -29.7806  -11.7741   17.5234 H   0  0  0  0  0  0
  -29.6326  -13.5008   17.7421 H   0  0  0  0  0  0
  -27.8654  -11.3184   18.8868 H   0  0  0  0  0  0
  -27.3768  -12.6030   17.8102 H   0  0  0  0  0  0
  -27.6597  -14.2763   19.5293 H   0  0  0  0  0  0
  -28.7405  -12.1157   21.3972 H   0  0  0  0  0  0
  -28.4338  -13.7495   21.8559 H   0  0  0  0  0  0
  -25.2791   -9.5641   22.4799 H   0  0  0  0  0  0
  -23.9992   -7.4625   22.7513 H   0  0  0  0  0  0
  -21.0890   -8.8786   19.8949 H   0  0  0  0  0  0
  -22.3754  -10.9690   19.6210 H   0  0  0  0  0  0
  -21.1984   -7.6142   23.9699 H   0  0  0  0  0  0
  -21.1501   -6.0538   25.9081 H   0  0  0  0  0  0
  -22.0590   -2.7601   23.2873 H   0  0  0  0  0  0
  -22.4125  -11.9899   22.4836 H   0  0  0  0  0  0
  -21.1093  -13.1227   22.2633 H   0  0  0  0  0  0
  -24.6033  -15.8195   20.3694 H   0  0  0  0  0  0
  -26.2372  -15.6210   19.9918 H   0  0  0  0  0  0
  -26.7206  -32.5408   23.1067 H   0  0  0  0  0  0
  -25.0054  -33.9675   25.0387 H   0  0  0  0  0  0
  -22.7287  -31.2972   21.3962 H   0  0  0  0  0  0
  -23.3757  -35.9631   23.3235 H   0  0  0  0  0  0
  -24.3598  -36.9004   22.2064 H   0  0  0  0  0  0
  -23.7230  -37.6478   23.6707 H   0  0  0  0  0  0
  -26.1101  -31.5260   20.6036 H   0  0  0  0  0  0
  -26.8571  -30.8239   22.0073 H   0  0  0  0  0  0
  -28.1273  -28.9278   21.2141 H   0  0  0  0  0  0
  -25.9910  -25.9344   18.9511 H   0  0  0  0  0  0
  -23.9973  -27.3221   18.9634 H   0  0  0  0  0  0
  -23.7797  -30.5876   19.4054 H   0  0  0  0  0  0
  -22.7721  -29.2419   19.8497 H   0  0  0  0  0  0
  -25.1285  -36.1908   25.0813 H   0  0  0  0  0  0
  -20.9978  -28.3292   24.1403 H   0  0  0  0  0  0
  -20.5708  -26.2309   23.3614 H   0  0  0  0  0  0
  -21.6645  -26.7457   22.1198 H   0  0  0  0  0  0
  -19.6913  -25.6312   21.1247 H   0  0  0  0  0  0
  -19.6694  -27.3214   20.6762 H   0  0  0  0  0  0
  -17.4205  -26.6691   21.4030 H   0  0  0  0  0  0
  -18.0319  -26.0095   22.9028 H   0  0  0  0  0  0
  -19.7932  -30.7317   24.2223 H   0  0  0  0  0  0
  -17.5000  -31.6260   24.5200 H   0  0  0  0  0  0
  -15.5346  -30.2980   23.7679 H   0  0  0  0  0  0
  -15.8678  -28.0855   22.7018 H   0  0  0  0  0  0
  -24.5903  -30.7085   25.7776 H   0  0  0  0  0  0
  -24.8988  -32.2872   26.4917 H   0  0  0  0  0  0
  -25.8093  -30.8832   27.0197 H   0  0  0  0  0  0
  -26.2917  -29.6713   24.1244 H   0  0  0  0  0  0
  -27.4050  -29.7236   25.4702 H   0  0  0  0  0  0
  -27.8791  -30.4224   23.9411 H   0  0  0  0  0  0
  -27.2657  -33.3584   26.2076 H   0  0  0  0  0  0
  -28.3877  -32.6870   25.0333 H   0  0  0  0  0  0
  -28.0728  -31.8417   26.5413 H   0  0  0  0  0  0
  -28.2548  -38.0141   24.7562 H   0  0  0  0  0  0
  -28.1141  -36.2675   24.6180 H   0  0  0  0  0  0
  -27.2316  -37.1323   25.8848 H   0  0  0  0  0  0
  -20.9411  -29.8759   21.6852 H   0  0  0  0  0  0
  -26.0156  -38.2841   24.1462 H   0  0  0  0  0  0
  -30.7710  -18.5463   20.5632 H   0  0  0  0  0  0
  -26.2812  -18.0702   22.5195 H   0  0  0  0  0  0
  -26.3421  -14.6800   23.9745 H   0  0  0  0  0  0
  -25.6220  -16.0333   22.9556 H   0  0  0  0  0  0
  -28.5441  -15.3046   23.4097 H   0  0  0  0  0  0
  -29.9345  -23.9147   21.0564 H   0  0  0  0  0  0
  -29.3930  -23.6323   19.4308 H   0  0  0  0  0  0
  -27.6710  -24.9468   21.6222 H   0  0  0  0  0  0
  -27.1245  -24.5735   20.0382 H   0  0  0  0  0  0
  -27.6200  -22.0339   20.3331 H   0  0  0  0  0  0
  -28.2997  -22.2151   21.9363 H   0  0  0  0  0  0
  -30.8494  -16.7173   23.2411 H   0  0  0  0  0  0
  1 25  1  0  0  0
  1 30  2  0  0  0
  1 79  1  0  0  0
  2  3  1  0  0  0
  2 25  1  0  0  0
  2 86  1  0  0  0
  2 87  1  0  0  0
  3  4  1  0  0  0
  3 88  1  0  0  0
  3 89  1  0  0  0
  4  5  1  0  0  0
  4 90  1  0  0  0
  4 91  1  0  0  0
  5  6  1  0  0  0
  5 26  1  0  0  0
  5 92  1  0  0  0
  6 25  1  0  0  0
  6 93  1  0  0  0
  6 94  1  0  0  0
  7  8  2  0  0  0
  7 26  1  0  0  0
  7 29  1  0  0  0
  8  9  1  0  0  0
  8 22  1  0  0  0
  9 10  1  0  0  0
  9 27  2  0  0  0
 10 11  2  0  0  0
 10 15  1  0  0  0
 11 12  1  0  0  0
 11 95  1  0  0  0
 12 13  2  0  0  0
 12 96  1  0  0  0
 13 14  1  0  0  0
 13 31  1  0  0  0
 14 15  2  0  0  0
 14 97  1  0  0  0
 15 98  1  0  0  0
 16 17  2  0  0  0
 16 21  1  0  0  0
 16 31  1  0  0  0
 17 18  1  0  0  0
 17 99  1  0  0  0
 18 19  2  0  0  0
 18100  1  0  0  0
 19 20  1  0  0  0
 19 24  1  0  0  0
 20 21  2  0  0  0
 20101  1  0  0  0
 21 23  1  0  0  0
 22 28  1  0  0  0
 22 32  2  0  0  0
 26 27  1  0  0  0
 28102  1  0  0  0
 28103  1  0  0  0
 29104  1  0  0  0
 29105  1  0  0  0
 33 34  1  0  0  0
 33 66  1  0  0  0
 33 70  2  0  0  0
 34 36  1  0  0  0
 34 59  1  0  0  0
 34106  1  0  0  0
 35 44  2  0  0  0
 35 45  1  0  0  0
 35 68  1  0  0  0
 36 56  1  0  0  0
 36107  1  0  0  0
 37 39  1  0  0  0
 37 47  1  0  0  0
 37 66  1  0  0  0
 37108  1  0  0  0
 38 43  2  0  0  0
 38 46  1  0  0  0
 38 47  1  0  0  0
 39 64  1  0  0  0
 39 67  2  0  0  0
 40 52  1  0  0  0
 40 53  2  0  0  0
 40 58  1  0  0  0
 41109  1  0  0  0
 41110  1  0  0  0
 41111  1  0  0  0
 41 48  1  0  0  0
 42 43  1  0  0  0
 42 66  1  0  0  0
 42112  1  0  0  0
 42113  1  0  0  0
 43 44  1  0  0  0
 44114  1  0  0  0
 45 46  2  0  0  0
 45115  1  0  0  0
 46116  1  0  0  0
 47117  1  0  0  0
 47118  1  0  0  0
 48 56  1  0  0  0
 48 65  1  0  0  0
 48119  1  0  0  0
 49 50  1  0  0  0
 49 53  1  0  0  0
 49 64  1  0  0  0
 49120  1  0  0  0
 50 51  1  0  0  0
 50121  1  0  0  0
 50122  1  0  0  0
 51 52  1  0  0  0
 51123  1  0  0  0
 51124  1  0  0  0
 52125  1  0  0  0
 52126  1  0  0  0
 53 54  1  0  0  0
 54 55  2  0  0  0
 54127  1  0  0  0
 55 57  1  0  0  0
 55128  1  0  0  0
 56 69  2  0  0  0
 57 58  2  0  0  0
 57129  1  0  0  0
 58130  1  0  0  0
 59 60  1  0  0  0
 59 61  1  0  0  0
 59 62  1  0  0  0
 60131  1  0  0  0
 60132  1  0  0  0
 60133  1  0  0  0
 61134  1  0  0  0
 61135  1  0  0  0
 61136  1  0  0  0
 62137  1  0  0  0
 62138  1  0  0  0
 62139  1  0  0  0
 63 65  1  0  0  0
 63140  1  0  0  0
 63141  1  0  0  0
 63142  1  0  0  0
 64143  1  0  0  0
 65144  1  0  0  0
 68 81  1  0  0  0
 71 73  2  0  0  0
 71 75  1  0  0  0
 71145  1  0  0  0
 72 74  2  0  0  0
 72 76  1  0  0  0
 72146  1  0  0  0
 73 74  1  0  0  0
 73 79  1  0  0  0
 74 78  1  0  0  0
 75 76  2  0  0  0
 75 84  1  0  0  0
 76 85  1  0  0  0
 77 78  2  0  0  0
 77147  1  0  0  0
 77148  1  0  0  0
 78149  1  0  0  0
 79 83  2  0  0  0
 80 81  1  0  0  0
 80 82  1  0  0  0
 80150  1  0  0  0
 80151  1  0  0  0
 81152  1  0  0  0
 81153  1  0  0  0
 82 84  1  0  0  0
 82154  1  0  0  0
 82155  1  0  0  0
 83156  1  0  0  0
M  ISO  4   1 100  68 101  79 100  81 101
M  END
> <chiral flag>
0

> <version>
0

> <s_m_source_file>
/data/baiqing/PycharmProjects/Reinvent-master-3.2/result/LINK_invent/BTK/process_docking_weight1_custom_product_contain_oxygen_bond_distance_aromatic_linkinvent_7_9_3/rearranged_h_0116.sdf

> <i_m_source_file_index>
68

> <r_mmod_Potential_Energy-OPLS-2005>
449.031890869141

> <r_mmod_Stretch_Energy-OPLS-2005>
152.452423095703

> <r_mmod_Bend_Energy-OPLS-2005>
222.441848754883

> <r_mmod_Torsional_Energy-OPLS-2005>
260.605682373047

> <r_mmod_Improper_Torsional_Energy-OPLS-2005>
8.64201164245605

> <r_mmod_Van_der_Waal_Energy-OPLS-2005>
150.759353637695

> <r_mmod_Electrostatic_Energy-OPLS-2005>
-226.035598754883

> <r_mmod_Solvation_Energy-OPLS-2005>
-199.910461425781

> <b_mmod_Minimization_Converged-OPLS-2005>
0

> <r_mmod_RMS_Derivative-OPLS-2005>
2.60298132896423

$$$$
68
                    3D
 Structure written by MMmdl.
146154  0  0  1  0            999 V2000
  -30.0777  -16.3529   20.2984 C   0  0  0  0  0  0
  -30.3346  -13.6492   19.5125 C   0  0  0  0  0  0
  -29.5535  -12.8747   18.3873 C   0  0  0  0  0  0
  -28.2089  -12.3476   18.8869 C   0  0  0  0  0  0
  -27.5750  -13.3942   19.8168 C   0  0  2  0  0  0
  -28.5387  -14.0361   20.8723 C   0  0  0  0  0  0
  -25.2204  -13.8420   20.5925 C   0  0  0  0  0  0
  -24.1683  -13.0451   20.9339 C   0  0  0  0  0  0
  -24.6507  -11.7005   20.8757 C   0  0  0  0  0  0
  -23.9219  -10.4318   21.0361 C   0  0  0  0  0  0
  -24.3726   -9.4230   21.9154 C   0  0  0  0  0  0
  -23.6351   -8.2280   22.0758 C   0  0  0  0  0  0
  -22.4326   -8.0316   21.3552 C   0  0  0  0  0  0
  -21.9999   -9.0306   20.4649 C   0  0  0  0  0  0
  -22.7364  -10.2167   20.3029 C   0  0  0  0  0  0
  -21.6873   -6.0765   22.5269 C   0  0  0  0  0  0
  -21.4028   -6.5667   23.8199 C   0  0  0  0  0  0
  -21.3661   -5.6816   24.9162 C   0  0  0  0  0  0
  -21.6028   -4.3072   24.7212 C   0  0  0  0  0  0
  -21.8822   -3.8175   23.4334 C   0  0  0  0  0  0
  -21.9202   -4.6995   22.3391 C   0  0  0  0  0  0
  -22.7668  -13.5092   21.1935 C   0  0  0  0  0  0
  -22.1660   -4.2170   21.0965 F   0  0  0  0  0  0
  -21.5629   -3.4556   25.7728 F   0  0  0  0  0  0
  -29.5689  -14.8887   20.1538 N   0  0  0  0  0  0
  -26.2787  -12.9933   20.3446 N   0  0  0  0  0  0
  -25.9498  -11.6894   20.5697 N   0  0  0  0  0  0
  -22.0366  -12.8048   22.0498 N   0  0  0  0  0  0
  -25.3616  -15.2168   20.4354 N   0  0  0  0  0  0
  -31.3137  -16.0734   20.2716 O   0  0  0  0  0  0
  -21.6671   -6.8922   21.4236 O   0  0  0  0  0  0
  -22.3299  -14.5347   20.6732 O   0  0  0  0  0  0
  -24.7296  -31.7396   23.1138 C   0  0  0  0  0  0
  -25.9639  -32.4166   23.7865 C   0  0  1  0  0  0
  -27.2437  -26.2082   20.2682 C   0  0  0  0  0  0
  -25.6005  -33.8026   24.1678 N   0  0  0  0  0  0
  -23.5788  -30.3187   21.4775 C   0  0  2  0  0  0
  -25.0391  -28.5535   20.1373 C   0  0  0  0  0  0
  -22.7963  -29.3993   22.4591 C   0  0  0  0  0  0
  -18.0371  -28.1429   22.8412 C   0  0  0  0  0  0
  -24.1511  -36.7029   23.2654 C   0  0  0  0  0  0
  -26.1733  -30.3084   21.4528 C   0  0  0  0  0  0
  -26.2316  -28.8161   20.8197 C   0  0  0  0  0  0
  -27.2915  -27.6868   20.8406 C   0  0  0  0  0  0
  -26.0209  -26.2858   19.5119 C   0  0  0  0  0  0
  -25.0013  -27.3179   19.4603 C   0  0  0  0  0  0
  -23.8597  -29.5697   20.1354 C   0  0  0  0  0  0
  -25.4181  -36.2731   24.0244 C   0  0  1  0  0  0
  -20.6021  -28.3808   23.1045 C   0  0  2  0  0  0
  -20.6798  -26.9428   22.5395 C   0  0  0  0  0  0
  -19.5786  -26.6345   21.5201 C   0  0  0  0  0  0
  -18.1979  -26.7936   22.1615 C   0  0  0  0  0  0
  -19.1646  -28.8952   23.2693 C   0  0  0  0  0  0
  -18.9540  -30.1519   23.8767 C   0  0  0  0  0  0
  -17.6526  -30.6599   24.0531 C   0  0  0  0  0  0
  -25.9194  -34.9121   23.4850 C   0  0  0  0  0  0
  -16.5414  -29.9082   23.6344 C   0  0  0  0  0  0
  -16.7351  -28.6507   23.0359 C   0  0  0  0  0  0
  -26.4690  -31.6409   25.0680 C   0  0  0  0  0  0
  -25.3654  -31.3846   26.1228 C   0  0  0  0  0  0
  -27.0676  -30.2692   24.6904 C   0  0  0  0  0  0
  -27.6056  -32.4373   25.7517 C   0  0  0  0  0  0
  -27.5571  -37.1661   24.8460 C   0  0  0  0  0  0
  -21.4568  -29.2965   22.3324 N   0  0  0  0  0  0
  -26.4265  -37.3548   23.9418 N   0  0  0  0  0  0
  -24.8569  -30.8347   22.0673 N   0  0  0  0  0  0
  -23.4169  -28.7681   23.3162 O   0  0  0  0  0  0
  -28.1586  -24.7744   20.3101 O   0  0  0  0  0  0
  -26.5916  -34.8804   22.4516 O   0  0  0  0  0  0
  -23.6213  -32.0706   23.5761 O   0  0  0  0  0  0
  -28.7376  -21.4309   20.3081 C   0  0  0  0  0  0
  -26.1336  -18.7413   20.9030 C   0  0  0  0  0  0
  -28.0481  -22.9827   20.2402 C   0  0  0  0  0  0
  -27.3457  -19.2206   21.2223 C   0  0  0  0  0  0
  -30.1959  -20.8760   20.5819 C   0  0  0  0  0  0
  -30.5878  -19.2090   20.3941 C   0  0  0  0  0  0
  -28.4612  -19.5061   20.2329 C   0  0  2  0  0  0
  -29.5832  -18.0254   20.3117 N   0  0  0  0  0  0
  -31.2451  -14.0113   19.0341 H   0  0  0  0  0  0
  -30.6987  -12.9597   20.2770 H   0  0  0  0  0  0
  -30.1563  -12.0571   17.9891 H   0  0  0  0  0  0
  -29.3739  -13.5614   17.5590 H   0  0  0  0  0  0
  -28.3851  -11.4267   19.4454 H   0  0  0  0  0  0
  -27.5488  -12.0941   18.0565 H   0  0  0  0  0  0
  -27.3408  -14.2107   19.1309 H   0  0  0  0  0  0
  -28.9700  -13.2873   21.5397 H   0  0  0  0  0  0
  -27.9710  -14.7068   21.5189 H   0  0  0  0  0  0
  -25.2858   -9.5688   22.4762 H   0  0  0  0  0  0
  -24.0034   -7.4665   22.7488 H   0  0  0  0  0  0
  -21.0928   -8.8822   19.8963 H   0  0  0  0  0  0
  -22.3778  -10.9714   19.6155 H   0  0  0  0  0  0
  -21.2005   -7.6171   23.9706 H   0  0  0  0  0  0
  -21.1479   -6.0547   25.9059 H   0  0  0  0  0  0
  -22.0592   -2.7635   23.2823 H   0  0  0  0  0  0
  -22.4077  -11.9749   22.4890 H   0  0  0  0  0  0
  -21.0946  -13.0967   22.2683 H   0  0  0  0  0  0
  -24.5798  -15.8501   20.5601 H   0  0  0  0  0  0
  -26.2112  -15.6866   20.1512 H   0  0  0  0  0  0
  -26.7768  -32.4532   23.0607 H   0  0  0  0  0  0
  -24.9926  -33.8981   24.9688 H   0  0  0  0  0  0
  -22.9340  -31.1681   21.2461 H   0  0  0  0  0  0
  -23.3806  -35.9316   23.3205 H   0  0  0  0  0  0
  -24.3578  -36.8830   22.2089 H   0  0  0  0  0  0
  -23.7234  -37.6147   23.6843 H   0  0  0  0  0  0
  -26.4230  -30.9952   20.6423 H   0  0  0  0  0  0
  -27.0099  -30.3964   22.1323 H   0  0  0  0  0  0
  -28.1810  -27.9134   21.4119 H   0  0  0  0  0  0
  -25.7822  -25.3900   18.9567 H   0  0  0  0  0  0
  -24.1190  -27.0959   18.8773 H   0  0  0  0  0  0
  -24.0842  -30.3100   19.3668 H   0  0  0  0  0  0
  -22.9544  -29.0656   19.7922 H   0  0  0  0  0  0
  -25.1409  -36.1424   25.0728 H   0  0  0  0  0  0
  -21.0070  -28.3458   24.1183 H   0  0  0  0  0  0
  -20.5584  -26.2460   23.3702 H   0  0  0  0  0  0
  -21.6659  -26.7285   22.1263 H   0  0  0  0  0  0
  -19.6947  -25.6226   21.1301 H   0  0  0  0  0  0
  -19.6725  -27.3089   20.6678 H   0  0  0  0  0  0
  -17.4226  -26.6615   21.4054 H   0  0  0  0  0  0
  -18.0420  -26.0129   22.9067 H   0  0  0  0  0  0
  -19.8025  -30.7348   24.2091 H   0  0  0  0  0  0
  -17.5092  -31.6267   24.5167 H   0  0  0  0  0  0
  -15.5414  -30.2960   23.7735 H   0  0  0  0  0  0
  -15.8747  -28.0796   22.7145 H   0  0  0  0  0  0
  -24.5842  -30.7212   25.7509 H   0  0  0  0  0  0
  -24.8859  -32.3102   26.4405 H   0  0  0  0  0  0
  -25.7743  -30.9139   27.0175 H   0  0  0  0  0  0
  -26.3472  -29.6180   24.1943 H   0  0  0  0  0  0
  -27.3964  -29.7296   25.5797 H   0  0  0  0  0  0
  -27.9517  -30.3720   24.0612 H   0  0  0  0  0  0
  -27.2541  -33.3768   26.1794 H   0  0  0  0  0  0
  -28.4030  -32.6780   25.0475 H   0  0  0  0  0  0
  -28.0567  -31.8704   26.5672 H   0  0  0  0  0  0
  -28.2493  -38.0047   24.7572 H   0  0  0  0  0  0
  -28.1162  -36.2559   24.6216 H   0  0  0  0  0  0
  -27.2288  -37.1201   25.8859 H   0  0  0  0  0  0
  -20.9995  -29.8567   21.6267 H   0  0  0  0  0  0
  -26.0039  -38.2568   24.1449 H   0  0  0  0  0  0
  -25.3900  -18.5610   21.6671 H   0  0  0  0  0  0
  -25.8624  -18.5152   19.8818 H   0  0  0  0  0  0
  -26.9926  -22.8455   20.0563 H   0  0  0  0  0  0
  -27.5662  -19.4288   22.2607 H   0  0  0  0  0  0
  -30.3767  -21.1185   21.6306 H   0  0  0  0  0  0
  -30.9120  -21.4903   20.0346 H   0  0  0  0  0  0
  -31.2980  -18.9510   21.1809 H   0  0  0  0  0  0
  -31.1750  -19.1301   19.4784 H   0  0  0  0  0  0
  -28.0148  -19.3902   19.2445 H   0  0  0  0  0  0
  1 25  1  0  0  0
  1 30  2  0  0  0
  1 78  1  0  0  0
  2  3  1  0  0  0
  2 25  1  0  0  0
  2 79  1  0  0  0
  2 80  1  0  0  0
  3  4  1  0  0  0
  3 81  1  0  0  0
  3 82  1  0  0  0
  4  5  1  0  0  0
  4 83  1  0  0  0
  4 84  1  0  0  0
  5  6  1  0  0  0
  5 26  1  0  0  0
  5 85  1  0  0  0
  6 25  1  0  0  0
  6 86  1  0  0  0
  6 87  1  0  0  0
  7  8  2  0  0  0
  7 26  1  0  0  0
  7 29  1  0  0  0
  8  9  1  0  0  0
  8 22  1  0  0  0
  9 10  1  0  0  0
  9 27  2  0  0  0
 10 11  2  0  0  0
 10 15  1  0  0  0
 11 12  1  0  0  0
 11 88  1  0  0  0
 12 13  2  0  0  0
 12 89  1  0  0  0
 13 14  1  0  0  0
 13 31  1  0  0  0
 14 15  2  0  0  0
 14 90  1  0  0  0
 15 91  1  0  0  0
 16 17  2  0  0  0
 16 21  1  0  0  0
 16 31  1  0  0  0
 17 18  1  0  0  0
 17 92  1  0  0  0
 18 19  2  0  0  0
 18 93  1  0  0  0
 19 20  1  0  0  0
 19 24  1  0  0  0
 20 21  2  0  0  0
 20 94  1  0  0  0
 21 23  1  0  0  0
 22 28  1  0  0  0
 22 32  2  0  0  0
 26 27  1  0  0  0
 28 95  1  0  0  0
 28 96  1  0  0  0
 29 97  1  0  0  0
 29 98  1  0  0  0
 33 34  1  0  0  0
 33 66  1  0  0  0
 33 70  2  0  0  0
 34 36  1  0  0  0
 34 59  1  0  0  0
 34 99  1  0  0  0
 35 44  2  0  0  0
 35 45  1  0  0  0
 35 68  1  0  0  0
 36 56  1  0  0  0
 36100  1  0  0  0
 37 39  1  0  0  0
 37 47  1  0  0  0
 37 66  1  0  0  0
 37101  1  0  0  0
 38 43  2  0  0  0
 38 46  1  0  0  0
 38 47  1  0  0  0
 39 64  1  0  0  0
 39 67  2  0  0  0
 40 52  1  0  0  0
 40 53  2  0  0  0
 40 58  1  0  0  0
 41102  1  0  0  0
 41103  1  0  0  0
 41104  1  0  0  0
 41 48  1  0  0  0
 42 43  1  0  0  0
 42 66  1  0  0  0
 42105  1  0  0  0
 42106  1  0  0  0
 43 44  1  0  0  0
 44107  1  0  0  0
 45 46  2  0  0  0
 45108  1  0  0  0
 46109  1  0  0  0
 47110  1  0  0  0
 47111  1  0  0  0
 48 56  1  0  0  0
 48 65  1  0  0  0
 48112  1  0  0  0
 49 50  1  0  0  0
 49 53  1  0  0  0
 49 64  1  0  0  0
 49113  1  0  0  0
 50 51  1  0  0  0
 50114  1  0  0  0
 50115  1  0  0  0
 51 52  1  0  0  0
 51116  1  0  0  0
 51117  1  0  0  0
 52118  1  0  0  0
 52119  1  0  0  0
 53 54  1  0  0  0
 54 55  2  0  0  0
 54120  1  0  0  0
 55 57  1  0  0  0
 55121  1  0  0  0
 56 69  2  0  0  0
 57 58  2  0  0  0
 57122  1  0  0  0
 58123  1  0  0  0
 59 60  1  0  0  0
 59 61  1  0  0  0
 59 62  1  0  0  0
 60124  1  0  0  0
 60125  1  0  0  0
 60126  1  0  0  0
 61127  1  0  0  0
 61128  1  0  0  0
 61129  1  0  0  0
 62130  1  0  0  0
 62131  1  0  0  0
 62132  1  0  0  0
 63 65  1  0  0  0
 63133  1  0  0  0
 63134  1  0  0  0
 63135  1  0  0  0
 64136  1  0  0  0
 65137  1  0  0  0
 68 73  1  0  0  0
 71 73  2  0  0  0
 71 75  1  0  0  0
 71 77  1  0  0  0
 72 74  2  0  0  0
 72138  1  0  0  0
 72139  1  0  0  0
 73140  1  0  0  0
 74141  1  0  0  0
 74 77  1  0  0  0
 75 76  1  0  0  0
 75142  1  0  0  0
 75143  1  0  0  0
 76 78  1  0  0  0
 76144  1  0  0  0
 76145  1  0  0  0
 77 78  1  0  0  0
 77146  1  0  0  0
M  ISO  4   1 100  68 101  73 101  78 100
M  END
> <chiral flag>
0

> <version>
0

> <s_m_source_file>
/data/baiqing/PycharmProjects/Reinvent-master-3.2/result/LINK_invent/BTK/process_docking_weight1_custom_product_contain_oxygen_bond_distance_aromatic_linkinvent_7_9_3/rearranged_h_0116.sdf

> <i_m_source_file_index>
69

> <r_mmod_Potential_Energy-OPLS-2005>
5433.62060546875

> <r_mmod_Stretch_Energy-OPLS-2005>
2088.15844726562

> <r_mmod_Bend_Energy-OPLS-2005>
1163.19165039062

> <r_mmod_Torsional_Energy-OPLS-2005>
275.599304199219

> <r_mmod_Improper_Torsional_Energy-OPLS-2005>
5.35490131378174

> <r_mmod_Van_der_Waal_Energy-OPLS-2005>
111.430992126465

> <r_mmod_Electrostatic_Energy-OPLS-2005>
-275.889373779297

> <r_mmod_Solvation_Energy-OPLS-2005>
-202.430740356445

> <b_mmod_Minimization_Converged-OPLS-2005>
0

> <r_mmod_RMS_Derivative-OPLS-2005>
3.25461030006409

$$$$
69
                    3D
 Structure written by MMmdl.
155163  0  0  1  0            999 V2000
  -30.6428  -14.5409   20.5225 C   0  0  0  0  0  0
  -30.4282  -12.3330   19.4278 C   0  0  0  0  0  0
  -29.5004  -12.5128   18.2077 C   0  0  0  0  0  0
  -28.0194  -12.3694   18.6154 C   0  0  0  0  0  0
  -27.6570  -13.2102   19.8673 C   0  0  2  0  0  0
  -28.7002  -13.0000   20.9844 C   0  0  0  0  0  0
  -25.2557  -13.8132   20.5609 C   0  0  0  0  0  0
  -24.1840  -13.0418   20.9141 C   0  0  0  0  0  0
  -24.6386  -11.6883   20.8713 C   0  0  0  0  0  0
  -23.9044  -10.4270   21.0380 C   0  0  0  0  0  0
  -24.3602   -9.4220   21.9181 C   0  0  0  0  0  0
  -23.6295   -8.2234   22.0752 C   0  0  0  0  0  0
  -22.4282   -8.0258   21.3536 C   0  0  0  0  0  0
  -21.9891   -9.0216   20.4638 C   0  0  0  0  0  0
  -22.7202  -10.2111   20.3050 C   0  0  0  0  0  0
  -21.6848   -6.0744   22.5281 C   0  0  0  0  0  0
  -21.4008   -6.5639   23.8218 C   0  0  0  0  0  0
  -21.3668   -5.6797   24.9172 C   0  0  0  0  0  0
  -21.6043   -4.3050   24.7222 C   0  0  0  0  0  0
  -21.8824   -3.8153   23.4339 C   0  0  0  0  0  0
  -21.9198   -4.6962   22.3398 C   0  0  0  0  0  0
  -22.7877  -13.5245   21.1852 C   0  0  0  0  0  0
  -22.1683   -4.2161   21.0973 F   0  0  0  0  0  0
  -21.5627   -3.4527   25.7728 F   0  0  0  0  0  0
  -30.0266  -13.3261   20.4350 N   0  0  0  0  0  0
  -26.3000  -12.9316   20.3310 N   0  0  0  0  0  0
  -25.9305  -11.6476   20.5713 N   0  0  0  0  0  0
  -22.0506  -12.8233   22.0386 N   0  0  0  0  0  0
  -25.4229  -15.1830   20.3935 N   0  0  0  0  0  0
  -31.7954  -14.6893   20.1064 O   0  0  0  0  0  0
  -21.6641   -6.8858   21.4239 O   0  0  0  0  0  0
  -22.3574  -14.5568   20.6741 O   0  0  0  0  0  0
  -24.6176  -31.8669   23.2065 C   0  0  0  0  0  0
  -25.9073  -32.4814   23.8366 C   0  0  1  0  0  0
  -27.2244  -27.4053   20.1095 C   0  0  0  0  0  0
  -25.5906  -33.8602   24.2305 N   0  0  0  0  0  0
  -23.4062  -30.4904   21.5476 C   0  0  2  0  0  0
  -24.8526  -28.9548   20.1101 C   0  0  0  0  0  0
  -22.7438  -29.4668   22.4967 C   0  0  0  0  0  0
  -18.0266  -28.1310   22.8557 C   0  0  0  0  0  0
  -24.1490  -36.7315   23.2638 C   0  0  0  0  0  0
  -25.9357  -30.8282   21.3587 C   0  0  0  0  0  0
  -26.0161  -29.4610   20.7053 C   0  0  0  0  0  0
  -27.2091  -28.6952   20.6977 C   0  0  0  0  0  0
  -26.0530  -26.9303   19.4863 C   0  0  0  0  0  0
  -24.8695  -27.6922   19.4928 C   0  0  0  0  0  0
  -23.6135  -29.8252   20.1612 C   0  0  0  0  0  0
  -25.4109  -36.3107   24.0332 C   0  0  1  0  0  0
  -20.5851  -28.3701   23.1261 C   0  0  2  0  0  0
  -20.6781  -26.9486   22.5234 C   0  0  0  0  0  0
  -19.5651  -26.6400   21.5171 C   0  0  0  0  0  0
  -18.1922  -26.7832   22.1761 C   0  0  0  0  0  0
  -19.1509  -28.8811   23.2900 C   0  0  0  0  0  0
  -18.9410  -30.1449   23.8843 C   0  0  0  0  0  0
  -17.6396  -30.6591   24.0439 C   0  0  0  0  0  0
  -25.9040  -34.9471   23.5122 C   0  0  0  0  0  0
  -16.5307  -29.9051   23.6246 C   0  0  0  0  0  0
  -16.7243  -28.6431   23.0370 C   0  0  0  0  0  0
  -26.4497  -31.6600   25.0691 C   0  0  0  0  0  0
  -25.3753  -31.3668   26.1427 C   0  0  0  0  0  0
  -27.0317  -30.3055   24.6032 C   0  0  0  0  0  0
  -27.6069  -32.4292   25.7482 C   0  0  0  0  0  0
  -27.5576  -37.1815   24.8465 C   0  0  0  0  0  0
  -21.4133  -29.3163   22.3782 N   0  0  0  0  0  0
  -26.4292  -37.3791   23.9413 N   0  0  0  0  0  0
  -24.6714  -31.0752   22.0979 N   0  0  0  0  0  0
  -23.4223  -28.8148   23.2971 O   0  0  0  0  0  0
  -28.3475  -26.6014   20.1435 O   0  0  0  0  0  0
  -26.5594  -34.8933   22.4674 O   0  0  0  0  0  0
  -23.5358  -32.1420   23.7441 O   0  0  0  0  0  0
  -27.7739  -17.7562   21.1552 C   0  0  0  0  0  0
  -26.8518  -18.8203   21.2049 C   0  0  0  0  0  0
  -29.4547  -19.2779   20.3099 C   0  0  0  0  0  0
  -29.0806  -17.9504   20.6634 C   0  0  0  0  0  0
  -27.2043  -20.1215   20.7802 C   0  0  0  0  0  0
  -28.5506  -20.3760   20.3960 C   0  0  0  0  0  0
  -25.0379  -21.2197   21.4429 C   0  0  0  0  0  0
  -26.1740  -21.1785   20.7266 C   0  0  0  0  0  0
  -29.9960  -16.7719   20.4715 C   0  0  0  0  0  0
  -28.7752  -24.1124   20.1235 C   0  0  0  0  0  0
  -28.1521  -25.3395   20.8451 C   0  0  0  0  0  0
  -28.8412  -22.7570   20.8907 C   0  0  0  0  0  0
  -29.7882  -15.5797   20.9215 N   0  0  0  0  0  0
  -29.2182  -24.2107   18.9720 O   0  0  0  0  0  0
  -28.9884  -21.6326   19.9877 O   0  0  0  0  0  0
  -31.4723  -12.4348   19.1256 H   0  0  0  0  0  0
  -30.3285  -11.3256   19.8355 H   0  0  0  0  0  0
  -29.7494  -11.7876   17.4322 H   0  0  0  0  0  0
  -29.6629  -13.4957   17.7623 H   0  0  0  0  0  0
  -27.8328  -11.3153   18.8177 H   0  0  0  0  0  0
  -27.3706  -12.6411   17.7823 H   0  0  0  0  0  0
  -27.6915  -14.2578   19.5663 H   0  0  0  0  0  0
  -28.6918  -11.9631   21.3253 H   0  0  0  0  0  0
  -28.4583  -13.6016   21.8625 H   0  0  0  0  0  0
  -25.2733   -9.5740   22.4753 H   0  0  0  0  0  0
  -24.0025   -7.4644   22.7474 H   0  0  0  0  0  0
  -21.0825   -8.8725   19.8930 H   0  0  0  0  0  0
  -22.3645  -10.9657   19.6165 H   0  0  0  0  0  0
  -21.2001   -7.6147   23.9722 H   0  0  0  0  0  0
  -21.1494   -6.0517   25.9084 H   0  0  0  0  0  0
  -22.0598   -2.7604   23.2823 H   0  0  0  0  0  0
  -22.4127  -11.9887   22.4776 H   0  0  0  0  0  0
  -21.1117  -13.1266   22.2581 H   0  0  0  0  0  0
  -24.6506  -15.8337   20.4759 H   0  0  0  0  0  0
  -26.2754  -15.6033   20.0499 H   0  0  0  0  0  0
  -26.7123  -32.5546   23.1108 H   0  0  0  0  0  0
  -25.0094  -33.9753   25.0478 H   0  0  0  0  0  0
  -22.6966  -31.3082   21.4065 H   0  0  0  0  0  0
  -23.3737  -35.9665   23.3312 H   0  0  0  0  0  0
  -24.3578  -36.8925   22.2052 H   0  0  0  0  0  0
  -23.7265  -37.6523   23.6651 H   0  0  0  0  0  0
  -26.0328  -31.5925   20.5856 H   0  0  0  0  0  0
  -26.8287  -30.8922   21.9688 H   0  0  0  0  0  0
  -28.1053  -29.0795   21.1670 H   0  0  0  0  0  0
  -26.0524  -25.9623   19.0055 H   0  0  0  0  0  0
  -23.9824  -27.2967   19.0195 H   0  0  0  0  0  0
  -23.7213  -30.6022   19.4028 H   0  0  0  0  0  0
  -22.7371  -29.2445   19.8651 H   0  0  0  0  0  0
  -25.1291  -36.1952   25.0821 H   0  0  0  0  0  0
  -20.9952  -28.3201   24.1374 H   0  0  0  0  0  0
  -20.5979  -26.2303   23.3398 H   0  0  0  0  0  0
  -21.6575  -26.7684   22.0804 H   0  0  0  0  0  0
  -19.6843  -25.6329   21.1170 H   0  0  0  0  0  0
  -19.6403  -27.3223   20.6692 H   0  0  0  0  0  0
  -18.0516  -25.9972   22.9190 H   0  0  0  0  0  0
  -17.4081  -26.6445   21.4302 H   0  0  0  0  0  0
  -19.7861  -30.7279   24.2208 H   0  0  0  0  0  0
  -17.4917  -31.6298   24.4960 H   0  0  0  0  0  0
  -15.5290  -30.2926   23.7514 H   0  0  0  0  0  0
  -15.8651  -28.0689   22.7201 H   0  0  0  0  0  0
  -24.5954  -30.6997   25.7745 H   0  0  0  0  0  0
  -24.8934  -32.2810   26.4895 H   0  0  0  0  0  0
  -25.8134  -30.8822   27.0174 H   0  0  0  0  0  0
  -26.2847  -29.6821   24.1122 H   0  0  0  0  0  0
  -27.4140  -29.7274   25.4462 H   0  0  0  0  0  0
  -27.8659  -30.4381   23.9136 H   0  0  0  0  0  0
  -27.2696  -33.3587   26.2083 H   0  0  0  0  0  0
  -28.3916  -32.6851   25.0346 H   0  0  0  0  0  0
  -28.0705  -31.8392   26.5404 H   0  0  0  0  0  0
  -28.2589  -38.0114   24.7502 H   0  0  0  0  0  0
  -28.1069  -36.2639   24.6308 H   0  0  0  0  0  0
  -27.2283  -37.1498   25.8864 H   0  0  0  0  0  0
  -20.9276  -29.8966   21.7093 H   0  0  0  0  0  0
  -26.0166  -38.2864   24.1415 H   0  0  0  0  0  0
  -27.4497  -16.7662   21.4441 H   0  0  0  0  0  0
  -25.8400  -18.6058   21.5178 H   0  0  0  0  0  0
  -30.4544  -19.4629   19.9477 H   0  0  0  0  0  0
  -24.3378  -22.0320   21.3113 H   0  0  0  0  0  0
  -24.7787  -20.4621   22.1693 H   0  0  0  0  0  0
  -26.3416  -21.9768   20.0161 H   0  0  0  0  0  0
  -30.8770  -17.0004   19.8613 H   0  0  0  0  0  0
  -27.0941  -25.1302   21.0087 H   0  0  0  0  0  0
  -28.5966  -25.4312   21.8378 H   0  0  0  0  0  0
  -29.7196  -22.7786   21.5372 H   0  0  0  0  0  0
  -27.9892  -22.6514   21.5599 H   0  0  0  0  0  0
  1 25  1  0  0  0
  1 30  2  0  0  0
  1 83  1  0  0  0
  2  3  1  0  0  0
  2 25  1  0  0  0
  2 86  1  0  0  0
  2 87  1  0  0  0
  3  4  1  0  0  0
  3 88  1  0  0  0
  3 89  1  0  0  0
  4  5  1  0  0  0
  4 90  1  0  0  0
  4 91  1  0  0  0
  5  6  1  0  0  0
  5 26  1  0  0  0
  5 92  1  0  0  0
  6 25  1  0  0  0
  6 93  1  0  0  0
  6 94  1  0  0  0
  7  8  2  0  0  0
  7 26  1  0  0  0
  7 29  1  0  0  0
  8  9  1  0  0  0
  8 22  1  0  0  0
  9 10  1  0  0  0
  9 27  2  0  0  0
 10 11  2  0  0  0
 10 15  1  0  0  0
 11 12  1  0  0  0
 11 95  1  0  0  0
 12 13  2  0  0  0
 12 96  1  0  0  0
 13 14  1  0  0  0
 13 31  1  0  0  0
 14 15  2  0  0  0
 14 97  1  0  0  0
 15 98  1  0  0  0
 16 17  2  0  0  0
 16 21  1  0  0  0
 16 31  1  0  0  0
 17 18  1  0  0  0
 17 99  1  0  0  0
 18 19  2  0  0  0
 18100  1  0  0  0
 19 20  1  0  0  0
 19 24  1  0  0  0
 20 21  2  0  0  0
 20101  1  0  0  0
 21 23  1  0  0  0
 22 28  1  0  0  0
 22 32  2  0  0  0
 26 27  1  0  0  0
 28102  1  0  0  0
 28103  1  0  0  0
 29104  1  0  0  0
 29105  1  0  0  0
 33 34  1  0  0  0
 33 66  1  0  0  0
 33 70  2  0  0  0
 34 36  1  0  0  0
 34 59  1  0  0  0
 34106  1  0  0  0
 35 44  2  0  0  0
 35 45  1  0  0  0
 35 68  1  0  0  0
 36 56  1  0  0  0
 36107  1  0  0  0
 37 39  1  0  0  0
 37 47  1  0  0  0
 37 66  1  0  0  0
 37108  1  0  0  0
 38 43  2  0  0  0
 38 46  1  0  0  0
 38 47  1  0  0  0
 39 64  1  0  0  0
 39 67  2  0  0  0
 40 52  1  0  0  0
 40 53  2  0  0  0
 40 58  1  0  0  0
 41109  1  0  0  0
 41110  1  0  0  0
 41111  1  0  0  0
 41 48  1  0  0  0
 42 43  1  0  0  0
 42 66  1  0  0  0
 42112  1  0  0  0
 42113  1  0  0  0
 43 44  1  0  0  0
 44114  1  0  0  0
 45 46  2  0  0  0
 45115  1  0  0  0
 46116  1  0  0  0
 47117  1  0  0  0
 47118  1  0  0  0
 48 56  1  0  0  0
 48 65  1  0  0  0
 48119  1  0  0  0
 49 50  1  0  0  0
 49 53  1  0  0  0
 49 64  1  0  0  0
 49120  1  0  0  0
 50 51  1  0  0  0
 50121  1  0  0  0
 50122  1  0  0  0
 51 52  1  0  0  0
 51123  1  0  0  0
 51124  1  0  0  0
 52125  1  0  0  0
 52126  1  0  0  0
 53 54  1  0  0  0
 54 55  2  0  0  0
 54127  1  0  0  0
 55 57  1  0  0  0
 55128  1  0  0  0
 56 69  2  0  0  0
 57 58  2  0  0  0
 57129  1  0  0  0
 58130  1  0  0  0
 59 60  1  0  0  0
 59 61  1  0  0  0
 59 62  1  0  0  0
 60131  1  0  0  0
 60132  1  0  0  0
 60133  1  0  0  0
 61134  1  0  0  0
 61135  1  0  0  0
 61136  1  0  0  0
 62137  1  0  0  0
 62138  1  0  0  0
 62139  1  0  0  0
 63 65  1  0  0  0
 63140  1  0  0  0
 63141  1  0  0  0
 63142  1  0  0  0
 64143  1  0  0  0
 65144  1  0  0  0
 68 81  1  0  0  0
 71 72  2  0  0  0
 71 74  1  0  0  0
 71145  1  0  0  0
 72 75  1  0  0  0
 72146  1  0  0  0
 73 74  2  0  0  0
 73 76  1  0  0  0
 73147  1  0  0  0
 74 79  1  0  0  0
 75 76  2  0  0  0
 75 78  1  0  0  0
 76 85  1  0  0  0
 77 78  2  0  0  0
 77148  1  0  0  0
 77149  1  0  0  0
 78150  1  0  0  0
 79 83  2  0  0  0
 79151  1  0  0  0
 80 81  1  0  0  0
 80 82  1  0  0  0
 80 84  2  0  0  0
 81152  1  0  0  0
 81153  1  0  0  0
 82 85  1  0  0  0
 82154  1  0  0  0
 82155  1  0  0  0
M  ISO  4   1 100  68 101  81 101  83 100
M  END
> <chiral flag>
0

> <version>
0

> <s_m_source_file>
/data/baiqing/PycharmProjects/Reinvent-master-3.2/result/LINK_invent/BTK/process_docking_weight1_custom_product_contain_oxygen_bond_distance_aromatic_linkinvent_7_9_3/rearranged_h_0116.sdf

> <i_m_source_file_index>
70

> <r_mmod_Potential_Energy-OPLS-2005>
31.5647163391113

> <r_mmod_Stretch_Energy-OPLS-2005>
50.6986083984375

> <r_mmod_Bend_Energy-OPLS-2005>
101.594688415527

> <r_mmod_Torsional_Energy-OPLS-2005>
220.011810302734

> <r_mmod_Improper_Torsional_Energy-OPLS-2005>
5.39312267303467

> <r_mmod_Van_der_Waal_Energy-OPLS-2005>
158.404983520508

> <r_mmod_Electrostatic_Energy-OPLS-2005>
-315.330657958984

> <r_mmod_Solvation_Energy-OPLS-2005>
-210.969589233398

> <b_mmod_Minimization_Converged-OPLS-2005>
0

> <r_mmod_RMS_Derivative-OPLS-2005>
4.04919624328613

$$$$
70
                    3D
 Structure written by MMmdl.
156165  0  0  1  0            999 V2000
  -30.6715  -14.5728   20.4701 C   0  0  0  0  0  0
  -30.4207  -12.3377   19.4634 C   0  0  0  0  0  0
  -29.5062  -12.4832   18.2274 C   0  0  0  0  0  0
  -28.0252  -12.3403   18.6315 C   0  0  0  0  0  0
  -27.6508  -13.2159   19.8577 C   0  0  2  0  0  0
  -28.6916  -13.0724   20.9892 C   0  0  0  0  0  0
  -25.2542  -13.8178   20.5667 C   0  0  0  0  0  0
  -24.1810  -13.0443   20.9176 C   0  0  0  0  0  0
  -24.6380  -11.6913   20.8737 C   0  0  0  0  0  0
  -23.9053  -10.4293   21.0400 C   0  0  0  0  0  0
  -24.3609   -9.4207   21.9169 C   0  0  0  0  0  0
  -23.6278   -8.2251   22.0749 C   0  0  0  0  0  0
  -22.4257   -8.0290   21.3547 C   0  0  0  0  0  0
  -21.9890   -9.0265   20.4648 C   0  0  0  0  0  0
  -22.7228  -10.2136   20.3047 C   0  0  0  0  0  0
  -21.6862   -6.0719   22.5274 C   0  0  0  0  0  0
  -21.4025   -6.5622   23.8207 C   0  0  0  0  0  0
  -21.3658   -5.6773   24.9168 C   0  0  0  0  0  0
  -21.6045   -4.3038   24.7217 C   0  0  0  0  0  0
  -21.8820   -3.8123   23.4342 C   0  0  0  0  0  0
  -21.9195   -4.6941   22.3398 C   0  0  0  0  0  0
  -22.7829  -13.5238   21.1835 C   0  0  0  0  0  0
  -22.1657   -4.2125   21.0976 F   0  0  0  0  0  0
  -21.5625   -3.4528   25.7730 F   0  0  0  0  0  0
  -30.0173  -13.3736   20.4327 N   0  0  0  0  0  0
  -26.2967  -12.9357   20.3283 N   0  0  0  0  0  0
  -25.9307  -11.6514   20.5755 N   0  0  0  0  0  0
  -22.0468  -12.8250   22.0406 N   0  0  0  0  0  0
  -25.4257  -15.1901   20.4113 N   0  0  0  0  0  0
  -31.8621  -14.6435   20.1511 O   0  0  0  0  0  0
  -21.6643   -6.8869   21.4240 O   0  0  0  0  0  0
  -22.3516  -14.5531   20.6657 O   0  0  0  0  0  0
  -24.6173  -31.8650   23.2077 C   0  0  0  0  0  0
  -25.9055  -32.4802   23.8380 C   0  0  1  0  0  0
  -27.2307  -27.4002   20.1072 C   0  0  0  0  0  0
  -25.5903  -33.8600   24.2314 N   0  0  0  0  0  0
  -23.4082  -30.4868   21.5477 C   0  0  2  0  0  0
  -24.8589  -28.9495   20.1133 C   0  0  0  0  0  0
  -22.7425  -29.4637   22.4969 C   0  0  0  0  0  0
  -18.0278  -28.1378   22.8482 C   0  0  0  0  0  0
  -24.1489  -36.7303   23.2636 C   0  0  0  0  0  0
  -25.9415  -30.8194   21.3690 C   0  0  0  0  0  0
  -26.0210  -29.4509   20.7164 C   0  0  0  0  0  0
  -27.2134  -28.6830   20.7146 C   0  0  0  0  0  0
  -26.0572  -26.9248   19.4918 C   0  0  0  0  0  0
  -24.8731  -27.6866   19.4959 C   0  0  0  0  0  0
  -23.6203  -29.8181   20.1630 C   0  0  0  0  0  0
  -25.4104  -36.3096   24.0337 C   0  0  1  0  0  0
  -20.5867  -28.3664   23.1308 C   0  0  2  0  0  0
  -20.6768  -26.9394   22.5423 C   0  0  0  0  0  0
  -19.5754  -26.6375   21.5212 C   0  0  0  0  0  0
  -18.1929  -26.7927   22.1612 C   0  0  0  0  0  0
  -19.1526  -28.8842   23.2893 C   0  0  0  0  0  0
  -18.9453  -30.1446   23.8902 C   0  0  0  0  0  0
  -17.6455  -30.6576   24.0567 C   0  0  0  0  0  0
  -25.9033  -34.9462   23.5121 C   0  0  0  0  0  0
  -16.5348  -29.9079   23.6327 C   0  0  0  0  0  0
  -16.7263  -28.6499   23.0343 C   0  0  0  0  0  0
  -26.4474  -31.6590   25.0720 C   0  0  0  0  0  0
  -25.3739  -31.3719   26.1475 C   0  0  0  0  0  0
  -27.0298  -30.3020   24.6122 C   0  0  0  0  0  0
  -27.6049  -32.4309   25.7475 C   0  0  0  0  0  0
  -27.5585  -37.1799   24.8453 C   0  0  0  0  0  0
  -21.4152  -29.3019   22.3707 N   0  0  0  0  0  0
  -26.4288  -37.3783   23.9409 N   0  0  0  0  0  0
  -24.6734  -31.0723   22.0989 N   0  0  0  0  0  0
  -23.4182  -28.8185   23.3032 O   0  0  0  0  0  0
  -28.3348  -26.5702   20.1003 O   0  0  0  0  0  0
  -26.5601  -34.8916   22.4686 O   0  0  0  0  0  0
  -23.5359  -32.1420   23.7452 O   0  0  0  0  0  0
  -29.3336  -18.9902   19.0587 C   0  0  0  0  0  0
  -29.0197  -20.3854   19.2256 C   0  0  0  0  0  0
  -29.7420  -18.3438   20.1985 C   0  0  0  0  0  0
  -29.2146  -20.8346   20.5174 C   0  0  0  0  0  0
  -28.7595  -24.5104   21.3902 C   0  0  0  0  0  0
  -30.3248  -17.0142   20.2584 C   0  0  0  0  0  0
  -28.5437  -25.8482   21.2571 C   0  0  0  0  0  0
  -29.8464  -15.7944   20.6395 C   0  0  0  0  0  0
  -28.9772  -23.8721   22.7432 C   0  0  0  0  0  0
  -28.8079  -23.3960   20.3422 C   0  0  0  0  0  0
  -29.1968  -22.3727   22.5050 C   0  0  0  0  0  0
  -28.5457  -21.2277   18.0760 C   0  0  0  0  0  0
  -29.0376  -22.1343   21.0774 N   0  0  0  0  0  0
  -29.7749  -19.4852   21.5277 S   0  0  0  0  0  0
  -31.4686  -12.4203   19.1693 H   0  0  0  0  0  0
  -30.3159  -11.3467   19.9071 H   0  0  0  0  0  0
  -29.7614  -11.7303   17.4800 H   0  0  0  0  0  0
  -29.6720  -13.4525   17.7558 H   0  0  0  0  0  0
  -27.8500  -11.2891   18.8623 H   0  0  0  0  0  0
  -27.3786  -12.5758   17.7858 H   0  0  0  0  0  0
  -27.6705  -14.2494   19.5140 H   0  0  0  0  0  0
  -28.6823  -12.0593   21.3913 H   0  0  0  0  0  0
  -28.4528  -13.7221   21.8315 H   0  0  0  0  0  0
  -25.2755   -9.5676   22.4744 H   0  0  0  0  0  0
  -23.9980   -7.4646   22.7475 H   0  0  0  0  0  0
  -21.0814   -8.8793   19.8967 H   0  0  0  0  0  0
  -22.3686  -10.9673   19.6157 H   0  0  0  0  0  0
  -21.2027   -7.6132   23.9710 H   0  0  0  0  0  0
  -21.1473   -6.0496   25.9069 H   0  0  0  0  0  0
  -22.0598   -2.7580   23.2858 H   0  0  0  0  0  0
  -22.4070  -11.9919   22.4817 H   0  0  0  0  0  0
  -21.1101  -13.1323   22.2621 H   0  0  0  0  0  0
  -24.6615  -15.8461   20.5289 H   0  0  0  0  0  0
  -26.2814  -15.6346   20.1028 H   0  0  0  0  0  0
  -26.7125  -32.5511   23.1144 H   0  0  0  0  0  0
  -25.0073  -33.9753   25.0474 H   0  0  0  0  0  0
  -22.6977  -31.3039   21.4059 H   0  0  0  0  0  0
  -23.3746  -35.9640   23.3291 H   0  0  0  0  0  0
  -24.3592  -36.8924   22.2049 H   0  0  0  0  0  0
  -23.7245  -37.6504   23.6660 H   0  0  0  0  0  0
  -26.0625  -31.5843   20.6006 H   0  0  0  0  0  0
  -26.8256  -30.8712   21.9931 H   0  0  0  0  0  0
  -28.1090  -29.0597   21.1891 H   0  0  0  0  0  0
  -26.0594  -25.9500   19.0241 H   0  0  0  0  0  0
  -23.9817  -27.2943   19.0261 H   0  0  0  0  0  0
  -23.7280  -30.5921   19.4024 H   0  0  0  0  0  0
  -22.7442  -29.2384   19.8668 H   0  0  0  0  0  0
  -25.1282  -36.1959   25.0830 H   0  0  0  0  0  0
  -20.9957  -28.3239   24.1430 H   0  0  0  0  0  0
  -20.5655  -26.2268   23.3610 H   0  0  0  0  0  0
  -21.6644  -26.7431   22.1229 H   0  0  0  0  0  0
  -19.6914  -25.6289   21.1232 H   0  0  0  0  0  0
  -19.6698  -27.3187   20.6746 H   0  0  0  0  0  0
  -17.4204  -26.6681   21.4011 H   0  0  0  0  0  0
  -18.0312  -26.0063   22.8991 H   0  0  0  0  0  0
  -19.7931  -30.7268   24.2264 H   0  0  0  0  0  0
  -17.5008  -31.6256   24.5169 H   0  0  0  0  0  0
  -15.5350  -30.2983   23.7645 H   0  0  0  0  0  0
  -15.8662  -28.0822   22.7058 H   0  0  0  0  0  0
  -24.5906  -30.7064   25.7835 H   0  0  0  0  0  0
  -24.8944  -32.2887   26.4913 H   0  0  0  0  0  0
  -25.8096  -30.8905   27.0240 H   0  0  0  0  0  0
  -26.2852  -29.6786   24.1162 H   0  0  0  0  0  0
  -27.4034  -29.7251   25.4592 H   0  0  0  0  0  0
  -27.8702  -30.4315   23.9298 H   0  0  0  0  0  0
  -27.2673  -33.3596   26.2086 H   0  0  0  0  0  0
  -28.3838  -32.6891   25.0290 H   0  0  0  0  0  0
  -28.0742  -31.8420   26.5368 H   0  0  0  0  0  0
  -28.2593  -38.0105   24.7516 H   0  0  0  0  0  0
  -28.1094  -36.2643   24.6252 H   0  0  0  0  0  0
  -27.2318  -37.1414   25.8859 H   0  0  0  0  0  0
  -20.9316  -29.8741   21.6928 H   0  0  0  0  0  0
  -26.0177  -38.2857   24.1426 H   0  0  0  0  0  0
  -29.2755  -18.5127   18.0914 H   0  0  0  0  0  0
  -31.3419  -17.0285   19.8891 H   0  0  0  0  0  0
  -28.5278  -26.4962   22.1231 H   0  0  0  0  0  0
  -28.8428  -15.7374   21.0317 H   0  0  0  0  0  0
  -28.1040  -24.0418   23.3753 H   0  0  0  0  0  0
  -29.8379  -24.3226   23.2392 H   0  0  0  0  0  0
  -29.6138  -23.5903   19.6334 H   0  0  0  0  0  0
  -27.8625  -23.3681   19.7989 H   0  0  0  0  0  0
  -28.4727  -21.7835   23.0704 H   0  0  0  0  0  0
  -30.1950  -22.0759   22.8325 H   0  0  0  0  0  0
  -28.4794  -20.6511   17.1535 H   0  0  0  0  0  0
  -29.2234  -22.0588   17.8830 H   0  0  0  0  0  0
  -27.5540  -21.6366   18.2685 H   0  0  0  0  0  0
  1 25  1  0  0  0
  1 30  2  0  0  0
  1 78  1  0  0  0
  2  3  1  0  0  0
  2 25  1  0  0  0
  2 85  1  0  0  0
  2 86  1  0  0  0
  3  4  1  0  0  0
  3 87  1  0  0  0
  3 88  1  0  0  0
  4  5  1  0  0  0
  4 89  1  0  0  0
  4 90  1  0  0  0
  5  6  1  0  0  0
  5 26  1  0  0  0
  5 91  1  0  0  0
  6 25  1  0  0  0
  6 92  1  0  0  0
  6 93  1  0  0  0
  7  8  2  0  0  0
  7 26  1  0  0  0
  7 29  1  0  0  0
  8  9  1  0  0  0
  8 22  1  0  0  0
  9 10  1  0  0  0
  9 27  2  0  0  0
 10 11  2  0  0  0
 10 15  1  0  0  0
 11 12  1  0  0  0
 11 94  1  0  0  0
 12 13  2  0  0  0
 12 95  1  0  0  0
 13 14  1  0  0  0
 13 31  1  0  0  0
 14 15  2  0  0  0
 14 96  1  0  0  0
 15 97  1  0  0  0
 16 17  2  0  0  0
 16 21  1  0  0  0
 16 31  1  0  0  0
 17 18  1  0  0  0
 17 98  1  0  0  0
 18 19  2  0  0  0
 18 99  1  0  0  0
 19 20  1  0  0  0
 19 24  1  0  0  0
 20 21  2  0  0  0
 20100  1  0  0  0
 21 23  1  0  0  0
 22 28  1  0  0  0
 22 32  2  0  0  0
 26 27  1  0  0  0
 28101  1  0  0  0
 28102  1  0  0  0
 29103  1  0  0  0
 29104  1  0  0  0
 33 34  1  0  0  0
 33 66  1  0  0  0
 33 70  2  0  0  0
 34 36  1  0  0  0
 34 59  1  0  0  0
 34105  1  0  0  0
 35 44  2  0  0  0
 35 45  1  0  0  0
 35 68  1  0  0  0
 36 56  1  0  0  0
 36106  1  0  0  0
 37 39  1  0  0  0
 37 47  1  0  0  0
 37 66  1  0  0  0
 37107  1  0  0  0
 38 43  2  0  0  0
 38 46  1  0  0  0
 38 47  1  0  0  0
 39 64  1  0  0  0
 39 67  2  0  0  0
 40 52  1  0  0  0
 40 53  2  0  0  0
 40 58  1  0  0  0
 41108  1  0  0  0
 41109  1  0  0  0
 41110  1  0  0  0
 41 48  1  0  0  0
 42 43  1  0  0  0
 42 66  1  0  0  0
 42111  1  0  0  0
 42112  1  0  0  0
 43 44  1  0  0  0
 44113  1  0  0  0
 45 46  2  0  0  0
 45114  1  0  0  0
 46115  1  0  0  0
 47116  1  0  0  0
 47117  1  0  0  0
 48 56  1  0  0  0
 48 65  1  0  0  0
 48118  1  0  0  0
 49 50  1  0  0  0
 49 53  1  0  0  0
 49 64  1  0  0  0
 49119  1  0  0  0
 50 51  1  0  0  0
 50120  1  0  0  0
 50121  1  0  0  0
 51 52  1  0  0  0
 51122  1  0  0  0
 51123  1  0  0  0
 52124  1  0  0  0
 52125  1  0  0  0
 53 54  1  0  0  0
 54 55  2  0  0  0
 54126  1  0  0  0
 55 57  1  0  0  0
 55127  1  0  0  0
 56 69  2  0  0  0
 57 58  2  0  0  0
 57128  1  0  0  0
 58129  1  0  0  0
 59 60  1  0  0  0
 59 61  1  0  0  0
 59 62  1  0  0  0
 60130  1  0  0  0
 60131  1  0  0  0
 60132  1  0  0  0
 61133  1  0  0  0
 61134  1  0  0  0
 61135  1  0  0  0
 62136  1  0  0  0
 62137  1  0  0  0
 62138  1  0  0  0
 63 65  1  0  0  0
 63139  1  0  0  0
 63140  1  0  0  0
 63141  1  0  0  0
 64142  1  0  0  0
 65143  1  0  0  0
 68 77  1  0  0  0
 71 72  1  0  0  0
 71 73  2  0  0  0
 71144  1  0  0  0
 72 74  2  0  0  0
 72 82  1  0  0  0
 73 76  1  0  0  0
 73 84  1  0  0  0
 74 83  1  0  0  0
 74 84  1  0  0  0
 75 77  2  0  0  0
 75 79  1  0  0  0
 75 80  1  0  0  0
 76 78  2  0  0  0
 76145  1  0  0  0
 77146  1  0  0  0
 78147  1  0  0  0
 79 81  1  0  0  0
 79148  1  0  0  0
 79149  1  0  0  0
 80 83  1  0  0  0
 80150  1  0  0  0
 80151  1  0  0  0
 81 83  1  0  0  0
 81152  1  0  0  0
 81153  1  0  0  0
 82154  1  0  0  0
 82155  1  0  0  0
 82156  1  0  0  0
M  ISO  4   1 100  68 101  77 101  78 100
M  END
> <chiral flag>
0

> <version>
0

> <s_m_source_file>
/data/baiqing/PycharmProjects/Reinvent-master-3.2/result/LINK_invent/BTK/process_docking_weight1_custom_product_contain_oxygen_bond_distance_aromatic_linkinvent_7_9_3/rearranged_h_0116.sdf

> <i_m_source_file_index>
71

> <r_mmod_Potential_Energy-OPLS-2005>
74.0396194458008

> <r_mmod_Stretch_Energy-OPLS-2005>
45.4582214355469

> <r_mmod_Bend_Energy-OPLS-2005>
144.014984130859

> <r_mmod_Torsional_Energy-OPLS-2005>
254.954055786133

> <r_mmod_Improper_Torsional_Energy-OPLS-2005>
7.55353212356567

> <r_mmod_Van_der_Waal_Energy-OPLS-2005>
122.039848327637

> <r_mmod_Electrostatic_Energy-OPLS-2005>
-318.918487548828

> <r_mmod_Solvation_Energy-OPLS-2005>
-211.207275390625

> <b_mmod_Minimization_Converged-OPLS-2005>
0

> <r_mmod_RMS_Derivative-OPLS-2005>
1.55297708511353

$$$$
71
                    3D
 Structure written by MMmdl.
151160  0  0  1  0            999 V2000
  -30.6231  -14.8163   20.4485 C   0  0  0  0  0  0
  -30.4225  -12.5050   19.4832 C   0  0  0  0  0  0
  -29.5067  -12.5131   18.2408 C   0  0  0  0  0  0
  -28.0358  -12.3295   18.6580 C   0  0  0  0  0  0
  -27.6330  -13.2443   19.8462 C   0  0  2  0  0  0
  -28.6793  -13.2225   20.9809 C   0  0  0  0  0  0
  -25.2464  -13.8220   20.5709 C   0  0  0  0  0  0
  -24.1778  -13.0445   20.9228 C   0  0  0  0  0  0
  -24.6391  -11.6930   20.8762 C   0  0  0  0  0  0
  -23.9077  -10.4297   21.0411 C   0  0  0  0  0  0
  -24.3625   -9.4210   21.9186 C   0  0  0  0  0  0
  -23.6300   -8.2244   22.0753 C   0  0  0  0  0  0
  -22.4281   -8.0283   21.3544 C   0  0  0  0  0  0
  -21.9920   -9.0258   20.4646 C   0  0  0  0  0  0
  -22.7250  -10.2137   20.3058 C   0  0  0  0  0  0
  -21.6855   -6.0738   22.5279 C   0  0  0  0  0  0
  -21.4015   -6.5641   23.8212 C   0  0  0  0  0  0
  -21.3660   -5.6794   24.9174 C   0  0  0  0  0  0
  -21.6044   -4.3056   24.7224 C   0  0  0  0  0  0
  -21.8819   -3.8148   23.4345 C   0  0  0  0  0  0
  -21.9193   -4.6965   22.3402 C   0  0  0  0  0  0
  -22.7797  -13.5215   21.1879 C   0  0  0  0  0  0
  -22.1662   -4.2151   21.0979 F   0  0  0  0  0  0
  -21.5629   -3.4540   25.7736 F   0  0  0  0  0  0
  -29.9627  -13.5995   20.3794 N   0  0  0  0  0  0
  -26.2898  -12.9452   20.3289 N   0  0  0  0  0  0
  -25.9326  -11.6582   20.5770 N   0  0  0  0  0  0
  -22.0449  -12.8202   22.0435 N   0  0  0  0  0  0
  -25.4122  -15.1942   20.4099 N   0  0  0  0  0  0
  -31.8226  -14.8234   20.1482 O   0  0  0  0  0  0
  -21.6643   -6.8881   21.4240 O   0  0  0  0  0  0
  -22.3477  -14.5518   20.6723 O   0  0  0  0  0  0
  -24.6361  -31.8504   23.1938 C   0  0  0  0  0  0
  -25.9166  -32.4725   23.8300 C   0  0  1  0  0  0
  -27.2174  -27.2107   20.1268 C   0  0  0  0  0  0
  -25.5943  -33.8529   24.2221 N   0  0  0  0  0  0
  -23.4347  -30.4722   21.5383 C   0  0  2  0  0  0
  -24.8807  -28.9115   20.1065 C   0  0  0  0  0  0
  -22.7526  -29.4579   22.4891 C   0  0  0  0  0  0
  -18.0296  -28.1391   22.8481 C   0  0  0  0  0  0
  -24.1491  -36.7271   23.2641 C   0  0  0  0  0  0
  -25.9845  -30.7467   21.3809 C   0  0  0  0  0  0
  -26.0539  -29.3654   20.7203 C   0  0  0  0  0  0
  -27.2200  -28.5268   20.7200 C   0  0  0  0  0  0
  -26.0136  -26.8330   19.4901 C   0  0  0  0  0  0
  -24.8688  -27.6559   19.4812 C   0  0  0  0  0  0
  -23.6544  -29.8049   20.1548 C   0  0  0  0  0  0
  -25.4121  -36.3051   24.0320 C   0  0  1  0  0  0
  -20.5903  -28.3707   23.1258 C   0  0  2  0  0  0
  -20.6782  -26.9419   22.5407 C   0  0  0  0  0  0
  -19.5757  -26.6382   21.5213 C   0  0  0  0  0  0
  -18.1938  -26.7930   22.1625 C   0  0  0  0  0  0
  -19.1550  -28.8867   23.2862 C   0  0  0  0  0  0
  -18.9469  -30.1465   23.8883 C   0  0  0  0  0  0
  -17.6467  -30.6589   24.0562 C   0  0  0  0  0  0
  -25.9066  -34.9423   23.5076 C   0  0  0  0  0  0
  -16.5358  -29.9084   23.6334 C   0  0  0  0  0  0
  -16.7281  -28.6503   23.0354 C   0  0  0  0  0  0
  -26.4513  -31.6573   25.0716 C   0  0  0  0  0  0
  -25.3716  -31.3742   26.1424 C   0  0  0  0  0  0
  -27.0371  -30.2980   24.6249 C   0  0  0  0  0  0
  -27.6054  -32.4328   25.7497 C   0  0  0  0  0  0
  -27.5577  -37.1793   24.8465 C   0  0  0  0  0  0
  -21.4228  -29.3044   22.3639 N   0  0  0  0  0  0
  -26.4289  -37.3757   23.9406 N   0  0  0  0  0  0
  -24.7045  -31.0426   22.0935 N   0  0  0  0  0  0
  -23.4206  -28.8125   23.3011 O   0  0  0  0  0  0
  -28.3103  -26.3008   20.2285 O   0  0  0  0  0  0
  -26.5647  -34.8910   22.4651 O   0  0  0  0  0  0
  -23.5500  -32.1351   23.7206 O   0  0  0  0  0  0
  -28.1235  -19.1567   21.8435 C   0  0  0  0  0  0
  -28.1639  -20.5304   21.4259 C   0  0  0  0  0  0
  -29.7296  -19.9279   19.6906 C   0  0  0  0  0  0
  -28.8875  -18.1621   21.1779 C   0  0  0  0  0  0
  -29.6865  -18.5433   20.1259 C   0  0  0  0  0  0
  -28.9567  -20.9853   20.3271 C   0  0  0  0  0  0
  -28.4689  -23.5036   20.3204 C   0  0  0  0  0  0
  -28.9866  -16.6300   21.4198 C   0  0  0  0  0  0
  -30.3988  -17.2570   19.6212 C   0  0  0  0  0  0
  -28.3940  -24.9395   19.5463 C   0  0  0  0  0  0
  -28.9564  -22.3696   19.8158 N   0  0  0  0  0  0
  -29.9221  -16.0416   20.4044 N   0  0  0  0  0  0
  -31.4629  -12.6199   19.1754 H   0  0  0  0  0  0
  -30.3725  -11.5424   19.9948 H   0  0  0  0  0  0
  -29.8009  -11.7246   17.5468 H   0  0  0  0  0  0
  -29.6224  -13.4553   17.7026 H   0  0  0  0  0  0
  -27.9051  -11.2837   18.9382 H   0  0  0  0  0  0
  -27.3753  -12.4999   17.8070 H   0  0  0  0  0  0
  -27.6129  -14.2585   19.4462 H   0  0  0  0  0  0
  -28.7391  -12.2341   21.4388 H   0  0  0  0  0  0
  -28.4045  -13.9112   21.7796 H   0  0  0  0  0  0
  -25.2767   -9.5687   22.4766 H   0  0  0  0  0  0
  -24.0008   -7.4635   22.7472 H   0  0  0  0  0  0
  -21.0851   -8.8778   19.8951 H   0  0  0  0  0  0
  -22.3705  -10.9678   19.6171 H   0  0  0  0  0  0
  -21.2008   -7.6150   23.9716 H   0  0  0  0  0  0
  -21.1484   -6.0523   25.9077 H   0  0  0  0  0  0
  -22.0597   -2.7610   23.2844 H   0  0  0  0  0  0
  -22.4074  -11.9869   22.4827 H   0  0  0  0  0  0
  -21.1062  -13.1215   22.2637 H   0  0  0  0  0  0
  -24.6407  -15.8440   20.5154 H   0  0  0  0  0  0
  -26.2531  -15.6335   20.0586 H   0  0  0  0  0  0
  -26.7230  -32.5351   23.1033 H   0  0  0  0  0  0
  -25.0074  -33.9656   25.0357 H   0  0  0  0  0  0
  -22.7334  -31.2960   21.3900 H   0  0  0  0  0  0
  -23.3754  -35.9603   23.3297 H   0  0  0  0  0  0
  -24.3579  -36.8905   22.2057 H   0  0  0  0  0  0
  -23.7246  -37.6467   23.6678 H   0  0  0  0  0  0
  -26.1319  -31.5062   20.6118 H   0  0  0  0  0  0
  -26.8587  -30.7934   22.0188 H   0  0  0  0  0  0
  -28.1153  -28.8680   21.2205 H   0  0  0  0  0  0
  -25.9000  -25.8668   19.0269 H   0  0  0  0  0  0
  -23.9669  -27.2995   19.0026 H   0  0  0  0  0  0
  -23.7832  -30.5809   19.3995 H   0  0  0  0  0  0
  -22.7707  -29.2424   19.8481 H   0  0  0  0  0  0
  -25.1307  -36.1887   25.0812 H   0  0  0  0  0  0
  -20.9996  -28.3288   24.1378 H   0  0  0  0  0  0
  -20.5680  -26.2319   23.3617 H   0  0  0  0  0  0
  -21.6648  -26.7435   22.1202 H   0  0  0  0  0  0
  -19.6919  -25.6289   21.1252 H   0  0  0  0  0  0
  -19.6693  -27.3184   20.6736 H   0  0  0  0  0  0
  -17.4207  -26.6674   21.4029 H   0  0  0  0  0  0
  -18.0339  -26.0075   22.9025 H   0  0  0  0  0  0
  -19.7944  -30.7287   24.2245 H   0  0  0  0  0  0
  -17.5019  -31.6268   24.5166 H   0  0  0  0  0  0
  -15.5357  -30.2982   23.7665 H   0  0  0  0  0  0
  -15.8681  -28.0818   22.7077 H   0  0  0  0  0  0
  -24.5899  -30.7084   25.7748 H   0  0  0  0  0  0
  -24.8899  -32.2917   26.4815 H   0  0  0  0  0  0
  -25.8015  -30.8940   27.0223 H   0  0  0  0  0  0
  -26.2972  -29.6711   24.1259 H   0  0  0  0  0  0
  -27.4012  -29.7265   25.4798 H   0  0  0  0  0  0
  -27.8867  -30.4235   23.9533 H   0  0  0  0  0  0
  -27.2652  -33.3640   26.2042 H   0  0  0  0  0  0
  -28.3882  -32.6871   25.0338 H   0  0  0  0  0  0
  -28.0704  -31.8475   26.5440 H   0  0  0  0  0  0
  -28.2591  -38.0092   24.7508 H   0  0  0  0  0  0
  -28.1075  -36.2622   24.6297 H   0  0  0  0  0  0
  -27.2294  -37.1447   25.8868 H   0  0  0  0  0  0
  -20.9425  -29.8760   21.6830 H   0  0  0  0  0  0
  -26.0161  -38.2828   24.1402 H   0  0  0  0  0  0
  -27.4899  -18.8742   22.6729 H   0  0  0  0  0  0
  -27.5439  -21.2363   21.9605 H   0  0  0  0  0  0
  -30.3550  -20.1797   18.8455 H   0  0  0  0  0  0
  -28.0342  -23.5320   21.3228 H   0  0  0  0  0  0
  -27.9979  -16.1822   21.3267 H   0  0  0  0  0  0
  -29.3522  -16.4340   22.4287 H   0  0  0  0  0  0
  -31.4770  -17.3839   19.7293 H   0  0  0  0  0  0
  -30.1899  -17.1115   18.5608 H   0  0  0  0  0  0
  -27.6524  -24.8413   18.7586 H   0  0  0  0  0  0
  -29.3255  -25.0023   18.9839 H   0  0  0  0  0  0
  1 25  1  0  0  0
  1 30  2  0  0  0
  1 82  1  0  0  0
  2  3  1  0  0  0
  2 25  1  0  0  0
  2 83  1  0  0  0
  2 84  1  0  0  0
  3  4  1  0  0  0
  3 85  1  0  0  0
  3 86  1  0  0  0
  4  5  1  0  0  0
  4 87  1  0  0  0
  4 88  1  0  0  0
  5  6  1  0  0  0
  5 26  1  0  0  0
  5 89  1  0  0  0
  6 25  1  0  0  0
  6 90  1  0  0  0
  6 91  1  0  0  0
  7  8  2  0  0  0
  7 26  1  0  0  0
  7 29  1  0  0  0
  8  9  1  0  0  0
  8 22  1  0  0  0
  9 10  1  0  0  0
  9 27  2  0  0  0
 10 11  2  0  0  0
 10 15  1  0  0  0
 11 12  1  0  0  0
 11 92  1  0  0  0
 12 13  2  0  0  0
 12 93  1  0  0  0
 13 14  1  0  0  0
 13 31  1  0  0  0
 14 15  2  0  0  0
 14 94  1  0  0  0
 15 95  1  0  0  0
 16 17  2  0  0  0
 16 21  1  0  0  0
 16 31  1  0  0  0
 17 18  1  0  0  0
 17 96  1  0  0  0
 18 19  2  0  0  0
 18 97  1  0  0  0
 19 20  1  0  0  0
 19 24  1  0  0  0
 20 21  2  0  0  0
 20 98  1  0  0  0
 21 23  1  0  0  0
 22 28  1  0  0  0
 22 32  2  0  0  0
 26 27  1  0  0  0
 28 99  1  0  0  0
 28100  1  0  0  0
 29101  1  0  0  0
 29102  1  0  0  0
 33 34  1  0  0  0
 33 66  1  0  0  0
 33 70  2  0  0  0
 34 36  1  0  0  0
 34 59  1  0  0  0
 34103  1  0  0  0
 35 44  2  0  0  0
 35 45  1  0  0  0
 35 68  1  0  0  0
 36 56  1  0  0  0
 36104  1  0  0  0
 37 39  1  0  0  0
 37 47  1  0  0  0
 37 66  1  0  0  0
 37105  1  0  0  0
 38 43  2  0  0  0
 38 46  1  0  0  0
 38 47  1  0  0  0
 39 64  1  0  0  0
 39 67  2  0  0  0
 40 52  1  0  0  0
 40 53  2  0  0  0
 40 58  1  0  0  0
 41106  1  0  0  0
 41107  1  0  0  0
 41108  1  0  0  0
 41 48  1  0  0  0
 42 43  1  0  0  0
 42 66  1  0  0  0
 42109  1  0  0  0
 42110  1  0  0  0
 43 44  1  0  0  0
 44111  1  0  0  0
 45 46  2  0  0  0
 45112  1  0  0  0
 46113  1  0  0  0
 47114  1  0  0  0
 47115  1  0  0  0
 48 56  1  0  0  0
 48 65  1  0  0  0
 48116  1  0  0  0
 49 50  1  0  0  0
 49 53  1  0  0  0
 49 64  1  0  0  0
 49117  1  0  0  0
 50 51  1  0  0  0
 50118  1  0  0  0
 50119  1  0  0  0
 51 52  1  0  0  0
 51120  1  0  0  0
 51121  1  0  0  0
 52122  1  0  0  0
 52123  1  0  0  0
 53 54  1  0  0  0
 54 55  2  0  0  0
 54124  1  0  0  0
 55 57  1  0  0  0
 55125  1  0  0  0
 56 69  2  0  0  0
 57 58  2  0  0  0
 57126  1  0  0  0
 58127  1  0  0  0
 59 60  1  0  0  0
 59 61  1  0  0  0
 59 62  1  0  0  0
 60128  1  0  0  0
 60129  1  0  0  0
 60130  1  0  0  0
 61131  1  0  0  0
 61132  1  0  0  0
 61133  1  0  0  0
 62134  1  0  0  0
 62135  1  0  0  0
 62136  1  0  0  0
 63 65  1  0  0  0
 63137  1  0  0  0
 63138  1  0  0  0
 63139  1  0  0  0
 64140  1  0  0  0
 65141  1  0  0  0
 68 80  1  0  0  0
 71 72  2  0  0  0
 71 74  1  0  0  0
 71142  1  0  0  0
 72 76  1  0  0  0
 72143  1  0  0  0
 73 75  1  0  0  0
 73 76  2  0  0  0
 73144  1  0  0  0
 74 75  2  0  0  0
 74 78  1  0  0  0
 75 79  1  0  0  0
 76 81  1  0  0  0
 77 80  1  0  0  0
 77 81  2  0  0  0
 77145  1  0  0  0
 78 82  1  0  0  0
 78146  1  0  0  0
 78147  1  0  0  0
 79 82  1  0  0  0
 79148  1  0  0  0
 79149  1  0  0  0
 80150  1  0  0  0
 80151  1  0  0  0
M  ISO  4   1 100  68 101  80 101  82 100
M  END
> <chiral flag>
0

> <version>
0

> <s_m_source_file>
/data/baiqing/PycharmProjects/Reinvent-master-3.2/result/LINK_invent/BTK/process_docking_weight1_custom_product_contain_oxygen_bond_distance_aromatic_linkinvent_7_9_3/rearranged_h_0116.sdf

> <i_m_source_file_index>
72

> <r_mmod_Potential_Energy-OPLS-2005>
374.378662109375

> <r_mmod_Stretch_Energy-OPLS-2005>
156.618576049805

> <r_mmod_Bend_Energy-OPLS-2005>
251.445388793945

> <r_mmod_Torsional_Energy-OPLS-2005>
243.513229370117

> <r_mmod_Improper_Torsional_Energy-OPLS-2005>
15.3743257522583

> <r_mmod_Van_der_Waal_Energy-OPLS-2005>
130.100509643555

> <r_mmod_Electrostatic_Energy-OPLS-2005>
-328.338012695312

> <r_mmod_Solvation_Energy-OPLS-2005>
-212.525985717773

> <b_mmod_Minimization_Converged-OPLS-2005>
0

> <r_mmod_RMS_Derivative-OPLS-2005>
0.204332306981087

$$$$
72
                    3D
 Structure written by MMmdl.
151159  0  0  1  0            999 V2000
  -30.5680  -14.7685   20.4702 C   0  0  0  0  0  0
  -30.4351  -12.4677   19.4820 C   0  0  0  0  0  0
  -29.5170  -12.5343   18.2408 C   0  0  0  0  0  0
  -28.0403  -12.3531   18.6435 C   0  0  0  0  0  0
  -27.6448  -13.2356   19.8576 C   0  0  2  0  0  0
  -28.6830  -13.1410   20.9965 C   0  0  0  0  0  0
  -25.2522  -13.8211   20.5673 C   0  0  0  0  0  0
  -24.1819  -13.0449   20.9182 C   0  0  0  0  0  0
  -24.6423  -11.6930   20.8727 C   0  0  0  0  0  0
  -23.9098  -10.4301   21.0392 C   0  0  0  0  0  0
  -24.3637   -9.4211   21.9166 C   0  0  0  0  0  0
  -23.6308   -8.2248   22.0738 C   0  0  0  0  0  0
  -22.4284   -8.0291   21.3534 C   0  0  0  0  0  0
  -21.9937   -9.0266   20.4626 C   0  0  0  0  0  0
  -22.7275  -10.2140   20.3037 C   0  0  0  0  0  0
  -21.6862   -6.0747   22.5281 C   0  0  0  0  0  0
  -21.4026   -6.5641   23.8219 C   0  0  0  0  0  0
  -21.3666   -5.6783   24.9173 C   0  0  0  0  0  0
  -21.6037   -4.3047   24.7205 C   0  0  0  0  0  0
  -21.8822   -3.8149   23.4325 C   0  0  0  0  0  0
  -21.9197   -4.6976   22.3390 C   0  0  0  0  0  0
  -22.7834  -13.5209   21.1855 C   0  0  0  0  0  0
  -22.1658   -4.2167   21.0964 F   0  0  0  0  0  0
  -21.5628   -3.4524   25.7713 F   0  0  0  0  0  0
  -29.9883  -13.5138   20.4360 N   0  0  0  0  0  0
  -26.2953  -12.9421   20.3271 N   0  0  0  0  0  0
  -25.9346  -11.6556   20.5717 N   0  0  0  0  0  0
  -22.0481  -12.8196   22.0412 N   0  0  0  0  0  0
  -25.4229  -15.1937   20.4120 N   0  0  0  0  0  0
  -31.7238  -14.9139   20.0585 O   0  0  0  0  0  0
  -21.6641   -6.8895   21.4244 O   0  0  0  0  0  0
  -22.3498  -14.5498   20.6698 O   0  0  0  0  0  0
  -24.6368  -31.8519   23.1967 C   0  0  0  0  0  0
  -25.9194  -32.4715   23.8322 C   0  0  1  0  0  0
  -27.2161  -27.2261   20.1335 C   0  0  0  0  0  0
  -25.5990  -33.8520   24.2259 N   0  0  0  0  0  0
  -23.4336  -30.4778   21.5386 C   0  0  2  0  0  0
  -24.8818  -28.9226   20.1049 C   0  0  0  0  0  0
  -22.7517  -29.4599   22.4856 C   0  0  0  0  0  0
  -18.0295  -28.1390   22.8468 C   0  0  0  0  0  0
  -24.1501  -36.7268   23.2635 C   0  0  0  0  0  0
  -25.9839  -30.7526   21.3831 C   0  0  0  0  0  0
  -26.0544  -29.3735   20.7227 C   0  0  0  0  0  0
  -27.2226  -28.5391   20.7276 C   0  0  0  0  0  0
  -26.0215  -26.8581   19.4736 C   0  0  0  0  0  0
  -24.8732  -27.6740   19.4670 C   0  0  0  0  0  0
  -23.6552  -29.8163   20.1534 C   0  0  0  0  0  0
  -25.4118  -36.3030   24.0323 C   0  0  1  0  0  0
  -20.5906  -28.3721   23.1235 C   0  0  2  0  0  0
  -20.6801  -26.9428   22.5399 C   0  0  0  0  0  0
  -19.5778  -26.6381   21.5206 C   0  0  0  0  0  0
  -18.1952  -26.7931   22.1610 C   0  0  0  0  0  0
  -19.1549  -28.8864   23.2855 C   0  0  0  0  0  0
  -18.9465  -30.1459   23.8886 C   0  0  0  0  0  0
  -17.6463  -30.6589   24.0556 C   0  0  0  0  0  0
  -25.9063  -34.9406   23.5085 C   0  0  0  0  0  0
  -16.5356  -29.9084   23.6325 C   0  0  0  0  0  0
  -16.7280  -28.6503   23.0345 C   0  0  0  0  0  0
  -26.4545  -31.6542   25.0727 C   0  0  0  0  0  0
  -25.3752  -31.3717   26.1436 C   0  0  0  0  0  0
  -27.0416  -30.2950   24.6259 C   0  0  0  0  0  0
  -27.6089  -32.4278   25.7520 C   0  0  0  0  0  0
  -27.5574  -37.1785   24.8454 C   0  0  0  0  0  0
  -21.4216  -29.3061   22.3605 N   0  0  0  0  0  0
  -26.4284  -37.3737   23.9400 N   0  0  0  0  0  0
  -24.7037  -31.0460   22.0954 N   0  0  0  0  0  0
  -23.4201  -28.8128   23.2961 O   0  0  0  0  0  0
  -28.2892  -26.2936   20.2169 O   0  0  0  0  0  0
  -26.5609  -34.8889   22.4638 O   0  0  0  0  0  0
  -23.5516  -32.1357   23.7252 O   0  0  0  0  0  0
  -29.8845  -18.3701   21.1838 C   0  0  0  0  0  0
  -29.4151  -19.5241   20.4070 C   0  0  0  0  0  0
  -28.9346  -18.9140   19.2650 C   0  0  0  0  0  0
  -29.7156  -17.1858   20.4616 C   0  0  0  0  0  0
  -28.2583  -19.4258   18.0363 C   0  0  0  0  0  0
  -28.9776  -23.5924   20.5136 C   0  0  0  0  0  0
  -28.0384  -24.8136   19.9650 C   0  0  0  0  0  0
  -28.6989  -22.0280   20.1006 C   0  0  0  0  0  0
  -29.7975  -15.8452   20.8955 N   0  0  0  0  0  0
  -29.1086  -17.5337   19.2891 O   0  0  0  0  0  0
  -29.4623  -20.9173   20.7648 O   0  0  0  0  0  0
  -31.4770  -12.5978   19.1851 H   0  0  0  0  0  0
  -30.3782  -11.4801   19.9409 H   0  0  0  0  0  0
  -29.8070  -11.7782   17.5094 H   0  0  0  0  0  0
  -29.6431  -13.4993   17.7480 H   0  0  0  0  0  0
  -27.8917  -11.3009   18.8867 H   0  0  0  0  0  0
  -27.3878  -12.5658   17.7957 H   0  0  0  0  0  0
  -27.6453  -14.2648   19.4963 H   0  0  0  0  0  0
  -28.7140  -12.1290   21.4030 H   0  0  0  0  0  0
  -28.4045  -13.7898   21.8284 H   0  0  0  0  0  0
  -25.2791   -9.5678   22.4730 H   0  0  0  0  0  0
  -24.0022   -7.4635   22.7455 H   0  0  0  0  0  0
  -21.0871   -8.8786   19.8923 H   0  0  0  0  0  0
  -22.3747  -10.9670   19.6126 H   0  0  0  0  0  0
  -21.2027   -7.6151   23.9729 H   0  0  0  0  0  0
  -21.1484   -6.0505   25.9079 H   0  0  0  0  0  0
  -22.0597   -2.7612   23.2806 H   0  0  0  0  0  0
  -22.4115  -11.9879   22.4824 H   0  0  0  0  0  0
  -21.1081  -13.1184   22.2583 H   0  0  0  0  0  0
  -24.6566  -15.8481   20.5257 H   0  0  0  0  0  0
  -26.2716  -15.6333   20.0791 H   0  0  0  0  0  0
  -26.7257  -32.5347   23.1052 H   0  0  0  0  0  0
  -25.0179  -33.9648   25.0436 H   0  0  0  0  0  0
  -22.7321  -31.3026   21.3939 H   0  0  0  0  0  0
  -23.3755  -35.9608   23.3269 H   0  0  0  0  0  0
  -24.3593  -36.8921   22.2055 H   0  0  0  0  0  0
  -23.7276  -37.6471   23.6676 H   0  0  0  0  0  0
  -26.1310  -31.5100   20.6119 H   0  0  0  0  0  0
  -26.8591  -30.7974   22.0207 H   0  0  0  0  0  0
  -28.1138  -28.8787   21.2374 H   0  0  0  0  0  0
  -25.9376  -25.9071   18.9704 H   0  0  0  0  0  0
  -23.9788  -27.3248   18.9694 H   0  0  0  0  0  0
  -23.7844  -30.5983   19.4035 H   0  0  0  0  0  0
  -22.7717  -29.2571   19.8406 H   0  0  0  0  0  0
  -25.1303  -36.1858   25.0817 H   0  0  0  0  0  0
  -21.0006  -28.3316   24.1352 H   0  0  0  0  0  0
  -20.5713  -26.2324   23.3607 H   0  0  0  0  0  0
  -21.6666  -26.7456   22.1181 H   0  0  0  0  0  0
  -19.6948  -25.6285   21.1251 H   0  0  0  0  0  0
  -19.6736  -27.3175   20.6724 H   0  0  0  0  0  0
  -17.4229  -26.6663   21.4009 H   0  0  0  0  0  0
  -18.0356  -26.0079   22.9011 H   0  0  0  0  0  0
  -19.7936  -30.7277   24.2266 H   0  0  0  0  0  0
  -17.5012  -31.6266   24.5161 H   0  0  0  0  0  0
  -15.5353  -30.2988   23.7655 H   0  0  0  0  0  0
  -15.8675  -28.0821   22.7072 H   0  0  0  0  0  0
  -24.5936  -30.7051   25.7768 H   0  0  0  0  0  0
  -24.8940  -32.2901   26.4811 H   0  0  0  0  0  0
  -25.8059  -30.8931   27.0241 H   0  0  0  0  0  0
  -26.3031  -29.6648   24.1289 H   0  0  0  0  0  0
  -27.4091  -29.7255   25.4808 H   0  0  0  0  0  0
  -27.8902  -30.4211   23.9530 H   0  0  0  0  0  0
  -27.2697  -33.3582   26.2086 H   0  0  0  0  0  0
  -28.3930  -32.6820   25.0373 H   0  0  0  0  0  0
  -28.0721  -31.8400   26.5458 H   0  0  0  0  0  0
  -28.2557  -38.0111   24.7497 H   0  0  0  0  0  0
  -28.1104  -36.2634   24.6273 H   0  0  0  0  0  0
  -27.2282  -37.1418   25.8854 H   0  0  0  0  0  0
  -20.9391  -29.8791   21.6817 H   0  0  0  0  0  0
  -26.0147  -38.2802   24.1413 H   0  0  0  0  0  0
  -30.2897  -18.4116   22.1848 H   0  0  0  0  0  0
  -28.9598  -19.9618   17.3969 H   0  0  0  0  0  0
  -27.4426  -20.1016   18.2923 H   0  0  0  0  0  0
  -27.8299  -18.6094   17.4547 H   0  0  0  0  0  0
  -28.9564  -23.6436   21.6020 H   0  0  0  0  0  0
  -30.0084  -23.8190   20.2422 H   0  0  0  0  0  0
  -27.0457  -24.5804   20.3530 H   0  0  0  0  0  0
  -27.9693  -24.7007   18.8817 H   0  0  0  0  0  0
  -28.8533  -21.9481   19.0244 H   0  0  0  0  0  0
  -27.6410  -21.8177   20.2665 H   0  0  0  0  0  0
  -28.9577  -15.5311   21.3580 H   0  0  0  0  0  0
  1 25  1  0  0  0
  1 30  2  0  0  0
  1 79  1  0  0  0
  2  3  1  0  0  0
  2 25  1  0  0  0
  2 82  1  0  0  0
  2 83  1  0  0  0
  3  4  1  0  0  0
  3 84  1  0  0  0
  3 85  1  0  0  0
  4  5  1  0  0  0
  4 86  1  0  0  0
  4 87  1  0  0  0
  5  6  1  0  0  0
  5 26  1  0  0  0
  5 88  1  0  0  0
  6 25  1  0  0  0
  6 89  1  0  0  0
  6 90  1  0  0  0
  7  8  2  0  0  0
  7 26  1  0  0  0
  7 29  1  0  0  0
  8  9  1  0  0  0
  8 22  1  0  0  0
  9 10  1  0  0  0
  9 27  2  0  0  0
 10 11  2  0  0  0
 10 15  1  0  0  0
 11 12  1  0  0  0
 11 91  1  0  0  0
 12 13  2  0  0  0
 12 92  1  0  0  0
 13 14  1  0  0  0
 13 31  1  0  0  0
 14 15  2  0  0  0
 14 93  1  0  0  0
 15 94  1  0  0  0
 16 17  2  0  0  0
 16 21  1  0  0  0
 16 31  1  0  0  0
 17 18  1  0  0  0
 17 95  1  0  0  0
 18 19  2  0  0  0
 18 96  1  0  0  0
 19 20  1  0  0  0
 19 24  1  0  0  0
 20 21  2  0  0  0
 20 97  1  0  0  0
 21 23  1  0  0  0
 22 28  1  0  0  0
 22 32  2  0  0  0
 26 27  1  0  0  0
 28 98  1  0  0  0
 28 99  1  0  0  0
 29100  1  0  0  0
 29101  1  0  0  0
 33 34  1  0  0  0
 33 66  1  0  0  0
 33 70  2  0  0  0
 34 36  1  0  0  0
 34 59  1  0  0  0
 34102  1  0  0  0
 35 44  2  0  0  0
 35 45  1  0  0  0
 35 68  1  0  0  0
 36 56  1  0  0  0
 36103  1  0  0  0
 37 39  1  0  0  0
 37 47  1  0  0  0
 37 66  1  0  0  0
 37104  1  0  0  0
 38 43  2  0  0  0
 38 46  1  0  0  0
 38 47  1  0  0  0
 39 64  1  0  0  0
 39 67  2  0  0  0
 40 52  1  0  0  0
 40 53  2  0  0  0
 40 58  1  0  0  0
 41105  1  0  0  0
 41106  1  0  0  0
 41107  1  0  0  0
 41 48  1  0  0  0
 42 43  1  0  0  0
 42 66  1  0  0  0
 42108  1  0  0  0
 42109  1  0  0  0
 43 44  1  0  0  0
 44110  1  0  0  0
 45 46  2  0  0  0
 45111  1  0  0  0
 46112  1  0  0  0
 47113  1  0  0  0
 47114  1  0  0  0
 48 56  1  0  0  0
 48 65  1  0  0  0
 48115  1  0  0  0
 49 50  1  0  0  0
 49 53  1  0  0  0
 49 64  1  0  0  0
 49116  1  0  0  0
 50 51  1  0  0  0
 50117  1  0  0  0
 50118  1  0  0  0
 51 52  1  0  0  0
 51119  1  0  0  0
 51120  1  0  0  0
 52121  1  0  0  0
 52122  1  0  0  0
 53 54  1  0  0  0
 54 55  2  0  0  0
 54123  1  0  0  0
 55 57  1  0  0  0
 55124  1  0  0  0
 56 69  2  0  0  0
 57 58  2  0  0  0
 57125  1  0  0  0
 58126  1  0  0  0
 59 60  1  0  0  0
 59 61  1  0  0  0
 59 62  1  0  0  0
 60127  1  0  0  0
 60128  1  0  0  0
 60129  1  0  0  0
 61130  1  0  0  0
 61131  1  0  0  0
 61132  1  0  0  0
 62133  1  0  0  0
 62134  1  0  0  0
 62135  1  0  0  0
 63 65  1  0  0  0
 63136  1  0  0  0
 63137  1  0  0  0
 63138  1  0  0  0
 64139  1  0  0  0
 65140  1  0  0  0
 68 77  1  0  0  0
 71 72  1  0  0  0
 71 74  2  0  0  0
 71141  1  0  0  0
 72 73  2  0  0  0
 72 81  1  0  0  0
 73 75  1  0  0  0
 73 80  1  0  0  0
 74 79  1  0  0  0
 74 80  1  0  0  0
 75142  1  0  0  0
 75143  1  0  0  0
 75144  1  0  0  0
 76 77  1  0  0  0
 76 78  1  0  0  0
 76145  1  0  0  0
 76146  1  0  0  0
 77147  1  0  0  0
 77148  1  0  0  0
 78 81  1  0  0  0
 78149  1  0  0  0
 78150  1  0  0  0
 79151  1  0  0  0
M  ISO  4   1 100  68 101  77 101  79 100
M  END
> <chiral flag>
0

> <version>
0

> <s_m_source_file>
/data/baiqing/PycharmProjects/Reinvent-master-3.2/result/LINK_invent/BTK/process_docking_weight1_custom_product_contain_oxygen_bond_distance_aromatic_linkinvent_7_9_3/rearranged_h_0116.sdf

> <i_m_source_file_index>
73

> <r_mmod_Potential_Energy-OPLS-2005>
187.586669921875

> <r_mmod_Stretch_Energy-OPLS-2005>
136.717254638672

> <r_mmod_Bend_Energy-OPLS-2005>
190.289520263672

> <r_mmod_Torsional_Energy-OPLS-2005>
240.697799682617

> <r_mmod_Improper_Torsional_Energy-OPLS-2005>
5.8231782913208

> <r_mmod_Van_der_Waal_Energy-OPLS-2005>
116.056999206543

> <r_mmod_Electrostatic_Energy-OPLS-2005>
-385.286590576172

> <r_mmod_Solvation_Energy-OPLS-2005>
-219.569351196289

> <b_mmod_Minimization_Converged-OPLS-2005>
0

> <r_mmod_RMS_Derivative-OPLS-2005>
1.75259733200073

$$$$
73
                    3D
 Structure written by MMmdl.
156164  0  0  1  0            999 V2000
  -30.7059  -14.8206   20.4333 C   0  0  0  0  0  0
  -30.4607  -12.5242   19.4635 C   0  0  0  0  0  0
  -29.5314  -12.4403   18.2385 C   0  0  0  0  0  0
  -28.0508  -12.3070   18.6465 C   0  0  0  0  0  0
  -27.6448  -13.2398   19.8236 C   0  0  2  0  0  0
  -28.7091  -13.2557   20.9395 C   0  0  0  0  0  0
  -25.2556  -13.8190   20.5642 C   0  0  0  0  0  0
  -24.1799  -13.0454   20.9211 C   0  0  0  0  0  0
  -24.6403  -11.6938   20.8759 C   0  0  0  0  0  0
  -23.9044  -10.4290   21.0413 C   0  0  0  0  0  0
  -24.3570   -9.4191   21.9175 C   0  0  0  0  0  0
  -23.6238   -8.2231   22.0753 C   0  0  0  0  0  0
  -22.4231   -8.0245   21.3548 C   0  0  0  0  0  0
  -21.9878   -9.0240   20.4660 C   0  0  0  0  0  0
  -22.7223  -10.2122   20.3074 C   0  0  0  0  0  0
  -21.6833   -6.0668   22.5280 C   0  0  0  0  0  0
  -21.4007   -6.5588   23.8205 C   0  0  0  0  0  0
  -21.3673   -5.6762   24.9189 C   0  0  0  0  0  0
  -21.6059   -4.3029   24.7253 C   0  0  0  0  0  0
  -21.8820   -3.8096   23.4386 C   0  0  0  0  0  0
  -21.9168   -4.6893   22.3419 C   0  0  0  0  0  0
  -22.7840  -13.5273   21.1868 C   0  0  0  0  0  0
  -22.1617   -4.2064   21.1002 F   0  0  0  0  0  0
  -21.5652   -3.4517   25.7779 F   0  0  0  0  0  0
  -29.9792  -13.6476   20.3013 N   0  0  0  0  0  0
  -26.3000  -12.9417   20.3253 N   0  0  0  0  0  0
  -25.9370  -11.6577   20.5825 N   0  0  0  0  0  0
  -22.0435  -12.8263   22.0416 N   0  0  0  0  0  0
  -25.4313  -15.1854   20.3993 N   0  0  0  0  0  0
  -31.9371  -14.7240   20.4169 O   0  0  0  0  0  0
  -21.6612   -6.8826   21.4245 O   0  0  0  0  0  0
  -22.3532  -14.5621   20.6797 O   0  0  0  0  0  0
  -24.6357  -31.8535   23.1979 C   0  0  0  0  0  0
  -25.9197  -32.4755   23.8300 C   0  0  1  0  0  0
  -27.1943  -27.1980   20.1435 C   0  0  0  0  0  0
  -25.6025  -33.8568   24.2253 N   0  0  0  0  0  0
  -23.4330  -30.4774   21.5449 C   0  0  2  0  0  0
  -24.8802  -28.9222   20.1038 C   0  0  0  0  0  0
  -22.7509  -29.4573   22.4902 C   0  0  0  0  0  0
  -18.0291  -28.1394   22.8473 C   0  0  0  0  0  0
  -24.1485  -36.7238   23.2620 C   0  0  0  0  0  0
  -25.9826  -30.7411   21.3915 C   0  0  0  0  0  0
  -26.0525  -29.3593   20.7346 C   0  0  0  0  0  0
  -27.2140  -28.5099   20.7487 C   0  0  0  0  0  0
  -26.0043  -26.8463   19.4722 C   0  0  0  0  0  0
  -24.8666  -27.6787   19.4546 C   0  0  0  0  0  0
  -23.6539  -29.8192   20.1562 C   0  0  0  0  0  0
  -25.4128  -36.3047   24.0288 C   0  0  1  0  0  0
  -20.5897  -28.3687   23.1278 C   0  0  2  0  0  0
  -20.6801  -26.9417   22.5403 C   0  0  0  0  0  0
  -19.5773  -26.6384   21.5213 C   0  0  0  0  0  0
  -18.1947  -26.7945   22.1607 C   0  0  0  0  0  0
  -19.1551  -28.8866   23.2867 C   0  0  0  0  0  0
  -18.9457  -30.1469   23.8884 C   0  0  0  0  0  0
  -17.6457  -30.6602   24.0549 C   0  0  0  0  0  0
  -25.9062  -34.9428   23.5039 C   0  0  0  0  0  0
  -16.5345  -29.9083   23.6340 C   0  0  0  0  0  0
  -16.7278  -28.6499   23.0366 C   0  0  0  0  0  0
  -26.4580  -31.6604   25.0697 C   0  0  0  0  0  0
  -25.3728  -31.3782   26.1347 C   0  0  0  0  0  0
  -27.0400  -30.3001   24.6197 C   0  0  0  0  0  0
  -27.6122  -32.4325   25.7493 C   0  0  0  0  0  0
  -27.5574  -37.1773   24.8453 C   0  0  0  0  0  0
  -21.4222  -29.3025   22.3651 N   0  0  0  0  0  0
  -26.4306  -37.3745   23.9379 N   0  0  0  0  0  0
  -24.7034  -31.0420   22.1000 N   0  0  0  0  0  0
  -23.4196  -28.8096   23.3007 O   0  0  0  0  0  0
  -28.2434  -26.2332   20.1660 O   0  0  0  0  0  0
  -26.5568  -34.8899   22.4563 O   0  0  0  0  0  0
  -23.5524  -32.1412   23.7243 O   0  0  0  0  0  0
  -27.4281  -19.9378   18.8598 C   0  0  0  0  0  0
  -28.5214  -19.7573   19.7737 C   0  0  0  0  0  0
  -26.7821  -18.8064   18.4546 C   0  0  0  0  0  0
  -28.7800  -18.3379   19.9311 C   0  0  0  0  0  0
  -30.7862  -16.9254   17.4398 C   0  0  0  0  0  0
  -28.6616  -23.6645   20.2033 C   0  0  0  0  0  0
  -30.6576  -16.1788   18.5631 C   0  0  0  0  0  0
  -27.9501  -24.8477   20.4661 C   0  0  0  0  0  0
  -25.5565  -18.6910   17.6097 C   0  0  0  0  0  0
  -29.7075  -17.2977   20.6901 C   0  0  0  0  0  0
  -28.2823  -22.1493   20.6249 C   0  0  0  0  0  0
  -30.1993  -16.0277   19.9085 N   0  0  0  0  0  0
  -29.1316  -20.9252   20.2853 O   0  0  0  0  0  0
  -27.5671  -17.4106   19.0675 S   0  0  0  0  0  0
  -31.4828  -12.6813   19.1137 H   0  0  0  0  0  0
  -30.4778  -11.5943   20.0329 H   0  0  0  0  0  0
  -29.8234  -11.5751   17.6422 H   0  0  0  0  0  0
  -29.6745  -13.3169   17.6078 H   0  0  0  0  0  0
  -27.8853  -11.2656   18.9277 H   0  0  0  0  0  0
  -27.4150  -12.4814   17.7775 H   0  0  0  0  0  0
  -27.6204  -14.2481   19.4054 H   0  0  0  0  0  0
  -28.8040  -12.2669   21.3881 H   0  0  0  0  0  0
  -28.4230  -13.9368   21.7440 H   0  0  0  0  0  0
  -25.2706   -9.5625   22.4760 H   0  0  0  0  0  0
  -23.9909   -7.4618   22.7500 H   0  0  0  0  0  0
  -21.0792   -8.8775   19.8971 H   0  0  0  0  0  0
  -22.3666  -10.9648   19.6168 H   0  0  0  0  0  0
  -21.2002   -7.6090   23.9700 H   0  0  0  0  0  0
  -21.1504   -6.0482   25.9089 H   0  0  0  0  0  0
  -22.0597   -2.7548   23.2942 H   0  0  0  0  0  0
  -22.3875  -11.9802   22.4713 H   0  0  0  0  0  0
  -21.1132  -13.1466   22.2714 H   0  0  0  0  0  0
  -24.7041  -15.8801   20.5256 H   0  0  0  0  0  0
  -26.3137  -15.5956   20.1198 H   0  0  0  0  0  0
  -26.7236  -32.5399   23.1011 H   0  0  0  0  0  0
  -25.0405  -33.9732   25.0554 H   0  0  0  0  0  0
  -22.7286  -31.3007   21.4075 H   0  0  0  0  0  0
  -23.3779  -35.9537   23.3291 H   0  0  0  0  0  0
  -24.3549  -36.8851   22.2033 H   0  0  0  0  0  0
  -23.7212  -37.6422   23.6635 H   0  0  0  0  0  0
  -26.1295  -31.4992   20.6216 H   0  0  0  0  0  0
  -26.8558  -30.7877   22.0291 H   0  0  0  0  0  0
  -28.1049  -28.8298   21.2725 H   0  0  0  0  0  0
  -25.9324  -25.8900   18.9729 H   0  0  0  0  0  0
  -23.9774  -27.3561   18.9317 H   0  0  0  0  0  0
  -23.7718  -30.6000   19.4028 H   0  0  0  0  0  0
  -22.7658  -29.2608   19.8539 H   0  0  0  0  0  0
  -25.1336  -36.1882   25.0783 H   0  0  0  0  0  0
  -20.9996  -28.3280   24.1390 H   0  0  0  0  0  0
  -20.5751  -26.2281   23.3586 H   0  0  0  0  0  0
  -21.6665  -26.7479   22.1166 H   0  0  0  0  0  0
  -19.6925  -25.6286   21.1260 H   0  0  0  0  0  0
  -19.6746  -27.3178   20.6733 H   0  0  0  0  0  0
  -17.4227  -26.6695   21.3999 H   0  0  0  0  0  0
  -18.0325  -26.0113   22.9022 H   0  0  0  0  0  0
  -19.7929  -30.7294   24.2266 H   0  0  0  0  0  0
  -17.4994  -31.6286   24.5126 H   0  0  0  0  0  0
  -15.5343  -30.2964   23.7676 H   0  0  0  0  0  0
  -15.8670  -28.0789   22.7120 H   0  0  0  0  0  0
  -24.5941  -30.7133   25.7620 H   0  0  0  0  0  0
  -24.8908  -32.2984   26.4663 H   0  0  0  0  0  0
  -25.7986  -30.9000   27.0181 H   0  0  0  0  0  0
  -26.2981  -29.6766   24.1211 H   0  0  0  0  0  0
  -27.4074  -29.7257   25.4721 H   0  0  0  0  0  0
  -27.8883  -30.4282   23.9451 H   0  0  0  0  0  0
  -27.2761  -33.3643   26.2063 H   0  0  0  0  0  0
  -28.3991  -32.6865   25.0362 H   0  0  0  0  0  0
  -28.0740  -31.8437   26.5439 H   0  0  0  0  0  0
  -28.2595  -38.0075   24.7521 H   0  0  0  0  0  0
  -28.1071  -36.2598   24.6296 H   0  0  0  0  0  0
  -27.2242  -37.1435   25.8840 H   0  0  0  0  0  0
  -20.9387  -29.8731   21.6853 H   0  0  0  0  0  0
  -26.0175  -38.2796   24.1424 H   0  0  0  0  0  0
  -27.1110  -20.9189   18.5436 H   0  0  0  0  0  0
  -30.6182  -17.9950   17.3157 H   0  0  0  0  0  0
  -31.0720  -16.4073   16.5342 H   0  0  0  0  0  0
  -29.5976  -23.7336   19.6706 H   0  0  0  0  0  0
  -30.8603  -17.1777   18.9131 H   0  0  0  0  0  0
  -27.0140  -24.7828   21.0076 H   0  0  0  0  0  0
  -25.2313  -19.6671   17.2546 H   0  0  0  0  0  0
  -24.7326  -18.2625   18.1810 H   0  0  0  0  0  0
  -25.7247  -18.0550   16.7394 H   0  0  0  0  0  0
  -29.1234  -16.9059   21.5267 H   0  0  0  0  0  0
  -30.5439  -17.8195   21.1615 H   0  0  0  0  0  0
  -27.2336  -21.9824   20.3788 H   0  0  0  0  0  0
  -28.2907  -22.1760   21.7155 H   0  0  0  0  0  0
  1 25  1  0  0  0
  1 30  2  0  0  0
  1 82  1  0  0  0
  2  3  1  0  0  0
  2 25  1  0  0  0
  2 85  1  0  0  0
  2 86  1  0  0  0
  3  4  1  0  0  0
  3 87  1  0  0  0
  3 88  1  0  0  0
  4  5  1  0  0  0
  4 89  1  0  0  0
  4 90  1  0  0  0
  5  6  1  0  0  0
  5 26  1  0  0  0
  5 91  1  0  0  0
  6 25  1  0  0  0
  6 92  1  0  0  0
  6 93  1  0  0  0
  7  8  2  0  0  0
  7 26  1  0  0  0
  7 29  1  0  0  0
  8  9  1  0  0  0
  8 22  1  0  0  0
  9 10  1  0  0  0
  9 27  2  0  0  0
 10 11  2  0  0  0
 10 15  1  0  0  0
 11 12  1  0  0  0
 11 94  1  0  0  0
 12 13  2  0  0  0
 12 95  1  0  0  0
 13 14  1  0  0  0
 13 31  1  0  0  0
 14 15  2  0  0  0
 14 96  1  0  0  0
 15 97  1  0  0  0
 16 17  2  0  0  0
 16 21  1  0  0  0
 16 31  1  0  0  0
 17 18  1  0  0  0
 17 98  1  0  0  0
 18 19  2  0  0  0
 18 99  1  0  0  0
 19 20  1  0  0  0
 19 24  1  0  0  0
 20 21  2  0  0  0
 20100  1  0  0  0
 21 23  1  0  0  0
 22 28  1  0  0  0
 22 32  2  0  0  0
 26 27  1  0  0  0
 28101  1  0  0  0
 28102  1  0  0  0
 29103  1  0  0  0
 29104  1  0  0  0
 33 34  1  0  0  0
 33 66  1  0  0  0
 33 70  2  0  0  0
 34 36  1  0  0  0
 34 59  1  0  0  0
 34105  1  0  0  0
 35 44  2  0  0  0
 35 45  1  0  0  0
 35 68  1  0  0  0
 36 56  1  0  0  0
 36106  1  0  0  0
 37 39  1  0  0  0
 37 47  1  0  0  0
 37 66  1  0  0  0
 37107  1  0  0  0
 38 43  2  0  0  0
 38 46  1  0  0  0
 38 47  1  0  0  0
 39 64  1  0  0  0
 39 67  2  0  0  0
 40 52  1  0  0  0
 40 53  2  0  0  0
 40 58  1  0  0  0
 41108  1  0  0  0
 41109  1  0  0  0
 41110  1  0  0  0
 41 48  1  0  0  0
 42 43  1  0  0  0
 42 66  1  0  0  0
 42111  1  0  0  0
 42112  1  0  0  0
 43 44  1  0  0  0
 44113  1  0  0  0
 45 46  2  0  0  0
 45114  1  0  0  0
 46115  1  0  0  0
 47116  1  0  0  0
 47117  1  0  0  0
 48 56  1  0  0  0
 48 65  1  0  0  0
 48118  1  0  0  0
 49 50  1  0  0  0
 49 53  1  0  0  0
 49 64  1  0  0  0
 49119  1  0  0  0
 50 51  1  0  0  0
 50120  1  0  0  0
 50121  1  0  0  0
 51 52  1  0  0  0
 51122  1  0  0  0
 51123  1  0  0  0
 52124  1  0  0  0
 52125  1  0  0  0
 53 54  1  0  0  0
 54 55  2  0  0  0
 54126  1  0  0  0
 55 57  1  0  0  0
 55127  1  0  0  0
 56 69  2  0  0  0
 57 58  2  0  0  0
 57128  1  0  0  0
 58129  1  0  0  0
 59 60  1  0  0  0
 59 61  1  0  0  0
 59 62  1  0  0  0
 60130  1  0  0  0
 60131  1  0  0  0
 60132  1  0  0  0
 61133  1  0  0  0
 61134  1  0  0  0
 61135  1  0  0  0
 62136  1  0  0  0
 62137  1  0  0  0
 62138  1  0  0  0
 63 65  1  0  0  0
 63139  1  0  0  0
 63140  1  0  0  0
 63141  1  0  0  0
 64142  1  0  0  0
 65143  1  0  0  0
 68 78  1  0  0  0
 71 72  1  0  0  0
 71 73  2  0  0  0
 71144  1  0  0  0
 72 74  2  0  0  0
 72 83  1  0  0  0
 73 79  1  0  0  0
 73 84  1  0  0  0
 74 80  1  0  0  0
 74 84  1  0  0  0
 75 77  2  0  0  0
 75145  1  0  0  0
 75146  1  0  0  0
 76 78  2  0  0  0
 76 81  1  0  0  0
 76147  1  0  0  0
 77 82  1  0  0  0
 77148  1  0  0  0
 78149  1  0  0  0
 79150  1  0  0  0
 79151  1  0  0  0
 79152  1  0  0  0
 80 82  1  0  0  0
 80153  1  0  0  0
 80154  1  0  0  0
 81 83  1  0  0  0
 81155  1  0  0  0
 81156  1  0  0  0
M  ISO  4   1 100  68 101  78 101  82 100
M  END
> <chiral flag>
0

> <version>
0

> <s_m_source_file>
/data/baiqing/PycharmProjects/Reinvent-master-3.2/result/LINK_invent/BTK/process_docking_weight1_custom_product_contain_oxygen_bond_distance_aromatic_linkinvent_7_9_3/rearranged_h_0116.sdf

> <i_m_source_file_index>
74

> <r_mmod_Potential_Energy-OPLS-2005>
828.925842285156

> <r_mmod_Stretch_Energy-OPLS-2005>
182.001495361328

> <r_mmod_Bend_Energy-OPLS-2005>
464.746185302734

> <r_mmod_Torsional_Energy-OPLS-2005>
333.561920166016

> <r_mmod_Improper_Torsional_Energy-OPLS-2005>
39.9132881164551

> <r_mmod_Van_der_Waal_Energy-OPLS-2005>
137.117080688477

> <r_mmod_Electrostatic_Energy-OPLS-2005>
-289.682556152344

> <r_mmod_Solvation_Energy-OPLS-2005>
-187.046371459961

> <b_mmod_Minimization_Converged-OPLS-2005>
0

> <r_mmod_RMS_Derivative-OPLS-2005>
8.04248332977295

$$$$
74
                    3D
 Structure written by MMmdl.
149157  0  0  1  0            999 V2000
  -30.6255  -14.7457   20.4515 C   0  0  0  0  0  0
  -30.4263  -12.4540   19.4774 C   0  0  0  0  0  0
  -29.5078  -12.5034   18.2372 C   0  0  0  0  0  0
  -28.0347  -12.3283   18.6516 C   0  0  0  0  0  0
  -27.6393  -13.2341   19.8486 C   0  0  2  0  0  0
  -28.6837  -13.1826   20.9854 C   0  0  0  0  0  0
  -25.2497  -13.8204   20.5696 C   0  0  0  0  0  0
  -24.1794  -13.0443   20.9210 C   0  0  0  0  0  0
  -24.6391  -11.6922   20.8751 C   0  0  0  0  0  0
  -23.9072  -10.4295   21.0408 C   0  0  0  0  0  0
  -24.3624   -9.4207   21.9183 C   0  0  0  0  0  0
  -23.6296   -8.2243   22.0754 C   0  0  0  0  0  0
  -22.4278   -8.0282   21.3544 C   0  0  0  0  0  0
  -21.9916   -9.0256   20.4647 C   0  0  0  0  0  0
  -22.7246  -10.2134   20.3056 C   0  0  0  0  0  0
  -21.6854   -6.0735   22.5277 C   0  0  0  0  0  0
  -21.4017   -6.5639   23.8210 C   0  0  0  0  0  0
  -21.3660   -5.6792   24.9173 C   0  0  0  0  0  0
  -21.6043   -4.3055   24.7224 C   0  0  0  0  0  0
  -21.8819   -3.8146   23.4346 C   0  0  0  0  0  0
  -21.9194   -4.6963   22.3402 C   0  0  0  0  0  0
  -22.7815  -13.5220   21.1868 C   0  0  0  0  0  0
  -22.1660   -4.2148   21.0979 F   0  0  0  0  0  0
  -21.5628   -3.4539   25.7737 F   0  0  0  0  0  0
  -29.9846  -13.5273   20.4000 N   0  0  0  0  0  0
  -26.2924  -12.9415   20.3278 N   0  0  0  0  0  0
  -25.9321  -11.6556   20.5757 N   0  0  0  0  0  0
  -22.0468  -12.8204   22.0426 N   0  0  0  0  0  0
  -25.4181  -15.1929   20.4102 N   0  0  0  0  0  0
  -31.8158  -14.7995   20.1397 O   0  0  0  0  0  0
  -21.6641   -6.8878   21.4239 O   0  0  0  0  0  0
  -22.3496  -14.5525   20.6715 O   0  0  0  0  0  0
  -24.6312  -31.8541   23.1968 C   0  0  0  0  0  0
  -25.9139  -32.4746   23.8315 C   0  0  1  0  0  0
  -27.2224  -27.2609   20.1214 C   0  0  0  0  0  0
  -25.5933  -33.8548   24.2243 N   0  0  0  0  0  0
  -23.4272  -30.4765   21.5399 C   0  0  2  0  0  0
  -24.8735  -28.9213   20.1076 C   0  0  0  0  0  0
  -22.7499  -29.4597   22.4903 C   0  0  0  0  0  0
  -18.0291  -28.1390   22.8479 C   0  0  0  0  0  0
  -24.1491  -36.7279   23.2642 C   0  0  0  0  0  0
  -25.9724  -30.7668   21.3753 C   0  0  0  0  0  0
  -26.0435  -29.3893   20.7165 C   0  0  0  0  0  0
  -27.2165  -28.5699   20.7140 C   0  0  0  0  0  0
  -26.0218  -26.8513   19.4991 C   0  0  0  0  0  0
  -24.8675  -27.6606   19.4906 C   0  0  0  0  0  0
  -23.6443  -29.8084   20.1562 C   0  0  0  0  0  0
  -25.4119  -36.3064   24.0324 C   0  0  1  0  0  0
  -20.5893  -28.3700   23.1266 C   0  0  2  0  0  0
  -20.6777  -26.9416   22.5410 C   0  0  0  0  0  0
  -19.5756  -26.6384   21.5211 C   0  0  0  0  0  0
  -18.1934  -26.7931   22.1618 C   0  0  0  0  0  0
  -19.1545  -28.8861   23.2867 C   0  0  0  0  0  0
  -18.9467  -30.1459   23.8891 C   0  0  0  0  0  0
  -17.6468  -30.6588   24.0563 C   0  0  0  0  0  0
  -25.9060  -34.9434   23.5087 C   0  0  0  0  0  0
  -16.5357  -29.9086   23.6333 C   0  0  0  0  0  0
  -16.7278  -28.6504   23.0352 C   0  0  0  0  0  0
  -26.4510  -31.6578   25.0709 C   0  0  0  0  0  0
  -25.3731  -31.3727   26.1427 C   0  0  0  0  0  0
  -27.0364  -30.2996   24.6199 C   0  0  0  0  0  0
  -27.6060  -32.4324   25.7481 C   0  0  0  0  0  0
  -27.5580  -37.1790   24.8465 C   0  0  0  0  0  0
  -21.4206  -29.3042   22.3651 N   0  0  0  0  0  0
  -26.4292  -37.3765   23.9410 N   0  0  0  0  0  0
  -24.6961  -31.0507   22.0938 N   0  0  0  0  0  0
  -23.4201  -28.8143   23.3006 O   0  0  0  0  0  0
  -28.3392  -26.3967   20.2095 O   0  0  0  0  0  0
  -26.5635  -34.8914   22.4660 O   0  0  0  0  0  0
  -23.5464  -32.1363   23.7268 O   0  0  0  0  0  0
  -29.3201  -18.4794   20.5977 C   0  0  0  0  0  0
  -31.5810  -17.7413   20.2905 C   0  0  0  0  0  0
  -29.7306  -19.8747   20.4759 C   0  0  0  0  0  0
  -30.2418  -17.3530   20.5107 C   0  0  0  0  0  0
  -31.1251  -20.0423   20.2777 C   0  0  0  0  0  0
  -28.9606  -22.4894   19.9655 C   0  0  0  0  0  0
  -28.3148  -23.6842   20.2708 C   0  0  0  0  0  0
  -28.7548  -21.0968   20.6168 C   0  0  0  0  0  0
  -28.4465  -25.0748   19.5076 C   0  0  0  0  0  0
  -31.9985  -19.0162   20.1800 N   0  0  0  0  0  0
  -29.8728  -15.9056   20.6414 N   0  0  0  0  0  0
  -27.7218  -20.9209   21.2685 O   0  0  0  0  0  0
  -31.8960  -21.5907   20.2435 Cl  0  0  0  0  0  0
  -31.4687  -12.5653   19.1740 H   0  0  0  0  0  0
  -30.3625  -11.4811   19.9671 H   0  0  0  0  0  0
  -29.7907  -11.7269   17.5251 H   0  0  0  0  0  0
  -29.6350  -13.4557   17.7196 H   0  0  0  0  0  0
  -27.8936  -11.2807   18.9203 H   0  0  0  0  0  0
  -27.3769  -12.5141   17.8018 H   0  0  0  0  0  0
  -27.6299  -14.2528   19.4603 H   0  0  0  0  0  0
  -28.7180  -12.1911   21.4392 H   0  0  0  0  0  0
  -28.4192  -13.8768   21.7847 H   0  0  0  0  0  0
  -25.2770   -9.5683   22.4757 H   0  0  0  0  0  0
  -24.0005   -7.4636   22.7475 H   0  0  0  0  0  0
  -21.0846   -8.8776   19.8953 H   0  0  0  0  0  0
  -22.3705  -10.9673   19.6165 H   0  0  0  0  0  0
  -21.2010   -7.6148   23.9714 H   0  0  0  0  0  0
  -21.1481   -6.0523   25.9075 H   0  0  0  0  0  0
  -22.0598   -2.7608   23.2846 H   0  0  0  0  0  0
  -22.4094  -11.9868   22.4812 H   0  0  0  0  0  0
  -21.1085  -13.1218   22.2637 H   0  0  0  0  0  0
  -24.6466  -15.8433   20.5147 H   0  0  0  0  0  0
  -26.2575  -15.6320   20.0555 H   0  0  0  0  0  0
  -26.7198  -32.5393   23.1048 H   0  0  0  0  0  0
  -25.0072  -33.9682   25.0382 H   0  0  0  0  0  0
  -22.7239  -31.2988   21.3930 H   0  0  0  0  0  0
  -23.3756  -35.9609   23.3302 H   0  0  0  0  0  0
  -24.3581  -36.8910   22.2058 H   0  0  0  0  0  0
  -23.7242  -37.6476   23.6672 H   0  0  0  0  0  0
  -26.1119  -31.5278   20.6065 H   0  0  0  0  0  0
  -26.8498  -30.8146   22.0086 H   0  0  0  0  0  0
  -28.1129  -28.9233   21.2042 H   0  0  0  0  0  0
  -25.9278  -25.8764   19.0476 H   0  0  0  0  0  0
  -23.9662  -27.2917   19.0206 H   0  0  0  0  0  0
  -23.7676  -30.5837   19.3991 H   0  0  0  0  0  0
  -22.7624  -29.2416   19.8524 H   0  0  0  0  0  0
  -25.1301  -36.1907   25.0815 H   0  0  0  0  0  0
  -20.9986  -28.3283   24.1387 H   0  0  0  0  0  0
  -20.5675  -26.2311   23.3616 H   0  0  0  0  0  0
  -21.6644  -26.7436   22.1203 H   0  0  0  0  0  0
  -19.6921  -25.6294   21.1242 H   0  0  0  0  0  0
  -19.6699  -27.3192   20.6740 H   0  0  0  0  0  0
  -17.4205  -26.6682   21.4021 H   0  0  0  0  0  0
  -18.0333  -26.0075   22.9017 H   0  0  0  0  0  0
  -19.7944  -30.7272   24.2261 H   0  0  0  0  0  0
  -17.5023  -31.6268   24.5166 H   0  0  0  0  0  0
  -15.5358  -30.2988   23.7659 H   0  0  0  0  0  0
  -15.8678  -28.0821   22.7073 H   0  0  0  0  0  0
  -24.5913  -30.7068   25.7754 H   0  0  0  0  0  0
  -24.8912  -32.2895   26.4833 H   0  0  0  0  0  0
  -25.8046  -30.8918   27.0215 H   0  0  0  0  0  0
  -26.2947  -29.6725   24.1235 H   0  0  0  0  0  0
  -27.4065  -29.7274   25.4718 H   0  0  0  0  0  0
  -27.8816  -30.4274   23.9431 H   0  0  0  0  0  0
  -27.2669  -33.3633   26.2035 H   0  0  0  0  0  0
  -28.3879  -32.6871   25.0313 H   0  0  0  0  0  0
  -28.0720  -31.8465   26.5414 H   0  0  0  0  0  0
  -28.2590  -38.0093   24.7513 H   0  0  0  0  0  0
  -28.1081  -36.2622   24.6288 H   0  0  0  0  0  0
  -27.2297  -37.1435   25.8868 H   0  0  0  0  0  0
  -20.9396  -29.8765   21.6854 H   0  0  0  0  0  0
  -26.0170  -38.2838   24.1415 H   0  0  0  0  0  0
  -28.2742  -18.2710   20.7702 H   0  0  0  0  0  0
  -32.3922  -17.0388   20.2151 H   0  0  0  0  0  0
  -29.6678  -22.5196   19.1513 H   0  0  0  0  0  0
  -27.5987  -23.6812   21.0802 H   0  0  0  0  0  0
  -27.7920  -25.0407   18.6394 H   0  0  0  0  0  0
  -29.4435  -25.0703   19.0662 H   0  0  0  0  0  0
  -28.9016  -15.7243   20.8463 H   0  0  0  0  0  0
  1 25  1  0  0  0
  1 30  2  0  0  0
  1 81  1  0  0  0
  2  3  1  0  0  0
  2 25  1  0  0  0
  2 84  1  0  0  0
  2 85  1  0  0  0
  3  4  1  0  0  0
  3 86  1  0  0  0
  3 87  1  0  0  0
  4  5  1  0  0  0
  4 88  1  0  0  0
  4 89  1  0  0  0
  5  6  1  0  0  0
  5 26  1  0  0  0
  5 90  1  0  0  0
  6 25  1  0  0  0
  6 91  1  0  0  0
  6 92  1  0  0  0
  7  8  2  0  0  0
  7 26  1  0  0  0
  7 29  1  0  0  0
  8  9  1  0  0  0
  8 22  1  0  0  0
  9 10  1  0  0  0
  9 27  2  0  0  0
 10 11  2  0  0  0
 10 15  1  0  0  0
 11 12  1  0  0  0
 11 93  1  0  0  0
 12 13  2  0  0  0
 12 94  1  0  0  0
 13 14  1  0  0  0
 13 31  1  0  0  0
 14 15  2  0  0  0
 14 95  1  0  0  0
 15 96  1  0  0  0
 16 17  2  0  0  0
 16 21  1  0  0  0
 16 31  1  0  0  0
 17 18  1  0  0  0
 17 97  1  0  0  0
 18 19  2  0  0  0
 18 98  1  0  0  0
 19 20  1  0  0  0
 19 24  1  0  0  0
 20 21  2  0  0  0
 20 99  1  0  0  0
 21 23  1  0  0  0
 22 28  1  0  0  0
 22 32  2  0  0  0
 26 27  1  0  0  0
 28100  1  0  0  0
 28101  1  0  0  0
 29102  1  0  0  0
 29103  1  0  0  0
 33 34  1  0  0  0
 33 66  1  0  0  0
 33 70  2  0  0  0
 34 36  1  0  0  0
 34 59  1  0  0  0
 34104  1  0  0  0
 35 44  2  0  0  0
 35 45  1  0  0  0
 35 68  1  0  0  0
 36 56  1  0  0  0
 36105  1  0  0  0
 37 39  1  0  0  0
 37 47  1  0  0  0
 37 66  1  0  0  0
 37106  1  0  0  0
 38 43  2  0  0  0
 38 46  1  0  0  0
 38 47  1  0  0  0
 39 64  1  0  0  0
 39 67  2  0  0  0
 40 52  1  0  0  0
 40 53  2  0  0  0
 40 58  1  0  0  0
 41107  1  0  0  0
 41108  1  0  0  0
 41109  1  0  0  0
 41 48  1  0  0  0
 42 43  1  0  0  0
 42 66  1  0  0  0
 42110  1  0  0  0
 42111  1  0  0  0
 43 44  1  0  0  0
 44112  1  0  0  0
 45 46  2  0  0  0
 45113  1  0  0  0
 46114  1  0  0  0
 47115  1  0  0  0
 47116  1  0  0  0
 48 56  1  0  0  0
 48 65  1  0  0  0
 48117  1  0  0  0
 49 50  1  0  0  0
 49 53  1  0  0  0
 49 64  1  0  0  0
 49118  1  0  0  0
 50 51  1  0  0  0
 50119  1  0  0  0
 50120  1  0  0  0
 51 52  1  0  0  0
 51121  1  0  0  0
 51122  1  0  0  0
 52123  1  0  0  0
 52124  1  0  0  0
 53 54  1  0  0  0
 54 55  2  0  0  0
 54125  1  0  0  0
 55 57  1  0  0  0
 55126  1  0  0  0
 56 69  2  0  0  0
 57 58  2  0  0  0
 57127  1  0  0  0
 58128  1  0  0  0
 59 60  1  0  0  0
 59 61  1  0  0  0
 59 62  1  0  0  0
 60129  1  0  0  0
 60130  1  0  0  0
 60131  1  0  0  0
 61132  1  0  0  0
 61133  1  0  0  0
 61134  1  0  0  0
 62135  1  0  0  0
 62136  1  0  0  0
 62137  1  0  0  0
 63 65  1  0  0  0
 63138  1  0  0  0
 63139  1  0  0  0
 63140  1  0  0  0
 64141  1  0  0  0
 65142  1  0  0  0
 68 79  1  0  0  0
 71 73  2  0  0  0
 71 74  1  0  0  0
 71143  1  0  0  0
 72 74  2  0  0  0
 72 80  1  0  0  0
 72144  1  0  0  0
 73 75  1  0  0  0
 73 78  1  0  0  0
 74 81  1  0  0  0
 75 80  2  0  0  0
 75 83  1  0  0  0
 76 77  2  0  0  0
 76 78  1  0  0  0
 76145  1  0  0  0
 77 79  1  0  0  0
 77146  1  0  0  0
 78 82  2  0  0  0
 79147  1  0  0  0
 79148  1  0  0  0
 81149  1  0  0  0
M  ISO  4   1 100  68 101  79 101  81 100
M  END
> <chiral flag>
0

> <version>
0

> <s_m_source_file>
/data/baiqing/PycharmProjects/Reinvent-master-3.2/result/LINK_invent/BTK/process_docking_weight1_custom_product_contain_oxygen_bond_distance_aromatic_linkinvent_7_9_3/rearranged_h_0116.sdf

> <i_m_source_file_index>
75

> <r_mmod_Potential_Energy-OPLS-2005>
-68.8731002807617

> <r_mmod_Stretch_Energy-OPLS-2005>
128.775741577148

> <r_mmod_Bend_Energy-OPLS-2005>
177.613372802734

> <r_mmod_Torsional_Energy-OPLS-2005>
207.929626464844

> <r_mmod_Improper_Torsional_Energy-OPLS-2005>
5.78909778594971

> <r_mmod_Van_der_Waal_Energy-OPLS-2005>
154.185089111328

> <r_mmod_Electrostatic_Energy-OPLS-2005>
-600.143737792969

> <r_mmod_Solvation_Energy-OPLS-2005>
-227.641967773438

> <b_mmod_Minimization_Converged-OPLS-2005>
0

> <r_mmod_RMS_Derivative-OPLS-2005>
0.394057273864746

$$$$
75
                    3D
 Structure written by MMmdl.
163172  0  0  1  0            999 V2000
  -30.6057  -14.7660   20.4758 C   0  0  0  0  0  0
  -30.4476  -12.4711   19.4738 C   0  0  0  0  0  0
  -29.5152  -12.5143   18.2409 C   0  0  0  0  0  0
  -28.0420  -12.3280   18.6562 C   0  0  0  0  0  0
  -27.6432  -13.2273   19.8558 C   0  0  2  0  0  0
  -28.6952  -13.1585   20.9880 C   0  0  0  0  0  0
  -25.2375  -13.8008   20.5598 C   0  0  0  0  0  0
  -24.1740  -13.0286   20.9240 C   0  0  0  0  0  0
  -24.6398  -11.6808   20.8804 C   0  0  0  0  0  0
  -23.9080  -10.4211   21.0435 C   0  0  0  0  0  0
  -24.3622   -9.4128   21.9212 C   0  0  0  0  0  0
  -23.6274   -8.2182   22.0765 C   0  0  0  0  0  0
  -22.4258   -8.0245   21.3542 C   0  0  0  0  0  0
  -21.9903   -9.0226   20.4648 C   0  0  0  0  0  0
  -22.7254  -10.2091   20.3070 C   0  0  0  0  0  0
  -21.6838   -6.0718   22.5278 C   0  0  0  0  0  0
  -21.4008   -6.5628   23.8211 C   0  0  0  0  0  0
  -21.3652   -5.6782   24.9173 C   0  0  0  0  0  0
  -21.6046   -4.3045   24.7225 C   0  0  0  0  0  0
  -21.8822   -3.8133   23.4349 C   0  0  0  0  0  0
  -21.9184   -4.6948   22.3404 C   0  0  0  0  0  0
  -22.7768  -13.5103   21.1877 C   0  0  0  0  0  0
  -22.1655   -4.2134   21.0981 F   0  0  0  0  0  0
  -21.5625   -3.4532   25.7741 F   0  0  0  0  0  0
  -29.9998  -13.5260   20.4125 N   0  0  0  0  0  0
  -26.2926  -12.9323   20.3311 N   0  0  0  0  0  0
  -25.9351  -11.6464   20.5845 N   0  0  0  0  0  0
  -22.0411  -12.8139   22.0460 N   0  0  0  0  0  0
  -25.3696  -15.1653   20.3736 N   0  0  0  0  0  0
  -31.7880  -14.8953   20.1456 O   0  0  0  0  0  0
  -21.6611   -6.8855   21.4240 O   0  0  0  0  0  0
  -22.3471  -14.5418   20.6712 O   0  0  0  0  0  0
  -24.6294  -31.8555   23.1990 C   0  0  0  0  0  0
  -25.9119  -32.4759   23.8344 C   0  0  1  0  0  0
  -27.2387  -27.2816   20.1358 C   0  0  0  0  0  0
  -25.5918  -33.8561   24.2266 N   0  0  0  0  0  0
  -23.4285  -30.4747   21.5411 C   0  0  2  0  0  0
  -24.8830  -28.9178   20.1182 C   0  0  0  0  0  0
  -22.7504  -29.4597   22.4923 C   0  0  0  0  0  0
  -18.0293  -28.1392   22.8476 C   0  0  0  0  0  0
  -24.1488  -36.7289   23.2646 C   0  0  0  0  0  0
  -25.9726  -30.7732   21.3786 C   0  0  0  0  0  0
  -26.0521  -29.3931   20.7291 C   0  0  0  0  0  0
  -27.2355  -28.5860   20.7313 C   0  0  0  0  0  0
  -26.0490  -26.8637   19.5060 C   0  0  0  0  0  0
  -24.8835  -27.6576   19.4984 C   0  0  0  0  0  0
  -23.6502  -29.8023   20.1603 C   0  0  0  0  0  0
  -25.4116  -36.3073   24.0329 C   0  0  1  0  0  0
  -20.5893  -28.3701   23.1265 C   0  0  2  0  0  0
  -20.6774  -26.9417   22.5406 C   0  0  0  0  0  0
  -19.5755  -26.6381   21.5207 C   0  0  0  0  0  0
  -18.1937  -26.7932   22.1621 C   0  0  0  0  0  0
  -19.1545  -28.8865   23.2863 C   0  0  0  0  0  0
  -18.9466  -30.1462   23.8887 C   0  0  0  0  0  0
  -17.6465  -30.6587   24.0564 C   0  0  0  0  0  0
  -25.9048  -34.9437   23.5103 C   0  0  0  0  0  0
  -16.5355  -29.9084   23.6334 C   0  0  0  0  0  0
  -16.7278  -28.6504   23.0351 C   0  0  0  0  0  0
  -26.4491  -31.6579   25.0726 C   0  0  0  0  0  0
  -25.3715  -31.3743   26.1456 C   0  0  0  0  0  0
  -27.0337  -30.2995   24.6207 C   0  0  0  0  0  0
  -27.6052  -32.4319   25.7481 C   0  0  0  0  0  0
  -27.5568  -37.1815   24.8478 C   0  0  0  0  0  0
  -21.4211  -29.3043   22.3658 N   0  0  0  0  0  0
  -26.4305  -37.3753   23.9385 N   0  0  0  0  0  0
  -24.6954  -31.0521   22.0964 N   0  0  0  0  0  0
  -23.4196  -28.8154   23.3041 O   0  0  0  0  0  0
  -28.3191  -26.3777   20.0984 O   0  0  0  0  0  0
  -26.5623  -34.8908   22.4673 O   0  0  0  0  0  0
  -23.5444  -32.1376   23.7276 O   0  0  0  0  0  0
  -28.6471  -19.5530   20.5932 C   0  0  0  0  0  0
  -31.0553  -18.1367   20.7313 C   0  0  0  0  0  0
  -28.6753  -18.1207   20.5676 C   0  0  0  0  0  0
  -31.0271  -19.5821   20.7817 C   0  0  0  0  0  0
  -29.8109  -20.3457   20.7309 C   0  0  0  0  0  0
  -29.8736  -17.3427   20.6512 C   0  0  0  0  0  0
  -28.7690  -24.0785   21.2195 C   0  0  0  0  0  0
  -28.4508  -25.4346   21.1380 C   0  0  0  0  0  0
  -28.9300  -23.4535   22.5884 C   0  0  0  0  0  0
  -29.4436  -22.0097   22.4141 C   0  0  0  0  0  0
  -29.0755  -22.8872   20.2413 C   0  0  1  0  0  0
  -27.3489  -17.4144   20.4711 C   0  0  0  0  0  0
  -32.3488  -20.3164   20.9321 C   0  0  0  0  0  0
  -29.8700  -23.3113   19.0031 C   0  0  0  0  0  0
  -29.7540  -21.7757   21.0057 N   0  0  0  0  0  0
  -29.7777  -15.8518   20.7220 N   0  0  0  0  0  0
  -31.4837  -12.6151   19.1641 H   0  0  0  0  0  0
  -30.4105  -11.4933   19.9572 H   0  0  0  0  0  0
  -29.8003  -11.7409   17.5255 H   0  0  0  0  0  0
  -29.6310  -13.4681   17.7246 H   0  0  0  0  0  0
  -27.9070  -11.2793   18.9230 H   0  0  0  0  0  0
  -27.3822  -12.5128   17.8077 H   0  0  0  0  0  0
  -27.6326  -14.2487   19.4765 H   0  0  0  0  0  0
  -28.7380  -12.1562   21.4167 H   0  0  0  0  0  0
  -28.4243  -13.8251   21.8081 H   0  0  0  0  0  0
  -25.2769   -9.5589   22.4786 H   0  0  0  0  0  0
  -23.9961   -7.4570   22.7490 H   0  0  0  0  0  0
  -21.0825   -8.8769   19.8962 H   0  0  0  0  0  0
  -22.3733  -10.9642   19.6181 H   0  0  0  0  0  0
  -21.2011   -7.6140   23.9710 H   0  0  0  0  0  0
  -21.1467   -6.0515   25.9073 H   0  0  0  0  0  0
  -22.0610   -2.7594   23.2859 H   0  0  0  0  0  0
  -22.4027  -11.9817   22.4879 H   0  0  0  0  0  0
  -21.1047  -13.1206   22.2673 H   0  0  0  0  0  0
  -24.5658  -15.7803   20.4332 H   0  0  0  0  0  0
  -26.1613  -15.5913   19.9139 H   0  0  0  0  0  0
  -26.7191  -32.5426   23.1098 H   0  0  0  0  0  0
  -25.0055  -33.9697   25.0403 H   0  0  0  0  0  0
  -22.7243  -31.2957   21.3910 H   0  0  0  0  0  0
  -23.3719  -35.9661   23.3376 H   0  0  0  0  0  0
  -24.3556  -36.8833   22.2045 H   0  0  0  0  0  0
  -23.7292  -37.6535   23.6619 H   0  0  0  0  0  0
  -26.1065  -31.5300   20.6044 H   0  0  0  0  0  0
  -26.8517  -30.8289   22.0086 H   0  0  0  0  0  0
  -28.1357  -28.9475   21.2084 H   0  0  0  0  0  0
  -26.0215  -25.8937   19.0300 H   0  0  0  0  0  0
  -23.9887  -27.2856   19.0181 H   0  0  0  0  0  0
  -23.7721  -30.5761   19.4016 H   0  0  0  0  0  0
  -22.7706  -29.2315   19.8570 H   0  0  0  0  0  0
  -25.1306  -36.1937   25.0826 H   0  0  0  0  0  0
  -20.9980  -28.3282   24.1387 H   0  0  0  0  0  0
  -20.5663  -26.2316   23.3613 H   0  0  0  0  0  0
  -21.6644  -26.7428   22.1212 H   0  0  0  0  0  0
  -19.6914  -25.6289   21.1243 H   0  0  0  0  0  0
  -19.6696  -27.3186   20.6734 H   0  0  0  0  0  0
  -17.4204  -26.6668   21.4032 H   0  0  0  0  0  0
  -18.0343  -26.0077   22.9020 H   0  0  0  0  0  0
  -19.7942  -30.7279   24.2250 H   0  0  0  0  0  0
  -17.5019  -31.6264   24.5171 H   0  0  0  0  0  0
  -15.5356  -30.2986   23.7661 H   0  0  0  0  0  0
  -15.8678  -28.0820   22.7074 H   0  0  0  0  0  0
  -24.5881  -30.7098   25.7794 H   0  0  0  0  0  0
  -24.8919  -32.2921   26.4870 H   0  0  0  0  0  0
  -25.8032  -30.8930   27.0241 H   0  0  0  0  0  0
  -26.2925  -29.6740   24.1222 H   0  0  0  0  0  0
  -27.4014  -29.7262   25.4727 H   0  0  0  0  0  0
  -27.8802  -30.4276   23.9456 H   0  0  0  0  0  0
  -27.2673  -33.3627   26.2049 H   0  0  0  0  0  0
  -28.3858  -32.6866   25.0298 H   0  0  0  0  0  0
  -28.0728  -31.8453   26.5399 H   0  0  0  0  0  0
  -28.2655  -38.0038   24.7409 H   0  0  0  0  0  0
  -28.0989  -36.2566   24.6453 H   0  0  0  0  0  0
  -27.2266  -37.1645   25.8878 H   0  0  0  0  0  0
  -20.9406  -29.8754   21.6845 H   0  0  0  0  0  0
  -26.0192  -38.2845   24.1317 H   0  0  0  0  0  0
  -27.6910  -20.0565   20.5723 H   0  0  0  0  0  0
  -32.0082  -17.6313   20.7989 H   0  0  0  0  0  0
  -28.3010  -25.9571   22.0732 H   0  0  0  0  0  0
  -27.9778  -23.4643   23.1205 H   0  0  0  0  0  0
  -29.6386  -24.0410   23.1747 H   0  0  0  0  0  0
  -28.6824  -21.3071   22.7595 H   0  0  0  0  0  0
  -30.3309  -21.8412   23.0261 H   0  0  0  0  0  0
  -28.1079  -22.5034   19.9130 H   0  0  0  0  0  0
  -26.5159  -18.1087   20.3539 H   0  0  0  0  0  0
  -27.1802  -16.8343   21.3793 H   0  0  0  0  0  0
  -27.3589  -16.7557   19.6030 H   0  0  0  0  0  0
  -33.1983  -19.6533   20.7669 H   0  0  0  0  0  0
  -32.4381  -20.7372   21.9338 H   0  0  0  0  0  0
  -32.4164  -21.1323   20.2111 H   0  0  0  0  0  0
  -30.8450  -23.7151   19.2773 H   0  0  0  0  0  0
  -29.3374  -24.0827   18.4456 H   0  0  0  0  0  0
  -30.0320  -22.4698   18.3287 H   0  0  0  0  0  0
  -28.8401  -15.5338   20.9121 H   0  0  0  0  0  0
  1 25  1  0  0  0
  1 30  2  0  0  0
  1 86  1  0  0  0
  2  3  1  0  0  0
  2 25  1  0  0  0
  2 87  1  0  0  0
  2 88  1  0  0  0
  3  4  1  0  0  0
  3 89  1  0  0  0
  3 90  1  0  0  0
  4  5  1  0  0  0
  4 91  1  0  0  0
  4 92  1  0  0  0
  5  6  1  0  0  0
  5 26  1  0  0  0
  5 93  1  0  0  0
  6 25  1  0  0  0
  6 94  1  0  0  0
  6 95  1  0  0  0
  7  8  2  0  0  0
  7 26  1  0  0  0
  7 29  1  0  0  0
  8  9  1  0  0  0
  8 22  1  0  0  0
  9 10  1  0  0  0
  9 27  2  0  0  0
 10 11  2  0  0  0
 10 15  1  0  0  0
 11 12  1  0  0  0
 11 96  1  0  0  0
 12 13  2  0  0  0
 12 97  1  0  0  0
 13 14  1  0  0  0
 13 31  1  0  0  0
 14 15  2  0  0  0
 14 98  1  0  0  0
 15 99  1  0  0  0
 16 17  2  0  0  0
 16 21  1  0  0  0
 16 31  1  0  0  0
 17 18  1  0  0  0
 17100  1  0  0  0
 18 19  2  0  0  0
 18101  1  0  0  0
 19 20  1  0  0  0
 19 24  1  0  0  0
 20 21  2  0  0  0
 20102  1  0  0  0
 21 23  1  0  0  0
 22 28  1  0  0  0
 22 32  2  0  0  0
 26 27  1  0  0  0
 28103  1  0  0  0
 28104  1  0  0  0
 29105  1  0  0  0
 29106  1  0  0  0
 33 34  1  0  0  0
 33 66  1  0  0  0
 33 70  2  0  0  0
 34 36  1  0  0  0
 34 59  1  0  0  0
 34107  1  0  0  0
 35 44  2  0  0  0
 35 45  1  0  0  0
 35 68  1  0  0  0
 36 56  1  0  0  0
 36108  1  0  0  0
 37 39  1  0  0  0
 37 47  1  0  0  0
 37 66  1  0  0  0
 37109  1  0  0  0
 38 43  2  0  0  0
 38 46  1  0  0  0
 38 47  1  0  0  0
 39 64  1  0  0  0
 39 67  2  0  0  0
 40 52  1  0  0  0
 40 53  2  0  0  0
 40 58  1  0  0  0
 41110  1  0  0  0
 41111  1  0  0  0
 41112  1  0  0  0
 41 48  1  0  0  0
 42 43  1  0  0  0
 42 66  1  0  0  0
 42113  1  0  0  0
 42114  1  0  0  0
 43 44  1  0  0  0
 44115  1  0  0  0
 45 46  2  0  0  0
 45116  1  0  0  0
 46117  1  0  0  0
 47118  1  0  0  0
 47119  1  0  0  0
 48 56  1  0  0  0
 48 65  1  0  0  0
 48120  1  0  0  0
 49 50  1  0  0  0
 49 53  1  0  0  0
 49 64  1  0  0  0
 49121  1  0  0  0
 50 51  1  0  0  0
 50122  1  0  0  0
 50123  1  0  0  0
 51 52  1  0  0  0
 51124  1  0  0  0
 51125  1  0  0  0
 52126  1  0  0  0
 52127  1  0  0  0
 53 54  1  0  0  0
 54 55  2  0  0  0
 54128  1  0  0  0
 55 57  1  0  0  0
 55129  1  0  0  0
 56 69  2  0  0  0
 57 58  2  0  0  0
 57130  1  0  0  0
 58131  1  0  0  0
 59 60  1  0  0  0
 59 61  1  0  0  0
 59 62  1  0  0  0
 60132  1  0  0  0
 60133  1  0  0  0
 60134  1  0  0  0
 61135  1  0  0  0
 61136  1  0  0  0
 61137  1  0  0  0
 62138  1  0  0  0
 62139  1  0  0  0
 62140  1  0  0  0
 63 65  1  0  0  0
 63141  1  0  0  0
 63142  1  0  0  0
 63143  1  0  0  0
 64144  1  0  0  0
 65145  1  0  0  0
 68 78  1  0  0  0
 71 73  2  0  0  0
 71 75  1  0  0  0
 71146  1  0  0  0
 72 74  1  0  0  0
 72 76  2  0  0  0
 72147  1  0  0  0
 73 76  1  0  0  0
 73 82  1  0  0  0
 74 75  2  0  0  0
 74 83  1  0  0  0
 75 85  1  0  0  0
 76 86  1  0  0  0
 77 78  2  0  0  0
 77 79  1  0  0  0
 77 81  1  0  0  0
 78148  1  0  0  0
 79 80  1  0  0  0
 79149  1  0  0  0
 79150  1  0  0  0
 80 85  1  0  0  0
 80151  1  0  0  0
 80152  1  0  0  0
 81 84  1  0  0  0
 81 85  1  0  0  0
 81153  1  0  0  0
 82154  1  0  0  0
 82155  1  0  0  0
 82156  1  0  0  0
 83157  1  0  0  0
 83158  1  0  0  0
 83159  1  0  0  0
 84160  1  0  0  0
 84161  1  0  0  0
 84162  1  0  0  0
 86163  1  0  0  0
M  ISO  4   1 100  68 101  78 101  86 100
M  END
> <chiral flag>
0

> <version>
0

> <s_m_source_file>
/data/baiqing/PycharmProjects/Reinvent-master-3.2/result/LINK_invent/BTK/process_docking_weight1_custom_product_contain_oxygen_bond_distance_aromatic_linkinvent_7_9_3/rearranged_h_0116.sdf

> <i_m_source_file_index>
76

> <r_mmod_Potential_Energy-OPLS-2005>
212.208541870117

> <r_mmod_Stretch_Energy-OPLS-2005>
105.026649475098

> <r_mmod_Bend_Energy-OPLS-2005>
231.528717041016

> <r_mmod_Torsional_Energy-OPLS-2005>
281.842559814453

> <r_mmod_Improper_Torsional_Energy-OPLS-2005>
10.9401121139526

> <r_mmod_Van_der_Waal_Energy-OPLS-2005>
129.338455200195

> <r_mmod_Electrostatic_Energy-OPLS-2005>
-428.788391113281

> <r_mmod_Solvation_Energy-OPLS-2005>
-202.859298706055

> <b_mmod_Minimization_Converged-OPLS-2005>
0

> <r_mmod_RMS_Derivative-OPLS-2005>
1.25034737586975

$$$$
76
                    3D
 Structure written by MMmdl.
162170  0  0  1  0            999 V2000
  -30.6931  -14.5457   20.4855 C   0  0  0  0  0  0
  -30.4323  -12.3347   19.4474 C   0  0  0  0  0  0
  -29.5016  -12.4771   18.2246 C   0  0  0  0  0  0
  -28.0223  -12.3622   18.6286 C   0  0  0  0  0  0
  -27.6593  -13.2175   19.8714 C   0  0  2  0  0  0
  -28.7066  -13.0684   21.0008 C   0  0  0  0  0  0
  -25.2563  -13.8156   20.5696 C   0  0  0  0  0  0
  -24.1818  -13.0399   20.9199 C   0  0  0  0  0  0
  -24.6395  -11.6898   20.8760 C   0  0  0  0  0  0
  -23.9042  -10.4309   21.0430 C   0  0  0  0  0  0
  -24.3623   -9.4223   21.9202 C   0  0  0  0  0  0
  -23.6322   -8.2231   22.0753 C   0  0  0  0  0  0
  -22.4290   -8.0290   21.3531 C   0  0  0  0  0  0
  -21.9916   -9.0257   20.4630 C   0  0  0  0  0  0
  -22.7228  -10.2159   20.3065 C   0  0  0  0  0  0
  -21.6865   -6.0736   22.5288 C   0  0  0  0  0  0
  -21.4025   -6.5646   23.8222 C   0  0  0  0  0  0
  -21.3650   -5.6780   24.9165 C   0  0  0  0  0  0
  -21.6038   -4.3056   24.7214 C   0  0  0  0  0  0
  -21.8812   -3.8156   23.4347 C   0  0  0  0  0  0
  -21.9209   -4.6960   22.3404 C   0  0  0  0  0  0
  -22.7854  -13.5222   21.1870 C   0  0  0  0  0  0
  -22.1671   -4.2154   21.0969 F   0  0  0  0  0  0
  -21.5631   -3.4541   25.7729 F   0  0  0  0  0  0
  -30.0315  -13.3550   20.4280 N   0  0  0  0  0  0
  -26.3002  -12.9342   20.3360 N   0  0  0  0  0  0
  -25.9326  -11.6510   20.5802 N   0  0  0  0  0  0
  -22.0478  -12.8210   22.0447 N   0  0  0  0  0  0
  -25.4297  -15.1857   20.4168 N   0  0  0  0  0  0
  -31.8620  -14.6691   20.1149 O   0  0  0  0  0  0
  -21.6637   -6.8898   21.4257 O   0  0  0  0  0  0
  -22.3577  -14.5532   20.6739 O   0  0  0  0  0  0
  -24.6198  -31.8627   23.1966 C   0  0  0  0  0  0
  -25.9093  -32.4766   23.8264 C   0  0  1  0  0  0
  -27.2371  -27.4200   20.0837 C   0  0  0  0  0  0
  -25.5906  -33.8533   24.2229 N   0  0  0  0  0  0
  -23.4013  -30.4897   21.5352 C   0  0  2  0  0  0
  -24.8519  -28.9514   20.1024 C   0  0  0  0  0  0
  -22.7388  -29.4637   22.4835 C   0  0  0  0  0  0
  -18.0262  -28.1387   22.8468 C   0  0  0  0  0  0
  -24.1542  -36.7306   23.2617 C   0  0  0  0  0  0
  -25.9334  -30.8286   21.3423 C   0  0  0  0  0  0
  -26.0121  -29.4595   20.7007 C   0  0  0  0  0  0
  -27.2126  -28.7020   20.6806 C   0  0  0  0  0  0
  -26.0554  -26.9351   19.4779 C   0  0  0  0  0  0
  -24.8694  -27.6879   19.4899 C   0  0  0  0  0  0
  -23.6112  -29.8134   20.1519 C   0  0  0  0  0  0
  -25.4141  -36.3062   24.0297 C   0  0  1  0  0  0
  -20.5881  -28.3679   23.1271 C   0  0  2  0  0  0
  -20.6773  -26.9399   22.5404 C   0  0  0  0  0  0
  -19.5739  -26.6406   21.5185 C   0  0  0  0  0  0
  -18.1908  -26.7925   22.1593 C   0  0  0  0  0  0
  -19.1524  -28.8823   23.2890 C   0  0  0  0  0  0
  -18.9458  -30.1419   23.8929 C   0  0  0  0  0  0
  -17.6475  -30.6598   24.0558 C   0  0  0  0  0  0
  -25.9042  -34.9420   23.5062 C   0  0  0  0  0  0
  -16.5359  -29.9113   23.6332 C   0  0  0  0  0  0
  -16.7240  -28.6520   23.0336 C   0  0  0  0  0  0
  -26.4533  -31.6516   25.0562 C   0  0  0  0  0  0
  -25.3814  -31.3673   26.1324 C   0  0  0  0  0  0
  -27.0318  -30.2927   24.5899 C   0  0  0  0  0  0
  -27.6097  -32.4214   25.7372 C   0  0  0  0  0  0
  -27.5575  -37.1789   24.8433 C   0  0  0  0  0  0
  -21.4086  -29.3063   22.3674 N   0  0  0  0  0  0
  -26.4291  -37.3746   23.9388 N   0  0  0  0  0  0
  -24.6705  -31.0737   22.0840 N   0  0  0  0  0  0
  -23.4187  -28.8143   23.2834 O   0  0  0  0  0  0
  -28.4037  -26.6739   20.0668 O   0  0  0  0  0  0
  -26.5605  -34.8917   22.4621 O   0  0  0  0  0  0
  -23.5393  -32.1308   23.7427 O   0  0  0  0  0  0
  -29.9469  -19.3645   23.2947 C   0  0  0  0  0  0
  -29.8886  -19.5333   20.5252 C   0  0  0  0  0  0
  -30.0739  -18.1863   22.5337 C   0  0  0  0  0  0
  -30.0671  -18.2504   21.1187 C   0  0  0  0  0  0
  -29.7773  -20.6312   22.6965 C   0  0  0  0  0  0
  -29.7469  -20.7349   21.2760 C   0  0  0  0  0  0
  -29.1021  -16.4810   23.9851 C   0  0  0  0  0  0
  -30.1431  -16.9222   23.2642 C   0  0  0  0  0  0
  -30.4243  -22.0176   24.5360 C   0  0  0  0  0  0
  -30.2202  -17.0129   20.1927 C   0  0  0  0  0  0
  -29.5698  -24.4439   20.2425 C   0  0  0  0  0  0
  -28.2710  -25.2827   20.4389 C   0  0  0  0  0  0
  -29.7162  -23.2018   21.1798 C   0  0  0  0  0  0
  -29.9164  -15.6372   20.6782 N   0  0  0  0  0  0
  -29.5023  -21.7142   23.5001 O   0  0  0  0  0  0
  -29.5633  -21.9138   20.5457 O   0  0  0  0  0  0
  -31.4727  -12.4515   19.1375 H   0  0  0  0  0  0
  -30.3628  -11.3348   19.8835 H   0  0  0  0  0  0
  -29.7406  -11.7120   17.4787 H   0  0  0  0  0  0
  -29.6735  -13.4418   17.7431 H   0  0  0  0  0  0
  -27.8175  -11.3098   18.8260 H   0  0  0  0  0  0
  -27.3807  -12.6429   17.7923 H   0  0  0  0  0  0
  -27.6798  -14.2533   19.5424 H   0  0  0  0  0  0
  -28.6800  -12.0649   21.4206 H   0  0  0  0  0  0
  -28.4708  -13.7371   21.8287 H   0  0  0  0  0  0
  -25.2786   -9.5681   22.4767 H   0  0  0  0  0  0
  -24.0045   -7.4597   22.7459 H   0  0  0  0  0  0
  -21.0863   -8.8769   19.8937 H   0  0  0  0  0  0
  -22.3708  -10.9688   19.6181 H   0  0  0  0  0  0
  -21.2005   -7.6158   23.9720 H   0  0  0  0  0  0
  -21.1488   -6.0515   25.9060 H   0  0  0  0  0  0
  -22.0611   -2.7629   23.2824 H   0  0  0  0  0  0
  -22.4158  -11.9888   22.4796 H   0  0  0  0  0  0
  -21.1080  -13.1256   22.2609 H   0  0  0  0  0  0
  -24.6666  -15.8428   20.5496 H   0  0  0  0  0  0
  -26.2794  -15.6319   20.0866 H   0  0  0  0  0  0
  -26.7117  -32.5529   23.0996 H   0  0  0  0  0  0
  -25.0151  -33.9641   25.0435 H   0  0  0  0  0  0
  -22.6902  -31.3078   21.3892 H   0  0  0  0  0  0
  -23.3745  -35.9685   23.3274 H   0  0  0  0  0  0
  -24.3656  -36.8947   22.2025 H   0  0  0  0  0  0
  -23.7395  -37.6540   23.6653 H   0  0  0  0  0  0
  -26.0354  -31.5797   20.5619 H   0  0  0  0  0  0
  -26.8304  -30.9001   21.9459 H   0  0  0  0  0  0
  -28.1127  -29.0858   21.1384 H   0  0  0  0  0  0
  -26.0390  -25.9807   18.9730 H   0  0  0  0  0  0
  -23.9808  -27.3026   19.0104 H   0  0  0  0  0  0
  -23.7014  -30.5755   19.3771 H   0  0  0  0  0  0
  -22.7393  -29.2166   19.8765 H   0  0  0  0  0  0
  -25.1363  -36.1841   25.0778 H   0  0  0  0  0  0
  -21.0006  -28.3289   24.1357 H   0  0  0  0  0  0
  -20.5699  -26.2231   23.3587 H   0  0  0  0  0  0
  -21.6641  -26.7433   22.1185 H   0  0  0  0  0  0
  -19.6937  -25.6330   21.1143 H   0  0  0  0  0  0
  -19.6760  -27.3277   20.6771 H   0  0  0  0  0  0
  -17.4211  -26.6635   21.3990 H   0  0  0  0  0  0
  -18.0347  -26.0095   22.9006 H   0  0  0  0  0  0
  -19.7924  -30.7194   24.2348 H   0  0  0  0  0  0
  -17.5025  -31.6282   24.5154 H   0  0  0  0  0  0
  -15.5348  -30.3041   23.7633 H   0  0  0  0  0  0
  -15.8597  -28.0854   22.7046 H   0  0  0  0  0  0
  -24.6013  -30.6968   25.7721 H   0  0  0  0  0  0
  -24.8980  -32.2845   26.4664 H   0  0  0  0  0  0
  -25.8191  -30.8942   27.0113 H   0  0  0  0  0  0
  -26.2780  -29.6673   24.1070 H   0  0  0  0  0  0
  -27.4227  -29.7191   25.4325 H   0  0  0  0  0  0
  -27.8576  -30.4229   23.8913 H   0  0  0  0  0  0
  -27.2679  -33.3492   26.1971 H   0  0  0  0  0  0
  -28.3936  -32.6770   25.0231 H   0  0  0  0  0  0
  -28.0701  -31.8268   26.5291 H   0  0  0  0  0  0
  -28.2581  -38.0105   24.7482 H   0  0  0  0  0  0
  -28.1115  -36.2616   24.6277 H   0  0  0  0  0  0
  -27.2260  -37.1445   25.8835 H   0  0  0  0  0  0
  -20.9179  -29.8797   21.6951 H   0  0  0  0  0  0
  -26.0160  -38.2792   24.1434 H   0  0  0  0  0  0
  -29.9222  -19.2791   24.3721 H   0  0  0  0  0  0
  -29.8486  -19.6204   19.4515 H   0  0  0  0  0  0
  -29.1499  -15.5487   24.5209 H   0  0  0  0  0  0
  -28.1819  -17.0521   24.0300 H   0  0  0  0  0  0
  -31.0631  -16.3524   23.1935 H   0  0  0  0  0  0
  -30.1089  -22.9423   25.0226 H   0  0  0  0  0  0
  -31.4266  -22.1705   24.1251 H   0  0  0  0  0  0
  -30.4536  -21.2457   25.3080 H   0  0  0  0  0  0
  -31.2268  -17.0526   19.7721 H   0  0  0  0  0  0
  -29.5623  -17.1927   19.3440 H   0  0  0  0  0  0
  -29.6584  -24.1686   19.1919 H   0  0  0  0  0  0
  -30.4195  -25.0964   20.4451 H   0  0  0  0  0  0
  -27.4814  -24.7762   19.8859 H   0  0  0  0  0  0
  -27.9820  -25.2717   21.4892 H   0  0  0  0  0  0
  -28.9840  -23.3131   21.9770 H   0  0  0  0  0  0
  -30.7056  -23.2357   21.6411 H   0  0  0  0  0  0
  -28.9669  -15.4752   20.9746 H   0  0  0  0  0  0
  1 25  1  0  0  0
  1 30  2  0  0  0
  1 84  1  0  0  0
  2  3  1  0  0  0
  2 25  1  0  0  0
  2 87  1  0  0  0
  2 88  1  0  0  0
  3  4  1  0  0  0
  3 89  1  0  0  0
  3 90  1  0  0  0
  4  5  1  0  0  0
  4 91  1  0  0  0
  4 92  1  0  0  0
  5  6  1  0  0  0
  5 26  1  0  0  0
  5 93  1  0  0  0
  6 25  1  0  0  0
  6 94  1  0  0  0
  6 95  1  0  0  0
  7  8  2  0  0  0
  7 26  1  0  0  0
  7 29  1  0  0  0
  8  9  1  0  0  0
  8 22  1  0  0  0
  9 10  1  0  0  0
  9 27  2  0  0  0
 10 11  2  0  0  0
 10 15  1  0  0  0
 11 12  1  0  0  0
 11 96  1  0  0  0
 12 13  2  0  0  0
 12 97  1  0  0  0
 13 14  1  0  0  0
 13 31  1  0  0  0
 14 15  2  0  0  0
 14 98  1  0  0  0
 15 99  1  0  0  0
 16 17  2  0  0  0
 16 21  1  0  0  0
 16 31  1  0  0  0
 17 18  1  0  0  0
 17100  1  0  0  0
 18 19  2  0  0  0
 18101  1  0  0  0
 19 20  1  0  0  0
 19 24  1  0  0  0
 20 21  2  0  0  0
 20102  1  0  0  0
 21 23  1  0  0  0
 22 28  1  0  0  0
 22 32  2  0  0  0
 26 27  1  0  0  0
 28103  1  0  0  0
 28104  1  0  0  0
 29105  1  0  0  0
 29106  1  0  0  0
 33 34  1  0  0  0
 33 66  1  0  0  0
 33 70  2  0  0  0
 34 36  1  0  0  0
 34 59  1  0  0  0
 34107  1  0  0  0
 35 44  2  0  0  0
 35 45  1  0  0  0
 35 68  1  0  0  0
 36 56  1  0  0  0
 36108  1  0  0  0
 37 39  1  0  0  0
 37 47  1  0  0  0
 37 66  1  0  0  0
 37109  1  0  0  0
 38 43  2  0  0  0
 38 46  1  0  0  0
 38 47  1  0  0  0
 39 64  1  0  0  0
 39 67  2  0  0  0
 40 52  1  0  0  0
 40 53  2  0  0  0
 40 58  1  0  0  0
 41110  1  0  0  0
 41111  1  0  0  0
 41112  1  0  0  0
 41 48  1  0  0  0
 42 43  1  0  0  0
 42 66  1  0  0  0
 42113  1  0  0  0
 42114  1  0  0  0
 43 44  1  0  0  0
 44115  1  0  0  0
 45 46  2  0  0  0
 45116  1  0  0  0
 46117  1  0  0  0
 47118  1  0  0  0
 47119  1  0  0  0
 48 56  1  0  0  0
 48 65  1  0  0  0
 48120  1  0  0  0
 49 50  1  0  0  0
 49 53  1  0  0  0
 49 64  1  0  0  0
 49121  1  0  0  0
 50 51  1  0  0  0
 50122  1  0  0  0
 50123  1  0  0  0
 51 52  1  0  0  0
 51124  1  0  0  0
 51125  1  0  0  0
 52126  1  0  0  0
 52127  1  0  0  0
 53 54  1  0  0  0
 54 55  2  0  0  0
 54128  1  0  0  0
 55 57  1  0  0  0
 55129  1  0  0  0
 56 69  2  0  0  0
 57 58  2  0  0  0
 57130  1  0  0  0
 58131  1  0  0  0
 59 60  1  0  0  0
 59 61  1  0  0  0
 59 62  1  0  0  0
 60132  1  0  0  0
 60133  1  0  0  0
 60134  1  0  0  0
 61135  1  0  0  0
 61136  1  0  0  0
 61137  1  0  0  0
 62138  1  0  0  0
 62139  1  0  0  0
 62140  1  0  0  0
 63 65  1  0  0  0
 63141  1  0  0  0
 63142  1  0  0  0
 63143  1  0  0  0
 64144  1  0  0  0
 65145  1  0  0  0
 68 82  1  0  0  0
 71 73  2  0  0  0
 71 75  1  0  0  0
 71146  1  0  0  0
 72 74  2  0  0  0
 72 76  1  0  0  0
 72147  1  0  0  0
 73 74  1  0  0  0
 73 78  1  0  0  0
 74 80  1  0  0  0
 75 76  2  0  0  0
 75 85  1  0  0  0
 76 86  1  0  0  0
 77 78  2  0  0  0
 77148  1  0  0  0
 77149  1  0  0  0
 78150  1  0  0  0
 79 85  1  0  0  0
 79151  1  0  0  0
 79152  1  0  0  0
 79153  1  0  0  0
 80 84  1  0  0  0
 80154  1  0  0  0
 80155  1  0  0  0
 81 82  1  0  0  0
 81 83  1  0  0  0
 81156  1  0  0  0
 81157  1  0  0  0
 82158  1  0  0  0
 82159  1  0  0  0
 83 86  1  0  0  0
 83160  1  0  0  0
 83161  1  0  0  0
 84162  1  0  0  0
M  ISO  4   1 100  68 101  82 101  84 100
M  END
> <chiral flag>
0

> <version>
0

> <s_m_source_file>
/data/baiqing/PycharmProjects/Reinvent-master-3.2/result/LINK_invent/BTK/process_docking_weight1_custom_product_contain_oxygen_bond_distance_aromatic_linkinvent_7_9_3/rearranged_h_0116.sdf

> <i_m_source_file_index>
77

> <r_mmod_Potential_Energy-OPLS-2005>
16.8384304046631

> <r_mmod_Stretch_Energy-OPLS-2005>
49.9194564819336

> <r_mmod_Bend_Energy-OPLS-2005>
124.035804748535

> <r_mmod_Torsional_Energy-OPLS-2005>
281.991607666016

> <r_mmod_Improper_Torsional_Energy-OPLS-2005>
8.52041149139404

> <r_mmod_Van_der_Waal_Energy-OPLS-2005>
166.769332885742

> <r_mmod_Electrostatic_Energy-OPLS-2005>
-426.242736816406

> <r_mmod_Solvation_Energy-OPLS-2005>
-210.496185302734

> <b_mmod_Minimization_Converged-OPLS-2005>
0

> <r_mmod_RMS_Derivative-OPLS-2005>
8.75846099853516

$$$$
77
                    3D
 Structure written by MMmdl.
166175  0  0  1  0            999 V2000
  -30.6297  -14.6418   20.4859 C   0  0  0  0  0  0
  -30.4431  -12.3939   19.4449 C   0  0  0  0  0  0
  -29.5080  -12.5020   18.2193 C   0  0  0  0  0  0
  -28.0336  -12.3336   18.6389 C   0  0  0  0  0  0
  -27.6551  -13.2123   19.8603 C   0  0  2  0  0  0
  -28.7049  -13.0791   20.9879 C   0  0  0  0  0  0
  -25.2594  -13.8166   20.5694 C   0  0  0  0  0  0
  -24.1846  -13.0452   20.9197 C   0  0  0  0  0  0
  -24.6408  -11.6914   20.8751 C   0  0  0  0  0  0
  -23.9074  -10.4299   21.0423 C   0  0  0  0  0  0
  -24.3619   -9.4210   21.9197 C   0  0  0  0  0  0
  -23.6282   -8.2250   22.0762 C   0  0  0  0  0  0
  -22.4267   -8.0299   21.3556 C   0  0  0  0  0  0
  -21.9905   -9.0278   20.4661 C   0  0  0  0  0  0
  -22.7246  -10.2149   20.3073 C   0  0  0  0  0  0
  -21.6851   -6.0733   22.5276 C   0  0  0  0  0  0
  -21.4019   -6.5635   23.8212 C   0  0  0  0  0  0
  -21.3650   -5.6791   24.9169 C   0  0  0  0  0  0
  -21.6038   -4.3051   24.7219 C   0  0  0  0  0  0
  -21.8818   -3.8150   23.4346 C   0  0  0  0  0  0
  -21.9192   -4.6962   22.3400 C   0  0  0  0  0  0
  -22.7867  -13.5272   21.1827 C   0  0  0  0  0  0
  -22.1663   -4.2156   21.0974 F   0  0  0  0  0  0
  -21.5613   -3.4535   25.7730 F   0  0  0  0  0  0
  -30.0197  -13.4181   20.4177 N   0  0  0  0  0  0
  -26.3014  -12.9341   20.3326 N   0  0  0  0  0  0
  -25.9337  -11.6499   20.5757 N   0  0  0  0  0  0
  -22.0476  -12.8295   22.0382 N   0  0  0  0  0  0
  -25.4310  -15.1884   20.4105 N   0  0  0  0  0  0
  -31.8023  -14.8003   20.1320 O   0  0  0  0  0  0
  -21.6640   -6.8886   21.4245 O   0  0  0  0  0  0
  -22.3578  -14.5581   20.6658 O   0  0  0  0  0  0
  -24.6247  -31.8608   23.2046 C   0  0  0  0  0  0
  -25.9091  -32.4796   23.8367 C   0  0  1  0  0  0
  -27.2212  -27.3230   20.1079 C   0  0  0  0  0  0
  -25.5898  -33.8595   24.2279 N   0  0  0  0  0  0
  -23.4173  -30.4863   21.5478 C   0  0  2  0  0  0
  -24.8630  -28.9447   20.1145 C   0  0  0  0  0  0
  -22.7458  -29.4632   22.4941 C   0  0  0  0  0  0
  -18.0277  -28.1388   22.8483 C   0  0  0  0  0  0
  -24.1477  -36.7298   23.2633 C   0  0  0  0  0  0
  -25.9594  -30.7937   21.3747 C   0  0  0  0  0  0
  -26.0349  -29.4223   20.7146 C   0  0  0  0  0  0
  -27.2177  -28.6235   20.7018 C   0  0  0  0  0  0
  -26.0216  -26.9014   19.4847 C   0  0  0  0  0  0
  -24.8572  -27.6883   19.4942 C   0  0  0  0  0  0
  -23.6308  -29.8232   20.1636 C   0  0  0  0  0  0
  -25.4105  -36.3088   24.0320 C   0  0  1  0  0  0
  -20.5873  -28.3685   23.1277 C   0  0  2  0  0  0
  -20.6761  -26.9410   22.5401 C   0  0  0  0  0  0
  -19.5742  -26.6381   21.5195 C   0  0  0  0  0  0
  -18.1923  -26.7933   22.1612 C   0  0  0  0  0  0
  -19.1530  -28.8851   23.2880 C   0  0  0  0  0  0
  -18.9461  -30.1453   23.8902 C   0  0  0  0  0  0
  -17.6464  -30.6598   24.0559 C   0  0  0  0  0  0
  -25.9043  -34.9459   23.5105 C   0  0  0  0  0  0
  -16.5354  -29.9097   23.6334 C   0  0  0  0  0  0
  -16.7266  -28.6507   23.0365 C   0  0  0  0  0  0
  -26.4460  -31.6616   25.0745 C   0  0  0  0  0  0
  -25.3682  -31.3800   26.1473 C   0  0  0  0  0  0
  -27.0279  -30.3025   24.6216 C   0  0  0  0  0  0
  -27.6025  -32.4348   25.7512 C   0  0  0  0  0  0
  -27.5579  -37.1798   24.8457 C   0  0  0  0  0  0
  -21.4169  -29.3052   22.3679 N   0  0  0  0  0  0
  -26.4285  -37.3786   23.9409 N   0  0  0  0  0  0
  -24.6861  -31.0625   22.0996 N   0  0  0  0  0  0
  -23.4185  -28.8160   23.3011 O   0  0  0  0  0  0
  -28.3352  -26.4672   20.1540 O   0  0  0  0  0  0
  -26.5626  -34.8923   22.4683 O   0  0  0  0  0  0
  -23.5413  -32.1394   23.7380 O   0  0  0  0  0  0
  -29.3078  -19.3326   19.6548 C   0  0  0  0  0  0
  -30.7062  -19.3132   21.5992 C   0  0  0  0  0  0
  -29.2924  -17.8955   19.6426 C   0  0  0  0  0  0
  -30.6859  -17.8882   21.6272 C   0  0  0  0  0  0
  -30.0175  -20.0911   20.6229 C   0  0  0  0  0  0
  -29.9839  -17.1415   20.6444 C   0  0  0  0  0  0
  -30.4624  -24.4648   20.5869 C   0  0  0  0  0  0
  -29.2168  -24.0005   20.3756 C   0  0  0  0  0  0
  -31.5679  -23.5583   20.9064 C   0  0  0  0  0  0
  -27.5685  -17.6859   17.8150 C   0  0  0  0  0  0
  -28.5222  -17.1710   18.6098 C   0  0  0  0  0  0
  -31.2291  -22.1201   21.3146 C   0  0  0  0  0  0
  -28.8974  -22.4469   20.4184 C   0  0  2  0  0  0
  -31.3894  -17.1653   22.7634 C   0  0  0  0  0  0
  -27.8664  -22.1551   21.5237 C   0  0  0  0  0  0
  -28.0710  -25.0122   20.0379 C   0  0  0  0  0  0
  -30.0817  -21.5385   20.6047 N   0  0  0  0  0  0
  -29.8043  -15.6939   20.7722 N   0  0  0  0  0  0
  -32.7467  -23.9195   20.8755 O   0  0  0  0  0  0
  -31.4838  -12.5193   19.1413 H   0  0  0  0  0  0
  -30.3796  -11.4014   19.8930 H   0  0  0  0  0  0
  -29.7717  -11.7477   17.4775 H   0  0  0  0  0  0
  -29.6437  -13.4682   17.7301 H   0  0  0  0  0  0
  -27.8793  -11.2812   18.8804 H   0  0  0  0  0  0
  -27.3762  -12.5516   17.7974 H   0  0  0  0  0  0
  -27.6684  -14.2417   19.5064 H   0  0  0  0  0  0
  -28.7215  -12.0616   21.3809 H   0  0  0  0  0  0
  -28.4573  -13.7227   21.8343 H   0  0  0  0  0  0
  -25.2759   -9.5673   22.4776 H   0  0  0  0  0  0
  -23.9971   -7.4635   22.7478 H   0  0  0  0  0  0
  -21.0826   -8.8821   19.8975 H   0  0  0  0  0  0
  -22.3712  -10.9693   19.6185 H   0  0  0  0  0  0
  -21.2034   -7.6148   23.9725 H   0  0  0  0  0  0
  -21.1462   -6.0513   25.9068 H   0  0  0  0  0  0
  -22.0606   -2.7612   23.2855 H   0  0  0  0  0  0
  -22.4066  -11.9977   22.4835 H   0  0  0  0  0  0
  -21.1093  -13.1359   22.2549 H   0  0  0  0  0  0
  -24.6629  -15.8392   20.5306 H   0  0  0  0  0  0
  -26.2675  -15.6315   20.0530 H   0  0  0  0  0  0
  -26.7161  -32.5461   23.1121 H   0  0  0  0  0  0
  -25.0004  -33.9747   25.0391 H   0  0  0  0  0  0
  -22.7110  -31.3066   21.4056 H   0  0  0  0  0  0
  -23.3742  -35.9630   23.3300 H   0  0  0  0  0  0
  -24.3560  -36.8923   22.2049 H   0  0  0  0  0  0
  -23.7228  -37.6496   23.6663 H   0  0  0  0  0  0
  -26.0874  -31.5591   20.6084 H   0  0  0  0  0  0
  -26.8404  -30.8425   22.0030 H   0  0  0  0  0  0
  -28.1160  -28.9857   21.1821 H   0  0  0  0  0  0
  -25.9463  -25.9459   18.9892 H   0  0  0  0  0  0
  -23.9565  -27.3154   19.0258 H   0  0  0  0  0  0
  -23.7504  -30.5980   19.4059 H   0  0  0  0  0  0
  -22.7510  -29.2514   19.8625 H   0  0  0  0  0  0
  -25.1285  -36.1940   25.0813 H   0  0  0  0  0  0
  -20.9966  -28.3260   24.1397 H   0  0  0  0  0  0
  -20.5626  -26.2302   23.3598 H   0  0  0  0  0  0
  -21.6638  -26.7421   22.1220 H   0  0  0  0  0  0
  -19.6903  -25.6281   21.1248 H   0  0  0  0  0  0
  -19.6694  -27.3166   20.6705 H   0  0  0  0  0  0
  -17.4184  -26.6665   21.4030 H   0  0  0  0  0  0
  -18.0349  -26.0074   22.9011 H   0  0  0  0  0  0
  -19.7941  -30.7259   24.2288 H   0  0  0  0  0  0
  -17.5029  -31.6286   24.5146 H   0  0  0  0  0  0
  -15.5361  -30.3010   23.7658 H   0  0  0  0  0  0
  -15.8655  -28.0822   22.7108 H   0  0  0  0  0  0
  -24.5841  -30.7157   25.7822 H   0  0  0  0  0  0
  -24.8884  -32.2991   26.4857 H   0  0  0  0  0  0
  -25.7981  -30.9012   27.0278 H   0  0  0  0  0  0
  -26.2859  -29.6829   24.1168 H   0  0  0  0  0  0
  -27.3863  -29.7247   25.4746 H   0  0  0  0  0  0
  -27.8783  -30.4292   23.9514 H   0  0  0  0  0  0
  -27.2630  -33.3636   26.2119 H   0  0  0  0  0  0
  -28.3822  -32.6939   25.0334 H   0  0  0  0  0  0
  -28.0711  -31.8461   26.5412 H   0  0  0  0  0  0
  -28.2594  -38.0095   24.7506 H   0  0  0  0  0  0
  -28.1071  -36.2629   24.6270 H   0  0  0  0  0  0
  -27.2301  -37.1437   25.8859 H   0  0  0  0  0  0
  -20.9327  -29.8809   21.6925 H   0  0  0  0  0  0
  -26.0165  -38.2856   24.1433 H   0  0  0  0  0  0
  -28.7876  -19.8749   18.8804 H   0  0  0  0  0  0
  -31.2525  -19.8074   22.3874 H   0  0  0  0  0  0
  -30.6777  -25.5209   20.5339 H   0  0  0  0  0  0
  -27.0785  -17.0626   17.0806 H   0  0  0  0  0  0
  -27.2517  -18.7165   17.8719 H   0  0  0  0  0  0
  -28.7676  -16.1297   18.4644 H   0  0  0  0  0  0
  -31.0311  -22.1129   22.3868 H   0  0  0  0  0  0
  -32.1204  -21.5162   21.1440 H   0  0  0  0  0  0
  -28.4483  -22.2001   19.4543 H   0  0  0  0  0  0
  -31.8257  -17.8611   23.4805 H   0  0  0  0  0  0
  -32.1896  -16.5358   22.3740 H   0  0  0  0  0  0
  -30.6840  -16.5307   23.3031 H   0  0  0  0  0  0
  -28.2522  -22.4284   22.5069 H   0  0  0  0  0  0
  -27.6028  -21.0983   21.5587 H   0  0  0  0  0  0
  -26.9341  -22.6968   21.3673 H   0  0  0  0  0  0
  -27.2333  -24.7795   20.6951 H   0  0  0  0  0  0
  -27.7614  -24.7814   19.0187 H   0  0  0  0  0  0
  -28.8543  -15.4034   20.9490 H   0  0  0  0  0  0
  1 25  1  0  0  0
  1 30  2  0  0  0
  1 88  1  0  0  0
  2  3  1  0  0  0
  2 25  1  0  0  0
  2 90  1  0  0  0
  2 91  1  0  0  0
  3  4  1  0  0  0
  3 92  1  0  0  0
  3 93  1  0  0  0
  4  5  1  0  0  0
  4 94  1  0  0  0
  4 95  1  0  0  0
  5  6  1  0  0  0
  5 26  1  0  0  0
  5 96  1  0  0  0
  6 25  1  0  0  0
  6 97  1  0  0  0
  6 98  1  0  0  0
  7  8  2  0  0  0
  7 26  1  0  0  0
  7 29  1  0  0  0
  8  9  1  0  0  0
  8 22  1  0  0  0
  9 10  1  0  0  0
  9 27  2  0  0  0
 10 11  2  0  0  0
 10 15  1  0  0  0
 11 12  1  0  0  0
 11 99  1  0  0  0
 12 13  2  0  0  0
 12100  1  0  0  0
 13 14  1  0  0  0
 13 31  1  0  0  0
 14 15  2  0  0  0
 14101  1  0  0  0
 15102  1  0  0  0
 16 17  2  0  0  0
 16 21  1  0  0  0
 16 31  1  0  0  0
 17 18  1  0  0  0
 17103  1  0  0  0
 18 19  2  0  0  0
 18104  1  0  0  0
 19 20  1  0  0  0
 19 24  1  0  0  0
 20 21  2  0  0  0
 20105  1  0  0  0
 21 23  1  0  0  0
 22 28  1  0  0  0
 22 32  2  0  0  0
 26 27  1  0  0  0
 28106  1  0  0  0
 28107  1  0  0  0
 29108  1  0  0  0
 29109  1  0  0  0
 33 34  1  0  0  0
 33 66  1  0  0  0
 33 70  2  0  0  0
 34 36  1  0  0  0
 34 59  1  0  0  0
 34110  1  0  0  0
 35 44  2  0  0  0
 35 45  1  0  0  0
 35 68  1  0  0  0
 36 56  1  0  0  0
 36111  1  0  0  0
 37 39  1  0  0  0
 37 47  1  0  0  0
 37 66  1  0  0  0
 37112  1  0  0  0
 38 43  2  0  0  0
 38 46  1  0  0  0
 38 47  1  0  0  0
 39 64  1  0  0  0
 39 67  2  0  0  0
 40 52  1  0  0  0
 40 53  2  0  0  0
 40 58  1  0  0  0
 41113  1  0  0  0
 41114  1  0  0  0
 41115  1  0  0  0
 41 48  1  0  0  0
 42 43  1  0  0  0
 42 66  1  0  0  0
 42116  1  0  0  0
 42117  1  0  0  0
 43 44  1  0  0  0
 44118  1  0  0  0
 45 46  2  0  0  0
 45119  1  0  0  0
 46120  1  0  0  0
 47121  1  0  0  0
 47122  1  0  0  0
 48 56  1  0  0  0
 48 65  1  0  0  0
 48123  1  0  0  0
 49 50  1  0  0  0
 49 53  1  0  0  0
 49 64  1  0  0  0
 49124  1  0  0  0
 50 51  1  0  0  0
 50125  1  0  0  0
 50126  1  0  0  0
 51 52  1  0  0  0
 51127  1  0  0  0
 51128  1  0  0  0
 52129  1  0  0  0
 52130  1  0  0  0
 53 54  1  0  0  0
 54 55  2  0  0  0
 54131  1  0  0  0
 55 57  1  0  0  0
 55132  1  0  0  0
 56 69  2  0  0  0
 57 58  2  0  0  0
 57133  1  0  0  0
 58134  1  0  0  0
 59 60  1  0  0  0
 59 61  1  0  0  0
 59 62  1  0  0  0
 60135  1  0  0  0
 60136  1  0  0  0
 60137  1  0  0  0
 61138  1  0  0  0
 61139  1  0  0  0
 61140  1  0  0  0
 62141  1  0  0  0
 62142  1  0  0  0
 62143  1  0  0  0
 63 65  1  0  0  0
 63144  1  0  0  0
 63145  1  0  0  0
 63146  1  0  0  0
 64147  1  0  0  0
 65148  1  0  0  0
 68 86  1  0  0  0
 71 73  2  0  0  0
 71 75  1  0  0  0
 71149  1  0  0  0
 72 74  1  0  0  0
 72 75  2  0  0  0
 72150  1  0  0  0
 73 76  1  0  0  0
 73 81  1  0  0  0
 74 76  2  0  0  0
 74 84  1  0  0  0
 75 87  1  0  0  0
 76 88  1  0  0  0
 77 78  2  0  0  0
 77 79  1  0  0  0
 77151  1  0  0  0
 78 83  1  0  0  0
 78 86  1  0  0  0
 79 82  1  0  0  0
 79 89  2  0  0  0
 80 81  2  0  0  0
 80152  1  0  0  0
 80153  1  0  0  0
 81154  1  0  0  0
 82 87  1  0  0  0
 82155  1  0  0  0
 82156  1  0  0  0
 83 85  1  0  0  0
 83 87  1  0  0  0
 83157  1  0  0  0
 84158  1  0  0  0
 84159  1  0  0  0
 84160  1  0  0  0
 85161  1  0  0  0
 85162  1  0  0  0
 85163  1  0  0  0
 86164  1  0  0  0
 86165  1  0  0  0
 88166  1  0  0  0
M  ISO  4   1 100  68 101  86 101  88 100
M  END
> <chiral flag>
0

> <version>
0

> <s_m_source_file>
/data/baiqing/PycharmProjects/Reinvent-master-3.2/result/LINK_invent/BTK/process_docking_weight1_custom_product_contain_oxygen_bond_distance_aromatic_linkinvent_7_9_3/rearranged_h_0116.sdf

> <i_m_source_file_index>
78

> <r_mmod_Potential_Energy-OPLS-2005>
47.1929244995117

> <r_mmod_Stretch_Energy-OPLS-2005>
85.8884353637695

> <r_mmod_Bend_Energy-OPLS-2005>
136.923080444336

> <r_mmod_Torsional_Energy-OPLS-2005>
245.077651977539

> <r_mmod_Improper_Torsional_Energy-OPLS-2005>
7.55313444137573

> <r_mmod_Van_der_Waal_Energy-OPLS-2005>
159.057327270508

> <r_mmod_Electrostatic_Energy-OPLS-2005>
-407.322845458984

> <r_mmod_Solvation_Energy-OPLS-2005>
-229.397216796875

> <b_mmod_Minimization_Converged-OPLS-2005>
0

> <r_mmod_RMS_Derivative-OPLS-2005>
2.21568417549133

$$$$
78
                    3D
 Structure written by MMmdl.
144152  0  0  1  0            999 V2000
  -30.4793  -15.1144   20.3968 C   0  0  0  0  0  0
  -30.4457  -12.7049   19.4958 C   0  0  0  0  0  0
  -29.5256  -12.5443   18.2616 C   0  0  0  0  0  0
  -28.0671  -12.2981   18.6922 C   0  0  0  0  0  0
  -27.6184  -13.2574   19.8239 C   0  0  2  0  0  0
  -28.6623  -13.3629   20.9539 C   0  0  0  0  0  0
  -25.2426  -13.8222   20.5742 C   0  0  0  0  0  0
  -24.1758  -13.0434   20.9253 C   0  0  0  0  0  0
  -24.6389  -11.6922   20.8765 C   0  0  0  0  0  0
  -23.9076  -10.4291   21.0413 C   0  0  0  0  0  0
  -24.3625   -9.4207   21.9190 C   0  0  0  0  0  0
  -23.6299   -8.2242   22.0753 C   0  0  0  0  0  0
  -22.4280   -8.0280   21.3546 C   0  0  0  0  0  0
  -21.9918   -9.0254   20.4646 C   0  0  0  0  0  0
  -22.7249  -10.2132   20.3060 C   0  0  0  0  0  0
  -21.6853   -6.0738   22.5282 C   0  0  0  0  0  0
  -21.4014   -6.5642   23.8215 C   0  0  0  0  0  0
  -21.3659   -5.6794   24.9178 C   0  0  0  0  0  0
  -21.6043   -4.3056   24.7227 C   0  0  0  0  0  0
  -21.8819   -3.8149   23.4348 C   0  0  0  0  0  0
  -21.9194   -4.6966   22.3404 C   0  0  0  0  0  0
  -22.7777  -13.5196   21.1907 C   0  0  0  0  0  0
  -22.1662   -4.2152   21.0983 F   0  0  0  0  0  0
  -21.5628   -3.4539   25.7740 F   0  0  0  0  0  0
  -29.9088  -13.8283   20.3283 N   0  0  0  0  0  0
  -26.2843  -12.9466   20.3219 N   0  0  0  0  0  0
  -25.9322  -11.6588   20.5726 N   0  0  0  0  0  0
  -22.0427  -12.8178   22.0455 N   0  0  0  0  0  0
  -25.4070  -15.1958   20.4195 N   0  0  0  0  0  0
  -31.7067  -15.1497   20.2359 O   0  0  0  0  0  0
  -21.6641   -6.8880   21.4243 O   0  0  0  0  0  0
  -22.3462  -14.5503   20.6749 O   0  0  0  0  0  0
  -24.6541  -31.8343   23.1789 C   0  0  0  0  0  0
  -25.9261  -32.4647   23.8223 C   0  0  1  0  0  0
  -27.2210  -27.0277   20.1777 C   0  0  0  0  0  0
  -25.5965  -33.8456   24.2136 N   0  0  0  0  0  0
  -23.4648  -30.4488   21.5267 C   0  0  2  0  0  0
  -24.9182  -28.8510   20.1203 C   0  0  0  0  0  0
  -22.7625  -29.4499   22.4821 C   0  0  0  0  0  0
  -18.0316  -28.1409   22.8478 C   0  0  0  0  0  0
  -24.1489  -36.7233   23.2644 C   0  0  0  0  0  0
  -26.0281  -30.6738   21.3942 C   0  0  0  0  0  0
  -26.1004  -29.2699   20.7461 C   0  0  0  0  0  0
  -27.2541  -28.3775   20.7533 C   0  0  0  0  0  0
  -26.0105  -26.7347   19.5167 C   0  0  0  0  0  0
  -24.8908  -27.5984   19.4887 C   0  0  0  0  0  0
  -23.7011  -29.7688   20.1516 C   0  0  0  0  0  0
  -25.4124  -36.3004   24.0310 C   0  0  1  0  0  0
  -20.5935  -28.3745   23.1213 C   0  0  2  0  0  0
  -20.6794  -26.9435   22.5405 C   0  0  0  0  0  0
  -19.5764  -26.6385   21.5218 C   0  0  0  0  0  0
  -18.1949  -26.7943   22.1631 C   0  0  0  0  0  0
  -19.1575  -28.8895   23.2836 C   0  0  0  0  0  0
  -18.9488  -30.1487   23.8866 C   0  0  0  0  0  0
  -17.6480  -30.6598   24.0561 C   0  0  0  0  0  0
  -25.9084  -34.9384   23.5038 C   0  0  0  0  0  0
  -16.5373  -29.9090   23.6340 C   0  0  0  0  0  0
  -16.7298  -28.6511   23.0358 C   0  0  0  0  0  0
  -26.4545  -31.6545   25.0701 C   0  0  0  0  0  0
  -25.3697  -31.3766   26.1372 C   0  0  0  0  0  0
  -27.0420  -30.2925   24.6346 C   0  0  0  0  0  0
  -27.6055  -32.4326   25.7503 C   0  0  0  0  0  0
  -27.5569  -37.1773   24.8468 C   0  0  0  0  0  0
  -21.4303  -29.3055   22.3572 N   0  0  0  0  0  0
  -26.4278  -37.3728   23.9414 N   0  0  0  0  0  0
  -24.7364  -31.0095   22.0881 N   0  0  0  0  0  0
  -23.4216  -28.8054   23.3019 O   0  0  0  0  0  0
  -28.2321  -25.9648   20.1353 O   0  0  0  0  0  0
  -26.5683  -34.8903   22.4626 O   0  0  0  0  0  0
  -23.5629  -32.1267   23.6934 O   0  0  0  0  0  0
  -29.0525  -19.0728   19.9411 C   0  0  0  0  0  0
  -30.6467  -18.4330   21.4975 C   0  0  0  0  0  0
  -29.8087  -17.8820   20.5534 C   0  0  0  0  0  0
  -29.2939  -20.4367   20.3985 C   0  0  0  0  0  0
  -28.3784  -23.2285   20.8205 C   0  0  0  0  0  0
  -28.1034  -24.6652   20.8550 C   0  0  0  0  0  0
  -28.9107  -21.9668   19.9364 C   0  0  0  0  0  0
  -29.6646  -16.3213   20.3485 N   0  0  0  0  0  0
  -28.9924  -22.1606   18.7208 O   0  0  0  0  0  0
  -30.5013  -20.2182   21.6612 S   0  0  0  0  0  0
  -31.4672  -12.9019   19.1671 H   0  0  0  0  0  0
  -30.4906  -11.7800   20.0725 H   0  0  0  0  0  0
  -29.8738  -11.7248   17.6317 H   0  0  0  0  0  0
  -29.5777  -13.4458   17.6488 H   0  0  0  0  0  0
  -27.9988  -11.2664   19.0394 H   0  0  0  0  0  0
  -27.3967  -12.3771   17.8357 H   0  0  0  0  0  0
  -27.5532  -14.2391   19.3538 H   0  0  0  0  0  0
  -28.7978  -12.4075   21.4636 H   0  0  0  0  0  0
  -28.3339  -14.0777   21.7103 H   0  0  0  0  0  0
  -25.2766   -9.5684   22.4768 H   0  0  0  0  0  0
  -24.0010   -7.4630   22.7469 H   0  0  0  0  0  0
  -21.0853   -8.8774   19.8947 H   0  0  0  0  0  0
  -22.3709  -10.9674   19.6170 H   0  0  0  0  0  0
  -21.2006   -7.6150   23.9720 H   0  0  0  0  0  0
  -21.1480   -6.0524   25.9080 H   0  0  0  0  0  0
  -22.0597   -2.7611   23.2848 H   0  0  0  0  0  0
  -22.4049  -11.9844   22.4846 H   0  0  0  0  0  0
  -21.1038  -13.1188   22.2656 H   0  0  0  0  0  0
  -24.6378  -15.8450   20.5454 H   0  0  0  0  0  0
  -26.2482  -15.6440   20.0831 H   0  0  0  0  0  0
  -26.7332  -32.5226   23.0949 H   0  0  0  0  0  0
  -25.0072  -33.9551   25.0257 H   0  0  0  0  0  0
  -22.7738  -31.2779   21.3611 H   0  0  0  0  0  0
  -23.3759  -35.9555   23.3288 H   0  0  0  0  0  0
  -24.3572  -36.8888   22.2063 H   0  0  0  0  0  0
  -23.7235  -37.6418   23.6699 H   0  0  0  0  0  0
  -26.1904  -31.4170   20.6119 H   0  0  0  0  0  0
  -26.8958  -30.7349   22.0396 H   0  0  0  0  0  0
  -28.1588  -28.7001   21.2491 H   0  0  0  0  0  0
  -25.9186  -25.7736   19.0304 H   0  0  0  0  0  0
  -23.9915  -27.2709   18.9855 H   0  0  0  0  0  0
  -23.8526  -30.5390   19.3946 H   0  0  0  0  0  0
  -22.8131  -29.2190   19.8341 H   0  0  0  0  0  0
  -25.1314  -36.1817   25.0800 H   0  0  0  0  0  0
  -21.0029  -28.3344   24.1334 H   0  0  0  0  0  0
  -20.5678  -26.2362   23.3636 H   0  0  0  0  0  0
  -21.6658  -26.7420   22.1206 H   0  0  0  0  0  0
  -19.6921  -25.6289   21.1266 H   0  0  0  0  0  0
  -19.6697  -27.3182   20.6735 H   0  0  0  0  0  0
  -17.4214  -26.6690   21.4037 H   0  0  0  0  0  0
  -18.0342  -26.0094   22.9035 H   0  0  0  0  0  0
  -19.7962  -30.7316   24.2219 H   0  0  0  0  0  0
  -17.5033  -31.6273   24.5174 H   0  0  0  0  0  0
  -15.5372  -30.2981   23.7678 H   0  0  0  0  0  0
  -15.8702  -28.0819   22.7084 H   0  0  0  0  0  0
  -24.5904  -30.7081   25.7697 H   0  0  0  0  0  0
  -24.8852  -32.2952   26.4689 H   0  0  0  0  0  0
  -25.7955  -30.9022   27.0223 H   0  0  0  0  0  0
  -26.3060  -29.6634   24.1327 H   0  0  0  0  0  0
  -27.3968  -29.7246   25.4961 H   0  0  0  0  0  0
  -27.8996  -30.4136   23.9727 H   0  0  0  0  0  0
  -27.2637  -33.3663   26.1983 H   0  0  0  0  0  0
  -28.3922  -32.6820   25.0370 H   0  0  0  0  0  0
  -28.0655  -31.8506   26.5501 H   0  0  0  0  0  0
  -28.2574  -38.0082   24.7512 H   0  0  0  0  0  0
  -28.1075  -36.2607   24.6293 H   0  0  0  0  0  0
  -27.2286  -37.1419   25.8872 H   0  0  0  0  0  0
  -20.9536  -29.8767   21.6735 H   0  0  0  0  0  0
  -26.0136  -38.2791   24.1419 H   0  0  0  0  0  0
  -28.3464  -18.8823   19.1452 H   0  0  0  0  0  0
  -31.3335  -17.9095   22.1529 H   0  0  0  0  0  0
  -28.0802  -22.8107   21.7709 H   0  0  0  0  0  0
  -27.6572  -24.9417   21.8002 H   0  0  0  0  0  0
  -28.7090  -16.0606   20.1597 H   0  0  0  0  0  0
  1 25  1  0  0  0
  1 30  2  0  0  0
  1 78  1  0  0  0
  2  3  1  0  0  0
  2 25  1  0  0  0
  2 81  1  0  0  0
  2 82  1  0  0  0
  3  4  1  0  0  0
  3 83  1  0  0  0
  3 84  1  0  0  0
  4  5  1  0  0  0
  4 85  1  0  0  0
  4 86  1  0  0  0
  5  6  1  0  0  0
  5 26  1  0  0  0
  5 87  1  0  0  0
  6 25  1  0  0  0
  6 88  1  0  0  0
  6 89  1  0  0  0
  7  8  2  0  0  0
  7 26  1  0  0  0
  7 29  1  0  0  0
  8  9  1  0  0  0
  8 22  1  0  0  0
  9 10  1  0  0  0
  9 27  2  0  0  0
 10 11  2  0  0  0
 10 15  1  0  0  0
 11 12  1  0  0  0
 11 90  1  0  0  0
 12 13  2  0  0  0
 12 91  1  0  0  0
 13 14  1  0  0  0
 13 31  1  0  0  0
 14 15  2  0  0  0
 14 92  1  0  0  0
 15 93  1  0  0  0
 16 17  2  0  0  0
 16 21  1  0  0  0
 16 31  1  0  0  0
 17 18  1  0  0  0
 17 94  1  0  0  0
 18 19  2  0  0  0
 18 95  1  0  0  0
 19 20  1  0  0  0
 19 24  1  0  0  0
 20 21  2  0  0  0
 20 96  1  0  0  0
 21 23  1  0  0  0
 22 28  1  0  0  0
 22 32  2  0  0  0
 26 27  1  0  0  0
 28 97  1  0  0  0
 28 98  1  0  0  0
 29 99  1  0  0  0
 29100  1  0  0  0
 33 34  1  0  0  0
 33 66  1  0  0  0
 33 70  2  0  0  0
 34 36  1  0  0  0
 34 59  1  0  0  0
 34101  1  0  0  0
 35 44  2  0  0  0
 35 45  1  0  0  0
 35 68  1  0  0  0
 36 56  1  0  0  0
 36102  1  0  0  0
 37 39  1  0  0  0
 37 47  1  0  0  0
 37 66  1  0  0  0
 37103  1  0  0  0
 38 43  2  0  0  0
 38 46  1  0  0  0
 38 47  1  0  0  0
 39 64  1  0  0  0
 39 67  2  0  0  0
 40 52  1  0  0  0
 40 53  2  0  0  0
 40 58  1  0  0  0
 41104  1  0  0  0
 41105  1  0  0  0
 41106  1  0  0  0
 41 48  1  0  0  0
 42 43  1  0  0  0
 42 66  1  0  0  0
 42107  1  0  0  0
 42108  1  0  0  0
 43 44  1  0  0  0
 44109  1  0  0  0
 45 46  2  0  0  0
 45110  1  0  0  0
 46111  1  0  0  0
 47112  1  0  0  0
 47113  1  0  0  0
 48 56  1  0  0  0
 48 65  1  0  0  0
 48114  1  0  0  0
 49 50  1  0  0  0
 49 53  1  0  0  0
 49 64  1  0  0  0
 49115  1  0  0  0
 50 51  1  0  0  0
 50116  1  0  0  0
 50117  1  0  0  0
 51 52  1  0  0  0
 51118  1  0  0  0
 51119  1  0  0  0
 52120  1  0  0  0
 52121  1  0  0  0
 53 54  1  0  0  0
 54 55  2  0  0  0
 54122  1  0  0  0
 55 57  1  0  0  0
 55123  1  0  0  0
 56 69  2  0  0  0
 57 58  2  0  0  0
 57124  1  0  0  0
 58125  1  0  0  0
 59 60  1  0  0  0
 59 61  1  0  0  0
 59 62  1  0  0  0
 60126  1  0  0  0
 60127  1  0  0  0
 60128  1  0  0  0
 61129  1  0  0  0
 61130  1  0  0  0
 61131  1  0  0  0
 62132  1  0  0  0
 62133  1  0  0  0
 62134  1  0  0  0
 63 65  1  0  0  0
 63135  1  0  0  0
 63136  1  0  0  0
 63137  1  0  0  0
 64138  1  0  0  0
 65139  1  0  0  0
 68 76  1  0  0  0
 71 73  1  0  0  0
 71 74  2  0  0  0
 71140  1  0  0  0
 72 73  2  0  0  0
 72 80  1  0  0  0
 72141  1  0  0  0
 73 78  1  0  0  0
 74 77  1  0  0  0
 74 80  1  0  0  0
 75 76  2  0  0  0
 75 77  1  0  0  0
 75142  1  0  0  0
 76143  1  0  0  0
 77 79  2  0  0  0
 78144  1  0  0  0
M  ISO  4   1 100  68 101  76 101  78 100
M  END
> <chiral flag>
0

> <version>
0

> <s_m_source_file>
/data/baiqing/PycharmProjects/Reinvent-master-3.2/result/LINK_invent/BTK/process_docking_weight1_custom_product_contain_oxygen_bond_distance_aromatic_linkinvent_7_9_3/rearranged_h_0116.sdf

> <i_m_source_file_index>
79

> <r_mmod_Potential_Energy-OPLS-2005>
878.973754882812

> <r_mmod_Stretch_Energy-OPLS-2005>
359.753051757812

> <r_mmod_Bend_Energy-OPLS-2005>
401.204925537109

> <r_mmod_Torsional_Energy-OPLS-2005>
253.580581665039

> <r_mmod_Improper_Torsional_Energy-OPLS-2005>
8.4271411895752

> <r_mmod_Van_der_Waal_Energy-OPLS-2005>
104.185577392578

> <r_mmod_Electrostatic_Energy-OPLS-2005>
-337.482879638672

> <r_mmod_Solvation_Energy-OPLS-2005>
-229.579177856445

> <b_mmod_Minimization_Converged-OPLS-2005>
0

> <r_mmod_RMS_Derivative-OPLS-2005>
0.684553384780884

$$$$
79
                    3D
 Structure written by MMmdl.
168177  0  0  1  0            999 V2000
  -30.5906  -14.6656   20.5016 C   0  0  0  0  0  0
  -30.4405  -12.4089   19.4534 C   0  0  0  0  0  0
  -29.5085  -12.5166   18.2245 C   0  0  0  0  0  0
  -28.0325  -12.3429   18.6375 C   0  0  0  0  0  0
  -27.6520  -13.2145   19.8635 C   0  0  2  0  0  0
  -28.6955  -13.0658   20.9934 C   0  0  0  0  0  0
  -25.2556  -13.8163   20.5651 C   0  0  0  0  0  0
  -24.1827  -13.0436   20.9182 C   0  0  0  0  0  0
  -24.6387  -11.6904   20.8735 C   0  0  0  0  0  0
  -23.9052  -10.4291   21.0405 C   0  0  0  0  0  0
  -24.3605   -9.4206   21.9184 C   0  0  0  0  0  0
  -23.6281   -8.2244   22.0761 C   0  0  0  0  0  0
  -22.4267   -8.0277   21.3547 C   0  0  0  0  0  0
  -21.9893   -9.0250   20.4654 C   0  0  0  0  0  0
  -22.7220  -10.2131   20.3057 C   0  0  0  0  0  0
  -21.6852   -6.0728   22.5274 C   0  0  0  0  0  0
  -21.4025   -6.5639   23.8206 C   0  0  0  0  0  0
  -21.3659   -5.6792   24.9169 C   0  0  0  0  0  0
  -21.6045   -4.3053   24.7225 C   0  0  0  0  0  0
  -21.8816   -3.8140   23.4349 C   0  0  0  0  0  0
  -21.9192   -4.6955   22.3402 C   0  0  0  0  0  0
  -22.7848  -13.5235   21.1838 C   0  0  0  0  0  0
  -22.1655   -4.2140   21.0978 F   0  0  0  0  0  0
  -21.5628   -3.4541   25.7741 F   0  0  0  0  0  0
  -30.0080  -13.4255   20.4334 N   0  0  0  0  0  0
  -26.2978  -12.9337   20.3303 N   0  0  0  0  0  0
  -25.9313  -11.6495   20.5748 N   0  0  0  0  0  0
  -22.0483  -12.8247   22.0407 N   0  0  0  0  0  0
  -25.4266  -15.1882   20.4026 N   0  0  0  0  0  0
  -31.7439  -14.8553   20.1042 O   0  0  0  0  0  0
  -21.6636   -6.8870   21.4236 O   0  0  0  0  0  0
  -22.3536  -14.5531   20.6670 O   0  0  0  0  0  0
  -24.6253  -31.8567   23.1988 C   0  0  0  0  0  0
  -25.9112  -32.4749   23.8307 C   0  0  1  0  0  0
  -27.2320  -27.3067   20.1095 C   0  0  0  0  0  0
  -25.5932  -33.8550   24.2229 N   0  0  0  0  0  0
  -23.4193  -30.4776   21.5417 C   0  0  2  0  0  0
  -24.8668  -28.9244   20.1115 C   0  0  0  0  0  0
  -22.7458  -29.4620   22.4942 C   0  0  0  0  0  0
  -18.0289  -28.1383   22.8499 C   0  0  0  0  0  0
  -24.1493  -36.7266   23.2636 C   0  0  0  0  0  0
  -25.9604  -30.7822   21.3726 C   0  0  0  0  0  0
  -26.0345  -29.4087   20.7123 C   0  0  0  0  0  0
  -27.2153  -28.6095   20.7030 C   0  0  0  0  0  0
  -26.0339  -26.8652   19.5054 C   0  0  0  0  0  0
  -24.8686  -27.6583   19.5036 C   0  0  0  0  0  0
  -23.6325  -29.8027   20.1606 C   0  0  0  0  0  0
  -25.4124  -36.3056   24.0313 C   0  0  1  0  0  0
  -20.5886  -28.3690   23.1289 C   0  0  2  0  0  0
  -20.6785  -26.9415   22.5419 C   0  0  0  0  0  0
  -19.5757  -26.6386   21.5226 C   0  0  0  0  0  0
  -18.1935  -26.7930   22.1635 C   0  0  0  0  0  0
  -19.1539  -28.8854   23.2891 C   0  0  0  0  0  0
  -18.9468  -30.1464   23.8892 C   0  0  0  0  0  0
  -17.6468  -30.6590   24.0568 C   0  0  0  0  0  0
  -25.9062  -34.9431   23.5073 C   0  0  0  0  0  0
  -16.5356  -29.9086   23.6342 C   0  0  0  0  0  0
  -16.7279  -28.6504   23.0362 C   0  0  0  0  0  0
  -26.4495  -31.6577   25.0692 C   0  0  0  0  0  0
  -25.3715  -31.3754   26.1413 C   0  0  0  0  0  0
  -27.0336  -30.2981   24.6193 C   0  0  0  0  0  0
  -27.6032  -32.4335   25.7480 C   0  0  0  0  0  0
  -27.5578  -37.1787   24.8461 C   0  0  0  0  0  0
  -21.4172  -29.3028   22.3660 N   0  0  0  0  0  0
  -26.4293  -37.3757   23.9399 N   0  0  0  0  0  0
  -24.6865  -31.0568   22.0939 N   0  0  0  0  0  0
  -23.4183  -28.8178   23.3037 O   0  0  0  0  0  0
  -28.3789  -26.4958   20.1686 O   0  0  0  0  0  0
  -26.5635  -34.8914   22.4645 O   0  0  0  0  0  0
  -23.5420  -32.1382   23.7315 O   0  0  0  0  0  0
  -29.9612  -19.4704   21.5223 C   0  0  0  0  0  0
  -28.6129  -19.0436   19.5878 C   0  0  0  0  0  0
  -30.3054  -18.0792   21.6123 C   0  0  0  0  0  0
  -29.0869  -19.9978   20.5323 C   0  0  0  0  0  0
  -29.7624  -17.1264   20.6953 C   0  0  0  0  0  0
  -28.9292  -17.6541   19.6726 C   0  0  0  0  0  0
  -28.3464  -23.8291   20.4291 C   0  0  0  0  0  0
  -28.6984  -22.5526   19.9892 C   0  0  0  0  0  0
  -26.8671  -21.8674   22.5003 C   0  0  0  0  0  0
  -27.8604  -24.1083   21.8558 C   0  0  0  0  0  0
  -26.6029  -23.3512   22.3066 C   0  0  0  0  0  0
  -27.1512  -21.0663   21.2420 C   0  0  0  0  0  0
  -29.2772  -22.3759   18.5930 C   0  0  0  0  0  0
  -32.4588  -18.4430   22.9537 C   0  0  0  0  0  0
  -31.1760  -17.6174   22.7767 C   0  0  0  0  0  0
  -28.4830  -25.1445   19.5508 C   0  0  0  0  0  0
  -28.4878  -21.3086   20.6862 N   0  0  0  0  0  0
  -29.7720  -15.6786   20.9321 N   0  0  0  0  0  0
  -26.8531  -21.3438   23.6173 O   0  0  0  0  0  0
  -28.3449  -16.7944   18.8024 F   0  0  0  0  0  0
  -31.4826  -12.5404   19.1571 H   0  0  0  0  0  0
  -30.3783  -11.4126   19.8941 H   0  0  0  0  0  0
  -29.7756  -11.7661   17.4793 H   0  0  0  0  0  0
  -29.6438  -13.4863   17.7417 H   0  0  0  0  0  0
  -27.8767  -11.2888   18.8721 H   0  0  0  0  0  0
  -27.3746  -12.5661   17.7970 H   0  0  0  0  0  0
  -27.6691  -14.2496   19.5214 H   0  0  0  0  0  0
  -28.7161  -12.0402   21.3653 H   0  0  0  0  0  0
  -28.4329  -13.6842   21.8533 H   0  0  0  0  0  0
  -25.2750   -9.5691   22.4752 H   0  0  0  0  0  0
  -23.9991   -7.4641   22.7488 H   0  0  0  0  0  0
  -21.0820   -8.8768   19.8963 H   0  0  0  0  0  0
  -22.3670  -10.9670   19.6170 H   0  0  0  0  0  0
  -21.2023   -7.6146   23.9707 H   0  0  0  0  0  0
  -21.1485   -6.0524   25.9071 H   0  0  0  0  0  0
  -22.0594   -2.7602   23.2849 H   0  0  0  0  0  0
  -22.4094  -11.9924   22.4827 H   0  0  0  0  0  0
  -21.1108  -13.1298   22.2605 H   0  0  0  0  0  0
  -24.6464  -15.8316   20.4757 H   0  0  0  0  0  0
  -26.2602  -15.6205   20.0248 H   0  0  0  0  0  0
  -26.7170  -32.5414   23.1041 H   0  0  0  0  0  0
  -25.0075  -33.9684   25.0373 H   0  0  0  0  0  0
  -22.7134  -31.2977   21.3935 H   0  0  0  0  0  0
  -23.3755  -35.9602   23.3307 H   0  0  0  0  0  0
  -24.3580  -36.8887   22.2052 H   0  0  0  0  0  0
  -23.7256  -37.6467   23.6664 H   0  0  0  0  0  0
  -26.0992  -31.5467   20.6068 H   0  0  0  0  0  0
  -26.8369  -30.8255   22.0078 H   0  0  0  0  0  0
  -28.1116  -28.9793   21.1819 H   0  0  0  0  0  0
  -25.9602  -25.8870   19.0569 H   0  0  0  0  0  0
  -23.9677  -27.2727   19.0471 H   0  0  0  0  0  0
  -23.7432  -30.5712   19.3948 H   0  0  0  0  0  0
  -22.7544  -29.2231   19.8691 H   0  0  0  0  0  0
  -25.1317  -36.1887   25.0803 H   0  0  0  0  0  0
  -20.9994  -28.3281   24.1405 H   0  0  0  0  0  0
  -20.5715  -26.2295   23.3618 H   0  0  0  0  0  0
  -21.6651  -26.7464   22.1191 H   0  0  0  0  0  0
  -19.6923  -25.6301   21.1246 H   0  0  0  0  0  0
  -19.6692  -27.3203   20.6761 H   0  0  0  0  0  0
  -17.4212  -26.6693   21.4030 H   0  0  0  0  0  0
  -18.0331  -26.0064   22.9019 H   0  0  0  0  0  0
  -19.7944  -30.7289   24.2242 H   0  0  0  0  0  0
  -17.5024  -31.6275   24.5164 H   0  0  0  0  0  0
  -15.5358  -30.2991   23.7668 H   0  0  0  0  0  0
  -15.8679  -28.0824   22.7078 H   0  0  0  0  0  0
  -24.5888  -30.7099   25.7752 H   0  0  0  0  0  0
  -24.8912  -32.2939   26.4791 H   0  0  0  0  0  0
  -25.8031  -30.8966   27.0209 H   0  0  0  0  0  0
  -26.2921  -29.6732   24.1196 H   0  0  0  0  0  0
  -27.3969  -29.7252   25.4736 H   0  0  0  0  0  0
  -27.8823  -30.4225   23.9463 H   0  0  0  0  0  0
  -27.2602  -33.3629   26.2042 H   0  0  0  0  0  0
  -28.3859  -32.6909   25.0330 H   0  0  0  0  0  0
  -28.0677  -31.8472   26.5419 H   0  0  0  0  0  0
  -28.2588  -38.0089   24.7511 H   0  0  0  0  0  0
  -28.1081  -36.2617   24.6293 H   0  0  0  0  0  0
  -27.2287  -37.1444   25.8862 H   0  0  0  0  0  0
  -20.9356  -29.8687   21.6807 H   0  0  0  0  0  0
  -26.0162  -38.2820   24.1420 H   0  0  0  0  0  0
  -30.3100  -20.1444   22.2913 H   0  0  0  0  0  0
  -27.9095  -19.3581   18.8315 H   0  0  0  0  0  0
  -27.6499  -25.1668   21.9863 H   0  0  0  0  0  0
  -28.6861  -23.9020   22.5383 H   0  0  0  0  0  0
  -26.2453  -23.7634   23.2505 H   0  0  0  0  0  0
  -25.7997  -23.4799   21.5812 H   0  0  0  0  0  0
  -26.9761  -20.0158   21.4803 H   0  0  0  0  0  0
  -26.4079  -21.3306   20.4884 H   0  0  0  0  0  0
  -28.6078  -22.8106   17.8495 H   0  0  0  0  0  0
  -29.4334  -21.3374   18.3065 H   0  0  0  0  0  0
  -30.2410  -22.8812   18.5196 H   0  0  0  0  0  0
  -33.0542  -18.4498   22.0404 H   0  0  0  0  0  0
  -33.0801  -18.0198   23.7430 H   0  0  0  0  0  0
  -32.2466  -19.4757   23.2311 H   0  0  0  0  0  0
  -30.5813  -17.6582   23.6898 H   0  0  0  0  0  0
  -31.4607  -16.5737   22.6486 H   0  0  0  0  0  0
  -27.8533  -25.0536   18.6679 H   0  0  0  0  0  0
  -29.4935  -25.1213   19.1436 H   0  0  0  0  0  0
  -28.8753  -15.3200   21.2205 H   0  0  0  0  0  0
  1 25  1  0  0  0
  1 30  2  0  0  0
  1 88  1  0  0  0
  2  3  1  0  0  0
  2 25  1  0  0  0
  2 91  1  0  0  0
  2 92  1  0  0  0
  3  4  1  0  0  0
  3 93  1  0  0  0
  3 94  1  0  0  0
  4  5  1  0  0  0
  4 95  1  0  0  0
  4 96  1  0  0  0
  5  6  1  0  0  0
  5 26  1  0  0  0
  5 97  1  0  0  0
  6 25  1  0  0  0
  6 98  1  0  0  0
  6 99  1  0  0  0
  7  8  2  0  0  0
  7 26  1  0  0  0
  7 29  1  0  0  0
  8  9  1  0  0  0
  8 22  1  0  0  0
  9 10  1  0  0  0
  9 27  2  0  0  0
 10 11  2  0  0  0
 10 15  1  0  0  0
 11 12  1  0  0  0
 11100  1  0  0  0
 12 13  2  0  0  0
 12101  1  0  0  0
 13 14  1  0  0  0
 13 31  1  0  0  0
 14 15  2  0  0  0
 14102  1  0  0  0
 15103  1  0  0  0
 16 17  2  0  0  0
 16 21  1  0  0  0
 16 31  1  0  0  0
 17 18  1  0  0  0
 17104  1  0  0  0
 18 19  2  0  0  0
 18105  1  0  0  0
 19 20  1  0  0  0
 19 24  1  0  0  0
 20 21  2  0  0  0
 20106  1  0  0  0
 21 23  1  0  0  0
 22 28  1  0  0  0
 22 32  2  0  0  0
 26 27  1  0  0  0
 28107  1  0  0  0
 28108  1  0  0  0
 29109  1  0  0  0
 29110  1  0  0  0
 33 34  1  0  0  0
 33 66  1  0  0  0
 33 70  2  0  0  0
 34 36  1  0  0  0
 34 59  1  0  0  0
 34111  1  0  0  0
 35 44  2  0  0  0
 35 45  1  0  0  0
 35 68  1  0  0  0
 36 56  1  0  0  0
 36112  1  0  0  0
 37 39  1  0  0  0
 37 47  1  0  0  0
 37 66  1  0  0  0
 37113  1  0  0  0
 38 43  2  0  0  0
 38 46  1  0  0  0
 38 47  1  0  0  0
 39 64  1  0  0  0
 39 67  2  0  0  0
 40 52  1  0  0  0
 40 53  2  0  0  0
 40 58  1  0  0  0
 41114  1  0  0  0
 41115  1  0  0  0
 41116  1  0  0  0
 41 48  1  0  0  0
 42 43  1  0  0  0
 42 66  1  0  0  0
 42117  1  0  0  0
 42118  1  0  0  0
 43 44  1  0  0  0
 44119  1  0  0  0
 45 46  2  0  0  0
 45120  1  0  0  0
 46121  1  0  0  0
 47122  1  0  0  0
 47123  1  0  0  0
 48 56  1  0  0  0
 48 65  1  0  0  0
 48124  1  0  0  0
 49 50  1  0  0  0
 49 53  1  0  0  0
 49 64  1  0  0  0
 49125  1  0  0  0
 50 51  1  0  0  0
 50126  1  0  0  0
 50127  1  0  0  0
 51 52  1  0  0  0
 51128  1  0  0  0
 51129  1  0  0  0
 52130  1  0  0  0
 52131  1  0  0  0
 53 54  1  0  0  0
 54 55  2  0  0  0
 54132  1  0  0  0
 55 57  1  0  0  0
 55133  1  0  0  0
 56 69  2  0  0  0
 57 58  2  0  0  0
 57134  1  0  0  0
 58135  1  0  0  0
 59 60  1  0  0  0
 59 61  1  0  0  0
 59 62  1  0  0  0
 60136  1  0  0  0
 60137  1  0  0  0
 60138  1  0  0  0
 61139  1  0  0  0
 61140  1  0  0  0
 61141  1  0  0  0
 62142  1  0  0  0
 62143  1  0  0  0
 62144  1  0  0  0
 63 65  1  0  0  0
 63145  1  0  0  0
 63146  1  0  0  0
 63147  1  0  0  0
 64148  1  0  0  0
 65149  1  0  0  0
 68 86  1  0  0  0
 71 73  2  0  0  0
 71 74  1  0  0  0
 71150  1  0  0  0
 72 74  2  0  0  0
 72 76  1  0  0  0
 72151  1  0  0  0
 73 75  1  0  0  0
 73 85  1  0  0  0
 74 87  1  0  0  0
 75 76  2  0  0  0
 75 88  1  0  0  0
 76 90  1  0  0  0
 77 78  2  0  0  0
 77 80  1  0  0  0
 77 86  1  0  0  0
 78 83  1  0  0  0
 78 87  1  0  0  0
 79 81  1  0  0  0
 79 82  1  0  0  0
 79 89  2  0  0  0
 80 81  1  0  0  0
 80152  1  0  0  0
 80153  1  0  0  0
 81154  1  0  0  0
 81155  1  0  0  0
 82 87  1  0  0  0
 82156  1  0  0  0
 82157  1  0  0  0
 83158  1  0  0  0
 83159  1  0  0  0
 83160  1  0  0  0
 84 85  1  0  0  0
 84161  1  0  0  0
 84162  1  0  0  0
 84163  1  0  0  0
 85164  1  0  0  0
 85165  1  0  0  0
 86166  1  0  0  0
 86167  1  0  0  0
 88168  1  0  0  0
M  ISO  4   1 100  68 101  86 101  88 100
M  END
> <chiral flag>
0

> <version>
0

> <s_m_source_file>
/data/baiqing/PycharmProjects/Reinvent-master-3.2/result/LINK_invent/BTK/process_docking_weight1_custom_product_contain_oxygen_bond_distance_aromatic_linkinvent_7_9_3/rearranged_h_0116.sdf

> <i_m_source_file_index>
80

> <r_mmod_Potential_Energy-OPLS-2005>
149.284942626953

> <r_mmod_Stretch_Energy-OPLS-2005>
94.6492691040039

> <r_mmod_Bend_Energy-OPLS-2005>
157.941436767578

> <r_mmod_Torsional_Energy-OPLS-2005>
312.464813232422

> <r_mmod_Improper_Torsional_Energy-OPLS-2005>
11.5131864547729

> <r_mmod_Van_der_Waal_Energy-OPLS-2005>
145.515213012695

> <r_mmod_Electrostatic_Energy-OPLS-2005>
-416.90234375

> <r_mmod_Solvation_Energy-OPLS-2005>
-209.950012207031

> <b_mmod_Minimization_Converged-OPLS-2005>
0

> <r_mmod_RMS_Derivative-OPLS-2005>
1.73511648178101

$$$$
80
                    3D
 Structure written by MMmdl.
164173  0  0  1  0            999 V2000
  -30.5843  -14.7837   20.4581 C   0  0  0  0  0  0
  -30.4367  -12.4839   19.4799 C   0  0  0  0  0  0
  -29.5119  -12.5357   18.2416 C   0  0  0  0  0  0
  -28.0401  -12.3493   18.6532 C   0  0  0  0  0  0
  -27.6466  -13.2339   19.8653 C   0  0  2  0  0  0
  -28.6929  -13.1559   21.0002 C   0  0  0  0  0  0
  -25.2536  -13.8207   20.5703 C   0  0  0  0  0  0
  -24.1821  -13.0453   20.9196 C   0  0  0  0  0  0
  -24.6409  -11.6932   20.8740 C   0  0  0  0  0  0
  -23.9075  -10.4315   21.0392 C   0  0  0  0  0  0
  -24.3618   -9.4230   21.9174 C   0  0  0  0  0  0
  -23.6289   -8.2266   22.0759 C   0  0  0  0  0  0
  -22.4270   -8.0298   21.3550 C   0  0  0  0  0  0
  -21.9910   -9.0277   20.4656 C   0  0  0  0  0  0
  -22.7236  -10.2158   20.3059 C   0  0  0  0  0  0
  -21.6866   -6.0747   22.5282 C   0  0  0  0  0  0
  -21.4023   -6.5653   23.8211 C   0  0  0  0  0  0
  -21.3662   -5.6806   24.9173 C   0  0  0  0  0  0
  -21.6028   -4.3067   24.7227 C   0  0  0  0  0  0
  -21.8818   -3.8159   23.4352 C   0  0  0  0  0  0
  -21.9192   -4.6972   22.3404 C   0  0  0  0  0  0
  -22.7841  -13.5235   21.1826 C   0  0  0  0  0  0
  -22.1664   -4.2150   21.0985 F   0  0  0  0  0  0
  -21.5613   -3.4554   25.7741 F   0  0  0  0  0  0
  -29.9919  -13.5353   20.4301 N   0  0  0  0  0  0
  -26.2965  -12.9407   20.3351 N   0  0  0  0  0  0
  -25.9350  -11.6544   20.5786 N   0  0  0  0  0  0
  -22.0487  -12.8266   22.0406 N   0  0  0  0  0  0
  -25.4229  -15.1931   20.4090 N   0  0  0  0  0  0
  -31.7375  -14.9107   20.0337 O   0  0  0  0  0  0
  -21.6638   -6.8891   21.4246 O   0  0  0  0  0  0
  -22.3530  -14.5516   20.6630 O   0  0  0  0  0  0
  -24.6301  -31.8550   23.1943 C   0  0  0  0  0  0
  -25.9117  -32.4757   23.8310 C   0  0  1  0  0  0
  -27.2276  -27.2402   20.1440 C   0  0  0  0  0  0
  -25.5915  -33.8563   24.2245 N   0  0  0  0  0  0
  -23.4290  -30.4727   21.5387 C   0  0  2  0  0  0
  -24.8779  -28.9054   20.1168 C   0  0  0  0  0  0
  -22.7505  -29.4596   22.4926 C   0  0  0  0  0  0
  -18.0298  -28.1384   22.8480 C   0  0  0  0  0  0
  -24.1494  -36.7295   23.2636 C   0  0  0  0  0  0
  -25.9731  -30.7594   21.3754 C   0  0  0  0  0  0
  -26.0460  -29.3730   20.7313 C   0  0  0  0  0  0
  -27.2190  -28.5507   20.7385 C   0  0  0  0  0  0
  -26.0386  -26.8437   19.4930 C   0  0  0  0  0  0
  -24.8784  -27.6472   19.4913 C   0  0  0  0  0  0
  -23.6495  -29.7963   20.1582 C   0  0  0  0  0  0
  -25.4121  -36.3083   24.0324 C   0  0  1  0  0  0
  -20.5900  -28.3697   23.1276 C   0  0  2  0  0  0
  -20.6782  -26.9414   22.5418 C   0  0  0  0  0  0
  -19.5765  -26.6382   21.5215 C   0  0  0  0  0  0
  -18.1943  -26.7924   22.1623 C   0  0  0  0  0  0
  -19.1549  -28.8857   23.2871 C   0  0  0  0  0  0
  -18.9466  -30.1457   23.8895 C   0  0  0  0  0  0
  -17.6465  -30.6587   24.0564 C   0  0  0  0  0  0
  -25.9057  -34.9449   23.5095 C   0  0  0  0  0  0
  -16.5356  -29.9088   23.6318 C   0  0  0  0  0  0
  -16.7283  -28.6503   23.0339 C   0  0  0  0  0  0
  -26.4480  -31.6579   25.0702 C   0  0  0  0  0  0
  -25.3688  -31.3729   26.1411 C   0  0  0  0  0  0
  -27.0323  -30.2998   24.6175 C   0  0  0  0  0  0
  -27.6053  -32.4301   25.7477 C   0  0  0  0  0  0
  -27.5589  -37.1802   24.8451 C   0  0  0  0  0  0
  -21.4214  -29.3040   22.3664 N   0  0  0  0  0  0
  -26.4297  -37.3778   23.9401 N   0  0  0  0  0  0
  -24.6967  -31.0495   22.0921 N   0  0  0  0  0  0
  -23.4207  -28.8157   23.3043 O   0  0  0  0  0  0
  -28.3615  -26.3900   20.1442 O   0  0  0  0  0  0
  -26.5647  -34.8920   22.4677 O   0  0  0  0  0  0
  -23.5447  -32.1388   23.7218 O   0  0  0  0  0  0
  -28.3914  -23.7694   20.2446 C   0  0  0  0  0  0
  -28.3228  -25.0212   20.2343 C   0  0  0  0  0  0
  -28.5504  -19.4346   18.6893 C   0  0  0  0  0  0
  -29.5934  -18.5451   20.6817 C   0  0  0  0  0  0
  -28.9523  -17.0228   18.8860 C   0  0  0  0  0  0
  -29.1116  -19.7249   19.9498 C   0  0  0  0  0  0
  -28.4380  -18.1261   18.1768 C   0  0  0  0  0  0
  -29.5398  -17.1701   20.1598 C   0  0  0  0  0  0
  -26.0434  -19.6118   16.0640 C   0  0  0  0  0  0
  -29.1539  -21.2482   20.3293 C   0  0  0  0  0  0
  -28.2416  -22.2812   20.0675 C   0  0  0  0  0  0
  -24.6465  -20.1018   16.3989 C   0  0  0  0  0  0
  -24.2512  -19.2747   17.6281 C   0  0  0  0  0  0
  -25.3693  -18.2398   17.8223 C   0  0  0  0  0  0
  -26.8606  -21.9612   19.5081 C   0  0  0  0  0  0
  -27.6936  -17.9070   16.8682 C   0  0  0  0  0  0
  -26.3959  -18.5869   16.8481 N   0  0  0  0  0  0
  -29.8506  -15.8959   20.8764 N   0  0  0  0  0  0
  -26.7356  -20.1277   15.1835 O   0  0  0  0  0  0
  -31.4743  -12.6206   19.1733 H   0  0  0  0  0  0
  -30.3970  -11.5020   19.9537 H   0  0  0  0  0  0
  -29.8014  -11.7701   17.5201 H   0  0  0  0  0  0
  -29.6285  -13.4953   17.7351 H   0  0  0  0  0  0
  -27.9002  -11.2967   18.9017 H   0  0  0  0  0  0
  -27.3792  -12.5510   17.8089 H   0  0  0  0  0  0
  -27.6449  -14.2612   19.5030 H   0  0  0  0  0  0
  -28.7421  -12.1478   21.4158 H   0  0  0  0  0  0
  -28.4216  -13.8107   21.8289 H   0  0  0  0  0  0
  -25.2774   -9.5700   22.4732 H   0  0  0  0  0  0
  -24.0001   -7.4671   22.7494 H   0  0  0  0  0  0
  -21.0843   -8.8787   19.8969 H   0  0  0  0  0  0
  -22.3681  -10.9695   19.6169 H   0  0  0  0  0  0
  -21.2021   -7.6159   23.9719 H   0  0  0  0  0  0
  -21.1477   -6.0533   25.9073 H   0  0  0  0  0  0
  -22.0582   -2.7621   23.2848 H   0  0  0  0  0  0
  -22.4126  -11.9970   22.4846 H   0  0  0  0  0  0
  -21.1092  -13.1287   22.2550 H   0  0  0  0  0  0
  -24.6557  -15.8446   20.5344 H   0  0  0  0  0  0
  -26.2755  -15.6394   20.0971 H   0  0  0  0  0  0
  -26.7192  -32.5413   23.1065 H   0  0  0  0  0  0
  -25.0021  -33.9695   25.0362 H   0  0  0  0  0  0
  -22.7254  -31.2939   21.3872 H   0  0  0  0  0  0
  -23.3758  -35.9621   23.3281 H   0  0  0  0  0  0
  -24.3592  -36.8937   22.2053 H   0  0  0  0  0  0
  -23.7228  -37.6487   23.6668 H   0  0  0  0  0  0
  -26.1056  -31.5116   20.5960 H   0  0  0  0  0  0
  -26.8537  -30.8234   22.0030 H   0  0  0  0  0  0
  -28.1160  -28.9100   21.2235 H   0  0  0  0  0  0
  -25.9942  -25.8858   18.9942 H   0  0  0  0  0  0
  -23.9849  -27.2836   19.0038 H   0  0  0  0  0  0
  -23.7738  -30.5681   19.3981 H   0  0  0  0  0  0
  -22.7673  -29.2288   19.8557 H   0  0  0  0  0  0
  -25.1299  -36.1945   25.0815 H   0  0  0  0  0  0
  -20.9991  -28.3269   24.1397 H   0  0  0  0  0  0
  -20.5673  -26.2310   23.3621 H   0  0  0  0  0  0
  -21.6651  -26.7426   22.1219 H   0  0  0  0  0  0
  -19.6928  -25.6291   21.1243 H   0  0  0  0  0  0
  -19.6707  -27.3192   20.6743 H   0  0  0  0  0  0
  -17.4215  -26.6670   21.4024 H   0  0  0  0  0  0
  -18.0342  -26.0073   22.9026 H   0  0  0  0  0  0
  -19.7943  -30.7268   24.2273 H   0  0  0  0  0  0
  -17.5015  -31.6257   24.5180 H   0  0  0  0  0  0
  -15.5352  -30.2987   23.7632 H   0  0  0  0  0  0
  -15.8687  -28.0816   22.7049 H   0  0  0  0  0  0
  -24.5885  -30.7060   25.7717 H   0  0  0  0  0  0
  -24.8841  -32.2891   26.4791 H   0  0  0  0  0  0
  -25.7982  -30.8929   27.0213 H   0  0  0  0  0  0
  -26.2899  -29.6754   24.1181 H   0  0  0  0  0  0
  -27.3999  -29.7252   25.4689 H   0  0  0  0  0  0
  -27.8782  -30.4290   23.9418 H   0  0  0  0  0  0
  -27.2694  -33.3621   26.2036 H   0  0  0  0  0  0
  -28.3873  -32.6816   25.0299 H   0  0  0  0  0  0
  -28.0701  -31.8414   26.5398 H   0  0  0  0  0  0
  -28.2583  -38.0122   24.7521 H   0  0  0  0  0  0
  -28.1111  -36.2651   24.6251 H   0  0  0  0  0  0
  -27.2313  -37.1417   25.8855 H   0  0  0  0  0  0
  -20.9409  -29.8758   21.6858 H   0  0  0  0  0  0
  -26.0184  -38.2858   24.1392 H   0  0  0  0  0  0
  -28.1845  -20.2446   18.0771 H   0  0  0  0  0  0
  -30.0095  -18.7040   21.6663 H   0  0  0  0  0  0
  -28.8366  -16.0362   18.4603 H   0  0  0  0  0  0
  -30.0864  -21.5436   20.7893 H   0  0  0  0  0  0
  -23.9802  -19.9123   15.5562 H   0  0  0  0  0  0
  -24.6504  -21.1726   16.6090 H   0  0  0  0  0  0
  -23.2859  -18.7884   17.4870 H   0  0  0  0  0  0
  -24.1695  -19.9158   18.5077 H   0  0  0  0  0  0
  -25.0098  -17.2272   17.6387 H   0  0  0  0  0  0
  -25.7616  -18.2778   18.8398 H   0  0  0  0  0  0
  -26.1053  -22.6394   19.9081 H   0  0  0  0  0  0
  -26.5397  -20.9546   19.7775 H   0  0  0  0  0  0
  -26.8472  -22.0581   18.4224 H   0  0  0  0  0  0
  -27.5247  -16.8428   16.7018 H   0  0  0  0  0  0
  -28.3267  -18.2504   16.0491 H   0  0  0  0  0  0
  -29.1155  -15.6301   21.5156 H   0  0  0  0  0  0
  1 25  1  0  0  0
  1 30  2  0  0  0
  1 88  1  0  0  0
  2  3  1  0  0  0
  2 25  1  0  0  0
  2 90  1  0  0  0
  2 91  1  0  0  0
  3  4  1  0  0  0
  3 92  1  0  0  0
  3 93  1  0  0  0
  4  5  1  0  0  0
  4 94  1  0  0  0
  4 95  1  0  0  0
  5  6  1  0  0  0
  5 26  1  0  0  0
  5 96  1  0  0  0
  6 25  1  0  0  0
  6 97  1  0  0  0
  6 98  1  0  0  0
  7  8  2  0  0  0
  7 26  1  0  0  0
  7 29  1  0  0  0
  8  9  1  0  0  0
  8 22  1  0  0  0
  9 10  1  0  0  0
  9 27  2  0  0  0
 10 11  2  0  0  0
 10 15  1  0  0  0
 11 12  1  0  0  0
 11 99  1  0  0  0
 12 13  2  0  0  0
 12100  1  0  0  0
 13 14  1  0  0  0
 13 31  1  0  0  0
 14 15  2  0  0  0
 14101  1  0  0  0
 15102  1  0  0  0
 16 17  2  0  0  0
 16 21  1  0  0  0
 16 31  1  0  0  0
 17 18  1  0  0  0
 17103  1  0  0  0
 18 19  2  0  0  0
 18104  1  0  0  0
 19 20  1  0  0  0
 19 24  1  0  0  0
 20 21  2  0  0  0
 20105  1  0  0  0
 21 23  1  0  0  0
 22 28  1  0  0  0
 22 32  2  0  0  0
 26 27  1  0  0  0
 28106  1  0  0  0
 28107  1  0  0  0
 29108  1  0  0  0
 29109  1  0  0  0
 33 34  1  0  0  0
 33 66  1  0  0  0
 33 70  2  0  0  0
 34 36  1  0  0  0
 34 59  1  0  0  0
 34110  1  0  0  0
 35 44  2  0  0  0
 35 45  1  0  0  0
 35 68  1  0  0  0
 36 56  1  0  0  0
 36111  1  0  0  0
 37 39  1  0  0  0
 37 47  1  0  0  0
 37 66  1  0  0  0
 37112  1  0  0  0
 38 43  2  0  0  0
 38 46  1  0  0  0
 38 47  1  0  0  0
 39 64  1  0  0  0
 39 67  2  0  0  0
 40 52  1  0  0  0
 40 53  2  0  0  0
 40 58  1  0  0  0
 41113  1  0  0  0
 41114  1  0  0  0
 41115  1  0  0  0
 41 48  1  0  0  0
 42 43  1  0  0  0
 42 66  1  0  0  0
 42116  1  0  0  0
 42117  1  0  0  0
 43 44  1  0  0  0
 44118  1  0  0  0
 45 46  2  0  0  0
 45119  1  0  0  0
 46120  1  0  0  0
 47121  1  0  0  0
 47122  1  0  0  0
 48 56  1  0  0  0
 48 65  1  0  0  0
 48123  1  0  0  0
 49 50  1  0  0  0
 49 53  1  0  0  0
 49 64  1  0  0  0
 49124  1  0  0  0
 50 51  1  0  0  0
 50125  1  0  0  0
 50126  1  0  0  0
 51 52  1  0  0  0
 51127  1  0  0  0
 51128  1  0  0  0
 52129  1  0  0  0
 52130  1  0  0  0
 53 54  1  0  0  0
 54 55  2  0  0  0
 54131  1  0  0  0
 55 57  1  0  0  0
 55132  1  0  0  0
 56 69  2  0  0  0
 57 58  2  0  0  0
 57133  1  0  0  0
 58134  1  0  0  0
 59 60  1  0  0  0
 59 61  1  0  0  0
 59 62  1  0  0  0
 60135  1  0  0  0
 60136  1  0  0  0
 60137  1  0  0  0
 61138  1  0  0  0
 61139  1  0  0  0
 61140  1  0  0  0
 62141  1  0  0  0
 62142  1  0  0  0
 62143  1  0  0  0
 63 65  1  0  0  0
 63144  1  0  0  0
 63145  1  0  0  0
 63146  1  0  0  0
 64147  1  0  0  0
 65148  1  0  0  0
 68 72  1  0  0  0
 71 72  3  0  0  0
 71 81  1  0  0  0
 73 76  2  0  0  0
 73 77  1  0  0  0
 73149  1  0  0  0
 74 76  1  0  0  0
 74 78  2  0  0  0
 74150  1  0  0  0
 75 77  2  0  0  0
 75 78  1  0  0  0
 75151  1  0  0  0
 76 80  1  0  0  0
 77 86  1  0  0  0
 78 88  1  0  0  0
 79 82  1  0  0  0
 79 87  1  0  0  0
 79 89  2  0  0  0
 80 81  2  0  0  0
 80152  1  0  0  0
 81 85  1  0  0  0
 82 83  1  0  0  0
 82153  1  0  0  0
 82154  1  0  0  0
 83 84  1  0  0  0
 83155  1  0  0  0
 83156  1  0  0  0
 84 87  1  0  0  0
 84157  1  0  0  0
 84158  1  0  0  0
 85159  1  0  0  0
 85160  1  0  0  0
 85161  1  0  0  0
 86 87  1  0  0  0
 86162  1  0  0  0
 86163  1  0  0  0
 88164  1  0  0  0
M  ISO  4   1 100  68 101  72 101  88 100
M  END
> <chiral flag>
0

> <version>
0

> <s_m_source_file>
/data/baiqing/PycharmProjects/Reinvent-master-3.2/result/LINK_invent/BTK/process_docking_weight1_custom_product_contain_oxygen_bond_distance_aromatic_linkinvent_7_9_3/rearranged_h_0116.sdf

> <i_m_source_file_index>
81

> <r_mmod_Potential_Energy-OPLS-2005>
250.702926635742

> <r_mmod_Stretch_Energy-OPLS-2005>
137.780548095703

> <r_mmod_Bend_Energy-OPLS-2005>
189.657089233398

> <r_mmod_Torsional_Energy-OPLS-2005>
296.124908447266

> <r_mmod_Improper_Torsional_Energy-OPLS-2005>
6.8585262298584

> <r_mmod_Van_der_Waal_Energy-OPLS-2005>
122.935440063477

> <r_mmod_Electrostatic_Energy-OPLS-2005>
-359.401672363281

> <r_mmod_Solvation_Energy-OPLS-2005>
-236.412170410156

> <b_mmod_Minimization_Converged-OPLS-2005>
0

> <r_mmod_RMS_Derivative-OPLS-2005>
2.33578634262085

$$$$
81
                    3D
 Structure written by MMmdl.
152160  0  0  1  0            999 V2000
  -30.6292  -14.7267   20.4053 C   0  0  0  0  0  0
  -30.4186  -12.4375   19.4438 C   0  0  0  0  0  0
  -29.4890  -12.4924   18.2136 C   0  0  0  0  0  0
  -28.0208  -12.3012   18.6384 C   0  0  0  0  0  0
  -27.6234  -13.2166   19.8257 C   0  0  2  0  0  0
  -28.6765  -13.1989   20.9530 C   0  0  0  0  0  0
  -25.2480  -13.8172   20.5654 C   0  0  0  0  0  0
  -24.1763  -13.0435   20.9212 C   0  0  0  0  0  0
  -24.6307  -11.6902   20.8700 C   0  0  0  0  0  0
  -23.9002  -10.4280   21.0334 C   0  0  0  0  0  0
  -24.3584   -9.4218   21.9129 C   0  0  0  0  0  0
  -23.6281   -8.2259   22.0725 C   0  0  0  0  0  0
  -22.4275   -8.0256   21.3514 C   0  0  0  0  0  0
  -21.9870   -9.0223   20.4622 C   0  0  0  0  0  0
  -22.7181  -10.2108   20.3010 C   0  0  0  0  0  0
  -21.6870   -6.0684   22.5257 C   0  0  0  0  0  0
  -21.4029   -6.5621   23.8183 C   0  0  0  0  0  0
  -21.3668   -5.6806   24.9147 C   0  0  0  0  0  0
  -21.6047   -4.3060   24.7226 C   0  0  0  0  0  0
  -21.8844   -3.8132   23.4363 C   0  0  0  0  0  0
  -21.9194   -4.6918   22.3390 C   0  0  0  0  0  0
  -22.7799  -13.5212   21.1945 C   0  0  0  0  0  0
  -22.1663   -4.2085   21.0965 F   0  0  0  0  0  0
  -21.5619   -3.4566   25.7746 F   0  0  0  0  0  0
  -29.9875  -13.5080   20.3650 N   0  0  0  0  0  0
  -26.2840  -12.9315   20.3204 N   0  0  0  0  0  0
  -25.9223  -11.6481   20.5708 N   0  0  0  0  0  0
  -22.0526  -12.8140   22.0503 N   0  0  0  0  0  0
  -25.4243  -15.1889   20.4018 N   0  0  0  0  0  0
  -31.8579  -14.7868   20.3137 O   0  0  0  0  0  0
  -21.6665   -6.8834   21.4219 O   0  0  0  0  0  0
  -22.3417  -14.5494   20.6793 O   0  0  0  0  0  0
  -24.6285  -31.8575   23.2072 C   0  0  0  0  0  0
  -25.9132  -32.4759   23.8382 C   0  0  1  0  0  0
  -27.2082  -27.2723   20.1152 C   0  0  0  0  0  0
  -25.5951  -33.8558   24.2313 N   0  0  0  0  0  0
  -23.4250  -30.4862   21.5513 C   0  0  2  0  0  0
  -24.8693  -28.9430   20.1173 C   0  0  0  0  0  0
  -22.7522  -29.4621   22.4958 C   0  0  0  0  0  0
  -18.0294  -28.1419   22.8528 C   0  0  0  0  0  0
  -24.1517  -36.7294   23.2636 C   0  0  0  0  0  0
  -25.9737  -30.7703   21.3924 C   0  0  0  0  0  0
  -26.0451  -29.3980   20.7296 C   0  0  0  0  0  0
  -27.2179  -28.5748   20.7208 C   0  0  0  0  0  0
  -26.0127  -26.9029   19.4557 C   0  0  0  0  0  0
  -24.8602  -27.7039   19.4688 C   0  0  0  0  0  0
  -23.6449  -29.8323   20.1646 C   0  0  0  0  0  0
  -25.4129  -36.3081   24.0347 C   0  0  1  0  0  0
  -20.5899  -28.3760   23.1393 C   0  0  2  0  0  0
  -20.6810  -26.9467   22.5513 C   0  0  0  0  0  0
  -19.5828  -26.6474   21.5307 C   0  0  0  0  0  0
  -18.1996  -26.7972   22.1654 C   0  0  0  0  0  0
  -19.1526  -28.8902   23.2951 C   0  0  0  0  0  0
  -18.9412  -30.1530   23.8915 C   0  0  0  0  0  0
  -17.6405  -30.6624   24.0591 C   0  0  0  0  0  0
  -25.9064  -34.9441   23.5118 C   0  0  0  0  0  0
  -16.5317  -29.9098   23.6306 C   0  0  0  0  0  0
  -16.7281  -28.6510   23.0329 C   0  0  0  0  0  0
  -26.4500  -31.6550   25.0737 C   0  0  0  0  0  0
  -25.3702  -31.3661   26.1444 C   0  0  0  0  0  0
  -27.0344  -30.2969   24.6184 C   0  0  0  0  0  0
  -27.6076  -32.4254   25.7478 C   0  0  0  0  0  0
  -27.5584  -37.1829   24.8458 C   0  0  0  0  0  0
  -21.4231  -29.3070   22.3738 N   0  0  0  0  0  0
  -26.4304  -37.3769   23.9395 N   0  0  0  0  0  0
  -24.6950  -31.0541   22.1060 N   0  0  0  0  0  0
  -23.4234  -28.8157   23.3033 O   0  0  0  0  0  0
  -28.2882  -26.3566   20.1593 O   0  0  0  0  0  0
  -26.5622  -34.8894   22.4685 O   0  0  0  0  0  0
  -23.5445  -32.1438   23.7380 O   0  0  0  0  0  0
  -29.9344  -18.6038   20.0421 C   0  0  0  0  0  0
  -29.3048  -19.7361   20.7297 C   0  0  0  0  0  0
  -29.6550  -17.3129   20.5128 C   0  0  0  0  0  0
  -28.5159  -19.2402   21.7588 C   0  0  0  0  0  0
  -29.8192  -15.9736   19.8325 C   0  0  0  0  0  0
  -27.6067  -19.9522   22.7175 C   0  0  0  0  0  0
  -29.0471  -23.6996   20.2420 C   0  0  0  0  0  0
  -27.9563  -24.8861   20.2011 C   0  0  0  0  0  0
  -28.5486  -22.1831   20.5227 C   0  0  0  0  0  0
  -29.3510  -15.8947   18.6562 N   0  0  0  0  0  0
  -29.5416  -21.0850   20.4031 O   0  0  0  0  0  0
  -28.6340  -17.4771   21.9080 S   0  0  0  0  0  0
  -31.4587  -12.5623   19.1374 H   0  0  0  0  0  0
  -30.3478  -11.4629   19.9311 H   0  0  0  0  0  0
  -29.7750  -11.7372   17.4811 H   0  0  0  0  0  0
  -29.5968  -13.4547   17.7116 H   0  0  0  0  0  0
  -27.8924  -11.2547   18.9184 H   0  0  0  0  0  0
  -27.3553  -12.4693   17.7919 H   0  0  0  0  0  0
  -27.5872  -14.2211   19.4161 H   0  0  0  0  0  0
  -28.6986  -12.2250   21.4400 H   0  0  0  0  0  0
  -28.4229  -13.9268   21.7277 H   0  0  0  0  0  0
  -25.2724   -9.5771   22.4671 H   0  0  0  0  0  0
  -24.0000   -7.4689   22.7489 H   0  0  0  0  0  0
  -21.0785   -8.8758   19.8959 H   0  0  0  0  0  0
  -22.3616  -10.9635   19.6125 H   0  0  0  0  0  0
  -21.2065   -7.6146   23.9654 H   0  0  0  0  0  0
  -21.1445   -6.0537   25.9036 H   0  0  0  0  0  0
  -22.0611   -2.7591   23.2899 H   0  0  0  0  0  0
  -22.4154  -11.9733   22.4772 H   0  0  0  0  0  0
  -21.1135  -13.1079   22.2751 H   0  0  0  0  0  0
  -24.6647  -15.8553   20.4886 H   0  0  0  0  0  0
  -26.2845  -15.6233   20.0870 H   0  0  0  0  0  0
  -26.7152  -32.5403   23.1084 H   0  0  0  0  0  0
  -25.0072  -33.9732   25.0429 H   0  0  0  0  0  0
  -22.7164  -31.3075   21.4074 H   0  0  0  0  0  0
  -23.3787  -35.9616   23.3306 H   0  0  0  0  0  0
  -24.3597  -36.8904   22.2039 H   0  0  0  0  0  0
  -23.7285  -37.6504   23.6653 H   0  0  0  0  0  0
  -26.1178  -31.5374   20.6329 H   0  0  0  0  0  0
  -26.8478  -30.8101   22.0281 H   0  0  0  0  0  0
  -28.1164  -28.9160   21.2164 H   0  0  0  0  0  0
  -25.9213  -25.9789   18.9127 H   0  0  0  0  0  0
  -23.9667  -27.3575   18.9680 H   0  0  0  0  0  0
  -23.7947  -30.6172   19.4224 H   0  0  0  0  0  0
  -22.7600  -29.2859   19.8343 H   0  0  0  0  0  0
  -25.1329  -36.1930   25.0847 H   0  0  0  0  0  0
  -20.9969  -28.3404   24.1537 H   0  0  0  0  0  0
  -20.5863  -26.2327   23.3713 H   0  0  0  0  0  0
  -21.6634  -26.7557   22.1184 H   0  0  0  0  0  0
  -19.7006  -25.6423   21.1264 H   0  0  0  0  0  0
  -19.6818  -27.3362   20.6919 H   0  0  0  0  0  0
  -17.4336  -26.6828   21.3977 H   0  0  0  0  0  0
  -18.0296  -26.0078   22.9004 H   0  0  0  0  0  0
  -19.7885  -30.7382   24.2204 H   0  0  0  0  0  0
  -17.4932  -31.6332   24.5126 H   0  0  0  0  0  0
  -15.5289  -30.2978   23.7573 H   0  0  0  0  0  0
  -15.8698  -28.0834   22.7006 H   0  0  0  0  0  0
  -24.5916  -30.6970   25.7764 H   0  0  0  0  0  0
  -24.8834  -32.2799   26.4859 H   0  0  0  0  0  0
  -25.8019  -30.8843   27.0229 H   0  0  0  0  0  0
  -26.2926  -29.6712   24.1198 H   0  0  0  0  0  0
  -27.4047  -29.7212   25.4684 H   0  0  0  0  0  0
  -27.8808  -30.4283   23.9430 H   0  0  0  0  0  0
  -27.2741  -33.3575   26.2052 H   0  0  0  0  0  0
  -28.3876  -32.6769   25.0273 H   0  0  0  0  0  0
  -28.0741  -31.8346   26.5379 H   0  0  0  0  0  0
  -28.2625  -38.0106   24.7493 H   0  0  0  0  0  0
  -28.1092  -36.2654   24.6338 H   0  0  0  0  0  0
  -27.2299  -37.1498   25.8858 H   0  0  0  0  0  0
  -20.9439  -29.8736   21.6895 H   0  0  0  0  0  0
  -26.0212  -38.2860   24.1340 H   0  0  0  0  0  0
  -30.5433  -18.7718   19.1643 H   0  0  0  0  0  0
  -27.1478  -19.2548   23.4217 H   0  0  0  0  0  0
  -26.7841  -20.4327   22.1903 H   0  0  0  0  0  0
  -28.1371  -20.7006   23.3059 H   0  0  0  0  0  0
  -29.8083  -23.9428   20.9816 H   0  0  0  0  0  0
  -29.5702  -23.7096   19.2865 H   0  0  0  0  0  0
  -27.2986  -24.7443   21.0597 H   0  0  0  0  0  0
  -27.3632  -24.6419   19.3229 H   0  0  0  0  0  0
  -28.1249  -22.1832   21.5226 H   0  0  0  0  0  0
  -27.7292  -21.9554   19.8363 H   0  0  0  0  0  0
  -28.9168  -16.7611   18.3649 H   0  0  0  0  0  0
  1 25  1  0  0  0
  1 30  2  0  0  0
  1 75  1  0  0  0
  2  3  1  0  0  0
  2 25  1  0  0  0
  2 83  1  0  0  0
  2 84  1  0  0  0
  3  4  1  0  0  0
  3 85  1  0  0  0
  3 86  1  0  0  0
  4  5  1  0  0  0
  4 87  1  0  0  0
  4 88  1  0  0  0
  5  6  1  0  0  0
  5 26  1  0  0  0
  5 89  1  0  0  0
  6 25  1  0  0  0
  6 90  1  0  0  0
  6 91  1  0  0  0
  7  8  2  0  0  0
  7 26  1  0  0  0
  7 29  1  0  0  0
  8  9  1  0  0  0
  8 22  1  0  0  0
  9 10  1  0  0  0
  9 27  2  0  0  0
 10 11  2  0  0  0
 10 15  1  0  0  0
 11 12  1  0  0  0
 11 92  1  0  0  0
 12 13  2  0  0  0
 12 93  1  0  0  0
 13 14  1  0  0  0
 13 31  1  0  0  0
 14 15  2  0  0  0
 14 94  1  0  0  0
 15 95  1  0  0  0
 16 17  2  0  0  0
 16 21  1  0  0  0
 16 31  1  0  0  0
 17 18  1  0  0  0
 17 96  1  0  0  0
 18 19  2  0  0  0
 18 97  1  0  0  0
 19 20  1  0  0  0
 19 24  1  0  0  0
 20 21  2  0  0  0
 20 98  1  0  0  0
 21 23  1  0  0  0
 22 28  1  0  0  0
 22 32  2  0  0  0
 26 27  1  0  0  0
 28 99  1  0  0  0
 28100  1  0  0  0
 29101  1  0  0  0
 29102  1  0  0  0
 33 34  1  0  0  0
 33 66  1  0  0  0
 33 70  2  0  0  0
 34 36  1  0  0  0
 34 59  1  0  0  0
 34103  1  0  0  0
 35 44  2  0  0  0
 35 45  1  0  0  0
 35 68  1  0  0  0
 36 56  1  0  0  0
 36104  1  0  0  0
 37 39  1  0  0  0
 37 47  1  0  0  0
 37 66  1  0  0  0
 37105  1  0  0  0
 38 43  2  0  0  0
 38 46  1  0  0  0
 38 47  1  0  0  0
 39 64  1  0  0  0
 39 67  2  0  0  0
 40 52  1  0  0  0
 40 53  2  0  0  0
 40 58  1  0  0  0
 41106  1  0  0  0
 41107  1  0  0  0
 41108  1  0  0  0
 41 48  1  0  0  0
 42 43  1  0  0  0
 42 66  1  0  0  0
 42109  1  0  0  0
 42110  1  0  0  0
 43 44  1  0  0  0
 44111  1  0  0  0
 45 46  2  0  0  0
 45112  1  0  0  0
 46113  1  0  0  0
 47114  1  0  0  0
 47115  1  0  0  0
 48 56  1  0  0  0
 48 65  1  0  0  0
 48116  1  0  0  0
 49 50  1  0  0  0
 49 53  1  0  0  0
 49 64  1  0  0  0
 49117  1  0  0  0
 50 51  1  0  0  0
 50118  1  0  0  0
 50119  1  0  0  0
 51 52  1  0  0  0
 51120  1  0  0  0
 51121  1  0  0  0
 52122  1  0  0  0
 52123  1  0  0  0
 53 54  1  0  0  0
 54 55  2  0  0  0
 54124  1  0  0  0
 55 57  1  0  0  0
 55125  1  0  0  0
 56 69  2  0  0  0
 57 58  2  0  0  0
 57126  1  0  0  0
 58127  1  0  0  0
 59 60  1  0  0  0
 59 61  1  0  0  0
 59 62  1  0  0  0
 60128  1  0  0  0
 60129  1  0  0  0
 60130  1  0  0  0
 61131  1  0  0  0
 61132  1  0  0  0
 61133  1  0  0  0
 62134  1  0  0  0
 62135  1  0  0  0
 62136  1  0  0  0
 63 65  1  0  0  0
 63137  1  0  0  0
 63138  1  0  0  0
 63139  1  0  0  0
 64140  1  0  0  0
 65141  1  0  0  0
 68 78  1  0  0  0
 71 72  1  0  0  0
 71 73  2  0  0  0
 71142  1  0  0  0
 72 74  2  0  0  0
 72 81  1  0  0  0
 73 75  1  0  0  0
 73 82  1  0  0  0
 74 76  1  0  0  0
 74 82  1  0  0  0
 75 80  2  0  0  0
 76143  1  0  0  0
 76144  1  0  0  0
 76145  1  0  0  0
 77 78  1  0  0  0
 77 79  1  0  0  0
 77146  1  0  0  0
 77147  1  0  0  0
 78148  1  0  0  0
 78149  1  0  0  0
 79 81  1  0  0  0
 79150  1  0  0  0
 79151  1  0  0  0
 80152  1  0  0  0
M  ISO  4   1 100  68 101  75 100  78 101
M  END
> <chiral flag>
0

> <version>
0

> <s_m_source_file>
/data/baiqing/PycharmProjects/Reinvent-master-3.2/result/LINK_invent/BTK/process_docking_weight1_custom_product_contain_oxygen_bond_distance_aromatic_linkinvent_7_9_3/rearranged_h_0116.sdf

> <i_m_source_file_index>
82

> <r_mmod_Potential_Energy-OPLS-2005>
340.909027099609

> <r_mmod_Stretch_Energy-OPLS-2005>
113.732139587402

> <r_mmod_Bend_Energy-OPLS-2005>
178.908660888672

> <r_mmod_Torsional_Energy-OPLS-2005>
270.768829345703

> <r_mmod_Improper_Torsional_Energy-OPLS-2005>
25.7782173156738

> <r_mmod_Van_der_Waal_Energy-OPLS-2005>
120.827575683594

> <r_mmod_Electrostatic_Energy-OPLS-2005>
-258.856994628906

> <r_mmod_Solvation_Energy-OPLS-2005>
-202.145706176758

> <b_mmod_Minimization_Converged-OPLS-2005>
0

> <r_mmod_RMS_Derivative-OPLS-2005>
5.55863761901855

$$$$
82
                    3D
 Structure written by MMmdl.
160168  0  0  1  0            999 V2000
  -30.6105  -14.7362   20.5715 C   0  0  0  0  0  0
  -30.4467  -12.4807   19.4635 C   0  0  0  0  0  0
  -29.5076  -12.5534   18.2376 C   0  0  0  0  0  0
  -28.0334  -12.3708   18.6520 C   0  0  0  0  0  0
  -27.6573  -13.2284   19.8914 C   0  0  2  0  0  0
  -28.7154  -13.0533   21.0080 C   0  0  0  0  0  0
  -25.2444  -13.8127   20.5507 C   0  0  0  0  0  0
  -24.1780  -13.0398   20.9163 C   0  0  0  0  0  0
  -24.6410  -11.6893   20.8789 C   0  0  0  0  0  0
  -23.9077  -10.4276   21.0430 C   0  0  0  0  0  0
  -24.3622   -9.4189   21.9203 C   0  0  0  0  0  0
  -23.6291   -8.2226   22.0763 C   0  0  0  0  0  0
  -22.4277   -8.0271   21.3546 C   0  0  0  0  0  0
  -21.9919   -9.0248   20.4650 C   0  0  0  0  0  0
  -22.7251  -10.2125   20.3066 C   0  0  0  0  0  0
  -21.6854   -6.0729   22.5278 C   0  0  0  0  0  0
  -21.4011   -6.5636   23.8209 C   0  0  0  0  0  0
  -21.3657   -5.6790   24.9172 C   0  0  0  0  0  0
  -21.6043   -4.3052   24.7225 C   0  0  0  0  0  0
  -21.8821   -3.8143   23.4346 C   0  0  0  0  0  0
  -21.9192   -4.6958   22.3401 C   0  0  0  0  0  0
  -22.7801  -13.5189   21.1823 C   0  0  0  0  0  0
  -22.1663   -4.2143   21.0981 F   0  0  0  0  0  0
  -21.5629   -3.4539   25.7738 F   0  0  0  0  0  0
  -30.0019  -13.4938   20.4584 N   0  0  0  0  0  0
  -26.3008  -12.9387   20.3485 N   0  0  0  0  0  0
  -25.9375  -11.6529   20.5925 N   0  0  0  0  0  0
  -22.0466  -12.8195   22.0409 N   0  0  0  0  0  0
  -25.3906  -15.1789   20.3454 N   0  0  0  0  0  0
  -31.6930  -14.9214   20.0008 O   0  0  0  0  0  0
  -21.6640   -6.8872   21.4238 O   0  0  0  0  0  0
  -22.3470  -14.5493   20.6681 O   0  0  0  0  0  0
  -24.6319  -31.8534   23.1955 C   0  0  0  0  0  0
  -25.9140  -32.4749   23.8306 C   0  0  1  0  0  0
  -27.2310  -27.2628   20.1436 C   0  0  0  0  0  0
  -25.5935  -33.8550   24.2235 N   0  0  0  0  0  0
  -23.4296  -30.4733   21.5386 C   0  0  2  0  0  0
  -24.8799  -28.9142   20.1145 C   0  0  0  0  0  0
  -22.7517  -29.4580   22.4906 C   0  0  0  0  0  0
  -18.0299  -28.1383   22.8484 C   0  0  0  0  0  0
  -24.1493  -36.7278   23.2642 C   0  0  0  0  0  0
  -25.9740  -30.7694   21.3725 C   0  0  0  0  0  0
  -26.0509  -29.3897   20.7199 C   0  0  0  0  0  0
  -27.2316  -28.5800   20.7153 C   0  0  0  0  0  0
  -26.0367  -26.8464   19.5191 C   0  0  0  0  0  0
  -24.8782  -27.6504   19.5015 C   0  0  0  0  0  0
  -23.6498  -29.8022   20.1566 C   0  0  0  0  0  0
  -25.4121  -36.3064   24.0329 C   0  0  1  0  0  0
  -20.5903  -28.3689   23.1270 C   0  0  2  0  0  0
  -20.6788  -26.9407   22.5410 C   0  0  0  0  0  0
  -19.5761  -26.6371   21.5218 C   0  0  0  0  0  0
  -18.1936  -26.7922   22.1622 C   0  0  0  0  0  0
  -19.1553  -28.8853   23.2869 C   0  0  0  0  0  0
  -18.9475  -30.1461   23.8880 C   0  0  0  0  0  0
  -17.6474  -30.6579   24.0570 C   0  0  0  0  0  0
  -25.9065  -34.9438   23.5080 C   0  0  0  0  0  0
  -16.5365  -29.9080   23.6340 C   0  0  0  0  0  0
  -16.7283  -28.6507   23.0343 C   0  0  0  0  0  0
  -26.4504  -31.6577   25.0701 C   0  0  0  0  0  0
  -25.3724  -31.3742   26.1424 C   0  0  0  0  0  0
  -27.0358  -30.2993   24.6191 C   0  0  0  0  0  0
  -27.6048  -32.4326   25.7476 C   0  0  0  0  0  0
  -27.5584  -37.1789   24.8468 C   0  0  0  0  0  0
  -21.4218  -29.3028   22.3658 N   0  0  0  0  0  0
  -26.4288  -37.3773   23.9421 N   0  0  0  0  0  0
  -24.6975  -31.0505   22.0922 N   0  0  0  0  0  0
  -23.4216  -28.8124   23.3008 O   0  0  0  0  0  0
  -28.3377  -26.3840   20.1458 O   0  0  0  0  0  0
  -26.5639  -34.8921   22.4653 O   0  0  0  0  0  0
  -23.5464  -32.1338   23.7254 O   0  0  0  0  0  0
  -27.0496  -18.3435   21.4110 C   0  0  0  0  0  0
  -29.7188  -18.4611   20.7193 C   0  0  0  0  0  0
  -27.8732  -17.2279   21.6755 C   0  0  0  0  0  0
  -29.2271  -17.1700   21.2116 C   0  0  0  0  0  0
  -27.5256  -19.5379   20.8345 C   0  0  0  0  0  0
  -28.9136  -19.6847   20.6049 C   0  0  0  0  0  0
  -26.4771  -16.4675   23.6144 C   0  0  0  0  0  0
  -27.2719  -16.2104   22.5608 C   0  0  0  0  0  0
  -30.0738  -15.8774   21.5702 C   0  0  0  0  0  0
  -25.2968  -20.4816   20.7818 C   0  0  0  0  0  0
  -28.8395  -23.6625   19.9968 C   0  0  0  0  0  0
  -28.1794  -24.9842   20.6818 C   0  0  0  0  0  0
  -28.9433  -22.2695   20.8356 C   0  0  0  0  0  0
  -30.3840  -15.7293   22.7918 N   0  0  0  0  0  0
  -26.6825  -20.5705   20.4735 O   0  0  0  0  0  0
  -29.4127  -20.9718   20.2174 O   0  0  0  0  0  0
  -31.4812  -12.6314   19.1511 H   0  0  0  0  0  0
  -30.4260  -11.4808   19.9008 H   0  0  0  0  0  0
  -29.7863  -11.7976   17.5019 H   0  0  0  0  0  0
  -29.6291  -13.5193   17.7451 H   0  0  0  0  0  0
  -27.8810  -11.3141   18.8763 H   0  0  0  0  0  0
  -27.3727  -12.6008   17.8155 H   0  0  0  0  0  0
  -27.6788  -14.2712   19.5740 H   0  0  0  0  0  0
  -28.7684  -12.0034   21.2993 H   0  0  0  0  0  0
  -28.4859  -13.5603   21.9343 H   0  0  0  0  0  0
  -25.2762   -9.5664   22.4790 H   0  0  0  0  0  0
  -23.9994   -7.4615   22.7484 H   0  0  0  0  0  0
  -21.0852   -8.8769   19.8954 H   0  0  0  0  0  0
  -22.3713  -10.9667   19.6180 H   0  0  0  0  0  0
  -21.2005   -7.6146   23.9709 H   0  0  0  0  0  0
  -21.1477   -6.0523   25.9076 H   0  0  0  0  0  0
  -22.0603   -2.7604   23.2850 H   0  0  0  0  0  0
  -22.4094  -11.9853   22.4780 H   0  0  0  0  0  0
  -21.1094  -13.1225   22.2646 H   0  0  0  0  0  0
  -24.6185  -15.8236   20.4662 H   0  0  0  0  0  0
  -26.2459  -15.6348   20.0580 H   0  0  0  0  0  0
  -26.7208  -32.5402   23.1047 H   0  0  0  0  0  0
  -25.0101  -33.9686   25.0390 H   0  0  0  0  0  0
  -22.7261  -31.2950   21.3894 H   0  0  0  0  0  0
  -23.3763  -35.9601   23.3292 H   0  0  0  0  0  0
  -24.3589  -36.8910   22.2060 H   0  0  0  0  0  0
  -23.7223  -37.6465   23.6676 H   0  0  0  0  0  0
  -26.1114  -31.5275   20.6003 H   0  0  0  0  0  0
  -26.8512  -30.8214   22.0057 H   0  0  0  0  0  0
  -28.1321  -28.9466   21.1873 H   0  0  0  0  0  0
  -25.9932  -25.8734   19.0497 H   0  0  0  0  0  0
  -23.9824  -27.2794   19.0214 H   0  0  0  0  0  0
  -23.7765  -30.5769   19.3995 H   0  0  0  0  0  0
  -22.7677  -29.2365   19.8517 H   0  0  0  0  0  0
  -25.1295  -36.1909   25.0818 H   0  0  0  0  0  0
  -21.0000  -28.3264   24.1388 H   0  0  0  0  0  0
  -20.5697  -26.2294   23.3613 H   0  0  0  0  0  0
  -21.6653  -26.7422   22.1201 H   0  0  0  0  0  0
  -19.6932  -25.6284   21.1243 H   0  0  0  0  0  0
  -19.6709  -27.3197   20.6763 H   0  0  0  0  0  0
  -17.4218  -26.6681   21.4016 H   0  0  0  0  0  0
  -18.0326  -26.0054   22.9007 H   0  0  0  0  0  0
  -19.7954  -30.7285   24.2223 H   0  0  0  0  0  0
  -17.5031  -31.6261   24.5171 H   0  0  0  0  0  0
  -15.5365  -30.2981   23.7669 H   0  0  0  0  0  0
  -15.8684  -28.0835   22.7039 H   0  0  0  0  0  0
  -24.5906  -30.7080   25.7762 H   0  0  0  0  0  0
  -24.8914  -32.2922   26.4812 H   0  0  0  0  0  0
  -25.8036  -30.8948   27.0221 H   0  0  0  0  0  0
  -26.2943  -29.6728   24.1220 H   0  0  0  0  0  0
  -27.4048  -29.7273   25.4712 H   0  0  0  0  0  0
  -27.8815  -30.4272   23.9429 H   0  0  0  0  0  0
  -27.2651  -33.3642   26.2013 H   0  0  0  0  0  0
  -28.3878  -32.6851   25.0316 H   0  0  0  0  0  0
  -28.0693  -31.8472   26.5423 H   0  0  0  0  0  0
  -28.2581  -38.0106   24.7534 H   0  0  0  0  0  0
  -28.1084  -36.2630   24.6250 H   0  0  0  0  0  0
  -27.2306  -37.1393   25.8870 H   0  0  0  0  0  0
  -20.9408  -29.8748   21.6862 H   0  0  0  0  0  0
  -26.0160  -38.2838   24.1440 H   0  0  0  0  0  0
  -26.0115  -18.2650   21.6954 H   0  0  0  0  0  0
  -30.7708  -18.5319   20.4856 H   0  0  0  0  0  0
  -26.0569  -15.6606   24.1983 H   0  0  0  0  0  0
  -26.2338  -17.4763   23.9167 H   0  0  0  0  0  0
  -27.4464  -15.1835   22.3287 H   0  0  0  0  0  0
  -24.7966  -21.3867   20.4373 H   0  0  0  0  0  0
  -25.1297  -20.4066   21.8570 H   0  0  0  0  0  0
  -24.8240  -19.6363   20.2804 H   0  0  0  0  0  0
  -29.8475  -23.9206   19.6727 H   0  0  0  0  0  0
  -28.2853  -23.4615   19.0802 H   0  0  0  0  0  0
  -28.5899  -25.0376   21.6905 H   0  0  0  0  0  0
  -27.1211  -24.7735   20.8393 H   0  0  0  0  0  0
  -28.0228  -22.1520   21.3985 H   0  0  0  0  0  0
  -29.6675  -22.4588   21.6277 H   0  0  0  0  0  0
  -30.0098  -16.4853   23.3528 H   0  0  0  0  0  0
  1 25  1  0  0  0
  1 30  2  0  0  0
  1 79  1  0  0  0
  2  3  1  0  0  0
  2 25  1  0  0  0
  2 87  1  0  0  0
  2 88  1  0  0  0
  3  4  1  0  0  0
  3 89  1  0  0  0
  3 90  1  0  0  0
  4  5  1  0  0  0
  4 91  1  0  0  0
  4 92  1  0  0  0
  5  6  1  0  0  0
  5 26  1  0  0  0
  5 93  1  0  0  0
  6 25  1  0  0  0
  6 94  1  0  0  0
  6 95  1  0  0  0
  7  8  2  0  0  0
  7 26  1  0  0  0
  7 29  1  0  0  0
  8  9  1  0  0  0
  8 22  1  0  0  0
  9 10  1  0  0  0
  9 27  2  0  0  0
 10 11  2  0  0  0
 10 15  1  0  0  0
 11 12  1  0  0  0
 11 96  1  0  0  0
 12 13  2  0  0  0
 12 97  1  0  0  0
 13 14  1  0  0  0
 13 31  1  0  0  0
 14 15  2  0  0  0
 14 98  1  0  0  0
 15 99  1  0  0  0
 16 17  2  0  0  0
 16 21  1  0  0  0
 16 31  1  0  0  0
 17 18  1  0  0  0
 17100  1  0  0  0
 18 19  2  0  0  0
 18101  1  0  0  0
 19 20  1  0  0  0
 19 24  1  0  0  0
 20 21  2  0  0  0
 20102  1  0  0  0
 21 23  1  0  0  0
 22 28  1  0  0  0
 22 32  2  0  0  0
 26 27  1  0  0  0
 28103  1  0  0  0
 28104  1  0  0  0
 29105  1  0  0  0
 29106  1  0  0  0
 33 34  1  0  0  0
 33 66  1  0  0  0
 33 70  2  0  0  0
 34 36  1  0  0  0
 34 59  1  0  0  0
 34107  1  0  0  0
 35 44  2  0  0  0
 35 45  1  0  0  0
 35 68  1  0  0  0
 36 56  1  0  0  0
 36108  1  0  0  0
 37 39  1  0  0  0
 37 47  1  0  0  0
 37 66  1  0  0  0
 37109  1  0  0  0
 38 43  2  0  0  0
 38 46  1  0  0  0
 38 47  1  0  0  0
 39 64  1  0  0  0
 39 67  2  0  0  0
 40 52  1  0  0  0
 40 53  2  0  0  0
 40 58  1  0  0  0
 41110  1  0  0  0
 41111  1  0  0  0
 41112  1  0  0  0
 41 48  1  0  0  0
 42 43  1  0  0  0
 42 66  1  0  0  0
 42113  1  0  0  0
 42114  1  0  0  0
 43 44  1  0  0  0
 44115  1  0  0  0
 45 46  2  0  0  0
 45116  1  0  0  0
 46117  1  0  0  0
 47118  1  0  0  0
 47119  1  0  0  0
 48 56  1  0  0  0
 48 65  1  0  0  0
 48120  1  0  0  0
 49 50  1  0  0  0
 49 53  1  0  0  0
 49 64  1  0  0  0
 49121  1  0  0  0
 50 51  1  0  0  0
 50122  1  0  0  0
 50123  1  0  0  0
 51 52  1  0  0  0
 51124  1  0  0  0
 51125  1  0  0  0
 52126  1  0  0  0
 52127  1  0  0  0
 53 54  1  0  0  0
 54 55  2  0  0  0
 54128  1  0  0  0
 55 57  1  0  0  0
 55129  1  0  0  0
 56 69  2  0  0  0
 57 58  2  0  0  0
 57130  1  0  0  0
 58131  1  0  0  0
 59 60  1  0  0  0
 59 61  1  0  0  0
 59 62  1  0  0  0
 60132  1  0  0  0
 60133  1  0  0  0
 60134  1  0  0  0
 61135  1  0  0  0
 61136  1  0  0  0
 61137  1  0  0  0
 62138  1  0  0  0
 62139  1  0  0  0
 62140  1  0  0  0
 63 65  1  0  0  0
 63141  1  0  0  0
 63142  1  0  0  0
 63143  1  0  0  0
 64144  1  0  0  0
 65145  1  0  0  0
 68 82  1  0  0  0
 71 73  2  0  0  0
 71 75  1  0  0  0
 71146  1  0  0  0
 72 74  2  0  0  0
 72 76  1  0  0  0
 72147  1  0  0  0
 73 74  1  0  0  0
 73 78  1  0  0  0
 74 79  1  0  0  0
 75 76  2  0  0  0
 75 85  1  0  0  0
 76 86  1  0  0  0
 77 78  2  0  0  0
 77148  1  0  0  0
 77149  1  0  0  0
 78150  1  0  0  0
 79 84  2  0  0  0
 80 85  1  0  0  0
 80151  1  0  0  0
 80152  1  0  0  0
 80153  1  0  0  0
 81 82  1  0  0  0
 81 83  1  0  0  0
 81154  1  0  0  0
 81155  1  0  0  0
 82156  1  0  0  0
 82157  1  0  0  0
 83 86  1  0  0  0
 83158  1  0  0  0
 83159  1  0  0  0
 84160  1  0  0  0
M  ISO  4   1 100  68 101  79 100  82 101
M  END
> <chiral flag>
0

> <version>
0

> <s_m_source_file>
/data/baiqing/PycharmProjects/Reinvent-master-3.2/result/LINK_invent/BTK/process_docking_weight1_custom_product_contain_oxygen_bond_distance_aromatic_linkinvent_7_9_3/rearranged_h_0116.sdf

> <i_m_source_file_index>
83

> <r_mmod_Potential_Energy-OPLS-2005>
473.702972412109

> <r_mmod_Stretch_Energy-OPLS-2005>
161.962005615234

> <r_mmod_Bend_Energy-OPLS-2005>
223.653930664062

> <r_mmod_Torsional_Energy-OPLS-2005>
291.447631835938

> <r_mmod_Improper_Torsional_Energy-OPLS-2005>
6.64180088043213

> <r_mmod_Van_der_Waal_Energy-OPLS-2005>
152.897064208984

> <r_mmod_Electrostatic_Energy-OPLS-2005>
-237.582397460938

> <r_mmod_Solvation_Energy-OPLS-2005>
-203.606979370117

> <b_mmod_Minimization_Converged-OPLS-2005>
0

> <r_mmod_RMS_Derivative-OPLS-2005>
1.175168633461

$$$$
83
                    3D
 Structure written by MMmdl.
148156  0  0  1  0            999 V2000
  -30.3638  -15.3704   20.3552 C   0  0  0  0  0  0
  -30.4465  -12.8760   19.5465 C   0  0  0  0  0  0
  -29.5499  -12.6148   18.3046 C   0  0  0  0  0  0
  -28.1007  -12.3105   18.7229 C   0  0  0  0  0  0
  -27.6113  -13.2844   19.8217 C   0  0  2  0  0  0
  -28.6364  -13.4768   20.9584 C   0  0  0  0  0  0
  -25.2387  -13.8257   20.5741 C   0  0  0  0  0  0
  -24.1748  -13.0432   20.9246 C   0  0  0  0  0  0
  -24.6416  -11.6933   20.8745 C   0  0  0  0  0  0
  -23.9109  -10.4293   21.0397 C   0  0  0  0  0  0
  -24.3646   -9.4207   21.9180 C   0  0  0  0  0  0
  -23.6311   -8.2249   22.0752 C   0  0  0  0  0  0
  -22.4294   -8.0289   21.3543 C   0  0  0  0  0  0
  -21.9936   -9.0261   20.4643 C   0  0  0  0  0  0
  -22.7276  -10.2133   20.3048 C   0  0  0  0  0  0
  -21.6856   -6.0745   22.5279 C   0  0  0  0  0  0
  -21.4020   -6.5646   23.8214 C   0  0  0  0  0  0
  -21.3660   -5.6796   24.9174 C   0  0  0  0  0  0
  -21.6046   -4.3060   24.7224 C   0  0  0  0  0  0
  -21.8816   -3.8152   23.4345 C   0  0  0  0  0  0
  -21.9194   -4.6971   22.3401 C   0  0  0  0  0  0
  -22.7762  -13.5179   21.1901 C   0  0  0  0  0  0
  -22.1661   -4.2156   21.0979 F   0  0  0  0  0  0
  -21.5627   -3.4541   25.7735 F   0  0  0  0  0  0
  -29.8669  -14.0205   20.3535 N   0  0  0  0  0  0
  -26.2819  -12.9545   20.3185 N   0  0  0  0  0  0
  -25.9356  -11.6642   20.5680 N   0  0  0  0  0  0
  -22.0427  -12.8156   22.0454 N   0  0  0  0  0  0
  -25.4018  -15.1994   20.4204 N   0  0  0  0  0  0
  -31.5811  -15.3851   20.1103 O   0  0  0  0  0  0
  -21.6650   -6.8892   21.4244 O   0  0  0  0  0  0
  -22.3439  -14.5485   20.6750 O   0  0  0  0  0  0
  -24.6695  -31.8169   23.1667 C   0  0  0  0  0  0
  -25.9347  -32.4556   23.8149 C   0  0  1  0  0  0
  -27.2196  -26.8574   20.1883 C   0  0  0  0  0  0
  -25.5990  -33.8374   24.2050 N   0  0  0  0  0  0
  -23.4883  -30.4273   21.5168 C   0  0  2  0  0  0
  -24.9447  -28.8038   20.1151 C   0  0  0  0  0  0
  -22.7705  -29.4405   22.4753 C   0  0  0  0  0  0
  -18.0330  -28.1412   22.8457 C   0  0  0  0  0  0
  -24.1501  -36.7201   23.2646 C   0  0  0  0  0  0
  -26.0622  -30.5989   21.4105 C   0  0  0  0  0  0
  -26.1296  -29.1799   20.7606 C   0  0  0  0  0  0
  -27.2576  -28.2275   20.7789 C   0  0  0  0  0  0
  -26.0074  -26.6641   19.4832 C   0  0  0  0  0  0
  -24.9128  -27.5672   19.4556 C   0  0  0  0  0  0
  -23.7347  -29.7410   20.1449 C   0  0  0  0  0  0
  -25.4142  -36.2952   24.0294 C   0  0  1  0  0  0
  -20.5959  -28.3766   23.1168 C   0  0  2  0  0  0
  -20.6803  -26.9439   22.5394 C   0  0  0  0  0  0
  -19.5778  -26.6380   21.5204 C   0  0  0  0  0  0
  -18.1962  -26.7944   22.1614 C   0  0  0  0  0  0
  -19.1592  -28.8908   23.2800 C   0  0  0  0  0  0
  -18.9499  -30.1493   23.8845 C   0  0  0  0  0  0
  -17.6491  -30.6594   24.0555 C   0  0  0  0  0  0
  -25.9106  -34.9331   23.4996 C   0  0  0  0  0  0
  -16.5381  -29.9081   23.6341 C   0  0  0  0  0  0
  -16.7313  -28.6503   23.0356 C   0  0  0  0  0  0
  -26.4578  -31.6518   25.0698 C   0  0  0  0  0  0
  -25.3688  -31.3771   26.1340 C   0  0  0  0  0  0
  -27.0486  -30.2878   24.6472 C   0  0  0  0  0  0
  -27.6060  -32.4337   25.7507 C   0  0  0  0  0  0
  -27.5572  -37.1766   24.8466 C   0  0  0  0  0  0
  -21.4363  -29.3045   22.3510 N   0  0  0  0  0  0
  -26.4285  -37.3692   23.9399 N   0  0  0  0  0  0
  -24.7619  -30.9765   22.0846 N   0  0  0  0  0  0
  -23.4219  -28.7970   23.3015 O   0  0  0  0  0  0
  -28.1821  -25.6887   20.2322 O   0  0  0  0  0  0
  -26.5718  -34.8878   22.4595 O   0  0  0  0  0  0
  -23.5748  -32.1172   23.6715 O   0  0  0  0  0  0
  -28.4009  -21.0331   20.4585 C   0  0  0  0  0  0
  -28.7591  -22.5699   20.2666 C   0  0  0  0  0  0
  -29.3364  -19.8818   20.3221 C   0  0  0  0  0  0
  -30.1155  -22.4866   19.9617 C   0  0  0  0  0  0
  -29.3076  -18.2193   20.4462 C   0  0  0  0  0  0
  -29.4226  -16.7174   20.5206 C   0  0  0  0  0  0
  -31.3004  -24.3186   20.5658 C   0  0  0  0  0  0
  -27.8263  -23.9924   20.3401 C   0  0  0  0  0  0
  -32.2299  -25.4833   20.3375 C   0  0  0  0  0  0
  -30.9955  -23.4929   19.6497 N   0  0  0  0  0  0
  -26.6262  -23.7716   20.5180 O   0  0  0  0  0  0
  -30.7939  -20.7918   19.9096 S   0  0  0  0  0  0
  -31.4616  -13.0993   19.2156 H   0  0  0  0  0  0
  -30.5339  -11.9754   20.1563 H   0  0  0  0  0  0
  -29.9517  -11.7948   17.7079 H   0  0  0  0  0  0
  -29.5627  -13.4973   17.6630 H   0  0  0  0  0  0
  -28.0717  -11.2877   19.1005 H   0  0  0  0  0  0
  -27.4367  -12.3385   17.8579 H   0  0  0  0  0  0
  -27.5203  -14.2477   19.3182 H   0  0  0  0  0  0
  -28.8201  -12.5424   21.4904 H   0  0  0  0  0  0
  -28.2524  -14.1779   21.6998 H   0  0  0  0  0  0
  -25.2787   -9.5684   22.4758 H   0  0  0  0  0  0
  -24.0014   -7.4644   22.7475 H   0  0  0  0  0  0
  -21.0866   -8.8788   19.8948 H   0  0  0  0  0  0
  -22.3736  -10.9675   19.6157 H   0  0  0  0  0  0
  -21.2014   -7.6153   23.9720 H   0  0  0  0  0  0
  -21.1485   -6.0526   25.9079 H   0  0  0  0  0  0
  -22.0594   -2.7613   23.2841 H   0  0  0  0  0  0
  -22.4060  -11.9822   22.4834 H   0  0  0  0  0  0
  -21.1033  -13.1146   22.2649 H   0  0  0  0  0  0
  -24.6317  -15.8486   20.5397 H   0  0  0  0  0  0
  -26.2456  -15.6448   20.0833 H   0  0  0  0  0  0
  -26.7416  -32.5081   23.0857 H   0  0  0  0  0  0
  -25.0087  -33.9439   25.0168 H   0  0  0  0  0  0
  -22.8054  -31.2611   21.3407 H   0  0  0  0  0  0
  -23.3772  -35.9524   23.3270 H   0  0  0  0  0  0
  -24.3580  -36.8888   22.2068 H   0  0  0  0  0  0
  -23.7253  -37.6377   23.6727 H   0  0  0  0  0  0
  -26.2460  -31.3316   20.6236 H   0  0  0  0  0  0
  -26.9214  -30.6644   22.0653 H   0  0  0  0  0  0
  -28.1504  -28.5130   21.3162 H   0  0  0  0  0  0
  -25.8687  -25.7278   18.9630 H   0  0  0  0  0  0
  -24.0188  -27.2750   18.9216 H   0  0  0  0  0  0
  -23.9003  -30.5088   19.3881 H   0  0  0  0  0  0
  -22.8431  -29.2010   19.8211 H   0  0  0  0  0  0
  -25.1344  -36.1742   25.0786 H   0  0  0  0  0  0
  -21.0046  -28.3373   24.1292 H   0  0  0  0  0  0
  -20.5674  -26.2383   23.3639 H   0  0  0  0  0  0
  -21.6666  -26.7401   22.1204 H   0  0  0  0  0  0
  -19.6934  -25.6278   21.1266 H   0  0  0  0  0  0
  -19.6716  -27.3163   20.6713 H   0  0  0  0  0  0
  -17.4228  -26.6684   21.4021 H   0  0  0  0  0  0
  -18.0360  -26.0099   22.9025 H   0  0  0  0  0  0
  -19.7974  -30.7322   24.2196 H   0  0  0  0  0  0
  -17.5040  -31.6268   24.5171 H   0  0  0  0  0  0
  -15.5378  -30.2962   23.7696 H   0  0  0  0  0  0
  -15.8716  -28.0805   22.7095 H   0  0  0  0  0  0
  -24.5923  -30.7056   25.7652 H   0  0  0  0  0  0
  -24.8812  -32.2964   26.4596 H   0  0  0  0  0  0
  -25.7917  -30.9067   27.0226 H   0  0  0  0  0  0
  -26.3163  -29.6533   24.1469 H   0  0  0  0  0  0
  -27.3987  -29.7267   25.5146 H   0  0  0  0  0  0
  -27.9120  -30.4048   23.9920 H   0  0  0  0  0  0
  -27.2633  -33.3705   26.1914 H   0  0  0  0  0  0
  -28.3965  -32.6783   25.0398 H   0  0  0  0  0  0
  -28.0620  -31.8567   26.5564 H   0  0  0  0  0  0
  -28.2566  -38.0083   24.7504 H   0  0  0  0  0  0
  -28.1091  -36.2606   24.6306 H   0  0  0  0  0  0
  -27.2283  -37.1423   25.8867 H   0  0  0  0  0  0
  -20.9627  -29.8748   21.6644 H   0  0  0  0  0  0
  -26.0127  -38.2752   24.1390 H   0  0  0  0  0  0
  -27.3687  -20.8305   20.7063 H   0  0  0  0  0  0
  -30.3508  -18.2007   20.1649 H   0  0  0  0  0  0
  -28.4453  -16.3608   20.8051 H   0  0  0  0  0  0
  -30.9064  -24.2449   21.5845 H   0  0  0  0  0  0
  -32.2675  -25.7482   19.2806 H   0  0  0  0  0  0
  -33.2359  -25.2308   20.6710 H   0  0  0  0  0  0
  -31.8846  -26.3517   20.8980 H   0  0  0  0  0  0
  1 25  1  0  0  0
  1 30  2  0  0  0
  1 76  1  0  0  0
  2  3  1  0  0  0
  2 25  1  0  0  0
  2 83  1  0  0  0
  2 84  1  0  0  0
  3  4  1  0  0  0
  3 85  1  0  0  0
  3 86  1  0  0  0
  4  5  1  0  0  0
  4 87  1  0  0  0
  4 88  1  0  0  0
  5  6  1  0  0  0
  5 26  1  0  0  0
  5 89  1  0  0  0
  6 25  1  0  0  0
  6 90  1  0  0  0
  6 91  1  0  0  0
  7  8  2  0  0  0
  7 26  1  0  0  0
  7 29  1  0  0  0
  8  9  1  0  0  0
  8 22  1  0  0  0
  9 10  1  0  0  0
  9 27  2  0  0  0
 10 11  2  0  0  0
 10 15  1  0  0  0
 11 12  1  0  0  0
 11 92  1  0  0  0
 12 13  2  0  0  0
 12 93  1  0  0  0
 13 14  1  0  0  0
 13 31  1  0  0  0
 14 15  2  0  0  0
 14 94  1  0  0  0
 15 95  1  0  0  0
 16 17  2  0  0  0
 16 21  1  0  0  0
 16 31  1  0  0  0
 17 18  1  0  0  0
 17 96  1  0  0  0
 18 19  2  0  0  0
 18 97  1  0  0  0
 19 20  1  0  0  0
 19 24  1  0  0  0
 20 21  2  0  0  0
 20 98  1  0  0  0
 21 23  1  0  0  0
 22 28  1  0  0  0
 22 32  2  0  0  0
 26 27  1  0  0  0
 28 99  1  0  0  0
 28100  1  0  0  0
 29101  1  0  0  0
 29102  1  0  0  0
 33 34  1  0  0  0
 33 66  1  0  0  0
 33 70  2  0  0  0
 34 36  1  0  0  0
 34 59  1  0  0  0
 34103  1  0  0  0
 35 44  2  0  0  0
 35 45  1  0  0  0
 35 68  1  0  0  0
 36 56  1  0  0  0
 36104  1  0  0  0
 37 39  1  0  0  0
 37 47  1  0  0  0
 37 66  1  0  0  0
 37105  1  0  0  0
 38 43  2  0  0  0
 38 46  1  0  0  0
 38 47  1  0  0  0
 39 64  1  0  0  0
 39 67  2  0  0  0
 40 52  1  0  0  0
 40 53  2  0  0  0
 40 58  1  0  0  0
 41106  1  0  0  0
 41107  1  0  0  0
 41108  1  0  0  0
 41 48  1  0  0  0
 42 43  1  0  0  0
 42 66  1  0  0  0
 42109  1  0  0  0
 42110  1  0  0  0
 43 44  1  0  0  0
 44111  1  0  0  0
 45 46  2  0  0  0
 45112  1  0  0  0
 46113  1  0  0  0
 47114  1  0  0  0
 47115  1  0  0  0
 48 56  1  0  0  0
 48 65  1  0  0  0
 48116  1  0  0  0
 49 50  1  0  0  0
 49 53  1  0  0  0
 49 64  1  0  0  0
 49117  1  0  0  0
 50 51  1  0  0  0
 50118  1  0  0  0
 50119  1  0  0  0
 51 52  1  0  0  0
 51120  1  0  0  0
 51121  1  0  0  0
 52122  1  0  0  0
 52123  1  0  0  0
 53 54  1  0  0  0
 54 55  2  0  0  0
 54124  1  0  0  0
 55 57  1  0  0  0
 55125  1  0  0  0
 56 69  2  0  0  0
 57 58  2  0  0  0
 57126  1  0  0  0
 58127  1  0  0  0
 59 60  1  0  0  0
 59 61  1  0  0  0
 59 62  1  0  0  0
 60128  1  0  0  0
 60129  1  0  0  0
 60130  1  0  0  0
 61131  1  0  0  0
 61132  1  0  0  0
 61133  1  0  0  0
 62134  1  0  0  0
 62135  1  0  0  0
 62136  1  0  0  0
 63 65  1  0  0  0
 63137  1  0  0  0
 63138  1  0  0  0
 63139  1  0  0  0
 64140  1  0  0  0
 65141  1  0  0  0
 68 78  1  0  0  0
 71 72  1  0  0  0
 71 73  2  0  0  0
 71142  1  0  0  0
 72 74  2  0  0  0
 72 78  1  0  0  0
 73 75  1  0  0  0
 73 82  1  0  0  0
 74 80  1  0  0  0
 74 82  1  0  0  0
 75 76  2  0  0  0
 75143  1  0  0  0
 76144  1  0  0  0
 77 79  1  0  0  0
 77 80  2  0  0  0
 77145  1  0  0  0
 78 81  2  0  0  0
 79146  1  0  0  0
 79147  1  0  0  0
 79148  1  0  0  0
M  ISO  4   1 100  68 101  76 100  78 101
M  END
> <chiral flag>
0

> <version>
0

> <s_m_source_file>
/data/baiqing/PycharmProjects/Reinvent-master-3.2/result/LINK_invent/BTK/process_docking_weight1_custom_product_contain_oxygen_bond_distance_aromatic_linkinvent_7_9_3/rearranged_h_0116.sdf

> <i_m_source_file_index>
84

> <r_mmod_Potential_Energy-OPLS-2005>
1782.58325195312

> <r_mmod_Stretch_Energy-OPLS-2005>
701.759643554688

> <r_mmod_Bend_Energy-OPLS-2005>
686.265625

> <r_mmod_Torsional_Energy-OPLS-2005>
196.659027099609

> <r_mmod_Improper_Torsional_Energy-OPLS-2005>
2.57217025756836

> <r_mmod_Van_der_Waal_Energy-OPLS-2005>
108.901016235352

> <r_mmod_Electrostatic_Energy-OPLS-2005>
-280.441741943359

> <r_mmod_Solvation_Energy-OPLS-2005>
-209.230819702148

> <b_mmod_Minimization_Converged-OPLS-2005>
0

> <r_mmod_RMS_Derivative-OPLS-2005>
1.10573971271515

$$$$
84
                    3D
 Structure written by MMmdl.
161169  0  0  1  0            999 V2000
  -30.7036  -14.4708   20.7599 C   0  0  0  0  0  0
  -30.4369  -12.3922   19.3972 C   0  0  0  0  0  0
  -29.4895  -12.5585   18.1905 C   0  0  0  0  0  0
  -28.0078  -12.3867   18.5851 C   0  0  0  0  0  0
  -27.6582  -13.1875   19.8583 C   0  0  2  0  0  0
  -28.6818  -12.9119   20.9660 C   0  0  0  0  0  0
  -25.2659  -13.8154   20.5609 C   0  0  0  0  0  0
  -24.1874  -13.0429   20.9140 C   0  0  0  0  0  0
  -24.6400  -11.6901   20.8698 C   0  0  0  0  0  0
  -23.9071  -10.4293   21.0404 C   0  0  0  0  0  0
  -24.3627   -9.4227   21.9193 C   0  0  0  0  0  0
  -23.6314   -8.2252   22.0755 C   0  0  0  0  0  0
  -22.4300   -8.0289   21.3534 C   0  0  0  0  0  0
  -21.9928   -9.0278   20.4650 C   0  0  0  0  0  0
  -22.7250  -10.2161   20.3062 C   0  0  0  0  0  0
  -21.6860   -6.0746   22.5275 C   0  0  0  0  0  0
  -21.4019   -6.5658   23.8208 C   0  0  0  0  0  0
  -21.3648   -5.6811   24.9172 C   0  0  0  0  0  0
  -21.6035   -4.3069   24.7215 C   0  0  0  0  0  0
  -21.8840   -3.8163   23.4337 C   0  0  0  0  0  0
  -21.9213   -4.6980   22.3394 C   0  0  0  0  0  0
  -22.7940  -13.5287   21.1840 C   0  0  0  0  0  0
  -22.1688   -4.2165   21.0975 F   0  0  0  0  0  0
  -21.5626   -3.4550   25.7721 F   0  0  0  0  0  0
  -30.0215  -13.3080   20.4811 N   0  0  0  0  0  0
  -26.3000  -12.9229   20.3222 N   0  0  0  0  0  0
  -25.9295  -11.6414   20.5666 N   0  0  0  0  0  0
  -22.0589  -12.8215   22.0383 N   0  0  0  0  0  0
  -25.4495  -15.1841   20.4075 N   0  0  0  0  0  0
  -31.6823  -14.8305   20.0913 O   0  0  0  0  0  0
  -21.6666   -6.8867   21.4224 O   0  0  0  0  0  0
  -22.3614  -14.5582   20.6715 O   0  0  0  0  0  0
  -24.6139  -31.8675   23.2091 C   0  0  0  0  0  0
  -25.9027  -32.4801   23.8387 C   0  0  1  0  0  0
  -27.2328  -27.3338   20.1677 C   0  0  0  0  0  0
  -25.5923  -33.8618   24.2317 N   0  0  0  0  0  0
  -23.4110  -30.4930   21.5433 C   0  0  2  0  0  0
  -24.8677  -28.9583   20.1031 C   0  0  0  0  0  0
  -22.7421  -29.4697   22.4915 C   0  0  0  0  0  0
  -18.0284  -28.1362   22.8567 C   0  0  0  0  0  0
  -24.1503  -36.7287   23.2639 C   0  0  0  0  0  0
  -25.9519  -30.8019   21.3889 C   0  0  0  0  0  0
  -26.0279  -29.4341   20.7297 C   0  0  0  0  0  0
  -27.2072  -28.6359   20.7579 C   0  0  0  0  0  0
  -26.0407  -26.9014   19.5366 C   0  0  0  0  0  0
  -24.8832  -27.6956   19.4890 C   0  0  0  0  0  0
  -23.6246  -29.8268   20.1569 C   0  0  0  0  0  0
  -25.4138  -36.3119   24.0328 C   0  0  1  0  0  0
  -20.5881  -28.3704   23.1244 C   0  0  2  0  0  0
  -20.6814  -26.9425   22.5364 C   0  0  0  0  0  0
  -19.5726  -26.6400   21.5246 C   0  0  0  0  0  0
  -18.1964  -26.7880   22.1777 C   0  0  0  0  0  0
  -19.1519  -28.8861   23.2883 C   0  0  0  0  0  0
  -18.9420  -30.1504   23.8776 C   0  0  0  0  0  0
  -17.6436  -30.6645   24.0448 C   0  0  0  0  0  0
  -25.9074  -34.9476   23.5114 C   0  0  0  0  0  0
  -16.5319  -29.9085   23.6283 C   0  0  0  0  0  0
  -16.7241  -28.6476   23.0374 C   0  0  0  0  0  0
  -26.4461  -31.6605   25.0754 C   0  0  0  0  0  0
  -25.3695  -31.3743   26.1492 C   0  0  0  0  0  0
  -27.0371  -30.3021   24.6270 C   0  0  0  0  0  0
  -27.6036  -32.4337   25.7517 C   0  0  0  0  0  0
  -27.5603  -37.1824   24.8483 C   0  0  0  0  0  0
  -21.4156  -29.3087   22.3618 N   0  0  0  0  0  0
  -26.4328  -37.3798   23.9400 N   0  0  0  0  0  0
  -24.6747  -31.0728   22.0998 N   0  0  0  0  0  0
  -23.4139  -28.8258   23.3018 O   0  0  0  0  0  0
  -28.3629  -26.5013   20.2326 O   0  0  0  0  0  0
  -26.5613  -34.8935   22.4671 O   0  0  0  0  0  0
  -23.5322  -32.1459   23.7457 O   0  0  0  0  0  0
  -29.9761  -17.6733   21.1885 C   0  0  0  0  0  0
  -30.4677  -19.5964   22.5808 C   0  0  0  0  0  0
  -30.4519  -16.7564   22.1900 C   0  0  0  0  0  0
  -30.8879  -18.7348   23.6155 C   0  0  0  0  0  0
  -30.9458  -17.3243   23.4178 C   0  0  0  0  0  0
  -30.0181  -19.1029   21.3436 C   0  0  0  0  0  0
  -30.3029  -15.2311   22.0646 C   0  0  0  0  0  0
  -31.2234  -19.3762   24.9575 C   0  0  0  0  0  0
  -31.5248  -16.4455   24.5494 C   0  0  0  0  0  0
  -29.3452  -24.0342   20.4585 C   0  0  0  0  0  0
  -28.9367  -22.5060   20.6198 C   0  0  0  0  0  0
  -28.1615  -25.0436   20.1280 C   0  0  0  0  0  0
  -29.9894  -21.3832   20.2476 C   0  0  0  0  0  0
  -29.9193  -14.5725   23.0824 N   0  0  0  0  0  0
  -29.5641  -19.9751   20.3393 O   0  0  0  0  0  0
  -31.4667  -12.5718   19.0833 H   0  0  0  0  0  0
  -30.4198  -11.3655   19.7665 H   0  0  0  0  0  0
  -29.7536  -11.8494   17.4076 H   0  0  0  0  0  0
  -29.6265  -13.5527   17.7607 H   0  0  0  0  0  0
  -27.8065  -11.3250   18.7336 H   0  0  0  0  0  0
  -27.3618  -12.7036   17.7644 H   0  0  0  0  0  0
  -27.7211  -14.2427   19.5979 H   0  0  0  0  0  0
  -28.6962  -11.8523   21.2257 H   0  0  0  0  0  0
  -28.3066  -13.4014   21.8541 H   0  0  0  0  0  0
  -25.2765   -9.5739   22.4766 H   0  0  0  0  0  0
  -24.0050   -7.4650   22.7460 H   0  0  0  0  0  0
  -21.0867   -8.8797   19.8940 H   0  0  0  0  0  0
  -22.3705  -10.9711   19.6178 H   0  0  0  0  0  0
  -21.2005   -7.6167   23.9704 H   0  0  0  0  0  0
  -21.1450   -6.0543   25.9065 H   0  0  0  0  0  0
  -22.0623   -2.7628   23.2847 H   0  0  0  0  0  0
  -22.4180  -11.9794   22.4632 H   0  0  0  0  0  0
  -21.1238  -13.1248   22.2639 H   0  0  0  0  0  0
  -24.6997  -15.8598   20.5085 H   0  0  0  0  0  0
  -26.3303  -15.6090   20.1452 H   0  0  0  0  0  0
  -26.7092  -32.5458   23.1153 H   0  0  0  0  0  0
  -25.0138  -33.9820   25.0501 H   0  0  0  0  0  0
  -22.6950  -31.3083   21.4051 H   0  0  0  0  0  0
  -23.3790  -35.9608   23.3353 H   0  0  0  0  0  0
  -24.3576  -36.8846   22.2048 H   0  0  0  0  0  0
  -23.7240  -37.6498   23.6617 H   0  0  0  0  0  0
  -26.0960  -31.5727   20.6307 H   0  0  0  0  0  0
  -26.8228  -30.8320   22.0298 H   0  0  0  0  0  0
  -28.0819  -29.0031   21.2752 H   0  0  0  0  0  0
  -25.9648  -25.9223   19.0916 H   0  0  0  0  0  0
  -24.0062  -27.3051   18.9926 H   0  0  0  0  0  0
  -23.7129  -30.5965   19.3906 H   0  0  0  0  0  0
  -22.7472  -29.2410   19.8740 H   0  0  0  0  0  0
  -25.1328  -36.2009   25.0817 H   0  0  0  0  0  0
  -21.0025  -28.3243   24.1339 H   0  0  0  0  0  0
  -20.5751  -26.2325   23.3611 H   0  0  0  0  0  0
  -21.6654  -26.7480   22.1066 H   0  0  0  0  0  0
  -19.6874  -25.6362   21.1156 H   0  0  0  0  0  0
  -19.6515  -27.3308   20.6859 H   0  0  0  0  0  0
  -17.4149  -26.6553   21.4297 H   0  0  0  0  0  0
  -18.0540  -26.0079   22.9241 H   0  0  0  0  0  0
  -19.7890  -30.7374   24.2004 H   0  0  0  0  0  0
  -17.4997  -31.6360   24.5002 H   0  0  0  0  0  0
  -15.5326  -30.2978   23.7644 H   0  0  0  0  0  0
  -15.8649  -28.0764   22.7152 H   0  0  0  0  0  0
  -24.5833  -30.7141   25.7829 H   0  0  0  0  0  0
  -24.8901  -32.2907   26.4933 H   0  0  0  0  0  0
  -25.7972  -30.8893   27.0264 H   0  0  0  0  0  0
  -26.3017  -29.6714   24.1255 H   0  0  0  0  0  0
  -27.4048  -29.7339   25.4833 H   0  0  0  0  0  0
  -27.8882  -30.4358   23.9581 H   0  0  0  0  0  0
  -27.2667  -33.3637   26.2123 H   0  0  0  0  0  0
  -28.3823  -32.6872   25.0305 H   0  0  0  0  0  0
  -28.0752  -31.8426   26.5392 H   0  0  0  0  0  0
  -28.2663  -38.0088   24.7501 H   0  0  0  0  0  0
  -28.1054  -36.2600   24.6369 H   0  0  0  0  0  0
  -27.2302  -37.1589   25.8889 H   0  0  0  0  0  0
  -20.9422  -29.8653   21.6617 H   0  0  0  0  0  0
  -26.0222  -38.2891   24.1341 H   0  0  0  0  0  0
  -29.5334  -17.2682   20.2890 H   0  0  0  0  0  0
  -30.4575  -20.6635   22.7615 H   0  0  0  0  0  0
  -31.1955  -20.4648   24.8747 H   0  0  0  0  0  0
  -32.2207  -19.1217   25.3073 H   0  0  0  0  0  0
  -30.4964  -19.0884   25.7207 H   0  0  0  0  0  0
  -32.1449  -15.6372   24.1479 H   0  0  0  0  0  0
  -30.7328  -16.0017   25.1621 H   0  0  0  0  0  0
  -32.1773  -16.9717   25.2403 H   0  0  0  0  0  0
  -29.8290  -24.3438   21.3849 H   0  0  0  0  0  0
  -30.1125  -24.1248   19.6865 H   0  0  0  0  0  0
  -28.0599  -22.3345   19.9974 H   0  0  0  0  0  0
  -28.5998  -22.3466   21.6451 H   0  0  0  0  0  0
  -27.3288  -24.7812   20.7836 H   0  0  0  0  0  0
  -27.8477  -24.8302   19.1054 H   0  0  0  0  0  0
  -30.9594  -21.5560   20.7173 H   0  0  0  0  0  0
  -30.1979  -21.5411   19.1876 H   0  0  0  0  0  0
  -29.7282  -15.1642   23.8802 H   0  0  0  0  0  0
  1 25  1  0  0  0
  1 30  2  0  0  0
  1 77  1  0  0  0
  2  3  1  0  0  0
  2 25  1  0  0  0
  2 86  1  0  0  0
  2 87  1  0  0  0
  3  4  1  0  0  0
  3 88  1  0  0  0
  3 89  1  0  0  0
  4  5  1  0  0  0
  4 90  1  0  0  0
  4 91  1  0  0  0
  5  6  1  0  0  0
  5 26  1  0  0  0
  5 92  1  0  0  0
  6 25  1  0  0  0
  6 93  1  0  0  0
  6 94  1  0  0  0
  7  8  2  0  0  0
  7 26  1  0  0  0
  7 29  1  0  0  0
  8  9  1  0  0  0
  8 22  1  0  0  0
  9 10  1  0  0  0
  9 27  2  0  0  0
 10 11  2  0  0  0
 10 15  1  0  0  0
 11 12  1  0  0  0
 11 95  1  0  0  0
 12 13  2  0  0  0
 12 96  1  0  0  0
 13 14  1  0  0  0
 13 31  1  0  0  0
 14 15  2  0  0  0
 14 97  1  0  0  0
 15 98  1  0  0  0
 16 17  2  0  0  0
 16 21  1  0  0  0
 16 31  1  0  0  0
 17 18  1  0  0  0
 17 99  1  0  0  0
 18 19  2  0  0  0
 18100  1  0  0  0
 19 20  1  0  0  0
 19 24  1  0  0  0
 20 21  2  0  0  0
 20101  1  0  0  0
 21 23  1  0  0  0
 22 28  1  0  0  0
 22 32  2  0  0  0
 26 27  1  0  0  0
 28102  1  0  0  0
 28103  1  0  0  0
 29104  1  0  0  0
 29105  1  0  0  0
 33 34  1  0  0  0
 33 66  1  0  0  0
 33 70  2  0  0  0
 34 36  1  0  0  0
 34 59  1  0  0  0
 34106  1  0  0  0
 35 44  2  0  0  0
 35 45  1  0  0  0
 35 68  1  0  0  0
 36 56  1  0  0  0
 36107  1  0  0  0
 37 39  1  0  0  0
 37 47  1  0  0  0
 37 66  1  0  0  0
 37108  1  0  0  0
 38 43  2  0  0  0
 38 46  1  0  0  0
 38 47  1  0  0  0
 39 64  1  0  0  0
 39 67  2  0  0  0
 40 52  1  0  0  0
 40 53  2  0  0  0
 40 58  1  0  0  0
 41109  1  0  0  0
 41110  1  0  0  0
 41111  1  0  0  0
 41 48  1  0  0  0
 42 43  1  0  0  0
 42 66  1  0  0  0
 42112  1  0  0  0
 42113  1  0  0  0
 43 44  1  0  0  0
 44114  1  0  0  0
 45 46  2  0  0  0
 45115  1  0  0  0
 46116  1  0  0  0
 47117  1  0  0  0
 47118  1  0  0  0
 48 56  1  0  0  0
 48 65  1  0  0  0
 48119  1  0  0  0
 49 50  1  0  0  0
 49 53  1  0  0  0
 49 64  1  0  0  0
 49120  1  0  0  0
 50 51  1  0  0  0
 50121  1  0  0  0
 50122  1  0  0  0
 51 52  1  0  0  0
 51123  1  0  0  0
 51124  1  0  0  0
 52125  1  0  0  0
 52126  1  0  0  0
 53 54  1  0  0  0
 54 55  2  0  0  0
 54127  1  0  0  0
 55 57  1  0  0  0
 55128  1  0  0  0
 56 69  2  0  0  0
 57 58  2  0  0  0
 57129  1  0  0  0
 58130  1  0  0  0
 59 60  1  0  0  0
 59 61  1  0  0  0
 59 62  1  0  0  0
 60131  1  0  0  0
 60132  1  0  0  0
 60133  1  0  0  0
 61134  1  0  0  0
 61135  1  0  0  0
 61136  1  0  0  0
 62137  1  0  0  0
 62138  1  0  0  0
 62139  1  0  0  0
 63 65  1  0  0  0
 63140  1  0  0  0
 63141  1  0  0  0
 63142  1  0  0  0
 64143  1  0  0  0
 65144  1  0  0  0
 68 82  1  0  0  0
 71 73  2  0  0  0
 71 76  1  0  0  0
 71145  1  0  0  0
 72 74  1  0  0  0
 72 76  2  0  0  0
 72146  1  0  0  0
 73 75  1  0  0  0
 73 77  1  0  0  0
 74 75  2  0  0  0
 74 78  1  0  0  0
 75 79  1  0  0  0
 76 85  1  0  0  0
 77 84  2  0  0  0
 78147  1  0  0  0
 78148  1  0  0  0
 78149  1  0  0  0
 79150  1  0  0  0
 79151  1  0  0  0
 79152  1  0  0  0
 80 81  1  0  0  0
 80 82  1  0  0  0
 80153  1  0  0  0
 80154  1  0  0  0
 81 83  1  0  0  0
 81155  1  0  0  0
 81156  1  0  0  0
 82157  1  0  0  0
 82158  1  0  0  0
 83 85  1  0  0  0
 83159  1  0  0  0
 83160  1  0  0  0
 84161  1  0  0  0
M  ISO  4   1 100  68 101  77 100  82 101
M  END
> <chiral flag>
0

> <version>
0

> <s_m_source_file>
/data/baiqing/PycharmProjects/Reinvent-master-3.2/result/LINK_invent/BTK/process_docking_weight1_custom_product_contain_oxygen_bond_distance_aromatic_linkinvent_7_9_3/rearranged_h_0116.sdf

> <i_m_source_file_index>
85

> <r_mmod_Potential_Energy-OPLS-2005>
235.0986328125

> <r_mmod_Stretch_Energy-OPLS-2005>
90.7592926025391

> <r_mmod_Bend_Energy-OPLS-2005>
149.655975341797

> <r_mmod_Torsional_Energy-OPLS-2005>
208.027206420898

> <r_mmod_Improper_Torsional_Energy-OPLS-2005>
4.20742845535278

> <r_mmod_Van_der_Waal_Energy-OPLS-2005>
179.193588256836

> <r_mmod_Electrostatic_Energy-OPLS-2005>
-234.913436889648

> <r_mmod_Solvation_Energy-OPLS-2005>
-195.589889526367

> <b_mmod_Minimization_Converged-OPLS-2005>
0

> <r_mmod_RMS_Derivative-OPLS-2005>
8.04562568664551

$$$$
85
                    3D
 Structure written by MMmdl.
163171  0  0  1  0            999 V2000
  -30.7048  -14.4656   20.5818 C   0  0  0  0  0  0
  -30.4213  -12.3065   19.4236 C   0  0  0  0  0  0
  -29.4934  -12.5060   18.2079 C   0  0  0  0  0  0
  -28.0149  -12.3649   18.6202 C   0  0  0  0  0  0
  -27.6613  -13.2058   19.8763 C   0  0  2  0  0  0
  -28.7016  -12.9903   20.9990 C   0  0  0  0  0  0
  -25.2583  -13.8161   20.5676 C   0  0  0  0  0  0
  -24.1837  -13.0438   20.9166 C   0  0  0  0  0  0
  -24.6386  -11.6905   20.8735 C   0  0  0  0  0  0
  -23.9056  -10.4291   21.0404 C   0  0  0  0  0  0
  -24.3614   -9.4207   21.9179 C   0  0  0  0  0  0
  -23.6289   -8.2241   22.0750 C   0  0  0  0  0  0
  -22.4272   -8.0281   21.3539 C   0  0  0  0  0  0
  -21.9903   -9.0256   20.4649 C   0  0  0  0  0  0
  -22.7229  -10.2134   20.3055 C   0  0  0  0  0  0
  -21.6857   -6.0733   22.5273 C   0  0  0  0  0  0
  -21.4019   -6.5638   23.8210 C   0  0  0  0  0  0
  -21.3659   -5.6790   24.9169 C   0  0  0  0  0  0
  -21.6043   -4.3053   24.7221 C   0  0  0  0  0  0
  -21.8820   -3.8145   23.4344 C   0  0  0  0  0  0
  -21.9195   -4.6959   22.3402 C   0  0  0  0  0  0
  -22.7860  -13.5235   21.1838 C   0  0  0  0  0  0
  -22.1662   -4.2147   21.0977 F   0  0  0  0  0  0
  -21.5626   -3.4539   25.7734 F   0  0  0  0  0  0
  -30.0329  -13.2912   20.4447 N   0  0  0  0  0  0
  -26.3023  -12.9329   20.3374 N   0  0  0  0  0  0
  -25.9314  -11.6485   20.5773 N   0  0  0  0  0  0
  -22.0514  -12.8227   22.0401 N   0  0  0  0  0  0
  -25.4303  -15.1878   20.4067 N   0  0  0  0  0  0
  -31.8276  -14.6571   20.1059 O   0  0  0  0  0  0
  -21.6640   -6.8877   21.4234 O   0  0  0  0  0  0
  -22.3542  -14.5540   20.6691 O   0  0  0  0  0  0
  -24.6132  -31.8684   23.2110 C   0  0  0  0  0  0
  -25.9036  -32.4820   23.8403 C   0  0  1  0  0  0
  -27.2341  -27.4469   20.0975 C   0  0  0  0  0  0
  -25.5893  -33.8617   24.2345 N   0  0  0  0  0  0
  -23.4027  -30.4912   21.5483 C   0  0  2  0  0  0
  -24.8529  -28.9616   20.1093 C   0  0  0  0  0  0
  -22.7408  -29.4657   22.4967 C   0  0  0  0  0  0
  -18.0275  -28.1389   22.8482 C   0  0  0  0  0  0
  -24.1492  -36.7321   23.2637 C   0  0  0  0  0  0
  -25.9296  -30.8393   21.3619 C   0  0  0  0  0  0
  -26.0104  -29.4735   20.7117 C   0  0  0  0  0  0
  -27.2069  -28.7205   20.7089 C   0  0  0  0  0  0
  -26.0683  -26.9479   19.4851 C   0  0  0  0  0  0
  -24.8764  -27.6977   19.4911 C   0  0  0  0  0  0
  -23.6125  -29.8247   20.1616 C   0  0  0  0  0  0
  -25.4111  -36.3117   24.0345 C   0  0  1  0  0  0
  -20.5859  -28.3681   23.1313 C   0  0  2  0  0  0
  -20.6772  -26.9409   22.5430 C   0  0  0  0  0  0
  -19.5760  -26.6395   21.5215 C   0  0  0  0  0  0
  -18.1925  -26.7933   22.1605 C   0  0  0  0  0  0
  -19.1522  -28.8848   23.2896 C   0  0  0  0  0  0
  -18.9445  -30.1450   23.8914 C   0  0  0  0  0  0
  -17.6447  -30.6585   24.0564 C   0  0  0  0  0  0
  -25.9028  -34.9475   23.5140 C   0  0  0  0  0  0
  -16.5344  -29.9091   23.6321 C   0  0  0  0  0  0
  -16.7264  -28.6516   23.0339 C   0  0  0  0  0  0
  -26.4483  -31.6585   25.0718 C   0  0  0  0  0  0
  -25.3777  -31.3687   26.1494 C   0  0  0  0  0  0
  -27.0280  -30.3015   24.6083 C   0  0  0  0  0  0
  -27.6120  -32.4274   25.7426 C   0  0  0  0  0  0
  -27.5581  -37.1807   24.8467 C   0  0  0  0  0  0
  -21.4135  -29.3040   22.3715 N   0  0  0  0  0  0
  -26.4301  -37.3793   23.9402 N   0  0  0  0  0  0
  -24.6665  -31.0799   22.0997 N   0  0  0  0  0  0
  -23.4182  -28.8200   23.3012 O   0  0  0  0  0  0
  -28.3547  -26.6512   20.1296 O   0  0  0  0  0  0
  -26.5588  -34.8920   22.4699 O   0  0  0  0  0  0
  -23.5331  -32.1422   23.7517 O   0  0  0  0  0  0
  -28.4887  -18.1527   24.3358 C   0  0  0  0  0  0
  -29.2671  -19.0372   21.7933 C   0  0  0  0  0  0
  -29.3060  -17.3151   23.5472 C   0  0  0  0  0  0
  -29.6565  -17.7397   22.2346 C   0  0  0  0  0  0
  -28.0666  -19.4106   23.8764 C   0  0  0  0  0  0
  -28.4865  -19.8919   22.6170 C   0  0  0  0  0  0
  -29.1407  -15.3250   25.0770 C   0  0  0  0  0  0
  -29.7489  -16.0173   24.0990 C   0  0  0  0  0  0
  -28.8532  -24.3949   21.0497 C   0  0  0  0  0  0
  -28.0711  -23.3066   21.2223 C   0  0  0  0  0  0
  -25.9331  -20.2993   24.2610 C   0  0  0  0  0  0
  -30.4939  -16.8513   21.2987 C   0  0  0  0  0  0
  -28.3966  -25.8306   21.3055 C   0  0  0  0  0  0
  -28.4934  -21.8423   21.1118 C   0  0  0  0  0  0
  -30.0165  -15.4685   21.1534 N   0  0  0  0  0  0
  -27.2790  -20.1704   24.7036 O   0  0  0  0  0  0
  -28.1024  -21.1866   22.3142 O   0  0  0  0  0  0
  -31.4657  -12.4048   19.1237 H   0  0  0  0  0  0
  -30.3210  -11.2959   19.8219 H   0  0  0  0  0  0
  -29.7340  -11.7846   17.4259 H   0  0  0  0  0  0
  -29.6598  -13.4939   17.7747 H   0  0  0  0  0  0
  -27.8258  -11.3091   18.8169 H   0  0  0  0  0  0
  -27.3645  -12.6397   17.7890 H   0  0  0  0  0  0
  -27.7053  -14.2537   19.5774 H   0  0  0  0  0  0
  -28.6757  -11.9574   21.3491 H   0  0  0  0  0  0
  -28.4625  -13.5986   21.8729 H   0  0  0  0  0  0
  -25.2765   -9.5682   22.4747 H   0  0  0  0  0  0
  -24.0008   -7.4630   22.7468 H   0  0  0  0  0  0
  -21.0834   -8.8771   19.8960 H   0  0  0  0  0  0
  -22.3688  -10.9670   19.6165 H   0  0  0  0  0  0
  -21.2017   -7.6147   23.9710 H   0  0  0  0  0  0
  -21.1479   -6.0522   25.9072 H   0  0  0  0  0  0
  -22.0603   -2.7607   23.2844 H   0  0  0  0  0  0
  -22.4147  -11.9891   22.4780 H   0  0  0  0  0  0
  -21.1133  -13.1247   22.2624 H   0  0  0  0  0  0
  -24.6636  -15.8434   20.5113 H   0  0  0  0  0  0
  -26.2872  -15.6274   20.0962 H   0  0  0  0  0  0
  -26.7112  -32.5552   23.1177 H   0  0  0  0  0  0
  -25.0107  -33.9800   25.0531 H   0  0  0  0  0  0
  -22.6913  -31.3073   21.4079 H   0  0  0  0  0  0
  -23.3762  -35.9639   23.3292 H   0  0  0  0  0  0
  -24.3594  -36.8951   22.2052 H   0  0  0  0  0  0
  -23.7236  -37.6521   23.6661 H   0  0  0  0  0  0
  -26.0371  -31.6057   20.5921 H   0  0  0  0  0  0
  -26.8187  -30.8970   21.9776 H   0  0  0  0  0  0
  -28.0986  -29.1028   21.1863 H   0  0  0  0  0  0
  -26.0818  -25.9716   19.0193 H   0  0  0  0  0  0
  -23.9879  -27.2984   19.0223 H   0  0  0  0  0  0
  -23.7155  -30.6006   19.4020 H   0  0  0  0  0  0
  -22.7381  -29.2419   19.8672 H   0  0  0  0  0  0
  -25.1279  -36.1992   25.0840 H   0  0  0  0  0  0
  -20.9950  -28.3261   24.1434 H   0  0  0  0  0  0
  -20.5685  -26.2279   23.3624 H   0  0  0  0  0  0
  -21.6643  -26.7466   22.1214 H   0  0  0  0  0  0
  -19.6933  -25.6315   21.1242 H   0  0  0  0  0  0
  -19.6714  -27.3214   20.6756 H   0  0  0  0  0  0
  -17.4205  -26.6697   21.3995 H   0  0  0  0  0  0
  -18.0309  -26.0072   22.8995 H   0  0  0  0  0  0
  -19.7925  -30.7256   24.2297 H   0  0  0  0  0  0
  -17.5007  -31.6260   24.5174 H   0  0  0  0  0  0
  -15.5351  -30.2997   23.7646 H   0  0  0  0  0  0
  -15.8664  -28.0849   22.7041 H   0  0  0  0  0  0
  -24.5958  -30.7011   25.7855 H   0  0  0  0  0  0
  -24.8952  -32.2829   26.4960 H   0  0  0  0  0  0
  -25.8160  -30.8862   27.0238 H   0  0  0  0  0  0
  -26.2784  -29.6754   24.1228 H   0  0  0  0  0  0
  -27.4134  -29.7276   25.4518 H   0  0  0  0  0  0
  -27.8590  -30.4307   23.9147 H   0  0  0  0  0  0
  -27.2840  -33.3624   26.1974 H   0  0  0  0  0  0
  -28.3920  -32.6735   25.0207 H   0  0  0  0  0  0
  -28.0785  -31.8386   26.5335 H   0  0  0  0  0  0
  -28.2634  -38.0069   24.7481 H   0  0  0  0  0  0
  -28.1041  -36.2605   24.6332 H   0  0  0  0  0  0
  -27.2291  -37.1514   25.8868 H   0  0  0  0  0  0
  -20.9301  -29.8740   21.6913 H   0  0  0  0  0  0
  -26.0201  -38.2877   24.1395 H   0  0  0  0  0  0
  -28.1891  -17.8496   25.3279 H   0  0  0  0  0  0
  -29.5839  -19.3751   20.8171 H   0  0  0  0  0  0
  -29.5547  -14.3899   25.4264 H   0  0  0  0  0  0
  -28.2278  -15.6618   25.5462 H   0  0  0  0  0  0
  -30.6626  -15.6042   23.6961 H   0  0  0  0  0  0
  -29.8844  -24.2735   20.7490 H   0  0  0  0  0  0
  -27.0355  -23.4545   21.4965 H   0  0  0  0  0  0
  -25.3365  -20.7773   25.0382 H   0  0  0  0  0  0
  -25.4877  -19.3241   24.0579 H   0  0  0  0  0  0
  -25.8496  -20.9109   23.3626 H   0  0  0  0  0  0
  -31.5183  -16.8432   21.6743 H   0  0  0  0  0  0
  -30.5402  -17.3023   20.3061 H   0  0  0  0  0  0
  -29.0852  -26.2864   22.0187 H   0  0  0  0  0  0
  -27.4282  -25.7924   21.8101 H   0  0  0  0  0  0
  -29.5691  -21.7733   20.9497 H   0  0  0  0  0  0
  -27.9847  -21.3840   20.2622 H   0  0  0  0  0  0
  -29.0886  -15.2619   21.4893 H   0  0  0  0  0  0
  1 25  1  0  0  0
  1 30  2  0  0  0
  1 85  1  0  0  0
  2  3  1  0  0  0
  2 25  1  0  0  0
  2 88  1  0  0  0
  2 89  1  0  0  0
  3  4  1  0  0  0
  3 90  1  0  0  0
  3 91  1  0  0  0
  4  5  1  0  0  0
  4 92  1  0  0  0
  4 93  1  0  0  0
  5  6  1  0  0  0
  5 26  1  0  0  0
  5 94  1  0  0  0
  6 25  1  0  0  0
  6 95  1  0  0  0
  6 96  1  0  0  0
  7  8  2  0  0  0
  7 26  1  0  0  0
  7 29  1  0  0  0
  8  9  1  0  0  0
  8 22  1  0  0  0
  9 10  1  0  0  0
  9 27  2  0  0  0
 10 11  2  0  0  0
 10 15  1  0  0  0
 11 12  1  0  0  0
 11 97  1  0  0  0
 12 13  2  0  0  0
 12 98  1  0  0  0
 13 14  1  0  0  0
 13 31  1  0  0  0
 14 15  2  0  0  0
 14 99  1  0  0  0
 15100  1  0  0  0
 16 17  2  0  0  0
 16 21  1  0  0  0
 16 31  1  0  0  0
 17 18  1  0  0  0
 17101  1  0  0  0
 18 19  2  0  0  0
 18102  1  0  0  0
 19 20  1  0  0  0
 19 24  1  0  0  0
 20 21  2  0  0  0
 20103  1  0  0  0
 21 23  1  0  0  0
 22 28  1  0  0  0
 22 32  2  0  0  0
 26 27  1  0  0  0
 28104  1  0  0  0
 28105  1  0  0  0
 29106  1  0  0  0
 29107  1  0  0  0
 33 34  1  0  0  0
 33 66  1  0  0  0
 33 70  2  0  0  0
 34 36  1  0  0  0
 34 59  1  0  0  0
 34108  1  0  0  0
 35 44  2  0  0  0
 35 45  1  0  0  0
 35 68  1  0  0  0
 36 56  1  0  0  0
 36109  1  0  0  0
 37 39  1  0  0  0
 37 47  1  0  0  0
 37 66  1  0  0  0
 37110  1  0  0  0
 38 43  2  0  0  0
 38 46  1  0  0  0
 38 47  1  0  0  0
 39 64  1  0  0  0
 39 67  2  0  0  0
 40 52  1  0  0  0
 40 53  2  0  0  0
 40 58  1  0  0  0
 41111  1  0  0  0
 41112  1  0  0  0
 41113  1  0  0  0
 41 48  1  0  0  0
 42 43  1  0  0  0
 42 66  1  0  0  0
 42114  1  0  0  0
 42115  1  0  0  0
 43 44  1  0  0  0
 44116  1  0  0  0
 45 46  2  0  0  0
 45117  1  0  0  0
 46118  1  0  0  0
 47119  1  0  0  0
 47120  1  0  0  0
 48 56  1  0  0  0
 48 65  1  0  0  0
 48121  1  0  0  0
 49 50  1  0  0  0
 49 53  1  0  0  0
 49 64  1  0  0  0
 49122  1  0  0  0
 50 51  1  0  0  0
 50123  1  0  0  0
 50124  1  0  0  0
 51 52  1  0  0  0
 51125  1  0  0  0
 51126  1  0  0  0
 52127  1  0  0  0
 52128  1  0  0  0
 53 54  1  0  0  0
 54 55  2  0  0  0
 54129  1  0  0  0
 55 57  1  0  0  0
 55130  1  0  0  0
 56 69  2  0  0  0
 57 58  2  0  0  0
 57131  1  0  0  0
 58132  1  0  0  0
 59 60  1  0  0  0
 59 61  1  0  0  0
 59 62  1  0  0  0
 60133  1  0  0  0
 60134  1  0  0  0
 60135  1  0  0  0
 61136  1  0  0  0
 61137  1  0  0  0
 61138  1  0  0  0
 62139  1  0  0  0
 62140  1  0  0  0
 62141  1  0  0  0
 63 65  1  0  0  0
 63142  1  0  0  0
 63143  1  0  0  0
 63144  1  0  0  0
 64145  1  0  0  0
 65146  1  0  0  0
 68 83  1  0  0  0
 71 73  2  0  0  0
 71 75  1  0  0  0
 71147  1  0  0  0
 72 74  2  0  0  0
 72 76  1  0  0  0
 72148  1  0  0  0
 73 74  1  0  0  0
 73 78  1  0  0  0
 74 82  1  0  0  0
 75 76  2  0  0  0
 75 86  1  0  0  0
 76 87  1  0  0  0
 77 78  2  0  0  0
 77149  1  0  0  0
 77150  1  0  0  0
 78151  1  0  0  0
 79 80  2  0  0  0
 79 83  1  0  0  0
 79152  1  0  0  0
 80 84  1  0  0  0
 80153  1  0  0  0
 81 86  1  0  0  0
 81154  1  0  0  0
 81155  1  0  0  0
 81156  1  0  0  0
 82 85  1  0  0  0
 82157  1  0  0  0
 82158  1  0  0  0
 83159  1  0  0  0
 83160  1  0  0  0
 84 87  1  0  0  0
 84161  1  0  0  0
 84162  1  0  0  0
 85163  1  0  0  0
M  ISO  4   1 100  68 101  83 101  85 100
M  END
> <chiral flag>
0

> <version>
0

> <s_m_source_file>
/data/baiqing/PycharmProjects/Reinvent-master-3.2/result/LINK_invent/BTK/process_docking_weight1_custom_product_contain_oxygen_bond_distance_aromatic_linkinvent_7_9_3/rearranged_h_0116.sdf

> <i_m_source_file_index>
86

> <r_mmod_Potential_Energy-OPLS-2005>
-63.0401191711426

> <r_mmod_Stretch_Energy-OPLS-2005>
38.5475006103516

> <r_mmod_Bend_Energy-OPLS-2005>
105.951812744141

> <r_mmod_Torsional_Energy-OPLS-2005>
253.636474609375

> <r_mmod_Improper_Torsional_Energy-OPLS-2005>
3.57297515869141

> <r_mmod_Van_der_Waal_Energy-OPLS-2005>
153.661972045898

> <r_mmod_Electrostatic_Energy-OPLS-2005>
-422.925628662109

> <r_mmod_Solvation_Energy-OPLS-2005>
-208.450897216797

> <b_mmod_Minimization_Converged-OPLS-2005>
0

> <r_mmod_RMS_Derivative-OPLS-2005>
1.59301316738129

$$$$
86
                    3D
 Structure written by MMmdl.
176185  0  0  1  0            999 V2000
  -30.6204  -14.6331   20.4851 C   0  0  0  0  0  0
  -30.4426  -12.3794   19.4601 C   0  0  0  0  0  0
  -29.5155  -12.4888   18.2284 C   0  0  0  0  0  0
  -28.0323  -12.3510   18.6309 C   0  0  0  0  0  0
  -27.6562  -13.2128   19.8665 C   0  0  2  0  0  0
  -28.7012  -13.0602   20.9955 C   0  0  0  0  0  0
  -25.2591  -13.8165   20.5689 C   0  0  0  0  0  0
  -24.1852  -13.0428   20.9181 C   0  0  0  0  0  0
  -24.6410  -11.6899   20.8720 C   0  0  0  0  0  0
  -23.9077  -10.4280   21.0376 C   0  0  0  0  0  0
  -24.3629   -9.4204   21.9161 C   0  0  0  0  0  0
  -23.6308   -8.2236   22.0744 C   0  0  0  0  0  0
  -22.4287   -8.0269   21.3536 C   0  0  0  0  0  0
  -21.9919   -9.0236   20.4635 C   0  0  0  0  0  0
  -22.7243  -10.2116   20.3040 C   0  0  0  0  0  0
  -21.6866   -6.0728   22.5277 C   0  0  0  0  0  0
  -21.4015   -6.5631   23.8206 C   0  0  0  0  0  0
  -21.3662   -5.6788   24.9170 C   0  0  0  0  0  0
  -21.6055   -4.3053   24.7223 C   0  0  0  0  0  0
  -21.8824   -3.8142   23.4344 C   0  0  0  0  0  0
  -21.9193   -4.6955   22.3396 C   0  0  0  0  0  0
  -22.7869  -13.5216   21.1836 C   0  0  0  0  0  0
  -22.1665   -4.2140   21.0974 F   0  0  0  0  0  0
  -21.5631   -3.4537   25.7733 F   0  0  0  0  0  0
  -30.0187  -13.4023   20.4360 N   0  0  0  0  0  0
  -26.3019  -12.9333   20.3340 N   0  0  0  0  0  0
  -25.9342  -11.6491   20.5759 N   0  0  0  0  0  0
  -22.0518  -12.8193   22.0393 N   0  0  0  0  0  0
  -25.4309  -15.1887   20.4100 N   0  0  0  0  0  0
  -31.7707  -14.8063   20.0744 O   0  0  0  0  0  0
  -21.6652   -6.8867   21.4234 O   0  0  0  0  0  0
  -22.3536  -14.5507   20.6671 O   0  0  0  0  0  0
  -24.6255  -31.8596   23.2046 C   0  0  0  0  0  0
  -25.9114  -32.4775   23.8359 C   0  0  1  0  0  0
  -27.2179  -27.3210   20.1096 C   0  0  0  0  0  0
  -25.5924  -33.8574   24.2282 N   0  0  0  0  0  0
  -23.4182  -30.4866   21.5455 C   0  0  2  0  0  0
  -24.8629  -28.9426   20.1114 C   0  0  0  0  0  0
  -22.7461  -29.4642   22.4929 C   0  0  0  0  0  0
  -18.0282  -28.1386   22.8471 C   0  0  0  0  0  0
  -24.1495  -36.7308   23.2636 C   0  0  0  0  0  0
  -25.9598  -30.7892   21.3773 C   0  0  0  0  0  0
  -26.0326  -29.4167   20.7211 C   0  0  0  0  0  0
  -27.2128  -28.6156   20.7155 C   0  0  0  0  0  0
  -26.0320  -26.9136   19.4569 C   0  0  0  0  0  0
  -24.8652  -27.6962   19.4700 C   0  0  0  0  0  0
  -23.6314  -29.8223   20.1612 C   0  0  0  0  0  0
  -25.4122  -36.3089   24.0322 C   0  0  1  0  0  0
  -20.5877  -28.3703   23.1272 C   0  0  2  0  0  0
  -20.6774  -26.9427   22.5405 C   0  0  0  0  0  0
  -19.5761  -26.6388   21.5198 C   0  0  0  0  0  0
  -18.1938  -26.7932   22.1607 C   0  0  0  0  0  0
  -19.1531  -28.8858   23.2867 C   0  0  0  0  0  0
  -18.9455  -30.1457   23.8894 C   0  0  0  0  0  0
  -17.6459  -30.6586   24.0563 C   0  0  0  0  0  0
  -25.9048  -34.9449   23.5101 C   0  0  0  0  0  0
  -16.5352  -29.9086   23.6332 C   0  0  0  0  0  0
  -16.7270  -28.6503   23.0347 C   0  0  0  0  0  0
  -26.4495  -31.6578   25.0727 C   0  0  0  0  0  0
  -25.3734  -31.3701   26.1456 C   0  0  0  0  0  0
  -27.0325  -30.2999   24.6179 C   0  0  0  0  0  0
  -27.6058  -32.4301   25.7507 C   0  0  0  0  0  0
  -27.5586  -37.1817   24.8459 C   0  0  0  0  0  0
  -21.4172  -29.3065   22.3671 N   0  0  0  0  0  0
  -26.4303  -37.3782   23.9397 N   0  0  0  0  0  0
  -24.6865  -31.0616   22.0986 N   0  0  0  0  0  0
  -23.4188  -28.8174   23.3000 O   0  0  0  0  0  0
  -28.3282  -26.4641   20.1322 O   0  0  0  0  0  0
  -26.5622  -34.8914   22.4673 O   0  0  0  0  0  0
  -23.5426  -32.1382   23.7388 O   0  0  0  0  0  0
  -29.3369  -18.9437   18.9396 C   0  0  0  0  0  0
  -29.9414  -19.4844   21.1885 C   0  0  0  0  0  0
  -29.4621  -17.5447   19.1971 C   0  0  0  0  0  0
  -29.5775  -19.9601   19.9041 C   0  0  0  0  0  0
  -29.8453  -17.0891   20.4956 C   0  0  0  0  0  0
  -30.0750  -18.0838   21.4908 C   0  0  0  0  0  0
  -30.3167  -24.4268   19.5308 C   0  0  0  0  0  0
  -29.1728  -23.9692   20.0871 C   0  0  0  0  0  0
  -31.4823  -23.6013   19.1884 C   0  0  0  0  0  0
  -29.0375  -16.8624   16.7969 C   0  0  0  0  0  0
  -29.1879  -16.5833   18.1048 C   0  0  0  0  0  0
  -31.3231  -22.3976   18.2589 C   0  0  0  0  0  0
  -29.9218  -21.7732   18.2375 C   0  0  0  0  0  0
  -28.9351  -22.4390   20.4791 C   0  0  1  0  0  0
  -27.4499  -22.1266   20.7491 C   0  0  0  0  0  0
  -31.8728  -18.7980   26.0336 C   0  0  0  0  0  0
  -28.0728  -25.0328   20.4403 C   0  0  0  0  0  0
  -31.3503  -17.8376   24.9578 C   0  0  0  0  0  0
  -30.8717  -18.5729   23.7035 C   0  0  0  0  0  0
  -29.4746  -21.3673   19.5732 N   0  0  0  0  0  0
  -29.8261  -15.6741   20.8740 N   0  0  0  0  0  0
  -32.6131  -23.8850   19.5904 O   0  0  0  0  0  0
  -30.4224  -17.6225   22.7448 O   0  0  0  0  0  0
  -31.4845  -12.5038   19.1608 H   0  0  0  0  0  0
  -30.3781  -11.3843   19.9029 H   0  0  0  0  0  0
  -29.7743  -11.7194   17.4993 H   0  0  0  0  0  0
  -29.6818  -13.4430   17.7271 H   0  0  0  0  0  0
  -27.8491  -11.2975   18.8453 H   0  0  0  0  0  0
  -27.3898  -12.6013   17.7857 H   0  0  0  0  0  0
  -27.6707  -14.2504   19.5389 H   0  0  0  0  0  0
  -28.7098  -12.0355   21.3708 H   0  0  0  0  0  0
  -28.4476  -13.6843   21.8530 H   0  0  0  0  0  0
  -25.2770   -9.5681   22.4730 H   0  0  0  0  0  0
  -24.0014   -7.4637   22.7474 H   0  0  0  0  0  0
  -21.0846   -8.8745   19.8947 H   0  0  0  0  0  0
  -22.3694  -10.9644   19.6146 H   0  0  0  0  0  0
  -21.2007   -7.6139   23.9700 H   0  0  0  0  0  0
  -21.1491   -6.0519   25.9068 H   0  0  0  0  0  0
  -22.0602   -2.7603   23.2848 H   0  0  0  0  0  0
  -22.4165  -11.9878   22.4796 H   0  0  0  0  0  0
  -21.1117  -13.1184   22.2575 H   0  0  0  0  0  0
  -24.6663  -15.8446   20.5256 H   0  0  0  0  0  0
  -26.2767  -15.6277   20.0693 H   0  0  0  0  0  0
  -26.7177  -32.5441   23.1100 H   0  0  0  0  0  0
  -25.0053  -33.9713   25.0415 H   0  0  0  0  0  0
  -22.7119  -31.3068   21.4034 H   0  0  0  0  0  0
  -23.3747  -35.9649   23.3297 H   0  0  0  0  0  0
  -24.3592  -36.8936   22.2052 H   0  0  0  0  0  0
  -23.7259  -37.6514   23.6659 H   0  0  0  0  0  0
  -26.0876  -31.5507   20.6068 H   0  0  0  0  0  0
  -26.8418  -30.8387   22.0044 H   0  0  0  0  0  0
  -28.1084  -28.9681   21.2079 H   0  0  0  0  0  0
  -25.9816  -25.9828   18.9126 H   0  0  0  0  0  0
  -23.9757  -27.3369   18.9694 H   0  0  0  0  0  0
  -23.7455  -30.5960   19.4011 H   0  0  0  0  0  0
  -22.7507  -29.2488   19.8654 H   0  0  0  0  0  0
  -25.1307  -36.1942   25.0816 H   0  0  0  0  0  0
  -20.9961  -28.3283   24.1395 H   0  0  0  0  0  0
  -20.5666  -26.2316   23.3604 H   0  0  0  0  0  0
  -21.6648  -26.7450   22.1215 H   0  0  0  0  0  0
  -19.6932  -25.6295   21.1241 H   0  0  0  0  0  0
  -19.6708  -27.3183   20.6721 H   0  0  0  0  0  0
  -17.4207  -26.6661   21.4014 H   0  0  0  0  0  0
  -18.0354  -26.0073   22.9005 H   0  0  0  0  0  0
  -19.7932  -30.7271   24.2266 H   0  0  0  0  0  0
  -17.5016  -31.6271   24.5163 H   0  0  0  0  0  0
  -15.5354  -30.2990   23.7664 H   0  0  0  0  0  0
  -15.8668  -28.0832   22.7061 H   0  0  0  0  0  0
  -24.5933  -30.7011   25.7799 H   0  0  0  0  0  0
  -24.8885  -32.2841   26.4885 H   0  0  0  0  0  0
  -25.8072  -30.8896   27.0229 H   0  0  0  0  0  0
  -26.2880  -29.6763   24.1204 H   0  0  0  0  0  0
  -27.4003  -29.7255   25.4692 H   0  0  0  0  0  0
  -27.8764  -30.4280   23.9398 H   0  0  0  0  0  0
  -27.2674  -33.3597   26.2097 H   0  0  0  0  0  0
  -28.3874  -32.6861   25.0342 H   0  0  0  0  0  0
  -28.0708  -31.8402   26.5419 H   0  0  0  0  0  0
  -28.2604  -38.0116   24.7505 H   0  0  0  0  0  0
  -28.1080  -36.2643   24.6283 H   0  0  0  0  0  0
  -27.2291  -37.1466   25.8859 H   0  0  0  0  0  0
  -20.9339  -29.8810   21.6903 H   0  0  0  0  0  0
  -26.0180  -38.2855   24.1394 H   0  0  0  0  0  0
  -28.9895  -19.2423   17.9669 H   0  0  0  0  0  0
  -30.1268  -20.2287   21.9455 H   0  0  0  0  0  0
  -30.4277  -25.4827   19.3387 H   0  0  0  0  0  0
  -28.8290  -16.0693   16.0921 H   0  0  0  0  0  0
  -29.1181  -17.8593   16.3909 H   0  0  0  0  0  0
  -29.0873  -15.5484   18.3809 H   0  0  0  0  0  0
  -32.0531  -21.6435   18.5537 H   0  0  0  0  0  0
  -31.5931  -22.7106   17.2500 H   0  0  0  0  0  0
  -29.9480  -20.9552   17.5214 H   0  0  0  0  0  0
  -29.2021  -22.4808   17.8213 H   0  0  0  0  0  0
  -29.4510  -22.3304   21.4333 H   0  0  0  0  0  0
  -26.8555  -22.2089   19.8385 H   0  0  0  0  0  0
  -27.0157  -22.7869   21.4990 H   0  0  0  0  0  0
  -27.3162  -21.1127   21.1292 H   0  0  0  0  0  0
  -32.1702  -18.2547   26.9307 H   0  0  0  0  0  0
  -31.1094  -19.5210   26.3227 H   0  0  0  0  0  0
  -32.7417  -19.3543   25.6792 H   0  0  0  0  0  0
  -27.9026  -24.9763   21.5157 H   0  0  0  0  0  0
  -27.1596  -24.6735   19.9754 H   0  0  0  0  0  0
  -30.5297  -17.2455   25.3640 H   0  0  0  0  0  0
  -32.1377  -17.1330   24.6877 H   0  0  0  0  0  0
  -31.6949  -19.1581   23.2893 H   0  0  0  0  0  0
  -30.0649  -19.2591   23.9672 H   0  0  0  0  0  0
  -28.9856  -15.3804   21.3453 H   0  0  0  0  0  0
  1 25  1  0  0  0
  1 30  2  0  0  0
  1 91  1  0  0  0
  2  3  1  0  0  0
  2 25  1  0  0  0
  2 94  1  0  0  0
  2 95  1  0  0  0
  3  4  1  0  0  0
  3 96  1  0  0  0
  3 97  1  0  0  0
  4  5  1  0  0  0
  4 98  1  0  0  0
  4 99  1  0  0  0
  5  6  1  0  0  0
  5 26  1  0  0  0
  5100  1  0  0  0
  6 25  1  0  0  0
  6101  1  0  0  0
  6102  1  0  0  0
  7  8  2  0  0  0
  7 26  1  0  0  0
  7 29  1  0  0  0
  8  9  1  0  0  0
  8 22  1  0  0  0
  9 10  1  0  0  0
  9 27  2  0  0  0
 10 11  2  0  0  0
 10 15  1  0  0  0
 11 12  1  0  0  0
 11103  1  0  0  0
 12 13  2  0  0  0
 12104  1  0  0  0
 13 14  1  0  0  0
 13 31  1  0  0  0
 14 15  2  0  0  0
 14105  1  0  0  0
 15106  1  0  0  0
 16 17  2  0  0  0
 16 21  1  0  0  0
 16 31  1  0  0  0
 17 18  1  0  0  0
 17107  1  0  0  0
 18 19  2  0  0  0
 18108  1  0  0  0
 19 20  1  0  0  0
 19 24  1  0  0  0
 20 21  2  0  0  0
 20109  1  0  0  0
 21 23  1  0  0  0
 22 28  1  0  0  0
 22 32  2  0  0  0
 26 27  1  0  0  0
 28110  1  0  0  0
 28111  1  0  0  0
 29112  1  0  0  0
 29113  1  0  0  0
 33 34  1  0  0  0
 33 66  1  0  0  0
 33 70  2  0  0  0
 34 36  1  0  0  0
 34 59  1  0  0  0
 34114  1  0  0  0
 35 44  2  0  0  0
 35 45  1  0  0  0
 35 68  1  0  0  0
 36 56  1  0  0  0
 36115  1  0  0  0
 37 39  1  0  0  0
 37 47  1  0  0  0
 37 66  1  0  0  0
 37116  1  0  0  0
 38 43  2  0  0  0
 38 46  1  0  0  0
 38 47  1  0  0  0
 39 64  1  0  0  0
 39 67  2  0  0  0
 40 52  1  0  0  0
 40 53  2  0  0  0
 40 58  1  0  0  0
 41117  1  0  0  0
 41118  1  0  0  0
 41119  1  0  0  0
 41 48  1  0  0  0
 42 43  1  0  0  0
 42 66  1  0  0  0
 42120  1  0  0  0
 42121  1  0  0  0
 43 44  1  0  0  0
 44122  1  0  0  0
 45 46  2  0  0  0
 45123  1  0  0  0
 46124  1  0  0  0
 47125  1  0  0  0
 47126  1  0  0  0
 48 56  1  0  0  0
 48 65  1  0  0  0
 48127  1  0  0  0
 49 50  1  0  0  0
 49 53  1  0  0  0
 49 64  1  0  0  0
 49128  1  0  0  0
 50 51  1  0  0  0
 50129  1  0  0  0
 50130  1  0  0  0
 51 52  1  0  0  0
 51131  1  0  0  0
 51132  1  0  0  0
 52133  1  0  0  0
 52134  1  0  0  0
 53 54  1  0  0  0
 54 55  2  0  0  0
 54135  1  0  0  0
 55 57  1  0  0  0
 55136  1  0  0  0
 56 69  2  0  0  0
 57 58  2  0  0  0
 57137  1  0  0  0
 58138  1  0  0  0
 59 60  1  0  0  0
 59 61  1  0  0  0
 59 62  1  0  0  0
 60139  1  0  0  0
 60140  1  0  0  0
 60141  1  0  0  0
 61142  1  0  0  0
 61143  1  0  0  0
 61144  1  0  0  0
 62145  1  0  0  0
 62146  1  0  0  0
 62147  1  0  0  0
 63 65  1  0  0  0
 63148  1  0  0  0
 63149  1  0  0  0
 63150  1  0  0  0
 64151  1  0  0  0
 65152  1  0  0  0
 68 87  1  0  0  0
 71 73  2  0  0  0
 71 74  1  0  0  0
 71153  1  0  0  0
 72 74  2  0  0  0
 72 76  1  0  0  0
 72154  1  0  0  0
 73 75  1  0  0  0
 73 81  1  0  0  0
 74 90  1  0  0  0
 75 76  2  0  0  0
 75 91  1  0  0  0
 76 93  1  0  0  0
 77 78  2  0  0  0
 77 79  1  0  0  0
 77155  1  0  0  0
 78 84  1  0  0  0
 78 87  1  0  0  0
 79 82  1  0  0  0
 79 92  2  0  0  0
 80 81  2  0  0  0
 80156  1  0  0  0
 80157  1  0  0  0
 81158  1  0  0  0
 82 83  1  0  0  0
 82159  1  0  0  0
 82160  1  0  0  0
 83 90  1  0  0  0
 83161  1  0  0  0
 83162  1  0  0  0
 84 85  1  0  0  0
 84 90  1  0  0  0
 84163  1  0  0  0
 85164  1  0  0  0
 85165  1  0  0  0
 85166  1  0  0  0
 86 88  1  0  0  0
 86167  1  0  0  0
 86168  1  0  0  0
 86169  1  0  0  0
 87170  1  0  0  0
 87171  1  0  0  0
 88 89  1  0  0  0
 88172  1  0  0  0
 88173  1  0  0  0
 89 93  1  0  0  0
 89174  1  0  0  0
 89175  1  0  0  0
 91176  1  0  0  0
M  ISO  4   1 100  68 101  87 101  91 100
M  END
> <chiral flag>
0

> <version>
0

> <s_m_source_file>
/data/baiqing/PycharmProjects/Reinvent-master-3.2/result/LINK_invent/BTK/process_docking_weight1_custom_product_contain_oxygen_bond_distance_aromatic_linkinvent_7_9_3/rearranged_h_0116.sdf

> <i_m_source_file_index>
87

> <r_mmod_Potential_Energy-OPLS-2005>
71.9171676635742

> <r_mmod_Stretch_Energy-OPLS-2005>
90.1087036132812

> <r_mmod_Bend_Energy-OPLS-2005>
159.978256225586

> <r_mmod_Torsional_Energy-OPLS-2005>
279.421630859375

> <r_mmod_Improper_Torsional_Energy-OPLS-2005>
5.03514432907104

> <r_mmod_Van_der_Waal_Energy-OPLS-2005>
168.615875244141

> <r_mmod_Electrostatic_Energy-OPLS-2005>
-449.510803222656

> <r_mmod_Solvation_Energy-OPLS-2005>
-229.016479492188

> <b_mmod_Minimization_Converged-OPLS-2005>
0

> <r_mmod_RMS_Derivative-OPLS-2005>
1.86237597465515

$$$$
87
                    3D
 Structure written by MMmdl.
158166  0  0  1  0            999 V2000
  -30.6486  -14.7336   20.2960 C   0  0  0  0  0  0
  -30.4514  -12.3992   19.4737 C   0  0  0  0  0  0
  -29.5187  -12.2799   18.2484 C   0  0  0  0  0  0
  -28.0274  -12.2566   18.6572 C   0  0  0  0  0  0
  -27.6360  -13.2205   19.8151 C   0  0  2  0  0  0
  -28.6964  -13.2289   20.9308 C   0  0  0  0  0  0
  -25.2490  -13.8148   20.5644 C   0  0  0  0  0  0
  -24.1745  -13.0430   20.9162 C   0  0  0  0  0  0
  -24.6337  -11.6934   20.8732 C   0  0  0  0  0  0
  -23.9022  -10.4308   21.0392 C   0  0  0  0  0  0
  -24.3599   -9.4236   21.9161 C   0  0  0  0  0  0
  -23.6304   -8.2247   22.0729 C   0  0  0  0  0  0
  -22.4278   -8.0269   21.3537 C   0  0  0  0  0  0
  -21.9891   -9.0228   20.4628 C   0  0  0  0  0  0
  -22.7185  -10.2126   20.3046 C   0  0  0  0  0  0
  -21.6844   -6.0744   22.5289 C   0  0  0  0  0  0
  -21.4000   -6.5644   23.8233 C   0  0  0  0  0  0
  -21.3657   -5.6773   24.9183 C   0  0  0  0  0  0
  -21.6042   -4.3041   24.7210 C   0  0  0  0  0  0
  -21.8830   -3.8157   23.4329 C   0  0  0  0  0  0
  -21.9212   -4.6978   22.3399 C   0  0  0  0  0  0
  -22.7780  -13.5242   21.1821 C   0  0  0  0  0  0
  -22.1683   -4.2185   21.0968 F   0  0  0  0  0  0
  -21.5626   -3.4517   25.7723 F   0  0  0  0  0  0
  -29.9843  -13.5294   20.2970 N   0  0  0  0  0  0
  -26.2928  -12.9365   20.3217 N   0  0  0  0  0  0
  -25.9284  -11.6539   20.5793 N   0  0  0  0  0  0
  -22.0421  -12.8275   22.0396 N   0  0  0  0  0  0
  -25.4102  -15.1820   20.4107 N   0  0  0  0  0  0
  -31.8780  -14.7431   20.2854 O   0  0  0  0  0  0
  -21.6654   -6.8867   21.4238 O   0  0  0  0  0  0
  -22.3494  -14.5551   20.6665 O   0  0  0  0  0  0
  -24.6210  -31.8601   23.2079 C   0  0  0  0  0  0
  -25.9089  -32.4772   23.8376 C   0  0  1  0  0  0
  -27.2071  -27.3491   20.1213 C   0  0  0  0  0  0
  -25.5939  -33.8581   24.2305 N   0  0  0  0  0  0
  -23.4103  -30.4861   21.5495 C   0  0  2  0  0  0
  -24.8543  -28.9452   20.1110 C   0  0  0  0  0  0
  -22.7421  -29.4607   22.4952 C   0  0  0  0  0  0
  -18.0265  -28.1359   22.8489 C   0  0  0  0  0  0
  -24.1475  -36.7280   23.2638 C   0  0  0  0  0  0
  -25.9489  -30.8004   21.3744 C   0  0  0  0  0  0
  -26.0216  -29.4324   20.7137 C   0  0  0  0  0  0
  -27.2048  -28.6453   20.7092 C   0  0  0  0  0  0
  -26.0247  -26.9000   19.4954 C   0  0  0  0  0  0
  -24.8553  -27.6836   19.4922 C   0  0  0  0  0  0
  -23.6209  -29.8229   20.1628 C   0  0  0  0  0  0
  -25.4098  -36.3078   24.0341 C   0  0  1  0  0  0
  -20.5861  -28.3648   23.1310 C   0  0  2  0  0  0
  -20.6737  -26.9360   22.5470 C   0  0  0  0  0  0
  -19.5759  -26.6348   21.5220 C   0  0  0  0  0  0
  -18.1903  -26.7930   22.1563 C   0  0  0  0  0  0
  -19.1526  -28.8824   23.2889 C   0  0  0  0  0  0
  -18.9446  -30.1428   23.8900 C   0  0  0  0  0  0
  -17.6454  -30.6573   24.0553 C   0  0  0  0  0  0
  -25.9046  -34.9454   23.5118 C   0  0  0  0  0  0
  -16.5339  -29.9068   23.6350 C   0  0  0  0  0  0
  -16.7252  -28.6491   23.0354 C   0  0  0  0  0  0
  -26.4472  -31.6587   25.0749 C   0  0  0  0  0  0
  -25.3726  -31.3823   26.1521 C   0  0  0  0  0  0
  -27.0226  -30.2963   24.6234 C   0  0  0  0  0  0
  -27.6066  -32.4297   25.7484 C   0  0  0  0  0  0
  -27.5583  -37.1768   24.8437 C   0  0  0  0  0  0
  -21.4145  -29.3007   22.3696 N   0  0  0  0  0  0
  -26.4256  -37.3785   23.9439 N   0  0  0  0  0  0
  -24.6785  -31.0654   22.1002 N   0  0  0  0  0  0
  -23.4177  -28.8149   23.3006 O   0  0  0  0  0  0
  -28.3220  -26.5201   20.1462 O   0  0  0  0  0  0
  -26.5592  -34.8905   22.4667 O   0  0  0  0  0  0
  -23.5397  -32.1378   23.7441 O   0  0  0  0  0  0
  -30.5149  -19.5977   20.2765 C   0  0  0  0  0  0
  -28.1697  -19.0578   20.2601 C   0  0  0  0  0  0
  -30.8459  -18.2009   20.2382 C   0  0  0  0  0  0
  -29.1677  -20.0544   20.2247 C   0  0  0  0  0  0
  -29.8225  -17.1979   20.2114 C   0  0  0  0  0  0
  -28.4904  -17.6776   20.2737 C   0  0  0  0  0  0
  -30.0586  -16.7106   17.4080 C   0  0  0  0  0  0
  -29.7831  -15.7583   18.3256 C   0  0  0  0  0  0
  -29.0434  -22.6112   20.5376 C   0  0  0  0  0  0
  -32.3050  -17.8046   20.0867 C   0  0  0  0  0  0
  -28.5690  -23.9383   19.8339 C   0  0  0  0  0  0
  -28.1403  -25.1773   20.7230 C   0  0  0  0  0  0
  -28.7720  -21.4239   19.9273 N   0  0  0  0  0  0
  -29.9858  -15.8186   19.7237 N   0  0  0  0  0  0
  -29.6528  -22.6656   21.6078 O   0  0  0  0  0  0
  -27.4826  -16.7837   20.2229 F   0  0  0  0  0  0
  -31.4809  -12.5312   19.1377 H   0  0  0  0  0  0
  -30.4406  -11.4836   20.0652 H   0  0  0  0  0  0
  -29.7463  -11.3440   17.7364 H   0  0  0  0  0  0
  -29.7371  -13.0253   17.4918 H   0  0  0  0  0  0
  -27.8303  -11.2304   18.9728 H   0  0  0  0  0  0
  -27.3851  -12.4270   17.7923 H   0  0  0  0  0  0
  -27.5998  -14.2185   19.3820 H   0  0  0  0  0  0
  -28.7307  -12.2693   21.4465 H   0  0  0  0  0  0
  -28.4489  -13.9848   21.6782 H   0  0  0  0  0  0
  -25.2741   -9.5763   22.4721 H   0  0  0  0  0  0
  -24.0059   -7.4650   22.7431 H   0  0  0  0  0  0
  -21.0829   -8.8705   19.8929 H   0  0  0  0  0  0
  -22.3600  -10.9652   19.6169 H   0  0  0  0  0  0
  -21.1961   -7.6149   23.9749 H   0  0  0  0  0  0
  -21.1452   -6.0490   25.9092 H   0  0  0  0  0  0
  -22.0604   -2.7619   23.2795 H   0  0  0  0  0  0
  -22.4018  -11.9944   22.4777 H   0  0  0  0  0  0
  -21.1029  -13.1275   22.2571 H   0  0  0  0  0  0
  -24.6620  -15.8437   20.5697 H   0  0  0  0  0  0
  -26.3000  -15.6394   20.2171 H   0  0  0  0  0  0
  -26.7144  -32.5424   23.1109 H   0  0  0  0  0  0
  -25.0142  -33.9748   25.0485 H   0  0  0  0  0  0
  -22.7054  -31.3087   21.4106 H   0  0  0  0  0  0
  -23.3756  -35.9596   23.3280 H   0  0  0  0  0  0
  -24.3573  -36.8920   22.2057 H   0  0  0  0  0  0
  -23.7197  -37.6461   23.6660 H   0  0  0  0  0  0
  -26.0845  -31.5655   20.6087 H   0  0  0  0  0  0
  -26.8291  -30.8395   22.0054 H   0  0  0  0  0  0
  -28.1019  -29.0108   21.1897 H   0  0  0  0  0  0
  -25.9998  -25.9286   19.0212 H   0  0  0  0  0  0
  -23.9592  -27.3060   19.0187 H   0  0  0  0  0  0
  -23.7352  -30.6015   19.4074 H   0  0  0  0  0  0
  -22.7405  -29.2501   19.8634 H   0  0  0  0  0  0
  -25.1275  -36.1912   25.0833 H   0  0  0  0  0  0
  -20.9955  -28.3219   24.1428 H   0  0  0  0  0  0
  -20.5533  -26.2267   23.3681 H   0  0  0  0  0  0
  -21.6620  -26.7324   22.1324 H   0  0  0  0  0  0
  -19.6912  -25.6250   21.1257 H   0  0  0  0  0  0
  -19.6771  -27.3155   20.6754 H   0  0  0  0  0  0
  -17.4227  -26.6785   21.3884 H   0  0  0  0  0  0
  -18.0199  -26.0024   22.8882 H   0  0  0  0  0  0
  -19.7927  -30.7242   24.2257 H   0  0  0  0  0  0
  -17.5011  -31.6263   24.5141 H   0  0  0  0  0  0
  -15.5335  -30.2964   23.7690 H   0  0  0  0  0  0
  -15.8647  -28.0807   22.7076 H   0  0  0  0  0  0
  -24.6022  -30.6942   25.8022 H   0  0  0  0  0  0
  -24.8743  -32.2993   26.4681 H   0  0  0  0  0  0
  -25.8105  -30.9338   27.0445 H   0  0  0  0  0  0
  -26.2781  -29.6788   24.1192 H   0  0  0  0  0  0
  -27.3764  -29.7178   25.4769 H   0  0  0  0  0  0
  -27.8746  -30.4160   23.9548 H   0  0  0  0  0  0
  -27.2692  -33.3586   26.2091 H   0  0  0  0  0  0
  -28.3845  -32.6854   25.0281 H   0  0  0  0  0  0
  -28.0754  -31.8394   26.5357 H   0  0  0  0  0  0
  -28.2589  -38.0072   24.7481 H   0  0  0  0  0  0
  -28.1068  -36.2612   24.6185 H   0  0  0  0  0  0
  -27.2351  -37.1347   25.8851 H   0  0  0  0  0  0
  -20.9287  -29.8747   21.6941 H   0  0  0  0  0  0
  -26.0138  -38.2840   24.1514 H   0  0  0  0  0  0
  -31.3079  -20.3310   20.2272 H   0  0  0  0  0  0
  -27.1298  -19.3452   20.1959 H   0  0  0  0  0  0
  -29.8039  -16.5587   16.3667 H   0  0  0  0  0  0
  -30.5367  -17.6500   17.6471 H   0  0  0  0  0  0
  -29.2880  -14.8690   17.9979 H   0  0  0  0  0  0
  -32.9801  -18.6582   20.1430 H   0  0  0  0  0  0
  -32.4657  -17.3188   19.1239 H   0  0  0  0  0  0
  -32.5825  -17.1125   20.8793 H   0  0  0  0  0  0
  -27.7561  -23.7063   19.1457 H   0  0  0  0  0  0
  -29.3963  -24.2490   19.1960 H   0  0  0  0  0  0
  -28.7073  -25.1700   21.6532 H   0  0  0  0  0  0
  -27.1033  -25.0286   21.0394 H   0  0  0  0  0  0
  -28.1367  -21.5163   19.1442 H   0  0  0  0  0  0
  1 25  1  0  0  0
  1 30  2  0  0  0
  1 84  1  0  0  0
  2  3  1  0  0  0
  2 25  1  0  0  0
  2 87  1  0  0  0
  2 88  1  0  0  0
  3  4  1  0  0  0
  3 89  1  0  0  0
  3 90  1  0  0  0
  4  5  1  0  0  0
  4 91  1  0  0  0
  4 92  1  0  0  0
  5  6  1  0  0  0
  5 26  1  0  0  0
  5 93  1  0  0  0
  6 25  1  0  0  0
  6 94  1  0  0  0
  6 95  1  0  0  0
  7  8  2  0  0  0
  7 26  1  0  0  0
  7 29  1  0  0  0
  8  9  1  0  0  0
  8 22  1  0  0  0
  9 10  1  0  0  0
  9 27  2  0  0  0
 10 11  2  0  0  0
 10 15  1  0  0  0
 11 12  1  0  0  0
 11 96  1  0  0  0
 12 13  2  0  0  0
 12 97  1  0  0  0
 13 14  1  0  0  0
 13 31  1  0  0  0
 14 15  2  0  0  0
 14 98  1  0  0  0
 15 99  1  0  0  0
 16 17  2  0  0  0
 16 21  1  0  0  0
 16 31  1  0  0  0
 17 18  1  0  0  0
 17100  1  0  0  0
 18 19  2  0  0  0
 18101  1  0  0  0
 19 20  1  0  0  0
 19 24  1  0  0  0
 20 21  2  0  0  0
 20102  1  0  0  0
 21 23  1  0  0  0
 22 28  1  0  0  0
 22 32  2  0  0  0
 26 27  1  0  0  0
 28103  1  0  0  0
 28104  1  0  0  0
 29105  1  0  0  0
 29106  1  0  0  0
 33 34  1  0  0  0
 33 66  1  0  0  0
 33 70  2  0  0  0
 34 36  1  0  0  0
 34 59  1  0  0  0
 34107  1  0  0  0
 35 44  2  0  0  0
 35 45  1  0  0  0
 35 68  1  0  0  0
 36 56  1  0  0  0
 36108  1  0  0  0
 37 39  1  0  0  0
 37 47  1  0  0  0
 37 66  1  0  0  0
 37109  1  0  0  0
 38 43  2  0  0  0
 38 46  1  0  0  0
 38 47  1  0  0  0
 39 64  1  0  0  0
 39 67  2  0  0  0
 40 52  1  0  0  0
 40 53  2  0  0  0
 40 58  1  0  0  0
 41110  1  0  0  0
 41111  1  0  0  0
 41112  1  0  0  0
 41 48  1  0  0  0
 42 43  1  0  0  0
 42 66  1  0  0  0
 42113  1  0  0  0
 42114  1  0  0  0
 43 44  1  0  0  0
 44115  1  0  0  0
 45 46  2  0  0  0
 45116  1  0  0  0
 46117  1  0  0  0
 47118  1  0  0  0
 47119  1  0  0  0
 48 56  1  0  0  0
 48 65  1  0  0  0
 48120  1  0  0  0
 49 50  1  0  0  0
 49 53  1  0  0  0
 49 64  1  0  0  0
 49121  1  0  0  0
 50 51  1  0  0  0
 50122  1  0  0  0
 50123  1  0  0  0
 51 52  1  0  0  0
 51124  1  0  0  0
 51125  1  0  0  0
 52126  1  0  0  0
 52127  1  0  0  0
 53 54  1  0  0  0
 54 55  2  0  0  0
 54128  1  0  0  0
 55 57  1  0  0  0
 55129  1  0  0  0
 56 69  2  0  0  0
 57 58  2  0  0  0
 57130  1  0  0  0
 58131  1  0  0  0
 59 60  1  0  0  0
 59 61  1  0  0  0
 59 62  1  0  0  0
 60132  1  0  0  0
 60133  1  0  0  0
 60134  1  0  0  0
 61135  1  0  0  0
 61136  1  0  0  0
 61137  1  0  0  0
 62138  1  0  0  0
 62139  1  0  0  0
 62140  1  0  0  0
 63 65  1  0  0  0
 63141  1  0  0  0
 63142  1  0  0  0
 63143  1  0  0  0
 64144  1  0  0  0
 65145  1  0  0  0
 68 82  1  0  0  0
 71 73  2  0  0  0
 71 74  1  0  0  0
 71146  1  0  0  0
 72 74  2  0  0  0
 72 76  1  0  0  0
 72147  1  0  0  0
 73 75  1  0  0  0
 73 80  1  0  0  0
 74 83  1  0  0  0
 75 76  2  0  0  0
 75 84  1  0  0  0
 76 86  1  0  0  0
 77 78  2  0  0  0
 77148  1  0  0  0
 77149  1  0  0  0
 78 84  1  0  0  0
 78150  1  0  0  0
 79 81  1  0  0  0
 79 83  1  0  0  0
 79 85  2  0  0  0
 80151  1  0  0  0
 80152  1  0  0  0
 80153  1  0  0  0
 81 82  1  0  0  0
 81154  1  0  0  0
 81155  1  0  0  0
 82156  1  0  0  0
 82157  1  0  0  0
 83158  1  0  0  0
M  ISO  4   1 100  68 101  82 101  84 100
M  END
> <chiral flag>
0

> <version>
0

> <s_m_source_file>
/data/baiqing/PycharmProjects/Reinvent-master-3.2/result/LINK_invent/BTK/process_docking_weight1_custom_product_contain_oxygen_bond_distance_aromatic_linkinvent_7_9_3/rearranged_h_0116.sdf

> <i_m_source_file_index>
88

> <r_mmod_Potential_Energy-OPLS-2005>
340.414764404297

> <r_mmod_Stretch_Energy-OPLS-2005>
76.2015991210938

> <r_mmod_Bend_Energy-OPLS-2005>
147.896011352539

> <r_mmod_Torsional_Energy-OPLS-2005>
418.020202636719

> <r_mmod_Improper_Torsional_Energy-OPLS-2005>
27.8528537750244

> <r_mmod_Van_der_Waal_Energy-OPLS-2005>
150.591323852539

> <r_mmod_Electrostatic_Energy-OPLS-2005>
-359.895263671875

> <r_mmod_Solvation_Energy-OPLS-2005>
-210.283050537109

> <b_mmod_Minimization_Converged-OPLS-2005>
0

> <r_mmod_RMS_Derivative-OPLS-2005>
4.98688220977783

$$$$
88
                    3D
 Structure written by MMmdl.
163171  0  0  1  0            999 V2000
  -30.7290  -14.5744   20.6166 C   0  0  0  0  0  0
  -30.4188  -12.3747   19.4905 C   0  0  0  0  0  0
  -29.5154  -12.5288   18.2507 C   0  0  0  0  0  0
  -28.0422  -12.3503   18.6571 C   0  0  0  0  0  0
  -27.6628  -13.2248   19.8833 C   0  0  2  0  0  0
  -28.6963  -13.1055   21.0316 C   0  0  0  0  0  0
  -25.2578  -13.8202   20.5732 C   0  0  0  0  0  0
  -24.1850  -13.0452   20.9184 C   0  0  0  0  0  0
  -24.6417  -11.6925   20.8706 C   0  0  0  0  0  0
  -23.9090  -10.4286   21.0342 C   0  0  0  0  0  0
  -24.3643   -9.4221   21.9133 C   0  0  0  0  0  0
  -23.6308   -8.2263   22.0736 C   0  0  0  0  0  0
  -22.4287   -8.0315   21.3539 C   0  0  0  0  0  0
  -21.9913   -9.0267   20.4635 C   0  0  0  0  0  0
  -22.7238  -10.2150   20.3014 C   0  0  0  0  0  0
  -21.6872   -6.0751   22.5267 C   0  0  0  0  0  0
  -21.4007   -6.5649   23.8210 C   0  0  0  0  0  0
  -21.3654   -5.6808   24.9163 C   0  0  0  0  0  0
  -21.6050   -4.3067   24.7232 C   0  0  0  0  0  0
  -21.8823   -3.8160   23.4344 C   0  0  0  0  0  0
  -21.9190   -4.6960   22.3395 C   0  0  0  0  0  0
  -22.7853  -13.5216   21.1884 C   0  0  0  0  0  0
  -22.1671   -4.2154   21.0971 F   0  0  0  0  0  0
  -21.5632   -3.4558   25.7726 F   0  0  0  0  0  0
  -30.0303  -13.3989   20.4840 N   0  0  0  0  0  0
  -26.3037  -12.9405   20.3409 N   0  0  0  0  0  0
  -25.9366  -11.6550   20.5764 N   0  0  0  0  0  0
  -22.0561  -12.8123   22.0433 N   0  0  0  0  0  0
  -25.4321  -15.1926   20.4183 N   0  0  0  0  0  0
  -31.7469  -14.7680   19.9469 O   0  0  0  0  0  0
  -21.6673   -6.8895   21.4242 O   0  0  0  0  0  0
  -22.3517  -14.5528   20.6773 O   0  0  0  0  0  0
  -24.6172  -31.8686   23.2076 C   0  0  0  0  0  0
  -25.9058  -32.4821   23.8372 C   0  0  1  0  0  0
  -27.2230  -27.3857   20.1060 C   0  0  0  0  0  0
  -25.5904  -33.8614   24.2310 N   0  0  0  0  0  0
  -23.4053  -30.4963   21.5504 C   0  0  2  0  0  0
  -24.8500  -28.9687   20.1048 C   0  0  0  0  0  0
  -22.7422  -29.4667   22.4956 C   0  0  0  0  0  0
  -18.0294  -28.1352   22.8510 C   0  0  0  0  0  0
  -24.1490  -36.7298   23.2639 C   0  0  0  0  0  0
  -25.9392  -30.8281   21.3611 C   0  0  0  0  0  0
  -26.0176  -29.4612   20.7009 C   0  0  0  0  0  0
  -27.2078  -28.6839   20.6890 C   0  0  0  0  0  0
  -26.0305  -26.9342   19.4897 C   0  0  0  0  0  0
  -24.8572  -27.7086   19.4895 C   0  0  0  0  0  0
  -23.6113  -29.8383   20.1620 C   0  0  0  0  0  0
  -25.4112  -36.3103   24.0336 C   0  0  1  0  0  0
  -20.5888  -28.3648   23.1313 C   0  0  2  0  0  0
  -20.6775  -26.9372   22.5426 C   0  0  0  0  0  0
  -19.5747  -26.6374   21.5219 C   0  0  0  0  0  0
  -18.1934  -26.7905   22.1643 C   0  0  0  0  0  0
  -19.1544  -28.8811   23.2923 C   0  0  0  0  0  0
  -18.9460  -30.1420   23.8921 C   0  0  0  0  0  0
  -17.6462  -30.6560   24.0564 C   0  0  0  0  0  0
  -25.9044  -34.9474   23.5123 C   0  0  0  0  0  0
  -16.5355  -29.9059   23.6323 C   0  0  0  0  0  0
  -16.7281  -28.6478   23.0345 C   0  0  0  0  0  0
  -26.4472  -31.6591   25.0699 C   0  0  0  0  0  0
  -25.3724  -31.3714   26.1442 C   0  0  0  0  0  0
  -27.0284  -30.3023   24.6075 C   0  0  0  0  0  0
  -27.6064  -32.4282   25.7469 C   0  0  0  0  0  0
  -27.5577  -37.1807   24.8469 C   0  0  0  0  0  0
  -21.4142  -29.3026   22.3701 N   0  0  0  0  0  0
  -26.4295  -37.3783   23.9409 N   0  0  0  0  0  0
  -24.6734  -31.0767   22.0989 N   0  0  0  0  0  0
  -23.4192  -28.8198   23.2992 O   0  0  0  0  0  0
  -28.3582  -26.5738   20.1640 O   0  0  0  0  0  0
  -26.5609  -34.8930   22.4688 O   0  0  0  0  0  0
  -23.5357  -32.1433   23.7467 O   0  0  0  0  0  0
  -27.9229  -18.0748   22.2503 C   0  0  0  0  0  0
  -29.8560  -19.2382   21.3800 C   0  0  0  0  0  0
  -29.2499  -18.0041   21.7850 C   0  0  0  0  0  0
  -27.8755  -20.5226   22.0717 C   0  0  0  0  0  0
  -27.2496  -19.3017   22.4297 C   0  0  0  0  0  0
  -29.1650  -20.5019   21.4569 C   0  0  0  0  0  0
  -27.7741  -22.7833   23.1643 C   0  0  0  0  0  0
  -29.9534  -16.7264   22.1991 C   0  0  0  0  0  0
  -27.2060  -21.7825   22.4702 C   0  0  0  0  0  0
  -30.3671  -15.5139   21.7002 C   0  0  0  0  0  0
  -24.6892  -19.4114   22.2360 C   0  0  0  0  0  0
  -25.9041  -19.2666   23.1594 C   0  0  0  0  0  0
  -29.3052  -24.1821   20.5172 C   0  0  0  0  0  0
  -28.1473  -25.1312   20.0469 C   0  0  0  0  0  0
  -29.0762  -22.6476   20.2131 C   0  0  0  0  0  0
  -29.8001  -21.6830   21.0416 O   0  0  0  0  0  0
  -31.4734  -12.4378   19.2114 H   0  0  0  0  0  0
  -30.2992  -11.3824   19.9279 H   0  0  0  0  0  0
  -29.7976  -11.8027   17.4883 H   0  0  0  0  0  0
  -29.6695  -13.5165   17.8109 H   0  0  0  0  0  0
  -27.8975  -11.2969   18.9014 H   0  0  0  0  0  0
  -27.3790  -12.5647   17.8157 H   0  0  0  0  0  0
  -27.6856  -14.2585   19.5381 H   0  0  0  0  0  0
  -28.6751  -12.1070   21.4682 H   0  0  0  0  0  0
  -28.4302  -13.7917   21.8354 H   0  0  0  0  0  0
  -25.2791   -9.5734   22.4696 H   0  0  0  0  0  0
  -24.0042   -7.4665   22.7446 H   0  0  0  0  0  0
  -21.0851   -8.8775   19.8921 H   0  0  0  0  0  0
  -22.3683  -10.9689   19.6136 H   0  0  0  0  0  0
  -21.2015   -7.6155   23.9703 H   0  0  0  0  0  0
  -21.1467   -6.0540   25.9075 H   0  0  0  0  0  0
  -22.0599   -2.7617   23.2840 H   0  0  0  0  0  0
  -22.4232  -11.9753   22.4723 H   0  0  0  0  0  0
  -21.1183  -13.1083   22.2710 H   0  0  0  0  0  0
  -24.6766  -15.8543   20.5485 H   0  0  0  0  0  0
  -26.3011  -15.6301   20.1415 H   0  0  0  0  0  0
  -26.7129  -32.5521   23.1132 H   0  0  0  0  0  0
  -25.0003  -33.9775   25.0415 H   0  0  0  0  0  0
  -22.6948  -31.3159   21.4187 H   0  0  0  0  0  0
  -23.3748  -35.9639   23.3330 H   0  0  0  0  0  0
  -24.3577  -36.8874   22.2049 H   0  0  0  0  0  0
  -23.7251  -37.6517   23.6626 H   0  0  0  0  0  0
  -26.0528  -31.6036   20.6019 H   0  0  0  0  0  0
  -26.8253  -30.8780   21.9830 H   0  0  0  0  0  0
  -28.1037  -29.0697   21.1551 H   0  0  0  0  0  0
  -25.9733  -25.9716   19.0067 H   0  0  0  0  0  0
  -23.9625  -27.3250   19.0198 H   0  0  0  0  0  0
  -23.7093  -30.6206   19.4081 H   0  0  0  0  0  0
  -22.7330  -29.2619   19.8668 H   0  0  0  0  0  0
  -25.1297  -36.1967   25.0826 H   0  0  0  0  0  0
  -21.0017  -28.3207   24.1419 H   0  0  0  0  0  0
  -20.5658  -26.2243   23.3611 H   0  0  0  0  0  0
  -21.6643  -26.7388   22.1223 H   0  0  0  0  0  0
  -19.6904  -25.6295   21.1213 H   0  0  0  0  0  0
  -19.6691  -27.3216   20.6773 H   0  0  0  0  0  0
  -17.4203  -26.6660   21.4044 H   0  0  0  0  0  0
  -18.0340  -26.0033   22.9029 H   0  0  0  0  0  0
  -19.7930  -30.7237   24.2295 H   0  0  0  0  0  0
  -17.5006  -31.6244   24.5167 H   0  0  0  0  0  0
  -15.5347  -30.2958   23.7622 H   0  0  0  0  0  0
  -15.8691  -28.0798   22.7029 H   0  0  0  0  0  0
  -24.5904  -30.7058   25.7769 H   0  0  0  0  0  0
  -24.8907  -32.2878   26.4861 H   0  0  0  0  0  0
  -25.8064  -30.8895   27.0211 H   0  0  0  0  0  0
  -26.2820  -29.6804   24.1116 H   0  0  0  0  0  0
  -27.4036  -29.7247   25.4534 H   0  0  0  0  0  0
  -27.8670  -30.4336   23.9229 H   0  0  0  0  0  0
  -27.2706  -33.3579   26.2076 H   0  0  0  0  0  0
  -28.3866  -32.6830   25.0282 H   0  0  0  0  0  0
  -28.0728  -31.8359   26.5354 H   0  0  0  0  0  0
  -28.2623  -38.0075   24.7477 H   0  0  0  0  0  0
  -28.1045  -36.2605   24.6347 H   0  0  0  0  0  0
  -27.2289  -37.1519   25.8871 H   0  0  0  0  0  0
  -20.9259  -29.8757   21.6960 H   0  0  0  0  0  0
  -26.0189  -38.2867   24.1394 H   0  0  0  0  0  0
  -27.4588  -17.1697   22.6196 H   0  0  0  0  0  0
  -30.8905  -19.2360   21.0631 H   0  0  0  0  0  0
  -27.2120  -23.6766   23.4007 H   0  0  0  0  0  0
  -28.7974  -22.7290   23.5057 H   0  0  0  0  0  0
  -30.1636  -16.7791   23.2571 H   0  0  0  0  0  0
  -26.1812  -21.9086   22.1555 H   0  0  0  0  0  0
  -29.8591  -15.9178   20.8378 H   0  0  0  0  0  0
  -23.7639  -19.2945   22.8004 H   0  0  0  0  0  0
  -24.6971  -18.6582   21.4503 H   0  0  0  0  0  0
  -24.6491  -20.3899   21.7606 H   0  0  0  0  0  0
  -25.8831  -20.0311   23.9373 H   0  0  0  0  0  0
  -25.8216  -18.3227   23.7018 H   0  0  0  0  0  0
  -29.4511  -24.3301   21.5856 H   0  0  0  0  0  0
  -30.2400  -24.4954   20.0501 H   0  0  0  0  0  0
  -27.2692  -24.8611   20.6374 H   0  0  0  0  0  0
  -27.9102  -24.8975   19.0071 H   0  0  0  0  0  0
  -29.3941  -22.4658   19.1851 H   0  0  0  0  0  0
  -28.0079  -22.4407   20.1842 H   0  0  0  0  0  0
  1 25  1  0  0  0
  1 30  2  0  0  0
  1 80  1  0  0  0
  2  3  1  0  0  0
  2 25  1  0  0  0
  2 87  1  0  0  0
  2 88  1  0  0  0
  3  4  1  0  0  0
  3 89  1  0  0  0
  3 90  1  0  0  0
  4  5  1  0  0  0
  4 91  1  0  0  0
  4 92  1  0  0  0
  5  6  1  0  0  0
  5 26  1  0  0  0
  5 93  1  0  0  0
  6 25  1  0  0  0
  6 94  1  0  0  0
  6 95  1  0  0  0
  7  8  2  0  0  0
  7 26  1  0  0  0
  7 29  1  0  0  0
  8  9  1  0  0  0
  8 22  1  0  0  0
  9 10  1  0  0  0
  9 27  2  0  0  0
 10 11  2  0  0  0
 10 15  1  0  0  0
 11 12  1  0  0  0
 11 96  1  0  0  0
 12 13  2  0  0  0
 12 97  1  0  0  0
 13 14  1  0  0  0
 13 31  1  0  0  0
 14 15  2  0  0  0
 14 98  1  0  0  0
 15 99  1  0  0  0
 16 17  2  0  0  0
 16 21  1  0  0  0
 16 31  1  0  0  0
 17 18  1  0  0  0
 17100  1  0  0  0
 18 19  2  0  0  0
 18101  1  0  0  0
 19 20  1  0  0  0
 19 24  1  0  0  0
 20 21  2  0  0  0
 20102  1  0  0  0
 21 23  1  0  0  0
 22 28  1  0  0  0
 22 32  2  0  0  0
 26 27  1  0  0  0
 28103  1  0  0  0
 28104  1  0  0  0
 29105  1  0  0  0
 29106  1  0  0  0
 33 34  1  0  0  0
 33 66  1  0  0  0
 33 70  2  0  0  0
 34 36  1  0  0  0
 34 59  1  0  0  0
 34107  1  0  0  0
 35 44  2  0  0  0
 35 45  1  0  0  0
 35 68  1  0  0  0
 36 56  1  0  0  0
 36108  1  0  0  0
 37 39  1  0  0  0
 37 47  1  0  0  0
 37 66  1  0  0  0
 37109  1  0  0  0
 38 43  2  0  0  0
 38 46  1  0  0  0
 38 47  1  0  0  0
 39 64  1  0  0  0
 39 67  2  0  0  0
 40 52  1  0  0  0
 40 53  2  0  0  0
 40 58  1  0  0  0
 41110  1  0  0  0
 41111  1  0  0  0
 41112  1  0  0  0
 41 48  1  0  0  0
 42 43  1  0  0  0
 42 66  1  0  0  0
 42113  1  0  0  0
 42114  1  0  0  0
 43 44  1  0  0  0
 44115  1  0  0  0
 45 46  2  0  0  0
 45116  1  0  0  0
 46117  1  0  0  0
 47118  1  0  0  0
 47119  1  0  0  0
 48 56  1  0  0  0
 48 65  1  0  0  0
 48120  1  0  0  0
 49 50  1  0  0  0
 49 53  1  0  0  0
 49 64  1  0  0  0
 49121  1  0  0  0
 50 51  1  0  0  0
 50122  1  0  0  0
 50123  1  0  0  0
 51 52  1  0  0  0
 51124  1  0  0  0
 51125  1  0  0  0
 52126  1  0  0  0
 52127  1  0  0  0
 53 54  1  0  0  0
 54 55  2  0  0  0
 54128  1  0  0  0
 55 57  1  0  0  0
 55129  1  0  0  0
 56 69  2  0  0  0
 57 58  2  0  0  0
 57130  1  0  0  0
 58131  1  0  0  0
 59 60  1  0  0  0
 59 61  1  0  0  0
 59 62  1  0  0  0
 60132  1  0  0  0
 60133  1  0  0  0
 60134  1  0  0  0
 61135  1  0  0  0
 61136  1  0  0  0
 61137  1  0  0  0
 62138  1  0  0  0
 62139  1  0  0  0
 62140  1  0  0  0
 63 65  1  0  0  0
 63141  1  0  0  0
 63142  1  0  0  0
 63143  1  0  0  0
 64144  1  0  0  0
 65145  1  0  0  0
 68 84  1  0  0  0
 71 73  2  0  0  0
 71 75  1  0  0  0
 71146  1  0  0  0
 72 73  1  0  0  0
 72 76  2  0  0  0
 72147  1  0  0  0
 73 78  1  0  0  0
 74 75  2  0  0  0
 74 76  1  0  0  0
 74 79  1  0  0  0
 75 82  1  0  0  0
 76 86  1  0  0  0
 77 79  2  0  0  0
 77148  1  0  0  0
 77149  1  0  0  0
 78 80  2  0  0  0
 78150  1  0  0  0
 79151  1  0  0  0
 80152  1  0  0  0
 81 82  1  0  0  0
 81153  1  0  0  0
 81154  1  0  0  0
 81155  1  0  0  0
 82156  1  0  0  0
 82157  1  0  0  0
 83 84  1  0  0  0
 83 85  1  0  0  0
 83158  1  0  0  0
 83159  1  0  0  0
 84160  1  0  0  0
 84161  1  0  0  0
 85 86  1  0  0  0
 85162  1  0  0  0
 85163  1  0  0  0
M  ISO  4   1 100  68 101  80 100  84 101
M  END
> <chiral flag>
0

> <version>
0

> <s_m_source_file>
/data/baiqing/PycharmProjects/Reinvent-master-3.2/result/LINK_invent/BTK/process_docking_weight1_custom_product_contain_oxygen_bond_distance_aromatic_linkinvent_7_9_3/rearranged_h_0116.sdf

> <i_m_source_file_index>
89

> <r_mmod_Potential_Energy-OPLS-2005>
456.815490722656

> <r_mmod_Stretch_Energy-OPLS-2005>
69.3856658935547

> <r_mmod_Bend_Energy-OPLS-2005>
427.219757080078

> <r_mmod_Torsional_Energy-OPLS-2005>
290.673248291016

> <r_mmod_Improper_Torsional_Energy-OPLS-2005>
13.2760925292969

> <r_mmod_Van_der_Waal_Energy-OPLS-2005>
157.252960205078

> <r_mmod_Electrostatic_Energy-OPLS-2005>
-342.869598388672

> <r_mmod_Solvation_Energy-OPLS-2005>
-189.83430480957

> <b_mmod_Minimization_Converged-OPLS-2005>
0

> <r_mmod_RMS_Derivative-OPLS-2005>
4.72422361373901

$$$$
89
                    3D
 Structure written by MMmdl.
157165  0  0  1  0            999 V2000
  -30.7548  -14.4507   20.5282 C   0  0  0  0  0  0
  -30.4075  -12.2813   19.4537 C   0  0  0  0  0  0
  -29.5070  -12.5026   18.2214 C   0  0  0  0  0  0
  -28.0225  -12.3805   18.6142 C   0  0  0  0  0  0
  -27.6642  -13.2166   19.8733 C   0  0  2  0  0  0
  -28.7019  -13.0302   21.0021 C   0  0  0  0  0  0
  -25.2619  -13.8175   20.5664 C   0  0  0  0  0  0
  -24.1862  -13.0462   20.9158 C   0  0  0  0  0  0
  -24.6409  -11.6926   20.8716 C   0  0  0  0  0  0
  -23.9058  -10.4320   21.0378 C   0  0  0  0  0  0
  -24.3614   -9.4243   21.9154 C   0  0  0  0  0  0
  -23.6319   -8.2265   22.0738 C   0  0  0  0  0  0
  -22.4309   -8.0279   21.3535 C   0  0  0  0  0  0
  -21.9928   -9.0243   20.4634 C   0  0  0  0  0  0
  -22.7226  -10.2145   20.3031 C   0  0  0  0  0  0
  -21.6880   -6.0744   22.5281 C   0  0  0  0  0  0
  -21.4021   -6.5640   23.8213 C   0  0  0  0  0  0
  -21.3663   -5.6777   24.9171 C   0  0  0  0  0  0
  -21.6034   -4.3036   24.7211 C   0  0  0  0  0  0
  -21.8817   -3.8144   23.4327 C   0  0  0  0  0  0
  -21.9199   -4.6970   22.3400 C   0  0  0  0  0  0
  -22.7887  -13.5279   21.1820 C   0  0  0  0  0  0
  -22.1660   -4.2157   21.0981 F   0  0  0  0  0  0
  -21.5648   -3.4519   25.7721 F   0  0  0  0  0  0
  -30.0395  -13.2965   20.4545 N   0  0  0  0  0  0
  -26.3057  -12.9355   20.3347 N   0  0  0  0  0  0
  -25.9342  -11.6507   20.5730 N   0  0  0  0  0  0
  -22.0494  -12.8315   22.0361 N   0  0  0  0  0  0
  -25.4371  -15.1875   20.4107 N   0  0  0  0  0  0
  -31.9198  -14.5076   20.1244 O   0  0  0  0  0  0
  -21.6657   -6.8885   21.4245 O   0  0  0  0  0  0
  -22.3594  -14.5598   20.6669 O   0  0  0  0  0  0
  -24.6165  -31.8690   23.2146 C   0  0  0  0  0  0
  -25.9067  -32.4823   23.8412 C   0  0  1  0  0  0
  -27.2059  -27.4324   20.0996 C   0  0  0  0  0  0
  -25.5936  -33.8626   24.2338 N   0  0  0  0  0  0
  -23.3995  -30.5009   21.5552 C   0  0  2  0  0  0
  -24.8374  -28.9719   20.1159 C   0  0  0  0  0  0
  -22.7406  -29.4669   22.4972 C   0  0  0  0  0  0
  -18.0274  -28.1370   22.8483 C   0  0  0  0  0  0
  -24.1494  -36.7334   23.2624 C   0  0  0  0  0  0
  -25.9309  -30.8388   21.3635 C   0  0  0  0  0  0
  -26.0032  -29.4763   20.7065 C   0  0  0  0  0  0
  -27.1949  -28.7163   20.6896 C   0  0  0  0  0  0
  -26.0219  -26.9464   19.4977 C   0  0  0  0  0  0
  -24.8405  -27.7064   19.5096 C   0  0  0  0  0  0
  -23.6063  -29.8455   20.1655 C   0  0  0  0  0  0
  -25.4105  -36.3106   24.0323 C   0  0  1  0  0  0
  -20.5869  -28.3653   23.1314 C   0  0  2  0  0  0
  -20.6773  -26.9388   22.5411 C   0  0  0  0  0  0
  -19.5750  -26.6358   21.5209 C   0  0  0  0  0  0
  -18.1925  -26.7916   22.1607 C   0  0  0  0  0  0
  -19.1524  -28.8820   23.2903 C   0  0  0  0  0  0
  -18.9453  -30.1426   23.8912 C   0  0  0  0  0  0
  -17.6458  -30.6580   24.0543 C   0  0  0  0  0  0
  -25.9036  -34.9473   23.5114 C   0  0  0  0  0  0
  -16.5343  -29.9080   23.6324 C   0  0  0  0  0  0
  -16.7265  -28.6496   23.0343 C   0  0  0  0  0  0
  -26.4486  -31.6614   25.0746 C   0  0  0  0  0  0
  -25.3755  -31.3768   26.1508 C   0  0  0  0  0  0
  -27.0311  -30.3049   24.6134 C   0  0  0  0  0  0
  -27.6072  -32.4305   25.7529 C   0  0  0  0  0  0
  -27.5593  -37.1796   24.8429 C   0  0  0  0  0  0
  -21.4136  -29.3040   22.3725 N   0  0  0  0  0  0
  -26.4272  -37.3804   23.9423 N   0  0  0  0  0  0
  -24.6681  -31.0814   22.1041 N   0  0  0  0  0  0
  -23.4190  -28.8171   23.2963 O   0  0  0  0  0  0
  -28.3524  -26.6686   20.1353 O   0  0  0  0  0  0
  -26.5569  -34.8924   22.4660 O   0  0  0  0  0  0
  -23.5369  -32.1420   23.7564 O   0  0  0  0  0  0
  -29.2787  -20.2419   21.5370 C   0  0  0  0  0  0
  -29.8722  -18.9116   19.1523 C   0  0  0  0  0  0
  -29.6750  -18.8795   21.5840 C   0  0  0  0  0  0
  -29.9754  -18.2066   20.3697 C   0  0  0  0  0  0
  -29.2147  -20.9517   20.3114 C   0  0  0  0  0  0
  -29.5012  -20.2641   19.1190 C   0  0  0  0  0  0
  -29.0670  -18.4646   23.9779 C   0  0  0  0  0  0
  -29.7997  -18.1979   22.8842 C   0  0  0  0  0  0
  -30.4296  -16.8084   20.2449 C   0  0  0  0  0  0
  -30.0442  -15.6780   20.8870 C   0  0  0  0  0  0
  -29.4273  -24.5755   20.8180 C   0  0  0  0  0  0
  -28.1280  -25.2766   20.4064 C   0  0  0  0  0  0
  -29.2174  -23.1314   21.3075 C   0  0  0  0  0  0
  -28.8936  -22.2897   20.2066 O   0  0  0  0  0  0
  -29.4492  -20.9152   17.9309 F   0  0  0  0  0  0
  -31.4614  -12.3214   19.1707 H   0  0  0  0  0  0
  -30.2576  -11.2823   19.8650 H   0  0  0  0  0  0
  -29.7539  -11.7787   17.4447 H   0  0  0  0  0  0
  -29.6962  -13.4889   17.7956 H   0  0  0  0  0  0
  -27.8154  -11.3258   18.7922 H   0  0  0  0  0  0
  -27.3880  -12.6736   17.7789 H   0  0  0  0  0  0
  -27.7017  -14.2637   19.5732 H   0  0  0  0  0  0
  -28.6687  -12.0089   21.3839 H   0  0  0  0  0  0
  -28.4732  -13.6699   21.8559 H   0  0  0  0  0  0
  -25.2748   -9.5777   22.4728 H   0  0  0  0  0  0
  -24.0053   -7.4674   22.7480 H   0  0  0  0  0  0
  -21.0842   -8.8720   19.8962 H   0  0  0  0  0  0
  -22.3617  -10.9668   19.6142 H   0  0  0  0  0  0
  -21.1995   -7.6138   23.9734 H   0  0  0  0  0  0
  -21.1493   -6.0493   25.9085 H   0  0  0  0  0  0
  -22.0596   -2.7610   23.2805 H   0  0  0  0  0  0
  -22.4080  -11.9979   22.4773 H   0  0  0  0  0  0
  -21.1101  -13.1356   22.2512 H   0  0  0  0  0  0
  -24.6766  -15.8500   20.5249 H   0  0  0  0  0  0
  -26.3028  -15.6242   20.1163 H   0  0  0  0  0  0
  -26.7130  -32.5520   23.1165 H   0  0  0  0  0  0
  -25.0136  -33.9782   25.0511 H   0  0  0  0  0  0
  -22.6886  -31.3197   21.4236 H   0  0  0  0  0  0
  -23.3751  -35.9666   23.3230 H   0  0  0  0  0  0
  -24.3619  -36.9009   22.2054 H   0  0  0  0  0  0
  -23.7233  -37.6515   23.6681 H   0  0  0  0  0  0
  -26.0395  -31.6070   20.5961 H   0  0  0  0  0  0
  -26.8215  -30.8887   21.9787 H   0  0  0  0  0  0
  -28.0941  -29.0983   21.1523 H   0  0  0  0  0  0
  -25.9896  -25.9800   19.0169 H   0  0  0  0  0  0
  -23.9396  -27.3159   19.0560 H   0  0  0  0  0  0
  -23.7288  -30.6277   19.4150 H   0  0  0  0  0  0
  -22.7261  -29.2782   19.8591 H   0  0  0  0  0  0
  -25.1271  -36.1956   25.0805 H   0  0  0  0  0  0
  -20.9967  -28.3212   24.1432 H   0  0  0  0  0  0
  -20.5695  -26.2247   23.3589 H   0  0  0  0  0  0
  -21.6638  -26.7440   22.1188 H   0  0  0  0  0  0
  -19.6913  -25.6263   21.1242 H   0  0  0  0  0  0
  -19.6722  -27.3164   20.6739 H   0  0  0  0  0  0
  -17.4212  -26.6681   21.3992 H   0  0  0  0  0  0
  -18.0311  -26.0049   22.8993 H   0  0  0  0  0  0
  -19.7933  -30.7226   24.2294 H   0  0  0  0  0  0
  -17.5024  -31.6280   24.5101 H   0  0  0  0  0  0
  -15.5349  -30.2988   23.7637 H   0  0  0  0  0  0
  -15.8663  -28.0817   22.7056 H   0  0  0  0  0  0
  -24.5872  -30.7173   25.7862 H   0  0  0  0  0  0
  -24.9024  -32.2971   26.4958 H   0  0  0  0  0  0
  -25.8096  -30.8925   27.0263 H   0  0  0  0  0  0
  -26.2879  -29.6823   24.1146 H   0  0  0  0  0  0
  -27.4031  -29.7270   25.4602 H   0  0  0  0  0  0
  -27.8730  -30.4353   23.9327 H   0  0  0  0  0  0
  -27.2685  -33.3557   26.2200 H   0  0  0  0  0  0
  -28.3874  -32.6932   25.0372 H   0  0  0  0  0  0
  -28.0757  -31.8366   26.5382 H   0  0  0  0  0  0
  -28.2517  -38.0183   24.7586 H   0  0  0  0  0  0
  -28.1172  -36.2717   24.6097 H   0  0  0  0  0  0
  -27.2337  -37.1255   25.8829 H   0  0  0  0  0  0
  -20.9262  -29.8827   21.7030 H   0  0  0  0  0  0
  -26.0151  -38.2850   24.1518 H   0  0  0  0  0  0
  -29.0622  -20.7584   22.4605 H   0  0  0  0  0  0
  -30.1019  -18.4166   18.2205 H   0  0  0  0  0  0
  -29.2476  -17.9353   24.9028 H   0  0  0  0  0  0
  -28.2763  -19.2002   23.9742 H   0  0  0  0  0  0
  -30.5736  -17.4478   22.9590 H   0  0  0  0  0  0
  -31.2205  -16.7193   19.5108 H   0  0  0  0  0  0
  -29.2576  -15.6931   21.6253 H   0  0  0  0  0  0
  -29.8949  -25.1485   21.6192 H   0  0  0  0  0  0
  -30.1285  -24.5820   19.9817 H   0  0  0  0  0  0
  -27.3967  -25.1639   21.2126 H   0  0  0  0  0  0
  -27.7198  -24.7692   19.5329 H   0  0  0  0  0  0
  -28.4295  -23.0873   22.0603 H   0  0  0  0  0  0
  -30.1414  -22.7956   21.7803 H   0  0  0  0  0  0
  1 25  1  0  0  0
  1 30  2  0  0  0
  1 80  1  0  0  0
  2  3  1  0  0  0
  2 25  1  0  0  0
  2 86  1  0  0  0
  2 87  1  0  0  0
  3  4  1  0  0  0
  3 88  1  0  0  0
  3 89  1  0  0  0
  4  5  1  0  0  0
  4 90  1  0  0  0
  4 91  1  0  0  0
  5  6  1  0  0  0
  5 26  1  0  0  0
  5 92  1  0  0  0
  6 25  1  0  0  0
  6 93  1  0  0  0
  6 94  1  0  0  0
  7  8  2  0  0  0
  7 26  1  0  0  0
  7 29  1  0  0  0
  8  9  1  0  0  0
  8 22  1  0  0  0
  9 10  1  0  0  0
  9 27  2  0  0  0
 10 11  2  0  0  0
 10 15  1  0  0  0
 11 12  1  0  0  0
 11 95  1  0  0  0
 12 13  2  0  0  0
 12 96  1  0  0  0
 13 14  1  0  0  0
 13 31  1  0  0  0
 14 15  2  0  0  0
 14 97  1  0  0  0
 15 98  1  0  0  0
 16 17  2  0  0  0
 16 21  1  0  0  0
 16 31  1  0  0  0
 17 18  1  0  0  0
 17 99  1  0  0  0
 18 19  2  0  0  0
 18100  1  0  0  0
 19 20  1  0  0  0
 19 24  1  0  0  0
 20 21  2  0  0  0
 20101  1  0  0  0
 21 23  1  0  0  0
 22 28  1  0  0  0
 22 32  2  0  0  0
 26 27  1  0  0  0
 28102  1  0  0  0
 28103  1  0  0  0
 29104  1  0  0  0
 29105  1  0  0  0
 33 34  1  0  0  0
 33 66  1  0  0  0
 33 70  2  0  0  0
 34 36  1  0  0  0
 34 59  1  0  0  0
 34106  1  0  0  0
 35 44  2  0  0  0
 35 45  1  0  0  0
 35 68  1  0  0  0
 36 56  1  0  0  0
 36107  1  0  0  0
 37 39  1  0  0  0
 37 47  1  0  0  0
 37 66  1  0  0  0
 37108  1  0  0  0
 38 43  2  0  0  0
 38 46  1  0  0  0
 38 47  1  0  0  0
 39 64  1  0  0  0
 39 67  2  0  0  0
 40 52  1  0  0  0
 40 53  2  0  0  0
 40 58  1  0  0  0
 41109  1  0  0  0
 41110  1  0  0  0
 41111  1  0  0  0
 41 48  1  0  0  0
 42 43  1  0  0  0
 42 66  1  0  0  0
 42112  1  0  0  0
 42113  1  0  0  0
 43 44  1  0  0  0
 44114  1  0  0  0
 45 46  2  0  0  0
 45115  1  0  0  0
 46116  1  0  0  0
 47117  1  0  0  0
 47118  1  0  0  0
 48 56  1  0  0  0
 48 65  1  0  0  0
 48119  1  0  0  0
 49 50  1  0  0  0
 49 53  1  0  0  0
 49 64  1  0  0  0
 49120  1  0  0  0
 50 51  1  0  0  0
 50121  1  0  0  0
 50122  1  0  0  0
 51 52  1  0  0  0
 51123  1  0  0  0
 51124  1  0  0  0
 52125  1  0  0  0
 52126  1  0  0  0
 53 54  1  0  0  0
 54 55  2  0  0  0
 54127  1  0  0  0
 55 57  1  0  0  0
 55128  1  0  0  0
 56 69  2  0  0  0
 57 58  2  0  0  0
 57129  1  0  0  0
 58130  1  0  0  0
 59 60  1  0  0  0
 59 61  1  0  0  0
 59 62  1  0  0  0
 60131  1  0  0  0
 60132  1  0  0  0
 60133  1  0  0  0
 61134  1  0  0  0
 61135  1  0  0  0
 61136  1  0  0  0
 62137  1  0  0  0
 62138  1  0  0  0
 62139  1  0  0  0
 63 65  1  0  0  0
 63140  1  0  0  0
 63141  1  0  0  0
 63142  1  0  0  0
 64143  1  0  0  0
 65144  1  0  0  0
 68 82  1  0  0  0
 71 73  2  0  0  0
 71 75  1  0  0  0
 71145  1  0  0  0
 72 74  2  0  0  0
 72 76  1  0  0  0
 72146  1  0  0  0
 73 74  1  0  0  0
 73 78  1  0  0  0
 74 79  1  0  0  0
 75 76  2  0  0  0
 75 84  1  0  0  0
 76 85  1  0  0  0
 77 78  2  0  0  0
 77147  1  0  0  0
 77148  1  0  0  0
 78149  1  0  0  0
 79 80  2  0  0  0
 79150  1  0  0  0
 80151  1  0  0  0
 81 82  1  0  0  0
 81 83  1  0  0  0
 81152  1  0  0  0
 81153  1  0  0  0
 82154  1  0  0  0
 82155  1  0  0  0
 83 84  1  0  0  0
 83156  1  0  0  0
 83157  1  0  0  0
M  ISO  4   1 100  68 101  80 100  82 101
M  END
> <chiral flag>
0

> <version>
0

> <s_m_source_file>
/data/baiqing/PycharmProjects/Reinvent-master-3.2/result/LINK_invent/BTK/process_docking_weight1_custom_product_contain_oxygen_bond_distance_aromatic_linkinvent_7_9_3/rearranged_h_0116.sdf

> <i_m_source_file_index>
90

> <r_mmod_Potential_Energy-OPLS-2005>
37.3764114379883

> <r_mmod_Stretch_Energy-OPLS-2005>
35.0836372375488

> <r_mmod_Bend_Energy-OPLS-2005>
107.960060119629

> <r_mmod_Torsional_Energy-OPLS-2005>
224.99430847168

> <r_mmod_Improper_Torsional_Energy-OPLS-2005>
4.88648700714111

> <r_mmod_Van_der_Waal_Energy-OPLS-2005>
167.827789306641

> <r_mmod_Electrostatic_Energy-OPLS-2005>
-331.430969238281

> <r_mmod_Solvation_Energy-OPLS-2005>
-192.123428344727

> <b_mmod_Minimization_Converged-OPLS-2005>
0

> <r_mmod_RMS_Derivative-OPLS-2005>
3.13658547401428

$$$$
90
                    3D
 Structure written by MMmdl.
162171  0  0  1  0            999 V2000
  -30.6921  -14.6234   20.4477 C   0  0  0  0  0  0
  -30.4028  -12.3709   19.4665 C   0  0  0  0  0  0
  -29.4941  -12.4813   18.2269 C   0  0  0  0  0  0
  -28.0163  -12.3348   18.6350 C   0  0  0  0  0  0
  -27.6363  -13.2328   19.8447 C   0  0  2  0  0  0
  -28.6810  -13.1544   20.9797 C   0  0  0  0  0  0
  -25.2470  -13.8228   20.5678 C   0  0  0  0  0  0
  -24.1771  -13.0458   20.9224 C   0  0  0  0  0  0
  -24.6350  -11.6931   20.8739 C   0  0  0  0  0  0
  -23.9024  -10.4302   21.0397 C   0  0  0  0  0  0
  -24.3597   -9.4219   21.9171 C   0  0  0  0  0  0
  -23.6295   -8.2241   22.0724 C   0  0  0  0  0  0
  -22.4265   -8.0267   21.3530 C   0  0  0  0  0  0
  -21.9897   -9.0223   20.4612 C   0  0  0  0  0  0
  -22.7204  -10.2122   20.3030 C   0  0  0  0  0  0
  -21.6852   -6.0719   22.5280 C   0  0  0  0  0  0
  -21.4010   -6.5627   23.8212 C   0  0  0  0  0  0
  -21.3667   -5.6792   24.9184 C   0  0  0  0  0  0
  -21.6061   -4.3046   24.7236 C   0  0  0  0  0  0
  -21.8823   -3.8128   23.4357 C   0  0  0  0  0  0
  -21.9185   -4.6941   22.3407 C   0  0  0  0  0  0
  -22.7785  -13.5210   21.1890 C   0  0  0  0  0  0
  -22.1651   -4.2142   21.0987 F   0  0  0  0  0  0
  -21.5642   -3.4531   25.7739 F   0  0  0  0  0  0
  -29.9959  -13.4448   20.3971 N   0  0  0  0  0  0
  -26.2893  -12.9420   20.3251 N   0  0  0  0  0  0
  -25.9282  -11.6569   20.5753 N   0  0  0  0  0  0
  -22.0422  -12.8195   22.0444 N   0  0  0  0  0  0
  -25.4161  -15.1956   20.4094 N   0  0  0  0  0  0
  -31.8830  -14.6569   20.1354 O   0  0  0  0  0  0
  -21.6638   -6.8858   21.4236 O   0  0  0  0  0  0
  -22.3452  -14.5488   20.6699 O   0  0  0  0  0  0
  -24.6241  -31.8599   23.2015 C   0  0  0  0  0  0
  -25.9083  -32.4790   23.8343 C   0  0  1  0  0  0
  -27.2221  -27.3140   20.1267 C   0  0  0  0  0  0
  -25.5897  -33.8596   24.2265 N   0  0  0  0  0  0
  -23.4169  -30.4830   21.5467 C   0  0  2  0  0  0
  -24.8628  -28.9359   20.1129 C   0  0  0  0  0  0
  -22.7458  -29.4615   22.4953 C   0  0  0  0  0  0
  -18.0275  -28.1382   22.8483 C   0  0  0  0  0  0
  -24.1495  -36.7296   23.2637 C   0  0  0  0  0  0
  -25.9580  -30.7920   21.3697 C   0  0  0  0  0  0
  -26.0323  -29.4175   20.7144 C   0  0  0  0  0  0
  -27.2162  -28.6213   20.7050 C   0  0  0  0  0  0
  -26.0269  -26.8807   19.5083 C   0  0  0  0  0  0
  -24.8630  -27.6733   19.4994 C   0  0  0  0  0  0
  -23.6294  -29.8164   20.1622 C   0  0  0  0  0  0
  -25.4124  -36.3096   24.0324 C   0  0  1  0  0  0
  -20.5874  -28.3676   23.1298 C   0  0  2  0  0  0
  -20.6778  -26.9406   22.5414 C   0  0  0  0  0  0
  -19.5754  -26.6380   21.5219 C   0  0  0  0  0  0
  -18.1925  -26.7924   22.1620 C   0  0  0  0  0  0
  -19.1527  -28.8843   23.2890 C   0  0  0  0  0  0
  -18.9456  -30.1453   23.8898 C   0  0  0  0  0  0
  -17.6455  -30.6594   24.0550 C   0  0  0  0  0  0
  -25.9054  -34.9464   23.5108 C   0  0  0  0  0  0
  -16.5344  -29.9092   23.6328 C   0  0  0  0  0  0
  -16.7259  -28.6508   23.0347 C   0  0  0  0  0  0
  -26.4460  -31.6586   25.0701 C   0  0  0  0  0  0
  -25.3692  -31.3701   26.1419 C   0  0  0  0  0  0
  -27.0266  -30.3007   24.6122 C   0  0  0  0  0  0
  -27.6024  -32.4306   25.7470 C   0  0  0  0  0  0
  -27.5590  -37.1806   24.8461 C   0  0  0  0  0  0
  -21.4172  -29.3030   22.3694 N   0  0  0  0  0  0
  -26.4302  -37.3794   23.9406 N   0  0  0  0  0  0
  -24.6857  -31.0616   22.0970 N   0  0  0  0  0  0
  -23.4191  -28.8152   23.3035 O   0  0  0  0  0  0
  -28.3428  -26.4690   20.1774 O   0  0  0  0  0  0
  -26.5645  -34.8928   22.4685 O   0  0  0  0  0  0
  -23.5403  -32.1389   23.7352 O   0  0  0  0  0  0
  -30.7964  -19.3864   21.3397 C   0  0  0  0  0  0
  -30.4835  -20.7507   21.5607 C   0  0  0  0  0  0
  -28.6212  -20.5559   20.0622 C   0  0  0  0  0  0
  -28.9299  -19.1711   19.8142 C   0  0  0  0  0  0
  -30.0474  -18.5465   20.4735 C   0  0  0  0  0  0
  -29.3743  -21.3805   20.9416 C   0  0  0  0  0  0
  -28.8429  -22.9907   22.6567 C   0  0  0  0  0  0
  -28.1887  -17.3658   18.1427 C   0  0  0  0  0  0
  -28.0483  -18.5224   18.8137 C   0  0  0  0  0  0
  -29.3959  -24.3509   23.0416 C   0  0  0  0  0  0
  -30.1462  -24.7469   21.7751 C   0  0  0  0  0  0
  -29.3466  -24.0488   20.6647 C   0  0  2  0  0  0
  -30.6518  -17.1172   20.1931 C   0  0  0  0  0  0
  -28.1195  -25.0022   20.2685 C   0  0  0  0  0  0
  -28.9775  -22.7426   21.3344 N   0  0  0  0  0  0
  -30.0117  -15.8077   20.5785 N   0  0  0  0  0  0
  -28.3590  -22.2268   23.4996 O   0  0  0  0  0  0
  -31.4505  -12.4354   19.1715 H   0  0  0  0  0  0
  -30.2897  -11.3932   19.9384 H   0  0  0  0  0  0
  -29.7544  -11.7144   17.4955 H   0  0  0  0  0  0
  -29.6528  -13.4425   17.7356 H   0  0  0  0  0  0
  -27.8472  -11.2845   18.8818 H   0  0  0  0  0  0
  -27.3658  -12.5525   17.7871 H   0  0  0  0  0  0
  -27.6326  -14.2592   19.4734 H   0  0  0  0  0  0
  -28.6790  -12.1632   21.4354 H   0  0  0  0  0  0
  -28.4394  -13.8612   21.7744 H   0  0  0  0  0  0
  -25.2744   -9.5727   22.4755 H   0  0  0  0  0  0
  -24.0023   -7.4625   22.7424 H   0  0  0  0  0  0
  -21.0839   -8.8701   19.8909 H   0  0  0  0  0  0
  -22.3627  -10.9648   19.6136 H   0  0  0  0  0  0
  -21.1997   -7.6129   23.9722 H   0  0  0  0  0  0
  -21.1497   -6.0510   25.9097 H   0  0  0  0  0  0
  -22.0594   -2.7584   23.2851 H   0  0  0  0  0  0
  -22.4038  -11.9898   22.4914 H   0  0  0  0  0  0
  -21.1006  -13.1175   22.2565 H   0  0  0  0  0  0
  -24.6525  -15.8528   20.5211 H   0  0  0  0  0  0
  -26.2671  -15.6331   20.0791 H   0  0  0  0  0  0
  -26.7132  -32.5462   23.1072 H   0  0  0  0  0  0
  -24.9973  -33.9738   25.0358 H   0  0  0  0  0  0
  -22.7103  -31.3042   21.4068 H   0  0  0  0  0  0
  -23.3773  -35.9617   23.3308 H   0  0  0  0  0  0
  -24.3581  -36.8912   22.2051 H   0  0  0  0  0  0
  -23.7238  -37.6495   23.6653 H   0  0  0  0  0  0
  -26.0824  -31.5564   20.6014 H   0  0  0  0  0  0
  -26.8418  -30.8451   21.9941 H   0  0  0  0  0  0
  -28.1162  -28.9872   21.1793 H   0  0  0  0  0  0
  -25.9691  -25.9128   19.0338 H   0  0  0  0  0  0
  -23.9658  -27.2986   19.0258 H   0  0  0  0  0  0
  -23.7409  -30.5944   19.4062 H   0  0  0  0  0  0
  -22.7483  -29.2447   19.8638 H   0  0  0  0  0  0
  -25.1313  -36.1948   25.0821 H   0  0  0  0  0  0
  -20.9960  -28.3259   24.1423 H   0  0  0  0  0  0
  -20.5700  -26.2286   23.3608 H   0  0  0  0  0  0
  -21.6647  -26.7461   22.1195 H   0  0  0  0  0  0
  -19.6925  -25.6296   21.1245 H   0  0  0  0  0  0
  -19.6701  -27.3194   20.6756 H   0  0  0  0  0  0
  -17.4200  -26.6657   21.4021 H   0  0  0  0  0  0
  -18.0334  -26.0070   22.9027 H   0  0  0  0  0  0
  -19.7935  -30.7267   24.2268 H   0  0  0  0  0  0
  -17.5013  -31.6282   24.5137 H   0  0  0  0  0  0
  -15.5346  -30.2990   23.7666 H   0  0  0  0  0  0
  -15.8656  -28.0829   22.7064 H   0  0  0  0  0  0
  -24.5879  -30.7042   25.7729 H   0  0  0  0  0  0
  -24.8855  -32.2850   26.4858 H   0  0  0  0  0  0
  -25.8014  -30.8858   27.0183 H   0  0  0  0  0  0
  -26.2803  -29.6804   24.1136 H   0  0  0  0  0  0
  -27.3942  -29.7222   25.4607 H   0  0  0  0  0  0
  -27.8697  -30.4290   23.9330 H   0  0  0  0  0  0
  -27.2639  -33.3603   26.2059 H   0  0  0  0  0  0
  -28.3827  -32.6872   25.0292 H   0  0  0  0  0  0
  -28.0689  -31.8411   26.5371 H   0  0  0  0  0  0
  -28.2600  -38.0109   24.7536 H   0  0  0  0  0  0
  -28.1089  -36.2646   24.6262 H   0  0  0  0  0  0
  -27.2297  -37.1425   25.8857 H   0  0  0  0  0  0
  -20.9341  -29.8742   21.6891 H   0  0  0  0  0  0
  -26.0185  -38.2864   24.1434 H   0  0  0  0  0  0
  -31.6665  -18.9887   21.8441 H   0  0  0  0  0  0
  -31.1066  -21.3094   22.2476 H   0  0  0  0  0  0
  -27.7667  -21.0010   19.5706 H   0  0  0  0  0  0
  -27.4182  -17.0589   17.4480 H   0  0  0  0  0  0
  -29.0280  -16.7003   18.2343 H   0  0  0  0  0  0
  -27.1409  -19.0683   18.5967 H   0  0  0  0  0  0
  -30.0539  -24.2920   23.9088 H   0  0  0  0  0  0
  -28.5736  -25.0316   23.2591 H   0  0  0  0  0  0
  -31.1632  -24.3523   21.8063 H   0  0  0  0  0  0
  -30.2315  -25.8262   21.6510 H   0  0  0  0  0  0
  -29.9827  -23.8729   19.7964 H   0  0  0  0  0  0
  -31.6355  -17.1130   20.6666 H   0  0  0  0  0  0
  -30.9012  -17.0768   19.1317 H   0  0  0  0  0  0
  -27.3188  -24.8453   20.9942 H   0  0  0  0  0  0
  -27.7280  -24.6416   19.3174 H   0  0  0  0  0  0
  -29.0190  -15.7899   20.7579 H   0  0  0  0  0  0
  1 25  1  0  0  0
  1 30  2  0  0  0
  1 86  1  0  0  0
  2  3  1  0  0  0
  2 25  1  0  0  0
  2 88  1  0  0  0
  2 89  1  0  0  0
  3  4  1  0  0  0
  3 90  1  0  0  0
  3 91  1  0  0  0
  4  5  1  0  0  0
  4 92  1  0  0  0
  4 93  1  0  0  0
  5  6  1  0  0  0
  5 26  1  0  0  0
  5 94  1  0  0  0
  6 25  1  0  0  0
  6 95  1  0  0  0
  6 96  1  0  0  0
  7  8  2  0  0  0
  7 26  1  0  0  0
  7 29  1  0  0  0
  8  9  1  0  0  0
  8 22  1  0  0  0
  9 10  1  0  0  0
  9 27  2  0  0  0
 10 11  2  0  0  0
 10 15  1  0  0  0
 11 12  1  0  0  0
 11 97  1  0  0  0
 12 13  2  0  0  0
 12 98  1  0  0  0
 13 14  1  0  0  0
 13 31  1  0  0  0
 14 15  2  0  0  0
 14 99  1  0  0  0
 15100  1  0  0  0
 16 17  2  0  0  0
 16 21  1  0  0  0
 16 31  1  0  0  0
 17 18  1  0  0  0
 17101  1  0  0  0
 18 19  2  0  0  0
 18102  1  0  0  0
 19 20  1  0  0  0
 19 24  1  0  0  0
 20 21  2  0  0  0
 20103  1  0  0  0
 21 23  1  0  0  0
 22 28  1  0  0  0
 22 32  2  0  0  0
 26 27  1  0  0  0
 28104  1  0  0  0
 28105  1  0  0  0
 29106  1  0  0  0
 29107  1  0  0  0
 33 34  1  0  0  0
 33 66  1  0  0  0
 33 70  2  0  0  0
 34 36  1  0  0  0
 34 59  1  0  0  0
 34108  1  0  0  0
 35 44  2  0  0  0
 35 45  1  0  0  0
 35 68  1  0  0  0
 36 56  1  0  0  0
 36109  1  0  0  0
 37 39  1  0  0  0
 37 47  1  0  0  0
 37 66  1  0  0  0
 37110  1  0  0  0
 38 43  2  0  0  0
 38 46  1  0  0  0
 38 47  1  0  0  0
 39 64  1  0  0  0
 39 67  2  0  0  0
 40 52  1  0  0  0
 40 53  2  0  0  0
 40 58  1  0  0  0
 41111  1  0  0  0
 41112  1  0  0  0
 41113  1  0  0  0
 41 48  1  0  0  0
 42 43  1  0  0  0
 42 66  1  0  0  0
 42114  1  0  0  0
 42115  1  0  0  0
 43 44  1  0  0  0
 44116  1  0  0  0
 45 46  2  0  0  0
 45117  1  0  0  0
 46118  1  0  0  0
 47119  1  0  0  0
 47120  1  0  0  0
 48 56  1  0  0  0
 48 65  1  0  0  0
 48121  1  0  0  0
 49 50  1  0  0  0
 49 53  1  0  0  0
 49 64  1  0  0  0
 49122  1  0  0  0
 50 51  1  0  0  0
 50123  1  0  0  0
 50124  1  0  0  0
 51 52  1  0  0  0
 51125  1  0  0  0
 51126  1  0  0  0
 52127  1  0  0  0
 52128  1  0  0  0
 53 54  1  0  0  0
 54 55  2  0  0  0
 54129  1  0  0  0
 55 57  1  0  0  0
 55130  1  0  0  0
 56 69  2  0  0  0
 57 58  2  0  0  0
 57131  1  0  0  0
 58132  1  0  0  0
 59 60  1  0  0  0
 59 61  1  0  0  0
 59 62  1  0  0  0
 60133  1  0  0  0
 60134  1  0  0  0
 60135  1  0  0  0
 61136  1  0  0  0
 61137  1  0  0  0
 61138  1  0  0  0
 62139  1  0  0  0
 62140  1  0  0  0
 62141  1  0  0  0
 63 65  1  0  0  0
 63142  1  0  0  0
 63143  1  0  0  0
 63144  1  0  0  0
 64145  1  0  0  0
 65146  1  0  0  0
 68 84  1  0  0  0
 71 72  2  0  0  0
 71 75  1  0  0  0
 71147  1  0  0  0
 72 76  1  0  0  0
 72148  1  0  0  0
 73 74  1  0  0  0
 73 76  2  0  0  0
 73149  1  0  0  0
 74 75  2  0  0  0
 74 79  1  0  0  0
 75 83  1  0  0  0
 76 85  1  0  0  0
 77 80  1  0  0  0
 77 85  1  0  0  0
 77 87  2  0  0  0
 78 79  2  0  0  0
 78150  1  0  0  0
 78151  1  0  0  0
 79152  1  0  0  0
 80 81  1  0  0  0
 80153  1  0  0  0
 80154  1  0  0  0
 81 82  1  0  0  0
 81155  1  0  0  0
 81156  1  0  0  0
 82 84  1  0  0  0
 82 85  1  0  0  0
 82157  1  0  0  0
 83 86  1  0  0  0
 83158  1  0  0  0
 83159  1  0  0  0
 84160  1  0  0  0
 84161  1  0  0  0
 86162  1  0  0  0
M  ISO  4   1 100  68 101  84 101  86 100
M  END
> <chiral flag>
0

> <version>
0

> <s_m_source_file>
/data/baiqing/PycharmProjects/Reinvent-master-3.2/result/LINK_invent/BTK/process_docking_weight1_custom_product_contain_oxygen_bond_distance_aromatic_linkinvent_7_9_3/rearranged_h_0116.sdf

> <i_m_source_file_index>
91

> <r_mmod_Potential_Energy-OPLS-2005>
198.082550048828

> <r_mmod_Stretch_Energy-OPLS-2005>
88.7005767822266

> <r_mmod_Bend_Energy-OPLS-2005>
197.420043945312

> <r_mmod_Torsional_Energy-OPLS-2005>
318.757934570312

> <r_mmod_Improper_Torsional_Energy-OPLS-2005>
10.0001745223999

> <r_mmod_Van_der_Waal_Energy-OPLS-2005>
148.148651123047

> <r_mmod_Electrostatic_Energy-OPLS-2005>
-397.652709960938

> <r_mmod_Solvation_Energy-OPLS-2005>
-220.449111938477

> <b_mmod_Minimization_Converged-OPLS-2005>
0

> <r_mmod_RMS_Derivative-OPLS-2005>
2.84067869186401

$$$$
91
                    3D
 Structure written by MMmdl.
162170  0  0  1  0            999 V2000
  -30.7585  -14.3788   20.7049 C   0  0  0  0  0  0
  -30.4224  -12.3122   19.3881 C   0  0  0  0  0  0
  -29.4841  -12.5473   18.1897 C   0  0  0  0  0  0
  -28.0082  -12.3921   18.6045 C   0  0  0  0  0  0
  -27.6685  -13.1987   19.8850 C   0  0  2  0  0  0
  -28.7067  -12.9077   20.9896 C   0  0  0  0  0  0
  -25.2622  -13.8149   20.5689 C   0  0  0  0  0  0
  -24.1856  -13.0440   20.9166 C   0  0  0  0  0  0
  -24.6392  -11.6902   20.8722 C   0  0  0  0  0  0
  -23.9052  -10.4296   21.0398 C   0  0  0  0  0  0
  -24.3604   -9.4216   21.9180 C   0  0  0  0  0  0
  -23.6285   -8.2249   22.0754 C   0  0  0  0  0  0
  -22.4267   -8.0282   21.3545 C   0  0  0  0  0  0
  -21.9900   -9.0252   20.4645 C   0  0  0  0  0  0
  -22.7222  -10.2136   20.3050 C   0  0  0  0  0  0
  -21.6851   -6.0734   22.5280 C   0  0  0  0  0  0
  -21.4013   -6.5638   23.8214 C   0  0  0  0  0  0
  -21.3661   -5.6791   24.9177 C   0  0  0  0  0  0
  -21.6043   -4.3053   24.7227 C   0  0  0  0  0  0
  -21.8819   -3.8145   23.4347 C   0  0  0  0  0  0
  -21.9192   -4.6962   22.3403 C   0  0  0  0  0  0
  -22.7878  -13.5248   21.1834 C   0  0  0  0  0  0
  -22.1657   -4.2147   21.0980 F   0  0  0  0  0  0
  -21.5633   -3.4536   25.7740 F   0  0  0  0  0  0
  -30.0453  -13.2394   20.4671 N   0  0  0  0  0  0
  -26.3057  -12.9305   20.3403 N   0  0  0  0  0  0
  -25.9315  -11.6468   20.5747 N   0  0  0  0  0  0
  -22.0513  -12.8245   22.0390 N   0  0  0  0  0  0
  -25.4365  -15.1866   20.4115 N   0  0  0  0  0  0
  -31.7499  -14.7036   20.0391 O   0  0  0  0  0  0
  -21.6637   -6.8875   21.4242 O   0  0  0  0  0  0
  -22.3563  -14.5555   20.6682 O   0  0  0  0  0  0
  -24.6127  -31.8682   23.2114 C   0  0  0  0  0  0
  -25.9021  -32.4830   23.8405 C   0  0  1  0  0  0
  -27.2400  -27.4590   20.0913 C   0  0  0  0  0  0
  -25.5879  -33.8630   24.2334 N   0  0  0  0  0  0
  -23.4002  -30.4913   21.5513 C   0  0  2  0  0  0
  -24.8491  -28.9584   20.1146 C   0  0  0  0  0  0
  -22.7395  -29.4664   22.5000 C   0  0  0  0  0  0
  -18.0262  -28.1384   22.8496 C   0  0  0  0  0  0
  -24.1480  -36.7323   23.2643 C   0  0  0  0  0  0
  -25.9261  -30.8428   21.3588 C   0  0  0  0  0  0
  -26.0079  -29.4785   20.7065 C   0  0  0  0  0  0
  -27.2093  -28.7362   20.6909 C   0  0  0  0  0  0
  -26.0687  -26.9452   19.4973 C   0  0  0  0  0  0
  -24.8730  -27.6894   19.5077 C   0  0  0  0  0  0
  -23.6073  -29.8206   20.1670 C   0  0  0  0  0  0
  -25.4100  -36.3120   24.0341 C   0  0  1  0  0  0
  -20.5852  -28.3667   23.1328 C   0  0  2  0  0  0
  -20.6758  -26.9405   22.5423 C   0  0  0  0  0  0
  -19.5735  -26.6391   21.5218 C   0  0  0  0  0  0
  -18.1912  -26.7931   22.1628 C   0  0  0  0  0  0
  -19.1511  -28.8839   23.2910 C   0  0  0  0  0  0
  -18.9444  -30.1443   23.8922 C   0  0  0  0  0  0
  -17.6448  -30.6590   24.0569 C   0  0  0  0  0  0
  -25.9024  -34.9484   23.5136 C   0  0  0  0  0  0
  -16.5337  -29.9096   23.6329 C   0  0  0  0  0  0
  -16.7251  -28.6511   23.0354 C   0  0  0  0  0  0
  -26.4469  -31.6603   25.0721 C   0  0  0  0  0  0
  -25.3753  -31.3669   26.1472 C   0  0  0  0  0  0
  -27.0323  -30.3065   24.6068 C   0  0  0  0  0  0
  -27.6033  -32.4337   25.7490 C   0  0  0  0  0  0
  -27.5576  -37.1816   24.8468 C   0  0  0  0  0  0
  -21.4123  -29.3036   22.3736 N   0  0  0  0  0  0
  -26.4291  -37.3798   23.9412 N   0  0  0  0  0  0
  -24.6650  -31.0804   22.0998 N   0  0  0  0  0  0
  -23.4170  -28.8201   23.3036 O   0  0  0  0  0  0
  -28.3931  -26.7110   20.0902 O   0  0  0  0  0  0
  -26.5589  -34.8929   22.4700 O   0  0  0  0  0  0
  -23.5324  -32.1418   23.7521 O   0  0  0  0  0  0
  -30.5110  -17.4988   20.9221 C   0  0  0  0  0  0
  -30.0711  -18.8331   20.7645 C   0  0  0  0  0  0
  -28.2130  -18.3657   22.2399 C   0  0  0  0  0  0
  -29.8199  -16.5670   21.7420 C   0  0  0  0  0  0
  -28.6400  -17.0300   22.4043 C   0  0  0  0  0  0
  -28.9169  -19.2813   21.4385 C   0  0  0  0  0  0
  -30.3771  -15.1825   21.9492 C   0  0  0  0  0  0
  -28.0512  -16.4223   24.8051 C   0  0  0  0  0  0
  -27.7746  -16.1643   23.3179 C   0  0  0  0  0  0
  -28.4940  -23.0319   21.1251 C   0  0  0  0  0  0
  -28.7936  -24.2673   20.2501 C   0  0  0  0  0  0
  -29.0012  -21.6767   20.5883 C   0  0  0  0  0  0
  -28.3313  -25.5648   20.9456 C   0  0  0  0  0  0
  -30.5288  -14.6966   23.1123 N   0  0  0  0  0  0
  -28.4233  -20.5939   21.3798 N   0  0  0  0  0  0
  -31.4628  -12.4312   19.0804 H   0  0  0  0  0  0
  -30.3392  -11.2822   19.7391 H   0  0  0  0  0  0
  -29.7214  -11.8533   17.3825 H   0  0  0  0  0  0
  -29.6476  -13.5490   17.7890 H   0  0  0  0  0  0
  -27.8157  -11.3316   18.7715 H   0  0  0  0  0  0
  -27.3539  -12.6934   17.7854 H   0  0  0  0  0  0
  -27.7351  -14.2574   19.6333 H   0  0  0  0  0  0
  -28.6796  -11.8502   21.2575 H   0  0  0  0  0  0
  -28.4400  -13.4256   21.9042 H   0  0  0  0  0  0
  -25.2748   -9.5701   22.4754 H   0  0  0  0  0  0
  -23.9997   -7.4645   22.7476 H   0  0  0  0  0  0
  -21.0829   -8.8764   19.8949 H   0  0  0  0  0  0
  -22.3673  -10.9672   19.6157 H   0  0  0  0  0  0
  -21.2001   -7.6146   23.9718 H   0  0  0  0  0  0
  -21.1484   -6.0519   25.9081 H   0  0  0  0  0  0
  -22.0597   -2.7606   23.2847 H   0  0  0  0  0  0
  -22.4109  -11.9897   22.4779 H   0  0  0  0  0  0
  -21.1133  -13.1280   22.2586 H   0  0  0  0  0  0
  -24.6722  -15.8443   20.5187 H   0  0  0  0  0  0
  -26.2968  -15.6270   20.1112 H   0  0  0  0  0  0
  -26.7094  -32.5558   23.1179 H   0  0  0  0  0  0
  -25.0032  -33.9793   25.0480 H   0  0  0  0  0  0
  -22.6877  -31.3072   21.4124 H   0  0  0  0  0  0
  -23.3743  -35.9655   23.3318 H   0  0  0  0  0  0
  -24.3571  -36.8930   22.2057 H   0  0  0  0  0  0
  -23.7235  -37.6529   23.6659 H   0  0  0  0  0  0
  -26.0297  -31.6094   20.5891 H   0  0  0  0  0  0
  -26.8167  -30.9013   21.9725 H   0  0  0  0  0  0
  -28.1057  -29.1323   21.1474 H   0  0  0  0  0  0
  -26.0843  -25.9692   19.0325 H   0  0  0  0  0  0
  -23.9820  -27.2813   19.0514 H   0  0  0  0  0  0
  -23.7082  -30.5947   19.4055 H   0  0  0  0  0  0
  -22.7330  -29.2359   19.8763 H   0  0  0  0  0  0
  -25.1279  -36.1991   25.0836 H   0  0  0  0  0  0
  -20.9941  -28.3242   24.1448 H   0  0  0  0  0  0
  -20.5672  -26.2270   23.3605 H   0  0  0  0  0  0
  -21.6628  -26.7467   22.1202 H   0  0  0  0  0  0
  -19.6899  -25.6306   21.1232 H   0  0  0  0  0  0
  -19.6677  -27.3211   20.6756 H   0  0  0  0  0  0
  -17.4183  -26.6683   21.4028 H   0  0  0  0  0  0
  -18.0306  -26.0071   22.9018 H   0  0  0  0  0  0
  -19.7921  -30.7250   24.2303 H   0  0  0  0  0  0
  -17.5010  -31.6274   24.5170 H   0  0  0  0  0  0
  -15.5340  -30.3010   23.7644 H   0  0  0  0  0  0
  -15.8647  -28.0836   22.7067 H   0  0  0  0  0  0
  -24.5927  -30.7019   25.7798 H   0  0  0  0  0  0
  -24.8942  -32.2806   26.4972 H   0  0  0  0  0  0
  -25.8124  -30.8801   27.0198 H   0  0  0  0  0  0
  -26.2855  -29.6797   24.1177 H   0  0  0  0  0  0
  -27.4182  -29.7324   25.4500 H   0  0  0  0  0  0
  -27.8643  -30.4420   23.9154 H   0  0  0  0  0  0
  -27.2640  -33.3634   26.2075 H   0  0  0  0  0  0
  -28.3838  -32.6905   25.0316 H   0  0  0  0  0  0
  -28.0707  -31.8464   26.5405 H   0  0  0  0  0  0
  -28.2596  -38.0111   24.7524 H   0  0  0  0  0  0
  -28.1071  -36.2645   24.6292 H   0  0  0  0  0  0
  -27.2292  -37.1460   25.8868 H   0  0  0  0  0  0
  -20.9273  -29.8756   21.6962 H   0  0  0  0  0  0
  -26.0188  -38.2877   24.1416 H   0  0  0  0  0  0
  -31.4201  -17.2060   20.4172 H   0  0  0  0  0  0
  -30.6440  -19.5002   20.1368 H   0  0  0  0  0  0
  -27.3244  -18.6927   22.7623 H   0  0  0  0  0  0
  -27.4120  -15.7973   25.4293 H   0  0  0  0  0  0
  -27.8552  -17.4612   25.0704 H   0  0  0  0  0  0
  -29.0850  -16.2023   25.0678 H   0  0  0  0  0  0
  -27.8767  -15.1063   23.1008 H   0  0  0  0  0  0
  -26.7262  -16.3840   23.1088 H   0  0  0  0  0  0
  -27.4124  -22.9808   21.2605 H   0  0  0  0  0  0
  -28.9139  -23.1921   22.1201 H   0  0  0  0  0  0
  -28.2790  -24.1614   19.2941 H   0  0  0  0  0  0
  -29.8596  -24.3280   20.0272 H   0  0  0  0  0  0
  -30.0916  -21.6486   20.6251 H   0  0  0  0  0  0
  -28.7076  -21.5484   19.5449 H   0  0  0  0  0  0
  -28.9666  -25.7590   21.8105 H   0  0  0  0  0  0
  -27.3268  -25.4145   21.3488 H   0  0  0  0  0  0
  -30.2266  -15.3612   23.8136 H   0  0  0  0  0  0
  -27.5716  -20.8029   21.8939 H   0  0  0  0  0  0
  1 25  1  0  0  0
  1 30  2  0  0  0
  1 77  1  0  0  0
  2  3  1  0  0  0
  2 25  1  0  0  0
  2 86  1  0  0  0
  2 87  1  0  0  0
  3  4  1  0  0  0
  3 88  1  0  0  0
  3 89  1  0  0  0
  4  5  1  0  0  0
  4 90  1  0  0  0
  4 91  1  0  0  0
  5  6  1  0  0  0
  5 26  1  0  0  0
  5 92  1  0  0  0
  6 25  1  0  0  0
  6 93  1  0  0  0
  6 94  1  0  0  0
  7  8  2  0  0  0
  7 26  1  0  0  0
  7 29  1  0  0  0
  8  9  1  0  0  0
  8 22  1  0  0  0
  9 10  1  0  0  0
  9 27  2  0  0  0
 10 11  2  0  0  0
 10 15  1  0  0  0
 11 12  1  0  0  0
 11 95  1  0  0  0
 12 13  2  0  0  0
 12 96  1  0  0  0
 13 14  1  0  0  0
 13 31  1  0  0  0
 14 15  2  0  0  0
 14 97  1  0  0  0
 15 98  1  0  0  0
 16 17  2  0  0  0
 16 21  1  0  0  0
 16 31  1  0  0  0
 17 18  1  0  0  0
 17 99  1  0  0  0
 18 19  2  0  0  0
 18100  1  0  0  0
 19 20  1  0  0  0
 19 24  1  0  0  0
 20 21  2  0  0  0
 20101  1  0  0  0
 21 23  1  0  0  0
 22 28  1  0  0  0
 22 32  2  0  0  0
 26 27  1  0  0  0
 28102  1  0  0  0
 28103  1  0  0  0
 29104  1  0  0  0
 29105  1  0  0  0
 33 34  1  0  0  0
 33 66  1  0  0  0
 33 70  2  0  0  0
 34 36  1  0  0  0
 34 59  1  0  0  0
 34106  1  0  0  0
 35 44  2  0  0  0
 35 45  1  0  0  0
 35 68  1  0  0  0
 36 56  1  0  0  0
 36107  1  0  0  0
 37 39  1  0  0  0
 37 47  1  0  0  0
 37 66  1  0  0  0
 37108  1  0  0  0
 38 43  2  0  0  0
 38 46  1  0  0  0
 38 47  1  0  0  0
 39 64  1  0  0  0
 39 67  2  0  0  0
 40 52  1  0  0  0
 40 53  2  0  0  0
 40 58  1  0  0  0
 41109  1  0  0  0
 41110  1  0  0  0
 41111  1  0  0  0
 41 48  1  0  0  0
 42 43  1  0  0  0
 42 66  1  0  0  0
 42112  1  0  0  0
 42113  1  0  0  0
 43 44  1  0  0  0
 44114  1  0  0  0
 45 46  2  0  0  0
 45115  1  0  0  0
 46116  1  0  0  0
 47117  1  0  0  0
 47118  1  0  0  0
 48 56  1  0  0  0
 48 65  1  0  0  0
 48119  1  0  0  0
 49 50  1  0  0  0
 49 53  1  0  0  0
 49 64  1  0  0  0
 49120  1  0  0  0
 50 51  1  0  0  0
 50121  1  0  0  0
 50122  1  0  0  0
 51 52  1  0  0  0
 51123  1  0  0  0
 51124  1  0  0  0
 52125  1  0  0  0
 52126  1  0  0  0
 53 54  1  0  0  0
 54 55  2  0  0  0
 54127  1  0  0  0
 55 57  1  0  0  0
 55128  1  0  0  0
 56 69  2  0  0  0
 57 58  2  0  0  0
 57129  1  0  0  0
 58130  1  0  0  0
 59 60  1  0  0  0
 59 61  1  0  0  0
 59 62  1  0  0  0
 60131  1  0  0  0
 60132  1  0  0  0
 60133  1  0  0  0
 61134  1  0  0  0
 61135  1  0  0  0
 61136  1  0  0  0
 62137  1  0  0  0
 62138  1  0  0  0
 62139  1  0  0  0
 63 65  1  0  0  0
 63140  1  0  0  0
 63141  1  0  0  0
 63142  1  0  0  0
 64143  1  0  0  0
 65144  1  0  0  0
 68 83  1  0  0  0
 71 72  2  0  0  0
 71 74  1  0  0  0
 71145  1  0  0  0
 72 76  1  0  0  0
 72146  1  0  0  0
 73 75  1  0  0  0
 73 76  2  0  0  0
 73147  1  0  0  0
 74 75  2  0  0  0
 74 77  1  0  0  0
 75 79  1  0  0  0
 76 85  1  0  0  0
 77 84  2  0  0  0
 78 79  1  0  0  0
 78148  1  0  0  0
 78149  1  0  0  0
 78150  1  0  0  0
 79151  1  0  0  0
 79152  1  0  0  0
 80 81  1  0  0  0
 80 82  1  0  0  0
 80153  1  0  0  0
 80154  1  0  0  0
 81 83  1  0  0  0
 81155  1  0  0  0
 81156  1  0  0  0
 82 85  1  0  0  0
 82157  1  0  0  0
 82158  1  0  0  0
 83159  1  0  0  0
 83160  1  0  0  0
 84161  1  0  0  0
 85162  1  0  0  0
M  ISO  4   1 100  68 101  77 100  83 101
M  END
> <chiral flag>
0

> <version>
0

> <s_m_source_file>
/data/baiqing/PycharmProjects/Reinvent-master-3.2/result/LINK_invent/BTK/process_docking_weight1_custom_product_contain_oxygen_bond_distance_aromatic_linkinvent_7_9_3/rearranged_h_0116.sdf

> <i_m_source_file_index>
92

> <r_mmod_Potential_Energy-OPLS-2005>
111.99388885498

> <r_mmod_Stretch_Energy-OPLS-2005>
39.8261756896973

> <r_mmod_Bend_Energy-OPLS-2005>
114.065475463867

> <r_mmod_Torsional_Energy-OPLS-2005>
233.103927612305

> <r_mmod_Improper_Torsional_Energy-OPLS-2005>
2.95601773262024

> <r_mmod_Van_der_Waal_Energy-OPLS-2005>
149.040374755859

> <r_mmod_Electrostatic_Energy-OPLS-2005>
-239.464096069336

> <r_mmod_Solvation_Energy-OPLS-2005>
-195.5048828125

> <b_mmod_Minimization_Converged-OPLS-2005>
0

> <r_mmod_RMS_Derivative-OPLS-2005>
0.760467350482941

$$$$
92
                    3D
 Structure written by MMmdl.
158166  0  0  1  0            999 V2000
  -30.6934  -14.5515   20.3756 C   0  0  0  0  0  0
  -30.4266  -12.3048   19.4310 C   0  0  0  0  0  0
  -29.4870  -12.4018   18.2101 C   0  0  0  0  0  0
  -28.0084  -12.2786   18.6338 C   0  0  0  0  0  0
  -27.6360  -13.1788   19.8408 C   0  0  2  0  0  0
  -28.7023  -13.1089   20.9585 C   0  0  0  0  0  0
  -25.2574  -13.8064   20.5717 C   0  0  0  0  0  0
  -24.1792  -13.0400   20.9216 C   0  0  0  0  0  0
  -24.6308  -11.6858   20.8795 C   0  0  0  0  0  0
  -23.8978  -10.4267   21.0459 C   0  0  0  0  0  0
  -24.3559   -9.4187   21.9226 C   0  0  0  0  0  0
  -23.6246   -8.2225   22.0780 C   0  0  0  0  0  0
  -22.4226   -8.0271   21.3564 C   0  0  0  0  0  0
  -21.9856   -9.0238   20.4666 C   0  0  0  0  0  0
  -22.7176  -10.2115   20.3086 C   0  0  0  0  0  0
  -21.6842   -6.0711   22.5275 C   0  0  0  0  0  0
  -21.4020   -6.5635   23.8197 C   0  0  0  0  0  0
  -21.3649   -5.6808   24.9173 C   0  0  0  0  0  0
  -21.6000   -4.3057   24.7239 C   0  0  0  0  0  0
  -21.8812   -3.8141   23.4368 C   0  0  0  0  0  0
  -21.9180   -4.6944   22.3419 C   0  0  0  0  0  0
  -22.7811  -13.5249   21.1850 C   0  0  0  0  0  0
  -22.1649   -4.2127   21.0997 F   0  0  0  0  0  0
  -21.5631   -3.4547   25.7758 F   0  0  0  0  0  0
  -30.0274  -13.3615   20.3696 N   0  0  0  0  0  0
  -26.2911  -12.9153   20.3326 N   0  0  0  0  0  0
  -25.9216  -11.6348   20.5854 N   0  0  0  0  0  0
  -22.0445  -12.8270   22.0413 N   0  0  0  0  0  0
  -25.4365  -15.1790   20.4162 N   0  0  0  0  0  0
  -31.9176  -14.6375   20.2465 O   0  0  0  0  0  0
  -21.6619   -6.8850   21.4232 O   0  0  0  0  0  0
  -22.3538  -14.5573   20.6705 O   0  0  0  0  0  0
  -24.6119  -31.8698   23.2138 C   0  0  0  0  0  0
  -25.9007  -32.4871   23.8427 C   0  0  1  0  0  0
  -27.2268  -27.4462   20.0968 C   0  0  0  0  0  0
  -25.5842  -33.8659   24.2365 N   0  0  0  0  0  0
  -23.3989  -30.4918   21.5577 C   0  0  2  0  0  0
  -24.8445  -28.9637   20.1142 C   0  0  0  0  0  0
  -22.7407  -29.4646   22.5062 C   0  0  0  0  0  0
  -18.0288  -28.1353   22.8522 C   0  0  0  0  0  0
  -24.1485  -36.7334   23.2629 C   0  0  0  0  0  0
  -25.9256  -30.8413   21.3612 C   0  0  0  0  0  0
  -26.0062  -29.4767   20.7075 C   0  0  0  0  0  0
  -27.2048  -28.7265   20.6907 C   0  0  0  0  0  0
  -26.0528  -26.9463   19.4958 C   0  0  0  0  0  0
  -24.8592  -27.6974   19.5049 C   0  0  0  0  0  0
  -23.6058  -29.8282   20.1709 C   0  0  0  0  0  0
  -25.4116  -36.3151   24.0346 C   0  0  1  0  0  0
  -20.5879  -28.3685   23.1414 C   0  0  2  0  0  0
  -20.6773  -26.9465   22.5447 C   0  0  0  0  0  0
  -19.5865  -26.6547   21.5119 C   0  0  0  0  0  0
  -18.2002  -26.7957   22.1523 C   0  0  0  0  0  0
  -19.1550  -28.8805   23.2990 C   0  0  0  0  0  0
  -18.9451  -30.1400   23.8996 C   0  0  0  0  0  0
  -17.6467  -30.6528   24.0674 C   0  0  0  0  0  0
  -25.9030  -34.9505   23.5180 C   0  0  0  0  0  0
  -16.5349  -29.9055   23.6416 C   0  0  0  0  0  0
  -16.7293  -28.6495   23.0387 C   0  0  0  0  0  0
  -26.4463  -31.6625   25.0731 C   0  0  0  0  0  0
  -25.3743  -31.3725   26.1483 C   0  0  0  0  0  0
  -27.0311  -30.3092   24.6094 C   0  0  0  0  0  0
  -27.6075  -32.4294   25.7475 C   0  0  0  0  0  0
  -27.5608  -37.1819   24.8478 C   0  0  0  0  0  0
  -21.4115  -29.3074   22.3855 N   0  0  0  0  0  0
  -26.4331  -37.3827   23.9418 N   0  0  0  0  0  0
  -24.6638  -31.0791   22.1040 N   0  0  0  0  0  0
  -23.4202  -28.8156   23.3055 O   0  0  0  0  0  0
  -28.3728  -26.6837   20.1071 O   0  0  0  0  0  0
  -26.5611  -34.8946   22.4747 O   0  0  0  0  0  0
  -23.5297  -32.1403   23.7568 O   0  0  0  0  0  0
  -30.0116  -16.8478   22.2239 C   0  0  0  0  0  0
  -29.3802  -19.1652   22.6556 C   0  0  0  0  0  0
  -29.7757  -16.9989   20.8338 C   0  0  0  0  0  0
  -29.3672  -18.3012   20.3679 C   0  0  0  0  0  0
  -29.1322  -19.3609   21.2874 C   0  0  0  0  0  0
  -29.8420  -17.9218   23.1165 C   0  0  0  0  0  0
  -28.0578  -19.0119   18.3571 C   0  0  0  0  0  0
  -29.2070  -18.6249   18.9341 C   0  0  0  0  0  0
  -29.8623  -15.7793   19.9324 C   0  0  0  0  0  0
  -28.8779  -24.2629   20.2638 C   0  0  0  0  0  0
  -28.3218  -22.9026   20.7165 C   0  0  0  0  0  0
  -28.2602  -25.5073   20.9260 C   0  0  0  0  0  0
  -29.3022  -21.7015   20.7033 C   0  0  0  0  0  0
  -29.3148  -15.7687   18.7886 N   0  0  0  0  0  0
  -29.7477  -24.3549   19.3895 O   0  0  0  0  0  0
  -28.5117  -20.5229   20.8758 O   0  0  0  0  0  0
  -30.0899  -17.7405   24.4369 F   0  0  0  0  0  0
  -31.4642  -12.4099   19.1080 H   0  0  0  0  0  0
  -30.3559  -11.3255   19.9065 H   0  0  0  0  0  0
  -29.7255  -11.6111   17.4987 H   0  0  0  0  0  0
  -29.6445  -13.3399   17.6793 H   0  0  0  0  0  0
  -27.8299  -11.2342   18.8878 H   0  0  0  0  0  0
  -27.3581  -12.4959   17.7863 H   0  0  0  0  0  0
  -27.5963  -14.1849   19.4507 H   0  0  0  0  0  0
  -28.6936  -12.1315   21.4387 H   0  0  0  0  0  0
  -28.4787  -13.8434   21.7360 H   0  0  0  0  0  0
  -25.2696   -9.5668   22.4797 H   0  0  0  0  0  0
  -23.9947   -7.4614   22.7510 H   0  0  0  0  0  0
  -21.0777   -8.8735   19.8979 H   0  0  0  0  0  0
  -22.3630  -10.9652   19.6200 H   0  0  0  0  0  0
  -21.2038   -7.6150   23.9697 H   0  0  0  0  0  0
  -21.1470   -6.0554   25.9069 H   0  0  0  0  0  0
  -22.0597   -2.7601   23.2881 H   0  0  0  0  0  0
  -22.4051  -11.9929   22.4804 H   0  0  0  0  0  0
  -21.1083  -13.1326   22.2644 H   0  0  0  0  0  0
  -24.6810  -15.8450   20.5402 H   0  0  0  0  0  0
  -26.3029  -15.6078   20.1148 H   0  0  0  0  0  0
  -26.7076  -32.5626   23.1177 H   0  0  0  0  0  0
  -24.9991  -33.9853   25.0519 H   0  0  0  0  0  0
  -22.6865  -31.3078   21.4287 H   0  0  0  0  0  0
  -23.3776  -35.9645   23.3329 H   0  0  0  0  0  0
  -24.3555  -36.8908   22.2030 H   0  0  0  0  0  0
  -23.7211  -37.6538   23.6621 H   0  0  0  0  0  0
  -26.0395  -31.6081   20.5927 H   0  0  0  0  0  0
  -26.8110  -30.8986   21.9806 H   0  0  0  0  0  0
  -28.1037  -29.1128   21.1486 H   0  0  0  0  0  0
  -26.0673  -25.9754   19.0256 H   0  0  0  0  0  0
  -23.9633  -27.2979   19.0478 H   0  0  0  0  0  0
  -23.7074  -30.6112   19.4209 H   0  0  0  0  0  0
  -22.7296  -29.2471   19.8740 H   0  0  0  0  0  0
  -25.1289  -36.2027   25.0841 H   0  0  0  0  0  0
  -21.0015  -28.3273   24.1516 H   0  0  0  0  0  0
  -20.5600  -26.2310   23.3583 H   0  0  0  0  0  0
  -21.6661  -26.7540   22.1281 H   0  0  0  0  0  0
  -19.7091  -25.6558   21.0918 H   0  0  0  0  0  0
  -19.6935  -27.3509   20.6770 H   0  0  0  0  0  0
  -17.4238  -26.6684   21.3967 H   0  0  0  0  0  0
  -18.0523  -25.9998   22.8841 H   0  0  0  0  0  0
  -19.7934  -30.7193   24.2419 H   0  0  0  0  0  0
  -17.5050  -31.6235   24.5243 H   0  0  0  0  0  0
  -15.5371  -30.2973   23.7737 H   0  0  0  0  0  0
  -15.8699  -28.0880   22.6996 H   0  0  0  0  0  0
  -24.5901  -30.7111   25.7809 H   0  0  0  0  0  0
  -24.8963  -32.2888   26.4933 H   0  0  0  0  0  0
  -25.8038  -30.8856   27.0244 H   0  0  0  0  0  0
  -26.2876  -29.6818   24.1186 H   0  0  0  0  0  0
  -27.4176  -29.7324   25.4502 H   0  0  0  0  0  0
  -27.8643  -30.4486   23.9222 H   0  0  0  0  0  0
  -27.2781  -33.3579   26.2145 H   0  0  0  0  0  0
  -28.3831  -32.6850   25.0255 H   0  0  0  0  0  0
  -28.0832  -31.8361   26.5290 H   0  0  0  0  0  0
  -28.2656  -38.0083   24.7523 H   0  0  0  0  0  0
  -28.1055  -36.2623   24.6304 H   0  0  0  0  0  0
  -27.2329  -37.1490   25.8876 H   0  0  0  0  0  0
  -20.9258  -29.8732   21.7060 H   0  0  0  0  0  0
  -26.0225  -38.2929   24.1349 H   0  0  0  0  0  0
  -30.3139  -15.8966   22.6373 H   0  0  0  0  0  0
  -29.1780  -19.9576   23.3596 H   0  0  0  0  0  0
  -28.0192  -19.2519   17.3013 H   0  0  0  0  0  0
  -27.1400  -19.0969   18.9247 H   0  0  0  0  0  0
  -30.1035  -18.5658   18.3284 H   0  0  0  0  0  0
  -27.4989  -22.6895   20.0350 H   0  0  0  0  0  0
  -27.8725  -23.0131   21.7046 H   0  0  0  0  0  0
  -27.2237  -25.2843   21.1884 H   0  0  0  0  0  0
  -28.7841  -25.6953   21.8631 H   0  0  0  0  0  0
  -30.0562  -21.8051   21.4880 H   0  0  0  0  0  0
  -29.8208  -21.6324   19.7450 H   0  0  0  0  0  0
  -28.8359  -16.6451   18.6097 H   0  0  0  0  0  0
  1 25  1  0  0  0
  1 30  2  0  0  0
  1 79  1  0  0  0
  2  3  1  0  0  0
  2 25  1  0  0  0
  2 88  1  0  0  0
  2 89  1  0  0  0
  3  4  1  0  0  0
  3 90  1  0  0  0
  3 91  1  0  0  0
  4  5  1  0  0  0
  4 92  1  0  0  0
  4 93  1  0  0  0
  5  6  1  0  0  0
  5 26  1  0  0  0
  5 94  1  0  0  0
  6 25  1  0  0  0
  6 95  1  0  0  0
  6 96  1  0  0  0
  7  8  2  0  0  0
  7 26  1  0  0  0
  7 29  1  0  0  0
  8  9  1  0  0  0
  8 22  1  0  0  0
  9 10  1  0  0  0
  9 27  2  0  0  0
 10 11  2  0  0  0
 10 15  1  0  0  0
 11 12  1  0  0  0
 11 97  1  0  0  0
 12 13  2  0  0  0
 12 98  1  0  0  0
 13 14  1  0  0  0
 13 31  1  0  0  0
 14 15  2  0  0  0
 14 99  1  0  0  0
 15100  1  0  0  0
 16 17  2  0  0  0
 16 21  1  0  0  0
 16 31  1  0  0  0
 17 18  1  0  0  0
 17101  1  0  0  0
 18 19  2  0  0  0
 18102  1  0  0  0
 19 20  1  0  0  0
 19 24  1  0  0  0
 20 21  2  0  0  0
 20103  1  0  0  0
 21 23  1  0  0  0
 22 28  1  0  0  0
 22 32  2  0  0  0
 26 27  1  0  0  0
 28104  1  0  0  0
 28105  1  0  0  0
 29106  1  0  0  0
 29107  1  0  0  0
 33 34  1  0  0  0
 33 66  1  0  0  0
 33 70  2  0  0  0
 34 36  1  0  0  0
 34 59  1  0  0  0
 34108  1  0  0  0
 35 44  2  0  0  0
 35 45  1  0  0  0
 35 68  1  0  0  0
 36 56  1  0  0  0
 36109  1  0  0  0
 37 39  1  0  0  0
 37 47  1  0  0  0
 37 66  1  0  0  0
 37110  1  0  0  0
 38 43  2  0  0  0
 38 46  1  0  0  0
 38 47  1  0  0  0
 39 64  1  0  0  0
 39 67  2  0  0  0
 40 52  1  0  0  0
 40 53  2  0  0  0
 40 58  1  0  0  0
 41111  1  0  0  0
 41112  1  0  0  0
 41113  1  0  0  0
 41 48  1  0  0  0
 42 43  1  0  0  0
 42 66  1  0  0  0
 42114  1  0  0  0
 42115  1  0  0  0
 43 44  1  0  0  0
 44116  1  0  0  0
 45 46  2  0  0  0
 45117  1  0  0  0
 46118  1  0  0  0
 47119  1  0  0  0
 47120  1  0  0  0
 48 56  1  0  0  0
 48 65  1  0  0  0
 48121  1  0  0  0
 49 50  1  0  0  0
 49 53  1  0  0  0
 49 64  1  0  0  0
 49122  1  0  0  0
 50 51  1  0  0  0
 50123  1  0  0  0
 50124  1  0  0  0
 51 52  1  0  0  0
 51125  1  0  0  0
 51126  1  0  0  0
 52127  1  0  0  0
 52128  1  0  0  0
 53 54  1  0  0  0
 54 55  2  0  0  0
 54129  1  0  0  0
 55 57  1  0  0  0
 55130  1  0  0  0
 56 69  2  0  0  0
 57 58  2  0  0  0
 57131  1  0  0  0
 58132  1  0  0  0
 59 60  1  0  0  0
 59 61  1  0  0  0
 59 62  1  0  0  0
 60133  1  0  0  0
 60134  1  0  0  0
 60135  1  0  0  0
 61136  1  0  0  0
 61137  1  0  0  0
 61138  1  0  0  0
 62139  1  0  0  0
 62140  1  0  0  0
 62141  1  0  0  0
 63 65  1  0  0  0
 63142  1  0  0  0
 63143  1  0  0  0
 63144  1  0  0  0
 64145  1  0  0  0
 65146  1  0  0  0
 68 82  1  0  0  0
 71 73  2  0  0  0
 71 76  1  0  0  0
 71147  1  0  0  0
 72 75  1  0  0  0
 72 76  2  0  0  0
 72148  1  0  0  0
 73 74  1  0  0  0
 73 79  1  0  0  0
 74 75  2  0  0  0
 74 78  1  0  0  0
 75 86  1  0  0  0
 76 87  1  0  0  0
 77 78  2  0  0  0
 77149  1  0  0  0
 77150  1  0  0  0
 78151  1  0  0  0
 79 84  2  0  0  0
 80 81  1  0  0  0
 80 82  1  0  0  0
 80 85  2  0  0  0
 81 83  1  0  0  0
 81152  1  0  0  0
 81153  1  0  0  0
 82154  1  0  0  0
 82155  1  0  0  0
 83 86  1  0  0  0
 83156  1  0  0  0
 83157  1  0  0  0
 84158  1  0  0  0
M  ISO  4   1 100  68 101  79 100  82 101
M  END
> <chiral flag>
0

> <version>
0

> <s_m_source_file>
/data/baiqing/PycharmProjects/Reinvent-master-3.2/result/LINK_invent/BTK/process_docking_weight1_custom_product_contain_oxygen_bond_distance_aromatic_linkinvent_7_9_3/rearranged_h_0116.sdf

> <i_m_source_file_index>
93

> <r_mmod_Potential_Energy-OPLS-2005>
233.095199584961

> <r_mmod_Stretch_Energy-OPLS-2005>
46.3245429992676

> <r_mmod_Bend_Energy-OPLS-2005>
102.25414276123

> <r_mmod_Torsional_Energy-OPLS-2005>
326.289642333984

> <r_mmod_Improper_Torsional_Energy-OPLS-2005>
18.1444606781006

> <r_mmod_Van_der_Waal_Energy-OPLS-2005>
159.930023193359

> <r_mmod_Electrostatic_Energy-OPLS-2005>
-244.187271118164

> <r_mmod_Solvation_Energy-OPLS-2005>
-212.086624145508

> <b_mmod_Minimization_Converged-OPLS-2005>
0

> <r_mmod_RMS_Derivative-OPLS-2005>
5.47495794296265

$$$$
93
                    3D
 Structure written by MMmdl.
157165  0  0  1  0            999 V2000
  -30.6946  -14.5179   20.6530 C   0  0  0  0  0  0
  -30.4352  -12.3682   19.4204 C   0  0  0  0  0  0
  -29.5010  -12.5509   18.2067 C   0  0  0  0  0  0
  -28.0225  -12.3805   18.6116 C   0  0  0  0  0  0
  -27.6633  -13.2054   19.8742 C   0  0  2  0  0  0
  -28.7013  -12.9689   20.9902 C   0  0  0  0  0  0
  -25.2622  -13.8145   20.5666 C   0  0  0  0  0  0
  -24.1864  -13.0430   20.9147 C   0  0  0  0  0  0
  -24.6408  -11.6892   20.8714 C   0  0  0  0  0  0
  -23.9080  -10.4280   21.0395 C   0  0  0  0  0  0
  -24.3636   -9.4191   21.9184 C   0  0  0  0  0  0
  -23.6301   -8.2230   22.0756 C   0  0  0  0  0  0
  -22.4278   -8.0273   21.3548 C   0  0  0  0  0  0
  -21.9921   -9.0241   20.4646 C   0  0  0  0  0  0
  -22.7257  -10.2120   20.3044 C   0  0  0  0  0  0
  -21.6853   -6.0719   22.5281 C   0  0  0  0  0  0
  -21.4004   -6.5630   23.8217 C   0  0  0  0  0  0
  -21.3669   -5.6787   24.9179 C   0  0  0  0  0  0
  -21.6059   -4.3048   24.7239 C   0  0  0  0  0  0
  -21.8819   -3.8136   23.4360 C   0  0  0  0  0  0
  -21.9193   -4.6946   22.3405 C   0  0  0  0  0  0
  -22.7894  -13.5236   21.1828 C   0  0  0  0  0  0
  -22.1660   -4.2135   21.0983 F   0  0  0  0  0  0
  -21.5649   -3.4535   25.7756 F   0  0  0  0  0  0
  -30.0323  -13.3326   20.4632 N   0  0  0  0  0  0
  -26.3044  -12.9301   20.3326 N   0  0  0  0  0  0
  -25.9337  -11.6465   20.5733 N   0  0  0  0  0  0
  -22.0522  -12.8230   22.0378 N   0  0  0  0  0  0
  -25.4390  -15.1859   20.4107 N   0  0  0  0  0  0
  -31.7629  -14.7480   20.0788 O   0  0  0  0  0  0
  -21.6654   -6.8865   21.4240 O   0  0  0  0  0  0
  -22.3592  -14.5551   20.6687 O   0  0  0  0  0  0
  -24.6188  -31.8649   23.2057 C   0  0  0  0  0  0
  -25.9034  -32.4824   23.8395 C   0  0  1  0  0  0
  -27.2403  -27.3703   20.1133 C   0  0  0  0  0  0
  -25.5856  -33.8621   24.2323 N   0  0  0  0  0  0
  -23.4137  -30.4842   21.5489 C   0  0  2  0  0  0
  -24.8651  -28.9479   20.1135 C   0  0  0  0  0  0
  -22.7459  -29.4612   22.4981 C   0  0  0  0  0  0
  -18.0263  -28.1406   22.8489 C   0  0  0  0  0  0
  -24.1481  -36.7330   23.2635 C   0  0  0  0  0  0
  -25.9488  -30.8111   21.3692 C   0  0  0  0  0  0
  -26.0281  -29.4403   20.7183 C   0  0  0  0  0  0
  -27.2180  -28.6619   20.7105 C   0  0  0  0  0  0
  -26.0552  -26.9237   19.4800 C   0  0  0  0  0  0
  -24.8786  -27.6939   19.4856 C   0  0  0  0  0  0
  -23.6265  -29.8164   20.1648 C   0  0  0  0  0  0
  -25.4107  -36.3138   24.0338 C   0  0  1  0  0  0
  -20.5860  -28.3685   23.1312 C   0  0  2  0  0  0
  -20.6753  -26.9414   22.5423 C   0  0  0  0  0  0
  -19.5728  -26.6406   21.5218 C   0  0  0  0  0  0
  -18.1911  -26.7948   22.1638 C   0  0  0  0  0  0
  -19.1516  -28.8870   23.2889 C   0  0  0  0  0  0
  -18.9437  -30.1477   23.8906 C   0  0  0  0  0  0
  -17.6435  -30.6605   24.0558 C   0  0  0  0  0  0
  -25.9032  -34.9485   23.5143 C   0  0  0  0  0  0
  -16.5328  -29.9108   23.6321 C   0  0  0  0  0  0
  -16.7246  -28.6523   23.0342 C   0  0  0  0  0  0
  -26.4420  -31.6606   25.0746 C   0  0  0  0  0  0
  -25.3637  -31.3733   26.1460 C   0  0  0  0  0  0
  -27.0220  -30.3028   24.6155 C   0  0  0  0  0  0
  -27.6015  -32.4299   25.7503 C   0  0  0  0  0  0
  -27.5591  -37.1824   24.8455 C   0  0  0  0  0  0
  -21.4181  -29.3031   22.3724 N   0  0  0  0  0  0
  -26.4302  -37.3818   23.9409 N   0  0  0  0  0  0
  -24.6794  -31.0699   22.0993 N   0  0  0  0  0  0
  -23.4197  -28.8153   23.3046 O   0  0  0  0  0  0
  -28.3820  -26.5657   20.1739 O   0  0  0  0  0  0
  -26.5631  -34.8932   22.4734 O   0  0  0  0  0  0
  -23.5358  -32.1417   23.7418 O   0  0  0  0  0  0
  -30.8922  -17.8381   19.4837 C   0  0  0  0  0  0
  -31.2170  -18.9841   18.7280 C   0  0  0  0  0  0
  -29.9110  -19.2784   21.1632 C   0  0  0  0  0  0
  -30.2536  -17.9586   20.7330 C   0  0  0  0  0  0
  -30.9080  -20.2927   19.1850 C   0  0  0  0  0  0
  -30.2010  -20.4489   20.4033 C   0  0  0  0  0  0
  -29.9287  -16.7984   21.6282 C   0  0  0  0  0  0
  -30.0797  -15.4385   21.6267 C   0  0  0  0  0  0
  -32.2041  -21.3130   17.4266 C   0  0  0  0  0  0
  -29.3278  -24.1554   20.4893 C   0  0  0  0  0  0
  -28.2074  -25.1267   19.9764 C   0  0  0  0  0  0
  -29.0763  -22.6329   20.1710 C   0  0  0  0  0  0
  -31.3023  -21.4371   18.5216 O   0  0  0  0  0  0
  -29.9062  -21.7103   20.9269 O   0  0  0  0  0  0
  -31.4730  -12.4984   19.1118 H   0  0  0  0  0  0
  -30.3705  -11.3506   19.8060 H   0  0  0  0  0  0
  -29.7608  -11.8431   17.4186 H   0  0  0  0  0  0
  -29.6483  -13.5456   17.7835 H   0  0  0  0  0  0
  -27.8463  -11.3213   18.8026 H   0  0  0  0  0  0
  -27.3699  -12.6563   17.7829 H   0  0  0  0  0  0
  -27.7121  -14.2578   19.5952 H   0  0  0  0  0  0
  -28.7043  -11.9179   21.2803 H   0  0  0  0  0  0
  -28.4042  -13.4999   21.8912 H   0  0  0  0  0  0
  -25.2761   -9.5683   22.4776 H   0  0  0  0  0  0
  -24.0013   -7.4626   22.7485 H   0  0  0  0  0  0
  -21.0846   -8.8761   19.8950 H   0  0  0  0  0  0
  -22.3705  -10.9668   19.6162 H   0  0  0  0  0  0
  -21.1975   -7.6133   23.9716 H   0  0  0  0  0  0
  -21.1508   -6.0514   25.9090 H   0  0  0  0  0  0
  -22.0592   -2.7593   23.2869 H   0  0  0  0  0  0
  -22.4117  -11.9869   22.4751 H   0  0  0  0  0  0
  -21.1148  -13.1300   22.2588 H   0  0  0  0  0  0
  -24.6877  -15.8555   20.5321 H   0  0  0  0  0  0
  -26.3129  -15.6176   20.1367 H   0  0  0  0  0  0
  -26.7118  -32.5523   23.1168 H   0  0  0  0  0  0
  -24.9912  -33.9800   25.0399 H   0  0  0  0  0  0
  -22.7015  -31.2988   21.4066 H   0  0  0  0  0  0
  -23.3760  -35.9651   23.3297 H   0  0  0  0  0  0
  -24.3559  -36.8949   22.2048 H   0  0  0  0  0  0
  -23.7212  -37.6529   23.6647 H   0  0  0  0  0  0
  -26.0621  -31.5690   20.5930 H   0  0  0  0  0  0
  -26.8344  -30.8744   21.9897 H   0  0  0  0  0  0
  -28.1121  -29.0348   21.1904 H   0  0  0  0  0  0
  -26.0112  -25.9689   18.9765 H   0  0  0  0  0  0
  -23.9885  -27.3154   19.0022 H   0  0  0  0  0  0
  -23.7322  -30.5890   19.4028 H   0  0  0  0  0  0
  -22.7509  -29.2324   19.8753 H   0  0  0  0  0  0
  -25.1277  -36.2020   25.0837 H   0  0  0  0  0  0
  -20.9917  -28.3250   24.1438 H   0  0  0  0  0  0
  -20.5672  -26.2285   23.3614 H   0  0  0  0  0  0
  -21.6621  -26.7464   22.1193 H   0  0  0  0  0  0
  -19.6885  -25.6312   21.1262 H   0  0  0  0  0  0
  -19.6692  -27.3202   20.6732 H   0  0  0  0  0  0
  -17.4180  -26.6667   21.4046 H   0  0  0  0  0  0
  -18.0315  -26.0107   22.9055 H   0  0  0  0  0  0
  -19.7911  -30.7294   24.2277 H   0  0  0  0  0  0
  -17.4984  -31.6277   24.5169 H   0  0  0  0  0  0
  -15.5329  -30.3005   23.7666 H   0  0  0  0  0  0
  -15.8636  -28.0860   22.7046 H   0  0  0  0  0  0
  -24.5811  -30.7092   25.7763 H   0  0  0  0  0  0
  -24.8821  -32.2894   26.4899 H   0  0  0  0  0  0
  -25.7921  -30.8891   27.0243 H   0  0  0  0  0  0
  -26.2784  -29.6860   24.1102 H   0  0  0  0  0  0
  -27.3803  -29.7200   25.4653 H   0  0  0  0  0  0
  -27.8705  -30.4303   23.9426 H   0  0  0  0  0  0
  -27.2659  -33.3588   26.2125 H   0  0  0  0  0  0
  -28.3803  -32.6859   25.0306 H   0  0  0  0  0  0
  -28.0698  -31.8383   26.5381 H   0  0  0  0  0  0
  -28.2605  -38.0125   24.7524 H   0  0  0  0  0  0
  -28.1095  -36.2663   24.6259 H   0  0  0  0  0  0
  -27.2308  -37.1435   25.8855 H   0  0  0  0  0  0
  -20.9359  -29.8757   21.6943 H   0  0  0  0  0  0
  -26.0206  -38.2914   24.1401 H   0  0  0  0  0  0
  -31.1693  -16.8749   19.0883 H   0  0  0  0  0  0
  -31.7339  -18.8243   17.7928 H   0  0  0  0  0  0
  -29.4190  -19.4068   22.1172 H   0  0  0  0  0  0
  -29.4312  -17.1328   22.5290 H   0  0  0  0  0  0
  -29.7035  -14.9722   22.5241 H   0  0  0  0  0  0
  -32.6061  -22.2963   17.1782 H   0  0  0  0  0  0
  -31.6997  -20.9249   16.5414 H   0  0  0  0  0  0
  -33.0571  -20.6752   17.6631 H   0  0  0  0  0  0
  -29.4265  -24.2770   21.5678 H   0  0  0  0  0  0
  -30.2879  -24.4486   20.0650 H   0  0  0  0  0  0
  -27.2916  -24.8175   20.4818 H   0  0  0  0  0  0
  -28.0597  -24.9451   18.9113 H   0  0  0  0  0  0
  -29.1590  -22.4713   19.0969 H   0  0  0  0  0  0
  -28.0422  -22.3941   20.4255 H   0  0  0  0  0  0
  1 25  1  0  0  0
  1 30  2  0  0  0
  1 78  1  0  0  0
  2  3  1  0  0  0
  2 25  1  0  0  0
  2 85  1  0  0  0
  2 86  1  0  0  0
  3  4  1  0  0  0
  3 87  1  0  0  0
  3 88  1  0  0  0
  4  5  1  0  0  0
  4 89  1  0  0  0
  4 90  1  0  0  0
  5  6  1  0  0  0
  5 26  1  0  0  0
  5 91  1  0  0  0
  6 25  1  0  0  0
  6 92  1  0  0  0
  6 93  1  0  0  0
  7  8  2  0  0  0
  7 26  1  0  0  0
  7 29  1  0  0  0
  8  9  1  0  0  0
  8 22  1  0  0  0
  9 10  1  0  0  0
  9 27  2  0  0  0
 10 11  2  0  0  0
 10 15  1  0  0  0
 11 12  1  0  0  0
 11 94  1  0  0  0
 12 13  2  0  0  0
 12 95  1  0  0  0
 13 14  1  0  0  0
 13 31  1  0  0  0
 14 15  2  0  0  0
 14 96  1  0  0  0
 15 97  1  0  0  0
 16 17  2  0  0  0
 16 21  1  0  0  0
 16 31  1  0  0  0
 17 18  1  0  0  0
 17 98  1  0  0  0
 18 19  2  0  0  0
 18 99  1  0  0  0
 19 20  1  0  0  0
 19 24  1  0  0  0
 20 21  2  0  0  0
 20100  1  0  0  0
 21 23  1  0  0  0
 22 28  1  0  0  0
 22 32  2  0  0  0
 26 27  1  0  0  0
 28101  1  0  0  0
 28102  1  0  0  0
 29103  1  0  0  0
 29104  1  0  0  0
 33 34  1  0  0  0
 33 66  1  0  0  0
 33 70  2  0  0  0
 34 36  1  0  0  0
 34 59  1  0  0  0
 34105  1  0  0  0
 35 44  2  0  0  0
 35 45  1  0  0  0
 35 68  1  0  0  0
 36 56  1  0  0  0
 36106  1  0  0  0
 37 39  1  0  0  0
 37 47  1  0  0  0
 37 66  1  0  0  0
 37107  1  0  0  0
 38 43  2  0  0  0
 38 46  1  0  0  0
 38 47  1  0  0  0
 39 64  1  0  0  0
 39 67  2  0  0  0
 40 52  1  0  0  0
 40 53  2  0  0  0
 40 58  1  0  0  0
 41108  1  0  0  0
 41109  1  0  0  0
 41110  1  0  0  0
 41 48  1  0  0  0
 42 43  1  0  0  0
 42 66  1  0  0  0
 42111  1  0  0  0
 42112  1  0  0  0
 43 44  1  0  0  0
 44113  1  0  0  0
 45 46  2  0  0  0
 45114  1  0  0  0
 46115  1  0  0  0
 47116  1  0  0  0
 47117  1  0  0  0
 48 56  1  0  0  0
 48 65  1  0  0  0
 48118  1  0  0  0
 49 50  1  0  0  0
 49 53  1  0  0  0
 49 64  1  0  0  0
 49119  1  0  0  0
 50 51  1  0  0  0
 50120  1  0  0  0
 50121  1  0  0  0
 51 52  1  0  0  0
 51122  1  0  0  0
 51123  1  0  0  0
 52124  1  0  0  0
 52125  1  0  0  0
 53 54  1  0  0  0
 54 55  2  0  0  0
 54126  1  0  0  0
 55 57  1  0  0  0
 55127  1  0  0  0
 56 69  2  0  0  0
 57 58  2  0  0  0
 57128  1  0  0  0
 58129  1  0  0  0
 59 60  1  0  0  0
 59 61  1  0  0  0
 59 62  1  0  0  0
 60130  1  0  0  0
 60131  1  0  0  0
 60132  1  0  0  0
 61133  1  0  0  0
 61134  1  0  0  0
 61135  1  0  0  0
 62136  1  0  0  0
 62137  1  0  0  0
 62138  1  0  0  0
 63 65  1  0  0  0
 63139  1  0  0  0
 63140  1  0  0  0
 63141  1  0  0  0
 64142  1  0  0  0
 65143  1  0  0  0
 68 81  1  0  0  0
 71 72  2  0  0  0
 71 74  1  0  0  0
 71144  1  0  0  0
 72 75  1  0  0  0
 72145  1  0  0  0
 73 74  2  0  0  0
 73 76  1  0  0  0
 73146  1  0  0  0
 74 77  1  0  0  0
 75 76  2  0  0  0
 75 83  1  0  0  0
 76 84  1  0  0  0
 77 78  2  0  0  0
 77147  1  0  0  0
 78148  1  0  0  0
 79 83  1  0  0  0
 79149  1  0  0  0
 79150  1  0  0  0
 79151  1  0  0  0
 80 81  1  0  0  0
 80 82  1  0  0  0
 80152  1  0  0  0
 80153  1  0  0  0
 81154  1  0  0  0
 81155  1  0  0  0
 82 84  1  0  0  0
 82156  1  0  0  0
 82157  1  0  0  0
M  ISO  4   1 100  68 101  78 100  81 101
M  END
> <chiral flag>
0

> <version>
0

> <s_m_source_file>
/data/baiqing/PycharmProjects/Reinvent-master-3.2/result/LINK_invent/BTK/process_docking_weight1_custom_product_contain_oxygen_bond_distance_aromatic_linkinvent_7_9_3/rearranged_h_0116.sdf

> <i_m_source_file_index>
94

> <r_mmod_Potential_Energy-OPLS-2005>
58.4670486450195

> <r_mmod_Stretch_Energy-OPLS-2005>
59.0737152099609

> <r_mmod_Bend_Energy-OPLS-2005>
156.436508178711

> <r_mmod_Torsional_Energy-OPLS-2005>
202.481597900391

> <r_mmod_Improper_Torsional_Energy-OPLS-2005>
2.53845238685608

> <r_mmod_Van_der_Waal_Energy-OPLS-2005>
161.68180847168

> <r_mmod_Electrostatic_Energy-OPLS-2005>
-342.710662841797

> <r_mmod_Solvation_Energy-OPLS-2005>
-204.181640625

> <b_mmod_Minimization_Converged-OPLS-2005>
0

> <r_mmod_RMS_Derivative-OPLS-2005>
2.70799493789673

$$$$
94
                    3D
 Structure written by MMmdl.
151159  0  0  1  0            999 V2000
  -30.6345  -14.6294   20.5011 C   0  0  0  0  0  0
  -30.4380  -12.3867   19.4489 C   0  0  0  0  0  0
  -29.5069  -12.5076   18.2220 C   0  0  0  0  0  0
  -28.0290  -12.3501   18.6334 C   0  0  0  0  0  0
  -27.6537  -13.2186   19.8642 C   0  0  2  0  0  0
  -28.7007  -13.0725   20.9922 C   0  0  0  0  0  0
  -25.2561  -13.8178   20.5698 C   0  0  0  0  0  0
  -24.1824  -13.0435   20.9172 C   0  0  0  0  0  0
  -24.6398  -11.6908   20.8724 C   0  0  0  0  0  0
  -23.9066  -10.4291   21.0397 C   0  0  0  0  0  0
  -24.3616   -9.4209   21.9179 C   0  0  0  0  0  0
  -23.6290   -8.2244   22.0752 C   0  0  0  0  0  0
  -22.4272   -8.0281   21.3543 C   0  0  0  0  0  0
  -21.9906   -9.0256   20.4647 C   0  0  0  0  0  0
  -22.7235  -10.2133   20.3052 C   0  0  0  0  0  0
  -21.6854   -6.0734   22.5277 C   0  0  0  0  0  0
  -21.4017   -6.5637   23.8211 C   0  0  0  0  0  0
  -21.3661   -5.6790   24.9173 C   0  0  0  0  0  0
  -21.6045   -4.3053   24.7224 C   0  0  0  0  0  0
  -21.8819   -3.8145   23.4345 C   0  0  0  0  0  0
  -21.9194   -4.6962   22.3402 C   0  0  0  0  0  0
  -22.7847  -13.5229   21.1841 C   0  0  0  0  0  0
  -22.1663   -4.2147   21.0979 F   0  0  0  0  0  0
  -21.5628   -3.4537   25.7737 F   0  0  0  0  0  0
  -30.0167  -13.4087   20.4262 N   0  0  0  0  0  0
  -26.2997  -12.9365   20.3338 N   0  0  0  0  0  0
  -25.9331  -11.6513   20.5755 N   0  0  0  0  0  0
  -22.0493  -12.8224   22.0404 N   0  0  0  0  0  0
  -25.4245  -15.1908   20.4181 N   0  0  0  0  0  0
  -31.8033  -14.7819   20.1357 O   0  0  0  0  0  0
  -21.6638   -6.8877   21.4239 O   0  0  0  0  0  0
  -22.3526  -14.5536   20.6696 O   0  0  0  0  0  0
  -24.6264  -31.8609   23.2041 C   0  0  0  0  0  0
  -25.9114  -32.4784   23.8365 C   0  0  1  0  0  0
  -27.2224  -27.3226   20.1087 C   0  0  0  0  0  0
  -25.5927  -33.8585   24.2289 N   0  0  0  0  0  0
  -23.4191  -30.4867   21.5474 C   0  0  2  0  0  0
  -24.8644  -28.9467   20.1105 C   0  0  0  0  0  0
  -22.7473  -29.4631   22.4937 C   0  0  0  0  0  0
  -18.0285  -28.1383   22.8486 C   0  0  0  0  0  0
  -24.1490  -36.7300   23.2638 C   0  0  0  0  0  0
  -25.9616  -30.7921   21.3761 C   0  0  0  0  0  0
  -26.0349  -29.4213   20.7157 C   0  0  0  0  0  0
  -27.2163  -28.6208   20.7069 C   0  0  0  0  0  0
  -26.0245  -26.9056   19.4781 C   0  0  0  0  0  0
  -24.8611  -27.6936   19.4841 C   0  0  0  0  0  0
  -23.6330  -29.8261   20.1614 C   0  0  0  0  0  0
  -25.4113  -36.3088   24.0329 C   0  0  1  0  0  0
  -20.5886  -28.3688   23.1281 C   0  0  2  0  0  0
  -20.6778  -26.9411   22.5405 C   0  0  0  0  0  0
  -19.5752  -26.6382   21.5209 C   0  0  0  0  0  0
  -18.1933  -26.7925   22.1625 C   0  0  0  0  0  0
  -19.1538  -28.8852   23.2880 C   0  0  0  0  0  0
  -18.9461  -30.1455   23.8895 C   0  0  0  0  0  0
  -17.6461  -30.6586   24.0560 C   0  0  0  0  0  0
  -25.9048  -34.9455   23.5107 C   0  0  0  0  0  0
  -16.5353  -29.9083   23.6327 C   0  0  0  0  0  0
  -16.7273  -28.6500   23.0349 C   0  0  0  0  0  0
  -26.4492  -31.6589   25.0733 C   0  0  0  0  0  0
  -25.3724  -31.3735   26.1461 C   0  0  0  0  0  0
  -27.0328  -30.3010   24.6190 C   0  0  0  0  0  0
  -27.6053  -32.4321   25.7503 C   0  0  0  0  0  0
  -27.5579  -37.1809   24.8464 C   0  0  0  0  0  0
  -21.4187  -29.3046   22.3679 N   0  0  0  0  0  0
  -26.4295  -37.3778   23.9401 N   0  0  0  0  0  0
  -24.6880  -31.0623   22.0995 N   0  0  0  0  0  0
  -23.4199  -28.8161   23.3007 O   0  0  0  0  0  0
  -28.3376  -26.4669   20.1615 O   0  0  0  0  0  0
  -26.5611  -34.8919   22.4670 O   0  0  0  0  0  0
  -23.5428  -32.1403   23.7371 O   0  0  0  0  0  0
  -28.9029  -19.3768   20.5506 C   0  0  0  0  0  0
  -31.2262  -17.8204   20.7009 C   0  0  0  0  0  0
  -30.1358  -20.0851   20.5685 C   0  0  0  0  0  0
  -29.9894  -17.1332   20.6969 C   0  0  0  0  0  0
  -28.8327  -17.9523   20.6215 C   0  0  0  0  0  0
  -31.2970  -19.2432   20.6419 C   0  0  0  0  0  0
  -29.1066  -22.6362   20.3069 C   0  0  0  0  0  0
  -29.2367  -24.0055   20.1891 C   0  0  0  0  0  0
  -30.2355  -21.6331   20.5206 C   0  0  0  0  0  0
  -28.0996  -25.0295   19.9016 C   0  0  0  0  0  0
  -31.3721  -22.1712   20.6744 N   0  0  0  0  0  0
  -29.8216  -15.6846   20.8092 N   0  0  0  0  0  0
  -27.6188  -17.3510   20.6157 F   0  0  0  0  0  0
  -32.5388  -19.7884   20.6640 F   0  0  0  0  0  0
  -31.4795  -12.5089   19.1458 H   0  0  0  0  0  0
  -30.3692  -11.3908   19.8894 H   0  0  0  0  0  0
  -29.7683  -11.7577   17.4745 H   0  0  0  0  0  0
  -29.6527  -13.4778   17.7441 H   0  0  0  0  0  0
  -27.8607  -11.2967   18.8598 H   0  0  0  0  0  0
  -27.3764  -12.5875   17.7922 H   0  0  0  0  0  0
  -27.6700  -14.2540   19.5238 H   0  0  0  0  0  0
  -28.7093  -12.0521   21.3785 H   0  0  0  0  0  0
  -28.4511  -13.7096   21.8424 H   0  0  0  0  0  0
  -25.2762   -9.5690   22.4750 H   0  0  0  0  0  0
  -24.0004   -7.4639   22.7473 H   0  0  0  0  0  0
  -21.0835   -8.8774   19.8957 H   0  0  0  0  0  0
  -22.3691  -10.9671   19.6161 H   0  0  0  0  0  0
  -21.2008   -7.6145   23.9713 H   0  0  0  0  0  0
  -21.1484   -6.0520   25.9076 H   0  0  0  0  0  0
  -22.0598   -2.7607   23.2844 H   0  0  0  0  0  0
  -22.4108  -11.9888   22.4797 H   0  0  0  0  0  0
  -21.1117  -13.1261   22.2619 H   0  0  0  0  0  0
  -24.6595  -15.8408   20.5577 H   0  0  0  0  0  0
  -26.2897  -15.6588   20.1746 H   0  0  0  0  0  0
  -26.7183  -32.5453   23.1114 H   0  0  0  0  0  0
  -25.0073  -33.9730   25.0434 H   0  0  0  0  0  0
  -22.7129  -31.3076   21.4070 H   0  0  0  0  0  0
  -23.3745  -35.9642   23.3314 H   0  0  0  0  0  0
  -24.3582  -36.8904   22.2049 H   0  0  0  0  0  0
  -23.7258  -37.6514   23.6649 H   0  0  0  0  0  0
  -26.0943  -31.5572   20.6099 H   0  0  0  0  0  0
  -26.8420  -30.8382   22.0056 H   0  0  0  0  0  0
  -28.1129  -28.9801   21.1924 H   0  0  0  0  0  0
  -25.9460  -25.9521   18.9788 H   0  0  0  0  0  0
  -23.9645  -27.3245   19.0049 H   0  0  0  0  0  0
  -23.7520  -30.6047   19.4070 H   0  0  0  0  0  0
  -22.7528  -29.2565   19.8579 H   0  0  0  0  0  0
  -25.1295  -36.1943   25.0823 H   0  0  0  0  0  0
  -20.9977  -28.3261   24.1402 H   0  0  0  0  0  0
  -20.5682  -26.2294   23.3602 H   0  0  0  0  0  0
  -21.6647  -26.7447   22.1197 H   0  0  0  0  0  0
  -19.6914  -25.6291   21.1243 H   0  0  0  0  0  0
  -19.6688  -27.3186   20.6734 H   0  0  0  0  0  0
  -17.4198  -26.6663   21.4033 H   0  0  0  0  0  0
  -18.0344  -26.0070   22.9028 H   0  0  0  0  0  0
  -19.7937  -30.7272   24.2264 H   0  0  0  0  0  0
  -17.5015  -31.6267   24.5159 H   0  0  0  0  0  0
  -15.5353  -30.2983   23.7655 H   0  0  0  0  0  0
  -15.8674  -28.0819   22.7064 H   0  0  0  0  0  0
  -24.5882  -30.7105   25.7788 H   0  0  0  0  0  0
  -24.8936  -32.2907   26.4901 H   0  0  0  0  0  0
  -25.8044  -30.8894   27.0229 H   0  0  0  0  0  0
  -26.2903  -29.6771   24.1205 H   0  0  0  0  0  0
  -27.4006  -29.7260   25.4697 H   0  0  0  0  0  0
  -27.8781  -30.4289   23.9425 H   0  0  0  0  0  0
  -27.2662  -33.3616   26.2092 H   0  0  0  0  0  0
  -28.3858  -32.6893   25.0330 H   0  0  0  0  0  0
  -28.0727  -31.8441   26.5412 H   0  0  0  0  0  0
  -28.2604  -38.0098   24.7497 H   0  0  0  0  0  0
  -28.1067  -36.2628   24.6308 H   0  0  0  0  0  0
  -27.2296  -37.1481   25.8868 H   0  0  0  0  0  0
  -20.9358  -29.8776   21.6901 H   0  0  0  0  0  0
  -26.0179  -38.2857   24.1384 H   0  0  0  0  0  0
  -27.9760  -19.9261   20.4975 H   0  0  0  0  0  0
  -32.1502  -17.2664   20.7676 H   0  0  0  0  0  0
  -28.1251  -22.1936   20.2260 H   0  0  0  0  0  0
  -30.2205  -24.4459   20.2642 H   0  0  0  0  0  0
  -27.2220  -24.6906   20.4546 H   0  0  0  0  0  0
  -27.8746  -24.9183   18.8402 H   0  0  0  0  0  0
  -32.0918  -21.4631   20.8029 H   0  0  0  0  0  0
  -28.8748  -15.4059   21.0171 H   0  0  0  0  0  0
  1 25  1  0  0  0
  1 30  2  0  0  0
  1 82  1  0  0  0
  2  3  1  0  0  0
  2 25  1  0  0  0
  2 85  1  0  0  0
  2 86  1  0  0  0
  3  4  1  0  0  0
  3 87  1  0  0  0
  3 88  1  0  0  0
  4  5  1  0  0  0
  4 89  1  0  0  0
  4 90  1  0  0  0
  5  6  1  0  0  0
  5 26  1  0  0  0
  5 91  1  0  0  0
  6 25  1  0  0  0
  6 92  1  0  0  0
  6 93  1  0  0  0
  7  8  2  0  0  0
  7 26  1  0  0  0
  7 29  1  0  0  0
  8  9  1  0  0  0
  8 22  1  0  0  0
  9 10  1  0  0  0
  9 27  2  0  0  0
 10 11  2  0  0  0
 10 15  1  0  0  0
 11 12  1  0  0  0
 11 94  1  0  0  0
 12 13  2  0  0  0
 12 95  1  0  0  0
 13 14  1  0  0  0
 13 31  1  0  0  0
 14 15  2  0  0  0
 14 96  1  0  0  0
 15 97  1  0  0  0
 16 17  2  0  0  0
 16 21  1  0  0  0
 16 31  1  0  0  0
 17 18  1  0  0  0
 17 98  1  0  0  0
 18 19  2  0  0  0
 18 99  1  0  0  0
 19 20  1  0  0  0
 19 24  1  0  0  0
 20 21  2  0  0  0
 20100  1  0  0  0
 21 23  1  0  0  0
 22 28  1  0  0  0
 22 32  2  0  0  0
 26 27  1  0  0  0
 28101  1  0  0  0
 28102  1  0  0  0
 29103  1  0  0  0
 29104  1  0  0  0
 33 34  1  0  0  0
 33 66  1  0  0  0
 33 70  2  0  0  0
 34 36  1  0  0  0
 34 59  1  0  0  0
 34105  1  0  0  0
 35 44  2  0  0  0
 35 45  1  0  0  0
 35 68  1  0  0  0
 36 56  1  0  0  0
 36106  1  0  0  0
 37 39  1  0  0  0
 37 47  1  0  0  0
 37 66  1  0  0  0
 37107  1  0  0  0
 38 43  2  0  0  0
 38 46  1  0  0  0
 38 47  1  0  0  0
 39 64  1  0  0  0
 39 67  2  0  0  0
 40 52  1  0  0  0
 40 53  2  0  0  0
 40 58  1  0  0  0
 41108  1  0  0  0
 41109  1  0  0  0
 41110  1  0  0  0
 41 48  1  0  0  0
 42 43  1  0  0  0
 42 66  1  0  0  0
 42111  1  0  0  0
 42112  1  0  0  0
 43 44  1  0  0  0
 44113  1  0  0  0
 45 46  2  0  0  0
 45114  1  0  0  0
 46115  1  0  0  0
 47116  1  0  0  0
 47117  1  0  0  0
 48 56  1  0  0  0
 48 65  1  0  0  0
 48118  1  0  0  0
 49 50  1  0  0  0
 49 53  1  0  0  0
 49 64  1  0  0  0
 49119  1  0  0  0
 50 51  1  0  0  0
 50120  1  0  0  0
 50121  1  0  0  0
 51 52  1  0  0  0
 51122  1  0  0  0
 51123  1  0  0  0
 52124  1  0  0  0
 52125  1  0  0  0
 53 54  1  0  0  0
 54 55  2  0  0  0
 54126  1  0  0  0
 55 57  1  0  0  0
 55127  1  0  0  0
 56 69  2  0  0  0
 57 58  2  0  0  0
 57128  1  0  0  0
 58129  1  0  0  0
 59 60  1  0  0  0
 59 61  1  0  0  0
 59 62  1  0  0  0
 60130  1  0  0  0
 60131  1  0  0  0
 60132  1  0  0  0
 61133  1  0  0  0
 61134  1  0  0  0
 61135  1  0  0  0
 62136  1  0  0  0
 62137  1  0  0  0
 62138  1  0  0  0
 63 65  1  0  0  0
 63139  1  0  0  0
 63140  1  0  0  0
 63141  1  0  0  0
 64142  1  0  0  0
 65143  1  0  0  0
 68 80  1  0  0  0
 71 73  2  0  0  0
 71 75  1  0  0  0
 71144  1  0  0  0
 72 74  1  0  0  0
 72 76  2  0  0  0
 72145  1  0  0  0
 73 76  1  0  0  0
 73 79  1  0  0  0
 74 75  2  0  0  0
 74 82  1  0  0  0
 75 83  1  0  0  0
 76 84  1  0  0  0
 77 78  2  0  0  0
 77 79  1  0  0  0
 77146  1  0  0  0
 78 80  1  0  0  0
 78147  1  0  0  0
 79 81  2  0  0  0
 80148  1  0  0  0
 80149  1  0  0  0
 81150  1  0  0  0
 82151  1  0  0  0
M  ISO  4   1 100  68 101  80 101  82 100
M  END
> <chiral flag>
0

> <version>
0

> <s_m_source_file>
/data/baiqing/PycharmProjects/Reinvent-master-3.2/result/LINK_invent/BTK/process_docking_weight1_custom_product_contain_oxygen_bond_distance_aromatic_linkinvent_7_9_3/rearranged_h_0116.sdf

> <i_m_source_file_index>
95

> <r_mmod_Potential_Energy-OPLS-2005>
3.47390961647034

> <r_mmod_Stretch_Energy-OPLS-2005>
80.359260559082

> <r_mmod_Bend_Energy-OPLS-2005>
132.658721923828

> <r_mmod_Torsional_Energy-OPLS-2005>
220.727798461914

> <r_mmod_Improper_Torsional_Energy-OPLS-2005>
4.81664323806763

> <r_mmod_Van_der_Waal_Energy-OPLS-2005>
161.230285644531

> <r_mmod_Electrostatic_Energy-OPLS-2005>
-429.841583251953

> <r_mmod_Solvation_Energy-OPLS-2005>
-213.388793945312

> <b_mmod_Minimization_Converged-OPLS-2005>
0

> <r_mmod_RMS_Derivative-OPLS-2005>
0.428789913654327

$$$$
95
                    3D
 Structure written by MMmdl.
155163  0  0  1  0            999 V2000
  -30.5326  -14.8955   20.5472 C   0  0  0  0  0  0
  -30.4670  -12.5822   19.4893 C   0  0  0  0  0  0
  -29.5323  -12.5819   18.2524 C   0  0  0  0  0  0
  -28.0499  -12.3840   18.6396 C   0  0  0  0  0  0
  -27.6474  -13.2368   19.8704 C   0  0  2  0  0  0
  -28.6952  -13.0785   20.9866 C   0  0  0  0  0  0
  -25.2521  -13.8176   20.5692 C   0  0  0  0  0  0
  -24.1808  -13.0427   20.9171 C   0  0  0  0  0  0
  -24.6411  -11.6901   20.8730 C   0  0  0  0  0  0
  -23.9079  -10.4287   21.0378 C   0  0  0  0  0  0
  -24.3631   -9.4212   21.9155 C   0  0  0  0  0  0
  -23.6301   -8.2248   22.0737 C   0  0  0  0  0  0
  -22.4282   -8.0288   21.3530 C   0  0  0  0  0  0
  -21.9903   -9.0265   20.4645 C   0  0  0  0  0  0
  -22.7237  -10.2143   20.3039 C   0  0  0  0  0  0
  -21.6858   -6.0753   22.5277 C   0  0  0  0  0  0
  -21.4017   -6.5650   23.8209 C   0  0  0  0  0  0
  -21.3660   -5.6807   24.9169 C   0  0  0  0  0  0
  -21.6029   -4.3058   24.7225 C   0  0  0  0  0  0
  -21.8821   -3.8161   23.4338 C   0  0  0  0  0  0
  -21.9197   -4.6983   22.3401 C   0  0  0  0  0  0
  -22.7829  -13.5220   21.1853 C   0  0  0  0  0  0
  -22.1656   -4.2172   21.0973 F   0  0  0  0  0  0
  -21.5631   -3.4538   25.7729 F   0  0  0  0  0  0
  -29.9682  -13.6099   20.4547 N   0  0  0  0  0  0
  -26.2962  -12.9395   20.3333 N   0  0  0  0  0  0
  -25.9352  -11.6534   20.5757 N   0  0  0  0  0  0
  -22.0484  -12.8225   22.0424 N   0  0  0  0  0  0
  -25.4215  -15.1901   20.4159 N   0  0  0  0  0  0
  -31.6781  -15.0238   20.0918 O   0  0  0  0  0  0
  -21.6630   -6.8895   21.4239 O   0  0  0  0  0  0
  -22.3516  -14.5514   20.6686 O   0  0  0  0  0  0
  -24.6391  -31.8450   23.1919 C   0  0  0  0  0  0
  -25.9184  -32.4689   23.8279 C   0  0  1  0  0  0
  -27.2158  -27.1500   20.1404 C   0  0  0  0  0  0
  -25.5946  -33.8499   24.2188 N   0  0  0  0  0  0
  -23.4423  -30.4655   21.5361 C   0  0  2  0  0  0
  -24.8941  -28.8990   20.1089 C   0  0  0  0  0  0
  -22.7543  -29.4540   22.4874 C   0  0  0  0  0  0
  -18.0291  -28.1370   22.8479 C   0  0  0  0  0  0
  -24.1491  -36.7245   23.2645 C   0  0  0  0  0  0
  -26.0003  -30.7165   21.4007 C   0  0  0  0  0  0
  -26.0691  -29.3325   20.7368 C   0  0  0  0  0  0
  -27.2282  -28.4691   20.7462 C   0  0  0  0  0  0
  -26.0208  -26.8304   19.4576 C   0  0  0  0  0  0
  -24.8814  -27.6599   19.4557 C   0  0  0  0  0  0
  -23.6680  -29.7959   20.1556 C   0  0  0  0  0  0
  -25.4126  -36.3034   24.0316 C   0  0  1  0  0  0
  -20.5898  -28.3686   23.1252 C   0  0  2  0  0  0
  -20.6763  -26.9380   22.5444 C   0  0  0  0  0  0
  -19.5766  -26.6351   21.5222 C   0  0  0  0  0  0
  -18.1931  -26.7913   22.1599 C   0  0  0  0  0  0
  -19.1546  -28.8852   23.2854 C   0  0  0  0  0  0
  -18.9471  -30.1451   23.8872 C   0  0  0  0  0  0
  -17.6468  -30.6571   24.0554 C   0  0  0  0  0  0
  -25.9073  -34.9399   23.5066 C   0  0  0  0  0  0
  -16.5356  -29.9056   23.6343 C   0  0  0  0  0  0
  -16.7277  -28.6473   23.0373 C   0  0  0  0  0  0
  -26.4491  -31.6561   25.0727 C   0  0  0  0  0  0
  -25.3674  -31.3827   26.1442 C   0  0  0  0  0  0
  -27.0309  -30.2902   24.6396 C   0  0  0  0  0  0
  -27.6038  -32.4319   25.7482 C   0  0  0  0  0  0
  -27.5593  -37.1767   24.8442 C   0  0  0  0  0  0
  -21.4235  -29.3005   22.3616 N   0  0  0  0  0  0
  -26.4286  -37.3749   23.9412 N   0  0  0  0  0  0
  -24.7121  -31.0311   22.0960 N   0  0  0  0  0  0
  -23.4190  -28.8102   23.3039 O   0  0  0  0  0  0
  -28.2506  -26.1469   20.2197 O   0  0  0  0  0  0
  -26.5665  -34.8894   22.4645 O   0  0  0  0  0  0
  -23.5513  -32.1327   23.7145 O   0  0  0  0  0  0
  -28.2533  -19.4015   19.7258 C   0  0  0  0  0  0
  -30.2533  -19.9927   20.8021 C   0  0  0  0  0  0
  -28.5491  -17.9962   19.9041 C   0  0  0  0  0  0
  -30.5667  -18.5741   20.9691 C   0  0  0  0  0  0
  -29.0588  -20.4994   20.1809 C   0  0  0  0  0  0
  -29.7202  -17.4848   20.5471 C   0  0  0  0  0  0
  -29.3660  -17.1063   24.5008 C   0  0  0  0  0  0
  -28.5242  -21.9977   19.9830 C   0  0  0  0  0  0
  -28.9267  -17.0377   23.2344 C   0  0  0  0  0  0
  -28.7709  -23.3286   20.3900 C   0  0  0  0  0  0
  -29.0927  -15.8294   22.3224 C   0  0  0  0  0  0
  -27.8908  -24.6565   19.9860 C   0  0  0  0  0  0
  -29.8034  -16.0327   21.0348 N   0  0  0  0  0  0
  -31.4940  -12.7807   19.1773 H   0  0  0  0  0  0
  -30.5038  -11.5940   19.9521 H   0  0  0  0  0  0
  -29.8415  -11.8155   17.5416 H   0  0  0  0  0  0
  -29.6405  -13.5386   17.7378 H   0  0  0  0  0  0
  -27.8968  -11.3272   18.8571 H   0  0  0  0  0  0
  -27.4016  -12.6129   17.7938 H   0  0  0  0  0  0
  -27.6579  -14.2794   19.5513 H   0  0  0  0  0  0
  -28.7945  -12.0192   21.2355 H   0  0  0  0  0  0
  -28.3700  -13.5005   21.9281 H   0  0  0  0  0  0
  -25.2791   -9.5687   22.4708 H   0  0  0  0  0  0
  -24.0010   -7.4649   22.7451 H   0  0  0  0  0  0
  -21.0829   -8.8798   19.8972 H   0  0  0  0  0  0
  -22.3692  -10.9679   19.6143 H   0  0  0  0  0  0
  -21.1987   -7.6155   23.9721 H   0  0  0  0  0  0
  -21.1475   -6.0524   25.9073 H   0  0  0  0  0  0
  -22.0594   -2.7623   23.2826 H   0  0  0  0  0  0
  -22.4166  -11.9921   22.4827 H   0  0  0  0  0  0
  -21.1103  -13.1235   22.2642 H   0  0  0  0  0  0
  -24.6592  -15.8448   20.5495 H   0  0  0  0  0  0
  -26.2825  -15.6338   20.1281 H   0  0  0  0  0  0
  -26.7253  -32.5281   23.1009 H   0  0  0  0  0  0
  -25.0073  -33.9614   25.0322 H   0  0  0  0  0  0
  -22.7440  -31.2904   21.3827 H   0  0  0  0  0  0
  -23.3772  -35.9553   23.3274 H   0  0  0  0  0  0
  -24.3590  -36.8913   22.2066 H   0  0  0  0  0  0
  -23.7215  -37.6416   23.6704 H   0  0  0  0  0  0
  -26.1749  -31.4791   20.6393 H   0  0  0  0  0  0
  -26.8618  -30.7498   22.0568 H   0  0  0  0  0  0
  -28.1136  -28.7852   21.2790 H   0  0  0  0  0  0
  -25.9236  -25.8964   18.9279 H   0  0  0  0  0  0
  -23.9892  -27.3274   18.9429 H   0  0  0  0  0  0
  -23.7951  -30.5676   19.3968 H   0  0  0  0  0  0
  -22.7856  -29.2302   19.8514 H   0  0  0  0  0  0
  -25.1318  -36.1852   25.0806 H   0  0  0  0  0  0
  -20.9990  -28.3288   24.1374 H   0  0  0  0  0  0
  -20.5603  -26.2309   23.3675 H   0  0  0  0  0  0
  -21.6644  -26.7352   22.1298 H   0  0  0  0  0  0
  -19.6925  -25.6259   21.1271 H   0  0  0  0  0  0
  -19.6730  -27.3147   20.6744 H   0  0  0  0  0  0
  -17.4225  -26.6711   21.3969 H   0  0  0  0  0  0
  -18.0273  -26.0028   22.8957 H   0  0  0  0  0  0
  -19.7943  -30.7271   24.2224 H   0  0  0  0  0  0
  -17.5018  -31.6257   24.5149 H   0  0  0  0  0  0
  -15.5354  -30.2956   23.7677 H   0  0  0  0  0  0
  -15.8684  -28.0781   22.7118 H   0  0  0  0  0  0
  -24.5972  -30.6975   25.7881 H   0  0  0  0  0  0
  -24.8704  -32.3010   26.4577 H   0  0  0  0  0  0
  -25.7988  -30.9321   27.0391 H   0  0  0  0  0  0
  -26.2925  -29.6662   24.1350 H   0  0  0  0  0  0
  -27.3750  -29.7192   25.5033 H   0  0  0  0  0  0
  -27.8924  -30.4033   23.9814 H   0  0  0  0  0  0
  -27.2633  -33.3628   26.2029 H   0  0  0  0  0  0
  -28.3849  -32.6870   25.0307 H   0  0  0  0  0  0
  -28.0707  -31.8472   26.5423 H   0  0  0  0  0  0
  -28.2598  -38.0080   24.7517 H   0  0  0  0  0  0
  -28.1105  -36.2618   24.6209 H   0  0  0  0  0  0
  -27.2343  -37.1353   25.8854 H   0  0  0  0  0  0
  -20.9425  -29.8718   21.6806 H   0  0  0  0  0  0
  -26.0154  -38.2804   24.1457 H   0  0  0  0  0  0
  -27.3183  -19.6415   19.2400 H   0  0  0  0  0  0
  -30.9555  -20.7138   21.1946 H   0  0  0  0  0  0
  -27.7997  -17.2867   19.5850 H   0  0  0  0  0  0
  -31.4639  -18.3288   21.5183 H   0  0  0  0  0  0
  -29.1861  -17.9895   25.0974 H   0  0  0  0  0  0
  -29.9037  -16.2929   24.9673 H   0  0  0  0  0  0
  -27.6799  -21.9727   19.3075 H   0  0  0  0  0  0
  -28.3888  -17.8838   22.8245 H   0  0  0  0  0  0
  -29.5882  -23.5073   21.0746 H   0  0  0  0  0  0
  -28.0696  -15.5313   22.1020 H   0  0  0  0  0  0
  -29.5680  -15.0399   22.9101 H   0  0  0  0  0  0
  -26.9388  -24.4980   20.4997 H   0  0  0  0  0  0
  -27.6749  -24.5402   18.9235 H   0  0  0  0  0  0
  1 25  1  0  0  0
  1 30  2  0  0  0
  1 83  1  0  0  0
  2  3  1  0  0  0
  2 25  1  0  0  0
  2 84  1  0  0  0
  2 85  1  0  0  0
  3  4  1  0  0  0
  3 86  1  0  0  0
  3 87  1  0  0  0
  4  5  1  0  0  0
  4 88  1  0  0  0
  4 89  1  0  0  0
  5  6  1  0  0  0
  5 26  1  0  0  0
  5 90  1  0  0  0
  6 25  1  0  0  0
  6 91  1  0  0  0
  6 92  1  0  0  0
  7  8  2  0  0  0
  7 26  1  0  0  0
  7 29  1  0  0  0
  8  9  1  0  0  0
  8 22  1  0  0  0
  9 10  1  0  0  0
  9 27  2  0  0  0
 10 11  2  0  0  0
 10 15  1  0  0  0
 11 12  1  0  0  0
 11 93  1  0  0  0
 12 13  2  0  0  0
 12 94  1  0  0  0
 13 14  1  0  0  0
 13 31  1  0  0  0
 14 15  2  0  0  0
 14 95  1  0  0  0
 15 96  1  0  0  0
 16 17  2  0  0  0
 16 21  1  0  0  0
 16 31  1  0  0  0
 17 18  1  0  0  0
 17 97  1  0  0  0
 18 19  2  0  0  0
 18 98  1  0  0  0
 19 20  1  0  0  0
 19 24  1  0  0  0
 20 21  2  0  0  0
 20 99  1  0  0  0
 21 23  1  0  0  0
 22 28  1  0  0  0
 22 32  2  0  0  0
 26 27  1  0  0  0
 28100  1  0  0  0
 28101  1  0  0  0
 29102  1  0  0  0
 29103  1  0  0  0
 33 34  1  0  0  0
 33 66  1  0  0  0
 33 70  2  0  0  0
 34 36  1  0  0  0
 34 59  1  0  0  0
 34104  1  0  0  0
 35 44  2  0  0  0
 35 45  1  0  0  0
 35 68  1  0  0  0
 36 56  1  0  0  0
 36105  1  0  0  0
 37 39  1  0  0  0
 37 47  1  0  0  0
 37 66  1  0  0  0
 37106  1  0  0  0
 38 43  2  0  0  0
 38 46  1  0  0  0
 38 47  1  0  0  0
 39 64  1  0  0  0
 39 67  2  0  0  0
 40 52  1  0  0  0
 40 53  2  0  0  0
 40 58  1  0  0  0
 41107  1  0  0  0
 41108  1  0  0  0
 41109  1  0  0  0
 41 48  1  0  0  0
 42 43  1  0  0  0
 42 66  1  0  0  0
 42110  1  0  0  0
 42111  1  0  0  0
 43 44  1  0  0  0
 44112  1  0  0  0
 45 46  2  0  0  0
 45113  1  0  0  0
 46114  1  0  0  0
 47115  1  0  0  0
 47116  1  0  0  0
 48 56  1  0  0  0
 48 65  1  0  0  0
 48117  1  0  0  0
 49 50  1  0  0  0
 49 53  1  0  0  0
 49 64  1  0  0  0
 49118  1  0  0  0
 50 51  1  0  0  0
 50119  1  0  0  0
 50120  1  0  0  0
 51 52  1  0  0  0
 51121  1  0  0  0
 51122  1  0  0  0
 52123  1  0  0  0
 52124  1  0  0  0
 53 54  1  0  0  0
 54 55  2  0  0  0
 54125  1  0  0  0
 55 57  1  0  0  0
 55126  1  0  0  0
 56 69  2  0  0  0
 57 58  2  0  0  0
 57127  1  0  0  0
 58128  1  0  0  0
 59 60  1  0  0  0
 59 61  1  0  0  0
 59 62  1  0  0  0
 60129  1  0  0  0
 60130  1  0  0  0
 60131  1  0  0  0
 61132  1  0  0  0
 61133  1  0  0  0
 61134  1  0  0  0
 62135  1  0  0  0
 62136  1  0  0  0
 62137  1  0  0  0
 63 65  1  0  0  0
 63138  1  0  0  0
 63139  1  0  0  0
 63140  1  0  0  0
 64141  1  0  0  0
 65142  1  0  0  0
 68 82  1  0  0  0
 71 73  2  0  0  0
 71 75  1  0  0  0
 71143  1  0  0  0
 72 74  1  0  0  0
 72 75  2  0  0  0
 72144  1  0  0  0
 73 76  1  0  0  0
 73145  1  0  0  0
 74 76  2  0  0  0
 74146  1  0  0  0
 75 78  1  0  0  0
 76 83  1  0  0  0
 77 79  2  0  0  0
 77147  1  0  0  0
 77148  1  0  0  0
 78 80  2  0  0  0
 78149  1  0  0  0
 79 81  1  0  0  0
 79150  1  0  0  0
 80 82  1  0  0  0
 80151  1  0  0  0
 81 83  1  0  0  0
 81152  1  0  0  0
 81153  1  0  0  0
 82154  1  0  0  0
 82155  1  0  0  0
M  ISO  4   1 100  68 101  82 101  83 100
M  END
> <chiral flag>
0

> <version>
0

> <s_m_source_file>
/data/baiqing/PycharmProjects/Reinvent-master-3.2/result/LINK_invent/BTK/process_docking_weight1_custom_product_contain_oxygen_bond_distance_aromatic_linkinvent_7_9_3/rearranged_h_0116.sdf

> <i_m_source_file_index>
96

> <r_mmod_Potential_Energy-OPLS-2005>
653.698791503906

> <r_mmod_Stretch_Energy-OPLS-2005>
227.097946166992

> <r_mmod_Bend_Energy-OPLS-2005>
262.174560546875

> <r_mmod_Torsional_Energy-OPLS-2005>
316.009521484375

> <r_mmod_Improper_Torsional_Energy-OPLS-2005>
6.44393491744995

> <r_mmod_Van_der_Waal_Energy-OPLS-2005>
150.573516845703

> <r_mmod_Electrostatic_Energy-OPLS-2005>
-280.742858886719

> <r_mmod_Solvation_Energy-OPLS-2005>
-191.722579956055

> <b_mmod_Minimization_Converged-OPLS-2005>
0

> <r_mmod_RMS_Derivative-OPLS-2005>
3.19198727607727

$$$$
