0
                    3D
 Structure written by MMmdl.
147156  0  0  1  0            999 V2000
  -30.5407  -14.9089   20.4365 C   0  0  0  0  0  0
  -30.4484  -12.5596   19.4918 C   0  0  0  0  0  0
  -29.5235  -12.5195   18.2521 C   0  0  0  0  0  0
  -28.0523  -12.3151   18.6647 C   0  0  0  0  0  0
  -27.6326  -13.2381   19.8366 C   0  0  2  0  0  0
  -28.6769  -13.2294   20.9738 C   0  0  0  0  0  0
  -25.2464  -13.8210   20.5610 C   0  0  0  0  0  0
  -24.1780  -13.0428   20.9227 C   0  0  0  0  0  0
  -24.6386  -11.6928   20.8777 C   0  0  0  0  0  0
  -23.9059  -10.4297   21.0432 C   0  0  0  0  0  0
  -24.3629   -9.4219   21.9203 C   0  0  0  0  0  0
  -23.6301   -8.2246   22.0769 C   0  0  0  0  0  0
  -22.4288   -8.0283   21.3548 C   0  0  0  0  0  0
  -21.9913   -9.0266   20.4661 C   0  0  0  0  0  0
  -22.7230  -10.2152   20.3072 C   0  0  0  0  0  0
  -21.6858   -6.0723   22.5268 C   0  0  0  0  0  0
  -21.4019   -6.5627   23.8208 C   0  0  0  0  0  0
  -21.3663   -5.6785   24.9172 C   0  0  0  0  0  0
  -21.6035   -4.3044   24.7227 C   0  0  0  0  0  0
  -21.8821   -3.8135   23.4347 C   0  0  0  0  0  0
  -21.9208   -4.6944   22.3409 C   0  0  0  0  0  0
  -22.7802  -13.5217   21.1894 C   0  0  0  0  0  0
  -22.1679   -4.2128   21.0980 F   0  0  0  0  0  0
  -21.5620   -3.4539   25.7735 F   0  0  0  0  0  0
  -29.9602  -13.6427   20.3906 N   0  0  0  0  0  0
  -26.2882  -12.9415   20.3177 N   0  0  0  0  0  0
  -25.9304  -11.6576   20.5742 N   0  0  0  0  0  0
  -22.0439  -12.8227   22.0461 N   0  0  0  0  0  0
  -25.4080  -15.1923   20.3858 N   0  0  0  0  0  0
  -31.7432  -15.0000   20.1594 O   0  0  0  0  0  0
  -21.6646   -6.8864   21.4227 O   0  0  0  0  0  0
  -22.3491  -14.5505   20.6696 O   0  0  0  0  0  0
  -24.6439  -31.8422   23.1860 C   0  0  0  0  0  0
  -25.9201  -32.4680   23.8262 C   0  0  1  0  0  0
  -27.2377  -27.1577   20.1442 C   0  0  0  0  0  0
  -25.5926  -33.8491   24.2158 N   0  0  0  0  0  0
  -23.4526  -30.4572   21.5310 C   0  0  2  0  0  0
  -24.9071  -28.8829   20.1151 C   0  0  0  0  0  0
  -22.7591  -29.4519   22.4839 C   0  0  0  0  0  0
  -18.0301  -28.1405   22.8467 C   0  0  0  0  0  0
  -24.1491  -36.7275   23.2633 C   0  0  0  0  0  0
  -26.0092  -30.7157   21.3914 C   0  0  0  0  0  0
  -26.0832  -29.3283   20.7334 C   0  0  0  0  0  0
  -27.2523  -28.4808   20.7314 C   0  0  0  0  0  0
  -26.0421  -26.8078   19.4812 C   0  0  0  0  0  0
  -24.8963  -27.6313   19.4758 C   0  0  0  0  0  0
  -23.6831  -29.7819   20.1537 C   0  0  0  0  0  0
  -25.4116  -36.3033   24.0309 C   0  0  1  0  0  0
  -20.5920  -28.3736   23.1234 C   0  0  2  0  0  0
  -20.6787  -26.9433   22.5408 C   0  0  0  0  0  0
  -19.5757  -26.6376   21.5217 C   0  0  0  0  0  0
  -18.1946  -26.7940   22.1639 C   0  0  0  0  0  0
  -19.1561  -28.8878   23.2846 C   0  0  0  0  0  0
  -18.9485  -30.1478   23.8871 C   0  0  0  0  0  0
  -17.6477  -30.6599   24.0565 C   0  0  0  0  0  0
  -25.9068  -34.9401   23.5052 C   0  0  0  0  0  0
  -16.5368  -29.9095   23.6323 C   0  0  0  0  0  0
  -16.7293  -28.6517   23.0348 C   0  0  0  0  0  0
  -26.4497  -31.6570   25.0735 C   0  0  0  0  0  0
  -25.3657  -31.3853   26.1430 C   0  0  0  0  0  0
  -27.0318  -30.2919   24.6382 C   0  0  0  0  0  0
  -27.6017  -32.4340   25.7520 C   0  0  0  0  0  0
  -27.5584  -37.1786   24.8447 C   0  0  0  0  0  0
  -21.4276  -29.3059   22.3597 N   0  0  0  0  0  0
  -26.4284  -37.3742   23.9406 N   0  0  0  0  0  0
  -24.7210  -31.0268   22.0894 N   0  0  0  0  0  0
  -23.4211  -28.8068   23.3009 O   0  0  0  0  0  0
  -28.2825  -26.1675   20.1655 O   0  0  0  0  0  0
  -26.5677  -34.8897   22.4642 O   0  0  0  0  0  0
  -23.5546  -32.1295   23.7047 O   0  0  0  0  0  0
  -28.9701  -18.7124   20.5863 C   0  0  0  0  0  0
  -31.0749  -18.2315   20.1449 C   0  0  0  0  0  0
  -29.9174  -17.5727   20.4607 C   0  0  0  0  0  0
  -29.5825  -19.9743   20.3495 C   0  0  0  0  0  0
  -28.5247  -23.4937   20.4807 C   0  0  0  0  0  0
  -29.6378  -22.7671   19.8227 C   0  0  0  0  0  0
  -27.9851  -24.8091   20.6072 C   0  0  0  0  0  0
  -28.1053  -22.1093   21.0984 C   0  0  0  0  0  0
  -29.1936  -21.4688   20.3095 N   0  0  0  0  0  0
  -29.7196  -16.0557   20.6099 N   0  0  0  0  0  0
  -30.5554  -23.1837   19.1425 O   0  0  0  0  0  0
  -30.8923  -19.6197   20.0699 O   0  0  0  0  0  0
  -31.4754  -12.7372   19.1756 H   0  0  0  0  0  0
  -30.4692  -11.5955   20.0051 H   0  0  0  0  0  0
  -29.8353  -11.7270   17.5705 H   0  0  0  0  0  0
  -29.6241  -13.4573   17.7004 H   0  0  0  0  0  0
  -27.9410  -11.2725   18.9645 H   0  0  0  0  0  0
  -27.3962  -12.4540   17.8047 H   0  0  0  0  0  0
  -27.6042  -14.2437   19.4173 H   0  0  0  0  0  0
  -28.7508  -12.2354   21.4207 H   0  0  0  0  0  0
  -28.3868  -13.9036   21.7778 H   0  0  0  0  0  0
  -25.2783   -9.5681   22.4753 H   0  0  0  0  0  0
  -24.0003   -7.4628   22.7479 H   0  0  0  0  0  0
  -21.0826   -8.8765   19.8971 H   0  0  0  0  0  0
  -22.3676  -10.9689   19.6165 H   0  0  0  0  0  0
  -21.2007   -7.6147   23.9708 H   0  0  0  0  0  0
  -21.1482   -6.0517   25.9073 H   0  0  0  0  0  0
  -22.0601   -2.7595   23.2857 H   0  0  0  0  0  0
  -22.4071  -11.9925   22.4878 H   0  0  0  0  0  0
  -21.1051  -13.1264   22.2667 H   0  0  0  0  0  0
  -24.6083  -15.8155   20.4092 H   0  0  0  0  0  0
  -26.2031  -15.5958   19.9050 H   0  0  0  0  0  0
  -26.7283  -32.5273   23.1002 H   0  0  0  0  0  0
  -24.9973  -33.9599   25.0237 H   0  0  0  0  0  0
  -22.7571  -31.2814   21.3682 H   0  0  0  0  0  0
  -23.3743  -35.9621   23.3287 H   0  0  0  0  0  0
  -24.3569  -36.8919   22.2048 H   0  0  0  0  0  0
  -23.7270  -37.6473   23.6686 H   0  0  0  0  0  0
  -26.1767  -31.4690   20.6200 H   0  0  0  0  0  0
  -26.8756  -30.7551   22.0419 H   0  0  0  0  0  0
  -28.1525  -28.8181   21.2259 H   0  0  0  0  0  0
  -25.9793  -25.8504   18.9791 H   0  0  0  0  0  0
  -24.0025  -27.2864   18.9741 H   0  0  0  0  0  0
  -23.8246  -30.5507   19.3947 H   0  0  0  0  0  0
  -22.8029  -29.2190   19.8393 H   0  0  0  0  0  0
  -25.1306  -36.1858   25.0805 H   0  0  0  0  0  0
  -21.0002  -28.3336   24.1363 H   0  0  0  0  0  0
  -20.5673  -26.2357   23.3641 H   0  0  0  0  0  0
  -21.6661  -26.7423   22.1223 H   0  0  0  0  0  0
  -19.6932  -25.6272   21.1271 H   0  0  0  0  0  0
  -19.6708  -27.3165   20.6736 H   0  0  0  0  0  0
  -17.4214  -26.6657   21.4057 H   0  0  0  0  0  0
  -18.0369  -26.0094   22.9053 H   0  0  0  0  0  0
  -19.7956  -30.7295   24.2257 H   0  0  0  0  0  0
  -17.5034  -31.6281   24.5176 H   0  0  0  0  0  0
  -15.5370  -30.3011   23.7661 H   0  0  0  0  0  0
  -15.8696  -28.0844   22.7077 H   0  0  0  0  0  0
  -24.5781  -30.7254   25.7777 H   0  0  0  0  0  0
  -24.8917  -32.3085   26.4768 H   0  0  0  0  0  0
  -25.7891  -30.9069   27.0266 H   0  0  0  0  0  0
  -26.2935  -29.6672   24.1330 H   0  0  0  0  0  0
  -27.3780  -29.7213   25.5013 H   0  0  0  0  0  0
  -27.8927  -30.4080   23.9797 H   0  0  0  0  0  0
  -27.2553  -33.3593   26.2133 H   0  0  0  0  0  0
  -28.3799  -32.6976   25.0353 H   0  0  0  0  0  0
  -28.0717  -31.8462   26.5410 H   0  0  0  0  0  0
  -28.2581  -38.0099   24.7476 H   0  0  0  0  0  0
  -28.1097  -36.2621   24.6277 H   0  0  0  0  0  0
  -27.2307  -37.1438   25.8851 H   0  0  0  0  0  0
  -20.9498  -29.8784   21.6773 H   0  0  0  0  0  0
  -26.0153  -38.2817   24.1395 H   0  0  0  0  0  0
  -27.9158  -18.6113   20.8036 H   0  0  0  0  0  0
  -32.0772  -17.8843   19.9353 H   0  0  0  0  0  0
  -27.1105  -24.8612   21.2453 H   0  0  0  0  0  0
  -27.1222  -21.7168   20.8366 H   0  0  0  0  0  0
  -28.2780  -21.9964   22.1716 H   0  0  0  0  0  0
  -28.7781  -15.7882   20.8495 H   0  0  0  0  0  0
  1 25  1  0  0  0
  1 30  2  0  0  0
  1 80  1  0  0  0
  2  3  1  0  0  0
  2 25  1  0  0  0
  2 83  1  0  0  0
  2 84  1  0  0  0
  3  4  1  0  0  0
  3 85  1  0  0  0
  3 86  1  0  0  0
  4  5  1  0  0  0
  4 87  1  0  0  0
  4 88  1  0  0  0
  5  6  1  0  0  0
  5 26  1  0  0  0
  5 89  1  0  0  0
  6 25  1  0  0  0
  6 90  1  0  0  0
  6 91  1  0  0  0
  7  8  2  0  0  0
  7 26  1  0  0  0
  7 29  1  0  0  0
  8  9  1  0  0  0
  8 22  1  0  0  0
  9 10  1  0  0  0
  9 27  2  0  0  0
 10 11  2  0  0  0
 10 15  1  0  0  0
 11 12  1  0  0  0
 11 92  1  0  0  0
 12 13  2  0  0  0
 12 93  1  0  0  0
 13 14  1  0  0  0
 13 31  1  0  0  0
 14 15  2  0  0  0
 14 94  1  0  0  0
 15 95  1  0  0  0
 16 17  2  0  0  0
 16 21  1  0  0  0
 16 31  1  0  0  0
 17 18  1  0  0  0
 17 96  1  0  0  0
 18 19  2  0  0  0
 18 97  1  0  0  0
 19 20  1  0  0  0
 19 24  1  0  0  0
 20 21  2  0  0  0
 20 98  1  0  0  0
 21 23  1  0  0  0
 22 28  1  0  0  0
 22 32  2  0  0  0
 26 27  1  0  0  0
 28 99  1  0  0  0
 28100  1  0  0  0
 29101  1  0  0  0
 29102  1  0  0  0
 33 34  1  0  0  0
 33 66  1  0  0  0
 33 70  2  0  0  0
 34 36  1  0  0  0
 34 59  1  0  0  0
 34103  1  0  0  0
 35 44  2  0  0  0
 35 45  1  0  0  0
 35 68  1  0  0  0
 36 56  1  0  0  0
 36104  1  0  0  0
 37 39  1  0  0  0
 37 47  1  0  0  0
 37 66  1  0  0  0
 37105  1  0  0  0
 38 43  2  0  0  0
 38 46  1  0  0  0
 38 47  1  0  0  0
 39 64  1  0  0  0
 39 67  2  0  0  0
 40 52  1  0  0  0
 40 53  2  0  0  0
 40 58  1  0  0  0
 41106  1  0  0  0
 41107  1  0  0  0
 41108  1  0  0  0
 41 48  1  0  0  0
 42 43  1  0  0  0
 42 66  1  0  0  0
 42109  1  0  0  0
 42110  1  0  0  0
 43 44  1  0  0  0
 44111  1  0  0  0
 45 46  2  0  0  0
 45112  1  0  0  0
 46113  1  0  0  0
 47114  1  0  0  0
 47115  1  0  0  0
 48 56  1  0  0  0
 48 65  1  0  0  0
 48116  1  0  0  0
 49 50  1  0  0  0
 49 53  1  0  0  0
 49 64  1  0  0  0
 49117  1  0  0  0
 50 51  1  0  0  0
 50118  1  0  0  0
 50119  1  0  0  0
 51 52  1  0  0  0
 51120  1  0  0  0
 51121  1  0  0  0
 52122  1  0  0  0
 52123  1  0  0  0
 53 54  1  0  0  0
 54 55  2  0  0  0
 54124  1  0  0  0
 55 57  1  0  0  0
 55125  1  0  0  0
 56 69  2  0  0  0
 57 58  2  0  0  0
 57126  1  0  0  0
 58127  1  0  0  0
 59 60  1  0  0  0
 59 61  1  0  0  0
 59 62  1  0  0  0
 60128  1  0  0  0
 60129  1  0  0  0
 60130  1  0  0  0
 61131  1  0  0  0
 61132  1  0  0  0
 61133  1  0  0  0
 62134  1  0  0  0
 62135  1  0  0  0
 62136  1  0  0  0
 63 65  1  0  0  0
 63137  1  0  0  0
 63138  1  0  0  0
 63139  1  0  0  0
 64140  1  0  0  0
 65141  1  0  0  0
 68 77  1  0  0  0
 71 73  1  0  0  0
 71 74  2  0  0  0
 71142  1  0  0  0
 72 73  2  0  0  0
 72 82  1  0  0  0
 72143  1  0  0  0
 73 80  1  0  0  0
 74 79  1  0  0  0
 74 82  1  0  0  0
 75 76  1  0  0  0
 75 77  2  0  0  0
 75 78  1  0  0  0
 76 79  1  0  0  0
 76 81  2  0  0  0
 77144  1  0  0  0
 78 79  1  0  0  0
 78145  1  0  0  0
 78146  1  0  0  0
 80147  1  0  0  0
M  ISO  4   1 100  68 101  77 101  80 100
M  END
> <chiral flag>
0

> <version>
0

> <s_m_source_file>
/data/baiqing/PycharmProjects/Reinvent-master-3.2/result/LINK_invent/BTK/process_docking_weight1_custom_product_contain_oxygen_bond_distance_aromatic_linkinvent_7_9_3/rearranged_h_0090.sdf

> <i_m_source_file_index>
1

> <r_mmod_Potential_Energy-OPLS-2005>
432.259918212891

> <r_mmod_Stretch_Energy-OPLS-2005>
200.682800292969

> <r_mmod_Bend_Energy-OPLS-2005>
308.552062988281

> <r_mmod_Torsional_Energy-OPLS-2005>
225.725799560547

> <r_mmod_Improper_Torsional_Energy-OPLS-2005>
5.32071685791016

> <r_mmod_Van_der_Waal_Energy-OPLS-2005>
107.453674316406

> <r_mmod_Electrostatic_Energy-OPLS-2005>
-352.235656738281

> <r_mmod_Solvation_Energy-OPLS-2005>
-234.994979858398

> <b_mmod_Minimization_Converged-OPLS-2005>
0

> <r_mmod_RMS_Derivative-OPLS-2005>
5.3515305519104

$$$$
1
                    3D
 Structure written by MMmdl.
157166  0  0  1  0            999 V2000
  -30.5824  -14.9199   20.4086 C   0  0  0  0  0  0
  -30.4322  -12.5704   19.4977 C   0  0  0  0  0  0
  -29.5163  -12.5127   18.2543 C   0  0  0  0  0  0
  -28.0478  -12.3122   18.6696 C   0  0  0  0  0  0
  -27.6269  -13.2490   19.8319 C   0  0  2  0  0  0
  -28.6694  -13.2922   20.9706 C   0  0  0  0  0  0
  -25.2450  -13.8225   20.5692 C   0  0  0  0  0  0
  -24.1776  -13.0453   20.9244 C   0  0  0  0  0  0
  -24.6391  -11.6936   20.8765 C   0  0  0  0  0  0
  -23.9078  -10.4301   21.0407 C   0  0  0  0  0  0
  -24.3634   -9.4214   21.9175 C   0  0  0  0  0  0
  -23.6303   -8.2253   22.0753 C   0  0  0  0  0  0
  -22.4283   -8.0290   21.3543 C   0  0  0  0  0  0
  -21.9922   -9.0259   20.4641 C   0  0  0  0  0  0
  -22.7255  -10.2136   20.3048 C   0  0  0  0  0  0
  -21.6864   -6.0735   22.5274 C   0  0  0  0  0  0
  -21.4016   -6.5633   23.8209 C   0  0  0  0  0  0
  -21.3663   -5.6783   24.9169 C   0  0  0  0  0  0
  -21.6047   -4.3046   24.7217 C   0  0  0  0  0  0
  -21.8828   -3.8142   23.4336 C   0  0  0  0  0  0
  -21.9198   -4.6962   22.3392 C   0  0  0  0  0  0
  -22.7791  -13.5221   21.1870 C   0  0  0  0  0  0
  -22.1663   -4.2150   21.0970 F   0  0  0  0  0  0
  -21.5636   -3.4528   25.7727 F   0  0  0  0  0  0
  -29.9492  -13.6802   20.3681 N   0  0  0  0  0  0
  -26.2867  -12.9457   20.3207 N   0  0  0  0  0  0
  -25.9324  -11.6593   20.5744 N   0  0  0  0  0  0
  -22.0424  -12.8223   22.0419 N   0  0  0  0  0  0
  -25.4117  -15.1952   20.4063 N   0  0  0  0  0  0
  -31.7907  -14.9499   20.1356 O   0  0  0  0  0  0
  -21.6653   -6.8883   21.4238 O   0  0  0  0  0  0
  -22.3479  -14.5508   20.6678 O   0  0  0  0  0  0
  -24.6426  -31.8441   23.1863 C   0  0  0  0  0  0
  -25.9200  -32.4695   23.8262 C   0  0  1  0  0  0
  -27.2304  -27.1537   20.1351 C   0  0  0  0  0  0
  -25.5961  -33.8503   24.2188 N   0  0  0  0  0  0
  -23.4443  -30.4606   21.5327 C   0  0  2  0  0  0
  -24.8916  -28.8815   20.1090 C   0  0  0  0  0  0
  -22.7553  -29.4554   22.4885 C   0  0  0  0  0  0
  -18.0301  -28.1399   22.8469 C   0  0  0  0  0  0
  -24.1493  -36.7236   23.2644 C   0  0  0  0  0  0
  -25.9971  -30.7230   21.3783 C   0  0  0  0  0  0
  -26.0673  -29.3353   20.7178 C   0  0  0  0  0  0
  -27.2311  -28.4856   20.7130 C   0  0  0  0  0  0
  -26.0177  -26.7791   19.5204 C   0  0  0  0  0  0
  -24.8782  -27.6161   19.4985 C   0  0  0  0  0  0
  -23.6652  -29.7790   20.1545 C   0  0  0  0  0  0
  -25.4134  -36.3032   24.0312 C   0  0  1  0  0  0
  -20.5909  -28.3724   23.1238 C   0  0  2  0  0  0
  -20.6789  -26.9435   22.5397 C   0  0  0  0  0  0
  -19.5761  -26.6383   21.5210 C   0  0  0  0  0  0
  -18.1938  -26.7938   22.1615 C   0  0  0  0  0  0
  -19.1558  -28.8883   23.2839 C   0  0  0  0  0  0
  -18.9474  -30.1483   23.8856 C   0  0  0  0  0  0
  -17.6470  -30.6596   24.0557 C   0  0  0  0  0  0
  -25.9081  -34.9409   23.5061 C   0  0  0  0  0  0
  -16.5361  -29.9081   23.6344 C   0  0  0  0  0  0
  -16.7285  -28.6503   23.0357 C   0  0  0  0  0  0
  -26.4526  -31.6579   25.0711 C   0  0  0  0  0  0
  -25.3707  -31.3772   26.1405 C   0  0  0  0  0  0
  -27.0404  -30.2986   24.6284 C   0  0  0  0  0  0
  -27.6051  -32.4363   25.7495 C   0  0  0  0  0  0
  -27.5580  -37.1781   24.8473 C   0  0  0  0  0  0
  -21.4253  -29.3041   22.3607 N   0  0  0  0  0  0
  -26.4295  -37.3746   23.9408 N   0  0  0  0  0  0
  -24.7148  -31.0308   22.0876 N   0  0  0  0  0  0
  -23.4195  -28.8132   23.3057 O   0  0  0  0  0  0
  -28.3354  -26.2406   20.2620 O   0  0  0  0  0  0
  -26.5654  -34.8903   22.4630 O   0  0  0  0  0  0
  -23.5548  -32.1309   23.7095 O   0  0  0  0  0  0
  -29.5011  -19.8560   21.5015 C   0  0  0  0  0  0
  -29.3119  -19.8335   19.1583 C   0  0  0  0  0  0
  -29.2582  -21.2928   21.4912 C   0  0  0  0  0  0
  -29.0379  -21.2678   19.1540 C   0  0  0  0  0  0
  -29.5829  -19.0363   20.3271 C   0  0  0  0  0  0
  -29.0539  -22.1106   20.3218 C   0  0  0  0  0  0
  -29.9103  -24.2413   17.6868 C   0  0  0  0  0  0
  -28.6918  -24.7213   18.1341 C   0  0  0  0  0  0
  -31.0013  -23.7989   18.5833 C   0  0  0  0  0  0
  -30.2700  -17.6023   20.2713 C   0  0  0  0  0  0
  -30.6830  -23.6931   20.1012 C   0  0  0  0  0  0
  -28.5165  -24.8469   19.6687 C   0  0  2  0  0  0
  -29.2218  -23.5982   20.3813 N   0  0  0  0  0  0
  -29.8230  -16.2675   20.5136 N   0  0  0  0  0  0
  -31.5472  -17.7325   19.9057 N   0  3  0  0  0  0
  -27.6645  -25.0249   17.4909 O   0  5  0  0  0  0
  -32.1162  -23.5088   18.1577 O   0  0  0  0  0  0
  -31.4669  -12.7123   19.1820 H   0  0  0  0  0  0
  -30.4148  -11.6233   20.0387 H   0  0  0  0  0  0
  -29.8304  -11.7062   17.5903 H   0  0  0  0  0  0
  -29.6118  -13.4369   17.6825 H   0  0  0  0  0  0
  -27.9338  -11.2710   18.9761 H   0  0  0  0  0  0
  -27.3886  -12.4525   17.8116 H   0  0  0  0  0  0
  -27.5856  -14.2471   19.3944 H   0  0  0  0  0  0
  -28.7503  -12.3244   21.4680 H   0  0  0  0  0  0
  -28.3737  -14.0148   21.7325 H   0  0  0  0  0  0
  -25.2781   -9.5699   22.4754 H   0  0  0  0  0  0
  -24.0025   -7.4644   22.7472 H   0  0  0  0  0  0
  -21.0860   -8.8771   19.8934 H   0  0  0  0  0  0
  -22.3709  -10.9680   19.6160 H   0  0  0  0  0  0
  -21.2001   -7.6139   23.9716 H   0  0  0  0  0  0
  -21.1477   -6.0502   25.9073 H   0  0  0  0  0  0
  -22.0604   -2.7608   23.2829 H   0  0  0  0  0  0
  -22.4040  -11.9915   22.4871 H   0  0  0  0  0  0
  -21.1022  -13.1233   22.2566 H   0  0  0  0  0  0
  -24.6345  -15.8402   20.5011 H   0  0  0  0  0  0
  -26.2207  -15.6200   19.9729 H   0  0  0  0  0  0
  -26.7265  -32.5300   23.0987 H   0  0  0  0  0  0
  -25.0142  -33.9626   25.0362 H   0  0  0  0  0  0
  -22.7449  -31.2843   21.3747 H   0  0  0  0  0  0
  -23.3775  -35.9548   23.3303 H   0  0  0  0  0  0
  -24.3576  -36.8865   22.2059 H   0  0  0  0  0  0
  -23.7218  -37.6418   23.6679 H   0  0  0  0  0  0
  -26.1476  -31.4780   20.6060 H   0  0  0  0  0  0
  -26.8687  -30.7736   22.0194 H   0  0  0  0  0  0
  -28.1294  -28.8292   21.2070 H   0  0  0  0  0  0
  -25.9139  -25.7931   19.0956 H   0  0  0  0  0  0
  -23.9726  -27.2527   19.0325 H   0  0  0  0  0  0
  -23.7877  -30.5449   19.3881 H   0  0  0  0  0  0
  -22.7814  -29.2097   19.8606 H   0  0  0  0  0  0
  -25.1324  -36.1860   25.0803 H   0  0  0  0  0  0
  -20.9995  -28.3318   24.1367 H   0  0  0  0  0  0
  -20.5710  -26.2341   23.3614 H   0  0  0  0  0  0
  -21.6651  -26.7459   22.1181 H   0  0  0  0  0  0
  -19.6928  -25.6285   21.1263 H   0  0  0  0  0  0
  -19.6704  -27.3172   20.6725 H   0  0  0  0  0  0
  -17.4219  -26.6690   21.4009 H   0  0  0  0  0  0
  -18.0334  -26.0085   22.9017 H   0  0  0  0  0  0
  -19.7952  -30.7315   24.2199 H   0  0  0  0  0  0
  -17.5023  -31.6273   24.5159 H   0  0  0  0  0  0
  -15.5362  -30.2968   23.7695 H   0  0  0  0  0  0
  -15.8681  -28.0810   22.7093 H   0  0  0  0  0  0
  -24.5868  -30.7142   25.7719 H   0  0  0  0  0  0
  -24.8915  -32.2959   26.4801 H   0  0  0  0  0  0
  -25.7980  -30.8953   27.0206 H   0  0  0  0  0  0
  -26.3028  -29.6700   24.1276 H   0  0  0  0  0  0
  -27.4017  -29.7295   25.4861 H   0  0  0  0  0  0
  -27.8927  -30.4245   23.9601 H   0  0  0  0  0  0
  -27.2631  -33.3674   26.2028 H   0  0  0  0  0  0
  -28.3879  -32.6917   25.0341 H   0  0  0  0  0  0
  -28.0699  -31.8528   26.5450 H   0  0  0  0  0  0
  -28.2602  -38.0076   24.7526 H   0  0  0  0  0  0
  -28.1075  -36.2607   24.6307 H   0  0  0  0  0  0
  -27.2291  -37.1427   25.8874 H   0  0  0  0  0  0
  -20.9485  -29.8699   21.6721 H   0  0  0  0  0  0
  -26.0164  -38.2813   24.1413 H   0  0  0  0  0  0
  -29.7372  -19.3985   22.4519 H   0  0  0  0  0  0
  -29.3948  -19.3477   18.1957 H   0  0  0  0  0  0
  -29.3290  -21.8047   22.4393 H   0  0  0  0  0  0
  -28.9323  -21.7433   18.1900 H   0  0  0  0  0  0
  -30.0806  -24.1210   16.6263 H   0  0  0  0  0  0
  -31.0994  -24.5669   20.6057 H   0  0  0  0  0  0
  -31.2454  -22.8500   20.5091 H   0  0  0  0  0  0
  -29.4034  -25.4766   19.7296 H   0  0  0  0  0  0
  -28.8420  -16.2731   20.7354 H   0  0  0  0  0  0
  -31.9347  -18.6501   19.7483 H   0  0  0  0  0  0
  -32.1394  -16.9110   19.8523 H   0  0  0  0  0  0
  1 25  1  0  0  0
  1 30  2  0  0  0
  1 84  1  0  0  0
  2  3  1  0  0  0
  2 25  1  0  0  0
  2 88  1  0  0  0
  2 89  1  0  0  0
  3  4  1  0  0  0
  3 90  1  0  0  0
  3 91  1  0  0  0
  4  5  1  0  0  0
  4 92  1  0  0  0
  4 93  1  0  0  0
  5  6  1  0  0  0
  5 26  1  0  0  0
  5 94  1  0  0  0
  6 25  1  0  0  0
  6 95  1  0  0  0
  6 96  1  0  0  0
  7  8  2  0  0  0
  7 26  1  0  0  0
  7 29  1  0  0  0
  8  9  1  0  0  0
  8 22  1  0  0  0
  9 10  1  0  0  0
  9 27  2  0  0  0
 10 11  2  0  0  0
 10 15  1  0  0  0
 11 12  1  0  0  0
 11 97  1  0  0  0
 12 13  2  0  0  0
 12 98  1  0  0  0
 13 14  1  0  0  0
 13 31  1  0  0  0
 14 15  2  0  0  0
 14 99  1  0  0  0
 15100  1  0  0  0
 16 17  2  0  0  0
 16 21  1  0  0  0
 16 31  1  0  0  0
 17 18  1  0  0  0
 17101  1  0  0  0
 18 19  2  0  0  0
 18102  1  0  0  0
 19 20  1  0  0  0
 19 24  1  0  0  0
 20 21  2  0  0  0
 20103  1  0  0  0
 21 23  1  0  0  0
 22 28  1  0  0  0
 22 32  2  0  0  0
 26 27  1  0  0  0
 28104  1  0  0  0
 28105  1  0  0  0
 29106  1  0  0  0
 29107  1  0  0  0
 33 34  1  0  0  0
 33 66  1  0  0  0
 33 70  2  0  0  0
 34 36  1  0  0  0
 34 59  1  0  0  0
 34108  1  0  0  0
 35 44  2  0  0  0
 35 45  1  0  0  0
 35 68  1  0  0  0
 36 56  1  0  0  0
 36109  1  0  0  0
 37 39  1  0  0  0
 37 47  1  0  0  0
 37 66  1  0  0  0
 37110  1  0  0  0
 38 43  2  0  0  0
 38 46  1  0  0  0
 38 47  1  0  0  0
 39 64  1  0  0  0
 39 67  2  0  0  0
 40 52  1  0  0  0
 40 53  2  0  0  0
 40 58  1  0  0  0
 41111  1  0  0  0
 41112  1  0  0  0
 41113  1  0  0  0
 41 48  1  0  0  0
 42 43  1  0  0  0
 42 66  1  0  0  0
 42114  1  0  0  0
 42115  1  0  0  0
 43 44  1  0  0  0
 44116  1  0  0  0
 45 46  2  0  0  0
 45117  1  0  0  0
 46118  1  0  0  0
 47119  1  0  0  0
 47120  1  0  0  0
 48 56  1  0  0  0
 48 65  1  0  0  0
 48121  1  0  0  0
 49 50  1  0  0  0
 49 53  1  0  0  0
 49 64  1  0  0  0
 49122  1  0  0  0
 50 51  1  0  0  0
 50123  1  0  0  0
 50124  1  0  0  0
 51 52  1  0  0  0
 51125  1  0  0  0
 51126  1  0  0  0
 52127  1  0  0  0
 52128  1  0  0  0
 53 54  1  0  0  0
 54 55  2  0  0  0
 54129  1  0  0  0
 55 57  1  0  0  0
 55130  1  0  0  0
 56 69  2  0  0  0
 57 58  2  0  0  0
 57131  1  0  0  0
 58132  1  0  0  0
 59 60  1  0  0  0
 59 61  1  0  0  0
 59 62  1  0  0  0
 60133  1  0  0  0
 60134  1  0  0  0
 60135  1  0  0  0
 61136  1  0  0  0
 61137  1  0  0  0
 61138  1  0  0  0
 62139  1  0  0  0
 62140  1  0  0  0
 62141  1  0  0  0
 63 65  1  0  0  0
 63142  1  0  0  0
 63143  1  0  0  0
 63144  1  0  0  0
 64145  1  0  0  0
 65146  1  0  0  0
 68 82  1  0  0  0
 71 73  2  0  0  0
 71 75  1  0  0  0
 71147  1  0  0  0
 72 74  1  0  0  0
 72 75  2  0  0  0
 72148  1  0  0  0
 73 76  1  0  0  0
 73149  1  0  0  0
 74 76  2  0  0  0
 74150  1  0  0  0
 75 80  1  0  0  0
 76 83  1  0  0  0
 77 78  2  0  0  0
 77 79  1  0  0  0
 77151  1  0  0  0
 78 82  1  0  0  0
 78 86  1  0  0  0
 79 81  1  0  0  0
 79 87  2  0  0  0
 80 84  1  0  0  0
 80 85  2  0  0  0
 81 83  1  0  0  0
 81152  1  0  0  0
 81153  1  0  0  0
 82 83  1  0  0  0
 82154  1  0  0  0
 84155  1  0  0  0
 85156  1  0  0  0
 85157  1  0  0  0
M  CHG  2  85   1  86  -1
M  ISO  4   1 100  68 101  82 101  84 100
M  END
> <chiral flag>
0

> <version>
0

> <s_m_source_file>
/data/baiqing/PycharmProjects/Reinvent-master-3.2/result/LINK_invent/BTK/process_docking_weight1_custom_product_contain_oxygen_bond_distance_aromatic_linkinvent_7_9_3/rearranged_h_0090.sdf

> <i_m_source_file_index>
2

> <r_mmod_Potential_Energy-OPLS-2005>
189.33984375

> <r_mmod_Stretch_Energy-OPLS-2005>
242.537322998047

> <r_mmod_Bend_Energy-OPLS-2005>
434.692565917969

> <r_mmod_Torsional_Energy-OPLS-2005>
249.124725341797

> <r_mmod_Improper_Torsional_Energy-OPLS-2005>
18.4096813201904

> <r_mmod_Van_der_Waal_Energy-OPLS-2005>
172.666488647461

> <r_mmod_Electrostatic_Energy-OPLS-2005>
-578.426147460938

> <r_mmod_Solvation_Energy-OPLS-2005>
-521.648742675781

> <b_mmod_Minimization_Converged-OPLS-2005>
0

> <r_mmod_RMS_Derivative-OPLS-2005>
1.77312910556793

$$$$
2
                    3D
 Structure written by MMmdl.
157165  0  0  1  0            999 V2000
  -30.7731  -14.4383   20.4481 C   0  0  0  0  0  0
  -30.3892  -12.2607   19.4365 C   0  0  0  0  0  0
  -29.4854  -12.4563   18.2038 C   0  0  0  0  0  0
  -28.0042  -12.3519   18.6115 C   0  0  0  0  0  0
  -27.6477  -13.2210   19.8477 C   0  0  2  0  0  0
  -28.6951  -13.0942   20.9785 C   0  0  0  0  0  0
  -25.2530  -13.8197   20.5648 C   0  0  0  0  0  0
  -24.1817  -13.0454   20.9198 C   0  0  0  0  0  0
  -24.6400  -11.6928   20.8764 C   0  0  0  0  0  0
  -23.9068  -10.4305   21.0425 C   0  0  0  0  0  0
  -24.3632   -9.4220   21.9202 C   0  0  0  0  0  0
  -23.6313   -8.2243   22.0756 C   0  0  0  0  0  0
  -22.4294   -8.0279   21.3529 C   0  0  0  0  0  0
  -21.9922   -9.0252   20.4625 C   0  0  0  0  0  0
  -22.7248  -10.2141   20.3046 C   0  0  0  0  0  0
  -21.6834   -6.0733   22.5278 C   0  0  0  0  0  0
  -21.3993   -6.5638   23.8215 C   0  0  0  0  0  0
  -21.3669   -5.6798   24.9190 C   0  0  0  0  0  0
  -21.6064   -4.3062   24.7235 C   0  0  0  0  0  0
  -21.8825   -3.8139   23.4352 C   0  0  0  0  0  0
  -21.9182   -4.6956   22.3406 C   0  0  0  0  0  0
  -22.7833  -13.5229   21.1861 C   0  0  0  0  0  0
  -22.1662   -4.2143   21.0988 F   0  0  0  0  0  0
  -21.5644   -3.4551   25.7744 F   0  0  0  0  0  0
  -30.0236  -13.3089   20.4007 N   0  0  0  0  0  0
  -26.2961  -12.9395   20.3265 N   0  0  0  0  0  0
  -25.9329  -11.6553   20.5766 N   0  0  0  0  0  0
  -22.0444  -12.8231   22.0403 N   0  0  0  0  0  0
  -25.4230  -15.1911   20.3951 N   0  0  0  0  0  0
  -31.9868  -14.4356   20.2288 O   0  0  0  0  0  0
  -21.6641   -6.8881   21.4236 O   0  0  0  0  0  0
  -22.3540  -14.5546   20.6721 O   0  0  0  0  0  0
  -24.6116  -31.8701   23.2127 C   0  0  0  0  0  0
  -25.9021  -32.4841   23.8420 C   0  0  1  0  0  0
  -27.2290  -27.4544   20.1068 C   0  0  0  0  0  0
  -25.5893  -33.8642   24.2358 N   0  0  0  0  0  0
  -23.3977  -30.4923   21.5533 C   0  0  2  0  0  0
  -24.8450  -28.9627   20.1128 C   0  0  0  0  0  0
  -22.7405  -29.4655   22.5023 C   0  0  0  0  0  0
  -18.0268  -28.1382   22.8500 C   0  0  0  0  0  0
  -24.1479  -36.7330   23.2634 C   0  0  0  0  0  0
  -25.9224  -30.8465   21.3565 C   0  0  0  0  0  0
  -26.0033  -29.4808   20.7070 C   0  0  0  0  0  0
  -27.2014  -28.7354   20.6972 C   0  0  0  0  0  0
  -26.0588  -26.9452   19.5014 C   0  0  0  0  0  0
  -24.8678  -27.6944   19.5054 C   0  0  0  0  0  0
  -23.6037  -29.8217   20.1673 C   0  0  0  0  0  0
  -25.4104  -36.3133   24.0337 C   0  0  1  0  0  0
  -20.5857  -28.3652   23.1361 C   0  0  2  0  0  0
  -20.6761  -26.9404   22.5433 C   0  0  0  0  0  0
  -19.5743  -26.6393   21.5228 C   0  0  0  0  0  0
  -18.1917  -26.7939   22.1620 C   0  0  0  0  0  0
  -19.1516  -28.8836   23.2922 C   0  0  0  0  0  0
  -18.9427  -30.1451   23.8919 C   0  0  0  0  0  0
  -17.6425  -30.6594   24.0549 C   0  0  0  0  0  0
  -25.9030  -34.9491   23.5148 C   0  0  0  0  0  0
  -16.5319  -29.9083   23.6329 C   0  0  0  0  0  0
  -16.7251  -28.6500   23.0357 C   0  0  0  0  0  0
  -26.4461  -31.6584   25.0722 C   0  0  0  0  0  0
  -25.3721  -31.3635   26.1452 C   0  0  0  0  0  0
  -27.0273  -30.3039   24.6047 C   0  0  0  0  0  0
  -27.6085  -32.4245   25.7481 C   0  0  0  0  0  0
  -27.5587  -37.1825   24.8466 C   0  0  0  0  0  0
  -21.4135  -29.3017   22.3772 N   0  0  0  0  0  0
  -26.4303  -37.3815   23.9404 N   0  0  0  0  0  0
  -24.6630  -31.0825   22.1010 N   0  0  0  0  0  0
  -23.4197  -28.8194   23.3052 O   0  0  0  0  0  0
  -28.3913  -26.7237   20.1254 O   0  0  0  0  0  0
  -26.5596  -34.8931   22.4713 O   0  0  0  0  0  0
  -23.5321  -32.1434   23.7542 O   0  0  0  0  0  0
  -28.7366  -18.4462   19.6958 C   0  0  0  0  0  0
  -28.3464  -19.8018   19.5579 C   0  0  0  0  0  0
  -30.9996  -19.0502   19.0114 C   0  0  0  0  0  0
  -30.0649  -18.0565   19.3942 C   0  0  0  0  0  0
  -29.2662  -20.7632   19.0816 C   0  0  0  0  0  0
  -30.5995  -20.3820   18.8167 C   0  0  0  0  0  0
  -30.5206  -16.6523   19.3832 C   0  0  0  0  0  0
  -28.8472  -24.3568   19.7360 C   0  0  0  0  0  0
  -28.3545  -22.9045   19.8705 C   0  0  0  0  0  0
  -28.2535  -25.4080   20.6808 C   0  0  0  0  0  0
  -31.5196  -21.3170   18.3239 N   0  0  0  0  0  0
  -28.9139  -22.0860   18.7978 N   0  0  0  0  0  0
  -30.0877  -15.6937   20.2534 N   0  0  0  0  0  0
  -31.4061  -16.3538   18.4139 N   0  3  0  0  0  0
  -29.7066  -24.6528   18.8958 O   0  0  0  0  0  0
  -31.4391  -12.2950   19.1402 H   0  0  0  0  0  0
  -30.2399  -11.2717   19.8727 H   0  0  0  0  0  0
  -29.7150  -11.7064   17.4443 H   0  0  0  0  0  0
  -29.6803  -13.4267   17.7439 H   0  0  0  0  0  0
  -27.7933  -11.3030   18.8179 H   0  0  0  0  0  0
  -27.3645  -12.6233   17.7693 H   0  0  0  0  0  0
  -27.6640  -14.2531   19.5007 H   0  0  0  0  0  0
  -28.6484  -12.1063   21.4410 H   0  0  0  0  0  0
  -28.4937  -13.8177   21.7715 H   0  0  0  0  0  0
  -25.2782   -9.5704   22.4789 H   0  0  0  0  0  0
  -24.0011   -7.4637   22.7496 H   0  0  0  0  0  0
  -21.0832   -8.8766   19.8955 H   0  0  0  0  0  0
  -22.3697  -10.9681   19.6153 H   0  0  0  0  0  0
  -21.1976   -7.6141   23.9719 H   0  0  0  0  0  0
  -21.1494   -6.0526   25.9100 H   0  0  0  0  0  0
  -22.0592   -2.7591   23.2842 H   0  0  0  0  0  0
  -22.4006  -11.9858   22.4765 H   0  0  0  0  0  0
  -21.1065  -13.1289   22.2593 H   0  0  0  0  0  0
  -24.6489  -15.8405   20.4846 H   0  0  0  0  0  0
  -26.2421  -15.6117   19.9781 H   0  0  0  0  0  0
  -26.7103  -32.5563   23.1202 H   0  0  0  0  0  0
  -25.0005  -33.9813   25.0473 H   0  0  0  0  0  0
  -22.6834  -31.3064   21.4163 H   0  0  0  0  0  0
  -23.3752  -35.9659   23.3309 H   0  0  0  0  0  0
  -24.3565  -36.8934   22.2048 H   0  0  0  0  0  0
  -23.7211  -37.6533   23.6633 H   0  0  0  0  0  0
  -26.0195  -31.6120   20.5841 H   0  0  0  0  0  0
  -26.8175  -30.9111   21.9643 H   0  0  0  0  0  0
  -28.0963  -29.1300   21.1598 H   0  0  0  0  0  0
  -26.0635  -25.9723   19.0274 H   0  0  0  0  0  0
  -23.9777  -27.2948   19.0400 H   0  0  0  0  0  0
  -23.6993  -30.5940   19.4040 H   0  0  0  0  0  0
  -22.7314  -29.2313   19.8793 H   0  0  0  0  0  0
  -25.1278  -36.2025   25.0834 H   0  0  0  0  0  0
  -20.9933  -28.3196   24.1487 H   0  0  0  0  0  0
  -20.5709  -26.2242   23.3593 H   0  0  0  0  0  0
  -21.6625  -26.7485   22.1177 H   0  0  0  0  0  0
  -19.6893  -25.6311   21.1246 H   0  0  0  0  0  0
  -19.6706  -27.3216   20.6774 H   0  0  0  0  0  0
  -17.4203  -26.6723   21.4005 H   0  0  0  0  0  0
  -18.0287  -26.0077   22.9000 H   0  0  0  0  0  0
  -19.7894  -30.7274   24.2308 H   0  0  0  0  0  0
  -17.4964  -31.6289   24.5112 H   0  0  0  0  0  0
  -15.5317  -30.2973   23.7658 H   0  0  0  0  0  0
  -15.8648  -28.0813   22.7075 H   0  0  0  0  0  0
  -24.5945  -30.6953   25.7733 H   0  0  0  0  0  0
  -24.8843  -32.2751   26.4921 H   0  0  0  0  0  0
  -25.8059  -30.8771   27.0197 H   0  0  0  0  0  0
  -26.2799  -29.6822   24.1108 H   0  0  0  0  0  0
  -27.4069  -29.7256   25.4479 H   0  0  0  0  0  0
  -27.8622  -30.4387   23.9166 H   0  0  0  0  0  0
  -27.2796  -33.3567   26.2089 H   0  0  0  0  0  0
  -28.3901  -32.6744   25.0289 H   0  0  0  0  0  0
  -28.0740  -31.8304   26.5356 H   0  0  0  0  0  0
  -28.2618  -38.0111   24.7520 H   0  0  0  0  0  0
  -28.1067  -36.2650   24.6291 H   0  0  0  0  0  0
  -27.2297  -37.1464   25.8864 H   0  0  0  0  0  0
  -20.9303  -29.8706   21.6957 H   0  0  0  0  0  0
  -26.0202  -38.2907   24.1394 H   0  0  0  0  0  0
  -27.9985  -17.7171   19.9977 H   0  0  0  0  0  0
  -27.3238  -20.0848   19.7633 H   0  0  0  0  0  0
  -32.0261  -18.7815   18.8046 H   0  0  0  0  0  0
  -27.2665  -22.8914   19.8128 H   0  0  0  0  0  0
  -28.6322  -22.5177   20.8515 H   0  0  0  0  0  0
  -28.7980  -25.3716   21.6238 H   0  0  0  0  0  0
  -27.2207  -25.1496   20.9104 H   0  0  0  0  0  0
  -32.4130  -20.9414   18.0238 H   0  0  0  0  0  0
  -31.1628  -21.9577   17.6234 H   0  0  0  0  0  0
  -29.7547  -22.5581   18.4709 H   0  0  0  0  0  0
  -29.1612  -15.8535   20.6020 H   0  0  0  0  0  0
  -31.6543  -17.0313   17.7103 H   0  0  0  0  0  0
  -31.9715  -15.5212   18.5225 H   0  0  0  0  0  0
  1 25  1  0  0  0
  1 30  2  0  0  0
  1 83  1  0  0  0
  2  3  1  0  0  0
  2 25  1  0  0  0
  2 86  1  0  0  0
  2 87  1  0  0  0
  3  4  1  0  0  0
  3 88  1  0  0  0
  3 89  1  0  0  0
  4  5  1  0  0  0
  4 90  1  0  0  0
  4 91  1  0  0  0
  5  6  1  0  0  0
  5 26  1  0  0  0
  5 92  1  0  0  0
  6 25  1  0  0  0
  6 93  1  0  0  0
  6 94  1  0  0  0
  7  8  2  0  0  0
  7 26  1  0  0  0
  7 29  1  0  0  0
  8  9  1  0  0  0
  8 22  1  0  0  0
  9 10  1  0  0  0
  9 27  2  0  0  0
 10 11  2  0  0  0
 10 15  1  0  0  0
 11 12  1  0  0  0
 11 95  1  0  0  0
 12 13  2  0  0  0
 12 96  1  0  0  0
 13 14  1  0  0  0
 13 31  1  0  0  0
 14 15  2  0  0  0
 14 97  1  0  0  0
 15 98  1  0  0  0
 16 17  2  0  0  0
 16 21  1  0  0  0
 16 31  1  0  0  0
 17 18  1  0  0  0
 17 99  1  0  0  0
 18 19  2  0  0  0
 18100  1  0  0  0
 19 20  1  0  0  0
 19 24  1  0  0  0
 20 21  2  0  0  0
 20101  1  0  0  0
 21 23  1  0  0  0
 22 28  1  0  0  0
 22 32  2  0  0  0
 26 27  1  0  0  0
 28102  1  0  0  0
 28103  1  0  0  0
 29104  1  0  0  0
 29105  1  0  0  0
 33 34  1  0  0  0
 33 66  1  0  0  0
 33 70  2  0  0  0
 34 36  1  0  0  0
 34 59  1  0  0  0
 34106  1  0  0  0
 35 44  2  0  0  0
 35 45  1  0  0  0
 35 68  1  0  0  0
 36 56  1  0  0  0
 36107  1  0  0  0
 37 39  1  0  0  0
 37 47  1  0  0  0
 37 66  1  0  0  0
 37108  1  0  0  0
 38 43  2  0  0  0
 38 46  1  0  0  0
 38 47  1  0  0  0
 39 64  1  0  0  0
 39 67  2  0  0  0
 40 52  1  0  0  0
 40 53  2  0  0  0
 40 58  1  0  0  0
 41109  1  0  0  0
 41110  1  0  0  0
 41111  1  0  0  0
 41 48  1  0  0  0
 42 43  1  0  0  0
 42 66  1  0  0  0
 42112  1  0  0  0
 42113  1  0  0  0
 43 44  1  0  0  0
 44114  1  0  0  0
 45 46  2  0  0  0
 45115  1  0  0  0
 46116  1  0  0  0
 47117  1  0  0  0
 47118  1  0  0  0
 48 56  1  0  0  0
 48 65  1  0  0  0
 48119  1  0  0  0
 49 50  1  0  0  0
 49 53  1  0  0  0
 49 64  1  0  0  0
 49120  1  0  0  0
 50 51  1  0  0  0
 50121  1  0  0  0
 50122  1  0  0  0
 51 52  1  0  0  0
 51123  1  0  0  0
 51124  1  0  0  0
 52125  1  0  0  0
 52126  1  0  0  0
 53 54  1  0  0  0
 54 55  2  0  0  0
 54127  1  0  0  0
 55 57  1  0  0  0
 55128  1  0  0  0
 56 69  2  0  0  0
 57 58  2  0  0  0
 57129  1  0  0  0
 58130  1  0  0  0
 59 60  1  0  0  0
 59 61  1  0  0  0
 59 62  1  0  0  0
 60131  1  0  0  0
 60132  1  0  0  0
 60133  1  0  0  0
 61134  1  0  0  0
 61135  1  0  0  0
 61136  1  0  0  0
 62137  1  0  0  0
 62138  1  0  0  0
 62139  1  0  0  0
 63 65  1  0  0  0
 63140  1  0  0  0
 63141  1  0  0  0
 63142  1  0  0  0
 64143  1  0  0  0
 65144  1  0  0  0
 68 80  1  0  0  0
 71 72  2  0  0  0
 71 74  1  0  0  0
 71145  1  0  0  0
 72 75  1  0  0  0
 72146  1  0  0  0
 73 74  2  0  0  0
 73 76  1  0  0  0
 73147  1  0  0  0
 74 77  1  0  0  0
 75 76  2  0  0  0
 75 82  1  0  0  0
 76 81  1  0  0  0
 77 83  1  0  0  0
 77 84  2  0  0  0
 78 79  1  0  0  0
 78 80  1  0  0  0
 78 85  2  0  0  0
 79 82  1  0  0  0
 79148  1  0  0  0
 79149  1  0  0  0
 80150  1  0  0  0
 80151  1  0  0  0
 81152  1  0  0  0
 81153  1  0  0  0
 82154  1  0  0  0
 83155  1  0  0  0
 84156  1  0  0  0
 84157  1  0  0  0
M  CHG  1  84   1
M  ISO  4   1 100  68 101  80 101  83 100
M  END
> <chiral flag>
0

> <version>
0

> <s_m_source_file>
/data/baiqing/PycharmProjects/Reinvent-master-3.2/result/LINK_invent/BTK/process_docking_weight1_custom_product_contain_oxygen_bond_distance_aromatic_linkinvent_7_9_3/rearranged_h_0090.sdf

> <i_m_source_file_index>
3

> <r_mmod_Potential_Energy-OPLS-2005>
-268.100891113281

> <r_mmod_Stretch_Energy-OPLS-2005>
36.0598945617676

> <r_mmod_Bend_Energy-OPLS-2005>
103.208351135254

> <r_mmod_Torsional_Energy-OPLS-2005>
276.618225097656

> <r_mmod_Improper_Torsional_Energy-OPLS-2005>
26.5868301391602

> <r_mmod_Van_der_Waal_Energy-OPLS-2005>
177.071914672852

> <r_mmod_Electrostatic_Energy-OPLS-2005>
-446.251708984375

> <r_mmod_Solvation_Energy-OPLS-2005>
-471.545593261719

> <b_mmod_Minimization_Converged-OPLS-2005>
0

> <r_mmod_RMS_Derivative-OPLS-2005>
2.90384078025818

$$$$
3
                    3D
 Structure written by MMmdl.
151159  0  0  1  0            999 V2000
  -30.6172  -14.6556   20.4964 C   0  0  0  0  0  0
  -30.4403  -12.4033   19.4541 C   0  0  0  0  0  0
  -29.5089  -12.5134   18.2264 C   0  0  0  0  0  0
  -28.0328  -12.3447   18.6393 C   0  0  0  0  0  0
  -27.6528  -13.2184   19.8649 C   0  0  2  0  0  0
  -28.6986  -13.0814   20.9942 C   0  0  0  0  0  0
  -25.2554  -13.8167   20.5679 C   0  0  0  0  0  0
  -24.1821  -13.0428   20.9161 C   0  0  0  0  0  0
  -24.6401  -11.6903   20.8730 C   0  0  0  0  0  0
  -23.9072  -10.4288   21.0397 C   0  0  0  0  0  0
  -24.3621   -9.4208   21.9177 C   0  0  0  0  0  0
  -23.6293   -8.2245   22.0753 C   0  0  0  0  0  0
  -22.4276   -8.0280   21.3545 C   0  0  0  0  0  0
  -21.9910   -9.0254   20.4650 C   0  0  0  0  0  0
  -22.7240  -10.2131   20.3055 C   0  0  0  0  0  0
  -21.6856   -6.0736   22.5279 C   0  0  0  0  0  0
  -21.4015   -6.5640   23.8212 C   0  0  0  0  0  0
  -21.3663   -5.6793   24.9175 C   0  0  0  0  0  0
  -21.6048   -4.3055   24.7227 C   0  0  0  0  0  0
  -21.8820   -3.8147   23.4349 C   0  0  0  0  0  0
  -21.9193   -4.6963   22.3404 C   0  0  0  0  0  0
  -22.7846  -13.5225   21.1836 C   0  0  0  0  0  0
  -22.1659   -4.2152   21.0980 F   0  0  0  0  0  0
  -21.5631   -3.4538   25.7740 F   0  0  0  0  0  0
  -30.0123  -13.4270   20.4285 N   0  0  0  0  0  0
  -26.2995  -12.9356   20.3346 N   0  0  0  0  0  0
  -25.9336  -11.6506   20.5769 N   0  0  0  0  0  0
  -22.0496  -12.8222   22.0401 N   0  0  0  0  0  0
  -25.4233  -15.1892   20.4132 N   0  0  0  0  0  0
  -31.7842  -14.8111   20.1248 O   0  0  0  0  0  0
  -21.6639   -6.8879   21.4243 O   0  0  0  0  0  0
  -22.3525  -14.5532   20.6690 O   0  0  0  0  0  0
  -24.6264  -31.8606   23.2026 C   0  0  0  0  0  0
  -25.9111  -32.4784   23.8352 C   0  0  1  0  0  0
  -27.2220  -27.3194   20.1159 C   0  0  0  0  0  0
  -25.5929  -33.8587   24.2285 N   0  0  0  0  0  0
  -23.4190  -30.4845   21.5463 C   0  0  2  0  0  0
  -24.8641  -28.9398   20.1108 C   0  0  0  0  0  0
  -22.7473  -29.4632   22.4951 C   0  0  0  0  0  0
  -18.0285  -28.1384   22.8493 C   0  0  0  0  0  0
  -24.1489  -36.7296   23.2635 C   0  0  0  0  0  0
  -25.9596  -30.7920   21.3725 C   0  0  0  0  0  0
  -26.0332  -29.4188   20.7152 C   0  0  0  0  0  0
  -27.2150  -28.6203   20.7078 C   0  0  0  0  0  0
  -26.0294  -26.8945   19.4855 C   0  0  0  0  0  0
  -24.8641  -27.6831   19.4874 C   0  0  0  0  0  0
  -23.6322  -29.8199   20.1612 C   0  0  0  0  0  0
  -25.4115  -36.3092   24.0328 C   0  0  1  0  0  0
  -20.5885  -28.3693   23.1290 C   0  0  2  0  0  0
  -20.6780  -26.9420   22.5411 C   0  0  0  0  0  0
  -19.5750  -26.6385   21.5222 C   0  0  0  0  0  0
  -18.1930  -26.7926   22.1632 C   0  0  0  0  0  0
  -19.1537  -28.8857   23.2885 C   0  0  0  0  0  0
  -18.9459  -30.1459   23.8903 C   0  0  0  0  0  0
  -17.6458  -30.6589   24.0568 C   0  0  0  0  0  0
  -25.9052  -34.9460   23.5108 C   0  0  0  0  0  0
  -16.5350  -29.9088   23.6329 C   0  0  0  0  0  0
  -16.7271  -28.6502   23.0356 C   0  0  0  0  0  0
  -26.4493  -31.6590   25.0721 C   0  0  0  0  0  0
  -25.3730  -31.3734   26.1451 C   0  0  0  0  0  0
  -27.0322  -30.3013   24.6163 C   0  0  0  0  0  0
  -27.6060  -32.4314   25.7488 C   0  0  0  0  0  0
  -27.5587  -37.1799   24.8459 C   0  0  0  0  0  0
  -21.4190  -29.3048   22.3690 N   0  0  0  0  0  0
  -26.4291  -37.3785   23.9413 N   0  0  0  0  0  0
  -24.6873  -31.0618   22.0977 N   0  0  0  0  0  0
  -23.4199  -28.8176   23.3031 O   0  0  0  0  0  0
  -28.3411  -26.4727   20.1707 O   0  0  0  0  0  0
  -26.5623  -34.8926   22.4677 O   0  0  0  0  0  0
  -23.5431  -32.1407   23.7360 O   0  0  0  0  0  0
  -31.1162  -19.3034   20.3510 C   0  0  0  0  0  0
  -31.1004  -17.8774   20.3973 C   0  0  0  0  0  0
  -28.7759  -19.3897   20.8855 C   0  0  0  0  0  0
  -29.9660  -20.1095   20.5997 C   0  0  0  0  0  0
  -29.9153  -17.1624   20.7048 C   0  0  0  0  0  0
  -28.7574  -17.9595   20.9348 C   0  0  0  0  0  0
  -30.1119  -21.6471   20.6956 C   0  0  0  0  0  0
  -29.3045  -24.0448   20.4876 C   0  0  0  0  0  0
  -28.1343  -25.0109   20.0206 C   0  0  0  0  0  0
  -29.7979  -15.7053   20.8234 N   0  0  0  0  0  0
  -29.1186  -22.5419   20.3987 N   0  0  0  0  0  0
  -31.2177  -22.0799   21.0286 O   0  0  0  0  0  0
  -27.5944  -17.3289   21.2274 F   0  0  0  0  0  0
  -31.4809  -12.5318   19.1513 H   0  0  0  0  0  0
  -30.3779  -11.4091   19.8992 H   0  0  0  0  0  0
  -29.7773  -11.7659   17.4794 H   0  0  0  0  0  0
  -29.6460  -13.4847   17.7481 H   0  0  0  0  0  0
  -27.8756  -11.2908   18.8731 H   0  0  0  0  0  0
  -27.3772  -12.5695   17.7975 H   0  0  0  0  0  0
  -27.6662  -14.2524   19.5197 H   0  0  0  0  0  0
  -28.7146  -12.0619   21.3828 H   0  0  0  0  0  0
  -28.4431  -13.7187   21.8424 H   0  0  0  0  0  0
  -25.2766   -9.5686   22.4753 H   0  0  0  0  0  0
  -24.0007   -7.4639   22.7472 H   0  0  0  0  0  0
  -21.0845   -8.8774   19.8954 H   0  0  0  0  0  0
  -22.3697  -10.9673   19.6166 H   0  0  0  0  0  0
  -21.2002   -7.6147   23.9719 H   0  0  0  0  0  0
  -21.1485   -6.0520   25.9079 H   0  0  0  0  0  0
  -22.0596   -2.7611   23.2848 H   0  0  0  0  0  0
  -22.4109  -11.9888   22.4799 H   0  0  0  0  0  0
  -21.1119  -13.1258   22.2613 H   0  0  0  0  0  0
  -24.6607  -15.8416   20.5557 H   0  0  0  0  0  0
  -26.2944  -15.6527   20.1882 H   0  0  0  0  0  0
  -26.7181  -32.5453   23.1102 H   0  0  0  0  0  0
  -25.0081  -33.9731   25.0434 H   0  0  0  0  0  0
  -22.7130  -31.3053   21.4043 H   0  0  0  0  0  0
  -23.3762  -35.9616   23.3279 H   0  0  0  0  0  0
  -24.3586  -36.8938   22.2053 H   0  0  0  0  0  0
  -23.7222  -37.6486   23.6668 H   0  0  0  0  0  0
  -26.0881  -31.5549   20.6035 H   0  0  0  0  0  0
  -26.8413  -30.8427   21.9997 H   0  0  0  0  0  0
  -28.1112  -28.9832   21.1912 H   0  0  0  0  0  0
  -25.9688  -25.9356   18.9931 H   0  0  0  0  0  0
  -23.9683  -27.3112   19.0096 H   0  0  0  0  0  0
  -23.7502  -30.5963   19.4044 H   0  0  0  0  0  0
  -22.7520  -29.2488   19.8598 H   0  0  0  0  0  0
  -25.1294  -36.1945   25.0820 H   0  0  0  0  0  0
  -20.9973  -28.3265   24.1411 H   0  0  0  0  0  0
  -20.5700  -26.2306   23.3611 H   0  0  0  0  0  0
  -21.6647  -26.7463   22.1194 H   0  0  0  0  0  0
  -19.6915  -25.6296   21.1253 H   0  0  0  0  0  0
  -19.6683  -27.3199   20.6754 H   0  0  0  0  0  0
  -17.4203  -26.6682   21.4029 H   0  0  0  0  0  0
  -18.0326  -26.0065   22.9024 H   0  0  0  0  0  0
  -19.7934  -30.7276   24.2274 H   0  0  0  0  0  0
  -17.5010  -31.6269   24.5167 H   0  0  0  0  0  0
  -15.5350  -30.2992   23.7644 H   0  0  0  0  0  0
  -15.8674  -28.0819   22.7075 H   0  0  0  0  0  0
  -24.5855  -30.7150   25.7763 H   0  0  0  0  0  0
  -24.8984  -32.2913   26.4932 H   0  0  0  0  0  0
  -25.8038  -30.8838   27.0193 H   0  0  0  0  0  0
  -26.2884  -29.6772   24.1192 H   0  0  0  0  0  0
  -27.4028  -29.7259   25.4657 H   0  0  0  0  0  0
  -27.8754  -30.4302   23.9374 H   0  0  0  0  0  0
  -27.2675  -33.3603   26.2090 H   0  0  0  0  0  0
  -28.3855  -32.6890   25.0305 H   0  0  0  0  0  0
  -28.0745  -31.8422   26.5382 H   0  0  0  0  0  0
  -28.2586  -38.0115   24.7543 H   0  0  0  0  0  0
  -28.1102  -36.2649   24.6237 H   0  0  0  0  0  0
  -27.2311  -37.1394   25.8861 H   0  0  0  0  0  0
  -20.9371  -29.8773   21.6901 H   0  0  0  0  0  0
  -26.0176  -38.2858   24.1430 H   0  0  0  0  0  0
  -32.0595  -19.7920   20.1480 H   0  0  0  0  0  0
  -32.0237  -17.3470   20.2155 H   0  0  0  0  0  0
  -27.8672  -19.9294   21.1088 H   0  0  0  0  0  0
  -29.5403  -24.2846   21.5251 H   0  0  0  0  0  0
  -30.1960  -24.3070   19.9163 H   0  0  0  0  0  0
  -27.2386  -24.7253   20.5743 H   0  0  0  0  0  0
  -27.9302  -24.8070   18.9688 H   0  0  0  0  0  0
  -28.8759  -15.4081   21.1053 H   0  0  0  0  0  0
  -28.2158  -22.1849   20.1167 H   0  0  0  0  0  0
  1 25  1  0  0  0
  1 30  2  0  0  0
  1 80  1  0  0  0
  2  3  1  0  0  0
  2 25  1  0  0  0
  2 84  1  0  0  0
  2 85  1  0  0  0
  3  4  1  0  0  0
  3 86  1  0  0  0
  3 87  1  0  0  0
  4  5  1  0  0  0
  4 88  1  0  0  0
  4 89  1  0  0  0
  5  6  1  0  0  0
  5 26  1  0  0  0
  5 90  1  0  0  0
  6 25  1  0  0  0
  6 91  1  0  0  0
  6 92  1  0  0  0
  7  8  2  0  0  0
  7 26  1  0  0  0
  7 29  1  0  0  0
  8  9  1  0  0  0
  8 22  1  0  0  0
  9 10  1  0  0  0
  9 27  2  0  0  0
 10 11  2  0  0  0
 10 15  1  0  0  0
 11 12  1  0  0  0
 11 93  1  0  0  0
 12 13  2  0  0  0
 12 94  1  0  0  0
 13 14  1  0  0  0
 13 31  1  0  0  0
 14 15  2  0  0  0
 14 95  1  0  0  0
 15 96  1  0  0  0
 16 17  2  0  0  0
 16 21  1  0  0  0
 16 31  1  0  0  0
 17 18  1  0  0  0
 17 97  1  0  0  0
 18 19  2  0  0  0
 18 98  1  0  0  0
 19 20  1  0  0  0
 19 24  1  0  0  0
 20 21  2  0  0  0
 20 99  1  0  0  0
 21 23  1  0  0  0
 22 28  1  0  0  0
 22 32  2  0  0  0
 26 27  1  0  0  0
 28100  1  0  0  0
 28101  1  0  0  0
 29102  1  0  0  0
 29103  1  0  0  0
 33 34  1  0  0  0
 33 66  1  0  0  0
 33 70  2  0  0  0
 34 36  1  0  0  0
 34 59  1  0  0  0
 34104  1  0  0  0
 35 44  2  0  0  0
 35 45  1  0  0  0
 35 68  1  0  0  0
 36 56  1  0  0  0
 36105  1  0  0  0
 37 39  1  0  0  0
 37 47  1  0  0  0
 37 66  1  0  0  0
 37106  1  0  0  0
 38 43  2  0  0  0
 38 46  1  0  0  0
 38 47  1  0  0  0
 39 64  1  0  0  0
 39 67  2  0  0  0
 40 52  1  0  0  0
 40 53  2  0  0  0
 40 58  1  0  0  0
 41107  1  0  0  0
 41108  1  0  0  0
 41109  1  0  0  0
 41 48  1  0  0  0
 42 43  1  0  0  0
 42 66  1  0  0  0
 42110  1  0  0  0
 42111  1  0  0  0
 43 44  1  0  0  0
 44112  1  0  0  0
 45 46  2  0  0  0
 45113  1  0  0  0
 46114  1  0  0  0
 47115  1  0  0  0
 47116  1  0  0  0
 48 56  1  0  0  0
 48 65  1  0  0  0
 48117  1  0  0  0
 49 50  1  0  0  0
 49 53  1  0  0  0
 49 64  1  0  0  0
 49118  1  0  0  0
 50 51  1  0  0  0
 50119  1  0  0  0
 50120  1  0  0  0
 51 52  1  0  0  0
 51121  1  0  0  0
 51122  1  0  0  0
 52123  1  0  0  0
 52124  1  0  0  0
 53 54  1  0  0  0
 54 55  2  0  0  0
 54125  1  0  0  0
 55 57  1  0  0  0
 55126  1  0  0  0
 56 69  2  0  0  0
 57 58  2  0  0  0
 57127  1  0  0  0
 58128  1  0  0  0
 59 60  1  0  0  0
 59 61  1  0  0  0
 59 62  1  0  0  0
 60129  1  0  0  0
 60130  1  0  0  0
 60131  1  0  0  0
 61132  1  0  0  0
 61133  1  0  0  0
 61134  1  0  0  0
 62135  1  0  0  0
 62136  1  0  0  0
 62137  1  0  0  0
 63 65  1  0  0  0
 63138  1  0  0  0
 63139  1  0  0  0
 63140  1  0  0  0
 64141  1  0  0  0
 65142  1  0  0  0
 68 79  1  0  0  0
 71 72  2  0  0  0
 71 74  1  0  0  0
 71143  1  0  0  0
 72 75  1  0  0  0
 72144  1  0  0  0
 73 74  2  0  0  0
 73 76  1  0  0  0
 73145  1  0  0  0
 74 77  1  0  0  0
 75 76  2  0  0  0
 75 80  1  0  0  0
 76 83  1  0  0  0
 77 81  1  0  0  0
 77 82  2  0  0  0
 78 79  1  0  0  0
 78 81  1  0  0  0
 78146  1  0  0  0
 78147  1  0  0  0
 79148  1  0  0  0
 79149  1  0  0  0
 80150  1  0  0  0
 81151  1  0  0  0
M  ISO  4   1 100  68 101  79 101  80 100
M  END
> <chiral flag>
0

> <version>
0

> <s_m_source_file>
/data/baiqing/PycharmProjects/Reinvent-master-3.2/result/LINK_invent/BTK/process_docking_weight1_custom_product_contain_oxygen_bond_distance_aromatic_linkinvent_7_9_3/rearranged_h_0090.sdf

> <i_m_source_file_index>
4

> <r_mmod_Potential_Energy-OPLS-2005>
-77.2847366333008

> <r_mmod_Stretch_Energy-OPLS-2005>
78.8824691772461

> <r_mmod_Bend_Energy-OPLS-2005>
141.790603637695

> <r_mmod_Torsional_Energy-OPLS-2005>
217.442764282227

> <r_mmod_Improper_Torsional_Energy-OPLS-2005>
4.70903921127319

> <r_mmod_Van_der_Waal_Energy-OPLS-2005>
148.05241394043

> <r_mmod_Electrostatic_Energy-OPLS-2005>
-492.010955810547

> <r_mmod_Solvation_Energy-OPLS-2005>
-227.451812744141

> <b_mmod_Minimization_Converged-OPLS-2005>
0

> <r_mmod_RMS_Derivative-OPLS-2005>
0.871422171592712

$$$$
4
                    3D
 Structure written by MMmdl.
147155  0  0  1  0            999 V2000
  -30.6058  -14.7234   20.4490 C   0  0  0  0  0  0
  -30.4366  -12.4316   19.4792 C   0  0  0  0  0  0
  -29.5168  -12.5066   18.2392 C   0  0  0  0  0  0
  -28.0388  -12.3362   18.6433 C   0  0  0  0  0  0
  -27.6451  -13.2305   19.8488 C   0  0  2  0  0  0
  -28.6863  -13.1486   20.9834 C   0  0  0  0  0  0
  -25.2535  -13.8194   20.5688 C   0  0  0  0  0  0
  -24.1811  -13.0443   20.9180 C   0  0  0  0  0  0
  -24.6397  -11.6919   20.8725 C   0  0  0  0  0  0
  -23.9071  -10.4297   21.0400 C   0  0  0  0  0  0
  -24.3620   -9.4214   21.9182 C   0  0  0  0  0  0
  -23.6295   -8.2248   22.0754 C   0  0  0  0  0  0
  -22.4278   -8.0282   21.3545 C   0  0  0  0  0  0
  -21.9915   -9.0254   20.4647 C   0  0  0  0  0  0
  -22.7243  -10.2133   20.3053 C   0  0  0  0  0  0
  -21.6856   -6.0736   22.5279 C   0  0  0  0  0  0
  -21.4017   -6.5640   23.8212 C   0  0  0  0  0  0
  -21.3662   -5.6793   24.9174 C   0  0  0  0  0  0
  -21.6045   -4.3055   24.7225 C   0  0  0  0  0  0
  -21.8818   -3.8147   23.4346 C   0  0  0  0  0  0
  -21.9193   -4.6964   22.3402 C   0  0  0  0  0  0
  -22.7834  -13.5228   21.1854 C   0  0  0  0  0  0
  -22.1660   -4.2149   21.0980 F   0  0  0  0  0  0
  -21.5630   -3.4539   25.7738 F   0  0  0  0  0  0
  -30.0006  -13.4869   20.4213 N   0  0  0  0  0  0
  -26.2957  -12.9397   20.3260 N   0  0  0  0  0  0
  -25.9325  -11.6538   20.5717 N   0  0  0  0  0  0
  -22.0485  -12.8217   22.0413 N   0  0  0  0  0  0
  -25.4275  -15.1916   20.4157 N   0  0  0  0  0  0
  -31.8014  -14.7932   20.1524 O   0  0  0  0  0  0
  -21.6642   -6.8878   21.4240 O   0  0  0  0  0  0
  -22.3513  -14.5533   20.6707 O   0  0  0  0  0  0
  -24.6314  -31.8570   23.2007 C   0  0  0  0  0  0
  -25.9144  -32.4763   23.8344 C   0  0  1  0  0  0
  -27.2188  -27.2738   20.1103 C   0  0  0  0  0  0
  -25.5944  -33.8565   24.2268 N   0  0  0  0  0  0
  -23.4268  -30.4828   21.5450 C   0  0  2  0  0  0
  -24.8711  -28.9372   20.1098 C   0  0  0  0  0  0
  -22.7504  -29.4614   22.4917 C   0  0  0  0  0  0
  -18.0291  -28.1387   22.8484 C   0  0  0  0  0  0
  -24.1492  -36.7286   23.2638 C   0  0  0  0  0  0
  -25.9744  -30.7735   21.3792 C   0  0  0  0  0  0
  -26.0462  -29.3995   20.7157 C   0  0  0  0  0  0
  -27.2215  -28.5802   20.7070 C   0  0  0  0  0  0
  -26.0046  -26.8726   19.5000 C   0  0  0  0  0  0
  -24.8546  -27.6802   19.4938 C   0  0  0  0  0  0
  -23.6432  -29.8234   20.1596 C   0  0  0  0  0  0
  -25.4119  -36.3075   24.0326 C   0  0  1  0  0  0
  -20.5897  -28.3696   23.1265 C   0  0  2  0  0  0
  -20.6785  -26.9418   22.5394 C   0  0  0  0  0  0
  -19.5755  -26.6397   21.5200 C   0  0  0  0  0  0
  -18.1937  -26.7930   22.1619 C   0  0  0  0  0  0
  -19.1546  -28.8858   23.2871 C   0  0  0  0  0  0
  -18.9469  -30.1457   23.8895 C   0  0  0  0  0  0
  -17.6468  -30.6587   24.0567 C   0  0  0  0  0  0
  -25.9059  -34.9444   23.5097 C   0  0  0  0  0  0
  -16.5359  -29.9085   23.6335 C   0  0  0  0  0  0
  -16.7279  -28.6501   23.0355 C   0  0  0  0  0  0
  -26.4507  -31.6582   25.0730 C   0  0  0  0  0  0
  -25.3725  -31.3730   26.1446 C   0  0  0  0  0  0
  -27.0355  -30.2998   24.6216 C   0  0  0  0  0  0
  -27.6055  -32.4322   25.7506 C   0  0  0  0  0  0
  -27.5580  -37.1802   24.8466 C   0  0  0  0  0  0
  -21.4212  -29.3049   22.3661 N   0  0  0  0  0  0
  -26.4294  -37.3773   23.9405 N   0  0  0  0  0  0
  -24.6970  -31.0549   22.0979 N   0  0  0  0  0  0
  -23.4209  -28.8143   23.3004 O   0  0  0  0  0  0
  -28.3099  -26.3710   20.1775 O   0  0  0  0  0  0
  -26.5626  -34.8918   22.4663 O   0  0  0  0  0  0
  -23.5466  -32.1386   23.7308 O   0  0  0  0  0  0
  -28.2667  -18.8431   20.0414 C   0  0  0  0  0  0
  -28.1780  -20.2808   20.1382 C   0  0  0  0  0  0
  -29.5079  -18.4231   20.4679 C   0  0  0  0  0  0
  -29.3737  -20.7114   20.6426 C   0  0  0  0  0  0
  -30.2318  -17.0867   20.5666 C   0  0  0  0  0  0
  -28.6368  -23.8243   19.8067 C   0  0  0  0  0  0
  -28.2501  -25.1239   19.4983 C   0  0  0  0  0  0
  -29.3188  -23.3029   21.0097 C   0  0  0  0  0  0
  -29.7474  -15.8628   20.6220 N   0  0  0  0  0  0
  -29.7064  -21.9754   21.1248 N   0  0  0  0  0  0
  -29.6128  -24.0518   21.9430 O   0  0  0  0  0  0
  -30.1882  -19.5883   20.8533 O   0  0  0  0  0  0
  -31.4796  -12.5440   19.1785 H   0  0  0  0  0  0
  -30.3675  -11.4502   19.9515 H   0  0  0  0  0  0
  -29.7958  -11.7397   17.5154 H   0  0  0  0  0  0
  -29.6518  -13.4660   17.7370 H   0  0  0  0  0  0
  -27.8874  -11.2866   18.8977 H   0  0  0  0  0  0
  -27.3871  -12.5393   17.7927 H   0  0  0  0  0  0
  -27.6465  -14.2561   19.4791 H   0  0  0  0  0  0
  -28.7066  -12.1493   21.4207 H   0  0  0  0  0  0
  -28.4231  -13.8305   21.7940 H   0  0  0  0  0  0
  -25.2763   -9.5691   22.4758 H   0  0  0  0  0  0
  -24.0004   -7.4643   22.7477 H   0  0  0  0  0  0
  -21.0845   -8.8771   19.8954 H   0  0  0  0  0  0
  -22.3699  -10.9669   19.6161 H   0  0  0  0  0  0
  -21.2010   -7.6148   23.9715 H   0  0  0  0  0  0
  -21.1487   -6.0523   25.9077 H   0  0  0  0  0  0
  -22.0596   -2.7609   23.2845 H   0  0  0  0  0  0
  -22.4105  -11.9877   22.4797 H   0  0  0  0  0  0
  -21.1105  -13.1241   22.2624 H   0  0  0  0  0  0
  -24.6756  -15.8593   20.5463 H   0  0  0  0  0  0
  -26.3063  -15.6231   20.1559 H   0  0  0  0  0  0
  -26.7207  -32.5412   23.1084 H   0  0  0  0  0  0
  -25.0093  -33.9705   25.0414 H   0  0  0  0  0  0
  -22.7227  -31.3054   21.4028 H   0  0  0  0  0  0
  -23.3757  -35.9615   23.3300 H   0  0  0  0  0  0
  -24.3583  -36.8910   22.2053 H   0  0  0  0  0  0
  -23.7244  -37.6486   23.6664 H   0  0  0  0  0  0
  -26.1158  -31.5379   20.6138 H   0  0  0  0  0  0
  -26.8512  -30.8171   22.0136 H   0  0  0  0  0  0
  -28.1205  -28.9282   21.1958 H   0  0  0  0  0  0
  -25.8907  -25.8998   19.0476 H   0  0  0  0  0  0
  -23.9499  -27.3129   19.0289 H   0  0  0  0  0  0
  -23.7686  -30.6031   19.4072 H   0  0  0  0  0  0
  -22.7607  -29.2596   19.8517 H   0  0  0  0  0  0
  -25.1301  -36.1924   25.0819 H   0  0  0  0  0  0
  -20.9991  -28.3265   24.1383 H   0  0  0  0  0  0
  -20.5686  -26.2300   23.3592 H   0  0  0  0  0  0
  -21.6654  -26.7452   22.1183 H   0  0  0  0  0  0
  -19.6917  -25.6316   21.1210 H   0  0  0  0  0  0
  -19.6687  -27.3218   20.6737 H   0  0  0  0  0  0
  -17.4203  -26.6677   21.4024 H   0  0  0  0  0  0
  -18.0342  -26.0067   22.9011 H   0  0  0  0  0  0
  -19.7942  -30.7277   24.2264 H   0  0  0  0  0  0
  -17.5023  -31.6266   24.5168 H   0  0  0  0  0  0
  -15.5361  -30.2989   23.7664 H   0  0  0  0  0  0
  -15.8677  -28.0820   22.7076 H   0  0  0  0  0  0
  -24.5909  -30.7069   25.7773 H   0  0  0  0  0  0
  -24.8906  -32.2898   26.4851 H   0  0  0  0  0  0
  -25.8041  -30.8922   27.0233 H   0  0  0  0  0  0
  -26.2943  -29.6742   24.1228 H   0  0  0  0  0  0
  -27.4023  -29.7263   25.4738 H   0  0  0  0  0  0
  -27.8827  -30.4271   23.9472 H   0  0  0  0  0  0
  -27.2660  -33.3627   26.2067 H   0  0  0  0  0  0
  -28.3877  -32.6872   25.0344 H   0  0  0  0  0  0
  -28.0709  -31.8457   26.5438 H   0  0  0  0  0  0
  -28.2597  -38.0098   24.7510 H   0  0  0  0  0  0
  -28.1077  -36.2630   24.6298 H   0  0  0  0  0  0
  -27.2296  -37.1457   25.8868 H   0  0  0  0  0  0
  -20.9393  -29.8781   21.6875 H   0  0  0  0  0  0
  -26.0174  -38.2847   24.1401 H   0  0  0  0  0  0
  -27.4938  -18.1764   19.6864 H   0  0  0  0  0  0
  -27.3225  -20.9009   19.9105 H   0  0  0  0  0  0
  -31.3180  -17.2190   20.5561 H   0  0  0  0  0  0
  -28.4315  -23.0898   19.0417 H   0  0  0  0  0  0
  -27.8184  -25.2700   18.5188 H   0  0  0  0  0  0
  -30.3717  -21.9012   21.8805 H   0  0  0  0  0  0
  1 25  1  0  0  0
  1 30  2  0  0  0
  1 79  1  0  0  0
  2  3  1  0  0  0
  2 25  1  0  0  0
  2 83  1  0  0  0
  2 84  1  0  0  0
  3  4  1  0  0  0
  3 85  1  0  0  0
  3 86  1  0  0  0
  4  5  1  0  0  0
  4 87  1  0  0  0
  4 88  1  0  0  0
  5  6  1  0  0  0
  5 26  1  0  0  0
  5 89  1  0  0  0
  6 25  1  0  0  0
  6 90  1  0  0  0
  6 91  1  0  0  0
  7  8  2  0  0  0
  7 26  1  0  0  0
  7 29  1  0  0  0
  8  9  1  0  0  0
  8 22  1  0  0  0
  9 10  1  0  0  0
  9 27  2  0  0  0
 10 11  2  0  0  0
 10 15  1  0  0  0
 11 12  1  0  0  0
 11 92  1  0  0  0
 12 13  2  0  0  0
 12 93  1  0  0  0
 13 14  1  0  0  0
 13 31  1  0  0  0
 14 15  2  0  0  0
 14 94  1  0  0  0
 15 95  1  0  0  0
 16 17  2  0  0  0
 16 21  1  0  0  0
 16 31  1  0  0  0
 17 18  1  0  0  0
 17 96  1  0  0  0
 18 19  2  0  0  0
 18 97  1  0  0  0
 19 20  1  0  0  0
 19 24  1  0  0  0
 20 21  2  0  0  0
 20 98  1  0  0  0
 21 23  1  0  0  0
 22 28  1  0  0  0
 22 32  2  0  0  0
 26 27  1  0  0  0
 28 99  1  0  0  0
 28100  1  0  0  0
 29101  1  0  0  0
 29102  1  0  0  0
 33 34  1  0  0  0
 33 66  1  0  0  0
 33 70  2  0  0  0
 34 36  1  0  0  0
 34 59  1  0  0  0
 34103  1  0  0  0
 35 44  2  0  0  0
 35 45  1  0  0  0
 35 68  1  0  0  0
 36 56  1  0  0  0
 36104  1  0  0  0
 37 39  1  0  0  0
 37 47  1  0  0  0
 37 66  1  0  0  0
 37105  1  0  0  0
 38 43  2  0  0  0
 38 46  1  0  0  0
 38 47  1  0  0  0
 39 64  1  0  0  0
 39 67  2  0  0  0
 40 52  1  0  0  0
 40 53  2  0  0  0
 40 58  1  0  0  0
 41106  1  0  0  0
 41107  1  0  0  0
 41108  1  0  0  0
 41 48  1  0  0  0
 42 43  1  0  0  0
 42 66  1  0  0  0
 42109  1  0  0  0
 42110  1  0  0  0
 43 44  1  0  0  0
 44111  1  0  0  0
 45 46  2  0  0  0
 45112  1  0  0  0
 46113  1  0  0  0
 47114  1  0  0  0
 47115  1  0  0  0
 48 56  1  0  0  0
 48 65  1  0  0  0
 48116  1  0  0  0
 49 50  1  0  0  0
 49 53  1  0  0  0
 49 64  1  0  0  0
 49117  1  0  0  0
 50 51  1  0  0  0
 50118  1  0  0  0
 50119  1  0  0  0
 51 52  1  0  0  0
 51120  1  0  0  0
 51121  1  0  0  0
 52122  1  0  0  0
 52123  1  0  0  0
 53 54  1  0  0  0
 54 55  2  0  0  0
 54124  1  0  0  0
 55 57  1  0  0  0
 55125  1  0  0  0
 56 69  2  0  0  0
 57 58  2  0  0  0
 57126  1  0  0  0
 58127  1  0  0  0
 59 60  1  0  0  0
 59 61  1  0  0  0
 59 62  1  0  0  0
 60128  1  0  0  0
 60129  1  0  0  0
 60130  1  0  0  0
 61131  1  0  0  0
 61132  1  0  0  0
 61133  1  0  0  0
 62134  1  0  0  0
 62135  1  0  0  0
 62136  1  0  0  0
 63 65  1  0  0  0
 63137  1  0  0  0
 63138  1  0  0  0
 63139  1  0  0  0
 64140  1  0  0  0
 65141  1  0  0  0
 68 77  1  0  0  0
 71 72  1  0  0  0
 71 73  2  0  0  0
 71142  1  0  0  0
 72 74  2  0  0  0
 72143  1  0  0  0
 73 75  1  0  0  0
 73 82  1  0  0  0
 74 80  1  0  0  0
 74 82  1  0  0  0
 75 79  2  0  0  0
 75144  1  0  0  0
 76 77  2  0  0  0
 76 78  1  0  0  0
 76145  1  0  0  0
 77146  1  0  0  0
 78 80  1  0  0  0
 78 81  2  0  0  0
 80147  1  0  0  0
M  ISO  4   1 100  68 101  77 101  79 100
M  END
> <chiral flag>
0

> <version>
0

> <s_m_source_file>
/data/baiqing/PycharmProjects/Reinvent-master-3.2/result/LINK_invent/BTK/process_docking_weight1_custom_product_contain_oxygen_bond_distance_aromatic_linkinvent_7_9_3/rearranged_h_0090.sdf

> <i_m_source_file_index>
5

> <r_mmod_Potential_Energy-OPLS-2005>
123.627777099609

> <r_mmod_Stretch_Energy-OPLS-2005>
97.9496002197266

> <r_mmod_Bend_Energy-OPLS-2005>
209.866775512695

> <r_mmod_Torsional_Energy-OPLS-2005>
204.521453857422

> <r_mmod_Improper_Torsional_Energy-OPLS-2005>
6.50568389892578

> <r_mmod_Van_der_Waal_Energy-OPLS-2005>
130.326889038086

> <r_mmod_Electrostatic_Energy-OPLS-2005>
-391.770690917969

> <r_mmod_Solvation_Energy-OPLS-2005>
-211.681365966797

> <b_mmod_Minimization_Converged-OPLS-2005>
0

> <r_mmod_RMS_Derivative-OPLS-2005>
0.45513716340065

$$$$
5
                    3D
 Structure written by MMmdl.
156165  0  0  1  0            999 V2000
  -30.6453  -14.6759   20.4500 C   0  0  0  0  0  0
  -30.4380  -12.4039   19.4538 C   0  0  0  0  0  0
  -29.5069  -12.4958   18.2223 C   0  0  0  0  0  0
  -28.0287  -12.3417   18.6283 C   0  0  0  0  0  0
  -27.6439  -13.2292   19.8412 C   0  0  2  0  0  0
  -28.6962  -13.1531   20.9742 C   0  0  0  0  0  0
  -25.2478  -13.8150   20.5673 C   0  0  0  0  0  0
  -24.1791  -13.0415   20.9186 C   0  0  0  0  0  0
  -24.6407  -11.6896   20.8744 C   0  0  0  0  0  0
  -23.9082  -10.4283   21.0419 C   0  0  0  0  0  0
  -24.3607   -9.4189   21.9215 C   0  0  0  0  0  0
  -23.6284   -8.2223   22.0768 C   0  0  0  0  0  0
  -22.4278   -8.0275   21.3536 C   0  0  0  0  0  0
  -21.9922   -9.0237   20.4601 C   0  0  0  0  0  0
  -22.7264  -10.2118   20.3047 C   0  0  0  0  0  0
  -21.6860   -6.0723   22.5282 C   0  0  0  0  0  0
  -21.4014   -6.5631   23.8206 C   0  0  0  0  0  0
  -21.3663   -5.6790   24.9169 C   0  0  0  0  0  0
  -21.6059   -4.3056   24.7229 C   0  0  0  0  0  0
  -21.8827   -3.8132   23.4348 C   0  0  0  0  0  0
  -21.9178   -4.6949   22.3388 C   0  0  0  0  0  0
  -22.7794  -13.5177   21.1860 C   0  0  0  0  0  0
  -22.1669   -4.2145   21.0974 F   0  0  0  0  0  0
  -21.5613   -3.4533   25.7733 F   0  0  0  0  0  0
  -30.0173  -13.4587   20.3953 N   0  0  0  0  0  0
  -26.2959  -12.9404   20.3243 N   0  0  0  0  0  0
  -25.9353  -11.6554   20.5753 N   0  0  0  0  0  0
  -22.0434  -12.8178   22.0377 N   0  0  0  0  0  0
  -25.4084  -15.1906   20.4118 N   0  0  0  0  0  0
  -31.8439  -14.8001   20.1854 O   0  0  0  0  0  0
  -21.6645   -6.8881   21.4263 O   0  0  0  0  0  0
  -22.3499  -14.5484   20.6673 O   0  0  0  0  0  0
  -24.6353  -31.8578   23.2016 C   0  0  0  0  0  0
  -25.9192  -32.4766   23.8322 C   0  0  1  0  0  0
  -27.2265  -27.3112   20.1089 C   0  0  0  0  0  0
  -25.5995  -33.8561   24.2273 N   0  0  0  0  0  0
  -23.4273  -30.4893   21.5424 C   0  0  2  0  0  0
  -24.8715  -28.9523   20.1052 C   0  0  0  0  0  0
  -22.7510  -29.4616   22.4845 C   0  0  0  0  0  0
  -18.0284  -28.1403   22.8504 C   0  0  0  0  0  0
  -24.1522  -36.7300   23.2640 C   0  0  0  0  0  0
  -25.9702  -30.7985   21.3596 C   0  0  0  0  0  0
  -26.0469  -29.4245   20.7031 C   0  0  0  0  0  0
  -27.2312  -28.6221   20.6852 C   0  0  0  0  0  0
  -26.0153  -26.8989   19.4947 C   0  0  0  0  0  0
  -24.8578  -27.6959   19.4931 C   0  0  0  0  0  0
  -23.6466  -29.8390   20.1530 C   0  0  0  0  0  0
  -25.4130  -36.3068   24.0329 C   0  0  1  0  0  0
  -20.5899  -28.3726   23.1279 C   0  0  2  0  0  0
  -20.6765  -26.9445   22.5413 C   0  0  0  0  0  0
  -19.5737  -26.6406   21.5226 C   0  0  0  0  0  0
  -18.1912  -26.7937   22.1624 C   0  0  0  0  0  0
  -19.1536  -28.8872   23.2895 C   0  0  0  0  0  0
  -18.9457  -30.1451   23.8952 C   0  0  0  0  0  0
  -17.6467  -30.6611   24.0575 C   0  0  0  0  0  0
  -25.9081  -34.9454   23.5091 C   0  0  0  0  0  0
  -16.5360  -29.9128   23.6315 C   0  0  0  0  0  0
  -16.7269  -28.6529   23.0364 C   0  0  0  0  0  0
  -26.4568  -31.6540   25.0667 C   0  0  0  0  0  0
  -25.3795  -31.3606   26.1366 C   0  0  0  0  0  0
  -27.0437  -30.3000   24.6047 C   0  0  0  0  0  0
  -27.6111  -32.4220   25.7513 C   0  0  0  0  0  0
  -27.5579  -37.1812   24.8470 C   0  0  0  0  0  0
  -21.4197  -29.3106   22.3670 N   0  0  0  0  0  0
  -26.4282  -37.3780   23.9428 N   0  0  0  0  0  0
  -24.6978  -31.0625   22.0932 N   0  0  0  0  0  0
  -23.4234  -28.8073   23.2858 O   0  0  0  0  0  0
  -28.3229  -26.4268   20.1730 O   0  0  0  0  0  0
  -26.5629  -34.8925   22.4652 O   0  0  0  0  0  0
  -23.5516  -32.1365   23.7370 O   0  0  0  0  0  0
  -29.0350  -19.4462   19.8479 C   0  0  0  0  0  0
  -30.4114  -23.9355   20.6158 C   0  0  0  0  0  0
  -31.0248  -17.9465   21.0952 C   0  0  0  0  0  0
  -28.7752  -22.4712   20.3423 C   0  0  0  0  0  0
  -29.0398  -18.0189   19.7598 C   0  0  0  0  0  0
  -29.0257  -23.8441   20.3299 C   0  0  0  0  0  0
  -30.0202  -20.1974   20.5523 C   0  0  0  0  0  0
  -29.9939  -17.2166   20.4490 C   0  0  0  0  0  0
  -31.0480  -19.3817   21.1449 C   0  0  0  0  0  0
  -30.9050  -22.6691   20.8045 C   0  0  0  0  0  0
  -28.0333  -17.3628   18.8337 C   0  0  0  0  0  0
  -27.9984  -24.9826   20.0374 C   0  0  0  0  0  0
  -29.9326  -21.6852   20.5753 N   0  0  0  0  0  0
  -29.8095  -15.7575   20.5266 N   0  0  0  0  0  0
  -32.1767  -22.3842   21.1725 O   0  0  0  0  0  0
  -32.0858  -19.9276   21.8179 F   0  0  0  0  0  0
  -31.4782  -12.5260   19.1469 H   0  0  0  0  0  0
  -30.3698  -11.4262   19.9336 H   0  0  0  0  0  0
  -29.7673  -11.7372   17.4826 H   0  0  0  0  0  0
  -29.6469  -13.4610   17.7335 H   0  0  0  0  0  0
  -27.8473  -11.2931   18.8554 H   0  0  0  0  0  0
  -27.3855  -12.5799   17.7792 H   0  0  0  0  0  0
  -27.6294  -14.2505   19.4619 H   0  0  0  0  0  0
  -28.6986  -12.1716   21.4489 H   0  0  0  0  0  0
  -28.4509  -13.8693   21.7609 H   0  0  0  0  0  0
  -25.2752   -9.5673   22.4776 H   0  0  0  0  0  0
  -23.9981   -7.4628   22.7534 H   0  0  0  0  0  0
  -21.0848   -8.8739   19.8899 H   0  0  0  0  0  0
  -22.3739  -10.9634   19.6120 H   0  0  0  0  0  0
  -21.2042   -7.6158   23.9704 H   0  0  0  0  0  0
  -21.1485   -6.0533   25.9079 H   0  0  0  0  0  0
  -22.0600   -2.7597   23.2851 H   0  0  0  0  0  0
  -22.4027  -11.9833   22.4752 H   0  0  0  0  0  0
  -21.1079  -13.1264   22.2592 H   0  0  0  0  0  0
  -24.6272  -15.8304   20.4959 H   0  0  0  0  0  0
  -26.2457  -15.6353   20.0662 H   0  0  0  0  0  0
  -26.7268  -32.5490   23.1088 H   0  0  0  0  0  0
  -25.0107  -33.9667   25.0395 H   0  0  0  0  0  0
  -22.7230  -31.3154   21.4054 H   0  0  0  0  0  0
  -23.3775  -35.9634   23.3237 H   0  0  0  0  0  0
  -24.3613  -36.8996   22.2063 H   0  0  0  0  0  0
  -23.7292  -37.6489   23.6715 H   0  0  0  0  0  0
  -26.0784  -31.5535   20.5791 H   0  0  0  0  0  0
  -26.8621  -30.8673   21.9701 H   0  0  0  0  0  0
  -28.1386  -28.9935   21.1417 H   0  0  0  0  0  0
  -25.9058  -25.9346   19.0216 H   0  0  0  0  0  0
  -23.9509  -27.3273   19.0298 H   0  0  0  0  0  0
  -23.7955  -30.6323   19.4198 H   0  0  0  0  0  0
  -22.7611  -29.2916   19.8241 H   0  0  0  0  0  0
  -25.1291  -36.1884   25.0808 H   0  0  0  0  0  0
  -20.9993  -28.3328   24.1406 H   0  0  0  0  0  0
  -20.5698  -26.2330   23.3608 H   0  0  0  0  0  0
  -21.6620  -26.7469   22.1191 H   0  0  0  0  0  0
  -19.6894  -25.6329   21.1219 H   0  0  0  0  0  0
  -19.6672  -27.3230   20.6768 H   0  0  0  0  0  0
  -17.4180  -26.6745   21.4018 H   0  0  0  0  0  0
  -18.0276  -26.0080   22.9004 H   0  0  0  0  0  0
  -19.7943  -30.7224   24.2386 H   0  0  0  0  0  0
  -17.5040  -31.6310   24.5161 H   0  0  0  0  0  0
  -15.5355  -30.3064   23.7613 H   0  0  0  0  0  0
  -15.8650  -28.0856   22.7071 H   0  0  0  0  0  0
  -24.6002  -30.6951   25.7639 H   0  0  0  0  0  0
  -24.8970  -32.2751   26.4815 H   0  0  0  0  0  0
  -25.8119  -30.8739   27.0121 H   0  0  0  0  0  0
  -26.3003  -29.6681   24.1175 H   0  0  0  0  0  0
  -27.4341  -29.7275   25.4473 H   0  0  0  0  0  0
  -27.8760  -30.4321   23.9125 H   0  0  0  0  0  0
  -27.2737  -33.3537   26.2056 H   0  0  0  0  0  0
  -28.4010  -32.6707   25.0419 H   0  0  0  0  0  0
  -28.0674  -31.8328   26.5475 H   0  0  0  0  0  0
  -28.2527  -38.0177   24.7565 H   0  0  0  0  0  0
  -28.1145  -36.2689   24.6236 H   0  0  0  0  0  0
  -27.2285  -37.1394   25.8873 H   0  0  0  0  0  0
  -20.9343  -29.8999   21.7037 H   0  0  0  0  0  0
  -26.0135  -38.2828   24.1490 H   0  0  0  0  0  0
  -28.2540  -19.9819   19.3280 H   0  0  0  0  0  0
  -30.9865  -24.8483   20.6884 H   0  0  0  0  0  0
  -31.8208  -17.4054   21.5828 H   0  0  0  0  0  0
  -27.8243  -21.9822   20.1814 H   0  0  0  0  0  0
  -27.7128  -18.0693   18.0663 H   0  0  0  0  0  0
  -27.1539  -17.0240   19.3786 H   0  0  0  0  0  0
  -28.4808  -16.5169   18.3088 H   0  0  0  0  0  0
  -27.1323  -24.7650   20.6663 H   0  0  0  0  0  0
  -27.6947  -24.7950   19.0071 H   0  0  0  0  0  0
  -28.8474  -15.4603   20.5282 H   0  0  0  0  0  0
  -32.5452  -23.1967   21.5100 H   0  0  0  0  0  0
  1 25  1  0  0  0
  1 30  2  0  0  0
  1 84  1  0  0  0
  2  3  1  0  0  0
  2 25  1  0  0  0
  2 87  1  0  0  0
  2 88  1  0  0  0
  3  4  1  0  0  0
  3 89  1  0  0  0
  3 90  1  0  0  0
  4  5  1  0  0  0
  4 91  1  0  0  0
  4 92  1  0  0  0
  5  6  1  0  0  0
  5 26  1  0  0  0
  5 93  1  0  0  0
  6 25  1  0  0  0
  6 94  1  0  0  0
  6 95  1  0  0  0
  7  8  2  0  0  0
  7 26  1  0  0  0
  7 29  1  0  0  0
  8  9  1  0  0  0
  8 22  1  0  0  0
  9 10  1  0  0  0
  9 27  2  0  0  0
 10 11  2  0  0  0
 10 15  1  0  0  0
 11 12  1  0  0  0
 11 96  1  0  0  0
 12 13  2  0  0  0
 12 97  1  0  0  0
 13 14  1  0  0  0
 13 31  1  0  0  0
 14 15  2  0  0  0
 14 98  1  0  0  0
 15 99  1  0  0  0
 16 17  2  0  0  0
 16 21  1  0  0  0
 16 31  1  0  0  0
 17 18  1  0  0  0
 17100  1  0  0  0
 18 19  2  0  0  0
 18101  1  0  0  0
 19 20  1  0  0  0
 19 24  1  0  0  0
 20 21  2  0  0  0
 20102  1  0  0  0
 21 23  1  0  0  0
 22 28  1  0  0  0
 22 32  2  0  0  0
 26 27  1  0  0  0
 28103  1  0  0  0
 28104  1  0  0  0
 29105  1  0  0  0
 29106  1  0  0  0
 33 34  1  0  0  0
 33 66  1  0  0  0
 33 70  2  0  0  0
 34 36  1  0  0  0
 34 59  1  0  0  0
 34107  1  0  0  0
 35 44  2  0  0  0
 35 45  1  0  0  0
 35 68  1  0  0  0
 36 56  1  0  0  0
 36108  1  0  0  0
 37 39  1  0  0  0
 37 47  1  0  0  0
 37 66  1  0  0  0
 37109  1  0  0  0
 38 43  2  0  0  0
 38 46  1  0  0  0
 38 47  1  0  0  0
 39 64  1  0  0  0
 39 67  2  0  0  0
 40 52  1  0  0  0
 40 53  2  0  0  0
 40 58  1  0  0  0
 41110  1  0  0  0
 41111  1  0  0  0
 41112  1  0  0  0
 41 48  1  0  0  0
 42 43  1  0  0  0
 42 66  1  0  0  0
 42113  1  0  0  0
 42114  1  0  0  0
 43 44  1  0  0  0
 44115  1  0  0  0
 45 46  2  0  0  0
 45116  1  0  0  0
 46117  1  0  0  0
 47118  1  0  0  0
 47119  1  0  0  0
 48 56  1  0  0  0
 48 65  1  0  0  0
 48120  1  0  0  0
 49 50  1  0  0  0
 49 53  1  0  0  0
 49 64  1  0  0  0
 49121  1  0  0  0
 50 51  1  0  0  0
 50122  1  0  0  0
 50123  1  0  0  0
 51 52  1  0  0  0
 51124  1  0  0  0
 51125  1  0  0  0
 52126  1  0  0  0
 52127  1  0  0  0
 53 54  1  0  0  0
 54 55  2  0  0  0
 54128  1  0  0  0
 55 57  1  0  0  0
 55129  1  0  0  0
 56 69  2  0  0  0
 57 58  2  0  0  0
 57130  1  0  0  0
 58131  1  0  0  0
 59 60  1  0  0  0
 59 61  1  0  0  0
 59 62  1  0  0  0
 60132  1  0  0  0
 60133  1  0  0  0
 60134  1  0  0  0
 61135  1  0  0  0
 61136  1  0  0  0
 61137  1  0  0  0
 62138  1  0  0  0
 62139  1  0  0  0
 62140  1  0  0  0
 63 65  1  0  0  0
 63141  1  0  0  0
 63142  1  0  0  0
 63143  1  0  0  0
 64144  1  0  0  0
 65145  1  0  0  0
 68 82  1  0  0  0
 71 75  2  0  0  0
 71 77  1  0  0  0
 71146  1  0  0  0
 72 76  1  0  0  0
 72 80  2  0  0  0
 72147  1  0  0  0
 73 78  2  0  0  0
 73 79  1  0  0  0
 73148  1  0  0  0
 74 76  2  0  0  0
 74 83  1  0  0  0
 74149  1  0  0  0
 75 78  1  0  0  0
 75 81  1  0  0  0
 76 82  1  0  0  0
 77 79  2  0  0  0
 77 83  1  0  0  0
 78 84  1  0  0  0
 79 86  1  0  0  0
 80 83  1  0  0  0
 80 85  1  0  0  0
 81150  1  0  0  0
 81151  1  0  0  0
 81152  1  0  0  0
 82153  1  0  0  0
 82154  1  0  0  0
 84155  1  0  0  0
 85156  1  0  0  0
M  ISO  4   1 100  68 101  82 101  84 100
M  END
> <chiral flag>
0

> <version>
0

> <s_m_source_file>
/data/baiqing/PycharmProjects/Reinvent-master-3.2/result/LINK_invent/BTK/process_docking_weight1_custom_product_contain_oxygen_bond_distance_aromatic_linkinvent_7_9_3/rearranged_h_0090.sdf

> <i_m_source_file_index>
6

> <r_mmod_Potential_Energy-OPLS-2005>
118.461448669434

> <r_mmod_Stretch_Energy-OPLS-2005>
90.5634536743164

> <r_mmod_Bend_Energy-OPLS-2005>
158.288467407227

> <r_mmod_Torsional_Energy-OPLS-2005>
241.826934814453

> <r_mmod_Improper_Torsional_Energy-OPLS-2005>
7.56252431869507

> <r_mmod_Van_der_Waal_Energy-OPLS-2005>
147.234313964844

> <r_mmod_Electrostatic_Energy-OPLS-2005>
-359.805328369141

> <r_mmod_Solvation_Energy-OPLS-2005>
-230.477676391602

> <b_mmod_Minimization_Converged-OPLS-2005>
0

> <r_mmod_RMS_Derivative-OPLS-2005>
6.72117853164673

$$$$
6
                    3D
 Structure written by MMmdl.
159168  0  0  1  0            999 V2000
  -30.6388  -14.6880   20.5856 C   0  0  0  0  0  0
  -30.4311  -12.4481   19.4691 C   0  0  0  0  0  0
  -29.5084  -12.5328   18.2334 C   0  0  0  0  0  0
  -28.0351  -12.3454   18.6388 C   0  0  0  0  0  0
  -27.6451  -13.2238   19.8541 C   0  0  2  0  0  0
  -28.6758  -13.1045   20.9909 C   0  0  0  0  0  0
  -25.2526  -13.8180   20.5660 C   0  0  0  0  0  0
  -24.1805  -13.0439   20.9169 C   0  0  0  0  0  0
  -24.6388  -11.6917   20.8723 C   0  0  0  0  0  0
  -23.9063  -10.4300   21.0397 C   0  0  0  0  0  0
  -24.3623   -9.4218   21.9175 C   0  0  0  0  0  0
  -23.6306   -8.2249   22.0755 C   0  0  0  0  0  0
  -22.4286   -8.0283   21.3543 C   0  0  0  0  0  0
  -21.9915   -9.0255   20.4646 C   0  0  0  0  0  0
  -22.7238  -10.2137   20.3050 C   0  0  0  0  0  0
  -21.6855   -6.0738   22.5279 C   0  0  0  0  0  0
  -21.4013   -6.5639   23.8211 C   0  0  0  0  0  0
  -21.3658   -5.6793   24.9176 C   0  0  0  0  0  0
  -21.6049   -4.3057   24.7228 C   0  0  0  0  0  0
  -21.8818   -3.8152   23.4344 C   0  0  0  0  0  0
  -21.9196   -4.6967   22.3400 C   0  0  0  0  0  0
  -22.7833  -13.5225   21.1857 C   0  0  0  0  0  0
  -22.1660   -4.2151   21.0977 F   0  0  0  0  0  0
  -21.5637   -3.4544   25.7738 F   0  0  0  0  0  0
  -29.9943  -13.4736   20.4474 N   0  0  0  0  0  0
  -26.2934  -12.9370   20.3238 N   0  0  0  0  0  0
  -25.9304  -11.6517   20.5700 N   0  0  0  0  0  0
  -22.0485  -12.8203   22.0419 N   0  0  0  0  0  0
  -25.4267  -15.1906   20.4124 N   0  0  0  0  0  0
  -31.7348  -14.8662   20.0421 O   0  0  0  0  0  0
  -21.6645   -6.8884   21.4241 O   0  0  0  0  0  0
  -22.3509  -14.5544   20.6737 O   0  0  0  0  0  0
  -24.6298  -31.8559   23.1991 C   0  0  0  0  0  0
  -25.9132  -32.4749   23.8325 C   0  0  1  0  0  0
  -27.2156  -27.2770   20.1136 C   0  0  0  0  0  0
  -25.5943  -33.8561   24.2250 N   0  0  0  0  0  0
  -23.4233  -30.4793   21.5428 C   0  0  2  0  0  0
  -24.8664  -28.9269   20.1073 C   0  0  0  0  0  0
  -22.7471  -29.4612   22.4930 C   0  0  0  0  0  0
  -18.0269  -28.1382   22.8495 C   0  0  0  0  0  0
  -24.1482  -36.7273   23.2633 C   0  0  0  0  0  0
  -25.9672  -30.7727   21.3739 C   0  0  0  0  0  0
  -26.0359  -29.3966   20.7163 C   0  0  0  0  0  0
  -27.2098  -28.5812   20.7119 C   0  0  0  0  0  0
  -26.0161  -26.8622   19.4925 C   0  0  0  0  0  0
  -24.8610  -27.6676   19.4882 C   0  0  0  0  0  0
  -23.6366  -29.8121   20.1582 C   0  0  0  0  0  0
  -25.4103  -36.3063   24.0324 C   0  0  1  0  0  0
  -20.5873  -28.3698   23.1287 C   0  0  2  0  0  0
  -20.6766  -26.9412   22.5430 C   0  0  0  0  0  0
  -19.5745  -26.6385   21.5229 C   0  0  0  0  0  0
  -18.1918  -26.7932   22.1617 C   0  0  0  0  0  0
  -19.1520  -28.8858   23.2893 C   0  0  0  0  0  0
  -18.9448  -30.1456   23.8917 C   0  0  0  0  0  0
  -17.6451  -30.6595   24.0569 C   0  0  0  0  0  0
  -25.9062  -34.9437   23.5086 C   0  0  0  0  0  0
  -16.5343  -29.9088   23.6335 C   0  0  0  0  0  0
  -16.7263  -28.6496   23.0375 C   0  0  0  0  0  0
  -26.4492  -31.6579   25.0714 C   0  0  0  0  0  0
  -25.3712  -31.3741   26.1441 C   0  0  0  0  0  0
  -27.0319  -30.2980   24.6211 C   0  0  0  0  0  0
  -27.6071  -32.4301   25.7471 C   0  0  0  0  0  0
  -27.5592  -37.1748   24.8425 C   0  0  0  0  0  0
  -21.4182  -29.3048   22.3674 N   0  0  0  0  0  0
  -26.4257  -37.3793   23.9457 N   0  0  0  0  0  0
  -24.6926  -31.0538   22.0952 N   0  0  0  0  0  0
  -23.4179  -28.8158   23.3035 O   0  0  0  0  0  0
  -28.3357  -26.4242   20.1917 O   0  0  0  0  0  0
  -26.5641  -34.8917   22.4662 O   0  0  0  0  0  0
  -23.5454  -32.1378   23.7304 O   0  0  0  0  0  0
  -29.8056  -19.5166   21.8556 C   0  0  0  0  0  0
  -28.9007  -19.0317   19.6999 C   0  0  0  0  0  0
  -30.1361  -18.1391   22.0225 C   0  0  0  0  0  0
  -29.2415  -17.6369   19.8650 C   0  0  0  0  0  0
  -27.6164  -23.3439   21.2879 C   0  0  0  0  0  0
  -28.4133  -23.7158   20.1655 C   0  0  0  0  0  0
  -29.1505  -20.0186   20.7032 C   0  0  0  0  0  0
  -29.8510  -17.1266   21.0534 C   0  0  0  0  0  0
  -29.0601  -22.5171   19.8083 C   0  0  0  0  0  0
  -27.8021  -22.0087   21.5496 C   0  0  0  0  0  0
  -30.0228  -22.2765   18.6892 C   0  0  0  0  0  0
  -30.1519  -15.3688   22.8136 C   0  0  0  0  0  0
  -28.4572  -25.1357   19.4475 C   0  0  0  0  0  0
  -28.7034  -21.4326   20.6598 N   0  0  0  0  0  0
  -30.0682  -15.6802   21.3740 N   0  0  0  0  0  0
  -27.2154  -21.2583   22.5202 O   0  0  0  0  0  0
  -31.4720  -12.5799   19.1704 H   0  0  0  0  0  0
  -30.3782  -11.4558   19.9192 H   0  0  0  0  0  0
  -29.7930  -11.7817   17.4967 H   0  0  0  0  0  0
  -29.6340  -13.5009   17.7481 H   0  0  0  0  0  0
  -27.8896  -11.2920   18.8825 H   0  0  0  0  0  0
  -27.3775  -12.5549   17.7942 H   0  0  0  0  0  0
  -27.6595  -14.2567   19.5052 H   0  0  0  0  0  0
  -28.7002  -12.0896   21.3894 H   0  0  0  0  0  0
  -28.3598  -13.7406   21.8157 H   0  0  0  0  0  0
  -25.2770   -9.5695   22.4742 H   0  0  0  0  0  0
  -24.0021   -7.4639   22.7473 H   0  0  0  0  0  0
  -21.0848   -8.8771   19.8945 H   0  0  0  0  0  0
  -22.3698  -10.9677   19.6161 H   0  0  0  0  0  0
  -21.1996   -7.6142   23.9717 H   0  0  0  0  0  0
  -21.1479   -6.0522   25.9081 H   0  0  0  0  0  0
  -22.0598   -2.7612   23.2850 H   0  0  0  0  0  0
  -22.4117  -11.9852   22.4767 H   0  0  0  0  0  0
  -21.1114  -13.1219   22.2659 H   0  0  0  0  0  0
  -24.6706  -15.8534   20.5442 H   0  0  0  0  0  0
  -26.2931  -15.6292   20.1270 H   0  0  0  0  0  0
  -26.7204  -32.5394   23.1071 H   0  0  0  0  0  0
  -25.0098  -33.9704   25.0404 H   0  0  0  0  0  0
  -22.7203  -31.3020   21.3993 H   0  0  0  0  0  0
  -23.3776  -35.9557   23.3198 H   0  0  0  0  0  0
  -24.3614  -36.8999   22.2072 H   0  0  0  0  0  0
  -23.7175  -37.6415   23.6724 H   0  0  0  0  0  0
  -26.1031  -31.5327   20.6028 H   0  0  0  0  0  0
  -26.8468  -30.8222   22.0032 H   0  0  0  0  0  0
  -28.1062  -28.9361   21.2002 H   0  0  0  0  0  0
  -25.9253  -25.8891   19.0363 H   0  0  0  0  0  0
  -23.9606  -27.2993   19.0157 H   0  0  0  0  0  0
  -23.7526  -30.5884   19.4007 H   0  0  0  0  0  0
  -22.7543  -29.2425   19.8606 H   0  0  0  0  0  0
  -25.1271  -36.1883   25.0805 H   0  0  0  0  0  0
  -20.9975  -28.3288   24.1399 H   0  0  0  0  0  0
  -20.5667  -26.2314   23.3639 H   0  0  0  0  0  0
  -21.6642  -26.7438   22.1231 H   0  0  0  0  0  0
  -19.6920  -25.6299   21.1258 H   0  0  0  0  0  0
  -19.6690  -27.3204   20.6768 H   0  0  0  0  0  0
  -17.4199  -26.6711   21.3998 H   0  0  0  0  0  0
  -18.0280  -26.0055   22.8982 H   0  0  0  0  0  0
  -19.7929  -30.7269   24.2303 H   0  0  0  0  0  0
  -17.5001  -31.6271   24.5162 H   0  0  0  0  0  0
  -15.5349  -30.3000   23.7654 H   0  0  0  0  0  0
  -15.8653  -28.0823   22.7106 H   0  0  0  0  0  0
  -24.5982  -30.6953   25.7814 H   0  0  0  0  0  0
  -24.8775  -32.2893   26.4721 H   0  0  0  0  0  0
  -25.8047  -30.9087   27.0301 H   0  0  0  0  0  0
  -26.2887  -29.6745   24.1227 H   0  0  0  0  0  0
  -27.3970  -29.7242   25.4742 H   0  0  0  0  0  0
  -27.8780  -30.4243   23.9453 H   0  0  0  0  0  0
  -27.2731  -33.3649   26.1989 H   0  0  0  0  0  0
  -28.3900  -32.6783   25.0288 H   0  0  0  0  0  0
  -28.0704  -31.8449   26.5423 H   0  0  0  0  0  0
  -28.2487  -38.0164   24.7664 H   0  0  0  0  0  0
  -28.1204  -36.2719   24.5980 H   0  0  0  0  0  0
  -27.2364  -37.1083   25.8826 H   0  0  0  0  0  0
  -20.9359  -29.8768   21.6882 H   0  0  0  0  0  0
  -26.0107  -38.2815   24.1594 H   0  0  0  0  0  0
  -30.0220  -20.1998   22.6635 H   0  0  0  0  0  0
  -28.3888  -19.3346   18.7977 H   0  0  0  0  0  0
  -30.6011  -17.8800   22.9616 H   0  0  0  0  0  0
  -28.9720  -16.9484   19.0768 H   0  0  0  0  0  0
  -26.9544  -23.9988   21.8373 H   0  0  0  0  0  0
  -30.5178  -23.1967   18.3812 H   0  0  0  0  0  0
  -29.5100  -21.8632   17.8205 H   0  0  0  0  0  0
  -30.8033  -21.5733   18.9824 H   0  0  0  0  0  0
  -31.0830  -15.7493   23.2355 H   0  0  0  0  0  0
  -30.1332  -14.3018   23.0436 H   0  0  0  0  0  0
  -29.3165  -15.8183   23.3528 H   0  0  0  0  0  0
  -27.7931  -25.1000   18.5857 H   0  0  0  0  0  0
  -29.4447  -25.1926   18.9912 H   0  0  0  0  0  0
  -26.5608  -21.8006   22.9475 H   0  0  0  0  0  0
  1 25  1  0  0  0
  1 30  2  0  0  0
  1 85  1  0  0  0
  2  3  1  0  0  0
  2 25  1  0  0  0
  2 87  1  0  0  0
  2 88  1  0  0  0
  3  4  1  0  0  0
  3 89  1  0  0  0
  3 90  1  0  0  0
  4  5  1  0  0  0
  4 91  1  0  0  0
  4 92  1  0  0  0
  5  6  1  0  0  0
  5 26  1  0  0  0
  5 93  1  0  0  0
  6 25  1  0  0  0
  6 94  1  0  0  0
  6 95  1  0  0  0
  7  8  2  0  0  0
  7 26  1  0  0  0
  7 29  1  0  0  0
  8  9  1  0  0  0
  8 22  1  0  0  0
  9 10  1  0  0  0
  9 27  2  0  0  0
 10 11  2  0  0  0
 10 15  1  0  0  0
 11 12  1  0  0  0
 11 96  1  0  0  0
 12 13  2  0  0  0
 12 97  1  0  0  0
 13 14  1  0  0  0
 13 31  1  0  0  0
 14 15  2  0  0  0
 14 98  1  0  0  0
 15 99  1  0  0  0
 16 17  2  0  0  0
 16 21  1  0  0  0
 16 31  1  0  0  0
 17 18  1  0  0  0
 17100  1  0  0  0
 18 19  2  0  0  0
 18101  1  0  0  0
 19 20  1  0  0  0
 19 24  1  0  0  0
 20 21  2  0  0  0
 20102  1  0  0  0
 21 23  1  0  0  0
 22 28  1  0  0  0
 22 32  2  0  0  0
 26 27  1  0  0  0
 28103  1  0  0  0
 28104  1  0  0  0
 29105  1  0  0  0
 29106  1  0  0  0
 33 34  1  0  0  0
 33 66  1  0  0  0
 33 70  2  0  0  0
 34 36  1  0  0  0
 34 59  1  0  0  0
 34107  1  0  0  0
 35 44  2  0  0  0
 35 45  1  0  0  0
 35 68  1  0  0  0
 36 56  1  0  0  0
 36108  1  0  0  0
 37 39  1  0  0  0
 37 47  1  0  0  0
 37 66  1  0  0  0
 37109  1  0  0  0
 38 43  2  0  0  0
 38 46  1  0  0  0
 38 47  1  0  0  0
 39 64  1  0  0  0
 39 67  2  0  0  0
 40 52  1  0  0  0
 40 53  2  0  0  0
 40 58  1  0  0  0
 41110  1  0  0  0
 41111  1  0  0  0
 41112  1  0  0  0
 41 48  1  0  0  0
 42 43  1  0  0  0
 42 66  1  0  0  0
 42113  1  0  0  0
 42114  1  0  0  0
 43 44  1  0  0  0
 44115  1  0  0  0
 45 46  2  0  0  0
 45116  1  0  0  0
 46117  1  0  0  0
 47118  1  0  0  0
 47119  1  0  0  0
 48 56  1  0  0  0
 48 65  1  0  0  0
 48120  1  0  0  0
 49 50  1  0  0  0
 49 53  1  0  0  0
 49 64  1  0  0  0
 49121  1  0  0  0
 50 51  1  0  0  0
 50122  1  0  0  0
 50123  1  0  0  0
 51 52  1  0  0  0
 51124  1  0  0  0
 51125  1  0  0  0
 52126  1  0  0  0
 52127  1  0  0  0
 53 54  1  0  0  0
 54 55  2  0  0  0
 54128  1  0  0  0
 55 57  1  0  0  0
 55129  1  0  0  0
 56 69  2  0  0  0
 57 58  2  0  0  0
 57130  1  0  0  0
 58131  1  0  0  0
 59 60  1  0  0  0
 59 61  1  0  0  0
 59 62  1  0  0  0
 60132  1  0  0  0
 60133  1  0  0  0
 60134  1  0  0  0
 61135  1  0  0  0
 61136  1  0  0  0
 61137  1  0  0  0
 62138  1  0  0  0
 62139  1  0  0  0
 62140  1  0  0  0
 63 65  1  0  0  0
 63141  1  0  0  0
 63142  1  0  0  0
 63143  1  0  0  0
 64144  1  0  0  0
 65145  1  0  0  0
 68 83  1  0  0  0
 71 73  2  0  0  0
 71 77  1  0  0  0
 71146  1  0  0  0
 72 74  1  0  0  0
 72 77  2  0  0  0
 72147  1  0  0  0
 73 78  1  0  0  0
 73148  1  0  0  0
 74 78  2  0  0  0
 74149  1  0  0  0
 75 76  1  0  0  0
 75 80  2  0  0  0
 75150  1  0  0  0
 76 79  2  0  0  0
 76 83  1  0  0  0
 77 84  1  0  0  0
 78 85  1  0  0  0
 79 81  1  0  0  0
 79 84  1  0  0  0
 80 84  1  0  0  0
 80 86  1  0  0  0
 81151  1  0  0  0
 81152  1  0  0  0
 81153  1  0  0  0
 82 85  1  0  0  0
 82154  1  0  0  0
 82155  1  0  0  0
 82156  1  0  0  0
 83157  1  0  0  0
 83158  1  0  0  0
 86159  1  0  0  0
M  ISO  4   1 100  68 101  83 101  85 100
M  END
> <chiral flag>
0

> <version>
0

> <s_m_source_file>
/data/baiqing/PycharmProjects/Reinvent-master-3.2/result/LINK_invent/BTK/process_docking_weight1_custom_product_contain_oxygen_bond_distance_aromatic_linkinvent_7_9_3/rearranged_h_0090.sdf

> <i_m_source_file_index>
7

> <r_mmod_Potential_Energy-OPLS-2005>
290.719909667969

> <r_mmod_Stretch_Energy-OPLS-2005>
110.587257385254

> <r_mmod_Bend_Energy-OPLS-2005>
170.592681884766

> <r_mmod_Torsional_Energy-OPLS-2005>
300.396850585938

> <r_mmod_Improper_Torsional_Energy-OPLS-2005>
4.17449951171875

> <r_mmod_Van_der_Waal_Energy-OPLS-2005>
141.488342285156

> <r_mmod_Electrostatic_Energy-OPLS-2005>
-298.264099121094

> <r_mmod_Solvation_Energy-OPLS-2005>
-204.348617553711

> <b_mmod_Minimization_Converged-OPLS-2005>
0

> <r_mmod_RMS_Derivative-OPLS-2005>
2.00538682937622

$$$$
7
                    3D
 Structure written by MMmdl.
157165  0  0  1  0            999 V2000
  -30.7336  -14.4568   20.4504 C   0  0  0  0  0  0
  -30.4057  -12.2699   19.4276 C   0  0  0  0  0  0
  -29.4895  -12.4732   18.2033 C   0  0  0  0  0  0
  -28.0094  -12.3583   18.6173 C   0  0  0  0  0  0
  -27.6566  -13.2157   19.8633 C   0  0  2  0  0  0
  -28.7078  -13.0535   20.9884 C   0  0  0  0  0  0
  -25.2572  -13.8188   20.5698 C   0  0  0  0  0  0
  -24.1837  -13.0452   20.9196 C   0  0  0  0  0  0
  -24.6404  -11.6919   20.8746 C   0  0  0  0  0  0
  -23.9075  -10.4301   21.0407 C   0  0  0  0  0  0
  -24.3626   -9.4213   21.9178 C   0  0  0  0  0  0
  -23.6300   -8.2247   22.0747 C   0  0  0  0  0  0
  -22.4279   -8.0288   21.3542 C   0  0  0  0  0  0
  -21.9920   -9.0264   20.4642 C   0  0  0  0  0  0
  -22.7251  -10.2139   20.3051 C   0  0  0  0  0  0
  -21.6857   -6.0734   22.5278 C   0  0  0  0  0  0
  -21.4013   -6.5639   23.8212 C   0  0  0  0  0  0
  -21.3652   -5.6791   24.9174 C   0  0  0  0  0  0
  -21.6044   -4.3054   24.7227 C   0  0  0  0  0  0
  -21.8821   -3.8143   23.4351 C   0  0  0  0  0  0
  -21.9198   -4.6960   22.3406 C   0  0  0  0  0  0
  -22.7856  -13.5235   21.1856 C   0  0  0  0  0  0
  -22.1665   -4.2147   21.0984 F   0  0  0  0  0  0
  -21.5629   -3.4538   25.7740 F   0  0  0  0  0  0
  -30.0368  -13.2942   20.4138 N   0  0  0  0  0  0
  -26.3017  -12.9374   20.3354 N   0  0  0  0  0  0
  -25.9336  -11.6530   20.5782 N   0  0  0  0  0  0
  -22.0506  -12.8214   22.0408 N   0  0  0  0  0  0
  -25.4272  -15.1910   20.4095 N   0  0  0  0  0  0
  -31.9335  -14.5222   20.1814 O   0  0  0  0  0  0
  -21.6644   -6.8879   21.4239 O   0  0  0  0  0  0
  -22.3539  -14.5544   20.6717 O   0  0  0  0  0  0
  -24.6187  -31.8697   23.2073 C   0  0  0  0  0  0
  -25.9071  -32.4823   23.8381 C   0  0  1  0  0  0
  -27.2251  -27.4320   20.0953 C   0  0  0  0  0  0
  -25.5937  -33.8618   24.2325 N   0  0  0  0  0  0
  -23.4030  -30.4964   21.5498 C   0  0  2  0  0  0
  -24.8420  -28.9575   20.1167 C   0  0  0  0  0  0
  -22.7439  -29.4666   22.4964 C   0  0  0  0  0  0
  -18.0281  -28.1377   22.8499 C   0  0  0  0  0  0
  -24.1496  -36.7303   23.2625 C   0  0  0  0  0  0
  -25.9313  -30.8332   21.3599 C   0  0  0  0  0  0
  -26.0051  -29.4683   20.7077 C   0  0  0  0  0  0
  -27.1999  -28.7167   20.6875 C   0  0  0  0  0  0
  -26.0425  -26.9325   19.5022 C   0  0  0  0  0  0
  -24.8555  -27.6898   19.5116 C   0  0  0  0  0  0
  -23.6104  -29.8312   20.1635 C   0  0  0  0  0  0
  -25.4118  -36.3109   24.0327 C   0  0  1  0  0  0
  -20.5889  -28.3680   23.1279 C   0  0  2  0  0  0
  -20.6781  -26.9406   22.5426 C   0  0  0  0  0  0
  -19.5753  -26.6378   21.5234 C   0  0  0  0  0  0
  -18.1929  -26.7916   22.1628 C   0  0  0  0  0  0
  -19.1536  -28.8852   23.2889 C   0  0  0  0  0  0
  -18.9470  -30.1465   23.8891 C   0  0  0  0  0  0
  -17.6463  -30.6576   24.0593 C   0  0  0  0  0  0
  -25.9045  -34.9469   23.5120 C   0  0  0  0  0  0
  -16.5365  -29.9092   23.6332 C   0  0  0  0  0  0
  -16.7277  -28.6511   23.0334 C   0  0  0  0  0  0
  -26.4454  -31.6595   25.0727 C   0  0  0  0  0  0
  -25.3710  -31.3709   26.1477 C   0  0  0  0  0  0
  -27.0230  -30.3025   24.6088 C   0  0  0  0  0  0
  -27.6038  -32.4288   25.7508 C   0  0  0  0  0  0
  -27.5581  -37.1802   24.8453 C   0  0  0  0  0  0
  -21.4166  -29.3045   22.3698 N   0  0  0  0  0  0
  -26.4288  -37.3809   23.9402 N   0  0  0  0  0  0
  -24.6701  -31.0798   22.0975 N   0  0  0  0  0  0
  -23.4230  -28.8183   23.2974 O   0  0  0  0  0  0
  -28.4006  -26.7126   20.1035 O   0  0  0  0  0  0
  -26.5592  -34.8923   22.4668 O   0  0  0  0  0  0
  -23.5378  -32.1417   23.7474 O   0  0  0  0  0  0
  -28.7429  -18.6193   19.4615 C   0  0  0  0  0  0
  -28.4840  -20.0021   19.6020 C   0  0  0  0  0  0
  -30.6996  -20.3178   20.5551 C   0  0  0  0  0  0
  -29.9930  -18.0855   19.8409 C   0  0  0  0  0  0
  -29.4671  -20.8732   20.1274 C   0  0  0  0  0  0
  -30.9592  -18.9409   20.4143 C   0  0  0  0  0  0
  -29.7599  -23.2268   20.9058 C   0  0  0  0  0  0
  -30.3716  -16.6580   19.4642 C   0  0  0  0  0  0
  -28.2957  -25.2792   20.1953 C   0  0  0  0  0  0
  -29.7006  -24.7147   20.4980 C   0  0  2  0  0  0
  -29.2352  -22.2867   20.0907 N   0  0  0  0  0  0
  -29.9829  -15.5706   20.3785 N   0  0  0  0  0  0
  -30.6418  -24.9932   19.3951 N   0  3  0  0  0  0
  -30.3319  -22.9382   21.9596 O   0  0  0  0  0  0
  -32.1752  -18.4570   20.7669 F   0  0  0  0  0  0
  -31.4532  -12.3269   19.1246 H   0  0  0  0  0  0
  -30.2699  -11.2723   19.8488 H   0  0  0  0  0  0
  -29.7178  -11.7351   17.4341 H   0  0  0  0  0  0
  -29.6751  -13.4499   17.7540 H   0  0  0  0  0  0
  -27.8067  -11.3058   18.8203 H   0  0  0  0  0  0
  -27.3648  -12.6339   17.7809 H   0  0  0  0  0  0
  -27.6802  -14.2545   19.5338 H   0  0  0  0  0  0
  -28.6688  -12.0478   21.4124 H   0  0  0  0  0  0
  -28.5055  -13.7406   21.8112 H   0  0  0  0  0  0
  -25.2776   -9.5687   22.4747 H   0  0  0  0  0  0
  -24.0015   -7.4639   22.7464 H   0  0  0  0  0  0
  -21.0852   -8.8788   19.8948 H   0  0  0  0  0  0
  -22.3722  -10.9676   19.6156 H   0  0  0  0  0  0
  -21.1996   -7.6147   23.9716 H   0  0  0  0  0  0
  -21.1466   -6.0517   25.9076 H   0  0  0  0  0  0
  -22.0603   -2.7608   23.2854 H   0  0  0  0  0  0
  -22.4141  -11.9867   22.4771 H   0  0  0  0  0  0
  -21.1117  -13.1207   22.2613 H   0  0  0  0  0  0
  -24.6611  -15.8456   20.5240 H   0  0  0  0  0  0
  -26.2765  -15.6334   20.0828 H   0  0  0  0  0  0
  -26.7168  -32.5523   23.1162 H   0  0  0  0  0  0
  -25.0190  -33.9784   25.0544 H   0  0  0  0  0  0
  -22.6916  -31.3140   21.4147 H   0  0  0  0  0  0
  -23.3757  -35.9637   23.3324 H   0  0  0  0  0  0
  -24.3570  -36.8893   22.2030 H   0  0  0  0  0  0
  -23.7255  -37.6516   23.6618 H   0  0  0  0  0  0
  -26.0506  -31.5926   20.5857 H   0  0  0  0  0  0
  -26.8166  -30.8822   21.9831 H   0  0  0  0  0  0
  -28.0996  -29.1090   21.1385 H   0  0  0  0  0  0
  -26.0182  -25.9675   19.0204 H   0  0  0  0  0  0
  -23.9612  -27.2900   19.0544 H   0  0  0  0  0  0
  -23.7319  -30.6092   19.4082 H   0  0  0  0  0  0
  -22.7294  -29.2636   19.8606 H   0  0  0  0  0  0
  -25.1297  -36.1963   25.0824 H   0  0  0  0  0  0
  -21.0021  -28.3263   24.1384 H   0  0  0  0  0  0
  -20.5727  -26.2289   23.3634 H   0  0  0  0  0  0
  -21.6631  -26.7439   22.1188 H   0  0  0  0  0  0
  -19.6931  -25.6304   21.1225 H   0  0  0  0  0  0
  -19.6675  -27.3218   20.6803 H   0  0  0  0  0  0
  -17.4219  -26.6714   21.4015 H   0  0  0  0  0  0
  -18.0283  -26.0029   22.8999 H   0  0  0  0  0  0
  -19.7953  -30.7299   24.2207 H   0  0  0  0  0  0
  -17.5022  -31.6237   24.5230 H   0  0  0  0  0  0
  -15.5364  -30.3014   23.7612 H   0  0  0  0  0  0
  -15.8678  -28.0858   22.6998 H   0  0  0  0  0  0
  -24.5974  -30.6938   25.7852 H   0  0  0  0  0  0
  -24.8790  -32.2852   26.4800 H   0  0  0  0  0  0
  -25.8079  -30.9025   27.0318 H   0  0  0  0  0  0
  -26.2740  -29.6881   24.1094 H   0  0  0  0  0  0
  -27.3925  -29.7178   25.4518 H   0  0  0  0  0  0
  -27.8624  -30.4308   23.9257 H   0  0  0  0  0  0
  -27.2678  -33.3646   26.1984 H   0  0  0  0  0  0
  -28.3891  -32.6754   25.0355 H   0  0  0  0  0  0
  -28.0639  -31.8469   26.5496 H   0  0  0  0  0  0
  -28.2590  -38.0120   24.7511 H   0  0  0  0  0  0
  -28.1097  -36.2638   24.6265 H   0  0  0  0  0  0
  -27.2284  -37.1439   25.8859 H   0  0  0  0  0  0
  -20.9353  -29.8794   21.6932 H   0  0  0  0  0  0
  -26.0179  -38.2889   24.1441 H   0  0  0  0  0  0
  -28.0023  -17.9854   18.9935 H   0  0  0  0  0  0
  -27.5348  -20.3923   19.2605 H   0  0  0  0  0  0
  -31.4946  -20.9420   20.9344 H   0  0  0  0  0  0
  -31.4462  -16.6684   19.2699 H   0  0  0  0  0  0
  -29.9308  -16.4348   18.4921 H   0  0  0  0  0  0
  -27.6034  -25.0067   20.9947 H   0  0  0  0  0  0
  -27.9141  -24.8551   19.2645 H   0  0  0  0  0  0
  -30.0742  -25.2683   21.3605 H   0  0  0  0  0  0
  -28.6353  -22.6020   19.3423 H   0  0  0  0  0  0
  -29.0034  -15.4792   20.5965 H   0  0  0  0  0  0
  -30.3719  -24.5381   18.5419 H   0  0  0  0  0  0
  -31.5635  -24.6765   19.6477 H   0  0  0  0  0  0
  -30.6805  -25.9846   19.2287 H   0  0  0  0  0  0
  1 25  1  0  0  0
  1 30  2  0  0  0
  1 82  1  0  0  0
  2  3  1  0  0  0
  2 25  1  0  0  0
  2 86  1  0  0  0
  2 87  1  0  0  0
  3  4  1  0  0  0
  3 88  1  0  0  0
  3 89  1  0  0  0
  4  5  1  0  0  0
  4 90  1  0  0  0
  4 91  1  0  0  0
  5  6  1  0  0  0
  5 26  1  0  0  0
  5 92  1  0  0  0
  6 25  1  0  0  0
  6 93  1  0  0  0
  6 94  1  0  0  0
  7  8  2  0  0  0
  7 26  1  0  0  0
  7 29  1  0  0  0
  8  9  1  0  0  0
  8 22  1  0  0  0
  9 10  1  0  0  0
  9 27  2  0  0  0
 10 11  2  0  0  0
 10 15  1  0  0  0
 11 12  1  0  0  0
 11 95  1  0  0  0
 12 13  2  0  0  0
 12 96  1  0  0  0
 13 14  1  0  0  0
 13 31  1  0  0  0
 14 15  2  0  0  0
 14 97  1  0  0  0
 15 98  1  0  0  0
 16 17  2  0  0  0
 16 21  1  0  0  0
 16 31  1  0  0  0
 17 18  1  0  0  0
 17 99  1  0  0  0
 18 19  2  0  0  0
 18100  1  0  0  0
 19 20  1  0  0  0
 19 24  1  0  0  0
 20 21  2  0  0  0
 20101  1  0  0  0
 21 23  1  0  0  0
 22 28  1  0  0  0
 22 32  2  0  0  0
 26 27  1  0  0  0
 28102  1  0  0  0
 28103  1  0  0  0
 29104  1  0  0  0
 29105  1  0  0  0
 33 34  1  0  0  0
 33 66  1  0  0  0
 33 70  2  0  0  0
 34 36  1  0  0  0
 34 59  1  0  0  0
 34106  1  0  0  0
 35 44  2  0  0  0
 35 45  1  0  0  0
 35 68  1  0  0  0
 36 56  1  0  0  0
 36107  1  0  0  0
 37 39  1  0  0  0
 37 47  1  0  0  0
 37 66  1  0  0  0
 37108  1  0  0  0
 38 43  2  0  0  0
 38 46  1  0  0  0
 38 47  1  0  0  0
 39 64  1  0  0  0
 39 67  2  0  0  0
 40 52  1  0  0  0
 40 53  2  0  0  0
 40 58  1  0  0  0
 41109  1  0  0  0
 41110  1  0  0  0
 41111  1  0  0  0
 41 48  1  0  0  0
 42 43  1  0  0  0
 42 66  1  0  0  0
 42112  1  0  0  0
 42113  1  0  0  0
 43 44  1  0  0  0
 44114  1  0  0  0
 45 46  2  0  0  0
 45115  1  0  0  0
 46116  1  0  0  0
 47117  1  0  0  0
 47118  1  0  0  0
 48 56  1  0  0  0
 48 65  1  0  0  0
 48119  1  0  0  0
 49 50  1  0  0  0
 49 53  1  0  0  0
 49 64  1  0  0  0
 49120  1  0  0  0
 50 51  1  0  0  0
 50121  1  0  0  0
 50122  1  0  0  0
 51 52  1  0  0  0
 51123  1  0  0  0
 51124  1  0  0  0
 52125  1  0  0  0
 52126  1  0  0  0
 53 54  1  0  0  0
 54 55  2  0  0  0
 54127  1  0  0  0
 55 57  1  0  0  0
 55128  1  0  0  0
 56 69  2  0  0  0
 57 58  2  0  0  0
 57129  1  0  0  0
 58130  1  0  0  0
 59 60  1  0  0  0
 59 61  1  0  0  0
 59 62  1  0  0  0
 60131  1  0  0  0
 60132  1  0  0  0
 60133  1  0  0  0
 61134  1  0  0  0
 61135  1  0  0  0
 61136  1  0  0  0
 62137  1  0  0  0
 62138  1  0  0  0
 62139  1  0  0  0
 63 65  1  0  0  0
 63140  1  0  0  0
 63141  1  0  0  0
 63142  1  0  0  0
 64143  1  0  0  0
 65144  1  0  0  0
 68 79  1  0  0  0
 71 72  2  0  0  0
 71 74  1  0  0  0
 71145  1  0  0  0
 72 75  1  0  0  0
 72146  1  0  0  0
 73 75  2  0  0  0
 73 76  1  0  0  0
 73147  1  0  0  0
 74 76  2  0  0  0
 74 78  1  0  0  0
 75 81  1  0  0  0
 76 85  1  0  0  0
 77 80  1  0  0  0
 77 81  1  0  0  0
 77 84  2  0  0  0
 78 82  1  0  0  0
 78148  1  0  0  0
 78149  1  0  0  0
 79 80  1  0  0  0
 79150  1  0  0  0
 79151  1  0  0  0
 80 83  1  0  0  0
 80152  1  0  0  0
 81153  1  0  0  0
 82154  1  0  0  0
 83155  1  0  0  0
 83156  1  0  0  0
 83157  1  0  0  0
M  CHG  1  83   1
M  ISO  4   1 100  68 101  79 101  82 100
M  END
> <chiral flag>
0

> <version>
0

> <s_m_source_file>
/data/baiqing/PycharmProjects/Reinvent-master-3.2/result/LINK_invent/BTK/process_docking_weight1_custom_product_contain_oxygen_bond_distance_aromatic_linkinvent_7_9_3/rearranged_h_0090.sdf

> <i_m_source_file_index>
8

> <r_mmod_Potential_Energy-OPLS-2005>
-340.534332275391

> <r_mmod_Stretch_Energy-OPLS-2005>
36.133415222168

> <r_mmod_Bend_Energy-OPLS-2005>
99.0583343505859

> <r_mmod_Torsional_Energy-OPLS-2005>
277.650787353516

> <r_mmod_Improper_Torsional_Energy-OPLS-2005>
15.0896291732788

> <r_mmod_Van_der_Waal_Energy-OPLS-2005>
158.363708496094

> <r_mmod_Electrostatic_Energy-OPLS-2005>
-421.181549072266

> <r_mmod_Solvation_Energy-OPLS-2005>
-528.512939453125

> <b_mmod_Minimization_Converged-OPLS-2005>
0

> <r_mmod_RMS_Derivative-OPLS-2005>
3.17907190322876

$$$$
8
                    3D
 Structure written by MMmdl.
153161  0  0  1  0            999 V2000
  -30.6311  -14.5615   20.6331 C   0  0  0  0  0  0
  -30.4267  -12.3602   19.4507 C   0  0  0  0  0  0
  -29.5106  -12.5470   18.2230 C   0  0  0  0  0  0
  -28.0288  -12.3831   18.6122 C   0  0  0  0  0  0
  -27.6585  -13.2093   19.8714 C   0  0  2  0  0  0
  -28.6858  -13.0026   21.0056 C   0  0  0  0  0  0
  -25.2566  -13.8176   20.5617 C   0  0  0  0  0  0
  -24.1836  -13.0445   20.9137 C   0  0  0  0  0  0
  -24.6411  -11.6919   20.8738 C   0  0  0  0  0  0
  -23.9079  -10.4302   21.0407 C   0  0  0  0  0  0
  -24.3649   -9.4237   21.9196 C   0  0  0  0  0  0
  -23.6315   -8.2278   22.0765 C   0  0  0  0  0  0
  -22.4303   -8.0304   21.3538 C   0  0  0  0  0  0
  -21.9931   -9.0263   20.4633 C   0  0  0  0  0  0
  -22.7255  -10.2149   20.3054 C   0  0  0  0  0  0
  -21.6873   -6.0757   22.5270 C   0  0  0  0  0  0
  -21.4020   -6.5639   23.8202 C   0  0  0  0  0  0
  -21.3670   -5.6778   24.9149 C   0  0  0  0  0  0
  -21.6063   -4.3041   24.7203 C   0  0  0  0  0  0
  -21.8819   -3.8143   23.4325 C   0  0  0  0  0  0
  -21.9190   -4.6975   22.3393 C   0  0  0  0  0  0
  -22.7867  -13.5250   21.1756 C   0  0  0  0  0  0
  -22.1668   -4.2172   21.0954 F   0  0  0  0  0  0
  -21.5634   -3.4510   25.7714 F   0  0  0  0  0  0
  -30.0240  -13.3419   20.4809 N   0  0  0  0  0  0
  -26.2985  -12.9356   20.3268 N   0  0  0  0  0  0
  -25.9342  -11.6510   20.5741 N   0  0  0  0  0  0
  -22.0482  -12.8305   22.0332 N   0  0  0  0  0  0
  -25.4213  -15.1918   20.4143 N   0  0  0  0  0  0
  -31.7028  -14.8073   20.0669 O   0  0  0  0  0  0
  -21.6677   -6.8905   21.4231 O   0  0  0  0  0  0
  -22.3569  -14.5515   20.6491 O   0  0  0  0  0  0
  -24.6181  -31.8571   23.2013 C   0  0  0  0  0  0
  -25.9016  -32.4805   23.8342 C   0  0  1  0  0  0
  -27.2805  -27.3729   20.1268 C   0  0  0  0  0  0
  -25.5832  -33.8610   24.2253 N   0  0  0  0  0  0
  -23.4195  -30.4757   21.5328 C   0  0  2  0  0  0
  -24.8859  -28.9171   20.1272 C   0  0  0  0  0  0
  -22.7443  -29.4606   22.4857 C   0  0  0  0  0  0
  -18.0269  -28.1405   22.8434 C   0  0  0  0  0  0
  -24.1473  -36.7350   23.2635 C   0  0  0  0  0  0
  -25.9526  -30.8060   21.3651 C   0  0  0  0  0  0
  -26.0428  -29.4261   20.7314 C   0  0  0  0  0  0
  -27.2415  -28.6627   20.7261 C   0  0  0  0  0  0
  -26.1035  -26.8878   19.5195 C   0  0  0  0  0  0
  -24.9137  -27.6477   19.5210 C   0  0  0  0  0  0
  -23.6485  -29.7929   20.1556 C   0  0  0  0  0  0
  -25.4096  -36.3113   24.0315 C   0  0  1  0  0  0
  -20.5858  -28.3696   23.1253 C   0  0  2  0  0  0
  -20.6761  -26.9414   22.5399 C   0  0  0  0  0  0
  -19.5774  -26.6387   21.5172 C   0  0  0  0  0  0
  -18.1939  -26.7950   22.1576 C   0  0  0  0  0  0
  -19.1519  -28.8868   23.2847 C   0  0  0  0  0  0
  -18.9465  -30.1452   23.8901 C   0  0  0  0  0  0
  -17.6480  -30.6615   24.0552 C   0  0  0  0  0  0
  -25.9025  -34.9475   23.5103 C   0  0  0  0  0  0
  -16.5358  -29.9131   23.6298 C   0  0  0  0  0  0
  -16.7264  -28.6534   23.0312 C   0  0  0  0  0  0
  -26.4428  -31.6645   25.0729 C   0  0  0  0  0  0
  -25.3667  -31.3830   26.1472 C   0  0  0  0  0  0
  -27.0224  -30.3063   24.6145 C   0  0  0  0  0  0
  -27.5971  -32.4379   25.7519 C   0  0  0  0  0  0
  -27.5574  -37.1834   24.8434 C   0  0  0  0  0  0
  -21.4146  -29.3071   22.3650 N   0  0  0  0  0  0
  -26.4267  -37.3804   23.9414 N   0  0  0  0  0  0
  -24.6812  -31.0632   22.0918 N   0  0  0  0  0  0
  -23.4161  -28.8086   23.2901 O   0  0  0  0  0  0
  -28.4534  -26.6274   20.0289 O   0  0  0  0  0  0
  -26.5601  -34.8926   22.4681 O   0  0  0  0  0  0
  -23.5345  -32.1317   23.7369 O   0  0  0  0  0  0
  -31.9474  -19.1379   19.5720 C   0  0  0  0  0  0
  -31.5343  -17.9660   20.2387 C   0  0  0  0  0  0
  -31.2423  -20.3531   19.7138 C   0  0  0  0  0  0
  -29.6786  -19.2187   21.1756 C   0  0  0  0  0  0
  -30.3704  -17.9628   21.0279 C   0  0  0  0  0  0
  -30.0972  -20.4370   20.5423 C   0  0  0  0  0  0
  -29.9057  -16.7258   21.8137 C   0  0  0  0  0  0
  -29.6738  -22.9953   20.5218 C   0  0  0  0  0  0
  -28.5149  -24.0659   20.5813 C   0  0  0  0  0  0
  -28.7341  -25.5812   21.0114 C   0  0  0  0  0  0
  -29.3279  -21.6731   20.6755 N   0  0  0  0  0  0
  -29.9426  -15.4109   21.4445 N   0  0  0  0  0  0
  -29.3000  -16.9581   22.8611 O   0  0  0  0  0  0
  -30.8397  -23.3622   20.3437 O   0  0  0  0  0  0
  -31.4796  -12.4501   19.1705 H   0  0  0  0  0  0
  -30.3108  -11.3464   19.8404 H   0  0  0  0  0  0
  -29.7722  -11.8391   17.4390 H   0  0  0  0  0  0
  -29.6758  -13.5423   17.8045 H   0  0  0  0  0  0
  -27.8366  -11.3236   18.7819 H   0  0  0  0  0  0
  -27.3887  -12.6742   17.7781 H   0  0  0  0  0  0
  -27.7006  -14.2624   19.5812 H   0  0  0  0  0  0
  -28.6828  -11.9754   21.3637 H   0  0  0  0  0  0
  -28.3854  -13.5881   21.8739 H   0  0  0  0  0  0
  -25.2823   -9.5720   22.4747 H   0  0  0  0  0  0
  -24.0041   -7.4672   22.7501 H   0  0  0  0  0  0
  -21.0867   -8.8777   19.8940 H   0  0  0  0  0  0
  -22.3724  -10.9692   19.6153 H   0  0  0  0  0  0
  -21.2030   -7.6156   23.9711 H   0  0  0  0  0  0
  -21.1489   -6.0510   25.9062 H   0  0  0  0  0  0
  -22.0600   -2.7611   23.2799 H   0  0  0  0  0  0
  -22.4038  -12.0096   22.4957 H   0  0  0  0  0  0
  -21.1053  -13.1302   22.2312 H   0  0  0  0  0  0
  -24.6470  -15.8325   20.5412 H   0  0  0  0  0  0
  -26.2800  -15.6593   20.1452 H   0  0  0  0  0  0
  -26.7086  -32.5501   23.1090 H   0  0  0  0  0  0
  -24.9894  -33.9750   25.0335 H   0  0  0  0  0  0
  -22.7111  -31.2924   21.3750 H   0  0  0  0  0  0
  -23.3705  -35.9707   23.3274 H   0  0  0  0  0  0
  -24.3551  -36.9010   22.2054 H   0  0  0  0  0  0
  -23.7256  -37.6562   23.6670 H   0  0  0  0  0  0
  -26.0551  -31.5580   20.5817 H   0  0  0  0  0  0
  -26.8407  -30.8821   21.9793 H   0  0  0  0  0  0
  -28.1378  -29.0692   21.1754 H   0  0  0  0  0  0
  -26.1079  -25.9226   19.0325 H   0  0  0  0  0  0
  -24.0261  -27.2519   19.0469 H   0  0  0  0  0  0
  -23.7815  -30.5615   19.3942 H   0  0  0  0  0  0
  -22.7733  -29.2214   19.8434 H   0  0  0  0  0  0
  -25.1287  -36.1944   25.0803 H   0  0  0  0  0  0
  -20.9938  -28.3287   24.1374 H   0  0  0  0  0  0
  -20.5598  -26.2315   23.3587 H   0  0  0  0  0  0
  -21.6644  -26.7423   22.1244 H   0  0  0  0  0  0
  -19.6947  -25.6270   21.1261 H   0  0  0  0  0  0
  -19.6773  -27.3121   20.6635 H   0  0  0  0  0  0
  -17.4194  -26.6585   21.4001 H   0  0  0  0  0  0
  -18.0419  -26.0132   22.9031 H   0  0  0  0  0  0
  -19.7950  -30.7236   24.2292 H   0  0  0  0  0  0
  -17.5058  -31.6304   24.5148 H   0  0  0  0  0  0
  -15.5358  -30.3067   23.7674 H   0  0  0  0  0  0
  -15.8626  -28.0910   22.7024 H   0  0  0  0  0  0
  -24.5752  -30.7264   25.7840 H   0  0  0  0  0  0
  -24.8952  -32.3034   26.4942 H   0  0  0  0  0  0
  -25.7999  -30.8978   27.0225 H   0  0  0  0  0  0
  -26.2801  -29.6931   24.1012 H   0  0  0  0  0  0
  -27.3736  -29.7229   25.4672 H   0  0  0  0  0  0
  -27.8753  -30.4362   23.9467 H   0  0  0  0  0  0
  -27.2525  -33.3629   26.2149 H   0  0  0  0  0  0
  -28.3777  -32.7034   25.0382 H   0  0  0  0  0  0
  -28.0606  -31.8464   26.5417 H   0  0  0  0  0  0
  -28.2568  -38.0159   24.7502 H   0  0  0  0  0  0
  -28.1105  -36.2694   24.6217 H   0  0  0  0  0  0
  -27.2298  -37.1435   25.8836 H   0  0  0  0  0  0
  -20.9267  -29.8897   21.6973 H   0  0  0  0  0  0
  -26.0145  -38.2860   24.1477 H   0  0  0  0  0  0
  -32.8317  -19.0930   18.9493 H   0  0  0  0  0  0
  -32.1481  -17.0870   20.1449 H   0  0  0  0  0  0
  -31.5878  -21.2153   19.1626 H   0  0  0  0  0  0
  -28.8119  -19.2389   21.8225 H   0  0  0  0  0  0
  -27.8037  -23.6522   21.2957 H   0  0  0  0  0  0
  -28.0168  -24.0631   19.6141 H   0  0  0  0  0  0
  -29.7534  -25.7384   21.3684 H   0  0  0  0  0  0
  -28.1090  -25.7891   21.8811 H   0  0  0  0  0  0
  -28.3521  -21.5377   20.9070 H   0  0  0  0  0  0
  -29.2774  -14.9002   22.0038 H   0  0  0  0  0  0
  1 25  1  0  0  0
  1 30  2  0  0  0
  1 82  1  0  0  0
  2  3  1  0  0  0
  2 25  1  0  0  0
  2 85  1  0  0  0
  2 86  1  0  0  0
  3  4  1  0  0  0
  3 87  1  0  0  0
  3 88  1  0  0  0
  4  5  1  0  0  0
  4 89  1  0  0  0
  4 90  1  0  0  0
  5  6  1  0  0  0
  5 26  1  0  0  0
  5 91  1  0  0  0
  6 25  1  0  0  0
  6 92  1  0  0  0
  6 93  1  0  0  0
  7  8  2  0  0  0
  7 26  1  0  0  0
  7 29  1  0  0  0
  8  9  1  0  0  0
  8 22  1  0  0  0
  9 10  1  0  0  0
  9 27  2  0  0  0
 10 11  2  0  0  0
 10 15  1  0  0  0
 11 12  1  0  0  0
 11 94  1  0  0  0
 12 13  2  0  0  0
 12 95  1  0  0  0
 13 14  1  0  0  0
 13 31  1  0  0  0
 14 15  2  0  0  0
 14 96  1  0  0  0
 15 97  1  0  0  0
 16 17  2  0  0  0
 16 21  1  0  0  0
 16 31  1  0  0  0
 17 18  1  0  0  0
 17 98  1  0  0  0
 18 19  2  0  0  0
 18 99  1  0  0  0
 19 20  1  0  0  0
 19 24  1  0  0  0
 20 21  2  0  0  0
 20100  1  0  0  0
 21 23  1  0  0  0
 22 28  1  0  0  0
 22 32  2  0  0  0
 26 27  1  0  0  0
 28101  1  0  0  0
 28102  1  0  0  0
 29103  1  0  0  0
 29104  1  0  0  0
 33 34  1  0  0  0
 33 66  1  0  0  0
 33 70  2  0  0  0
 34 36  1  0  0  0
 34 59  1  0  0  0
 34105  1  0  0  0
 35 44  2  0  0  0
 35 45  1  0  0  0
 35 68  1  0  0  0
 36 56  1  0  0  0
 36106  1  0  0  0
 37 39  1  0  0  0
 37 47  1  0  0  0
 37 66  1  0  0  0
 37107  1  0  0  0
 38 43  2  0  0  0
 38 46  1  0  0  0
 38 47  1  0  0  0
 39 64  1  0  0  0
 39 67  2  0  0  0
 40 52  1  0  0  0
 40 53  2  0  0  0
 40 58  1  0  0  0
 41108  1  0  0  0
 41109  1  0  0  0
 41110  1  0  0  0
 41 48  1  0  0  0
 42 43  1  0  0  0
 42 66  1  0  0  0
 42111  1  0  0  0
 42112  1  0  0  0
 43 44  1  0  0  0
 44113  1  0  0  0
 45 46  2  0  0  0
 45114  1  0  0  0
 46115  1  0  0  0
 47116  1  0  0  0
 47117  1  0  0  0
 48 56  1  0  0  0
 48 65  1  0  0  0
 48118  1  0  0  0
 49 50  1  0  0  0
 49 53  1  0  0  0
 49 64  1  0  0  0
 49119  1  0  0  0
 50 51  1  0  0  0
 50120  1  0  0  0
 50121  1  0  0  0
 51 52  1  0  0  0
 51122  1  0  0  0
 51123  1  0  0  0
 52124  1  0  0  0
 52125  1  0  0  0
 53 54  1  0  0  0
 54 55  2  0  0  0
 54126  1  0  0  0
 55 57  1  0  0  0
 55127  1  0  0  0
 56 69  2  0  0  0
 57 58  2  0  0  0
 57128  1  0  0  0
 58129  1  0  0  0
 59 60  1  0  0  0
 59 61  1  0  0  0
 59 62  1  0  0  0
 60130  1  0  0  0
 60131  1  0  0  0
 60132  1  0  0  0
 61133  1  0  0  0
 61134  1  0  0  0
 61135  1  0  0  0
 62136  1  0  0  0
 62137  1  0  0  0
 62138  1  0  0  0
 63 65  1  0  0  0
 63139  1  0  0  0
 63140  1  0  0  0
 63141  1  0  0  0
 64142  1  0  0  0
 65143  1  0  0  0
 68 80  1  0  0  0
 71 72  2  0  0  0
 71 73  1  0  0  0
 71144  1  0  0  0
 72 75  1  0  0  0
 72145  1  0  0  0
 73 76  2  0  0  0
 73146  1  0  0  0
 74 75  2  0  0  0
 74 76  1  0  0  0
 74147  1  0  0  0
 75 77  1  0  0  0
 76 81  1  0  0  0
 77 82  1  0  0  0
 77 83  2  0  0  0
 78 79  1  0  0  0
 78 81  1  0  0  0
 78 84  2  0  0  0
 79 80  1  0  0  0
 79148  1  0  0  0
 79149  1  0  0  0
 80150  1  0  0  0
 80151  1  0  0  0
 81152  1  0  0  0
 82153  1  0  0  0
M  ISO  4   1 100  68 101  80 101  82 100
M  END
> <chiral flag>
0

> <version>
0

> <s_m_source_file>
/data/baiqing/PycharmProjects/Reinvent-master-3.2/result/LINK_invent/BTK/process_docking_weight1_custom_product_contain_oxygen_bond_distance_aromatic_linkinvent_7_9_3/rearranged_h_0090.sdf

> <i_m_source_file_index>
9

> <r_mmod_Potential_Energy-OPLS-2005>
-38.3283653259277

> <r_mmod_Stretch_Energy-OPLS-2005>
70.3183822631836

> <r_mmod_Bend_Energy-OPLS-2005>
199.25129699707

> <r_mmod_Torsional_Energy-OPLS-2005>
259.611541748047

> <r_mmod_Improper_Torsional_Energy-OPLS-2005>
4.50801706314087

> <r_mmod_Van_der_Waal_Energy-OPLS-2005>
145.551834106445

> <r_mmod_Electrostatic_Energy-OPLS-2005>
-511.565093994141

> <r_mmod_Solvation_Energy-OPLS-2005>
-232.178359985352

> <b_mmod_Minimization_Converged-OPLS-2005>
0

> <r_mmod_RMS_Derivative-OPLS-2005>
7.48136138916016

$$$$
9
                    3D
 Structure written by MMmdl.
153162  0  0  1  0            999 V2000
  -30.6192  -14.6634   20.4923 C   0  0  0  0  0  0
  -30.4438  -12.4037   19.4573 C   0  0  0  0  0  0
  -29.5144  -12.5158   18.2277 C   0  0  0  0  0  0
  -28.0377  -12.3436   18.6387 C   0  0  0  0  0  0
  -27.6563  -13.2168   19.8635 C   0  0  2  0  0  0
  -28.7019  -13.0827   20.9944 C   0  0  0  0  0  0
  -25.2594  -13.8168   20.5694 C   0  0  0  0  0  0
  -24.1848  -13.0440   20.9181 C   0  0  0  0  0  0
  -24.6408  -11.6909   20.8733 C   0  0  0  0  0  0
  -23.9062  -10.4299   21.0400 C   0  0  0  0  0  0
  -24.3613   -9.4213   21.9181 C   0  0  0  0  0  0
  -23.6294   -8.2247   22.0751 C   0  0  0  0  0  0
  -22.4274   -8.0282   21.3546 C   0  0  0  0  0  0
  -21.9906   -9.0255   20.4643 C   0  0  0  0  0  0
  -22.7234  -10.2133   20.3052 C   0  0  0  0  0  0
  -21.6845   -6.0734   22.5284 C   0  0  0  0  0  0
  -21.4009   -6.5640   23.8216 C   0  0  0  0  0  0
  -21.3667   -5.6792   24.9179 C   0  0  0  0  0  0
  -21.6049   -4.3053   24.7225 C   0  0  0  0  0  0
  -21.8818   -3.8147   23.4343 C   0  0  0  0  0  0
  -21.9190   -4.6963   22.3406 C   0  0  0  0  0  0
  -22.7870  -13.5242   21.1839 C   0  0  0  0  0  0
  -22.1659   -4.2149   21.0982 F   0  0  0  0  0  0
  -21.5633   -3.4535   25.7739 F   0  0  0  0  0  0
  -30.0181  -13.4295   20.4311 N   0  0  0  0  0  0
  -26.3019  -12.9344   20.3319 N   0  0  0  0  0  0
  -25.9337  -11.6498   20.5749 N   0  0  0  0  0  0
  -22.0481  -12.8254   22.0390 N   0  0  0  0  0  0
  -25.4338  -15.1887   20.4138 N   0  0  0  0  0  0
  -31.7805  -14.8283   20.1072 O   0  0  0  0  0  0
  -21.6642   -6.8877   21.4245 O   0  0  0  0  0  0
  -22.3572  -14.5549   20.6682 O   0  0  0  0  0  0
  -24.6285  -31.8617   23.2052 C   0  0  0  0  0  0
  -25.9133  -32.4783   23.8378 C   0  0  1  0  0  0
  -27.2166  -27.3045   20.0990 C   0  0  0  0  0  0
  -25.5965  -33.8589   24.2307 N   0  0  0  0  0  0
  -23.4215  -30.4881   21.5512 C   0  0  2  0  0  0
  -24.8655  -28.9514   20.1090 C   0  0  0  0  0  0
  -22.7481  -29.4631   22.4957 C   0  0  0  0  0  0
  -18.0286  -28.1392   22.8488 C   0  0  0  0  0  0
  -24.1500  -36.7285   23.2632 C   0  0  0  0  0  0
  -25.9671  -30.7837   21.3829 C   0  0  0  0  0  0
  -26.0387  -29.4128   20.7191 C   0  0  0  0  0  0
  -27.2153  -28.6000   20.7114 C   0  0  0  0  0  0
  -26.0179  -26.9203   19.4451 C   0  0  0  0  0  0
  -24.8579  -27.7106   19.4637 C   0  0  0  0  0  0
  -23.6350  -29.8318   20.1640 C   0  0  0  0  0  0
  -25.4125  -36.3086   24.0333 C   0  0  1  0  0  0
  -20.5887  -28.3699   23.1283 C   0  0  2  0  0  0
  -20.6785  -26.9429   22.5401 C   0  0  0  0  0  0
  -19.5756  -26.6393   21.5212 C   0  0  0  0  0  0
  -18.1933  -26.7936   22.1623 C   0  0  0  0  0  0
  -19.1535  -28.8863   23.2878 C   0  0  0  0  0  0
  -18.9454  -30.1469   23.8888 C   0  0  0  0  0  0
  -17.6452  -30.6594   24.0555 C   0  0  0  0  0  0
  -25.9067  -34.9455   23.5111 C   0  0  0  0  0  0
  -16.5347  -29.9083   23.6342 C   0  0  0  0  0  0
  -16.7269  -28.6503   23.0356 C   0  0  0  0  0  0
  -26.4507  -31.6579   25.0745 C   0  0  0  0  0  0
  -25.3739  -31.3724   26.1474 C   0  0  0  0  0  0
  -27.0314  -30.2988   24.6204 C   0  0  0  0  0  0
  -27.6109  -32.4274   25.7488 C   0  0  0  0  0  0
  -27.5589  -37.1799   24.8463 C   0  0  0  0  0  0
  -21.4195  -29.3050   22.3684 N   0  0  0  0  0  0
  -26.4300  -37.3782   23.9408 N   0  0  0  0  0  0
  -24.6914  -31.0598   22.1032 N   0  0  0  0  0  0
  -23.4198  -28.8166   23.3034 O   0  0  0  0  0  0
  -28.3088  -26.4091   20.1634 O   0  0  0  0  0  0
  -26.5617  -34.8915   22.4666 O   0  0  0  0  0  0
  -23.5445  -32.1440   23.7365 O   0  0  0  0  0  0
  -30.8885  -19.3660   20.1467 C   0  0  0  0  0  0
  -30.9504  -17.9363   20.2321 C   0  0  0  0  0  0
  -30.2747  -23.7849   20.7340 C   0  0  0  0  0  0
  -28.7002  -17.9218   21.0647 C   0  0  0  0  0  0
  -28.6459  -22.4337   20.0631 C   0  0  0  0  0  0
  -28.9520  -23.7885   20.2013 C   0  0  0  0  0  0
  -29.7355  -20.1184   20.5221 C   0  0  0  0  0  0
  -29.8516  -17.1668   20.7051 C   0  0  0  0  0  0
  -28.6347  -19.3446   20.9765 C   0  0  0  0  0  0
  -30.6815  -22.4804   20.8931 C   0  0  0  0  0  0
  -28.0157  -24.9894   19.8254 C   0  0  0  0  0  0
  -29.6926  -21.5891   20.4845 N   0  0  0  0  0  0
  -29.7974  -15.7031   20.8486 N   0  0  0  0  0  0
  -31.8608  -22.0276   21.3967 O   0  0  0  0  0  0
  -27.4900  -19.9639   21.3592 F   0  0  0  0  0  0
  -31.4863  -12.5288   19.1591 H   0  0  0  0  0  0
  -30.3776  -11.4089   19.9018 H   0  0  0  0  0  0
  -29.7863  -11.7703   17.4792 H   0  0  0  0  0  0
  -29.6506  -13.4886   17.7523 H   0  0  0  0  0  0
  -27.8812  -11.2906   18.8734 H   0  0  0  0  0  0
  -27.3817  -12.5669   17.7967 H   0  0  0  0  0  0
  -27.6708  -14.2506   19.5173 H   0  0  0  0  0  0
  -28.7194  -12.0635   21.3839 H   0  0  0  0  0  0
  -28.4433  -13.7178   21.8431 H   0  0  0  0  0  0
  -25.2750   -9.5695   22.4764 H   0  0  0  0  0  0
  -23.9998   -7.4637   22.7473 H   0  0  0  0  0  0
  -21.0829   -8.8770   19.8957 H   0  0  0  0  0  0
  -22.3683  -10.9669   19.6165 H   0  0  0  0  0  0
  -21.1997   -7.6148   23.9723 H   0  0  0  0  0  0
  -21.1496   -6.0519   25.9084 H   0  0  0  0  0  0
  -22.0591   -2.7607   23.2841 H   0  0  0  0  0  0
  -22.4062  -11.9911   22.4803 H   0  0  0  0  0  0
  -21.1103  -13.1317   22.2567 H   0  0  0  0  0  0
  -24.6668  -15.8436   20.5201 H   0  0  0  0  0  0
  -26.2832  -15.6244   20.0799 H   0  0  0  0  0  0
  -26.7192  -32.5441   23.1117 H   0  0  0  0  0  0
  -25.0141  -33.9748   25.0469 H   0  0  0  0  0  0
  -22.7161  -31.3100   21.4125 H   0  0  0  0  0  0
  -23.3782  -35.9595   23.3272 H   0  0  0  0  0  0
  -24.3596  -36.8928   22.2050 H   0  0  0  0  0  0
  -23.7226  -37.6475   23.6656 H   0  0  0  0  0  0
  -26.1035  -31.5515   20.6200 H   0  0  0  0  0  0
  -26.8458  -30.8265   22.0151 H   0  0  0  0  0  0
  -28.1095  -28.9452   21.2110 H   0  0  0  0  0  0
  -25.9259  -25.9878   18.9106 H   0  0  0  0  0  0
  -23.9631  -27.3576   18.9695 H   0  0  0  0  0  0
  -23.7528  -30.6134   19.4123 H   0  0  0  0  0  0
  -22.7534  -29.2637   19.8601 H   0  0  0  0  0  0
  -25.1300  -36.1942   25.0828 H   0  0  0  0  0  0
  -20.9962  -28.3259   24.1410 H   0  0  0  0  0  0
  -20.5718  -26.2300   23.3591 H   0  0  0  0  0  0
  -21.6646  -26.7490   22.1167 H   0  0  0  0  0  0
  -19.6923  -25.6300   21.1253 H   0  0  0  0  0  0
  -19.6695  -27.3196   20.6734 H   0  0  0  0  0  0
  -17.4206  -26.6683   21.4021 H   0  0  0  0  0  0
  -18.0337  -26.0076   22.9019 H   0  0  0  0  0  0
  -19.7926  -30.7293   24.2243 H   0  0  0  0  0  0
  -17.5006  -31.6278   24.5145 H   0  0  0  0  0  0
  -15.5345  -30.2978   23.7681 H   0  0  0  0  0  0
  -15.8666  -28.0825   22.7074 H   0  0  0  0  0  0
  -24.5867  -30.7144   25.7765 H   0  0  0  0  0  0
  -24.8995  -32.2901   26.4967 H   0  0  0  0  0  0
  -25.8054  -30.8808   27.0205 H   0  0  0  0  0  0
  -26.2868  -29.6748   24.1252 H   0  0  0  0  0  0
  -27.4005  -29.7241   25.4705 H   0  0  0  0  0  0
  -27.8758  -30.4233   23.9423 H   0  0  0  0  0  0
  -27.2796  -33.3614   26.2030 H   0  0  0  0  0  0
  -28.3939  -32.6751   25.0310 H   0  0  0  0  0  0
  -28.0743  -31.8400   26.5422 H   0  0  0  0  0  0
  -28.2595  -38.0106   24.7535 H   0  0  0  0  0  0
  -28.1100  -36.2647   24.6263 H   0  0  0  0  0  0
  -27.2310  -37.1406   25.8863 H   0  0  0  0  0  0
  -20.9375  -29.8769   21.6898 H   0  0  0  0  0  0
  -26.0189  -38.2862   24.1405 H   0  0  0  0  0  0
  -31.7587  -19.9000   19.7930 H   0  0  0  0  0  0
  -31.8645  -17.4422   19.9334 H   0  0  0  0  0  0
  -30.8610  -24.6589   20.9829 H   0  0  0  0  0  0
  -27.8246  -17.4060   21.4293 H   0  0  0  0  0  0
  -27.7367  -21.9800   19.6919 H   0  0  0  0  0  0
  -27.0658  -24.7096   20.2836 H   0  0  0  0  0  0
  -27.8770  -24.9306   18.7451 H   0  0  0  0  0  0
  -28.9084  -15.3601   21.1788 H   0  0  0  0  0  0
  -32.3688  -22.7852   21.6690 H   0  0  0  0  0  0
  1 25  1  0  0  0
  1 30  2  0  0  0
  1 83  1  0  0  0
  2  3  1  0  0  0
  2 25  1  0  0  0
  2 86  1  0  0  0
  2 87  1  0  0  0
  3  4  1  0  0  0
  3 88  1  0  0  0
  3 89  1  0  0  0
  4  5  1  0  0  0
  4 90  1  0  0  0
  4 91  1  0  0  0
  5  6  1  0  0  0
  5 26  1  0  0  0
  5 92  1  0  0  0
  6 25  1  0  0  0
  6 93  1  0  0  0
  6 94  1  0  0  0
  7  8  2  0  0  0
  7 26  1  0  0  0
  7 29  1  0  0  0
  8  9  1  0  0  0
  8 22  1  0  0  0
  9 10  1  0  0  0
  9 27  2  0  0  0
 10 11  2  0  0  0
 10 15  1  0  0  0
 11 12  1  0  0  0
 11 95  1  0  0  0
 12 13  2  0  0  0
 12 96  1  0  0  0
 13 14  1  0  0  0
 13 31  1  0  0  0
 14 15  2  0  0  0
 14 97  1  0  0  0
 15 98  1  0  0  0
 16 17  2  0  0  0
 16 21  1  0  0  0
 16 31  1  0  0  0
 17 18  1  0  0  0
 17 99  1  0  0  0
 18 19  2  0  0  0
 18100  1  0  0  0
 19 20  1  0  0  0
 19 24  1  0  0  0
 20 21  2  0  0  0
 20101  1  0  0  0
 21 23  1  0  0  0
 22 28  1  0  0  0
 22 32  2  0  0  0
 26 27  1  0  0  0
 28102  1  0  0  0
 28103  1  0  0  0
 29104  1  0  0  0
 29105  1  0  0  0
 33 34  1  0  0  0
 33 66  1  0  0  0
 33 70  2  0  0  0
 34 36  1  0  0  0
 34 59  1  0  0  0
 34106  1  0  0  0
 35 44  2  0  0  0
 35 45  1  0  0  0
 35 68  1  0  0  0
 36 56  1  0  0  0
 36107  1  0  0  0
 37 39  1  0  0  0
 37 47  1  0  0  0
 37 66  1  0  0  0
 37108  1  0  0  0
 38 43  2  0  0  0
 38 46  1  0  0  0
 38 47  1  0  0  0
 39 64  1  0  0  0
 39 67  2  0  0  0
 40 52  1  0  0  0
 40 53  2  0  0  0
 40 58  1  0  0  0
 41109  1  0  0  0
 41110  1  0  0  0
 41111  1  0  0  0
 41 48  1  0  0  0
 42 43  1  0  0  0
 42 66  1  0  0  0
 42112  1  0  0  0
 42113  1  0  0  0
 43 44  1  0  0  0
 44114  1  0  0  0
 45 46  2  0  0  0
 45115  1  0  0  0
 46116  1  0  0  0
 47117  1  0  0  0
 47118  1  0  0  0
 48 56  1  0  0  0
 48 65  1  0  0  0
 48119  1  0  0  0
 49 50  1  0  0  0
 49 53  1  0  0  0
 49 64  1  0  0  0
 49120  1  0  0  0
 50 51  1  0  0  0
 50121  1  0  0  0
 50122  1  0  0  0
 51 52  1  0  0  0
 51123  1  0  0  0
 51124  1  0  0  0
 52125  1  0  0  0
 52126  1  0  0  0
 53 54  1  0  0  0
 54 55  2  0  0  0
 54127  1  0  0  0
 55 57  1  0  0  0
 55128  1  0  0  0
 56 69  2  0  0  0
 57 58  2  0  0  0
 57129  1  0  0  0
 58130  1  0  0  0
 59 60  1  0  0  0
 59 61  1  0  0  0
 59 62  1  0  0  0
 60131  1  0  0  0
 60132  1  0  0  0
 60133  1  0  0  0
 61134  1  0  0  0
 61135  1  0  0  0
 61136  1  0  0  0
 62137  1  0  0  0
 62138  1  0  0  0
 62139  1  0  0  0
 63 65  1  0  0  0
 63140  1  0  0  0
 63141  1  0  0  0
 63142  1  0  0  0
 64143  1  0  0  0
 65144  1  0  0  0
 68 81  1  0  0  0
 71 72  2  0  0  0
 71 77  1  0  0  0
 71145  1  0  0  0
 72 78  1  0  0  0
 72146  1  0  0  0
 73 76  1  0  0  0
 73 80  2  0  0  0
 73147  1  0  0  0
 74 78  2  0  0  0
 74 79  1  0  0  0
 74148  1  0  0  0
 75 76  2  0  0  0
 75 82  1  0  0  0
 75149  1  0  0  0
 76 81  1  0  0  0
 77 79  2  0  0  0
 77 82  1  0  0  0
 78 83  1  0  0  0
 79 85  1  0  0  0
 80 82  1  0  0  0
 80 84  1  0  0  0
 81150  1  0  0  0
 81151  1  0  0  0
 83152  1  0  0  0
 84153  1  0  0  0
M  ISO  4   1 100  68 101  81 101  83 100
M  END
> <chiral flag>
0

> <version>
0

> <s_m_source_file>
/data/baiqing/PycharmProjects/Reinvent-master-3.2/result/LINK_invent/BTK/process_docking_weight1_custom_product_contain_oxygen_bond_distance_aromatic_linkinvent_7_9_3/rearranged_h_0090.sdf

> <i_m_source_file_index>
10

> <r_mmod_Potential_Energy-OPLS-2005>
80.5166091918945

> <r_mmod_Stretch_Energy-OPLS-2005>
83.5222625732422

> <r_mmod_Bend_Energy-OPLS-2005>
148.227111816406

> <r_mmod_Torsional_Energy-OPLS-2005>
220.552780151367

> <r_mmod_Improper_Torsional_Energy-OPLS-2005>
3.99205040931702

> <r_mmod_Van_der_Waal_Energy-OPLS-2005>
146.366256713867

> <r_mmod_Electrostatic_Energy-OPLS-2005>
-359.459930419922

> <r_mmod_Solvation_Energy-OPLS-2005>
-221.508728027344

> <b_mmod_Minimization_Converged-OPLS-2005>
0

> <r_mmod_RMS_Derivative-OPLS-2005>
1.51447713375092

$$$$
10
                    3D
 Structure written by MMmdl.
152160  0  0  1  0            999 V2000
  -30.6043  -14.6720   20.5067 C   0  0  0  0  0  0
  -30.4439  -12.4139   19.4653 C   0  0  0  0  0  0
  -29.5169  -12.5185   18.2334 C   0  0  0  0  0  0
  -28.0380  -12.3557   18.6377 C   0  0  0  0  0  0
  -27.6543  -13.2204   19.8681 C   0  0  2  0  0  0
  -28.6971  -13.0770   21.0000 C   0  0  0  0  0  0
  -25.2557  -13.8175   20.5672 C   0  0  0  0  0  0
  -24.1820  -13.0440   20.9165 C   0  0  0  0  0  0
  -24.6395  -11.6913   20.8720 C   0  0  0  0  0  0
  -23.9056  -10.4296   21.0391 C   0  0  0  0  0  0
  -24.3608   -9.4214   21.9173 C   0  0  0  0  0  0
  -23.6283   -8.2251   22.0750 C   0  0  0  0  0  0
  -22.4265   -8.0283   21.3541 C   0  0  0  0  0  0
  -21.9891   -9.0260   20.4647 C   0  0  0  0  0  0
  -22.7222  -10.2138   20.3053 C   0  0  0  0  0  0
  -21.6859   -6.0722   22.5269 C   0  0  0  0  0  0
  -21.4024   -6.5629   23.8205 C   0  0  0  0  0  0
  -21.3661   -5.6781   24.9166 C   0  0  0  0  0  0
  -21.6045   -4.3043   24.7220 C   0  0  0  0  0  0
  -21.8823   -3.8133   23.4340 C   0  0  0  0  0  0
  -21.9198   -4.6947   22.3390 C   0  0  0  0  0  0
  -22.7846  -13.5239   21.1829 C   0  0  0  0  0  0
  -22.1661   -4.2135   21.0963 F   0  0  0  0  0  0
  -21.5627   -3.4527   25.7735 F   0  0  0  0  0  0
  -30.0103  -13.4347   20.4421 N   0  0  0  0  0  0
  -26.2996  -12.9364   20.3325 N   0  0  0  0  0  0
  -25.9330  -11.6516   20.5756 N   0  0  0  0  0  0
  -22.0472  -12.8262   22.0396 N   0  0  0  0  0  0
  -25.4277  -15.1900   20.4107 N   0  0  0  0  0  0
  -31.7558  -14.8405   20.0952 O   0  0  0  0  0  0
  -21.6643   -6.8872   21.4235 O   0  0  0  0  0  0
  -22.3535  -14.5532   20.6667 O   0  0  0  0  0  0
  -24.6271  -31.8579   23.2024 C   0  0  0  0  0  0
  -25.9117  -32.4763   23.8349 C   0  0  1  0  0  0
  -27.2232  -27.3003   20.1174 C   0  0  0  0  0  0
  -25.5935  -33.8566   24.2272 N   0  0  0  0  0  0
  -23.4228  -30.4819   21.5442 C   0  0  2  0  0  0
  -24.8705  -28.9367   20.1095 C   0  0  0  0  0  0
  -22.7480  -29.4609   22.4912 C   0  0  0  0  0  0
  -18.0292  -28.1389   22.8470 C   0  0  0  0  0  0
  -24.1497  -36.7295   23.2634 C   0  0  0  0  0  0
  -25.9669  -30.7803   21.3815 C   0  0  0  0  0  0
  -26.0403  -29.4084   20.7188 C   0  0  0  0  0  0
  -27.2188  -28.6016   20.7142 C   0  0  0  0  0  0
  -26.0301  -26.8893   19.4790 C   0  0  0  0  0  0
  -24.8681  -27.6832   19.4803 C   0  0  0  0  0  0
  -23.6405  -29.8199   20.1583 C   0  0  0  0  0  0
  -25.4116  -36.3072   24.0325 C   0  0  1  0  0  0
  -20.5886  -28.3690   23.1275 C   0  0  2  0  0  0
  -20.6781  -26.9411   22.5412 C   0  0  0  0  0  0
  -19.5764  -26.6375   21.5210 C   0  0  0  0  0  0
  -18.1940  -26.7933   22.1611 C   0  0  0  0  0  0
  -19.1542  -28.8858   23.2867 C   0  0  0  0  0  0
  -18.9464  -30.1460   23.8887 C   0  0  0  0  0  0
  -17.6465  -30.6584   24.0564 C   0  0  0  0  0  0
  -25.9052  -34.9442   23.5100 C   0  0  0  0  0  0
  -16.5354  -29.9087   23.6326 C   0  0  0  0  0  0
  -16.7279  -28.6506   23.0335 C   0  0  0  0  0  0
  -26.4484  -31.6583   25.0735 C   0  0  0  0  0  0
  -25.3709  -31.3774   26.1470 C   0  0  0  0  0  0
  -27.0307  -30.2981   24.6239 C   0  0  0  0  0  0
  -27.6057  -32.4311   25.7491 C   0  0  0  0  0  0
  -27.5588  -37.1794   24.8445 C   0  0  0  0  0  0
  -21.4187  -29.3041   22.3663 N   0  0  0  0  0  0
  -26.4287  -37.3769   23.9410 N   0  0  0  0  0  0
  -24.6909  -31.0569   22.0991 N   0  0  0  0  0  0
  -23.4193  -28.8135   23.2989 O   0  0  0  0  0  0
  -28.3322  -26.4347   20.1736 O   0  0  0  0  0  0
  -26.5611  -34.8912   22.4661 O   0  0  0  0  0  0
  -23.5434  -32.1392   23.7339 O   0  0  0  0  0  0
  -30.7831  -19.3279   19.9175 C   0  0  0  0  0  0
  -30.8169  -17.8982   20.0002 C   0  0  0  0  0  0
  -28.8356  -19.3935   21.3059 C   0  0  0  0  0  0
  -29.8122  -20.1331   20.5879 C   0  0  0  0  0  0
  -29.8632  -17.1726   20.7617 C   0  0  0  0  0  0
  -28.8622  -17.9655   21.3910 C   0  0  0  0  0  0
  -29.9462  -21.6753   20.6677 C   0  0  0  0  0  0
  -29.2745  -24.0141   20.4440 C   0  0  0  0  0  0
  -31.3037  -22.0201   21.2851 C   0  0  0  0  0  0
  -28.1028  -24.9720   19.9822 C   0  0  0  0  0  0
  -29.0571  -22.5922   20.3265 N   0  0  0  0  0  0
  -29.8059  -15.7104   20.9221 N   0  0  0  0  0  0
  -30.2851  -24.5778   20.8661 O   0  0  0  0  0  0
  -27.9091  -17.3365   22.1204 F   0  0  0  0  0  0
  -31.4841  -12.5488   19.1644 H   0  0  0  0  0  0
  -30.3891  -11.4187   19.9088 H   0  0  0  0  0  0
  -29.7873  -11.7652   17.4926 H   0  0  0  0  0  0
  -29.6625  -13.4876   17.7513 H   0  0  0  0  0  0
  -27.8710  -11.3018   18.8624 H   0  0  0  0  0  0
  -27.3902  -12.5940   17.7932 H   0  0  0  0  0  0
  -27.6716  -14.2568   19.5324 H   0  0  0  0  0  0
  -28.7155  -12.0528   21.3750 H   0  0  0  0  0  0
  -28.4361  -13.7017   21.8553 H   0  0  0  0  0  0
  -25.2754   -9.5694   22.4744 H   0  0  0  0  0  0
  -23.9992   -7.4646   22.7478 H   0  0  0  0  0  0
  -21.0814   -8.8790   19.8957 H   0  0  0  0  0  0
  -22.3680  -10.9681   19.6165 H   0  0  0  0  0  0
  -21.2023   -7.6137   23.9706 H   0  0  0  0  0  0
  -21.1474   -6.0505   25.9067 H   0  0  0  0  0  0
  -22.0601   -2.7595   23.2846 H   0  0  0  0  0  0
  -22.4077  -11.9941   22.4834 H   0  0  0  0  0  0
  -21.1099  -13.1330   22.2584 H   0  0  0  0  0  0
  -24.6686  -15.8504   20.5367 H   0  0  0  0  0  0
  -26.2930  -15.6335   20.1306 H   0  0  0  0  0  0
  -26.7182  -32.5415   23.1092 H   0  0  0  0  0  0
  -25.0085  -33.9704   25.0420 H   0  0  0  0  0  0
  -22.7180  -31.3034   21.4007 H   0  0  0  0  0  0
  -23.3760  -35.9623   23.3270 H   0  0  0  0  0  0
  -24.3598  -36.8945   22.2054 H   0  0  0  0  0  0
  -23.7248  -37.6488   23.6678 H   0  0  0  0  0  0
  -26.1090  -31.5471   20.6191 H   0  0  0  0  0  0
  -26.8426  -30.8209   22.0178 H   0  0  0  0  0  0
  -28.1136  -28.9538   21.2085 H   0  0  0  0  0  0
  -25.9648  -25.9352   18.9788 H   0  0  0  0  0  0
  -23.9733  -27.3170   18.9961 H   0  0  0  0  0  0
  -23.7652  -30.5984   19.4047 H   0  0  0  0  0  0
  -22.7599  -29.2535   19.8505 H   0  0  0  0  0  0
  -25.1296  -36.1920   25.0816 H   0  0  0  0  0  0
  -20.9971  -28.3282   24.1400 H   0  0  0  0  0  0
  -20.5672  -26.2303   23.3613 H   0  0  0  0  0  0
  -21.6659  -26.7437   22.1222 H   0  0  0  0  0  0
  -19.6925  -25.6283   21.1250 H   0  0  0  0  0  0
  -19.6706  -27.3170   20.6729 H   0  0  0  0  0  0
  -17.4209  -26.6671   21.4016 H   0  0  0  0  0  0
  -18.0334  -26.0078   22.9008 H   0  0  0  0  0  0
  -19.7941  -30.7283   24.2245 H   0  0  0  0  0  0
  -17.5020  -31.6265   24.5171 H   0  0  0  0  0  0
  -15.5356  -30.2986   23.7665 H   0  0  0  0  0  0
  -15.8677  -28.0834   22.7044 H   0  0  0  0  0  0
  -24.5858  -30.7140   25.7825 H   0  0  0  0  0  0
  -24.8931  -32.2966   26.4876 H   0  0  0  0  0  0
  -25.8018  -30.8966   27.0260 H   0  0  0  0  0  0
  -26.2889  -29.6745   24.1235 H   0  0  0  0  0  0
  -27.3926  -29.7240   25.4781 H   0  0  0  0  0  0
  -27.8802  -30.4225   23.9520 H   0  0  0  0  0  0
  -27.2677  -33.3608   26.2083 H   0  0  0  0  0  0
  -28.3855  -32.6870   25.0306 H   0  0  0  0  0  0
  -28.0733  -31.8422   26.5394 H   0  0  0  0  0  0
  -28.2581  -38.0116   24.7533 H   0  0  0  0  0  0
  -28.1111  -36.2656   24.6209 H   0  0  0  0  0  0
  -27.2321  -37.1376   25.8848 H   0  0  0  0  0  0
  -20.9364  -29.8781   21.6886 H   0  0  0  0  0  0
  -26.0169  -38.2838   24.1428 H   0  0  0  0  0  0
  -31.5623  -19.8192   19.3511 H   0  0  0  0  0  0
  -31.6000  -17.3684   19.4781 H   0  0  0  0  0  0
  -28.0719  -19.9291   21.8505 H   0  0  0  0  0  0
  -31.8746  -21.1297   21.5489 H   0  0  0  0  0  0
  -31.1689  -22.5820   22.2099 H   0  0  0  0  0  0
  -31.9104  -22.5999   20.5893 H   0  0  0  0  0  0
  -27.2102  -24.6649   20.5284 H   0  0  0  0  0  0
  -27.9207  -24.7797   18.9245 H   0  0  0  0  0  0
  -28.9483  -15.3991   21.3516 H   0  0  0  0  0  0
  1 25  1  0  0  0
  1 30  2  0  0  0
  1 82  1  0  0  0
  2  3  1  0  0  0
  2 25  1  0  0  0
  2 85  1  0  0  0
  2 86  1  0  0  0
  3  4  1  0  0  0
  3 87  1  0  0  0
  3 88  1  0  0  0
  4  5  1  0  0  0
  4 89  1  0  0  0
  4 90  1  0  0  0
  5  6  1  0  0  0
  5 26  1  0  0  0
  5 91  1  0  0  0
  6 25  1  0  0  0
  6 92  1  0  0  0
  6 93  1  0  0  0
  7  8  2  0  0  0
  7 26  1  0  0  0
  7 29  1  0  0  0
  8  9  1  0  0  0
  8 22  1  0  0  0
  9 10  1  0  0  0
  9 27  2  0  0  0
 10 11  2  0  0  0
 10 15  1  0  0  0
 11 12  1  0  0  0
 11 94  1  0  0  0
 12 13  2  0  0  0
 12 95  1  0  0  0
 13 14  1  0  0  0
 13 31  1  0  0  0
 14 15  2  0  0  0
 14 96  1  0  0  0
 15 97  1  0  0  0
 16 17  2  0  0  0
 16 21  1  0  0  0
 16 31  1  0  0  0
 17 18  1  0  0  0
 17 98  1  0  0  0
 18 19  2  0  0  0
 18 99  1  0  0  0
 19 20  1  0  0  0
 19 24  1  0  0  0
 20 21  2  0  0  0
 20100  1  0  0  0
 21 23  1  0  0  0
 22 28  1  0  0  0
 22 32  2  0  0  0
 26 27  1  0  0  0
 28101  1  0  0  0
 28102  1  0  0  0
 29103  1  0  0  0
 29104  1  0  0  0
 33 34  1  0  0  0
 33 66  1  0  0  0
 33 70  2  0  0  0
 34 36  1  0  0  0
 34 59  1  0  0  0
 34105  1  0  0  0
 35 44  2  0  0  0
 35 45  1  0  0  0
 35 68  1  0  0  0
 36 56  1  0  0  0
 36106  1  0  0  0
 37 39  1  0  0  0
 37 47  1  0  0  0
 37 66  1  0  0  0
 37107  1  0  0  0
 38 43  2  0  0  0
 38 46  1  0  0  0
 38 47  1  0  0  0
 39 64  1  0  0  0
 39 67  2  0  0  0
 40 52  1  0  0  0
 40 53  2  0  0  0
 40 58  1  0  0  0
 41108  1  0  0  0
 41109  1  0  0  0
 41110  1  0  0  0
 41 48  1  0  0  0
 42 43  1  0  0  0
 42 66  1  0  0  0
 42111  1  0  0  0
 42112  1  0  0  0
 43 44  1  0  0  0
 44113  1  0  0  0
 45 46  2  0  0  0
 45114  1  0  0  0
 46115  1  0  0  0
 47116  1  0  0  0
 47117  1  0  0  0
 48 56  1  0  0  0
 48 65  1  0  0  0
 48118  1  0  0  0
 49 50  1  0  0  0
 49 53  1  0  0  0
 49 64  1  0  0  0
 49119  1  0  0  0
 50 51  1  0  0  0
 50120  1  0  0  0
 50121  1  0  0  0
 51 52  1  0  0  0
 51122  1  0  0  0
 51123  1  0  0  0
 52124  1  0  0  0
 52125  1  0  0  0
 53 54  1  0  0  0
 54 55  2  0  0  0
 54126  1  0  0  0
 55 57  1  0  0  0
 55127  1  0  0  0
 56 69  2  0  0  0
 57 58  2  0  0  0
 57128  1  0  0  0
 58129  1  0  0  0
 59 60  1  0  0  0
 59 61  1  0  0  0
 59 62  1  0  0  0
 60130  1  0  0  0
 60131  1  0  0  0
 60132  1  0  0  0
 61133  1  0  0  0
 61134  1  0  0  0
 61135  1  0  0  0
 62136  1  0  0  0
 62137  1  0  0  0
 62138  1  0  0  0
 63 65  1  0  0  0
 63139  1  0  0  0
 63140  1  0  0  0
 63141  1  0  0  0
 64142  1  0  0  0
 65143  1  0  0  0
 68 80  1  0  0  0
 71 72  2  0  0  0
 71 74  1  0  0  0
 71144  1  0  0  0
 72 75  1  0  0  0
 72145  1  0  0  0
 73 74  2  0  0  0
 73 76  1  0  0  0
 73146  1  0  0  0
 74 77  1  0  0  0
 75 76  2  0  0  0
 75 82  1  0  0  0
 76 84  1  0  0  0
 77 79  1  0  0  0
 77 81  2  0  0  0
 78 80  1  0  0  0
 78 81  1  0  0  0
 78 83  2  0  0  0
 79147  1  0  0  0
 79148  1  0  0  0
 79149  1  0  0  0
 80150  1  0  0  0
 80151  1  0  0  0
 82152  1  0  0  0
M  ISO  4   1 100  68 101  80 101  82 100
M  END
> <chiral flag>
0

> <version>
0

> <s_m_source_file>
/data/baiqing/PycharmProjects/Reinvent-master-3.2/result/LINK_invent/BTK/process_docking_weight1_custom_product_contain_oxygen_bond_distance_aromatic_linkinvent_7_9_3/rearranged_h_0090.sdf

> <i_m_source_file_index>
11

> <r_mmod_Potential_Energy-OPLS-2005>
62.5941429138184

> <r_mmod_Stretch_Energy-OPLS-2005>
98.6975326538086

> <r_mmod_Bend_Energy-OPLS-2005>
152.878372192383

> <r_mmod_Torsional_Energy-OPLS-2005>
226.057174682617

> <r_mmod_Improper_Torsional_Energy-OPLS-2005>
4.10669565200806

> <r_mmod_Van_der_Waal_Energy-OPLS-2005>
159.684524536133

> <r_mmod_Electrostatic_Energy-OPLS-2005>
-432.468688964844

> <r_mmod_Solvation_Energy-OPLS-2005>
-204.979904174805

> <b_mmod_Minimization_Converged-OPLS-2005>
0

> <r_mmod_RMS_Derivative-OPLS-2005>
1.61290156841278

$$$$
11
                    3D
 Structure written by MMmdl.
149157  0  0  1  0            999 V2000
  -30.6036  -14.6838   20.4791 C   0  0  0  0  0  0
  -30.4427  -12.4165   19.4572 C   0  0  0  0  0  0
  -29.5102  -12.5082   18.2278 C   0  0  0  0  0  0
  -28.0333  -12.3419   18.6405 C   0  0  0  0  0  0
  -27.6503  -13.2209   19.8610 C   0  0  2  0  0  0
  -28.6978  -13.0949   20.9905 C   0  0  0  0  0  0
  -25.2533  -13.8165   20.5693 C   0  0  0  0  0  0
  -24.1808  -13.0417   20.9169 C   0  0  0  0  0  0
  -24.6395  -11.6897   20.8726 C   0  0  0  0  0  0
  -23.9067  -10.4282   21.0397 C   0  0  0  0  0  0
  -24.3618   -9.4201   21.9180 C   0  0  0  0  0  0
  -23.6289   -8.2240   22.0753 C   0  0  0  0  0  0
  -22.4272   -8.0278   21.3543 C   0  0  0  0  0  0
  -21.9905   -9.0251   20.4645 C   0  0  0  0  0  0
  -22.7236  -10.2128   20.3050 C   0  0  0  0  0  0
  -21.6853   -6.0734   22.5279 C   0  0  0  0  0  0
  -21.4015   -6.5638   23.8212 C   0  0  0  0  0  0
  -21.3658   -5.6791   24.9174 C   0  0  0  0  0  0
  -21.6044   -4.3054   24.7224 C   0  0  0  0  0  0
  -21.8820   -3.8144   23.4346 C   0  0  0  0  0  0
  -21.9192   -4.6961   22.3402 C   0  0  0  0  0  0
  -22.7831  -13.5210   21.1844 C   0  0  0  0  0  0
  -22.1660   -4.2146   21.0979 F   0  0  0  0  0  0
  -21.5628   -3.4538   25.7737 F   0  0  0  0  0  0
  -30.0086  -13.4472   20.4221 N   0  0  0  0  0  0
  -26.2979  -12.9365   20.3329 N   0  0  0  0  0  0
  -25.9330  -11.6512   20.5761 N   0  0  0  0  0  0
  -22.0485  -12.8207   22.0415 N   0  0  0  0  0  0
  -25.4168  -15.1893   20.4186 N   0  0  0  0  0  0
  -31.7770  -14.8416   20.1293 O   0  0  0  0  0  0
  -21.6637   -6.8875   21.4240 O   0  0  0  0  0  0
  -22.3506  -14.5516   20.6702 O   0  0  0  0  0  0
  -24.6277  -31.8580   23.2007 C   0  0  0  0  0  0
  -25.9115  -32.4770   23.8348 C   0  0  1  0  0  0
  -27.2255  -27.3010   20.1270 C   0  0  0  0  0  0
  -25.5921  -33.8571   24.2272 N   0  0  0  0  0  0
  -23.4233  -30.4800   21.5435 C   0  0  2  0  0  0
  -24.8719  -28.9307   20.1127 C   0  0  0  0  0  0
  -22.7486  -29.4612   22.4929 C   0  0  0  0  0  0
  -18.0289  -28.1385   22.8486 C   0  0  0  0  0  0
  -24.1490  -36.7293   23.2642 C   0  0  0  0  0  0
  -25.9658  -30.7831   21.3751 C   0  0  0  0  0  0
  -26.0415  -29.4080   20.7192 C   0  0  0  0  0  0
  -27.2238  -28.6059   20.7141 C   0  0  0  0  0  0
  -26.0379  -26.8839   19.4880 C   0  0  0  0  0  0
  -24.8728  -27.6745   19.4868 C   0  0  0  0  0  0
  -23.6401  -29.8127   20.1599 C   0  0  0  0  0  0
  -25.4116  -36.3079   24.0328 C   0  0  1  0  0  0
  -20.5890  -28.3693   23.1279 C   0  0  2  0  0  0
  -20.6777  -26.9414   22.5408 C   0  0  0  0  0  0
  -19.5751  -26.6383   21.5212 C   0  0  0  0  0  0
  -18.1933  -26.7926   22.1629 C   0  0  0  0  0  0
  -19.1542  -28.8856   23.2877 C   0  0  0  0  0  0
  -18.9464  -30.1457   23.8894 C   0  0  0  0  0  0
  -17.6463  -30.6586   24.0563 C   0  0  0  0  0  0
  -25.9050  -34.9446   23.5102 C   0  0  0  0  0  0
  -16.5354  -29.9085   23.6329 C   0  0  0  0  0  0
  -16.7276  -28.6503   23.0351 C   0  0  0  0  0  0
  -26.4494  -31.6586   25.0724 C   0  0  0  0  0  0
  -25.3725  -31.3728   26.1451 C   0  0  0  0  0  0
  -27.0341  -30.3008   24.6190 C   0  0  0  0  0  0
  -27.6050  -32.4326   25.7495 C   0  0  0  0  0  0
  -27.5572  -37.1813   24.8474 C   0  0  0  0  0  0
  -21.4197  -29.3042   22.3671 N   0  0  0  0  0  0
  -26.4300  -37.3767   23.9394 N   0  0  0  0  0  0
  -24.6911  -31.0574   22.0966 N   0  0  0  0  0  0
  -23.4199  -28.8155   23.3020 O   0  0  0  0  0  0
  -28.3290  -26.4301   20.1460 O   0  0  0  0  0  0
  -26.5623  -34.8915   22.4671 O   0  0  0  0  0  0
  -23.5434  -32.1388   23.7320 O   0  0  0  0  0  0
  -30.9687  -19.3938   20.2929 C   0  0  0  0  0  0
  -31.0211  -17.9741   20.4792 C   0  0  0  0  0  0
  -28.5702  -19.3370   20.2740 C   0  0  0  0  0  0
  -29.7471  -20.1239   20.1712 C   0  0  0  0  0  0
  -29.8389  -17.1910   20.5600 C   0  0  0  0  0  0
  -28.6194  -17.9201   20.4678 C   0  0  0  0  0  0
  -28.9655  -23.8451   20.0539 C   0  0  0  0  0  0
  -29.7444  -21.6235   19.7701 C   0  0  0  0  0  0
  -28.0957  -25.0365   20.6306 C   0  0  0  0  0  0
  -28.9065  -22.5787   20.4162 N   0  0  0  0  0  0
  -29.7654  -15.7353   20.7612 N   0  0  0  0  0  0
  -30.5574  -21.9152   18.8886 O   0  0  0  0  0  0
  -27.4567  -17.2295   20.5396 F   0  0  0  0  0  0
  -31.4819  -12.5514   19.1525 H   0  0  0  0  0  0
  -30.3893  -11.4256   19.9111 H   0  0  0  0  0  0
  -29.7796  -11.7480   17.4930 H   0  0  0  0  0  0
  -29.6461  -13.4717   17.7343 H   0  0  0  0  0  0
  -27.8758  -11.2898   18.8806 H   0  0  0  0  0  0
  -27.3782  -12.5614   17.7968 H   0  0  0  0  0  0
  -27.6578  -14.2524   19.5085 H   0  0  0  0  0  0
  -28.7188  -12.0773   21.3835 H   0  0  0  0  0  0
  -28.4403  -13.7356   21.8354 H   0  0  0  0  0  0
  -25.2764   -9.5677   22.4752 H   0  0  0  0  0  0
  -23.9996   -7.4633   22.7475 H   0  0  0  0  0  0
  -21.0834   -8.8772   19.8954 H   0  0  0  0  0  0
  -22.3695  -10.9667   19.6159 H   0  0  0  0  0  0
  -21.2010   -7.6147   23.9715 H   0  0  0  0  0  0
  -21.1478   -6.0521   25.9077 H   0  0  0  0  0  0
  -22.0601   -2.7606   23.2849 H   0  0  0  0  0  0
  -22.4107  -11.9871   22.4802 H   0  0  0  0  0  0
  -21.1108  -13.1240   22.2634 H   0  0  0  0  0  0
  -24.6492  -15.8342   20.5656 H   0  0  0  0  0  0
  -26.2837  -15.6683   20.1993 H   0  0  0  0  0  0
  -26.7185  -32.5436   23.1098 H   0  0  0  0  0  0
  -25.0061  -33.9713   25.0412 H   0  0  0  0  0  0
  -22.7181  -31.3007   21.3981 H   0  0  0  0  0  0
  -23.3734  -35.9648   23.3344 H   0  0  0  0  0  0
  -24.3569  -36.8871   22.2048 H   0  0  0  0  0  0
  -23.7272  -37.6519   23.6639 H   0  0  0  0  0  0
  -26.0992  -31.5448   20.6056 H   0  0  0  0  0  0
  -26.8452  -30.8332   22.0056 H   0  0  0  0  0  0
  -28.1218  -28.9674   21.1954 H   0  0  0  0  0  0
  -25.9993  -25.9267   18.9880 H   0  0  0  0  0  0
  -23.9796  -27.3057   19.0015 H   0  0  0  0  0  0
  -23.7610  -30.5884   19.4029 H   0  0  0  0  0  0
  -22.7601  -29.2426   19.8567 H   0  0  0  0  0  0
  -25.1302  -36.1939   25.0823 H   0  0  0  0  0  0
  -20.9982  -28.3268   24.1400 H   0  0  0  0  0  0
  -20.5678  -26.2302   23.3609 H   0  0  0  0  0  0
  -21.6644  -26.7440   22.1202 H   0  0  0  0  0  0
  -19.6911  -25.6293   21.1243 H   0  0  0  0  0  0
  -19.6685  -27.3192   20.6741 H   0  0  0  0  0  0
  -17.4198  -26.6669   21.4037 H   0  0  0  0  0  0
  -18.0340  -26.0072   22.9030 H   0  0  0  0  0  0
  -19.7939  -30.7275   24.2262 H   0  0  0  0  0  0
  -17.5017  -31.6265   24.5167 H   0  0  0  0  0  0
  -15.5355  -30.2987   23.7651 H   0  0  0  0  0  0
  -15.8678  -28.0820   22.7069 H   0  0  0  0  0  0
  -24.5896  -30.7083   25.7778 H   0  0  0  0  0  0
  -24.8923  -32.2897   26.4880 H   0  0  0  0  0  0
  -25.8047  -30.8901   27.0225 H   0  0  0  0  0  0
  -26.2923  -29.6756   24.1208 H   0  0  0  0  0  0
  -27.4028  -29.7266   25.4701 H   0  0  0  0  0  0
  -27.8795  -30.4291   23.9427 H   0  0  0  0  0  0
  -27.2655  -33.3623   26.2074 H   0  0  0  0  0  0
  -28.3858  -32.6893   25.0324 H   0  0  0  0  0  0
  -28.0722  -31.8454   26.5412 H   0  0  0  0  0  0
  -28.2628  -38.0070   24.7456 H   0  0  0  0  0  0
  -28.1028  -36.2598   24.6387 H   0  0  0  0  0  0
  -27.2277  -37.1566   25.8876 H   0  0  0  0  0  0
  -20.9380  -29.8766   21.6878 H   0  0  0  0  0  0
  -26.0183  -38.2852   24.1351 H   0  0  0  0  0  0
  -31.9043  -19.9293   20.2035 H   0  0  0  0  0  0
  -31.9865  -17.4936   20.5515 H   0  0  0  0  0  0
  -27.6069  -19.8145   20.1681 H   0  0  0  0  0  0
  -29.6536  -24.1922   19.2773 H   0  0  0  0  0  0
  -28.2632  -25.0596   21.7075 H   0  0  0  0  0  0
  -27.0529  -24.7426   20.5227 H   0  0  0  0  0  0
  -28.8342  -15.4248   20.9928 H   0  0  0  0  0  0
  1 25  1  0  0  0
  1 30  2  0  0  0
  1 81  1  0  0  0
  2  3  1  0  0  0
  2 25  1  0  0  0
  2 84  1  0  0  0
  2 85  1  0  0  0
  3  4  1  0  0  0
  3 86  1  0  0  0
  3 87  1  0  0  0
  4  5  1  0  0  0
  4 88  1  0  0  0
  4 89  1  0  0  0
  5  6  1  0  0  0
  5 26  1  0  0  0
  5 90  1  0  0  0
  6 25  1  0  0  0
  6 91  1  0  0  0
  6 92  1  0  0  0
  7  8  2  0  0  0
  7 26  1  0  0  0
  7 29  1  0  0  0
  8  9  1  0  0  0
  8 22  1  0  0  0
  9 10  1  0  0  0
  9 27  2  0  0  0
 10 11  2  0  0  0
 10 15  1  0  0  0
 11 12  1  0  0  0
 11 93  1  0  0  0
 12 13  2  0  0  0
 12 94  1  0  0  0
 13 14  1  0  0  0
 13 31  1  0  0  0
 14 15  2  0  0  0
 14 95  1  0  0  0
 15 96  1  0  0  0
 16 17  2  0  0  0
 16 21  1  0  0  0
 16 31  1  0  0  0
 17 18  1  0  0  0
 17 97  1  0  0  0
 18 19  2  0  0  0
 18 98  1  0  0  0
 19 20  1  0  0  0
 19 24  1  0  0  0
 20 21  2  0  0  0
 20 99  1  0  0  0
 21 23  1  0  0  0
 22 28  1  0  0  0
 22 32  2  0  0  0
 26 27  1  0  0  0
 28100  1  0  0  0
 28101  1  0  0  0
 29102  1  0  0  0
 29103  1  0  0  0
 33 34  1  0  0  0
 33 66  1  0  0  0
 33 70  2  0  0  0
 34 36  1  0  0  0
 34 59  1  0  0  0
 34104  1  0  0  0
 35 44  2  0  0  0
 35 45  1  0  0  0
 35 68  1  0  0  0
 36 56  1  0  0  0
 36105  1  0  0  0
 37 39  1  0  0  0
 37 47  1  0  0  0
 37 66  1  0  0  0
 37106  1  0  0  0
 38 43  2  0  0  0
 38 46  1  0  0  0
 38 47  1  0  0  0
 39 64  1  0  0  0
 39 67  2  0  0  0
 40 52  1  0  0  0
 40 53  2  0  0  0
 40 58  1  0  0  0
 41107  1  0  0  0
 41108  1  0  0  0
 41109  1  0  0  0
 41 48  1  0  0  0
 42 43  1  0  0  0
 42 66  1  0  0  0
 42110  1  0  0  0
 42111  1  0  0  0
 43 44  1  0  0  0
 44112  1  0  0  0
 45 46  2  0  0  0
 45113  1  0  0  0
 46114  1  0  0  0
 47115  1  0  0  0
 47116  1  0  0  0
 48 56  1  0  0  0
 48 65  1  0  0  0
 48117  1  0  0  0
 49 50  1  0  0  0
 49 53  1  0  0  0
 49 64  1  0  0  0
 49118  1  0  0  0
 50 51  1  0  0  0
 50119  1  0  0  0
 50120  1  0  0  0
 51 52  1  0  0  0
 51121  1  0  0  0
 51122  1  0  0  0
 52123  1  0  0  0
 52124  1  0  0  0
 53 54  1  0  0  0
 54 55  2  0  0  0
 54125  1  0  0  0
 55 57  1  0  0  0
 55126  1  0  0  0
 56 69  2  0  0  0
 57 58  2  0  0  0
 57127  1  0  0  0
 58128  1  0  0  0
 59 60  1  0  0  0
 59 61  1  0  0  0
 59 62  1  0  0  0
 60129  1  0  0  0
 60130  1  0  0  0
 60131  1  0  0  0
 61132  1  0  0  0
 61133  1  0  0  0
 61134  1  0  0  0
 62135  1  0  0  0
 62136  1  0  0  0
 62137  1  0  0  0
 63 65  1  0  0  0
 63138  1  0  0  0
 63139  1  0  0  0
 63140  1  0  0  0
 64141  1  0  0  0
 65142  1  0  0  0
 68 79  1  0  0  0
 71 72  2  0  0  0
 71 74  1  0  0  0
 71143  1  0  0  0
 72 75  1  0  0  0
 72144  1  0  0  0
 73 74  2  0  0  0
 73 76  1  0  0  0
 73145  1  0  0  0
 74 78  1  0  0  0
 75 76  2  0  0  0
 75 81  1  0  0  0
 76 83  1  0  0  0
 77 79  1  0  0  0
 77 80  2  0  0  0
 77146  1  0  0  0
 78 80  1  0  0  0
 78 82  2  0  0  0
 79147  1  0  0  0
 79148  1  0  0  0
 81149  1  0  0  0
M  ISO  4   1 100  68 101  79 101  81 100
M  END
> <chiral flag>
0

> <version>
0

> <s_m_source_file>
/data/baiqing/PycharmProjects/Reinvent-master-3.2/result/LINK_invent/BTK/process_docking_weight1_custom_product_contain_oxygen_bond_distance_aromatic_linkinvent_7_9_3/rearranged_h_0090.sdf

> <i_m_source_file_index>
12

> <r_mmod_Potential_Energy-OPLS-2005>
36.1921653747559

> <r_mmod_Stretch_Energy-OPLS-2005>
92.0756759643555

> <r_mmod_Bend_Energy-OPLS-2005>
144.19580078125

> <r_mmod_Torsional_Energy-OPLS-2005>
229.915496826172

> <r_mmod_Improper_Torsional_Energy-OPLS-2005>
5.46865367889404

> <r_mmod_Van_der_Waal_Energy-OPLS-2005>
148.327819824219

> <r_mmod_Electrostatic_Energy-OPLS-2005>
-447.751495361328

> <r_mmod_Solvation_Energy-OPLS-2005>
-196.921340942383

> <b_mmod_Minimization_Converged-OPLS-2005>
0

> <r_mmod_RMS_Derivative-OPLS-2005>
0.346518635749817

$$$$
12
                    3D
 Structure written by MMmdl.
150158  0  0  1  0            999 V2000
  -30.6161  -14.8294   20.4379 C   0  0  0  0  0  0
  -30.4276  -12.5091   19.4894 C   0  0  0  0  0  0
  -29.5120  -12.5121   18.2461 C   0  0  0  0  0  0
  -28.0423  -12.3221   18.6631 C   0  0  0  0  0  0
  -27.6347  -13.2442   19.8428 C   0  0  2  0  0  0
  -28.6794  -13.2404   20.9803 C   0  0  0  0  0  0
  -25.2485  -13.8221   20.5714 C   0  0  0  0  0  0
  -24.1792  -13.0447   20.9220 C   0  0  0  0  0  0
  -24.6402  -11.6928   20.8752 C   0  0  0  0  0  0
  -23.9083  -10.4296   21.0405 C   0  0  0  0  0  0
  -24.3630   -9.4213   21.9184 C   0  0  0  0  0  0
  -23.6304   -8.2249   22.0756 C   0  0  0  0  0  0
  -22.4286   -8.0283   21.3546 C   0  0  0  0  0  0
  -21.9921   -9.0258   20.4647 C   0  0  0  0  0  0
  -22.7253  -10.2137   20.3056 C   0  0  0  0  0  0
  -21.6857   -6.0734   22.5282 C   0  0  0  0  0  0
  -21.4015   -6.5640   23.8211 C   0  0  0  0  0  0
  -21.3659   -5.6796   24.9175 C   0  0  0  0  0  0
  -21.6046   -4.3058   24.7227 C   0  0  0  0  0  0
  -21.8819   -3.8148   23.4348 C   0  0  0  0  0  0
  -21.9194   -4.6963   22.3405 C   0  0  0  0  0  0
  -22.7812  -13.5217   21.1873 C   0  0  0  0  0  0
  -22.1664   -4.2149   21.0981 F   0  0  0  0  0  0
  -21.5627   -3.4541   25.7737 F   0  0  0  0  0  0
  -29.9706  -13.6044   20.3856 N   0  0  0  0  0  0
  -26.2916  -12.9448   20.3273 N   0  0  0  0  0  0
  -25.9336  -11.6578   20.5761 N   0  0  0  0  0  0
  -22.0465  -12.8198   22.0424 N   0  0  0  0  0  0
  -25.4147  -15.1947   20.4132 N   0  0  0  0  0  0
  -31.8138  -14.8460   20.1448 O   0  0  0  0  0  0
  -21.6647   -6.8882   21.4243 O   0  0  0  0  0  0
  -22.3490  -14.5517   20.6717 O   0  0  0  0  0  0
  -24.6369  -31.8512   23.1947 C   0  0  0  0  0  0
  -25.9169  -32.4733   23.8314 C   0  0  1  0  0  0
  -27.2166  -27.2136   20.1392 C   0  0  0  0  0  0
  -25.5945  -33.8535   24.2235 N   0  0  0  0  0  0
  -23.4382  -30.4735   21.5375 C   0  0  2  0  0  0
  -24.8907  -28.9176   20.1050 C   0  0  0  0  0  0
  -22.7541  -29.4585   22.4872 C   0  0  0  0  0  0
  -18.0301  -28.1395   22.8488 C   0  0  0  0  0  0
  -24.1492  -36.7268   23.2641 C   0  0  0  0  0  0
  -25.9898  -30.7492   21.3842 C   0  0  0  0  0  0
  -26.0650  -29.3679   20.7249 C   0  0  0  0  0  0
  -27.2342  -28.5276   20.7351 C   0  0  0  0  0  0
  -26.0271  -26.8545   19.4702 C   0  0  0  0  0  0
  -24.8798  -27.6707   19.4631 C   0  0  0  0  0  0
  -23.6616  -29.8085   20.1541 C   0  0  0  0  0  0
  -25.4122  -36.3051   24.0324 C   0  0  1  0  0  0
  -20.5915  -28.3713   23.1251 C   0  0  2  0  0  0
  -20.6787  -26.9422   22.5404 C   0  0  0  0  0  0
  -19.5755  -26.6390   21.5214 C   0  0  0  0  0  0
  -18.1941  -26.7936   22.1630 C   0  0  0  0  0  0
  -19.1558  -28.8872   23.2868 C   0  0  0  0  0  0
  -18.9474  -30.1474   23.8888 C   0  0  0  0  0  0
  -17.6470  -30.6596   24.0566 C   0  0  0  0  0  0
  -25.9062  -34.9423   23.5083 C   0  0  0  0  0  0
  -16.5362  -29.9091   23.6336 C   0  0  0  0  0  0
  -16.7286  -28.6507   23.0362 C   0  0  0  0  0  0
  -26.4516  -31.6576   25.0722 C   0  0  0  0  0  0
  -25.3718  -31.3747   26.1428 C   0  0  0  0  0  0
  -27.0371  -30.2980   24.6247 C   0  0  0  0  0  0
  -27.6059  -32.4327   25.7500 C   0  0  0  0  0  0
  -27.5580  -37.1799   24.8469 C   0  0  0  0  0  0
  -21.4236  -29.3055   22.3626 N   0  0  0  0  0  0
  -26.4289  -37.3759   23.9408 N   0  0  0  0  0  0
  -24.7073  -31.0441   22.0940 N   0  0  0  0  0  0
  -23.4218  -28.8123   23.2988 O   0  0  0  0  0  0
  -28.2151  -26.1977   20.2265 O   0  0  0  0  0  0
  -26.5637  -34.8906   22.4656 O   0  0  0  0  0  0
  -23.5504  -32.1346   23.7208 O   0  0  0  0  0  0
  -32.0823  -19.1722   20.3118 C   0  0  0  0  0  0
  -31.1833  -20.2551   20.3308 C   0  0  0  0  0  0
  -31.6489  -17.8349   20.4037 C   0  0  0  0  0  0
  -29.7904  -20.0586   20.4504 C   0  0  0  0  0  0
  -30.2800  -17.4870   20.5137 C   0  0  0  0  0  0
  -29.3659  -18.6464   20.5470 C   0  0  0  0  0  0
  -27.7859  -24.9814   20.8649 C   0  0  0  0  0  0
  -28.0723  -23.5993   20.9404 C   0  0  0  0  0  0
  -29.0980  -22.6570   20.3255 C   0  0  0  0  0  0
  -28.9002  -21.2740   20.5511 N   0  0  0  0  0  0
  -29.8861  -16.0234   20.6045 N   0  0  0  0  0  0
  -30.0491  -23.0643   19.6581 O   0  0  0  0  0  0
  -27.2657  -22.9688   21.8109 O   0  0  0  0  0  0
  -28.0414  -18.3956   20.6828 F   0  0  0  0  0  0
  -31.4683  -12.6254   19.1829 H   0  0  0  0  0  0
  -30.3785  -11.5490   20.0055 H   0  0  0  0  0  0
  -29.8096  -11.7224   17.5549 H   0  0  0  0  0  0
  -29.6244  -13.4532   17.7057 H   0  0  0  0  0  0
  -27.9179  -11.2776   18.9525 H   0  0  0  0  0  0
  -27.3816  -12.4821   17.8103 H   0  0  0  0  0  0
  -27.6101  -14.2534   19.4312 H   0  0  0  0  0  0
  -28.7364  -12.2623   21.4603 H   0  0  0  0  0  0
  -28.4017  -13.9522   21.7596 H   0  0  0  0  0  0
  -25.2771   -9.5686   22.4764 H   0  0  0  0  0  0
  -24.0009   -7.4637   22.7476 H   0  0  0  0  0  0
  -21.0852   -8.8782   19.8951 H   0  0  0  0  0  0
  -22.3714  -10.9677   19.6165 H   0  0  0  0  0  0
  -21.2010   -7.6147   23.9714 H   0  0  0  0  0  0
  -21.1482   -6.0525   25.9077 H   0  0  0  0  0  0
  -22.0597   -2.7610   23.2851 H   0  0  0  0  0  0
  -22.4091  -11.9863   22.4807 H   0  0  0  0  0  0
  -21.1079  -13.1213   22.2632 H   0  0  0  0  0  0
  -24.6447  -15.8451   20.5277 H   0  0  0  0  0  0
  -26.2598  -15.6411   20.0810 H   0  0  0  0  0  0
  -26.7241  -32.5375   23.1057 H   0  0  0  0  0  0
  -25.0086  -33.9658   25.0378 H   0  0  0  0  0  0
  -22.7369  -31.2976   21.3894 H   0  0  0  0  0  0
  -23.3747  -35.9607   23.3301 H   0  0  0  0  0  0
  -24.3574  -36.8889   22.2054 H   0  0  0  0  0  0
  -23.7247  -37.6471   23.6666 H   0  0  0  0  0  0
  -26.1379  -31.5074   20.6140 H   0  0  0  0  0  0
  -26.8625  -30.7980   22.0233 H   0  0  0  0  0  0
  -28.1234  -28.8551   21.2544 H   0  0  0  0  0  0
  -25.9660  -25.8886   18.9885 H   0  0  0  0  0  0
  -23.9838  -27.3209   18.9682 H   0  0  0  0  0  0
  -23.7874  -30.5853   19.3990 H   0  0  0  0  0  0
  -22.7790  -29.2448   19.8464 H   0  0  0  0  0  0
  -25.1308  -36.1891   25.0819 H   0  0  0  0  0  0
  -21.0028  -28.3299   24.1365 H   0  0  0  0  0  0
  -20.5687  -26.2324   23.3615 H   0  0  0  0  0  0
  -21.6654  -26.7441   22.1201 H   0  0  0  0  0  0
  -19.6909  -25.6298   21.1252 H   0  0  0  0  0  0
  -19.6690  -27.3194   20.6737 H   0  0  0  0  0  0
  -17.4211  -26.6690   21.4028 H   0  0  0  0  0  0
  -18.0342  -26.0079   22.9026 H   0  0  0  0  0  0
  -19.7946  -30.7304   24.2250 H   0  0  0  0  0  0
  -17.5016  -31.6273   24.5173 H   0  0  0  0  0  0
  -15.5358  -30.2990   23.7661 H   0  0  0  0  0  0
  -15.8685  -28.0820   22.7084 H   0  0  0  0  0  0
  -24.5900  -30.7089   25.7756 H   0  0  0  0  0  0
  -24.8902  -32.2921   26.4824 H   0  0  0  0  0  0
  -25.8019  -30.8944   27.0226 H   0  0  0  0  0  0
  -26.2971  -29.6716   24.1250 H   0  0  0  0  0  0
  -27.4004  -29.7260   25.4798 H   0  0  0  0  0  0
  -27.8873  -30.4233   23.9533 H   0  0  0  0  0  0
  -27.2667  -33.3644   26.2042 H   0  0  0  0  0  0
  -28.3892  -32.6865   25.0344 H   0  0  0  0  0  0
  -28.0699  -31.8469   26.5445 H   0  0  0  0  0  0
  -28.2611  -38.0088   24.7509 H   0  0  0  0  0  0
  -28.1064  -36.2618   24.6307 H   0  0  0  0  0  0
  -27.2291  -37.1462   25.8872 H   0  0  0  0  0  0
  -20.9424  -29.8765   21.6817 H   0  0  0  0  0  0
  -26.0157  -38.2830   24.1400 H   0  0  0  0  0  0
  -33.1422  -19.3742   20.2368 H   0  0  0  0  0  0
  -31.5993  -21.2499   20.2802 H   0  0  0  0  0  0
  -32.4233  -17.0862   20.3970 H   0  0  0  0  0  0
  -26.9628  -25.2668   21.5091 H   0  0  0  0  0  0
  -27.9658  -21.0494   20.8619 H   0  0  0  0  0  0
  -28.9021  -15.8744   20.7680 H   0  0  0  0  0  0
  -27.7188  -22.1840   22.0913 H   0  0  0  0  0  0
  1 25  1  0  0  0
  1 30  2  0  0  0
  1 81  1  0  0  0
  2  3  1  0  0  0
  2 25  1  0  0  0
  2 85  1  0  0  0
  2 86  1  0  0  0
  3  4  1  0  0  0
  3 87  1  0  0  0
  3 88  1  0  0  0
  4  5  1  0  0  0
  4 89  1  0  0  0
  4 90  1  0  0  0
  5  6  1  0  0  0
  5 26  1  0  0  0
  5 91  1  0  0  0
  6 25  1  0  0  0
  6 92  1  0  0  0
  6 93  1  0  0  0
  7  8  2  0  0  0
  7 26  1  0  0  0
  7 29  1  0  0  0
  8  9  1  0  0  0
  8 22  1  0  0  0
  9 10  1  0  0  0
  9 27  2  0  0  0
 10 11  2  0  0  0
 10 15  1  0  0  0
 11 12  1  0  0  0
 11 94  1  0  0  0
 12 13  2  0  0  0
 12 95  1  0  0  0
 13 14  1  0  0  0
 13 31  1  0  0  0
 14 15  2  0  0  0
 14 96  1  0  0  0
 15 97  1  0  0  0
 16 17  2  0  0  0
 16 21  1  0  0  0
 16 31  1  0  0  0
 17 18  1  0  0  0
 17 98  1  0  0  0
 18 19  2  0  0  0
 18 99  1  0  0  0
 19 20  1  0  0  0
 19 24  1  0  0  0
 20 21  2  0  0  0
 20100  1  0  0  0
 21 23  1  0  0  0
 22 28  1  0  0  0
 22 32  2  0  0  0
 26 27  1  0  0  0
 28101  1  0  0  0
 28102  1  0  0  0
 29103  1  0  0  0
 29104  1  0  0  0
 33 34  1  0  0  0
 33 66  1  0  0  0
 33 70  2  0  0  0
 34 36  1  0  0  0
 34 59  1  0  0  0
 34105  1  0  0  0
 35 44  2  0  0  0
 35 45  1  0  0  0
 35 68  1  0  0  0
 36 56  1  0  0  0
 36106  1  0  0  0
 37 39  1  0  0  0
 37 47  1  0  0  0
 37 66  1  0  0  0
 37107  1  0  0  0
 38 43  2  0  0  0
 38 46  1  0  0  0
 38 47  1  0  0  0
 39 64  1  0  0  0
 39 67  2  0  0  0
 40 52  1  0  0  0
 40 53  2  0  0  0
 40 58  1  0  0  0
 41108  1  0  0  0
 41109  1  0  0  0
 41110  1  0  0  0
 41 48  1  0  0  0
 42 43  1  0  0  0
 42 66  1  0  0  0
 42111  1  0  0  0
 42112  1  0  0  0
 43 44  1  0  0  0
 44113  1  0  0  0
 45 46  2  0  0  0
 45114  1  0  0  0
 46115  1  0  0  0
 47116  1  0  0  0
 47117  1  0  0  0
 48 56  1  0  0  0
 48 65  1  0  0  0
 48118  1  0  0  0
 49 50  1  0  0  0
 49 53  1  0  0  0
 49 64  1  0  0  0
 49119  1  0  0  0
 50 51  1  0  0  0
 50120  1  0  0  0
 50121  1  0  0  0
 51 52  1  0  0  0
 51122  1  0  0  0
 51123  1  0  0  0
 52124  1  0  0  0
 52125  1  0  0  0
 53 54  1  0  0  0
 54 55  2  0  0  0
 54126  1  0  0  0
 55 57  1  0  0  0
 55127  1  0  0  0
 56 69  2  0  0  0
 57 58  2  0  0  0
 57128  1  0  0  0
 58129  1  0  0  0
 59 60  1  0  0  0
 59 61  1  0  0  0
 59 62  1  0  0  0
 60130  1  0  0  0
 60131  1  0  0  0
 60132  1  0  0  0
 61133  1  0  0  0
 61134  1  0  0  0
 61135  1  0  0  0
 62136  1  0  0  0
 62137  1  0  0  0
 62138  1  0  0  0
 63 65  1  0  0  0
 63139  1  0  0  0
 63140  1  0  0  0
 63141  1  0  0  0
 64142  1  0  0  0
 65143  1  0  0  0
 68 77  1  0  0  0
 71 72  2  0  0  0
 71 73  1  0  0  0
 71144  1  0  0  0
 72 74  1  0  0  0
 72145  1  0  0  0
 73 75  2  0  0  0
 73146  1  0  0  0
 74 76  2  0  0  0
 74 80  1  0  0  0
 75 76  1  0  0  0
 75 81  1  0  0  0
 76 84  1  0  0  0
 77 78  2  0  0  0
 77147  1  0  0  0
 78 79  1  0  0  0
 78 83  1  0  0  0
 79 80  1  0  0  0
 79 82  2  0  0  0
 80148  1  0  0  0
 81149  1  0  0  0
 83150  1  0  0  0
M  ISO  4   1 100  68 101  77 101  81 100
M  END
> <chiral flag>
0

> <version>
0

> <s_m_source_file>
/data/baiqing/PycharmProjects/Reinvent-master-3.2/result/LINK_invent/BTK/process_docking_weight1_custom_product_contain_oxygen_bond_distance_aromatic_linkinvent_7_9_3/rearranged_h_0090.sdf

> <i_m_source_file_index>
13

> <r_mmod_Potential_Energy-OPLS-2005>
288.502716064453

> <r_mmod_Stretch_Energy-OPLS-2005>
170.659576416016

> <r_mmod_Bend_Energy-OPLS-2005>
247.348831176758

> <r_mmod_Torsional_Energy-OPLS-2005>
235.529296875

> <r_mmod_Improper_Torsional_Energy-OPLS-2005>
5.15752077102661

> <r_mmod_Van_der_Waal_Energy-OPLS-2005>
151.780578613281

> <r_mmod_Electrostatic_Energy-OPLS-2005>
-425.03857421875

> <r_mmod_Solvation_Energy-OPLS-2005>
-231.537994384766

> <b_mmod_Minimization_Converged-OPLS-2005>
0

> <r_mmod_RMS_Derivative-OPLS-2005>
1.05966591835022

$$$$
13
                    3D
 Structure written by MMmdl.
153162  0  0  1  0            999 V2000
  -30.6253  -14.8260   20.4331 C   0  0  0  0  0  0
  -30.4272  -12.5058   19.4915 C   0  0  0  0  0  0
  -29.5142  -12.5156   18.2472 C   0  0  0  0  0  0
  -28.0444  -12.3241   18.6624 C   0  0  0  0  0  0
  -27.6354  -13.2454   19.8432 C   0  0  2  0  0  0
  -28.6808  -13.2421   20.9810 C   0  0  0  0  0  0
  -25.2480  -13.8220   20.5706 C   0  0  0  0  0  0
  -24.1785  -13.0444   20.9206 C   0  0  0  0  0  0
  -24.6396  -11.6926   20.8739 C   0  0  0  0  0  0
  -23.9077  -10.4293   21.0394 C   0  0  0  0  0  0
  -24.3625   -9.4211   21.9177 C   0  0  0  0  0  0
  -23.6293   -8.2251   22.0751 C   0  0  0  0  0  0
  -22.4275   -8.0286   21.3542 C   0  0  0  0  0  0
  -21.9911   -9.0257   20.4644 C   0  0  0  0  0  0
  -22.7244  -10.2133   20.3047 C   0  0  0  0  0  0
  -21.6856   -6.0731   22.5278 C   0  0  0  0  0  0
  -21.4020   -6.5636   23.8209 C   0  0  0  0  0  0
  -21.3660   -5.6792   24.9170 C   0  0  0  0  0  0
  -21.6045   -4.3052   24.7225 C   0  0  0  0  0  0
  -21.8819   -3.8140   23.4346 C   0  0  0  0  0  0
  -21.9193   -4.6958   22.3399 C   0  0  0  0  0  0
  -22.7803  -13.5215   21.1860 C   0  0  0  0  0  0
  -22.1662   -4.2140   21.0974 F   0  0  0  0  0  0
  -21.5626   -3.4535   25.7741 F   0  0  0  0  0  0
  -29.9734  -13.6038   20.3864 N   0  0  0  0  0  0
  -26.2917  -12.9449   20.3269 N   0  0  0  0  0  0
  -25.9336  -11.6581   20.5744 N   0  0  0  0  0  0
  -22.0448  -12.8206   22.0415 N   0  0  0  0  0  0
  -25.4149  -15.1951   20.4150 N   0  0  0  0  0  0
  -31.8252  -14.8300   20.1517 O   0  0  0  0  0  0
  -21.6641   -6.8879   21.4238 O   0  0  0  0  0  0
  -22.3479  -14.5512   20.6698 O   0  0  0  0  0  0
  -24.6381  -31.8499   23.1955 C   0  0  0  0  0  0
  -25.9187  -32.4722   23.8313 C   0  0  1  0  0  0
  -27.2188  -27.2125   20.1379 C   0  0  0  0  0  0
  -25.5969  -33.8525   24.2253 N   0  0  0  0  0  0
  -23.4385  -30.4721   21.5386 C   0  0  2  0  0  0
  -24.8912  -28.9172   20.1052 C   0  0  0  0  0  0
  -22.7539  -29.4572   22.4875 C   0  0  0  0  0  0
  -18.0305  -28.1386   22.8470 C   0  0  0  0  0  0
  -24.1490  -36.7260   23.2631 C   0  0  0  0  0  0
  -25.9892  -30.7476   21.3847 C   0  0  0  0  0  0
  -26.0650  -29.3659   20.7269 C   0  0  0  0  0  0
  -27.2339  -28.5250   20.7373 C   0  0  0  0  0  0
  -26.0297  -26.8581   19.4647 C   0  0  0  0  0  0
  -24.8812  -27.6723   19.4608 C   0  0  0  0  0  0
  -23.6618  -29.8072   20.1551 C   0  0  0  0  0  0
  -25.4116  -36.3049   24.0323 C   0  0  1  0  0  0
  -20.5908  -28.3709   23.1237 C   0  0  2  0  0  0
  -20.6793  -26.9418   22.5396 C   0  0  0  0  0  0
  -19.5772  -26.6383   21.5193 C   0  0  0  0  0  0
  -18.1951  -26.7928   22.1608 C   0  0  0  0  0  0
  -19.1559  -28.8866   23.2847 C   0  0  0  0  0  0
  -18.9479  -30.1461   23.8875 C   0  0  0  0  0  0
  -17.6476  -30.6583   24.0556 C   0  0  0  0  0  0
  -25.9064  -34.9419   23.5092 C   0  0  0  0  0  0
  -16.5368  -29.9073   23.6330 C   0  0  0  0  0  0
  -16.7289  -28.6491   23.0350 C   0  0  0  0  0  0
  -26.4547  -31.6542   25.0704 C   0  0  0  0  0  0
  -25.3770  -31.3715   26.1426 C   0  0  0  0  0  0
  -27.0375  -30.2939   24.6212 C   0  0  0  0  0  0
  -27.6110  -32.4263   25.7483 C   0  0  0  0  0  0
  -27.5576  -37.1793   24.8466 C   0  0  0  0  0  0
  -21.4240  -29.3044   22.3614 N   0  0  0  0  0  0
  -26.4289  -37.3754   23.9401 N   0  0  0  0  0  0
  -24.7077  -31.0414   22.0959 N   0  0  0  0  0  0
  -23.4210  -28.8117   23.3001 O   0  0  0  0  0  0
  -28.2225  -26.1997   20.2202 O   0  0  0  0  0  0
  -26.5614  -34.8902   22.4646 O   0  0  0  0  0  0
  -23.5513  -32.1345   23.7206 O   0  0  0  0  0  0
  -32.0476  -19.1441   19.8733 C   0  0  0  0  0  0
  -31.1717  -20.2352   20.0182 C   0  0  0  0  0  0
  -31.6283  -17.8149   20.0645 C   0  0  0  0  0  0
  -29.8119  -20.0650   20.3673 C   0  0  0  0  0  0
  -30.2958  -17.4854   20.4133 C   0  0  0  0  0  0
  -29.4035  -18.6520   20.5621 C   0  0  0  0  0  0
  -28.1056  -23.5639   20.7693 C   0  0  0  0  0  0
  -29.1795  -22.6737   20.2071 C   0  0  0  0  0  0
  -27.7760  -24.9369   20.7524 C   0  0  0  0  0  0
  -27.1883  -22.6313   21.5234 C   0  0  0  0  0  0
  -27.6924  -21.2058   21.2537 C   0  0  0  0  0  0
  -28.9675  -21.3173   20.5526 N   0  0  0  0  0  0
  -29.9067  -16.0279   20.5923 N   0  0  0  0  0  0
  -30.1197  -23.0776   19.5163 O   0  0  0  0  0  0
  -28.1185  -18.3887   20.8991 F   0  0  0  0  0  0
  -31.4689  -12.6168   19.1862 H   0  0  0  0  0  0
  -30.3725  -11.5451   20.0066 H   0  0  0  0  0  0
  -29.8141  -11.7338   17.5484 H   0  0  0  0  0  0
  -29.6276  -13.4627   17.7166 H   0  0  0  0  0  0
  -27.9219  -11.2793   18.9511 H   0  0  0  0  0  0
  -27.3854  -12.4827   17.8082 H   0  0  0  0  0  0
  -27.6103  -14.2546   19.4320 H   0  0  0  0  0  0
  -28.7358  -12.2633   21.4599 H   0  0  0  0  0  0
  -28.4040  -13.9530   21.7610 H   0  0  0  0  0  0
  -25.2766   -9.5687   22.4753 H   0  0  0  0  0  0
  -23.9999   -7.4645   22.7478 H   0  0  0  0  0  0
  -21.0837   -8.8775   19.8953 H   0  0  0  0  0  0
  -22.3699  -10.9669   19.6155 H   0  0  0  0  0  0
  -21.2016   -7.6149   23.9712 H   0  0  0  0  0  0
  -21.1482   -6.0519   25.9074 H   0  0  0  0  0  0
  -22.0599   -2.7602   23.2851 H   0  0  0  0  0  0
  -22.4066  -11.9877   22.4820 H   0  0  0  0  0  0
  -21.1055  -13.1216   22.2591 H   0  0  0  0  0  0
  -24.6481  -15.8477   20.5340 H   0  0  0  0  0  0
  -26.2658  -15.6439   20.1013 H   0  0  0  0  0  0
  -26.7240  -32.5372   23.1038 H   0  0  0  0  0  0
  -25.0165  -33.9654   25.0433 H   0  0  0  0  0  0
  -22.7376  -31.2962   21.3897 H   0  0  0  0  0  0
  -23.3753  -35.9592   23.3308 H   0  0  0  0  0  0
  -24.3580  -36.8858   22.2042 H   0  0  0  0  0  0
  -23.7246  -37.6469   23.6640 H   0  0  0  0  0  0
  -26.1320  -31.5057   20.6132 H   0  0  0  0  0  0
  -26.8649  -30.8000   22.0196 H   0  0  0  0  0  0
  -28.1239  -28.8533   21.2556 H   0  0  0  0  0  0
  -25.9692  -25.8977   18.9730 H   0  0  0  0  0  0
  -23.9861  -27.3236   18.9647 H   0  0  0  0  0  0
  -23.7883  -30.5846   19.4008 H   0  0  0  0  0  0
  -22.7797  -29.2428   19.8470 H   0  0  0  0  0  0
  -25.1294  -36.1901   25.0816 H   0  0  0  0  0  0
  -21.0000  -28.3300   24.1359 H   0  0  0  0  0  0
  -20.5680  -26.2319   23.3606 H   0  0  0  0  0  0
  -21.6666  -26.7426   22.1203 H   0  0  0  0  0  0
  -19.6942  -25.6291   21.1228 H   0  0  0  0  0  0
  -19.6711  -27.3188   20.6716 H   0  0  0  0  0  0
  -17.4221  -26.6662   21.4014 H   0  0  0  0  0  0
  -18.0358  -26.0066   22.8998 H   0  0  0  0  0  0
  -19.7957  -30.7281   24.2235 H   0  0  0  0  0  0
  -17.5031  -31.6262   24.5153 H   0  0  0  0  0  0
  -15.5369  -30.2971   23.7666 H   0  0  0  0  0  0
  -15.8686  -28.0803   22.7081 H   0  0  0  0  0  0
  -24.5968  -30.7022   25.7785 H   0  0  0  0  0  0
  -24.8941  -32.2886   26.4803 H   0  0  0  0  0  0
  -25.8098  -30.8951   27.0229 H   0  0  0  0  0  0
  -26.2952  -29.6686   24.1233 H   0  0  0  0  0  0
  -27.4031  -29.7203   25.4742 H   0  0  0  0  0  0
  -27.8854  -30.4184   23.9473 H   0  0  0  0  0  0
  -27.2749  -33.3591   26.2026 H   0  0  0  0  0  0
  -28.3960  -32.6756   25.0329 H   0  0  0  0  0  0
  -28.0728  -31.8384   26.5430 H   0  0  0  0  0  0
  -28.2607  -38.0076   24.7486 H   0  0  0  0  0  0
  -28.1059  -36.2607   24.6322 H   0  0  0  0  0  0
  -27.2291  -37.1476   25.8869 H   0  0  0  0  0  0
  -20.9435  -29.8750   21.6796 H   0  0  0  0  0  0
  -26.0170  -38.2831   24.1384 H   0  0  0  0  0  0
  -33.0804  -19.3326   19.6128 H   0  0  0  0  0  0
  -31.5936  -21.2175   19.8747 H   0  0  0  0  0  0
  -32.3852  -17.0616   19.9287 H   0  0  0  0  0  0
  -26.8855  -25.1468   21.3303 H   0  0  0  0  0  0
  -26.1540  -22.7549   21.1987 H   0  0  0  0  0  0
  -27.2358  -22.8585   22.5895 H   0  0  0  0  0  0
  -26.9834  -20.6660   20.6243 H   0  0  0  0  0  0
  -27.8084  -20.6475   22.1832 H   0  0  0  0  0  0
  -28.9316  -15.8920   20.8124 H   0  0  0  0  0  0
  1 25  1  0  0  0
  1 30  2  0  0  0
  1 83  1  0  0  0
  2  3  1  0  0  0
  2 25  1  0  0  0
  2 86  1  0  0  0
  2 87  1  0  0  0
  3  4  1  0  0  0
  3 88  1  0  0  0
  3 89  1  0  0  0
  4  5  1  0  0  0
  4 90  1  0  0  0
  4 91  1  0  0  0
  5  6  1  0  0  0
  5 26  1  0  0  0
  5 92  1  0  0  0
  6 25  1  0  0  0
  6 93  1  0  0  0
  6 94  1  0  0  0
  7  8  2  0  0  0
  7 26  1  0  0  0
  7 29  1  0  0  0
  8  9  1  0  0  0
  8 22  1  0  0  0
  9 10  1  0  0  0
  9 27  2  0  0  0
 10 11  2  0  0  0
 10 15  1  0  0  0
 11 12  1  0  0  0
 11 95  1  0  0  0
 12 13  2  0  0  0
 12 96  1  0  0  0
 13 14  1  0  0  0
 13 31  1  0  0  0
 14 15  2  0  0  0
 14 97  1  0  0  0
 15 98  1  0  0  0
 16 17  2  0  0  0
 16 21  1  0  0  0
 16 31  1  0  0  0
 17 18  1  0  0  0
 17 99  1  0  0  0
 18 19  2  0  0  0
 18100  1  0  0  0
 19 20  1  0  0  0
 19 24  1  0  0  0
 20 21  2  0  0  0
 20101  1  0  0  0
 21 23  1  0  0  0
 22 28  1  0  0  0
 22 32  2  0  0  0
 26 27  1  0  0  0
 28102  1  0  0  0
 28103  1  0  0  0
 29104  1  0  0  0
 29105  1  0  0  0
 33 34  1  0  0  0
 33 66  1  0  0  0
 33 70  2  0  0  0
 34 36  1  0  0  0
 34 59  1  0  0  0
 34106  1  0  0  0
 35 44  2  0  0  0
 35 45  1  0  0  0
 35 68  1  0  0  0
 36 56  1  0  0  0
 36107  1  0  0  0
 37 39  1  0  0  0
 37 47  1  0  0  0
 37 66  1  0  0  0
 37108  1  0  0  0
 38 43  2  0  0  0
 38 46  1  0  0  0
 38 47  1  0  0  0
 39 64  1  0  0  0
 39 67  2  0  0  0
 40 52  1  0  0  0
 40 53  2  0  0  0
 40 58  1  0  0  0
 41109  1  0  0  0
 41110  1  0  0  0
 41111  1  0  0  0
 41 48  1  0  0  0
 42 43  1  0  0  0
 42 66  1  0  0  0
 42112  1  0  0  0
 42113  1  0  0  0
 43 44  1  0  0  0
 44114  1  0  0  0
 45 46  2  0  0  0
 45115  1  0  0  0
 46116  1  0  0  0
 47117  1  0  0  0
 47118  1  0  0  0
 48 56  1  0  0  0
 48 65  1  0  0  0
 48119  1  0  0  0
 49 50  1  0  0  0
 49 53  1  0  0  0
 49 64  1  0  0  0
 49120  1  0  0  0
 50 51  1  0  0  0
 50121  1  0  0  0
 50122  1  0  0  0
 51 52  1  0  0  0
 51123  1  0  0  0
 51124  1  0  0  0
 52125  1  0  0  0
 52126  1  0  0  0
 53 54  1  0  0  0
 54 55  2  0  0  0
 54127  1  0  0  0
 55 57  1  0  0  0
 55128  1  0  0  0
 56 69  2  0  0  0
 57 58  2  0  0  0
 57129  1  0  0  0
 58130  1  0  0  0
 59 60  1  0  0  0
 59 61  1  0  0  0
 59 62  1  0  0  0
 60131  1  0  0  0
 60132  1  0  0  0
 60133  1  0  0  0
 61134  1  0  0  0
 61135  1  0  0  0
 61136  1  0  0  0
 62137  1  0  0  0
 62138  1  0  0  0
 62139  1  0  0  0
 63 65  1  0  0  0
 63140  1  0  0  0
 63141  1  0  0  0
 63142  1  0  0  0
 64143  1  0  0  0
 65144  1  0  0  0
 68 79  1  0  0  0
 71 72  2  0  0  0
 71 73  1  0  0  0
 71145  1  0  0  0
 72 74  1  0  0  0
 72146  1  0  0  0
 73 75  2  0  0  0
 73147  1  0  0  0
 74 76  2  0  0  0
 74 82  1  0  0  0
 75 76  1  0  0  0
 75 83  1  0  0  0
 76 85  1  0  0  0
 77 78  1  0  0  0
 77 79  2  0  0  0
 77 80  1  0  0  0
 78 82  1  0  0  0
 78 84  2  0  0  0
 79148  1  0  0  0
 80 81  1  0  0  0
 80149  1  0  0  0
 80150  1  0  0  0
 81 82  1  0  0  0
 81151  1  0  0  0
 81152  1  0  0  0
 83153  1  0  0  0
M  ISO  4   1 100  68 101  79 101  83 100
M  END
> <chiral flag>
0

> <version>
0

> <s_m_source_file>
/data/baiqing/PycharmProjects/Reinvent-master-3.2/result/LINK_invent/BTK/process_docking_weight1_custom_product_contain_oxygen_bond_distance_aromatic_linkinvent_7_9_3/rearranged_h_0090.sdf

> <i_m_source_file_index>
14

> <r_mmod_Potential_Energy-OPLS-2005>
413.037658691406

> <r_mmod_Stretch_Energy-OPLS-2005>
173.132263183594

> <r_mmod_Bend_Energy-OPLS-2005>
268.947967529297

> <r_mmod_Torsional_Energy-OPLS-2005>
258.597137451172

> <r_mmod_Improper_Torsional_Energy-OPLS-2005>
4.46314859390259

> <r_mmod_Van_der_Waal_Energy-OPLS-2005>
147.602508544922

> <r_mmod_Electrostatic_Energy-OPLS-2005>
-365.751892089844

> <r_mmod_Solvation_Energy-OPLS-2005>
-207.254547119141

> <b_mmod_Minimization_Converged-OPLS-2005>
0

> <r_mmod_RMS_Derivative-OPLS-2005>
1.27008092403412

$$$$
14
                    3D
 Structure written by MMmdl.
150158  0  0  1  0            999 V2000
  -30.5884  -14.7350   20.4648 C   0  0  0  0  0  0
  -30.4443  -12.4474   19.4663 C   0  0  0  0  0  0
  -29.5136  -12.5111   18.2336 C   0  0  0  0  0  0
  -28.0386  -12.3345   18.6474 C   0  0  0  0  0  0
  -27.6471  -13.2255   19.8561 C   0  0  2  0  0  0
  -28.6939  -13.1294   20.9887 C   0  0  0  0  0  0
  -25.2533  -13.8180   20.5701 C   0  0  0  0  0  0
  -24.1812  -13.0428   20.9188 C   0  0  0  0  0  0
  -24.6398  -11.6907   20.8734 C   0  0  0  0  0  0
  -23.9071  -10.4288   21.0401 C   0  0  0  0  0  0
  -24.3620   -9.4205   21.9181 C   0  0  0  0  0  0
  -23.6292   -8.2242   22.0754 C   0  0  0  0  0  0
  -22.4273   -8.0281   21.3545 C   0  0  0  0  0  0
  -21.9910   -9.0255   20.4647 C   0  0  0  0  0  0
  -22.7241  -10.2131   20.3053 C   0  0  0  0  0  0
  -21.6854   -6.0735   22.5280 C   0  0  0  0  0  0
  -21.4016   -6.5640   23.8213 C   0  0  0  0  0  0
  -21.3659   -5.6792   24.9175 C   0  0  0  0  0  0
  -21.6044   -4.3055   24.7226 C   0  0  0  0  0  0
  -21.8819   -3.8147   23.4347 C   0  0  0  0  0  0
  -21.9193   -4.6964   22.3403 C   0  0  0  0  0  0
  -22.7834  -13.5217   21.1857 C   0  0  0  0  0  0
  -22.1661   -4.2149   21.0980 F   0  0  0  0  0  0
  -21.5628   -3.4539   25.7738 F   0  0  0  0  0  0
  -29.9990  -13.4914   20.4153 N   0  0  0  0  0  0
  -26.2967  -12.9380   20.3304 N   0  0  0  0  0  0
  -25.9330  -11.6525   20.5750 N   0  0  0  0  0  0
  -22.0484  -12.8208   22.0418 N   0  0  0  0  0  0
  -25.4179  -15.1911   20.4180 N   0  0  0  0  0  0
  -31.7696  -14.8793   20.1354 O   0  0  0  0  0  0
  -21.6637   -6.8879   21.4242 O   0  0  0  0  0  0
  -22.3511  -14.5522   20.6709 O   0  0  0  0  0  0
  -24.6322  -31.8549   23.1983 C   0  0  0  0  0  0
  -25.9146  -32.4752   23.8329 C   0  0  1  0  0  0
  -27.2255  -27.2603   20.1097 C   0  0  0  0  0  0
  -25.5938  -33.8555   24.2250 N   0  0  0  0  0  0
  -23.4287  -30.4788   21.5421 C   0  0  2  0  0  0
  -24.8749  -28.9283   20.1083 C   0  0  0  0  0  0
  -22.7506  -29.4603   22.4907 C   0  0  0  0  0  0
  -18.0294  -28.1387   22.8484 C   0  0  0  0  0  0
  -24.1490  -36.7282   23.2639 C   0  0  0  0  0  0
  -25.9762  -30.7660   21.3795 C   0  0  0  0  0  0
  -26.0474  -29.3897   20.7176 C   0  0  0  0  0  0
  -27.2200  -28.5665   20.7116 C   0  0  0  0  0  0
  -26.0161  -26.8624   19.4909 C   0  0  0  0  0  0
  -24.8646  -27.6719   19.4881 C   0  0  0  0  0  0
  -23.6463  -29.8154   20.1575 C   0  0  0  0  0  0
  -25.4117  -36.3067   24.0324 C   0  0  1  0  0  0
  -20.5899  -28.3700   23.1264 C   0  0  2  0  0  0
  -20.6781  -26.9417   22.5404 C   0  0  0  0  0  0
  -19.5754  -26.6383   21.5210 C   0  0  0  0  0  0
  -18.1936  -26.7928   22.1626 C   0  0  0  0  0  0
  -19.1548  -28.8861   23.2869 C   0  0  0  0  0  0
  -18.9468  -30.1460   23.8889 C   0  0  0  0  0  0
  -17.6467  -30.6588   24.0561 C   0  0  0  0  0  0
  -25.9060  -34.9438   23.5090 C   0  0  0  0  0  0
  -16.5358  -29.9084   23.6331 C   0  0  0  0  0  0
  -16.7280  -28.6502   23.0353 C   0  0  0  0  0  0
  -26.4507  -31.6582   25.0725 C   0  0  0  0  0  0
  -25.3722  -31.3738   26.1440 C   0  0  0  0  0  0
  -27.0359  -30.2996   24.6226 C   0  0  0  0  0  0
  -27.6053  -32.4331   25.7503 C   0  0  0  0  0  0
  -27.5580  -37.1794   24.8463 C   0  0  0  0  0  0
  -21.4213  -29.3047   22.3651 N   0  0  0  0  0  0
  -26.4289  -37.3769   23.9411 N   0  0  0  0  0  0
  -24.6982  -31.0511   22.0961 N   0  0  0  0  0  0
  -23.4204  -28.8140   23.3006 O   0  0  0  0  0  0
  -28.3357  -26.3807   20.1943 O   0  0  0  0  0  0
  -26.5634  -34.8916   22.4660 O   0  0  0  0  0  0
  -23.5470  -32.1376   23.7275 O   0  0  0  0  0  0
  -30.9802  -19.4732   20.2520 C   0  0  0  0  0  0
  -31.0062  -18.0642   20.5289 C   0  0  0  0  0  0
  -28.6184  -19.4133   19.9371 C   0  0  0  0  0  0
  -29.8006  -20.2056   19.8856 C   0  0  0  0  0  0
  -29.8309  -17.2685   20.4812 C   0  0  0  0  0  0
  -28.6358  -18.0048   20.2242 C   0  0  0  0  0  0
  -29.9144  -21.5209   19.0639 C   0  0  0  0  0  0
  -28.8287  -23.7016   20.0480 C   0  0  0  0  0  0
  -28.4540  -25.1217   19.3810 C   0  0  0  0  0  0
  -29.7465  -15.8048   20.7059 N   0  0  0  0  0  0
  -29.3462  -22.7882   19.1589 N   0  0  0  0  0  0
  -28.6573  -23.4840   21.2526 O   0  0  0  0  0  0
  -27.4673  -17.3195   20.1886 F   0  0  0  0  0  0
  -30.8316  -21.3706   17.6759 S   0  0  0  0  0  0
  -31.4829  -12.5870   19.1616 H   0  0  0  0  0  0
  -30.3991  -11.4632   19.9352 H   0  0  0  0  0  0
  -29.7926  -11.7443   17.5097 H   0  0  0  0  0  0
  -29.6398  -13.4693   17.7271 H   0  0  0  0  0  0
  -27.8933  -11.2843   18.9026 H   0  0  0  0  0  0
  -27.3809  -12.5346   17.8006 H   0  0  0  0  0  0
  -27.6463  -14.2513   19.4872 H   0  0  0  0  0  0
  -28.7266  -12.1194   21.4000 H   0  0  0  0  0  0
  -28.4291  -13.7840   21.8206 H   0  0  0  0  0  0
  -25.2765   -9.5680   22.4755 H   0  0  0  0  0  0
  -24.0002   -7.4633   22.7472 H   0  0  0  0  0  0
  -21.0841   -8.8774   19.8953 H   0  0  0  0  0  0
  -22.3701  -10.9670   19.6161 H   0  0  0  0  0  0
  -21.2008   -7.6148   23.9717 H   0  0  0  0  0  0
  -21.1481   -6.0522   25.9078 H   0  0  0  0  0  0
  -22.0598   -2.7609   23.2848 H   0  0  0  0  0  0
  -22.4108  -11.9874   22.4807 H   0  0  0  0  0  0
  -21.1103  -13.1233   22.2631 H   0  0  0  0  0  0
  -24.6469  -15.8350   20.5518 H   0  0  0  0  0  0
  -26.2711  -15.6654   20.1434 H   0  0  0  0  0  0
  -26.7211  -32.5396   23.1068 H   0  0  0  0  0  0
  -25.0077  -33.9690   25.0390 H   0  0  0  0  0  0
  -22.7254  -31.3015   21.3972 H   0  0  0  0  0  0
  -23.3755  -35.9610   23.3293 H   0  0  0  0  0  0
  -24.3581  -36.8915   22.2055 H   0  0  0  0  0  0
  -23.7240  -37.6477   23.6671 H   0  0  0  0  0  0
  -26.1188  -31.5286   20.6126 H   0  0  0  0  0  0
  -26.8522  -30.8111   22.0150 H   0  0  0  0  0  0
  -28.1165  -28.9161   21.2043 H   0  0  0  0  0  0
  -25.8903  -25.8950   19.0358 H   0  0  0  0  0  0
  -23.9614  -27.3061   19.0192 H   0  0  0  0  0  0
  -23.7715  -30.5931   19.4032 H   0  0  0  0  0  0
  -22.7641  -29.2503   19.8512 H   0  0  0  0  0  0
  -25.1299  -36.1910   25.0816 H   0  0  0  0  0  0
  -20.9993  -28.3280   24.1383 H   0  0  0  0  0  0
  -20.5681  -26.2311   23.3611 H   0  0  0  0  0  0
  -21.6648  -26.7438   22.1197 H   0  0  0  0  0  0
  -19.6915  -25.6291   21.1245 H   0  0  0  0  0  0
  -19.6687  -27.3188   20.6736 H   0  0  0  0  0  0
  -17.4202  -26.6669   21.4033 H   0  0  0  0  0  0
  -18.0342  -26.0074   22.9028 H   0  0  0  0  0  0
  -19.7944  -30.7278   24.2255 H   0  0  0  0  0  0
  -17.5021  -31.6267   24.5164 H   0  0  0  0  0  0
  -15.5358  -30.2983   23.7659 H   0  0  0  0  0  0
  -15.8681  -28.0817   22.7073 H   0  0  0  0  0  0
  -24.5903  -30.7082   25.7767 H   0  0  0  0  0  0
  -24.8908  -32.2910   26.4843 H   0  0  0  0  0  0
  -25.8033  -30.8931   27.0231 H   0  0  0  0  0  0
  -26.2951  -29.6737   24.1237 H   0  0  0  0  0  0
  -27.4019  -29.7267   25.4757 H   0  0  0  0  0  0
  -27.8838  -30.4264   23.9491 H   0  0  0  0  0  0
  -27.2653  -33.3636   26.2061 H   0  0  0  0  0  0
  -28.3874  -32.6885   25.0340 H   0  0  0  0  0  0
  -28.0711  -31.8471   26.5436 H   0  0  0  0  0  0
  -28.2585  -38.0104   24.7526 H   0  0  0  0  0  0
  -28.1090  -36.2635   24.6269 H   0  0  0  0  0  0
  -27.2301  -37.1416   25.8866 H   0  0  0  0  0  0
  -20.9399  -29.8774   21.6860 H   0  0  0  0  0  0
  -26.0165  -38.2840   24.1421 H   0  0  0  0  0  0
  -31.9324  -19.9840   20.2098 H   0  0  0  0  0  0
  -31.9560  -17.5938   20.7398 H   0  0  0  0  0  0
  -27.6817  -19.8586   19.6366 H   0  0  0  0  0  0
  -27.6133  -24.9378   18.7212 H   0  0  0  0  0  0
  -29.2674  -25.3401   18.6884 H   0  0  0  0  0  0
  -28.8056  -15.5001   20.9025 H   0  0  0  0  0  0
  -29.4736  -23.2582   18.2775 H   0  0  0  0  0  0
  1 25  1  0  0  0
  1 30  2  0  0  0
  1 80  1  0  0  0
  2  3  1  0  0  0
  2 25  1  0  0  0
  2 85  1  0  0  0
  2 86  1  0  0  0
  3  4  1  0  0  0
  3 87  1  0  0  0
  3 88  1  0  0  0
  4  5  1  0  0  0
  4 89  1  0  0  0
  4 90  1  0  0  0
  5  6  1  0  0  0
  5 26  1  0  0  0
  5 91  1  0  0  0
  6 25  1  0  0  0
  6 92  1  0  0  0
  6 93  1  0  0  0
  7  8  2  0  0  0
  7 26  1  0  0  0
  7 29  1  0  0  0
  8  9  1  0  0  0
  8 22  1  0  0  0
  9 10  1  0  0  0
  9 27  2  0  0  0
 10 11  2  0  0  0
 10 15  1  0  0  0
 11 12  1  0  0  0
 11 94  1  0  0  0
 12 13  2  0  0  0
 12 95  1  0  0  0
 13 14  1  0  0  0
 13 31  1  0  0  0
 14 15  2  0  0  0
 14 96  1  0  0  0
 15 97  1  0  0  0
 16 17  2  0  0  0
 16 21  1  0  0  0
 16 31  1  0  0  0
 17 18  1  0  0  0
 17 98  1  0  0  0
 18 19  2  0  0  0
 18 99  1  0  0  0
 19 20  1  0  0  0
 19 24  1  0  0  0
 20 21  2  0  0  0
 20100  1  0  0  0
 21 23  1  0  0  0
 22 28  1  0  0  0
 22 32  2  0  0  0
 26 27  1  0  0  0
 28101  1  0  0  0
 28102  1  0  0  0
 29103  1  0  0  0
 29104  1  0  0  0
 33 34  1  0  0  0
 33 66  1  0  0  0
 33 70  2  0  0  0
 34 36  1  0  0  0
 34 59  1  0  0  0
 34105  1  0  0  0
 35 44  2  0  0  0
 35 45  1  0  0  0
 35 68  1  0  0  0
 36 56  1  0  0  0
 36106  1  0  0  0
 37 39  1  0  0  0
 37 47  1  0  0  0
 37 66  1  0  0  0
 37107  1  0  0  0
 38 43  2  0  0  0
 38 46  1  0  0  0
 38 47  1  0  0  0
 39 64  1  0  0  0
 39 67  2  0  0  0
 40 52  1  0  0  0
 40 53  2  0  0  0
 40 58  1  0  0  0
 41108  1  0  0  0
 41109  1  0  0  0
 41110  1  0  0  0
 41 48  1  0  0  0
 42 43  1  0  0  0
 42 66  1  0  0  0
 42111  1  0  0  0
 42112  1  0  0  0
 43 44  1  0  0  0
 44113  1  0  0  0
 45 46  2  0  0  0
 45114  1  0  0  0
 46115  1  0  0  0
 47116  1  0  0  0
 47117  1  0  0  0
 48 56  1  0  0  0
 48 65  1  0  0  0
 48118  1  0  0  0
 49 50  1  0  0  0
 49 53  1  0  0  0
 49 64  1  0  0  0
 49119  1  0  0  0
 50 51  1  0  0  0
 50120  1  0  0  0
 50121  1  0  0  0
 51 52  1  0  0  0
 51122  1  0  0  0
 51123  1  0  0  0
 52124  1  0  0  0
 52125  1  0  0  0
 53 54  1  0  0  0
 54 55  2  0  0  0
 54126  1  0  0  0
 55 57  1  0  0  0
 55127  1  0  0  0
 56 69  2  0  0  0
 57 58  2  0  0  0
 57128  1  0  0  0
 58129  1  0  0  0
 59 60  1  0  0  0
 59 61  1  0  0  0
 59 62  1  0  0  0
 60130  1  0  0  0
 60131  1  0  0  0
 60132  1  0  0  0
 61133  1  0  0  0
 61134  1  0  0  0
 61135  1  0  0  0
 62136  1  0  0  0
 62137  1  0  0  0
 62138  1  0  0  0
 63 65  1  0  0  0
 63139  1  0  0  0
 63140  1  0  0  0
 63141  1  0  0  0
 64142  1  0  0  0
 65143  1  0  0  0
 68 79  1  0  0  0
 71 72  2  0  0  0
 71 74  1  0  0  0
 71144  1  0  0  0
 72 75  1  0  0  0
 72145  1  0  0  0
 73 74  2  0  0  0
 73 76  1  0  0  0
 73146  1  0  0  0
 74 77  1  0  0  0
 75 76  2  0  0  0
 75 80  1  0  0  0
 76 83  1  0  0  0
 77 81  1  0  0  0
 77 84  2  0  0  0
 78 79  1  0  0  0
 78 81  1  0  0  0
 78 82  2  0  0  0
 79147  1  0  0  0
 79148  1  0  0  0
 80149  1  0  0  0
 81150  1  0  0  0
M  ISO  4   1 100  68 101  79 101  80 100
M  END
> <chiral flag>
0

> <version>
0

> <s_m_source_file>
/data/baiqing/PycharmProjects/Reinvent-master-3.2/result/LINK_invent/BTK/process_docking_weight1_custom_product_contain_oxygen_bond_distance_aromatic_linkinvent_7_9_3/rearranged_h_0090.sdf

> <i_m_source_file_index>
15

> <r_mmod_Potential_Energy-OPLS-2005>
139.161880493164

> <r_mmod_Stretch_Energy-OPLS-2005>
112.065010070801

> <r_mmod_Bend_Energy-OPLS-2005>
279.107543945312

> <r_mmod_Torsional_Energy-OPLS-2005>
261.065002441406

> <r_mmod_Improper_Torsional_Energy-OPLS-2005>
11.1536712646484

> <r_mmod_Van_der_Waal_Energy-OPLS-2005>
140.285232543945

> <r_mmod_Electrostatic_Energy-OPLS-2005>
-497.194152832031

> <r_mmod_Solvation_Energy-OPLS-2005>
-249.666061401367

> <b_mmod_Minimization_Converged-OPLS-2005>
0

> <r_mmod_RMS_Derivative-OPLS-2005>
0.19466544687748

$$$$
15
                    3D
 Structure written by MMmdl.
157166  0  0  1  0            999 V2000
  -30.6339  -14.6550   20.5675 C   0  0  0  0  0  0
  -30.4484  -12.4236   19.4534 C   0  0  0  0  0  0
  -29.5113  -12.5350   18.2261 C   0  0  0  0  0  0
  -28.0295  -12.3717   18.6259 C   0  0  0  0  0  0
  -27.6569  -13.2148   19.8735 C   0  0  2  0  0  0
  -28.7004  -12.9906   20.9859 C   0  0  0  0  0  0
  -25.2552  -13.8165   20.5691 C   0  0  0  0  0  0
  -24.1817  -13.0430   20.9169 C   0  0  0  0  0  0
  -24.6396  -11.6899   20.8737 C   0  0  0  0  0  0
  -23.9077  -10.4285   21.0407 C   0  0  0  0  0  0
  -24.3625   -9.4199   21.9192 C   0  0  0  0  0  0
  -23.6292   -8.2240   22.0758 C   0  0  0  0  0  0
  -22.4278   -8.0275   21.3538 C   0  0  0  0  0  0
  -21.9917   -9.0247   20.4642 C   0  0  0  0  0  0
  -22.7254  -10.2121   20.3055 C   0  0  0  0  0  0
  -21.6844   -6.0738   22.5281 C   0  0  0  0  0  0
  -21.4006   -6.5641   23.8215 C   0  0  0  0  0  0
  -21.3653   -5.6793   24.9178 C   0  0  0  0  0  0
  -21.6042   -4.3057   24.7232 C   0  0  0  0  0  0
  -21.8818   -3.8150   23.4351 C   0  0  0  0  0  0
  -21.9188   -4.6964   22.3408 C   0  0  0  0  0  0
  -22.7834  -13.5210   21.1851 C   0  0  0  0  0  0
  -22.1660   -4.2160   21.0982 F   0  0  0  0  0  0
  -21.5631   -3.4536   25.7740 F   0  0  0  0  0  0
  -30.0147  -13.4192   20.4646 N   0  0  0  0  0  0
  -26.3000  -12.9356   20.3356 N   0  0  0  0  0  0
  -25.9317  -11.6508   20.5743 N   0  0  0  0  0  0
  -22.0482  -12.8198   22.0414 N   0  0  0  0  0  0
  -25.4234  -15.1897   20.4128 N   0  0  0  0  0  0
  -31.7415  -14.8402   20.0479 O   0  0  0  0  0  0
  -21.6632   -6.8879   21.4243 O   0  0  0  0  0  0
  -22.3515  -14.5523   20.6712 O   0  0  0  0  0  0
  -24.6264  -31.8600   23.2014 C   0  0  0  0  0  0
  -25.9104  -32.4780   23.8357 C   0  0  1  0  0  0
  -27.2397  -27.3223   20.1130 C   0  0  0  0  0  0
  -25.5918  -33.8583   24.2274 N   0  0  0  0  0  0
  -23.4207  -30.4819   21.5435 C   0  0  2  0  0  0
  -24.8722  -28.9373   20.1114 C   0  0  0  0  0  0
  -22.7487  -29.4615   22.4927 C   0  0  0  0  0  0
  -18.0278  -28.1393   22.8471 C   0  0  0  0  0  0
  -24.1474  -36.7285   23.2637 C   0  0  0  0  0  0
  -25.9623  -30.7914   21.3728 C   0  0  0  0  0  0
  -26.0407  -29.4191   20.7142 C   0  0  0  0  0  0
  -27.2261  -28.6246   20.7032 C   0  0  0  0  0  0
  -26.0418  -26.8916   19.4926 C   0  0  0  0  0  0
  -24.8745  -27.6781   19.4934 C   0  0  0  0  0  0
  -23.6381  -29.8143   20.1599 C   0  0  0  0  0  0
  -25.4101  -36.3082   24.0331 C   0  0  1  0  0  0
  -20.5877  -28.3695   23.1272 C   0  0  2  0  0  0
  -20.6761  -26.9417   22.5410 C   0  0  0  0  0  0
  -19.5748  -26.6385   21.5200 C   0  0  0  0  0  0
  -18.1915  -26.7931   22.1607 C   0  0  0  0  0  0
  -19.1535  -28.8859   23.2859 C   0  0  0  0  0  0
  -18.9472  -30.1445   23.8895 C   0  0  0  0  0  0
  -17.6480  -30.6592   24.0564 C   0  0  0  0  0  0
  -25.9049  -34.9453   23.5102 C   0  0  0  0  0  0
  -16.5366  -29.9100   23.6335 C   0  0  0  0  0  0
  -16.7273  -28.6513   23.0356 C   0  0  0  0  0  0
  -26.4492  -31.6605   25.0737 C   0  0  0  0  0  0
  -25.3712  -31.3760   26.1459 C   0  0  0  0  0  0
  -27.0335  -30.3028   24.6197 C   0  0  0  0  0  0
  -27.6050  -32.4345   25.7505 C   0  0  0  0  0  0
  -27.5582  -37.1772   24.8448 C   0  0  0  0  0  0
  -21.4198  -29.3045   22.3677 N   0  0  0  0  0  0
  -26.4268  -37.3794   23.9441 N   0  0  0  0  0  0
  -24.6883  -31.0603   22.0960 N   0  0  0  0  0  0
  -23.4202  -28.8142   23.3005 O   0  0  0  0  0  0
  -28.3695  -26.4839   20.1623 O   0  0  0  0  0  0
  -26.5623  -34.8921   22.4671 O   0  0  0  0  0  0
  -23.5425  -32.1399   23.7337 O   0  0  0  0  0  0
  -31.2838  -18.0486   21.0783 C   0  0  0  0  0  0
  -31.3523  -19.4661   20.9317 C   0  0  0  0  0  0
  -29.0437  -19.5404   20.3283 C   0  0  0  0  0  0
  -30.0824  -17.3229   20.8832 C   0  0  0  0  0  0
  -30.2291  -20.2841   20.5790 C   0  0  0  0  0  0
  -28.9697  -18.1184   20.4739 C   0  0  0  0  0  0
  -29.2396  -22.6683   20.2522 C   0  0  0  0  0  0
  -29.3424  -24.0411   20.2889 C   0  0  0  0  0  0
  -31.8561  -23.7818   20.5366 C   0  0  0  0  0  0
  -29.9109  -15.8540   21.3167 C   0  0  0  0  0  0
  -30.6495  -24.7147   20.6762 C   0  0  0  0  0  0
  -31.6543  -22.2648   20.7119 C   0  0  0  0  0  0
  -28.1655  -25.0275   19.9732 C   0  0  0  0  0  0
  -29.1854  -15.6667   22.3399 N   0  0  0  0  0  0
  -30.2922  -21.7361   20.4936 N   0  0  0  0  0  0
  -32.9847  -24.2455   20.3486 O   0  0  0  0  0  0
  -27.7719  -17.5201   20.2581 F   0  0  0  0  0  0
  -31.4847  -12.5647   19.1436 H   0  0  0  0  0  0
  -30.4109  -11.4162   19.8708 H   0  0  0  0  0  0
  -29.7765  -11.7828   17.4815 H   0  0  0  0  0  0
  -29.6533  -13.5029   17.7442 H   0  0  0  0  0  0
  -27.8559  -11.3148   18.8314 H   0  0  0  0  0  0
  -27.3823  -12.6265   17.7859 H   0  0  0  0  0  0
  -27.6950  -14.2645   19.5809 H   0  0  0  0  0  0
  -28.7331  -11.9297   21.2398 H   0  0  0  0  0  0
  -28.3978  -13.4530   21.9185 H   0  0  0  0  0  0
  -25.2767   -9.5684   22.4778 H   0  0  0  0  0  0
  -23.9995   -7.4637   22.7479 H   0  0  0  0  0  0
  -21.0853   -8.8765   19.8949 H   0  0  0  0  0  0
  -22.3714  -10.9658   19.6167 H   0  0  0  0  0  0
  -21.2000   -7.6147   23.9725 H   0  0  0  0  0  0
  -21.1475   -6.0524   25.9083 H   0  0  0  0  0  0
  -22.0607   -2.7618   23.2849 H   0  0  0  0  0  0
  -22.4073  -11.9840   22.4788 H   0  0  0  0  0  0
  -21.1107  -13.1235   22.2630 H   0  0  0  0  0  0
  -24.6614  -15.8462   20.5390 H   0  0  0  0  0  0
  -26.2990  -15.6456   20.1849 H   0  0  0  0  0  0
  -26.7175  -32.5467   23.1114 H   0  0  0  0  0  0
  -25.0051  -33.9738   25.0405 H   0  0  0  0  0  0
  -22.7130  -31.3005   21.3951 H   0  0  0  0  0  0
  -23.3765  -35.9586   23.3266 H   0  0  0  0  0  0
  -24.3569  -36.8954   22.2059 H   0  0  0  0  0  0
  -23.7190  -37.6455   23.6697 H   0  0  0  0  0  0
  -26.0898  -31.5539   20.6030 H   0  0  0  0  0  0
  -26.8437  -30.8447   22.0011 H   0  0  0  0  0  0
  -28.1225  -28.9905   21.1838 H   0  0  0  0  0  0
  -25.9727  -25.9284   19.0108 H   0  0  0  0  0  0
  -23.9776  -27.3015   19.0216 H   0  0  0  0  0  0
  -23.7555  -30.5889   19.4010 H   0  0  0  0  0  0
  -22.7607  -29.2392   19.8585 H   0  0  0  0  0  0
  -25.1266  -36.1925   25.0823 H   0  0  0  0  0  0
  -20.9947  -28.3274   24.1406 H   0  0  0  0  0  0
  -20.5638  -26.2315   23.3618 H   0  0  0  0  0  0
  -21.6632  -26.7426   22.1229 H   0  0  0  0  0  0
  -19.6917  -25.6291   21.1239 H   0  0  0  0  0  0
  -19.6699  -27.3186   20.6724 H   0  0  0  0  0  0
  -17.4190  -26.6690   21.4000 H   0  0  0  0  0  0
  -18.0307  -26.0062   22.8994 H   0  0  0  0  0  0
  -19.7955  -30.7236   24.2295 H   0  0  0  0  0  0
  -17.5051  -31.6282   24.5159 H   0  0  0  0  0  0
  -15.5371  -30.3018   23.7664 H   0  0  0  0  0  0
  -15.8659  -28.0839   22.7096 H   0  0  0  0  0  0
  -24.5900  -30.7092   25.7802 H   0  0  0  0  0  0
  -24.8876  -32.2927   26.4848 H   0  0  0  0  0  0
  -25.8012  -30.8981   27.0266 H   0  0  0  0  0  0
  -26.2918  -29.6779   24.1213 H   0  0  0  0  0  0
  -27.4028  -29.7296   25.4709 H   0  0  0  0  0  0
  -27.8785  -30.4325   23.9428 H   0  0  0  0  0  0
  -27.2689  -33.3691   26.2017 H   0  0  0  0  0  0
  -28.3897  -32.6837   25.0346 H   0  0  0  0  0  0
  -28.0675  -31.8504   26.5477 H   0  0  0  0  0  0
  -28.2528  -38.0132   24.7593 H   0  0  0  0  0  0
  -28.1138  -36.2673   24.6136 H   0  0  0  0  0  0
  -27.2321  -37.1257   25.8846 H   0  0  0  0  0  0
  -20.9390  -29.8808   21.6910 H   0  0  0  0  0  0
  -26.0141  -38.2849   24.1530 H   0  0  0  0  0  0
  -32.1675  -17.5222   21.4115 H   0  0  0  0  0  0
  -32.3175  -19.9013   21.1431 H   0  0  0  0  0  0
  -28.1414  -20.0575   20.0427 H   0  0  0  0  0  0
  -28.2975  -22.2134   19.9800 H   0  0  0  0  0  0
  -30.5853  -25.0982   21.6936 H   0  0  0  0  0  0
  -30.8100  -25.5655   20.0137 H   0  0  0  0  0  0
  -31.9959  -22.0076   21.7147 H   0  0  0  0  0  0
  -32.3323  -21.7873   20.0028 H   0  0  0  0  0  0
  -27.3176  -24.7041   20.5796 H   0  0  0  0  0  0
  -27.8976  -24.8511   18.9309 H   0  0  0  0  0  0
  -28.8084  -16.5383   22.6914 H   0  0  0  0  0  0
  1 25  1  0  0  0
  1 30  2  0  0  0
  1 80  1  0  0  0
  2  3  1  0  0  0
  2 25  1  0  0  0
  2 88  1  0  0  0
  2 89  1  0  0  0
  3  4  1  0  0  0
  3 90  1  0  0  0
  3 91  1  0  0  0
  4  5  1  0  0  0
  4 92  1  0  0  0
  4 93  1  0  0  0
  5  6  1  0  0  0
  5 26  1  0  0  0
  5 94  1  0  0  0
  6 25  1  0  0  0
  6 95  1  0  0  0
  6 96  1  0  0  0
  7  8  2  0  0  0
  7 26  1  0  0  0
  7 29  1  0  0  0
  8  9  1  0  0  0
  8 22  1  0  0  0
  9 10  1  0  0  0
  9 27  2  0  0  0
 10 11  2  0  0  0
 10 15  1  0  0  0
 11 12  1  0  0  0
 11 97  1  0  0  0
 12 13  2  0  0  0
 12 98  1  0  0  0
 13 14  1  0  0  0
 13 31  1  0  0  0
 14 15  2  0  0  0
 14 99  1  0  0  0
 15100  1  0  0  0
 16 17  2  0  0  0
 16 21  1  0  0  0
 16 31  1  0  0  0
 17 18  1  0  0  0
 17101  1  0  0  0
 18 19  2  0  0  0
 18102  1  0  0  0
 19 20  1  0  0  0
 19 24  1  0  0  0
 20 21  2  0  0  0
 20103  1  0  0  0
 21 23  1  0  0  0
 22 28  1  0  0  0
 22 32  2  0  0  0
 26 27  1  0  0  0
 28104  1  0  0  0
 28105  1  0  0  0
 29106  1  0  0  0
 29107  1  0  0  0
 33 34  1  0  0  0
 33 66  1  0  0  0
 33 70  2  0  0  0
 34 36  1  0  0  0
 34 59  1  0  0  0
 34108  1  0  0  0
 35 44  2  0  0  0
 35 45  1  0  0  0
 35 68  1  0  0  0
 36 56  1  0  0  0
 36109  1  0  0  0
 37 39  1  0  0  0
 37 47  1  0  0  0
 37 66  1  0  0  0
 37110  1  0  0  0
 38 43  2  0  0  0
 38 46  1  0  0  0
 38 47  1  0  0  0
 39 64  1  0  0  0
 39 67  2  0  0  0
 40 52  1  0  0  0
 40 53  2  0  0  0
 40 58  1  0  0  0
 41111  1  0  0  0
 41112  1  0  0  0
 41113  1  0  0  0
 41 48  1  0  0  0
 42 43  1  0  0  0
 42 66  1  0  0  0
 42114  1  0  0  0
 42115  1  0  0  0
 43 44  1  0  0  0
 44116  1  0  0  0
 45 46  2  0  0  0
 45117  1  0  0  0
 46118  1  0  0  0
 47119  1  0  0  0
 47120  1  0  0  0
 48 56  1  0  0  0
 48 65  1  0  0  0
 48121  1  0  0  0
 49 50  1  0  0  0
 49 53  1  0  0  0
 49 64  1  0  0  0
 49122  1  0  0  0
 50 51  1  0  0  0
 50123  1  0  0  0
 50124  1  0  0  0
 51 52  1  0  0  0
 51125  1  0  0  0
 51126  1  0  0  0
 52127  1  0  0  0
 52128  1  0  0  0
 53 54  1  0  0  0
 54 55  2  0  0  0
 54129  1  0  0  0
 55 57  1  0  0  0
 55130  1  0  0  0
 56 69  2  0  0  0
 57 58  2  0  0  0
 57131  1  0  0  0
 58132  1  0  0  0
 59 60  1  0  0  0
 59 61  1  0  0  0
 59 62  1  0  0  0
 60133  1  0  0  0
 60134  1  0  0  0
 60135  1  0  0  0
 61136  1  0  0  0
 61137  1  0  0  0
 61138  1  0  0  0
 62139  1  0  0  0
 62140  1  0  0  0
 62141  1  0  0  0
 63 65  1  0  0  0
 63142  1  0  0  0
 63143  1  0  0  0
 63144  1  0  0  0
 64145  1  0  0  0
 65146  1  0  0  0
 68 83  1  0  0  0
 71 72  2  0  0  0
 71 74  1  0  0  0
 71147  1  0  0  0
 72 75  1  0  0  0
 72148  1  0  0  0
 73 75  2  0  0  0
 73 76  1  0  0  0
 73149  1  0  0  0
 74 76  2  0  0  0
 74 80  1  0  0  0
 75 85  1  0  0  0
 76 87  1  0  0  0
 77 78  2  0  0  0
 77 85  1  0  0  0
 77150  1  0  0  0
 78 81  1  0  0  0
 78 83  1  0  0  0
 79 81  1  0  0  0
 79 82  1  0  0  0
 79 86  2  0  0  0
 80 84  2  0  0  0
 81151  1  0  0  0
 81152  1  0  0  0
 82 85  1  0  0  0
 82153  1  0  0  0
 82154  1  0  0  0
 83155  1  0  0  0
 83156  1  0  0  0
 84157  1  0  0  0
M  ISO  4   1 100  68 101  80 100  83 101
M  END
> <chiral flag>
0

> <version>
0

> <s_m_source_file>
/data/baiqing/PycharmProjects/Reinvent-master-3.2/result/LINK_invent/BTK/process_docking_weight1_custom_product_contain_oxygen_bond_distance_aromatic_linkinvent_7_9_3/rearranged_h_0090.sdf

> <i_m_source_file_index>
16

> <r_mmod_Potential_Energy-OPLS-2005>
248.552383422852

> <r_mmod_Stretch_Energy-OPLS-2005>
98.8366851806641

> <r_mmod_Bend_Energy-OPLS-2005>
151.003265380859

> <r_mmod_Torsional_Energy-OPLS-2005>
208.255142211914

> <r_mmod_Improper_Torsional_Energy-OPLS-2005>
3.80594205856323

> <r_mmod_Van_der_Waal_Energy-OPLS-2005>
171.594635009766

> <r_mmod_Electrostatic_Energy-OPLS-2005>
-224.096435546875

> <r_mmod_Solvation_Energy-OPLS-2005>
-207.771911621094

> <b_mmod_Minimization_Converged-OPLS-2005>
0

> <r_mmod_RMS_Derivative-OPLS-2005>
2.31547212600708

$$$$
16
                    3D
 Structure written by MMmdl.
159168  0  0  1  0            999 V2000
  -30.6343  -14.6971   20.5685 C   0  0  0  0  0  0
  -30.4317  -12.4500   19.4668 C   0  0  0  0  0  0
  -29.5094  -12.5344   18.2311 C   0  0  0  0  0  0
  -28.0365  -12.3442   18.6412 C   0  0  0  0  0  0
  -27.6461  -13.2257   19.8555 C   0  0  2  0  0  0
  -28.6808  -13.1105   20.9916 C   0  0  0  0  0  0
  -25.2520  -13.8187   20.5667 C   0  0  0  0  0  0
  -24.1803  -13.0444   20.9184 C   0  0  0  0  0  0
  -24.6383  -11.6917   20.8718 C   0  0  0  0  0  0
  -23.9065  -10.4291   21.0395 C   0  0  0  0  0  0
  -24.3624   -9.4208   21.9174 C   0  0  0  0  0  0
  -23.6299   -8.2242   22.0750 C   0  0  0  0  0  0
  -22.4277   -8.0279   21.3547 C   0  0  0  0  0  0
  -21.9906   -9.0248   20.4653 C   0  0  0  0  0  0
  -22.7233  -10.2128   20.3055 C   0  0  0  0  0  0
  -21.6854   -6.0733   22.5277 C   0  0  0  0  0  0
  -21.4007   -6.5639   23.8212 C   0  0  0  0  0  0
  -21.3663   -5.6795   24.9174 C   0  0  0  0  0  0
  -21.6042   -4.3054   24.7224 C   0  0  0  0  0  0
  -21.8821   -3.8146   23.4347 C   0  0  0  0  0  0
  -21.9190   -4.6961   22.3404 C   0  0  0  0  0  0
  -22.7823  -13.5229   21.1861 C   0  0  0  0  0  0
  -22.1658   -4.2150   21.0981 F   0  0  0  0  0  0
  -21.5637   -3.4537   25.7737 F   0  0  0  0  0  0
  -29.9975  -13.4775   20.4445 N   0  0  0  0  0  0
  -26.2937  -12.9380   20.3249 N   0  0  0  0  0  0
  -25.9310  -11.6530   20.5713 N   0  0  0  0  0  0
  -22.0484  -12.8214   22.0430 N   0  0  0  0  0  0
  -25.4245  -15.1908   20.4115 N   0  0  0  0  0  0
  -31.7265  -14.8779   20.0189 O   0  0  0  0  0  0
  -21.6643   -6.8872   21.4240 O   0  0  0  0  0  0
  -22.3494  -14.5530   20.6714 O   0  0  0  0  0  0
  -24.6274  -31.8543   23.1979 C   0  0  0  0  0  0
  -25.9119  -32.4745   23.8313 C   0  0  1  0  0  0
  -27.2311  -27.2828   20.1160 C   0  0  0  0  0  0
  -25.5940  -33.8546   24.2239 N   0  0  0  0  0  0
  -23.4237  -30.4736   21.5411 C   0  0  2  0  0  0
  -24.8728  -28.9201   20.1058 C   0  0  0  0  0  0
  -22.7480  -29.4579   22.4930 C   0  0  0  0  0  0
  -18.0278  -28.1389   22.8476 C   0  0  0  0  0  0
  -24.1490  -36.7259   23.2632 C   0  0  0  0  0  0
  -25.9661  -30.7714   21.3758 C   0  0  0  0  0  0
  -26.0388  -29.3954   20.7171 C   0  0  0  0  0  0
  -27.2143  -28.5847   20.7177 C   0  0  0  0  0  0
  -26.0399  -26.8616   19.4855 C   0  0  0  0  0  0
  -24.8771  -27.6604   19.4824 C   0  0  0  0  0  0
  -23.6397  -29.8006   20.1575 C   0  0  0  0  0  0
  -25.4106  -36.3045   24.0332 C   0  0  1  0  0  0
  -20.5880  -28.3673   23.1300 C   0  0  2  0  0  0
  -20.6768  -26.9394   22.5427 C   0  0  0  0  0  0
  -19.5755  -26.6379   21.5215 C   0  0  0  0  0  0
  -18.1925  -26.7934   22.1613 C   0  0  0  0  0  0
  -19.1531  -28.8855   23.2883 C   0  0  0  0  0  0
  -18.9449  -30.1459   23.8897 C   0  0  0  0  0  0
  -17.6446  -30.6589   24.0559 C   0  0  0  0  0  0
  -25.9057  -34.9429   23.5083 C   0  0  0  0  0  0
  -16.5336  -29.9075   23.6349 C   0  0  0  0  0  0
  -16.7263  -28.6501   23.0357 C   0  0  0  0  0  0
  -26.4489  -31.6590   25.0710 C   0  0  0  0  0  0
  -25.3721  -31.3780   26.1452 C   0  0  0  0  0  0
  -27.0287  -30.2987   24.6215 C   0  0  0  0  0  0
  -27.6079  -32.4310   25.7456 C   0  0  0  0  0  0
  -27.5596  -37.1737   24.8420 C   0  0  0  0  0  0
  -21.4189  -29.3015   22.3684 N   0  0  0  0  0  0
  -26.4251  -37.3773   23.9456 N   0  0  0  0  0  0
  -24.6915  -31.0513   22.0947 N   0  0  0  0  0  0
  -23.4195  -28.8133   23.3028 O   0  0  0  0  0  0
  -28.3596  -26.4430   20.2061 O   0  0  0  0  0  0
  -26.5619  -34.8914   22.4642 O   0  0  0  0  0  0
  -23.5437  -32.1346   23.7297 O   0  0  0  0  0  0
  -29.6550  -19.2168   19.6905 C   0  0  0  0  0  0
  -30.0060  -17.8260   19.8846 C   0  0  0  0  0  0
  -27.2145  -23.2911   20.7766 C   0  0  0  0  0  0
  -28.6637  -19.2630   21.8475 C   0  0  0  0  0  0
  -28.3598  -23.7333   20.0597 C   0  0  0  0  0  0
  -28.9681  -19.9998   20.6729 C   0  0  0  0  0  0
  -29.6958  -17.0964   21.0785 C   0  0  0  0  0  0
  -28.9792  -17.8859   22.0376 C   0  0  0  0  0  0
  -29.1500  -22.5706   19.9447 C   0  0  0  0  0  0
  -27.3218  -21.9455   21.0129 C   0  0  0  0  0  0
  -30.4828  -22.4326   19.2780 C   0  0  0  0  0  0
  -30.3118  -15.3597   22.8099 C   0  0  0  0  0  0
  -28.5495  -25.1841   19.4321 C   0  0  0  0  0  0
  -28.5289  -21.4238   20.5364 N   0  0  0  0  0  0
  -30.0810  -15.6734   21.3854 N   0  0  0  0  0  0
  -26.3905  -21.1507   21.6058 O   0  0  0  0  0  0
  -28.5436  -17.3340   23.1958 F   0  0  0  0  0  0
  -31.4735  -12.5762   19.1675 H   0  0  0  0  0  0
  -30.3767  -11.4574   19.9168 H   0  0  0  0  0  0
  -29.7932  -11.7827   17.4941 H   0  0  0  0  0  0
  -29.6323  -13.5040   17.7453 H   0  0  0  0  0  0
  -27.8953  -11.2907   18.8883 H   0  0  0  0  0  0
  -27.3779  -12.5482   17.7956 H   0  0  0  0  0  0
  -27.6571  -14.2580   19.5040 H   0  0  0  0  0  0
  -28.7081  -12.0965   21.3918 H   0  0  0  0  0  0
  -28.3772  -13.7474   21.8200 H   0  0  0  0  0  0
  -25.2776   -9.5683   22.4740 H   0  0  0  0  0  0
  -24.0018   -7.4627   22.7460 H   0  0  0  0  0  0
  -21.0839   -8.8760   19.8957 H   0  0  0  0  0  0
  -22.3688  -10.9664   19.6162 H   0  0  0  0  0  0
  -21.1991   -7.6146   23.9715 H   0  0  0  0  0  0
  -21.1487   -6.0523   25.9081 H   0  0  0  0  0  0
  -22.0597   -2.7607   23.2842 H   0  0  0  0  0  0
  -22.4105  -11.9876   22.4813 H   0  0  0  0  0  0
  -21.1106  -13.1237   22.2664 H   0  0  0  0  0  0
  -24.6673  -15.8530   20.5378 H   0  0  0  0  0  0
  -26.2907  -15.6299   20.1251 H   0  0  0  0  0  0
  -26.7187  -32.5384   23.1052 H   0  0  0  0  0  0
  -25.0127  -33.9676   25.0419 H   0  0  0  0  0  0
  -22.7186  -31.2941   21.3930 H   0  0  0  0  0  0
  -23.3784  -35.9549   23.3179 H   0  0  0  0  0  0
  -24.3618  -36.8988   22.2072 H   0  0  0  0  0  0
  -23.7181  -37.6401   23.6721 H   0  0  0  0  0  0
  -26.1040  -31.5343   20.6079 H   0  0  0  0  0  0
  -26.8439  -30.8189   22.0086 H   0  0  0  0  0  0
  -28.1059  -28.9410   21.2137 H   0  0  0  0  0  0
  -25.9740  -25.8877   19.0230 H   0  0  0  0  0  0
  -23.9808  -27.2874   19.0064 H   0  0  0  0  0  0
  -23.7518  -30.5716   19.3950 H   0  0  0  0  0  0
  -22.7614  -29.2241   19.8626 H   0  0  0  0  0  0
  -25.1274  -36.1848   25.0814 H   0  0  0  0  0  0
  -20.9961  -28.3233   24.1431 H   0  0  0  0  0  0
  -20.5648  -26.2272   23.3618 H   0  0  0  0  0  0
  -21.6637  -26.7420   22.1232 H   0  0  0  0  0  0
  -19.6907  -25.6277   21.1268 H   0  0  0  0  0  0
  -19.6728  -27.3174   20.6737 H   0  0  0  0  0  0
  -17.4208  -26.6692   21.4002 H   0  0  0  0  0  0
  -18.0309  -26.0079   22.9006 H   0  0  0  0  0  0
  -19.7917  -30.7281   24.2272 H   0  0  0  0  0  0
  -17.4990  -31.6279   24.5137 H   0  0  0  0  0  0
  -15.5333  -30.2966   23.7693 H   0  0  0  0  0  0
  -15.8657  -28.0816   22.7081 H   0  0  0  0  0  0
  -24.5906  -30.7100   25.7814 H   0  0  0  0  0  0
  -24.8901  -32.2966   26.4814 H   0  0  0  0  0  0
  -25.8050  -30.9024   27.0263 H   0  0  0  0  0  0
  -26.2852  -29.6763   24.1233 H   0  0  0  0  0  0
  -27.3914  -29.7242   25.4744 H   0  0  0  0  0  0
  -27.8766  -30.4205   23.9476 H   0  0  0  0  0  0
  -27.2719  -33.3622   26.2033 H   0  0  0  0  0  0
  -28.3883  -32.6845   25.0265 H   0  0  0  0  0  0
  -28.0753  -31.8425   26.5361 H   0  0  0  0  0  0
  -28.2479  -38.0168   24.7675 H   0  0  0  0  0  0
  -28.1231  -36.2725   24.5954 H   0  0  0  0  0  0
  -27.2378  -37.1021   25.8826 H   0  0  0  0  0  0
  -20.9364  -29.8709   21.6871 H   0  0  0  0  0  0
  -26.0105  -38.2803   24.1610 H   0  0  0  0  0  0
  -29.9196  -19.6836   18.7528 H   0  0  0  0  0  0
  -30.5436  -17.3248   19.0927 H   0  0  0  0  0  0
  -26.3641  -23.9032   21.0437 H   0  0  0  0  0  0
  -28.1403  -19.7554   22.6522 H   0  0  0  0  0  0
  -31.0160  -23.3823   19.2619 H   0  0  0  0  0  0
  -30.3690  -22.1003   18.2458 H   0  0  0  0  0  0
  -31.1203  -21.7184   19.7996 H   0  0  0  0  0  0
  -30.7454  -16.2143   23.3297 H   0  0  0  0  0  0
  -31.0038  -14.5309   22.9800 H   0  0  0  0  0  0
  -29.3793  -15.0986   23.3092 H   0  0  0  0  0  0
  -27.9824  -25.2241   18.5022 H   0  0  0  0  0  0
  -29.5852  -25.2288   19.0982 H   0  0  0  0  0  0
  -25.6426  -21.6974   21.8235 H   0  0  0  0  0  0
  1 25  1  0  0  0
  1 30  2  0  0  0
  1 85  1  0  0  0
  2  3  1  0  0  0
  2 25  1  0  0  0
  2 88  1  0  0  0
  2 89  1  0  0  0
  3  4  1  0  0  0
  3 90  1  0  0  0
  3 91  1  0  0  0
  4  5  1  0  0  0
  4 92  1  0  0  0
  4 93  1  0  0  0
  5  6  1  0  0  0
  5 26  1  0  0  0
  5 94  1  0  0  0
  6 25  1  0  0  0
  6 95  1  0  0  0
  6 96  1  0  0  0
  7  8  2  0  0  0
  7 26  1  0  0  0
  7 29  1  0  0  0
  8  9  1  0  0  0
  8 22  1  0  0  0
  9 10  1  0  0  0
  9 27  2  0  0  0
 10 11  2  0  0  0
 10 15  1  0  0  0
 11 12  1  0  0  0
 11 97  1  0  0  0
 12 13  2  0  0  0
 12 98  1  0  0  0
 13 14  1  0  0  0
 13 31  1  0  0  0
 14 15  2  0  0  0
 14 99  1  0  0  0
 15100  1  0  0  0
 16 17  2  0  0  0
 16 21  1  0  0  0
 16 31  1  0  0  0
 17 18  1  0  0  0
 17101  1  0  0  0
 18 19  2  0  0  0
 18102  1  0  0  0
 19 20  1  0  0  0
 19 24  1  0  0  0
 20 21  2  0  0  0
 20103  1  0  0  0
 21 23  1  0  0  0
 22 28  1  0  0  0
 22 32  2  0  0  0
 26 27  1  0  0  0
 28104  1  0  0  0
 28105  1  0  0  0
 29106  1  0  0  0
 29107  1  0  0  0
 33 34  1  0  0  0
 33 66  1  0  0  0
 33 70  2  0  0  0
 34 36  1  0  0  0
 34 59  1  0  0  0
 34108  1  0  0  0
 35 44  2  0  0  0
 35 45  1  0  0  0
 35 68  1  0  0  0
 36 56  1  0  0  0
 36109  1  0  0  0
 37 39  1  0  0  0
 37 47  1  0  0  0
 37 66  1  0  0  0
 37110  1  0  0  0
 38 43  2  0  0  0
 38 46  1  0  0  0
 38 47  1  0  0  0
 39 64  1  0  0  0
 39 67  2  0  0  0
 40 52  1  0  0  0
 40 53  2  0  0  0
 40 58  1  0  0  0
 41111  1  0  0  0
 41112  1  0  0  0
 41113  1  0  0  0
 41 48  1  0  0  0
 42 43  1  0  0  0
 42 66  1  0  0  0
 42114  1  0  0  0
 42115  1  0  0  0
 43 44  1  0  0  0
 44116  1  0  0  0
 45 46  2  0  0  0
 45117  1  0  0  0
 46118  1  0  0  0
 47119  1  0  0  0
 47120  1  0  0  0
 48 56  1  0  0  0
 48 65  1  0  0  0
 48121  1  0  0  0
 49 50  1  0  0  0
 49 53  1  0  0  0
 49 64  1  0  0  0
 49122  1  0  0  0
 50 51  1  0  0  0
 50123  1  0  0  0
 50124  1  0  0  0
 51 52  1  0  0  0
 51125  1  0  0  0
 51126  1  0  0  0
 52127  1  0  0  0
 52128  1  0  0  0
 53 54  1  0  0  0
 54 55  2  0  0  0
 54129  1  0  0  0
 55 57  1  0  0  0
 55130  1  0  0  0
 56 69  2  0  0  0
 57 58  2  0  0  0
 57131  1  0  0  0
 58132  1  0  0  0
 59 60  1  0  0  0
 59 61  1  0  0  0
 59 62  1  0  0  0
 60133  1  0  0  0
 60134  1  0  0  0
 60135  1  0  0  0
 61136  1  0  0  0
 61137  1  0  0  0
 61138  1  0  0  0
 62139  1  0  0  0
 62140  1  0  0  0
 62141  1  0  0  0
 63 65  1  0  0  0
 63142  1  0  0  0
 63143  1  0  0  0
 63144  1  0  0  0
 64145  1  0  0  0
 65146  1  0  0  0
 68 83  1  0  0  0
 71 72  2  0  0  0
 71 76  1  0  0  0
 71147  1  0  0  0
 72 77  1  0  0  0
 72148  1  0  0  0
 73 75  1  0  0  0
 73 80  2  0  0  0
 73149  1  0  0  0
 74 76  2  0  0  0
 74 78  1  0  0  0
 74150  1  0  0  0
 75 79  2  0  0  0
 75 83  1  0  0  0
 76 84  1  0  0  0
 77 78  2  0  0  0
 77 85  1  0  0  0
 78 87  1  0  0  0
 79 81  1  0  0  0
 79 84  1  0  0  0
 80 84  1  0  0  0
 80 86  1  0  0  0
 81151  1  0  0  0
 81152  1  0  0  0
 81153  1  0  0  0
 82 85  1  0  0  0
 82154  1  0  0  0
 82155  1  0  0  0
 82156  1  0  0  0
 83157  1  0  0  0
 83158  1  0  0  0
 86159  1  0  0  0
M  ISO  4   1 100  68 101  83 101  85 100
M  END
> <chiral flag>
0

> <version>
0

> <s_m_source_file>
/data/baiqing/PycharmProjects/Reinvent-master-3.2/result/LINK_invent/BTK/process_docking_weight1_custom_product_contain_oxygen_bond_distance_aromatic_linkinvent_7_9_3/rearranged_h_0090.sdf

> <i_m_source_file_index>
17

> <r_mmod_Potential_Energy-OPLS-2005>
282.339599609375

> <r_mmod_Stretch_Energy-OPLS-2005>
119.423622131348

> <r_mmod_Bend_Energy-OPLS-2005>
185.111541748047

> <r_mmod_Torsional_Energy-OPLS-2005>
289.490234375

> <r_mmod_Improper_Torsional_Energy-OPLS-2005>
4.05021476745605

> <r_mmod_Van_der_Waal_Energy-OPLS-2005>
147.867782592773

> <r_mmod_Electrostatic_Energy-OPLS-2005>
-332.585998535156

> <r_mmod_Solvation_Energy-OPLS-2005>
-197.992858886719

> <b_mmod_Minimization_Converged-OPLS-2005>
0

> <r_mmod_RMS_Derivative-OPLS-2005>
1.71495974063873

$$$$
17
                    3D
 Structure written by MMmdl.
158167  0  0  1  0            999 V2000
  -30.6196  -14.6542   20.4843 C   0  0  0  0  0  0
  -30.4397  -12.3971   19.4524 C   0  0  0  0  0  0
  -29.5106  -12.5157   18.2235 C   0  0  0  0  0  0
  -28.0327  -12.3501   18.6329 C   0  0  0  0  0  0
  -27.6541  -13.2196   19.8609 C   0  0  2  0  0  0
  -28.7007  -13.0799   20.9907 C   0  0  0  0  0  0
  -25.2560  -13.8172   20.5668 C   0  0  0  0  0  0
  -24.1841  -13.0435   20.9191 C   0  0  0  0  0  0
  -24.6416  -11.6908   20.8743 C   0  0  0  0  0  0
  -23.9077  -10.4293   21.0404 C   0  0  0  0  0  0
  -24.3627   -9.4211   21.9184 C   0  0  0  0  0  0
  -23.6300   -8.2245   22.0760 C   0  0  0  0  0  0
  -22.4281   -8.0286   21.3548 C   0  0  0  0  0  0
  -21.9916   -9.0257   20.4650 C   0  0  0  0  0  0
  -22.7249  -10.2134   20.3056 C   0  0  0  0  0  0
  -21.6853   -6.0745   22.5282 C   0  0  0  0  0  0
  -21.4012   -6.5648   23.8218 C   0  0  0  0  0  0
  -21.3654   -5.6793   24.9176 C   0  0  0  0  0  0
  -21.6041   -4.3052   24.7221 C   0  0  0  0  0  0
  -21.8820   -3.8150   23.4338 C   0  0  0  0  0  0
  -21.9192   -4.6973   22.3397 C   0  0  0  0  0  0
  -22.7860  -13.5226   21.1834 C   0  0  0  0  0  0
  -22.1663   -4.2162   21.0973 F   0  0  0  0  0  0
  -21.5626   -3.4532   25.7729 F   0  0  0  0  0  0
  -30.0164  -13.4233   20.4268 N   0  0  0  0  0  0
  -26.3002  -12.9366   20.3307 N   0  0  0  0  0  0
  -25.9347  -11.6515   20.5757 N   0  0  0  0  0  0
  -22.0487  -12.8233   22.0393 N   0  0  0  0  0  0
  -25.4238  -15.1894   20.4052 N   0  0  0  0  0  0
  -31.7887  -14.8039   20.1156 O   0  0  0  0  0  0
  -21.6639   -6.8887   21.4245 O   0  0  0  0  0  0
  -22.3545  -14.5521   20.6670 O   0  0  0  0  0  0
  -24.6267  -31.8596   23.2041 C   0  0  0  0  0  0
  -25.9114  -32.4780   23.8371 C   0  0  1  0  0  0
  -27.2217  -27.3238   20.1278 C   0  0  0  0  0  0
  -25.5937  -33.8583   24.2294 N   0  0  0  0  0  0
  -23.4216  -30.4835   21.5463 C   0  0  2  0  0  0
  -24.8694  -28.9395   20.1127 C   0  0  0  0  0  0
  -22.7479  -29.4626   22.4941 C   0  0  0  0  0  0
  -18.0284  -28.1404   22.8485 C   0  0  0  0  0  0
  -24.1480  -36.7277   23.2635 C   0  0  0  0  0  0
  -25.9620  -30.7952   21.3736 C   0  0  0  0  0  0
  -26.0387  -29.4227   20.7153 C   0  0  0  0  0  0
  -27.2229  -28.6270   20.7109 C   0  0  0  0  0  0
  -26.0365  -26.8942   19.4937 C   0  0  0  0  0  0
  -24.8691  -27.6806   19.4919 C   0  0  0  0  0  0
  -23.6376  -29.8198   20.1613 C   0  0  0  0  0  0
  -25.4105  -36.3082   24.0335 C   0  0  1  0  0  0
  -20.5884  -28.3699   23.1288 C   0  0  2  0  0  0
  -20.6780  -26.9421   22.5418 C   0  0  0  0  0  0
  -19.5756  -26.6395   21.5223 C   0  0  0  0  0  0
  -18.1929  -26.7952   22.1617 C   0  0  0  0  0  0
  -19.1537  -28.8870   23.2882 C   0  0  0  0  0  0
  -18.9457  -30.1474   23.8890 C   0  0  0  0  0  0
  -17.6457  -30.6599   24.0569 C   0  0  0  0  0  0
  -25.9049  -34.9454   23.5109 C   0  0  0  0  0  0
  -16.5347  -29.9097   23.6346 C   0  0  0  0  0  0
  -16.7271  -28.6523   23.0352 C   0  0  0  0  0  0
  -26.4499  -31.6600   25.0742 C   0  0  0  0  0  0
  -25.3742  -31.3756   26.1480 C   0  0  0  0  0  0
  -27.0330  -30.3023   24.6193 C   0  0  0  0  0  0
  -27.6057  -32.4342   25.7505 C   0  0  0  0  0  0
  -27.5587  -37.1778   24.8446 C   0  0  0  0  0  0
  -21.4191  -29.3046   22.3676 N   0  0  0  0  0  0
  -26.4268  -37.3791   23.9436 N   0  0  0  0  0  0
  -24.6891  -31.0616   22.0989 N   0  0  0  0  0  0
  -23.4196  -28.8164   23.3027 O   0  0  0  0  0  0
  -28.3152  -26.4491   20.1643 O   0  0  0  0  0  0
  -26.5598  -34.8918   22.4660 O   0  0  0  0  0  0
  -23.5428  -32.1385   23.7375 O   0  0  0  0  0  0
  -28.7705  -19.3450   21.3474 C   0  0  0  0  0  0
  -30.4476  -19.3419   19.6428 C   0  0  0  0  0  0
  -28.9064  -17.9277   21.4827 C   0  0  0  0  0  0
  -29.5294  -20.1099   20.4183 C   0  0  0  0  0  0
  -30.5946  -17.9236   19.7643 C   0  0  0  0  0  0
  -29.8198  -17.1652   20.6940 C   0  0  0  0  0  0
  -29.6784  -23.7195   19.3293 C   0  0  0  0  0  0
  -28.8015  -23.8522   20.3219 C   0  0  0  0  0  0
  -28.6188  -22.5012   20.9035 C   0  0  0  0  0  0
  -30.1331  -22.2875   19.1755 C   0  0  0  0  0  0
  -28.0255  -17.2223   22.5021 C   0  0  0  0  0  0
  -28.0583  -25.1418   20.8158 C   0  0  0  0  0  0
  -29.3917  -21.5772   20.2277 N   0  0  0  0  0  0
  -31.5034  -17.2964   18.9185 N   0  0  0  0  0  0
  -29.8042  -15.6978   20.8418 N   0  0  0  0  0  0
  -27.8822  -22.2426   21.8587 O   0  0  0  0  0  0
  -31.4822  -12.5197   19.1519 H   0  0  0  0  0  0
  -30.3710  -11.4012   19.8927 H   0  0  0  0  0  0
  -29.7793  -11.7711   17.4728 H   0  0  0  0  0  0
  -29.6509  -13.4893   17.7511 H   0  0  0  0  0  0
  -27.8689  -11.2964   18.8607 H   0  0  0  0  0  0
  -27.3799  -12.5839   17.7906 H   0  0  0  0  0  0
  -27.6684  -14.2539   19.5160 H   0  0  0  0  0  0
  -28.7156  -12.0602   21.3780 H   0  0  0  0  0  0
  -28.4456  -13.7159   21.8403 H   0  0  0  0  0  0
  -25.2778   -9.5690   22.4755 H   0  0  0  0  0  0
  -24.0013   -7.4632   22.7475 H   0  0  0  0  0  0
  -21.0847   -8.8766   19.8956 H   0  0  0  0  0  0
  -22.3705  -10.9666   19.6159 H   0  0  0  0  0  0
  -21.2004   -7.6156   23.9724 H   0  0  0  0  0  0
  -21.1474   -6.0520   25.9078 H   0  0  0  0  0  0
  -22.0602   -2.7616   23.2823 H   0  0  0  0  0  0
  -22.4084  -11.9893   22.4787 H   0  0  0  0  0  0
  -21.1107  -13.1284   22.2566 H   0  0  0  0  0  0
  -24.6513  -15.8383   20.5057 H   0  0  0  0  0  0
  -26.2620  -15.6264   20.0453 H   0  0  0  0  0  0
  -26.7187  -32.5451   23.1128 H   0  0  0  0  0  0
  -25.0145  -33.9733   25.0479 H   0  0  0  0  0  0
  -22.7167  -31.3044   21.4036 H   0  0  0  0  0  0
  -23.3779  -35.9565   23.3236 H   0  0  0  0  0  0
  -24.3599  -36.8956   22.2064 H   0  0  0  0  0  0
  -23.7164  -37.6434   23.6686 H   0  0  0  0  0  0
  -26.0910  -31.5624   20.6087 H   0  0  0  0  0  0
  -26.8425  -30.8426   22.0029 H   0  0  0  0  0  0
  -28.1215  -28.9913   21.1897 H   0  0  0  0  0  0
  -26.0025  -25.9262   19.0133 H   0  0  0  0  0  0
  -23.9724  -27.3076   19.0164 H   0  0  0  0  0  0
  -23.7597  -30.5982   19.4071 H   0  0  0  0  0  0
  -22.7573  -29.2511   19.8564 H   0  0  0  0  0  0
  -25.1276  -36.1924   25.0823 H   0  0  0  0  0  0
  -20.9979  -28.3272   24.1408 H   0  0  0  0  0  0
  -20.5709  -26.2296   23.3612 H   0  0  0  0  0  0
  -21.6643  -26.7471   22.1185 H   0  0  0  0  0  0
  -19.6916  -25.6303   21.1262 H   0  0  0  0  0  0
  -19.6716  -27.3200   20.6752 H   0  0  0  0  0  0
  -17.4212  -26.6723   21.4002 H   0  0  0  0  0  0
  -18.0303  -26.0095   22.9007 H   0  0  0  0  0  0
  -19.7933  -30.7309   24.2236 H   0  0  0  0  0  0
  -17.5012  -31.6279   24.5173 H   0  0  0  0  0  0
  -15.5351  -30.2996   23.7694 H   0  0  0  0  0  0
  -15.8668  -28.0857   22.7047 H   0  0  0  0  0  0
  -24.5884  -30.7138   25.7823 H   0  0  0  0  0  0
  -24.8973  -32.2930   26.4941 H   0  0  0  0  0  0
  -25.8073  -30.8909   27.0238 H   0  0  0  0  0  0
  -26.2897  -29.6789   24.1211 H   0  0  0  0  0  0
  -27.4014  -29.7274   25.4699 H   0  0  0  0  0  0
  -27.8778  -30.4306   23.9422 H   0  0  0  0  0  0
  -27.2657  -33.3648   26.2064 H   0  0  0  0  0  0
  -28.3877  -32.6896   25.0342 H   0  0  0  0  0  0
  -28.0712  -31.8483   26.5440 H   0  0  0  0  0  0
  -28.2539  -38.0144   24.7608 H   0  0  0  0  0  0
  -28.1151  -36.2686   24.6121 H   0  0  0  0  0  0
  -27.2330  -37.1237   25.8848 H   0  0  0  0  0  0
  -20.9363  -29.8762   21.6880 H   0  0  0  0  0  0
  -26.0147  -38.2842   24.1529 H   0  0  0  0  0  0
  -28.0446  -19.8381   21.9750 H   0  0  0  0  0  0
  -31.0563  -19.8495   18.9090 H   0  0  0  0  0  0
  -30.0308  -24.5174   18.6915 H   0  0  0  0  0  0
  -31.2108  -22.2107   19.3208 H   0  0  0  0  0  0
  -29.8726  -21.9129   18.1853 H   0  0  0  0  0  0
  -27.4826  -17.9325   23.1256 H   0  0  0  0  0  0
  -28.6230  -16.5946   23.1639 H   0  0  0  0  0  0
  -27.2899  -16.5942   22.0012 H   0  0  0  0  0  0
  -28.3020  -25.2650   21.8713 H   0  0  0  0  0  0
  -26.9973  -24.8942   20.8050 H   0  0  0  0  0  0
  -32.2846  -17.8554   18.5935 H   0  0  0  0  0  0
  -31.8039  -16.3700   19.2358 H   0  0  0  0  0  0
  -28.9418  -15.3576   21.2340 H   0  0  0  0  0  0
  1 25  1  0  0  0
  1 30  2  0  0  0
  1 85  1  0  0  0
  2  3  1  0  0  0
  2 25  1  0  0  0
  2 87  1  0  0  0
  2 88  1  0  0  0
  3  4  1  0  0  0
  3 89  1  0  0  0
  3 90  1  0  0  0
  4  5  1  0  0  0
  4 91  1  0  0  0
  4 92  1  0  0  0
  5  6  1  0  0  0
  5 26  1  0  0  0
  5 93  1  0  0  0
  6 25  1  0  0  0
  6 94  1  0  0  0
  6 95  1  0  0  0
  7  8  2  0  0  0
  7 26  1  0  0  0
  7 29  1  0  0  0
  8  9  1  0  0  0
  8 22  1  0  0  0
  9 10  1  0  0  0
  9 27  2  0  0  0
 10 11  2  0  0  0
 10 15  1  0  0  0
 11 12  1  0  0  0
 11 96  1  0  0  0
 12 13  2  0  0  0
 12 97  1  0  0  0
 13 14  1  0  0  0
 13 31  1  0  0  0
 14 15  2  0  0  0
 14 98  1  0  0  0
 15 99  1  0  0  0
 16 17  2  0  0  0
 16 21  1  0  0  0
 16 31  1  0  0  0
 17 18  1  0  0  0
 17100  1  0  0  0
 18 19  2  0  0  0
 18101  1  0  0  0
 19 20  1  0  0  0
 19 24  1  0  0  0
 20 21  2  0  0  0
 20102  1  0  0  0
 21 23  1  0  0  0
 22 28  1  0  0  0
 22 32  2  0  0  0
 26 27  1  0  0  0
 28103  1  0  0  0
 28104  1  0  0  0
 29105  1  0  0  0
 29106  1  0  0  0
 33 34  1  0  0  0
 33 66  1  0  0  0
 33 70  2  0  0  0
 34 36  1  0  0  0
 34 59  1  0  0  0
 34107  1  0  0  0
 35 44  2  0  0  0
 35 45  1  0  0  0
 35 68  1  0  0  0
 36 56  1  0  0  0
 36108  1  0  0  0
 37 39  1  0  0  0
 37 47  1  0  0  0
 37 66  1  0  0  0
 37109  1  0  0  0
 38 43  2  0  0  0
 38 46  1  0  0  0
 38 47  1  0  0  0
 39 64  1  0  0  0
 39 67  2  0  0  0
 40 52  1  0  0  0
 40 53  2  0  0  0
 40 58  1  0  0  0
 41110  1  0  0  0
 41111  1  0  0  0
 41112  1  0  0  0
 41 48  1  0  0  0
 42 43  1  0  0  0
 42 66  1  0  0  0
 42113  1  0  0  0
 42114  1  0  0  0
 43 44  1  0  0  0
 44115  1  0  0  0
 45 46  2  0  0  0
 45116  1  0  0  0
 46117  1  0  0  0
 47118  1  0  0  0
 47119  1  0  0  0
 48 56  1  0  0  0
 48 65  1  0  0  0
 48120  1  0  0  0
 49 50  1  0  0  0
 49 53  1  0  0  0
 49 64  1  0  0  0
 49121  1  0  0  0
 50 51  1  0  0  0
 50122  1  0  0  0
 50123  1  0  0  0
 51 52  1  0  0  0
 51124  1  0  0  0
 51125  1  0  0  0
 52126  1  0  0  0
 52127  1  0  0  0
 53 54  1  0  0  0
 54 55  2  0  0  0
 54128  1  0  0  0
 55 57  1  0  0  0
 55129  1  0  0  0
 56 69  2  0  0  0
 57 58  2  0  0  0
 57130  1  0  0  0
 58131  1  0  0  0
 59 60  1  0  0  0
 59 61  1  0  0  0
 59 62  1  0  0  0
 60132  1  0  0  0
 60133  1  0  0  0
 60134  1  0  0  0
 61135  1  0  0  0
 61136  1  0  0  0
 61137  1  0  0  0
 62138  1  0  0  0
 62139  1  0  0  0
 62140  1  0  0  0
 63 65  1  0  0  0
 63141  1  0  0  0
 63142  1  0  0  0
 63143  1  0  0  0
 64144  1  0  0  0
 65145  1  0  0  0
 68 82  1  0  0  0
 71 73  2  0  0  0
 71 74  1  0  0  0
 71146  1  0  0  0
 72 74  2  0  0  0
 72 75  1  0  0  0
 72147  1  0  0  0
 73 76  1  0  0  0
 73 81  1  0  0  0
 74 83  1  0  0  0
 75 76  2  0  0  0
 75 84  1  0  0  0
 76 85  1  0  0  0
 77 78  2  0  0  0
 77 80  1  0  0  0
 77148  1  0  0  0
 78 79  1  0  0  0
 78 82  1  0  0  0
 79 83  1  0  0  0
 79 86  2  0  0  0
 80 83  1  0  0  0
 80149  1  0  0  0
 80150  1  0  0  0
 81151  1  0  0  0
 81152  1  0  0  0
 81153  1  0  0  0
 82154  1  0  0  0
 82155  1  0  0  0
 84156  1  0  0  0
 84157  1  0  0  0
 85158  1  0  0  0
M  ISO  4   1 100  68 101  82 101  85 100
M  END
> <chiral flag>
0

> <version>
0

> <s_m_source_file>
/data/baiqing/PycharmProjects/Reinvent-master-3.2/result/LINK_invent/BTK/process_docking_weight1_custom_product_contain_oxygen_bond_distance_aromatic_linkinvent_7_9_3/rearranged_h_0090.sdf

> <i_m_source_file_index>
18

> <r_mmod_Potential_Energy-OPLS-2005>
62.1880950927734

> <r_mmod_Stretch_Energy-OPLS-2005>
86.4486389160156

> <r_mmod_Bend_Energy-OPLS-2005>
192.833557128906

> <r_mmod_Torsional_Energy-OPLS-2005>
261.032745361328

> <r_mmod_Improper_Torsional_Energy-OPLS-2005>
8.14696979522705

> <r_mmod_Van_der_Waal_Energy-OPLS-2005>
150.598236083984

> <r_mmod_Electrostatic_Energy-OPLS-2005>
-477.467010498047

> <r_mmod_Solvation_Energy-OPLS-2005>
-211.290390014648

> <b_mmod_Minimization_Converged-OPLS-2005>
0

> <r_mmod_RMS_Derivative-OPLS-2005>
1.54828608036041

$$$$
18
                    3D
 Structure written by MMmdl.
151159  0  0  1  0            999 V2000
  -30.5007  -14.9062   20.4567 C   0  0  0  0  0  0
  -30.4712  -12.5695   19.4773 C   0  0  0  0  0  0
  -29.5268  -12.5284   18.2482 C   0  0  0  0  0  0
  -28.0579  -12.3041   18.6651 C   0  0  0  0  0  0
  -27.6466  -13.2051   19.8558 C   0  0  2  0  0  0
  -28.7004  -13.1153   20.9818 C   0  0  0  0  0  0
  -25.2562  -13.8089   20.5687 C   0  0  0  0  0  0
  -24.1804  -13.0389   20.9142 C   0  0  0  0  0  0
  -24.6372  -11.6855   20.8724 C   0  0  0  0  0  0
  -23.9037  -10.4261   21.0406 C   0  0  0  0  0  0
  -24.3594   -9.4184   21.9189 C   0  0  0  0  0  0
  -23.6271   -8.2224   22.0760 C   0  0  0  0  0  0
  -22.4256   -8.0267   21.3544 C   0  0  0  0  0  0
  -21.9884   -9.0237   20.4647 C   0  0  0  0  0  0
  -22.7213  -10.2112   20.3055 C   0  0  0  0  0  0
  -21.6835   -6.0720   22.5276 C   0  0  0  0  0  0
  -21.3994   -6.5626   23.8206 C   0  0  0  0  0  0
  -21.3657   -5.6787   24.9173 C   0  0  0  0  0  0
  -21.6049   -4.3052   24.7229 C   0  0  0  0  0  0
  -21.8820   -3.8137   23.4352 C   0  0  0  0  0  0
  -21.9187   -4.6947   22.3405 C   0  0  0  0  0  0
  -22.7836  -13.5203   21.1824 C   0  0  0  0  0  0
  -22.1659   -4.2133   21.0983 F   0  0  0  0  0  0
  -21.5640   -3.4539   25.7745 F   0  0  0  0  0  0
  -29.9694  -13.6106   20.4180 N   0  0  0  0  0  0
  -26.2970  -12.9238   20.3318 N   0  0  0  0  0  0
  -25.9300  -11.6410   20.5753 N   0  0  0  0  0  0
  -22.0482  -12.8213   22.0398 N   0  0  0  0  0  0
  -25.4381  -15.1792   20.4197 N   0  0  0  0  0  0
  -31.6830  -15.0494   20.1145 O   0  0  0  0  0  0
  -21.6624   -6.8861   21.4239 O   0  0  0  0  0  0
  -22.3517  -14.5508   20.6670 O   0  0  0  0  0  0
  -24.6382  -31.8476   23.1919 C   0  0  0  0  0  0
  -25.9163  -32.4723   23.8305 C   0  0  1  0  0  0
  -27.2294  -27.1898   20.1504 C   0  0  0  0  0  0
  -25.5928  -33.8525   24.2223 N   0  0  0  0  0  0
  -23.4418  -30.4653   21.5368 C   0  0  2  0  0  0
  -24.8927  -28.8958   20.1165 C   0  0  0  0  0  0
  -22.7547  -29.4550   22.4891 C   0  0  0  0  0  0
  -18.0289  -28.1393   22.8480 C   0  0  0  0  0  0
  -24.1478  -36.7267   23.2646 C   0  0  0  0  0  0
  -25.9931  -30.7382   21.3836 C   0  0  0  0  0  0
  -26.0672  -29.3521   20.7291 C   0  0  0  0  0  0
  -27.2387  -28.5149   20.7283 C   0  0  0  0  0  0
  -26.0298  -26.8164   19.5077 C   0  0  0  0  0  0
  -24.8826  -27.6379   19.4932 C   0  0  0  0  0  0
  -23.6663  -29.7918   20.1571 C   0  0  0  0  0  0
  -25.4109  -36.3047   24.0323 C   0  0  1  0  0  0
  -20.5902  -28.3709   23.1252 C   0  0  2  0  0  0
  -20.6779  -26.9420   22.5405 C   0  0  0  0  0  0
  -19.5751  -26.6384   21.5213 C   0  0  0  0  0  0
  -18.1930  -26.7934   22.1619 C   0  0  0  0  0  0
  -19.1547  -28.8870   23.2857 C   0  0  0  0  0  0
  -18.9464  -30.1468   23.8880 C   0  0  0  0  0  0
  -17.6464  -30.6596   24.0555 C   0  0  0  0  0  0
  -25.9056  -34.9418   23.5080 C   0  0  0  0  0  0
  -16.5355  -29.9091   23.6337 C   0  0  0  0  0  0
  -16.7274  -28.6505   23.0362 C   0  0  0  0  0  0
  -26.4495  -31.6585   25.0739 C   0  0  0  0  0  0
  -25.3696  -31.3772   26.1456 C   0  0  0  0  0  0
  -27.0354  -30.2980   24.6307 C   0  0  0  0  0  0
  -27.6040  -32.4348   25.7507 C   0  0  0  0  0  0
  -27.5568  -37.1788   24.8466 C   0  0  0  0  0  0
  -21.4244  -29.3043   22.3637 N   0  0  0  0  0  0
  -26.4277  -37.3755   23.9410 N   0  0  0  0  0  0
  -24.7106  -31.0378   22.0928 N   0  0  0  0  0  0
  -23.4206  -28.8098   23.3030 O   0  0  0  0  0  0
  -28.3117  -26.2551   20.1571 O   0  0  0  0  0  0
  -26.5645  -34.8908   22.4661 O   0  0  0  0  0  0
  -23.5508  -32.1326   23.7165 O   0  0  0  0  0  0
  -29.5622  -18.6020   19.5001 C   0  0  0  0  0  0
  -29.3515  -20.0469   19.5219 C   0  0  0  0  0  0
  -29.8141  -18.5913   21.8458 C   0  0  0  0  0  0
  -29.7794  -17.7830   20.6668 C   0  0  0  0  0  0
  -29.5925  -20.0159   21.8762 C   0  0  0  0  0  0
  -29.3161  -20.8250   20.7270 C   0  0  0  0  0  0
  -29.5218  -16.2116   20.7899 C   0  0  0  0  0  0
  -28.0913  -24.7943   20.5842 C   0  0  0  0  0  0
  -28.8179  -23.4054   20.0149 C   0  0  0  0  0  0
  -28.3512  -16.0244   21.2311 N   0  0  0  0  0  0
  -29.5945  -20.6548   23.1150 N   0  0  0  0  0  0
  -28.9896  -22.2260   20.9519 O   0  0  0  0  0  0
  -31.4910  -12.7758   19.1481 H   0  0  0  0  0  0
  -30.5172  -11.5948   19.9659 H   0  0  0  0  0  0
  -29.8429  -11.7437   17.5596 H   0  0  0  0  0  0
  -29.6075  -13.4663   17.6979 H   0  0  0  0  0  0
  -27.9525  -11.2567   18.9504 H   0  0  0  0  0  0
  -27.3896  -12.4567   17.8177 H   0  0  0  0  0  0
  -27.6364  -14.2200   19.4624 H   0  0  0  0  0  0
  -28.8042  -12.0823   21.3170 H   0  0  0  0  0  0
  -28.4038  -13.6560   21.8783 H   0  0  0  0  0  0
  -25.2737   -9.5657   22.4767 H   0  0  0  0  0  0
  -23.9971   -7.4610   22.7477 H   0  0  0  0  0  0
  -21.0814   -8.8758   19.8950 H   0  0  0  0  0  0
  -22.3676  -10.9658   19.6167 H   0  0  0  0  0  0
  -21.1970   -7.6133   23.9699 H   0  0  0  0  0  0
  -21.1479   -6.0521   25.9074 H   0  0  0  0  0  0
  -22.0600   -2.7600   23.2859 H   0  0  0  0  0  0
  -22.4101  -11.9876   22.4792 H   0  0  0  0  0  0
  -21.1107  -13.1248   22.2614 H   0  0  0  0  0  0
  -24.7227  -15.8554   20.6592 H   0  0  0  0  0  0
  -26.3773  -15.5704   20.4072 H   0  0  0  0  0  0
  -26.7245  -32.5339   23.1058 H   0  0  0  0  0  0
  -25.0061  -33.9655   25.0360 H   0  0  0  0  0  0
  -22.7410  -31.2885   21.3826 H   0  0  0  0  0  0
  -23.3742  -35.9593   23.3297 H   0  0  0  0  0  0
  -24.3572  -36.8910   22.2064 H   0  0  0  0  0  0
  -23.7222  -37.6459   23.6686 H   0  0  0  0  0  0
  -26.1405  -31.4923   20.6091 H   0  0  0  0  0  0
  -26.8659  -30.7914   22.0228 H   0  0  0  0  0  0
  -28.1377  -28.8615   21.2183 H   0  0  0  0  0  0
  -25.9690  -25.8546   19.0188 H   0  0  0  0  0  0
  -23.9857  -27.2824   19.0049 H   0  0  0  0  0  0
  -23.7983  -30.5647   19.3983 H   0  0  0  0  0  0
  -22.7830  -29.2287   19.8501 H   0  0  0  0  0  0
  -25.1287  -36.1890   25.0814 H   0  0  0  0  0  0
  -20.9977  -28.3291   24.1380 H   0  0  0  0  0  0
  -20.5679  -26.2321   23.3615 H   0  0  0  0  0  0
  -21.6643  -26.7441   22.1199 H   0  0  0  0  0  0
  -19.6914  -25.6294   21.1251 H   0  0  0  0  0  0
  -19.6689  -27.3185   20.6738 H   0  0  0  0  0  0
  -17.4203  -26.6675   21.4024 H   0  0  0  0  0  0
  -18.0322  -26.0082   22.9017 H   0  0  0  0  0  0
  -19.7943  -30.7277   24.2252 H   0  0  0  0  0  0
  -17.5022  -31.6273   24.5156 H   0  0  0  0  0  0
  -15.5355  -30.2980   23.7689 H   0  0  0  0  0  0
  -15.8668  -28.0817   22.7098 H   0  0  0  0  0  0
  -24.5842  -30.7158   25.7788 H   0  0  0  0  0  0
  -24.8921  -32.2954   26.4885 H   0  0  0  0  0  0
  -25.7981  -30.8936   27.0245 H   0  0  0  0  0  0
  -26.2973  -29.6720   24.1282 H   0  0  0  0  0  0
  -27.3936  -29.7268   25.4884 H   0  0  0  0  0  0
  -27.8890  -30.4227   23.9638 H   0  0  0  0  0  0
  -27.2657  -33.3691   26.2006 H   0  0  0  0  0  0
  -28.3878  -32.6851   25.0342 H   0  0  0  0  0  0
  -28.0672  -31.8526   26.5483 H   0  0  0  0  0  0
  -28.2584  -38.0088   24.7509 H   0  0  0  0  0  0
  -28.1064  -36.2617   24.6289 H   0  0  0  0  0  0
  -27.2296  -37.1443   25.8875 H   0  0  0  0  0  0
  -20.9453  -29.8771   21.6831 H   0  0  0  0  0  0
  -26.0146  -38.2824   24.1414 H   0  0  0  0  0  0
  -29.4596  -18.0974   18.5496 H   0  0  0  0  0  0
  -29.1494  -20.5465   18.5856 H   0  0  0  0  0  0
  -29.9224  -18.0744   22.7889 H   0  0  0  0  0  0
  -28.3589  -24.8222   21.6403 H   0  0  0  0  0  0
  -27.0205  -24.5925   20.6069 H   0  0  0  0  0  0
  -29.8188  -23.6681   19.6735 H   0  0  0  0  0  0
  -28.2846  -23.0667   19.1260 H   0  0  0  0  0  0
  -27.8994  -16.9147   21.4006 H   0  0  0  0  0  0
  -29.3742  -20.1062   23.9394 H   0  0  0  0  0  0
  -29.1747  -21.5801   23.1325 H   0  0  0  0  0  0
  1 25  1  0  0  0
  1 30  2  0  0  0
  1 77  1  0  0  0
  2  3  1  0  0  0
  2 25  1  0  0  0
  2 83  1  0  0  0
  2 84  1  0  0  0
  3  4  1  0  0  0
  3 85  1  0  0  0
  3 86  1  0  0  0
  4  5  1  0  0  0
  4 87  1  0  0  0
  4 88  1  0  0  0
  5  6  1  0  0  0
  5 26  1  0  0  0
  5 89  1  0  0  0
  6 25  1  0  0  0
  6 90  1  0  0  0
  6 91  1  0  0  0
  7  8  2  0  0  0
  7 26  1  0  0  0
  7 29  1  0  0  0
  8  9  1  0  0  0
  8 22  1  0  0  0
  9 10  1  0  0  0
  9 27  2  0  0  0
 10 11  2  0  0  0
 10 15  1  0  0  0
 11 12  1  0  0  0
 11 92  1  0  0  0
 12 13  2  0  0  0
 12 93  1  0  0  0
 13 14  1  0  0  0
 13 31  1  0  0  0
 14 15  2  0  0  0
 14 94  1  0  0  0
 15 95  1  0  0  0
 16 17  2  0  0  0
 16 21  1  0  0  0
 16 31  1  0  0  0
 17 18  1  0  0  0
 17 96  1  0  0  0
 18 19  2  0  0  0
 18 97  1  0  0  0
 19 20  1  0  0  0
 19 24  1  0  0  0
 20 21  2  0  0  0
 20 98  1  0  0  0
 21 23  1  0  0  0
 22 28  1  0  0  0
 22 32  2  0  0  0
 26 27  1  0  0  0
 28 99  1  0  0  0
 28100  1  0  0  0
 29101  1  0  0  0
 29102  1  0  0  0
 33 34  1  0  0  0
 33 66  1  0  0  0
 33 70  2  0  0  0
 34 36  1  0  0  0
 34 59  1  0  0  0
 34103  1  0  0  0
 35 44  2  0  0  0
 35 45  1  0  0  0
 35 68  1  0  0  0
 36 56  1  0  0  0
 36104  1  0  0  0
 37 39  1  0  0  0
 37 47  1  0  0  0
 37 66  1  0  0  0
 37105  1  0  0  0
 38 43  2  0  0  0
 38 46  1  0  0  0
 38 47  1  0  0  0
 39 64  1  0  0  0
 39 67  2  0  0  0
 40 52  1  0  0  0
 40 53  2  0  0  0
 40 58  1  0  0  0
 41106  1  0  0  0
 41107  1  0  0  0
 41108  1  0  0  0
 41 48  1  0  0  0
 42 43  1  0  0  0
 42 66  1  0  0  0
 42109  1  0  0  0
 42110  1  0  0  0
 43 44  1  0  0  0
 44111  1  0  0  0
 45 46  2  0  0  0
 45112  1  0  0  0
 46113  1  0  0  0
 47114  1  0  0  0
 47115  1  0  0  0
 48 56  1  0  0  0
 48 65  1  0  0  0
 48116  1  0  0  0
 49 50  1  0  0  0
 49 53  1  0  0  0
 49 64  1  0  0  0
 49117  1  0  0  0
 50 51  1  0  0  0
 50118  1  0  0  0
 50119  1  0  0  0
 51 52  1  0  0  0
 51120  1  0  0  0
 51121  1  0  0  0
 52122  1  0  0  0
 52123  1  0  0  0
 53 54  1  0  0  0
 54 55  2  0  0  0
 54124  1  0  0  0
 55 57  1  0  0  0
 55125  1  0  0  0
 56 69  2  0  0  0
 57 58  2  0  0  0
 57126  1  0  0  0
 58127  1  0  0  0
 59 60  1  0  0  0
 59 61  1  0  0  0
 59 62  1  0  0  0
 60128  1  0  0  0
 60129  1  0  0  0
 60130  1  0  0  0
 61131  1  0  0  0
 61132  1  0  0  0
 61133  1  0  0  0
 62134  1  0  0  0
 62135  1  0  0  0
 62136  1  0  0  0
 63 65  1  0  0  0
 63137  1  0  0  0
 63138  1  0  0  0
 63139  1  0  0  0
 64140  1  0  0  0
 65141  1  0  0  0
 68 78  1  0  0  0
 71 72  2  0  0  0
 71 74  1  0  0  0
 71142  1  0  0  0
 72 76  1  0  0  0
 72143  1  0  0  0
 73 74  2  0  0  0
 73 75  1  0  0  0
 73144  1  0  0  0
 74 77  1  0  0  0
 75 76  2  0  0  0
 75 81  1  0  0  0
 76 82  1  0  0  0
 77 80  2  0  0  0
 78 79  1  0  0  0
 78145  1  0  0  0
 78146  1  0  0  0
 79 82  1  0  0  0
 79147  1  0  0  0
 79148  1  0  0  0
 80149  1  0  0  0
 81150  1  0  0  0
 81151  1  0  0  0
M  ISO  4   1 100  68 101  77 100  78 101
M  END
> <chiral flag>
0

> <version>
0

> <s_m_source_file>
/data/baiqing/PycharmProjects/Reinvent-master-3.2/result/LINK_invent/BTK/process_docking_weight1_custom_product_contain_oxygen_bond_distance_aromatic_linkinvent_7_9_3/rearranged_h_0090.sdf

> <i_m_source_file_index>
19

> <r_mmod_Potential_Energy-OPLS-2005>
542.223388671875

> <r_mmod_Stretch_Energy-OPLS-2005>
209.972640991211

> <r_mmod_Bend_Energy-OPLS-2005>
284.599548339844

> <r_mmod_Torsional_Energy-OPLS-2005>
235.983047485352

> <r_mmod_Improper_Torsional_Energy-OPLS-2005>
12.9729614257812

> <r_mmod_Van_der_Waal_Energy-OPLS-2005>
145.900619506836

> <r_mmod_Electrostatic_Energy-OPLS-2005>
-288.401550292969

> <r_mmod_Solvation_Energy-OPLS-2005>
-208.859939575195

> <b_mmod_Minimization_Converged-OPLS-2005>
0

> <r_mmod_RMS_Derivative-OPLS-2005>
1.29027652740479

$$$$
19
                    3D
 Structure written by MMmdl.
155164  0  0  1  0            999 V2000
  -30.6127  -14.8296   20.4933 C   0  0  0  0  0  0
  -30.4336  -12.5228   19.4860 C   0  0  0  0  0  0
  -29.5150  -12.5339   18.2432 C   0  0  0  0  0  0
  -28.0422  -12.3404   18.6503 C   0  0  0  0  0  0
  -27.6369  -13.2409   19.8452 C   0  0  2  0  0  0
  -28.6767  -13.1852   20.9799 C   0  0  0  0  0  0
  -25.2488  -13.8215   20.5698 C   0  0  0  0  0  0
  -24.1785  -13.0449   20.9199 C   0  0  0  0  0  0
  -24.6387  -11.6929   20.8725 C   0  0  0  0  0  0
  -23.9069  -10.4300   21.0395 C   0  0  0  0  0  0
  -24.3621   -9.4214   21.9170 C   0  0  0  0  0  0
  -23.6299   -8.2249   22.0747 C   0  0  0  0  0  0
  -22.4277   -8.0284   21.3545 C   0  0  0  0  0  0
  -21.9910   -9.0254   20.4643 C   0  0  0  0  0  0
  -22.7239  -10.2135   20.3048 C   0  0  0  0  0  0
  -21.6853   -6.0736   22.5279 C   0  0  0  0  0  0
  -21.4012   -6.5641   23.8213 C   0  0  0  0  0  0
  -21.3663   -5.6793   24.9175 C   0  0  0  0  0  0
  -21.6043   -4.3055   24.7223 C   0  0  0  0  0  0
  -21.8819   -3.8147   23.4344 C   0  0  0  0  0  0
  -21.9191   -4.6964   22.3401 C   0  0  0  0  0  0
  -22.7805  -13.5220   21.1875 C   0  0  0  0  0  0
  -22.1658   -4.2152   21.0978 F   0  0  0  0  0  0
  -21.5634   -3.4538   25.7732 F   0  0  0  0  0  0
  -29.9712  -13.5960   20.4107 N   0  0  0  0  0  0
  -26.2907  -12.9432   20.3239 N   0  0  0  0  0  0
  -25.9314  -11.6565   20.5706 N   0  0  0  0  0  0
  -22.0463  -12.8203   22.0438 N   0  0  0  0  0  0
  -25.4206  -15.1942   20.4171 N   0  0  0  0  0  0
  -31.7807  -14.8902   20.0938 O   0  0  0  0  0  0
  -21.6645   -6.8877   21.4239 O   0  0  0  0  0  0
  -22.3475  -14.5517   20.6719 O   0  0  0  0  0  0
  -24.6379  -31.8493   23.1936 C   0  0  0  0  0  0
  -25.9178  -32.4722   23.8310 C   0  0  1  0  0  0
  -27.2209  -27.2080   20.1373 C   0  0  0  0  0  0
  -25.5954  -33.8530   24.2233 N   0  0  0  0  0  0
  -23.4393  -30.4705   21.5369 C   0  0  2  0  0  0
  -24.8904  -28.9085   20.1100 C   0  0  0  0  0  0
  -22.7541  -29.4581   22.4882 C   0  0  0  0  0  0
  -18.0301  -28.1393   22.8480 C   0  0  0  0  0  0
  -24.1489  -36.7268   23.2642 C   0  0  0  0  0  0
  -25.9906  -30.7445   21.3840 C   0  0  0  0  0  0
  -26.0654  -29.3620   20.7259 C   0  0  0  0  0  0
  -27.2370  -28.5244   20.7292 C   0  0  0  0  0  0
  -26.0250  -26.8372   19.4898 C   0  0  0  0  0  0
  -24.8776  -27.6552   19.4795 C   0  0  0  0  0  0
  -23.6626  -29.8010   20.1551 C   0  0  0  0  0  0
  -25.4115  -36.3053   24.0328 C   0  0  1  0  0  0
  -20.5913  -28.3719   23.1246 C   0  0  2  0  0  0
  -20.6786  -26.9427   22.5411 C   0  0  0  0  0  0
  -19.5761  -26.6384   21.5216 C   0  0  0  0  0  0
  -18.1940  -26.7936   22.1623 C   0  0  0  0  0  0
  -19.1556  -28.8875   23.2855 C   0  0  0  0  0  0
  -18.9473  -30.1469   23.8877 C   0  0  0  0  0  0
  -17.6471  -30.6591   24.0562 C   0  0  0  0  0  0
  -25.9063  -34.9425   23.5086 C   0  0  0  0  0  0
  -16.5362  -29.9084   23.6335 C   0  0  0  0  0  0
  -16.7284  -28.6502   23.0357 C   0  0  0  0  0  0
  -26.4515  -31.6575   25.0730 C   0  0  0  0  0  0
  -25.3715  -31.3757   26.1435 C   0  0  0  0  0  0
  -27.0370  -30.2975   24.6285 C   0  0  0  0  0  0
  -27.6060  -32.4331   25.7503 C   0  0  0  0  0  0
  -27.5576  -37.1784   24.8459 C   0  0  0  0  0  0
  -21.4242  -29.3055   22.3623 N   0  0  0  0  0  0
  -26.4279  -37.3763   23.9415 N   0  0  0  0  0  0
  -24.7086  -31.0407   22.0941 N   0  0  0  0  0  0
  -23.4210  -28.8128   23.3011 O   0  0  0  0  0  0
  -28.2467  -26.2172   20.1726 O   0  0  0  0  0  0
  -26.5639  -34.8912   22.4655 O   0  0  0  0  0  0
  -23.5513  -32.1344   23.7191 O   0  0  0  0  0  0
  -30.6198  -18.7125   18.2415 C   0  0  0  0  0  0
  -30.1299  -19.9196   18.7818 C   0  0  0  0  0  0
  -30.5289  -17.4849   18.9275 C   0  0  0  0  0  0
  -29.4971  -19.9767   20.0455 C   0  0  0  0  0  0
  -29.9533  -17.3831   20.2150 C   0  0  0  0  0  0
  -29.4217  -18.6685   20.7374 C   0  0  0  0  0  0
  -28.2527  -23.6221   20.8696 C   0  0  0  0  0  0
  -27.6779  -22.7787   21.9139 C   0  0  0  0  0  0
  -29.0466  -22.6443   20.0401 C   0  0  0  0  0  0
  -27.9484  -25.0064   20.8906 C   0  0  0  0  0  0
  -28.1233  -21.3352   21.7454 C   0  0  0  0  0  0
  -29.5522  -16.0214   22.3086 C   0  0  0  0  0  0
  -28.9510  -21.3170   20.5388 N   0  0  0  0  0  0
  -29.9377  -16.0123   20.8918 N   0  0  0  0  0  0
  -26.9334  -23.1329   22.8359 O   0  0  0  0  0  0
  -29.7066  -22.9636   19.0451 O   0  0  0  0  0  0
  -28.8056  -18.6513   21.9423 F   0  0  0  0  0  0
  -31.4709  -12.6571   19.1765 H   0  0  0  0  0  0
  -30.4026  -11.5500   19.9794 H   0  0  0  0  0  0
  -29.8158  -11.7543   17.5417 H   0  0  0  0  0  0
  -29.6264  -13.4815   17.7136 H   0  0  0  0  0  0
  -27.9092  -11.2917   18.9175 H   0  0  0  0  0  0
  -27.3852  -12.5230   17.7989 H   0  0  0  0  0  0
  -27.6275  -14.2636   19.4661 H   0  0  0  0  0  0
  -28.7411  -12.1790   21.3977 H   0  0  0  0  0  0
  -28.3530  -13.8208   21.7990 H   0  0  0  0  0  0
  -25.2766   -9.5694   22.4741 H   0  0  0  0  0  0
  -24.0011   -7.4638   22.7462 H   0  0  0  0  0  0
  -21.0842   -8.8769   19.8948 H   0  0  0  0  0  0
  -22.3690  -10.9671   19.6156 H   0  0  0  0  0  0
  -21.1999   -7.6149   23.9719 H   0  0  0  0  0  0
  -21.1488   -6.0521   25.9079 H   0  0  0  0  0  0
  -22.0594   -2.7612   23.2840 H   0  0  0  0  0  0
  -22.4095  -11.9870   22.4820 H   0  0  0  0  0  0
  -21.1078  -13.1216   22.2660 H   0  0  0  0  0  0
  -24.6623  -15.8552   20.5433 H   0  0  0  0  0  0
  -26.2869  -15.6347   20.1340 H   0  0  0  0  0  0
  -26.7252  -32.5351   23.1057 H   0  0  0  0  0  0
  -25.0092  -33.9661   25.0376 H   0  0  0  0  0  0
  -22.7395  -31.2950   21.3849 H   0  0  0  0  0  0
  -23.3760  -35.9591   23.3284 H   0  0  0  0  0  0
  -24.3577  -36.8909   22.2059 H   0  0  0  0  0  0
  -23.7233  -37.6458   23.6680 H   0  0  0  0  0  0
  -26.1389  -31.5022   20.6137 H   0  0  0  0  0  0
  -26.8638  -30.7942   22.0222 H   0  0  0  0  0  0
  -28.1332  -28.8616   21.2308 H   0  0  0  0  0  0
  -25.9649  -25.8675   19.0159 H   0  0  0  0  0  0
  -23.9789  -27.3006   18.9929 H   0  0  0  0  0  0
  -23.7916  -30.5747   19.3975 H   0  0  0  0  0  0
  -22.7805  -29.2363   19.8477 H   0  0  0  0  0  0
  -25.1299  -36.1885   25.0821 H   0  0  0  0  0  0
  -21.0006  -28.3301   24.1367 H   0  0  0  0  0  0
  -20.5671  -26.2335   23.3628 H   0  0  0  0  0  0
  -21.6647  -26.7429   22.1204 H   0  0  0  0  0  0
  -19.6912  -25.6286   21.1258 H   0  0  0  0  0  0
  -19.6689  -27.3183   20.6736 H   0  0  0  0  0  0
  -17.4211  -26.6693   21.4027 H   0  0  0  0  0  0
  -18.0324  -26.0079   22.9015 H   0  0  0  0  0  0
  -19.7949  -30.7293   24.2238 H   0  0  0  0  0  0
  -17.5023  -31.6264   24.5170 H   0  0  0  0  0  0
  -15.5360  -30.2981   23.7667 H   0  0  0  0  0  0
  -15.8687  -28.0814   22.7086 H   0  0  0  0  0  0
  -24.5917  -30.7073   25.7771 H   0  0  0  0  0  0
  -24.8873  -32.2932   26.4790 H   0  0  0  0  0  0
  -25.8015  -30.8994   27.0255 H   0  0  0  0  0  0
  -26.2982  -29.6708   24.1276 H   0  0  0  0  0  0
  -27.3976  -29.7266   25.4853 H   0  0  0  0  0  0
  -27.8896  -30.4218   23.9604 H   0  0  0  0  0  0
  -27.2667  -33.3652   26.2034 H   0  0  0  0  0  0
  -28.3886  -32.6854   25.0337 H   0  0  0  0  0  0
  -28.0707  -31.8483   26.5450 H   0  0  0  0  0  0
  -28.2576  -38.0095   24.7518 H   0  0  0  0  0  0
  -28.1088  -36.2628   24.6264 H   0  0  0  0  0  0
  -27.2298  -37.1398   25.8861 H   0  0  0  0  0  0
  -20.9451  -29.8773   21.6808 H   0  0  0  0  0  0
  -26.0150  -38.2831   24.1430 H   0  0  0  0  0  0
  -31.0819  -18.7286   17.2636 H   0  0  0  0  0  0
  -30.2423  -20.8031   18.1738 H   0  0  0  0  0  0
  -30.9317  -16.6143   18.4312 H   0  0  0  0  0  0
  -27.2996  -25.3079   21.7025 H   0  0  0  0  0  0
  -27.2553  -20.6860   21.6304 H   0  0  0  0  0  0
  -28.6959  -21.0227   22.6185 H   0  0  0  0  0  0
  -30.0630  -16.8283   22.8348 H   0  0  0  0  0  0
  -29.8237  -15.1117   22.8491 H   0  0  0  0  0  0
  -28.4761  -16.1651   22.4148 H   0  0  0  0  0  0
  1 25  1  0  0  0
  1 30  2  0  0  0
  1 84  1  0  0  0
  2  3  1  0  0  0
  2 25  1  0  0  0
  2 88  1  0  0  0
  2 89  1  0  0  0
  3  4  1  0  0  0
  3 90  1  0  0  0
  3 91  1  0  0  0
  4  5  1  0  0  0
  4 92  1  0  0  0
  4 93  1  0  0  0
  5  6  1  0  0  0
  5 26  1  0  0  0
  5 94  1  0  0  0
  6 25  1  0  0  0
  6 95  1  0  0  0
  6 96  1  0  0  0
  7  8  2  0  0  0
  7 26  1  0  0  0
  7 29  1  0  0  0
  8  9  1  0  0  0
  8 22  1  0  0  0
  9 10  1  0  0  0
  9 27  2  0  0  0
 10 11  2  0  0  0
 10 15  1  0  0  0
 11 12  1  0  0  0
 11 97  1  0  0  0
 12 13  2  0  0  0
 12 98  1  0  0  0
 13 14  1  0  0  0
 13 31  1  0  0  0
 14 15  2  0  0  0
 14 99  1  0  0  0
 15100  1  0  0  0
 16 17  2  0  0  0
 16 21  1  0  0  0
 16 31  1  0  0  0
 17 18  1  0  0  0
 17101  1  0  0  0
 18 19  2  0  0  0
 18102  1  0  0  0
 19 20  1  0  0  0
 19 24  1  0  0  0
 20 21  2  0  0  0
 20103  1  0  0  0
 21 23  1  0  0  0
 22 28  1  0  0  0
 22 32  2  0  0  0
 26 27  1  0  0  0
 28104  1  0  0  0
 28105  1  0  0  0
 29106  1  0  0  0
 29107  1  0  0  0
 33 34  1  0  0  0
 33 66  1  0  0  0
 33 70  2  0  0  0
 34 36  1  0  0  0
 34 59  1  0  0  0
 34108  1  0  0  0
 35 44  2  0  0  0
 35 45  1  0  0  0
 35 68  1  0  0  0
 36 56  1  0  0  0
 36109  1  0  0  0
 37 39  1  0  0  0
 37 47  1  0  0  0
 37 66  1  0  0  0
 37110  1  0  0  0
 38 43  2  0  0  0
 38 46  1  0  0  0
 38 47  1  0  0  0
 39 64  1  0  0  0
 39 67  2  0  0  0
 40 52  1  0  0  0
 40 53  2  0  0  0
 40 58  1  0  0  0
 41111  1  0  0  0
 41112  1  0  0  0
 41113  1  0  0  0
 41 48  1  0  0  0
 42 43  1  0  0  0
 42 66  1  0  0  0
 42114  1  0  0  0
 42115  1  0  0  0
 43 44  1  0  0  0
 44116  1  0  0  0
 45 46  2  0  0  0
 45117  1  0  0  0
 46118  1  0  0  0
 47119  1  0  0  0
 47120  1  0  0  0
 48 56  1  0  0  0
 48 65  1  0  0  0
 48121  1  0  0  0
 49 50  1  0  0  0
 49 53  1  0  0  0
 49 64  1  0  0  0
 49122  1  0  0  0
 50 51  1  0  0  0
 50123  1  0  0  0
 50124  1  0  0  0
 51 52  1  0  0  0
 51125  1  0  0  0
 51126  1  0  0  0
 52127  1  0  0  0
 52128  1  0  0  0
 53 54  1  0  0  0
 54 55  2  0  0  0
 54129  1  0  0  0
 55 57  1  0  0  0
 55130  1  0  0  0
 56 69  2  0  0  0
 57 58  2  0  0  0
 57131  1  0  0  0
 58132  1  0  0  0
 59 60  1  0  0  0
 59 61  1  0  0  0
 59 62  1  0  0  0
 60133  1  0  0  0
 60134  1  0  0  0
 60135  1  0  0  0
 61136  1  0  0  0
 61137  1  0  0  0
 61138  1  0  0  0
 62139  1  0  0  0
 62140  1  0  0  0
 62141  1  0  0  0
 63 65  1  0  0  0
 63142  1  0  0  0
 63143  1  0  0  0
 63144  1  0  0  0
 64145  1  0  0  0
 65146  1  0  0  0
 68 80  1  0  0  0
 71 72  2  0  0  0
 71 73  1  0  0  0
 71147  1  0  0  0
 72 74  1  0  0  0
 72148  1  0  0  0
 73 75  2  0  0  0
 73149  1  0  0  0
 74 76  2  0  0  0
 74 83  1  0  0  0
 75 76  1  0  0  0
 75 84  1  0  0  0
 76 87  1  0  0  0
 77 78  1  0  0  0
 77 79  1  0  0  0
 77 80  2  0  0  0
 78 81  1  0  0  0
 78 85  2  0  0  0
 79 83  1  0  0  0
 79 86  2  0  0  0
 80150  1  0  0  0
 81 83  1  0  0  0
 81151  1  0  0  0
 81152  1  0  0  0
 82 84  1  0  0  0
 82153  1  0  0  0
 82154  1  0  0  0
 82155  1  0  0  0
M  ISO  4   1 100  68 101  80 101  84 100
M  END
> <chiral flag>
0

> <version>
0

> <s_m_source_file>
/data/baiqing/PycharmProjects/Reinvent-master-3.2/result/LINK_invent/BTK/process_docking_weight1_custom_product_contain_oxygen_bond_distance_aromatic_linkinvent_7_9_3/rearranged_h_0090.sdf

> <i_m_source_file_index>
20

> <r_mmod_Potential_Energy-OPLS-2005>
536.594970703125

> <r_mmod_Stretch_Energy-OPLS-2005>
191.479675292969

> <r_mmod_Bend_Energy-OPLS-2005>
288.360687255859

> <r_mmod_Torsional_Energy-OPLS-2005>
309.890563964844

> <r_mmod_Improper_Torsional_Energy-OPLS-2005>
3.67642736434937

> <r_mmod_Van_der_Waal_Energy-OPLS-2005>
151.537628173828

> <r_mmod_Electrostatic_Energy-OPLS-2005>
-322.290466308594

> <r_mmod_Solvation_Energy-OPLS-2005>
-212.2138671875

> <b_mmod_Minimization_Converged-OPLS-2005>
0

> <r_mmod_RMS_Derivative-OPLS-2005>
1.02926921844482

$$$$
20
                    3D
 Structure written by MMmdl.
159167  0  0  1  0            999 V2000
  -30.7364  -14.4373   20.5768 C   0  0  0  0  0  0
  -30.4140  -12.2920   19.4168 C   0  0  0  0  0  0
  -29.4891  -12.5044   18.2018 C   0  0  0  0  0  0
  -28.0128  -12.3635   18.6171 C   0  0  0  0  0  0
  -27.6618  -13.2067   19.8724 C   0  0  2  0  0  0
  -28.7033  -12.9934   20.9950 C   0  0  0  0  0  0
  -25.2585  -13.8150   20.5666 C   0  0  0  0  0  0
  -24.1835  -13.0432   20.9158 C   0  0  0  0  0  0
  -24.6388  -11.6898   20.8716 C   0  0  0  0  0  0
  -23.9048  -10.4291   21.0385 C   0  0  0  0  0  0
  -24.3599   -9.4220   21.9181 C   0  0  0  0  0  0
  -23.6280   -8.2253   22.0755 C   0  0  0  0  0  0
  -22.4265   -8.0278   21.3536 C   0  0  0  0  0  0
  -21.9895   -9.0245   20.4634 C   0  0  0  0  0  0
  -22.7216  -10.2129   20.3036 C   0  0  0  0  0  0
  -21.6854   -6.0736   22.5280 C   0  0  0  0  0  0
  -21.4013   -6.5639   23.8213 C   0  0  0  0  0  0
  -21.3655   -5.6787   24.9177 C   0  0  0  0  0  0
  -21.6042   -4.3051   24.7225 C   0  0  0  0  0  0
  -21.8821   -3.8142   23.4346 C   0  0  0  0  0  0
  -21.9195   -4.6961   22.3400 C   0  0  0  0  0  0
  -22.7862  -13.5246   21.1817 C   0  0  0  0  0  0
  -22.1664   -4.2144   21.0978 F   0  0  0  0  0  0
  -21.5628   -3.4535   25.7737 F   0  0  0  0  0  0
  -30.0381  -13.2780   20.4422 N   0  0  0  0  0  0
  -26.3031  -12.9323   20.3356 N   0  0  0  0  0  0
  -25.9317  -11.6483   20.5739 N   0  0  0  0  0  0
  -22.0486  -12.8230   22.0349 N   0  0  0  0  0  0
  -25.4317  -15.1867   20.4091 N   0  0  0  0  0  0
  -31.8547  -14.5890   20.0781 O   0  0  0  0  0  0
  -21.6629   -6.8873   21.4234 O   0  0  0  0  0  0
  -22.3573  -14.5576   20.6688 O   0  0  0  0  0  0
  -24.6113  -31.8708   23.2122 C   0  0  0  0  0  0
  -25.9015  -32.4835   23.8423 C   0  0  1  0  0  0
  -27.2520  -27.4667   20.0962 C   0  0  0  0  0  0
  -25.5891  -33.8635   24.2364 N   0  0  0  0  0  0
  -23.4001  -30.4912   21.5516 C   0  0  2  0  0  0
  -24.8529  -28.9589   20.1242 C   0  0  0  0  0  0
  -22.7401  -29.4670   22.5020 C   0  0  0  0  0  0
  -18.0262  -28.1399   22.8498 C   0  0  0  0  0  0
  -24.1489  -36.7310   23.2631 C   0  0  0  0  0  0
  -25.9234  -30.8457   21.3611 C   0  0  0  0  0  0
  -26.0084  -29.4773   20.7228 C   0  0  0  0  0  0
  -27.2102  -28.7367   20.7199 C   0  0  0  0  0  0
  -26.0814  -26.9601   19.4983 C   0  0  0  0  0  0
  -24.8808  -27.6938   19.5137 C   0  0  0  0  0  0
  -23.6121  -29.8202   20.1675 C   0  0  0  0  0  0
  -25.4097  -36.3115   24.0348 C   0  0  1  0  0  0
  -20.5851  -28.3673   23.1340 C   0  0  2  0  0  0
  -20.6760  -26.9410   22.5441 C   0  0  0  0  0  0
  -19.5740  -26.6409   21.5235 C   0  0  0  0  0  0
  -18.1910  -26.7954   22.1619 C   0  0  0  0  0  0
  -19.1513  -28.8846   23.2923 C   0  0  0  0  0  0
  -18.9443  -30.1450   23.8937 C   0  0  0  0  0  0
  -17.6447  -30.6597   24.0582 C   0  0  0  0  0  0
  -25.9021  -34.9476   23.5148 C   0  0  0  0  0  0
  -16.5337  -29.9113   23.6324 C   0  0  0  0  0  0
  -16.7250  -28.6534   23.0334 C   0  0  0  0  0  0
  -26.4464  -31.6575   25.0719 C   0  0  0  0  0  0
  -25.3731  -31.3646   26.1453 C   0  0  0  0  0  0
  -27.0280  -30.3033   24.6017 C   0  0  0  0  0  0
  -27.6068  -32.4248   25.7483 C   0  0  0  0  0  0
  -27.5586  -37.1800   24.8449 C   0  0  0  0  0  0
  -21.4129  -29.3050   22.3761 N   0  0  0  0  0  0
  -26.4287  -37.3796   23.9419 N   0  0  0  0  0  0
  -24.6628  -31.0835   22.1016 N   0  0  0  0  0  0
  -23.4182  -28.8215   23.3057 O   0  0  0  0  0  0
  -28.3698  -26.6679   20.0031 O   0  0  0  0  0  0
  -26.5579  -34.8926   22.4707 O   0  0  0  0  0  0
  -23.5314  -32.1455   23.7534 O   0  0  0  0  0  0
  -32.1046  -18.6364   20.9392 C   0  0  0  0  0  0
  -31.7773  -17.2847   21.1572 C   0  0  0  0  0  0
  -29.4231  -17.8061   20.8548 C   0  0  0  0  0  0
  -31.1006  -19.5862   20.6496 C   0  0  0  0  0  0
  -30.4363  -16.8404   21.0651 C   0  0  0  0  0  0
  -29.7486  -19.1666   20.6418 C   0  0  0  0  0  0
  -31.5118  -20.9583   20.3108 C   0  0  0  0  0  0
  -30.1882  -24.4564   20.9361 C   0  0  0  0  0  0
  -30.5712  -25.8865   20.5001 C   0  0  0  0  0  0
  -31.3003  -23.4550   20.5835 C   0  0  0  0  0  0
  -29.5096  -26.9585   20.7979 C   0  0  0  0  0  0
  -32.5220  -21.1308   19.4539 N   0  0  0  0  0  0
  -30.0867  -15.4567   21.1716 N   0  0  0  0  0  0
  -30.9270  -22.0485   20.8406 N   0  3  0  0  0  0
  -28.7516  -20.0525   20.3941 F   0  0  0  0  0  0
  -31.4602  -12.3696   19.1148 H   0  0  0  0  0  0
  -30.2992  -11.2820   19.8124 H   0  0  0  0  0  0
  -29.7260  -11.7853   17.4160 H   0  0  0  0  0  0
  -29.6574  -13.4932   17.7721 H   0  0  0  0  0  0
  -27.8268  -11.3073   18.8158 H   0  0  0  0  0  0
  -27.3596  -12.6345   17.7862 H   0  0  0  0  0  0
  -27.7052  -14.2535   19.5710 H   0  0  0  0  0  0
  -28.6706  -11.9612   21.3465 H   0  0  0  0  0  0
  -28.4677  -13.6048   21.8670 H   0  0  0  0  0  0
  -25.2747   -9.5702   22.4751 H   0  0  0  0  0  0
  -23.9981   -7.4650   22.7488 H   0  0  0  0  0  0
  -21.0823   -8.8750   19.8943 H   0  0  0  0  0  0
  -22.3675  -10.9652   19.6126 H   0  0  0  0  0  0
  -21.2004   -7.6147   23.9710 H   0  0  0  0  0  0
  -21.1472   -6.0524   25.9076 H   0  0  0  0  0  0
  -22.0604   -2.7603   23.2845 H   0  0  0  0  0  0
  -22.4069  -11.9866   22.4704 H   0  0  0  0  0  0
  -21.1094  -13.1238   22.2512 H   0  0  0  0  0  0
  -24.6602  -15.8378   20.5040 H   0  0  0  0  0  0
  -26.2767  -15.6215   20.0616 H   0  0  0  0  0  0
  -26.7104  -32.5587   23.1218 H   0  0  0  0  0  0
  -25.0029  -33.9812   25.0498 H   0  0  0  0  0  0
  -22.6871  -31.3052   21.4096 H   0  0  0  0  0  0
  -23.3773  -35.9618   23.3255 H   0  0  0  0  0  0
  -24.3615  -36.8962   22.2059 H   0  0  0  0  0  0
  -23.7206  -37.6496   23.6651 H   0  0  0  0  0  0
  -26.0188  -31.6011   20.5803 H   0  0  0  0  0  0
  -26.8185  -30.9184   21.9668 H   0  0  0  0  0  0
  -28.0909  -29.1565   21.1837 H   0  0  0  0  0  0
  -26.1052  -25.9917   19.0177 H   0  0  0  0  0  0
  -23.9933  -27.2850   19.0514 H   0  0  0  0  0  0
  -23.7210  -30.5927   19.4048 H   0  0  0  0  0  0
  -22.7393  -29.2362   19.8687 H   0  0  0  0  0  0
  -25.1273  -36.1981   25.0844 H   0  0  0  0  0  0
  -20.9929  -28.3237   24.1466 H   0  0  0  0  0  0
  -20.5677  -26.2282   23.3629 H   0  0  0  0  0  0
  -21.6623  -26.7473   22.1208 H   0  0  0  0  0  0
  -19.6896  -25.6336   21.1232 H   0  0  0  0  0  0
  -19.6690  -27.3253   20.6797 H   0  0  0  0  0  0
  -17.4190  -26.6732   21.4009 H   0  0  0  0  0  0
  -18.0282  -26.0094   22.9003 H   0  0  0  0  0  0
  -19.7919  -30.7257   24.2331 H   0  0  0  0  0  0
  -17.5002  -31.6275   24.5197 H   0  0  0  0  0  0
  -15.5340  -30.3028   23.7642 H   0  0  0  0  0  0
  -15.8645  -28.0877   22.7013 H   0  0  0  0  0  0
  -24.5946  -30.6952   25.7766 H   0  0  0  0  0  0
  -24.8860  -32.2782   26.4871 H   0  0  0  0  0  0
  -25.8083  -30.8833   27.0216 H   0  0  0  0  0  0
  -26.2801  -29.6830   24.1055 H   0  0  0  0  0  0
  -27.4094  -29.7218   25.4420 H   0  0  0  0  0  0
  -27.8617  -30.4409   23.9123 H   0  0  0  0  0  0
  -27.2733  -33.3574   26.2041 H   0  0  0  0  0  0
  -28.3886  -32.6735   25.0294 H   0  0  0  0  0  0
  -28.0694  -31.8341   26.5403 H   0  0  0  0  0  0
  -28.2540  -38.0156   24.7543 H   0  0  0  0  0  0
  -28.1150  -36.2689   24.6188 H   0  0  0  0  0  0
  -27.2327  -37.1321   25.8857 H   0  0  0  0  0  0
  -20.9296  -29.8778   21.6985 H   0  0  0  0  0  0
  -26.0183  -38.2878   24.1445 H   0  0  0  0  0  0
  -33.1427  -18.9372   20.9757 H   0  0  0  0  0  0
  -32.5817  -16.5912   21.3609 H   0  0  0  0  0  0
  -28.3859  -17.5105   20.8089 H   0  0  0  0  0  0
  -29.2572  -24.1599   20.4501 H   0  0  0  0  0  0
  -30.0008  -24.4408   22.0102 H   0  0  0  0  0  0
  -30.7835  -25.8908   19.4292 H   0  0  0  0  0  0
  -31.5039  -26.1700   20.9890 H   0  0  0  0  0  0
  -32.2140  -23.6964   21.1304 H   0  0  0  0  0  0
  -31.5340  -23.5701   19.5238 H   0  0  0  0  0  0
  -29.9139  -27.9384   20.5388 H   0  0  0  0  0  0
  -29.2538  -26.9665   21.8577 H   0  0  0  0  0  0
  -32.9275  -20.3238   19.0029 H   0  0  0  0  0  0
  -32.8651  -22.0392   19.1926 H   0  0  0  0  0  0
  -29.1531  -15.2437   21.4868 H   0  0  0  0  0  0
  -30.2201  -21.8803   21.5461 H   0  0  0  0  0  0
  1 25  1  0  0  0
  1 30  2  0  0  0
  1 83  1  0  0  0
  2  3  1  0  0  0
  2 25  1  0  0  0
  2 86  1  0  0  0
  2 87  1  0  0  0
  3  4  1  0  0  0
  3 88  1  0  0  0
  3 89  1  0  0  0
  4  5  1  0  0  0
  4 90  1  0  0  0
  4 91  1  0  0  0
  5  6  1  0  0  0
  5 26  1  0  0  0
  5 92  1  0  0  0
  6 25  1  0  0  0
  6 93  1  0  0  0
  6 94  1  0  0  0
  7  8  2  0  0  0
  7 26  1  0  0  0
  7 29  1  0  0  0
  8  9  1  0  0  0
  8 22  1  0  0  0
  9 10  1  0  0  0
  9 27  2  0  0  0
 10 11  2  0  0  0
 10 15  1  0  0  0
 11 12  1  0  0  0
 11 95  1  0  0  0
 12 13  2  0  0  0
 12 96  1  0  0  0
 13 14  1  0  0  0
 13 31  1  0  0  0
 14 15  2  0  0  0
 14 97  1  0  0  0
 15 98  1  0  0  0
 16 17  2  0  0  0
 16 21  1  0  0  0
 16 31  1  0  0  0
 17 18  1  0  0  0
 17 99  1  0  0  0
 18 19  2  0  0  0
 18100  1  0  0  0
 19 20  1  0  0  0
 19 24  1  0  0  0
 20 21  2  0  0  0
 20101  1  0  0  0
 21 23  1  0  0  0
 22 28  1  0  0  0
 22 32  2  0  0  0
 26 27  1  0  0  0
 28102  1  0  0  0
 28103  1  0  0  0
 29104  1  0  0  0
 29105  1  0  0  0
 33 34  1  0  0  0
 33 66  1  0  0  0
 33 70  2  0  0  0
 34 36  1  0  0  0
 34 59  1  0  0  0
 34106  1  0  0  0
 35 44  2  0  0  0
 35 45  1  0  0  0
 35 68  1  0  0  0
 36 56  1  0  0  0
 36107  1  0  0  0
 37 39  1  0  0  0
 37 47  1  0  0  0
 37 66  1  0  0  0
 37108  1  0  0  0
 38 43  2  0  0  0
 38 46  1  0  0  0
 38 47  1  0  0  0
 39 64  1  0  0  0
 39 67  2  0  0  0
 40 52  1  0  0  0
 40 53  2  0  0  0
 40 58  1  0  0  0
 41109  1  0  0  0
 41110  1  0  0  0
 41111  1  0  0  0
 41 48  1  0  0  0
 42 43  1  0  0  0
 42 66  1  0  0  0
 42112  1  0  0  0
 42113  1  0  0  0
 43 44  1  0  0  0
 44114  1  0  0  0
 45 46  2  0  0  0
 45115  1  0  0  0
 46116  1  0  0  0
 47117  1  0  0  0
 47118  1  0  0  0
 48 56  1  0  0  0
 48 65  1  0  0  0
 48119  1  0  0  0
 49 50  1  0  0  0
 49 53  1  0  0  0
 49 64  1  0  0  0
 49120  1  0  0  0
 50 51  1  0  0  0
 50121  1  0  0  0
 50122  1  0  0  0
 51 52  1  0  0  0
 51123  1  0  0  0
 51124  1  0  0  0
 52125  1  0  0  0
 52126  1  0  0  0
 53 54  1  0  0  0
 54 55  2  0  0  0
 54127  1  0  0  0
 55 57  1  0  0  0
 55128  1  0  0  0
 56 69  2  0  0  0
 57 58  2  0  0  0
 57129  1  0  0  0
 58130  1  0  0  0
 59 60  1  0  0  0
 59 61  1  0  0  0
 59 62  1  0  0  0
 60131  1  0  0  0
 60132  1  0  0  0
 60133  1  0  0  0
 61134  1  0  0  0
 61135  1  0  0  0
 61136  1  0  0  0
 62137  1  0  0  0
 62138  1  0  0  0
 62139  1  0  0  0
 63 65  1  0  0  0
 63140  1  0  0  0
 63141  1  0  0  0
 63142  1  0  0  0
 64143  1  0  0  0
 65144  1  0  0  0
 68 81  1  0  0  0
 71 72  2  0  0  0
 71 74  1  0  0  0
 71145  1  0  0  0
 72 75  1  0  0  0
 72146  1  0  0  0
 73 75  2  0  0  0
 73 76  1  0  0  0
 73147  1  0  0  0
 74 76  2  0  0  0
 74 77  1  0  0  0
 75 83  1  0  0  0
 76 85  1  0  0  0
 77 82  1  0  0  0
 77 84  2  0  0  0
 78 79  1  0  0  0
 78 80  1  0  0  0
 78148  1  0  0  0
 78149  1  0  0  0
 79 81  1  0  0  0
 79150  1  0  0  0
 79151  1  0  0  0
 80 84  1  0  0  0
 80152  1  0  0  0
 80153  1  0  0  0
 81154  1  0  0  0
 81155  1  0  0  0
 82156  1  0  0  0
 82157  1  0  0  0
 83158  1  0  0  0
 84159  1  0  0  0
M  CHG  1  84   1
M  ISO  4   1 100  68 101  81 101  83 100
M  END
> <chiral flag>
0

> <version>
0

> <s_m_source_file>
/data/baiqing/PycharmProjects/Reinvent-master-3.2/result/LINK_invent/BTK/process_docking_weight1_custom_product_contain_oxygen_bond_distance_aromatic_linkinvent_7_9_3/rearranged_h_0090.sdf

> <i_m_source_file_index>
21

> <r_mmod_Potential_Energy-OPLS-2005>
-236.167892456055

> <r_mmod_Stretch_Energy-OPLS-2005>
34.2168846130371

> <r_mmod_Bend_Energy-OPLS-2005>
99.013786315918

> <r_mmod_Torsional_Energy-OPLS-2005>
213.083480834961

> <r_mmod_Improper_Torsional_Energy-OPLS-2005>
4.12811517715454

> <r_mmod_Van_der_Waal_Energy-OPLS-2005>
161.762313842773

> <r_mmod_Electrostatic_Energy-OPLS-2005>
-351.177703857422

> <r_mmod_Solvation_Energy-OPLS-2005>
-407.057647705078

> <b_mmod_Minimization_Converged-OPLS-2005>
0

> <r_mmod_RMS_Derivative-OPLS-2005>
2.03224849700928

$$$$
21
                    3D
 Structure written by MMmdl.
159168  0  0  1  0            999 V2000
  -30.7551  -14.5068   20.5585 C   0  0  0  0  0  0
  -30.3992  -12.3283   19.4391 C   0  0  0  0  0  0
  -29.4725  -12.4722   18.2176 C   0  0  0  0  0  0
  -28.0073  -12.3099   18.6516 C   0  0  0  0  0  0
  -27.6478  -13.2088   19.8663 C   0  0  2  0  0  0
  -28.6939  -13.0712   20.9956 C   0  0  0  0  0  0
  -25.2522  -13.8157   20.5705 C   0  0  0  0  0  0
  -24.1775  -13.0430   20.9214 C   0  0  0  0  0  0
  -24.6332  -11.6909   20.8757 C   0  0  0  0  0  0
  -23.9025  -10.4272   21.0392 C   0  0  0  0  0  0
  -24.3558   -9.4205   21.9178 C   0  0  0  0  0  0
  -23.6247   -8.2247   22.0757 C   0  0  0  0  0  0
  -22.4235   -8.0264   21.3547 C   0  0  0  0  0  0
  -21.9881   -9.0229   20.4641 C   0  0  0  0  0  0
  -22.7203  -10.2110   20.3054 C   0  0  0  0  0  0
  -21.6846   -6.0723   22.5277 C   0  0  0  0  0  0
  -21.4001   -6.5623   23.8216 C   0  0  0  0  0  0
  -21.3659   -5.6781   24.9181 C   0  0  0  0  0  0
  -21.6037   -4.3048   24.7236 C   0  0  0  0  0  0
  -21.8828   -3.8150   23.4353 C   0  0  0  0  0  0
  -21.9186   -4.6965   22.3412 C   0  0  0  0  0  0
  -22.7791  -13.5247   21.1854 C   0  0  0  0  0  0
  -22.1656   -4.2145   21.0983 F   0  0  0  0  0  0
  -21.5639   -3.4538   25.7750 F   0  0  0  0  0  0
  -30.0167  -13.3634   20.4263 N   0  0  0  0  0  0
  -26.2943  -12.9337   20.3398 N   0  0  0  0  0  0
  -25.9271  -11.6502   20.5839 N   0  0  0  0  0  0
  -22.0419  -12.8224   22.0379 N   0  0  0  0  0  0
  -25.4264  -15.1877   20.4092 N   0  0  0  0  0  0
  -31.9034  -14.5306   20.1114 O   0  0  0  0  0  0
  -21.6641   -6.8850   21.4227 O   0  0  0  0  0  0
  -22.3496  -14.5557   20.6726 O   0  0  0  0  0  0
  -24.6227  -31.8660   23.2049 C   0  0  0  0  0  0
  -25.9132  -32.4787   23.8355 C   0  0  1  0  0  0
  -27.2185  -27.3616   20.1621 C   0  0  0  0  0  0
  -25.5961  -33.8573   24.2298 N   0  0  0  0  0  0
  -23.4130  -30.4877   21.5474 C   0  0  2  0  0  0
  -24.8597  -28.9379   20.1204 C   0  0  0  0  0  0
  -22.7423  -29.4694   22.4996 C   0  0  0  0  0  0
  -18.0272  -28.1392   22.8519 C   0  0  0  0  0  0
  -24.1483  -36.7268   23.2650 C   0  0  0  0  0  0
  -25.9471  -30.8043   21.3753 C   0  0  0  0  0  0
  -26.0208  -29.4331   20.7319 C   0  0  0  0  0  0
  -27.2041  -28.6514   20.7513 C   0  0  0  0  0  0
  -26.0510  -26.8996   19.5224 C   0  0  0  0  0  0
  -24.8728  -27.6723   19.5077 C   0  0  0  0  0  0
  -23.6220  -29.8101   20.1655 C   0  0  0  0  0  0
  -25.4101  -36.3070   24.0363 C   0  0  1  0  0  0
  -20.5868  -28.3696   23.1294 C   0  0  2  0  0  0
  -20.6772  -26.9429   22.5413 C   0  0  0  0  0  0
  -19.5726  -26.6388   21.5235 C   0  0  0  0  0  0
  -18.1899  -26.7950   22.1625 C   0  0  0  0  0  0
  -19.1537  -28.8864   23.2899 C   0  0  0  0  0  0
  -18.9463  -30.1485   23.8864 C   0  0  0  0  0  0
  -17.6473  -30.6617   24.0546 C   0  0  0  0  0  0
  -25.9069  -34.9449   23.5122 C   0  0  0  0  0  0
  -16.5354  -29.9089   23.6383 C   0  0  0  0  0  0
  -16.7268  -28.6507   23.0422 C   0  0  0  0  0  0
  -26.4543  -31.6581   25.0698 C   0  0  0  0  0  0
  -25.3766  -31.3632   26.1394 C   0  0  0  0  0  0
  -27.0496  -30.3033   24.6187 C   0  0  0  0  0  0
  -27.6106  -32.4351   25.7416 C   0  0  0  0  0  0
  -27.5587  -37.1744   24.8470 C   0  0  0  0  0  0
  -21.4161  -29.3049   22.3671 N   0  0  0  0  0  0
  -26.4263  -37.3789   23.9469 N   0  0  0  0  0  0
  -24.6787  -31.0693   22.1000 N   0  0  0  0  0  0
  -23.4134  -28.8318   23.3149 O   0  0  0  0  0  0
  -28.3286  -26.5342   20.1165 O   0  0  0  0  0  0
  -26.5601  -34.8930   22.4663 O   0  0  0  0  0  0
  -23.5416  -32.1468   23.7416 O   0  0  0  0  0  0
  -30.3468  -19.2323   20.3148 C   0  0  0  0  0  0
  -29.8407  -20.5357   20.5366 C   0  0  0  0  0  0
  -29.9434  -18.1628   21.1534 C   0  0  0  0  0  0
  -28.9261  -20.7373   21.5937 C   0  0  0  0  0  0
  -27.4589  -24.6028   22.9292 C   0  0  0  0  0  0
  -28.2269  -24.6014   21.8209 C   0  0  0  0  0  0
  -26.9129  -23.3746   23.5123 C   0  0  0  0  0  0
  -30.7546  -16.8672   21.1078 C   0  0  0  0  0  0
  -27.3391  -22.0129   22.9569 C   0  0  0  0  0  0
  -28.6330  -23.2622   21.1245 C   0  0  2  0  0  0
  -27.9070  -23.1411   19.7749 C   0  0  0  0  0  0
  -28.8320  -25.9594   21.3496 C   0  0  0  0  0  0
  -29.0323  -18.4027   22.1360 N   0  0  0  0  0  0
  -28.5403  -19.6468   22.3349 N   0  0  0  0  0  0
  -28.4015  -22.0280   21.9374 N   0  0  0  0  0  0
  -30.1494  -15.6433   21.0167 N   0  0  0  0  0  0
  -26.1114  -23.4080   24.4466 O   0  0  0  0  0  0
  -31.9858  -17.0200   21.0983 O   0  0  0  0  0  0
  -31.4387  -12.3936   19.1157 H   0  0  0  0  0  0
  -30.2977  -11.3321   19.8749 H   0  0  0  0  0  0
  -29.7196  -11.7166   17.4699 H   0  0  0  0  0  0
  -29.6194  -13.4408   17.7376 H   0  0  0  0  0  0
  -27.8695  -11.2576   18.9148 H   0  0  0  0  0  0
  -27.3327  -12.4985   17.8161 H   0  0  0  0  0  0
  -27.6739  -14.2393   19.5109 H   0  0  0  0  0  0
  -28.6781  -12.0566   21.3960 H   0  0  0  0  0  0
  -28.4544  -13.7339   21.8301 H   0  0  0  0  0  0
  -25.2681   -9.5712   22.4769 H   0  0  0  0  0  0
  -23.9974   -7.4644   22.7466 H   0  0  0  0  0  0
  -21.0849   -8.8706   19.8904 H   0  0  0  0  0  0
  -22.3636  -10.9641   19.6160 H   0  0  0  0  0  0
  -21.1964   -7.6131   23.9718 H   0  0  0  0  0  0
  -21.1476   -6.0517   25.9081 H   0  0  0  0  0  0
  -22.0600   -2.7618   23.2875 H   0  0  0  0  0  0
  -22.4041  -11.9898   22.4781 H   0  0  0  0  0  0
  -21.1024  -13.1255   22.2560 H   0  0  0  0  0  0
  -24.6577  -15.8417   20.5081 H   0  0  0  0  0  0
  -26.2787  -15.6258   20.0833 H   0  0  0  0  0  0
  -26.7181  -32.5458   23.1086 H   0  0  0  0  0  0
  -25.0140  -33.9717   25.0462 H   0  0  0  0  0  0
  -22.7115  -31.3085   21.3982 H   0  0  0  0  0  0
  -23.3811  -35.9537   23.3238 H   0  0  0  0  0  0
  -24.3583  -36.8962   22.2078 H   0  0  0  0  0  0
  -23.7165  -37.6418   23.6708 H   0  0  0  0  0  0
  -26.0833  -31.5698   20.6101 H   0  0  0  0  0  0
  -26.8268  -30.8447   22.0065 H   0  0  0  0  0  0
  -28.1058  -29.0304   21.2134 H   0  0  0  0  0  0
  -26.0486  -25.9252   19.0557 H   0  0  0  0  0  0
  -23.9801  -27.2831   19.0401 H   0  0  0  0  0  0
  -23.7233  -30.5766   19.3968 H   0  0  0  0  0  0
  -22.7455  -29.2262   19.8787 H   0  0  0  0  0  0
  -25.1272  -36.1899   25.0856 H   0  0  0  0  0  0
  -20.9950  -28.3276   24.1414 H   0  0  0  0  0  0
  -20.5712  -26.2320   23.3639 H   0  0  0  0  0  0
  -21.6645  -26.7490   22.1160 H   0  0  0  0  0  0
  -19.6902  -25.6291   21.1289 H   0  0  0  0  0  0
  -19.6671  -27.3180   20.6750 H   0  0  0  0  0  0
  -17.4199  -26.6792   21.3987 H   0  0  0  0  0  0
  -18.0229  -26.0060   22.8965 H   0  0  0  0  0  0
  -19.7955  -30.7346   24.2172 H   0  0  0  0  0  0
  -17.5027  -31.6301   24.5141 H   0  0  0  0  0  0
  -15.5358  -30.2970   23.7786 H   0  0  0  0  0  0
  -15.8657  -28.0805   22.7200 H   0  0  0  0  0  0
  -24.5938  -30.7042   25.7604 H   0  0  0  0  0  0
  -24.8966  -32.2770   26.4915 H   0  0  0  0  0  0
  -25.8067  -30.8651   27.0097 H   0  0  0  0  0  0
  -26.3108  -29.6610   24.1371 H   0  0  0  0  0  0
  -27.4419  -29.7446   25.4708 H   0  0  0  0  0  0
  -27.8857  -30.4385   23.9311 H   0  0  0  0  0  0
  -27.2761  -33.3702   26.1923 H   0  0  0  0  0  0
  -28.3896  -32.6846   25.0189 H   0  0  0  0  0  0
  -28.0811  -31.8518   26.5351 H   0  0  0  0  0  0
  -28.2540  -38.0103   24.7648 H   0  0  0  0  0  0
  -28.1159  -36.2654   24.6140 H   0  0  0  0  0  0
  -27.2315  -37.1177   25.8865 H   0  0  0  0  0  0
  -20.9389  -29.8608   21.6715 H   0  0  0  0  0  0
  -26.0162  -38.2865   24.1520 H   0  0  0  0  0  0
  -31.0933  -19.0668   19.5488 H   0  0  0  0  0  0
  -30.1922  -21.3487   19.9234 H   0  0  0  0  0  0
  -27.2309  -25.5241   23.4457 H   0  0  0  0  0  0
  -26.4572  -21.5076   22.5621 H   0  0  0  0  0  0
  -27.6756  -21.4343   23.8200 H   0  0  0  0  0  0
  -29.7084  -23.3349   20.9509 H   0  0  0  0  0  0
  -26.8370  -22.9813   19.9210 H   0  0  0  0  0  0
  -28.2812  -22.3099   19.1789 H   0  0  0  0  0  0
  -28.0358  -24.0368   19.1694 H   0  0  0  0  0  0
  -29.9097  -25.8308   21.2483 H   0  0  0  0  0  0
  -28.7199  -26.7000   22.1437 H   0  0  0  0  0  0
  -29.1660  -15.6086   21.2190 H   0  0  0  0  0  0
  1 25  1  0  0  0
  1 30  2  0  0  0
  1 86  1  0  0  0
  2  3  1  0  0  0
  2 25  1  0  0  0
  2 89  1  0  0  0
  2 90  1  0  0  0
  3  4  1  0  0  0
  3 91  1  0  0  0
  3 92  1  0  0  0
  4  5  1  0  0  0
  4 93  1  0  0  0
  4 94  1  0  0  0
  5  6  1  0  0  0
  5 26  1  0  0  0
  5 95  1  0  0  0
  6 25  1  0  0  0
  6 96  1  0  0  0
  6 97  1  0  0  0
  7  8  2  0  0  0
  7 26  1  0  0  0
  7 29  1  0  0  0
  8  9  1  0  0  0
  8 22  1  0  0  0
  9 10  1  0  0  0
  9 27  2  0  0  0
 10 11  2  0  0  0
 10 15  1  0  0  0
 11 12  1  0  0  0
 11 98  1  0  0  0
 12 13  2  0  0  0
 12 99  1  0  0  0
 13 14  1  0  0  0
 13 31  1  0  0  0
 14 15  2  0  0  0
 14100  1  0  0  0
 15101  1  0  0  0
 16 17  2  0  0  0
 16 21  1  0  0  0
 16 31  1  0  0  0
 17 18  1  0  0  0
 17102  1  0  0  0
 18 19  2  0  0  0
 18103  1  0  0  0
 19 20  1  0  0  0
 19 24  1  0  0  0
 20 21  2  0  0  0
 20104  1  0  0  0
 21 23  1  0  0  0
 22 28  1  0  0  0
 22 32  2  0  0  0
 26 27  1  0  0  0
 28105  1  0  0  0
 28106  1  0  0  0
 29107  1  0  0  0
 29108  1  0  0  0
 33 34  1  0  0  0
 33 66  1  0  0  0
 33 70  2  0  0  0
 34 36  1  0  0  0
 34 59  1  0  0  0
 34109  1  0  0  0
 35 44  2  0  0  0
 35 45  1  0  0  0
 35 68  1  0  0  0
 36 56  1  0  0  0
 36110  1  0  0  0
 37 39  1  0  0  0
 37 47  1  0  0  0
 37 66  1  0  0  0
 37111  1  0  0  0
 38 43  2  0  0  0
 38 46  1  0  0  0
 38 47  1  0  0  0
 39 64  1  0  0  0
 39 67  2  0  0  0
 40 52  1  0  0  0
 40 53  2  0  0  0
 40 58  1  0  0  0
 41112  1  0  0  0
 41113  1  0  0  0
 41114  1  0  0  0
 41 48  1  0  0  0
 42 43  1  0  0  0
 42 66  1  0  0  0
 42115  1  0  0  0
 42116  1  0  0  0
 43 44  1  0  0  0
 44117  1  0  0  0
 45 46  2  0  0  0
 45118  1  0  0  0
 46119  1  0  0  0
 47120  1  0  0  0
 47121  1  0  0  0
 48 56  1  0  0  0
 48 65  1  0  0  0
 48122  1  0  0  0
 49 50  1  0  0  0
 49 53  1  0  0  0
 49 64  1  0  0  0
 49123  1  0  0  0
 50 51  1  0  0  0
 50124  1  0  0  0
 50125  1  0  0  0
 51 52  1  0  0  0
 51126  1  0  0  0
 51127  1  0  0  0
 52128  1  0  0  0
 52129  1  0  0  0
 53 54  1  0  0  0
 54 55  2  0  0  0
 54130  1  0  0  0
 55 57  1  0  0  0
 55131  1  0  0  0
 56 69  2  0  0  0
 57 58  2  0  0  0
 57132  1  0  0  0
 58133  1  0  0  0
 59 60  1  0  0  0
 59 61  1  0  0  0
 59 62  1  0  0  0
 60134  1  0  0  0
 60135  1  0  0  0
 60136  1  0  0  0
 61137  1  0  0  0
 61138  1  0  0  0
 61139  1  0  0  0
 62140  1  0  0  0
 62141  1  0  0  0
 62142  1  0  0  0
 63 65  1  0  0  0
 63143  1  0  0  0
 63144  1  0  0  0
 63145  1  0  0  0
 64146  1  0  0  0
 65147  1  0  0  0
 68 82  1  0  0  0
 71 72  2  0  0  0
 71 73  1  0  0  0
 71148  1  0  0  0
 72 74  1  0  0  0
 72149  1  0  0  0
 73 78  1  0  0  0
 73 83  2  0  0  0
 74 84  2  0  0  0
 74 85  1  0  0  0
 75 76  2  0  0  0
 75 77  1  0  0  0
 75150  1  0  0  0
 76 80  1  0  0  0
 76 82  1  0  0  0
 77 79  1  0  0  0
 77 87  2  0  0  0
 78 86  1  0  0  0
 78 88  2  0  0  0
 79 85  1  0  0  0
 79151  1  0  0  0
 79152  1  0  0  0
 80 81  1  0  0  0
 80 85  1  0  0  0
 80153  1  0  0  0
 81154  1  0  0  0
 81155  1  0  0  0
 81156  1  0  0  0
 82157  1  0  0  0
 82158  1  0  0  0
 83 84  1  0  0  0
 86159  1  0  0  0
M  ISO  4   1 100  68 101  82 101  86 100
M  END
> <chiral flag>
0

> <version>
0

> <s_m_source_file>
/data/baiqing/PycharmProjects/Reinvent-master-3.2/result/LINK_invent/BTK/process_docking_weight1_custom_product_contain_oxygen_bond_distance_aromatic_linkinvent_7_9_3/rearranged_h_0090.sdf

> <i_m_source_file_index>
22

> <r_mmod_Potential_Energy-OPLS-2005>
5.73234367370605

> <r_mmod_Stretch_Energy-OPLS-2005>
64.0130233764648

> <r_mmod_Bend_Energy-OPLS-2005>
150.864959716797

> <r_mmod_Torsional_Energy-OPLS-2005>
240.467147827148

> <r_mmod_Improper_Torsional_Energy-OPLS-2005>
6.58790063858032

> <r_mmod_Van_der_Waal_Energy-OPLS-2005>
170.647796630859

> <r_mmod_Electrostatic_Energy-OPLS-2005>
-400.187164306641

> <r_mmod_Solvation_Energy-OPLS-2005>
-257.305389404297

> <b_mmod_Minimization_Converged-OPLS-2005>
0

> <r_mmod_RMS_Derivative-OPLS-2005>
4.74613094329834

$$$$
22
                    3D
 Structure written by MMmdl.
152160  0  0  1  0            999 V2000
  -30.6534  -14.5523   20.5140 C   0  0  0  0  0  0
  -30.4278  -12.3407   19.4368 C   0  0  0  0  0  0
  -29.4993  -12.5099   18.2147 C   0  0  0  0  0  0
  -28.0188  -12.3664   18.6231 C   0  0  0  0  0  0
  -27.6566  -13.2143   19.8726 C   0  0  2  0  0  0
  -28.7017  -13.0225   20.9955 C   0  0  0  0  0  0
  -25.2545  -13.8162   20.5676 C   0  0  0  0  0  0
  -24.1805  -13.0421   20.9135 C   0  0  0  0  0  0
  -24.6386  -11.6897   20.8709 C   0  0  0  0  0  0
  -23.9064  -10.4276   21.0386 C   0  0  0  0  0  0
  -24.3616   -9.4198   21.9172 C   0  0  0  0  0  0
  -23.6291   -8.2237   22.0749 C   0  0  0  0  0  0
  -22.4273   -8.0271   21.3543 C   0  0  0  0  0  0
  -21.9907   -9.0234   20.4640 C   0  0  0  0  0  0
  -22.7231  -10.2115   20.3046 C   0  0  0  0  0  0
  -21.6850   -6.0738   22.5279 C   0  0  0  0  0  0
  -21.4010   -6.5643   23.8212 C   0  0  0  0  0  0
  -21.3662   -5.6795   24.9172 C   0  0  0  0  0  0
  -21.6046   -4.3059   24.7222 C   0  0  0  0  0  0
  -21.8820   -3.8153   23.4343 C   0  0  0  0  0  0
  -21.9188   -4.6968   22.3399 C   0  0  0  0  0  0
  -22.7833  -13.5211   21.1817 C   0  0  0  0  0  0
  -22.1656   -4.2162   21.0974 F   0  0  0  0  0  0
  -21.5629   -3.4537   25.7730 F   0  0  0  0  0  0
  -30.0260  -13.3425   20.4386 N   0  0  0  0  0  0
  -26.3000  -12.9353   20.3371 N   0  0  0  0  0  0
  -25.9323  -11.6501   20.5772 N   0  0  0  0  0  0
  -22.0497  -12.8204   22.0398 N   0  0  0  0  0  0
  -25.4225  -15.1888   20.4159 N   0  0  0  0  0  0
  -31.8070  -14.7131   20.1074 O   0  0  0  0  0  0
  -21.6635   -6.8875   21.4241 O   0  0  0  0  0  0
  -22.3498  -14.5513   20.6676 O   0  0  0  0  0  0
  -24.6180  -31.8668   23.2077 C   0  0  0  0  0  0
  -25.9057  -32.4822   23.8389 C   0  0  1  0  0  0
  -27.2299  -27.4040   20.1023 C   0  0  0  0  0  0
  -25.5897  -33.8617   24.2324 N   0  0  0  0  0  0
  -23.4098  -30.4888   21.5486 C   0  0  2  0  0  0
  -24.8594  -28.9540   20.1108 C   0  0  0  0  0  0
  -22.7442  -29.4649   22.4967 C   0  0  0  0  0  0
  -18.0284  -28.1392   22.8499 C   0  0  0  0  0  0
  -24.1484  -36.7311   23.2632 C   0  0  0  0  0  0
  -25.9424  -30.8232   21.3667 C   0  0  0  0  0  0
  -26.0223  -29.4560   20.7110 C   0  0  0  0  0  0
  -27.2161  -28.6891   20.7039 C   0  0  0  0  0  0
  -26.0533  -26.9261   19.4932 C   0  0  0  0  0  0
  -24.8707  -27.6895   19.4974 C   0  0  0  0  0  0
  -23.6229  -29.8249   20.1622 C   0  0  0  0  0  0
  -25.4108  -36.3112   24.0336 C   0  0  1  0  0  0
  -20.5882  -28.3689   23.1305 C   0  0  2  0  0  0
  -20.6783  -26.9420   22.5418 C   0  0  0  0  0  0
  -19.5755  -26.6398   21.5224 C   0  0  0  0  0  0
  -18.1932  -26.7939   22.1631 C   0  0  0  0  0  0
  -19.1535  -28.8855   23.2905 C   0  0  0  0  0  0
  -18.9459  -30.1459   23.8917 C   0  0  0  0  0  0
  -17.6456  -30.6595   24.0567 C   0  0  0  0  0  0
  -25.9044  -34.9474   23.5139 C   0  0  0  0  0  0
  -16.5347  -29.9099   23.6320 C   0  0  0  0  0  0
  -16.7270  -28.6516   23.0347 C   0  0  0  0  0  0
  -26.4471  -31.6591   25.0720 C   0  0  0  0  0  0
  -25.3726  -31.3694   26.1458 C   0  0  0  0  0  0
  -27.0296  -30.3026   24.6102 C   0  0  0  0  0  0
  -27.6053  -32.4296   25.7480 C   0  0  0  0  0  0
  -27.5594  -37.1798   24.8458 C   0  0  0  0  0  0
  -21.4166  -29.3048   22.3708 N   0  0  0  0  0  0
  -26.4291  -37.3806   23.9425 N   0  0  0  0  0  0
  -24.6751  -31.0743   22.0992 N   0  0  0  0  0  0
  -23.4193  -28.8186   23.3024 O   0  0  0  0  0  0
  -28.3243  -26.5600   20.1428 O   0  0  0  0  0  0
  -26.5618  -34.8926   22.4709 O   0  0  0  0  0  0
  -23.5359  -32.1429   23.7449 O   0  0  0  0  0  0
  -31.0348  -19.0534   19.8099 C   0  0  0  0  0  0
  -31.0897  -17.6771   20.1469 C   0  0  0  0  0  0
  -28.7018  -19.1411   20.4426 C   0  0  0  0  0  0
  -29.8444  -19.8131   19.9446 C   0  0  0  0  0  0
  -29.9359  -16.9960   20.6084 C   0  0  0  0  0  0
  -28.7504  -17.7585   20.7619 C   0  0  0  0  0  0
  -28.2484  -25.6012   21.1394 C   0  0  0  0  0  0
  -29.7938  -21.2444   19.4234 C   0  0  0  0  0  0
  -28.5477  -24.2693   21.1033 C   0  0  0  0  0  0
  -29.0610  -23.5377   19.9303 C   0  0  0  0  0  0
  -29.8708  -15.5846   20.9185 N   0  0  0  0  0  0
  -29.2198  -22.2067   20.1866 N   0  0  0  0  0  0
  -30.3284  -21.4659   18.3305 O   0  0  0  0  0  0
  -29.3197  -24.0719   18.8459 O   0  0  0  0  0  0
  -28.3560  -23.5627   22.2322 O   0  0  0  0  0  0
  -27.6256  -17.1366   21.1902 F   0  0  0  0  0  0
  -31.4726  -12.4460   19.1380 H   0  0  0  0  0  0
  -30.3376  -11.3365   19.8531 H   0  0  0  0  0  0
  -29.7490  -11.7783   17.4452 H   0  0  0  0  0  0
  -29.6602  -13.4914   17.7654 H   0  0  0  0  0  0
  -27.8319  -11.3108   18.8242 H   0  0  0  0  0  0
  -27.3705  -12.6353   17.7883 H   0  0  0  0  0  0
  -27.6869  -14.2589   19.5612 H   0  0  0  0  0  0
  -28.6911  -11.9910   21.3496 H   0  0  0  0  0  0
  -28.4631  -13.6353   21.8660 H   0  0  0  0  0  0
  -25.2758   -9.5686   22.4744 H   0  0  0  0  0  0
  -24.0006   -7.4635   22.7473 H   0  0  0  0  0  0
  -21.0839   -8.8739   19.8947 H   0  0  0  0  0  0
  -22.3674  -10.9648   19.6158 H   0  0  0  0  0  0
  -21.2003   -7.6148   23.9725 H   0  0  0  0  0  0
  -21.1486   -6.0518   25.9079 H   0  0  0  0  0  0
  -22.0603   -2.7619   23.2831 H   0  0  0  0  0  0
  -22.4111  -11.9858   22.4772 H   0  0  0  0  0  0
  -21.1123  -13.1236   22.2620 H   0  0  0  0  0  0
  -24.6635  -15.8409   20.5771 H   0  0  0  0  0  0
  -26.3056  -15.6548   20.2472 H   0  0  0  0  0  0
  -26.7127  -32.5522   23.1145 H   0  0  0  0  0  0
  -25.0006  -33.9780   25.0436 H   0  0  0  0  0  0
  -22.6995  -31.3064   21.4080 H   0  0  0  0  0  0
  -23.3760  -35.9630   23.3281 H   0  0  0  0  0  0
  -24.3572  -36.8945   22.2051 H   0  0  0  0  0  0
  -23.7211  -37.6496   23.6658 H   0  0  0  0  0  0
  -26.0596  -31.5894   20.5985 H   0  0  0  0  0  0
  -26.8273  -30.8756   21.9895 H   0  0  0  0  0  0
  -28.1108  -29.0634   21.1817 H   0  0  0  0  0  0
  -26.0501  -25.9457   19.0378 H   0  0  0  0  0  0
  -23.9771  -27.2955   19.0342 H   0  0  0  0  0  0
  -23.7371  -30.6029   19.4056 H   0  0  0  0  0  0
  -22.7450  -29.2511   19.8605 H   0  0  0  0  0  0
  -25.1277  -36.1977   25.0831 H   0  0  0  0  0  0
  -20.9979  -28.3260   24.1424 H   0  0  0  0  0  0
  -20.5697  -26.2300   23.3612 H   0  0  0  0  0  0
  -21.6649  -26.7474   22.1194 H   0  0  0  0  0  0
  -19.6917  -25.6311   21.1249 H   0  0  0  0  0  0
  -19.6688  -27.3216   20.6758 H   0  0  0  0  0  0
  -17.4206  -26.6695   21.4030 H   0  0  0  0  0  0
  -18.0325  -26.0076   22.9020 H   0  0  0  0  0  0
  -19.7934  -30.7283   24.2287 H   0  0  0  0  0  0
  -17.5008  -31.6273   24.5172 H   0  0  0  0  0  0
  -15.5347  -30.3008   23.7631 H   0  0  0  0  0  0
  -15.8673  -28.0840   22.7047 H   0  0  0  0  0  0
  -24.5904  -30.7045   25.7773 H   0  0  0  0  0  0
  -24.8908  -32.2850   26.4903 H   0  0  0  0  0  0
  -25.8063  -30.8847   27.0218 H   0  0  0  0  0  0
  -26.2845  -29.6795   24.1140 H   0  0  0  0  0  0
  -27.4042  -29.7245   25.4561 H   0  0  0  0  0  0
  -27.8691  -30.4329   23.9269 H   0  0  0  0  0  0
  -27.2691  -33.3592   26.2081 H   0  0  0  0  0  0
  -28.3851  -32.6866   25.0297 H   0  0  0  0  0  0
  -28.0738  -31.8403   26.5373 H   0  0  0  0  0  0
  -28.2582  -38.0129   24.7569 H   0  0  0  0  0  0
  -28.1128  -36.2668   24.6205 H   0  0  0  0  0  0
  -27.2323  -37.1342   25.8860 H   0  0  0  0  0  0
  -20.9336  -29.8749   21.6907 H   0  0  0  0  0  0
  -26.0185  -38.2879   24.1456 H   0  0  0  0  0  0
  -31.9230  -19.5297   19.4160 H   0  0  0  0  0  0
  -32.0290  -17.1597   20.0187 H   0  0  0  0  0  0
  -27.7619  -19.6668   20.5322 H   0  0  0  0  0  0
  -27.8826  -26.0527   22.0525 H   0  0  0  0  0  0
  -28.9730  -15.2941   21.2754 H   0  0  0  0  0  0
  -28.9023  -21.9384   21.1065 H   0  0  0  0  0  0
  -28.0244  -24.1618   22.8878 H   0  0  0  0  0  0
  1 25  1  0  0  0
  1 30  2  0  0  0
  1 81  1  0  0  0
  2  3  1  0  0  0
  2 25  1  0  0  0
  2 87  1  0  0  0
  2 88  1  0  0  0
  3  4  1  0  0  0
  3 89  1  0  0  0
  3 90  1  0  0  0
  4  5  1  0  0  0
  4 91  1  0  0  0
  4 92  1  0  0  0
  5  6  1  0  0  0
  5 26  1  0  0  0
  5 93  1  0  0  0
  6 25  1  0  0  0
  6 94  1  0  0  0
  6 95  1  0  0  0
  7  8  2  0  0  0
  7 26  1  0  0  0
  7 29  1  0  0  0
  8  9  1  0  0  0
  8 22  1  0  0  0
  9 10  1  0  0  0
  9 27  2  0  0  0
 10 11  2  0  0  0
 10 15  1  0  0  0
 11 12  1  0  0  0
 11 96  1  0  0  0
 12 13  2  0  0  0
 12 97  1  0  0  0
 13 14  1  0  0  0
 13 31  1  0  0  0
 14 15  2  0  0  0
 14 98  1  0  0  0
 15 99  1  0  0  0
 16 17  2  0  0  0
 16 21  1  0  0  0
 16 31  1  0  0  0
 17 18  1  0  0  0
 17100  1  0  0  0
 18 19  2  0  0  0
 18101  1  0  0  0
 19 20  1  0  0  0
 19 24  1  0  0  0
 20 21  2  0  0  0
 20102  1  0  0  0
 21 23  1  0  0  0
 22 28  1  0  0  0
 22 32  2  0  0  0
 26 27  1  0  0  0
 28103  1  0  0  0
 28104  1  0  0  0
 29105  1  0  0  0
 29106  1  0  0  0
 33 34  1  0  0  0
 33 66  1  0  0  0
 33 70  2  0  0  0
 34 36  1  0  0  0
 34 59  1  0  0  0
 34107  1  0  0  0
 35 44  2  0  0  0
 35 45  1  0  0  0
 35 68  1  0  0  0
 36 56  1  0  0  0
 36108  1  0  0  0
 37 39  1  0  0  0
 37 47  1  0  0  0
 37 66  1  0  0  0
 37109  1  0  0  0
 38 43  2  0  0  0
 38 46  1  0  0  0
 38 47  1  0  0  0
 39 64  1  0  0  0
 39 67  2  0  0  0
 40 52  1  0  0  0
 40 53  2  0  0  0
 40 58  1  0  0  0
 41110  1  0  0  0
 41111  1  0  0  0
 41112  1  0  0  0
 41 48  1  0  0  0
 42 43  1  0  0  0
 42 66  1  0  0  0
 42113  1  0  0  0
 42114  1  0  0  0
 43 44  1  0  0  0
 44115  1  0  0  0
 45 46  2  0  0  0
 45116  1  0  0  0
 46117  1  0  0  0
 47118  1  0  0  0
 47119  1  0  0  0
 48 56  1  0  0  0
 48 65  1  0  0  0
 48120  1  0  0  0
 49 50  1  0  0  0
 49 53  1  0  0  0
 49 64  1  0  0  0
 49121  1  0  0  0
 50 51  1  0  0  0
 50122  1  0  0  0
 50123  1  0  0  0
 51 52  1  0  0  0
 51124  1  0  0  0
 51125  1  0  0  0
 52126  1  0  0  0
 52127  1  0  0  0
 53 54  1  0  0  0
 54 55  2  0  0  0
 54128  1  0  0  0
 55 57  1  0  0  0
 55129  1  0  0  0
 56 69  2  0  0  0
 57 58  2  0  0  0
 57130  1  0  0  0
 58131  1  0  0  0
 59 60  1  0  0  0
 59 61  1  0  0  0
 59 62  1  0  0  0
 60132  1  0  0  0
 60133  1  0  0  0
 60134  1  0  0  0
 61135  1  0  0  0
 61136  1  0  0  0
 61137  1  0  0  0
 62138  1  0  0  0
 62139  1  0  0  0
 62140  1  0  0  0
 63 65  1  0  0  0
 63141  1  0  0  0
 63142  1  0  0  0
 63143  1  0  0  0
 64144  1  0  0  0
 65145  1  0  0  0
 68 77  1  0  0  0
 71 72  2  0  0  0
 71 74  1  0  0  0
 71146  1  0  0  0
 72 75  1  0  0  0
 72147  1  0  0  0
 73 74  2  0  0  0
 73 76  1  0  0  0
 73148  1  0  0  0
 74 78  1  0  0  0
 75 76  2  0  0  0
 75 81  1  0  0  0
 76 86  1  0  0  0
 77 79  2  0  0  0
 77149  1  0  0  0
 78 82  1  0  0  0
 78 83  2  0  0  0
 79 80  1  0  0  0
 79 85  1  0  0  0
 80 82  1  0  0  0
 80 84  2  0  0  0
 81150  1  0  0  0
 82151  1  0  0  0
 85152  1  0  0  0
M  ISO  4   1 100  68 101  77 101  81 100
M  END
> <chiral flag>
0

> <version>
0

> <s_m_source_file>
/data/baiqing/PycharmProjects/Reinvent-master-3.2/result/LINK_invent/BTK/process_docking_weight1_custom_product_contain_oxygen_bond_distance_aromatic_linkinvent_7_9_3/rearranged_h_0090.sdf

> <i_m_source_file_index>
23

> <r_mmod_Potential_Energy-OPLS-2005>
-218.07048034668

> <r_mmod_Stretch_Energy-OPLS-2005>
48.0517692565918

> <r_mmod_Bend_Energy-OPLS-2005>
122.458106994629

> <r_mmod_Torsional_Energy-OPLS-2005>
233.806701660156

> <r_mmod_Improper_Torsional_Energy-OPLS-2005>
5.30634450912476

> <r_mmod_Van_der_Waal_Energy-OPLS-2005>
158.123443603516

> <r_mmod_Electrostatic_Energy-OPLS-2005>
-550.209350585938

> <r_mmod_Solvation_Energy-OPLS-2005>
-260.999786376953

> <b_mmod_Minimization_Converged-OPLS-2005>
0

> <r_mmod_RMS_Derivative-OPLS-2005>
1.3526246547699

$$$$
23
                    3D
 Structure written by MMmdl.
162171  0  0  1  0            999 V2000
  -30.6420  -14.6229   20.5045 C   0  0  0  0  0  0
  -30.4335  -12.3827   19.4500 C   0  0  0  0  0  0
  -29.5046  -12.5022   18.2222 C   0  0  0  0  0  0
  -28.0280  -12.3421   18.6355 C   0  0  0  0  0  0
  -27.6519  -13.2159   19.8617 C   0  0  2  0  0  0
  -28.6976  -13.0777   20.9917 C   0  0  0  0  0  0
  -25.2552  -13.8169   20.5683 C   0  0  0  0  0  0
  -24.1824  -13.0435   20.9201 C   0  0  0  0  0  0
  -24.6393  -11.6907   20.8748 C   0  0  0  0  0  0
  -23.9063  -10.4290   21.0410 C   0  0  0  0  0  0
  -24.3615   -9.4206   21.9187 C   0  0  0  0  0  0
  -23.6291   -8.2241   22.0755 C   0  0  0  0  0  0
  -22.4273   -8.0280   21.3545 C   0  0  0  0  0  0
  -21.9909   -9.0253   20.4648 C   0  0  0  0  0  0
  -22.7237  -10.2132   20.3058 C   0  0  0  0  0  0
  -21.6852   -6.0735   22.5279 C   0  0  0  0  0  0
  -21.4013   -6.5639   23.8213 C   0  0  0  0  0  0
  -21.3659   -5.6792   24.9174 C   0  0  0  0  0  0
  -21.6044   -4.3055   24.7225 C   0  0  0  0  0  0
  -21.8820   -3.8147   23.4346 C   0  0  0  0  0  0
  -21.9192   -4.6963   22.3403 C   0  0  0  0  0  0
  -22.7846  -13.5230   21.1858 C   0  0  0  0  0  0
  -22.1661   -4.2149   21.0980 F   0  0  0  0  0  0
  -21.5628   -3.4539   25.7737 F   0  0  0  0  0  0
  -30.0131  -13.4092   20.4236 N   0  0  0  0  0  0
  -26.2981  -12.9350   20.3316 N   0  0  0  0  0  0
  -25.9320  -11.6507   20.5763 N   0  0  0  0  0  0
  -22.0484  -12.8224   22.0413 N   0  0  0  0  0  0
  -25.4245  -15.1890   20.4073 N   0  0  0  0  0  0
  -31.8090  -14.7581   20.1269 O   0  0  0  0  0  0
  -21.6638   -6.8877   21.4241 O   0  0  0  0  0  0
  -22.3535  -14.5536   20.6703 O   0  0  0  0  0  0
  -24.6244  -31.8612   23.2040 C   0  0  0  0  0  0
  -25.9100  -32.4785   23.8360 C   0  0  1  0  0  0
  -27.2276  -27.3370   20.1038 C   0  0  0  0  0  0
  -25.5923  -33.8586   24.2287 N   0  0  0  0  0  0
  -23.4166  -30.4856   21.5467 C   0  0  2  0  0  0
  -24.8619  -28.9437   20.1111 C   0  0  0  0  0  0
  -22.7463  -29.4631   22.4947 C   0  0  0  0  0  0
  -18.0282  -28.1383   22.8489 C   0  0  0  0  0  0
  -24.1489  -36.7296   23.2638 C   0  0  0  0  0  0
  -25.9564  -30.7965   21.3726 C   0  0  0  0  0  0
  -26.0301  -29.4256   20.7140 C   0  0  0  0  0  0
  -27.2131  -28.6318   20.7048 C   0  0  0  0  0  0
  -26.0282  -26.8979   19.4927 C   0  0  0  0  0  0
  -24.8613  -27.6835   19.4955 C   0  0  0  0  0  0
  -23.6294  -29.8218   20.1613 C   0  0  0  0  0  0
  -25.4113  -36.3088   24.0330 C   0  0  1  0  0  0
  -20.5882  -28.3685   23.1289 C   0  0  2  0  0  0
  -20.6774  -26.9410   22.5410 C   0  0  0  0  0  0
  -19.5749  -26.6384   21.5213 C   0  0  0  0  0  0
  -18.1928  -26.7928   22.1624 C   0  0  0  0  0  0
  -19.1535  -28.8850   23.2885 C   0  0  0  0  0  0
  -18.9461  -30.1455   23.8897 C   0  0  0  0  0  0
  -17.6461  -30.6588   24.0563 C   0  0  0  0  0  0
  -25.9049  -34.9456   23.5108 C   0  0  0  0  0  0
  -16.5351  -29.9087   23.6330 C   0  0  0  0  0  0
  -16.7270  -28.6504   23.0352 C   0  0  0  0  0  0
  -26.4491  -31.6589   25.0723 C   0  0  0  0  0  0
  -25.3729  -31.3719   26.1453 C   0  0  0  0  0  0
  -27.0335  -30.3017   24.6164 C   0  0  0  0  0  0
  -27.6051  -32.4322   25.7496 C   0  0  0  0  0  0
  -27.5580  -37.1804   24.8464 C   0  0  0  0  0  0
  -21.4179  -29.3043   22.3689 N   0  0  0  0  0  0
  -26.4292  -37.3782   23.9408 N   0  0  0  0  0  0
  -24.6846  -31.0639   22.0982 N   0  0  0  0  0  0
  -23.4196  -28.8170   23.3019 O   0  0  0  0  0  0
  -28.3611  -26.5128   20.1596 O   0  0  0  0  0  0
  -26.5616  -34.8920   22.4674 O   0  0  0  0  0  0
  -23.5413  -32.1404   23.7380 O   0  0  0  0  0  0
  -29.0538  -19.3670   20.4129 C   0  0  0  0  0  0
  -29.1550  -18.0049   20.4258 C   0  0  0  0  0  0
  -31.8933  -19.0273   21.1933 C   0  0  0  0  0  0
  -31.2498  -20.1832   20.8698 C   0  0  0  0  0  0
  -29.9178  -20.3901   20.6557 C   0  0  0  0  0  0
  -30.1166  -17.1067   20.7841 C   0  0  0  0  0  0
  -31.3890  -17.6381   21.3494 C   0  0  0  0  0  0
  -28.7819  -24.0607   20.3078 C   0  0  0  0  0  0
  -28.3183  -25.1908   19.6847 C   0  0  0  0  0  0
  -29.4206  -23.9895   21.6693 C   0  0  0  0  0  0
  -29.4295  -22.4875   22.0233 C   0  0  0  0  0  0
  -28.7370  -22.6027   19.7832 C   0  0  1  0  0  0
  -32.1933  -21.3807   20.7265 C   0  0  0  0  0  0
  -29.3157  -22.4540   18.3690 C   0  0  0  0  0  0
  -29.4049  -21.7204   20.7739 N   0  0  0  0  0  0
  -29.8338  -15.6929   20.7901 N   0  0  0  0  0  0
  -32.0864  -16.8962   22.0481 O   0  0  0  0  0  0
  -31.4755  -12.4990   19.1470 H   0  0  0  0  0  0
  -30.3614  -11.3886   19.8939 H   0  0  0  0  0  0
  -29.7670  -11.7506   17.4766 H   0  0  0  0  0  0
  -29.6489  -13.4718   17.7430 H   0  0  0  0  0  0
  -27.8648  -11.2895   18.8693 H   0  0  0  0  0  0
  -27.3727  -12.5701   17.7940 H   0  0  0  0  0  0
  -27.6674  -14.2492   19.5155 H   0  0  0  0  0  0
  -28.7054  -12.0604   21.3856 H   0  0  0  0  0  0
  -28.4488  -13.7224   21.8361 H   0  0  0  0  0  0
  -25.2761   -9.5683   22.4761 H   0  0  0  0  0  0
  -24.0001   -7.4633   22.7473 H   0  0  0  0  0  0
  -21.0841   -8.8772   19.8952 H   0  0  0  0  0  0
  -22.3698  -10.9672   19.6166 H   0  0  0  0  0  0
  -21.2006   -7.6147   23.9716 H   0  0  0  0  0  0
  -21.1480   -6.0522   25.9077 H   0  0  0  0  0  0
  -22.0599   -2.7609   23.2846 H   0  0  0  0  0  0
  -22.4094  -11.9884   22.4804 H   0  0  0  0  0  0
  -21.1101  -13.1252   22.2613 H   0  0  0  0  0  0
  -24.6512  -15.8375   20.5091 H   0  0  0  0  0  0
  -26.2584  -15.6268   20.0390 H   0  0  0  0  0  0
  -26.7168  -32.5458   23.1109 H   0  0  0  0  0  0
  -25.0071  -33.9734   25.0432 H   0  0  0  0  0  0
  -22.7097  -31.3058   21.4055 H   0  0  0  0  0  0
  -23.3752  -35.9628   23.3301 H   0  0  0  0  0  0
  -24.3580  -36.8916   22.2052 H   0  0  0  0  0  0
  -23.7240  -37.6498   23.6659 H   0  0  0  0  0  0
  -26.0857  -31.5612   20.6055 H   0  0  0  0  0  0
  -26.8379  -30.8443   22.0004 H   0  0  0  0  0  0
  -28.1104  -28.9969   21.1846 H   0  0  0  0  0  0
  -25.9533  -25.9284   19.0249 H   0  0  0  0  0  0
  -23.9623  -27.3040   19.0296 H   0  0  0  0  0  0
  -23.7464  -30.5985   19.4047 H   0  0  0  0  0  0
  -22.7495  -29.2501   19.8605 H   0  0  0  0  0  0
  -25.1294  -36.1943   25.0823 H   0  0  0  0  0  0
  -20.9973  -28.3257   24.1409 H   0  0  0  0  0  0
  -20.5679  -26.2293   23.3608 H   0  0  0  0  0  0
  -21.6642  -26.7446   22.1199 H   0  0  0  0  0  0
  -19.6910  -25.6295   21.1241 H   0  0  0  0  0  0
  -19.6685  -27.3196   20.6745 H   0  0  0  0  0  0
  -17.4199  -26.6677   21.4026 H   0  0  0  0  0  0
  -18.0327  -26.0068   22.9018 H   0  0  0  0  0  0
  -19.7938  -30.7273   24.2263 H   0  0  0  0  0  0
  -17.5017  -31.6268   24.5164 H   0  0  0  0  0  0
  -15.5353  -30.2990   23.7655 H   0  0  0  0  0  0
  -15.8669  -28.0826   22.7065 H   0  0  0  0  0  0
  -24.5904  -30.7069   25.7782 H   0  0  0  0  0  0
  -24.8919  -32.2882   26.4886 H   0  0  0  0  0  0
  -25.8057  -30.8892   27.0223 H   0  0  0  0  0  0
  -26.2905  -29.6770   24.1191 H   0  0  0  0  0  0
  -27.4046  -29.7269   25.4659 H   0  0  0  0  0  0
  -27.8768  -30.4313   23.9376 H   0  0  0  0  0  0
  -27.2661  -33.3620   26.2076 H   0  0  0  0  0  0
  -28.3862  -32.6884   25.0326 H   0  0  0  0  0  0
  -28.0718  -31.8445   26.5411 H   0  0  0  0  0  0
  -28.2597  -38.0103   24.7517 H   0  0  0  0  0  0
  -28.1078  -36.2634   24.6285 H   0  0  0  0  0  0
  -27.2297  -37.1446   25.8867 H   0  0  0  0  0  0
  -20.9351  -29.8772   21.6908 H   0  0  0  0  0  0
  -26.0174  -38.2858   24.1410 H   0  0  0  0  0  0
  -28.0596  -19.7037   20.1507 H   0  0  0  0  0  0
  -28.2440  -17.5308   20.0896 H   0  0  0  0  0  0
  -32.9332  -19.1532   21.4568 H   0  0  0  0  0  0
  -27.8981  -25.1379   18.6908 H   0  0  0  0  0  0
  -28.8919  -24.5936   22.4071 H   0  0  0  0  0  0
  -30.4422  -24.3621   21.5886 H   0  0  0  0  0  0
  -28.5337  -22.2362   22.5931 H   0  0  0  0  0  0
  -30.2843  -22.2330   22.6500 H   0  0  0  0  0  0
  -27.6862  -22.3097   19.7545 H   0  0  0  0  0  0
  -33.1697  -21.0783   20.3455 H   0  0  0  0  0  0
  -32.3488  -21.8629   21.6915 H   0  0  0  0  0  0
  -31.8192  -22.1284   20.0284 H   0  0  0  0  0  0
  -30.3574  -22.7705   18.3273 H   0  0  0  0  0  0
  -28.7595  -23.0582   17.6522 H   0  0  0  0  0  0
  -29.2647  -21.4204   18.0265 H   0  0  0  0  0  0
  -28.8590  -15.4550   20.8651 H   0  0  0  0  0  0
  1 25  1  0  0  0
  1 30  2  0  0  0
  1 86  1  0  0  0
  2  3  1  0  0  0
  2 25  1  0  0  0
  2 88  1  0  0  0
  2 89  1  0  0  0
  3  4  1  0  0  0
  3 90  1  0  0  0
  3 91  1  0  0  0
  4  5  1  0  0  0
  4 92  1  0  0  0
  4 93  1  0  0  0
  5  6  1  0  0  0
  5 26  1  0  0  0
  5 94  1  0  0  0
  6 25  1  0  0  0
  6 95  1  0  0  0
  6 96  1  0  0  0
  7  8  2  0  0  0
  7 26  1  0  0  0
  7 29  1  0  0  0
  8  9  1  0  0  0
  8 22  1  0  0  0
  9 10  1  0  0  0
  9 27  2  0  0  0
 10 11  2  0  0  0
 10 15  1  0  0  0
 11 12  1  0  0  0
 11 97  1  0  0  0
 12 13  2  0  0  0
 12 98  1  0  0  0
 13 14  1  0  0  0
 13 31  1  0  0  0
 14 15  2  0  0  0
 14 99  1  0  0  0
 15100  1  0  0  0
 16 17  2  0  0  0
 16 21  1  0  0  0
 16 31  1  0  0  0
 17 18  1  0  0  0
 17101  1  0  0  0
 18 19  2  0  0  0
 18102  1  0  0  0
 19 20  1  0  0  0
 19 24  1  0  0  0
 20 21  2  0  0  0
 20103  1  0  0  0
 21 23  1  0  0  0
 22 28  1  0  0  0
 22 32  2  0  0  0
 26 27  1  0  0  0
 28104  1  0  0  0
 28105  1  0  0  0
 29106  1  0  0  0
 29107  1  0  0  0
 33 34  1  0  0  0
 33 66  1  0  0  0
 33 70  2  0  0  0
 34 36  1  0  0  0
 34 59  1  0  0  0
 34108  1  0  0  0
 35 44  2  0  0  0
 35 45  1  0  0  0
 35 68  1  0  0  0
 36 56  1  0  0  0
 36109  1  0  0  0
 37 39  1  0  0  0
 37 47  1  0  0  0
 37 66  1  0  0  0
 37110  1  0  0  0
 38 43  2  0  0  0
 38 46  1  0  0  0
 38 47  1  0  0  0
 39 64  1  0  0  0
 39 67  2  0  0  0
 40 52  1  0  0  0
 40 53  2  0  0  0
 40 58  1  0  0  0
 41111  1  0  0  0
 41112  1  0  0  0
 41113  1  0  0  0
 41 48  1  0  0  0
 42 43  1  0  0  0
 42 66  1  0  0  0
 42114  1  0  0  0
 42115  1  0  0  0
 43 44  1  0  0  0
 44116  1  0  0  0
 45 46  2  0  0  0
 45117  1  0  0  0
 46118  1  0  0  0
 47119  1  0  0  0
 47120  1  0  0  0
 48 56  1  0  0  0
 48 65  1  0  0  0
 48121  1  0  0  0
 49 50  1  0  0  0
 49 53  1  0  0  0
 49 64  1  0  0  0
 49122  1  0  0  0
 50 51  1  0  0  0
 50123  1  0  0  0
 50124  1  0  0  0
 51 52  1  0  0  0
 51125  1  0  0  0
 51126  1  0  0  0
 52127  1  0  0  0
 52128  1  0  0  0
 53 54  1  0  0  0
 54 55  2  0  0  0
 54129  1  0  0  0
 55 57  1  0  0  0
 55130  1  0  0  0
 56 69  2  0  0  0
 57 58  2  0  0  0
 57131  1  0  0  0
 58132  1  0  0  0
 59 60  1  0  0  0
 59 61  1  0  0  0
 59 62  1  0  0  0
 60133  1  0  0  0
 60134  1  0  0  0
 60135  1  0  0  0
 61136  1  0  0  0
 61137  1  0  0  0
 61138  1  0  0  0
 62139  1  0  0  0
 62140  1  0  0  0
 62141  1  0  0  0
 63 65  1  0  0  0
 63142  1  0  0  0
 63143  1  0  0  0
 63144  1  0  0  0
 64145  1  0  0  0
 65146  1  0  0  0
 68 79  1  0  0  0
 71 72  1  0  0  0
 71 75  2  0  0  0
 71147  1  0  0  0
 72 76  2  0  0  0
 72148  1  0  0  0
 73 74  2  0  0  0
 73 77  1  0  0  0
 73149  1  0  0  0
 74 75  1  0  0  0
 74 83  1  0  0  0
 75 85  1  0  0  0
 76 77  1  0  0  0
 76 86  1  0  0  0
 77 87  2  0  0  0
 78 79  2  0  0  0
 78 80  1  0  0  0
 78 82  1  0  0  0
 79150  1  0  0  0
 80 81  1  0  0  0
 80151  1  0  0  0
 80152  1  0  0  0
 81 85  1  0  0  0
 81153  1  0  0  0
 81154  1  0  0  0
 82 84  1  0  0  0
 82 85  1  0  0  0
 82155  1  0  0  0
 83156  1  0  0  0
 83157  1  0  0  0
 83158  1  0  0  0
 84159  1  0  0  0
 84160  1  0  0  0
 84161  1  0  0  0
 86162  1  0  0  0
M  ISO  4   1 100  68 101  79 101  86 100
M  END
> <chiral flag>
0

> <version>
0

> <s_m_source_file>
/data/baiqing/PycharmProjects/Reinvent-master-3.2/result/LINK_invent/BTK/process_docking_weight1_custom_product_contain_oxygen_bond_distance_aromatic_linkinvent_7_9_3/rearranged_h_0090.sdf

> <i_m_source_file_index>
24

> <r_mmod_Potential_Energy-OPLS-2005>
-1.6270432472229

> <r_mmod_Stretch_Energy-OPLS-2005>
69.546257019043

> <r_mmod_Bend_Energy-OPLS-2005>
184.455001831055

> <r_mmod_Torsional_Energy-OPLS-2005>
240.126678466797

> <r_mmod_Improper_Torsional_Energy-OPLS-2005>
6.47611379623413

> <r_mmod_Van_der_Waal_Energy-OPLS-2005>
148.927368164062

> <r_mmod_Electrostatic_Energy-OPLS-2005>
-463.891021728516

> <r_mmod_Solvation_Energy-OPLS-2005>
-229.273620605469

> <b_mmod_Minimization_Converged-OPLS-2005>
0

> <r_mmod_RMS_Derivative-OPLS-2005>
0.216373071074486

$$$$
24
                    3D
 Structure written by MMmdl.
159168  0  0  1  0            999 V2000
  -30.6164  -14.5904   20.5409 C   0  0  0  0  0  0
  -30.4437  -12.3727   19.4334 C   0  0  0  0  0  0
  -29.5032  -12.5164   18.2153 C   0  0  0  0  0  0
  -28.0256  -12.3510   18.6280 C   0  0  0  0  0  0
  -27.6573  -13.1956   19.8746 C   0  0  2  0  0  0
  -28.7033  -13.0090   20.9965 C   0  0  0  0  0  0
  -25.2586  -13.8130   20.5685 C   0  0  0  0  0  0
  -24.1820  -13.0427   20.9182 C   0  0  0  0  0  0
  -24.6364  -11.6886   20.8742 C   0  0  0  0  0  0
  -23.9032  -10.4281   21.0416 C   0  0  0  0  0  0
  -24.3600   -9.4203   21.9192 C   0  0  0  0  0  0
  -23.6291   -8.2230   22.0749 C   0  0  0  0  0  0
  -22.4273   -8.0269   21.3540 C   0  0  0  0  0  0
  -21.9908   -9.0239   20.4639 C   0  0  0  0  0  0
  -22.7216  -10.2122   20.3057 C   0  0  0  0  0  0
  -21.6854   -6.0724   22.5282 C   0  0  0  0  0  0
  -21.4009   -6.5621   23.8220 C   0  0  0  0  0  0
  -21.3656   -5.6772   24.9179 C   0  0  0  0  0  0
  -21.6055   -4.3039   24.7225 C   0  0  0  0  0  0
  -21.8823   -3.8132   23.4342 C   0  0  0  0  0  0
  -21.9204   -4.6953   22.3403 C   0  0  0  0  0  0
  -22.7849  -13.5242   21.1861 C   0  0  0  0  0  0
  -22.1672   -4.2151   21.0976 F   0  0  0  0  0  0
  -21.5639   -3.4513   25.7731 F   0  0  0  0  0  0
  -30.0219  -13.3626   20.4402 N   0  0  0  0  0  0
  -26.3000  -12.9268   20.3362 N   0  0  0  0  0  0
  -25.9287  -11.6444   20.5764 N   0  0  0  0  0  0
  -22.0466  -12.8248   22.0407 N   0  0  0  0  0  0
  -25.4287  -15.1850   20.4132 N   0  0  0  0  0  0
  -31.7676  -14.8014   20.1448 O   0  0  0  0  0  0
  -21.6632   -6.8866   21.4244 O   0  0  0  0  0  0
  -22.3542  -14.5560   20.6720 O   0  0  0  0  0  0
  -24.6183  -31.8632   23.2057 C   0  0  0  0  0  0
  -25.9053  -32.4804   23.8371 C   0  0  1  0  0  0
  -27.2355  -27.3820   20.1212 C   0  0  0  0  0  0
  -25.5885  -33.8607   24.2288 N   0  0  0  0  0  0
  -23.4109  -30.4833   21.5459 C   0  0  2  0  0  0
  -24.8639  -28.9391   20.1176 C   0  0  0  0  0  0
  -22.7427  -29.4625   22.4969 C   0  0  0  0  0  0
  -18.0270  -28.1351   22.8487 C   0  0  0  0  0  0
  -24.1481  -36.7319   23.2641 C   0  0  0  0  0  0
  -25.9448  -30.8126   21.3690 C   0  0  0  0  0  0
  -26.0248  -29.4400   20.7234 C   0  0  0  0  0  0
  -27.2162  -28.6677   20.7252 C   0  0  0  0  0  0
  -26.0627  -26.9113   19.5012 C   0  0  0  0  0  0
  -24.8801  -27.6762   19.5013 C   0  0  0  0  0  0
  -23.6254  -29.8091   20.1633 C   0  0  0  0  0  0
  -25.4104  -36.3113   24.0327 C   0  0  1  0  0  0
  -20.5862  -28.3648   23.1298 C   0  0  2  0  0  0
  -20.6755  -26.9380   22.5413 C   0  0  0  0  0  0
  -19.5745  -26.6363   21.5196 C   0  0  0  0  0  0
  -18.1919  -26.7901   22.1604 C   0  0  0  0  0  0
  -19.1520  -28.8817   23.2889 C   0  0  0  0  0  0
  -18.9450  -30.1424   23.8898 C   0  0  0  0  0  0
  -17.6456  -30.6572   24.0542 C   0  0  0  0  0  0
  -25.9035  -34.9477   23.5113 C   0  0  0  0  0  0
  -16.5344  -29.9067   23.6325 C   0  0  0  0  0  0
  -16.7260  -28.6473   23.0366 C   0  0  0  0  0  0
  -26.4461  -31.6601   25.0726 C   0  0  0  0  0  0
  -25.3700  -31.3732   26.1457 C   0  0  0  0  0  0
  -27.0289  -30.3027   24.6142 C   0  0  0  0  0  0
  -27.6028  -32.4331   25.7486 C   0  0  0  0  0  0
  -27.5576  -37.1811   24.8455 C   0  0  0  0  0  0
  -21.4151  -29.3010   22.3697 N   0  0  0  0  0  0
  -26.4287  -37.3800   23.9408 N   0  0  0  0  0  0
  -24.6764  -31.0686   22.0980 N   0  0  0  0  0  0
  -23.4175  -28.8174   23.3038 O   0  0  0  0  0  0
  -28.3641  -26.5801   20.0708 O   0  0  0  0  0  0
  -26.5625  -34.8930   22.4698 O   0  0  0  0  0  0
  -23.5361  -32.1399   23.7420 O   0  0  0  0  0  0
  -28.5483  -19.0170   20.0616 C   0  0  0  0  0  0
  -30.6796  -17.8783   21.4932 C   0  0  0  0  0  0
  -29.3952  -19.8898   20.7925 C   0  0  0  0  0  0
  -28.7403  -17.6119   20.0698 C   0  0  0  0  0  0
  -29.8002  -17.0116   20.7959 C   0  0  0  0  0  0
  -30.4783  -19.2897   21.4942 C   0  0  0  0  0  0
  -29.7398  -23.6372   20.3367 C   0  0  0  0  0  0
  -28.6541  -24.1770   20.9329 C   0  0  0  0  0  0
  -27.6674  -23.2531   21.4974 C   0  0  0  0  0  0
  -27.9539  -21.8828   21.4814 C   0  0  0  0  0  0
  -29.9944  -22.1926   20.2197 C   0  0  0  0  0  0
  -26.3843  -23.7708   22.1356 C   0  0  0  0  0  0
  -28.5960  -25.7132   21.2072 C   0  0  0  0  0  0
  -29.1269  -21.3429   20.8506 N   0  0  0  0  0  0
  -27.8570  -16.8010   19.3598 N   0  0  0  0  0  0
  -29.7825  -15.5750   20.9674 N   0  0  0  0  0  0
  -27.2930  -20.9403   21.9792 O   0  5  0  0  0  0
  -30.9573  -21.7666   19.5759 O   0  0  0  0  0  0
  -31.3136  -20.0690   22.2232 F   0  0  0  0  0  0
  -31.4816  -12.5171   19.1285 H   0  0  0  0  0  0
  -30.3888  -11.3654   19.8478 H   0  0  0  0  0  0
  -29.7611  -11.7829   17.4501 H   0  0  0  0  0  0
  -29.6456  -13.4960   17.7555 H   0  0  0  0  0  0
  -27.8528  -11.2940   18.8327 H   0  0  0  0  0  0
  -27.3723  -12.6095   17.7940 H   0  0  0  0  0  0
  -27.6858  -14.2322   19.5546 H   0  0  0  0  0  0
  -28.7098  -11.9748   21.3432 H   0  0  0  0  0  0
  -28.4463  -13.6042   21.8742 H   0  0  0  0  0  0
  -25.2741   -9.5697   22.4770 H   0  0  0  0  0  0
  -24.0022   -7.4620   22.7448 H   0  0  0  0  0  0
  -21.0859   -8.8752   19.8933 H   0  0  0  0  0  0
  -22.3686  -10.9668   19.6166 H   0  0  0  0  0  0
  -21.1983   -7.6128   23.9727 H   0  0  0  0  0  0
  -21.1481   -6.0485   25.9083 H   0  0  0  0  0  0
  -22.0613   -2.7597   23.2825 H   0  0  0  0  0  0
  -22.4044  -11.9904   22.4819 H   0  0  0  0  0  0
  -21.1102  -13.1328   22.2630 H   0  0  0  0  0  0
  -24.6582  -15.8332   20.5263 H   0  0  0  0  0  0
  -26.2881  -15.6533   20.1208 H   0  0  0  0  0  0
  -26.7133  -32.5504   23.1137 H   0  0  0  0  0  0
  -24.9985  -33.9753   25.0398 H   0  0  0  0  0  0
  -22.7013  -31.3011   21.4002 H   0  0  0  0  0  0
  -23.3743  -35.9654   23.3312 H   0  0  0  0  0  0
  -24.3558  -36.8933   22.2055 H   0  0  0  0  0  0
  -23.7236  -37.6521   23.6658 H   0  0  0  0  0  0
  -26.0604  -31.5741   20.5964 H   0  0  0  0  0  0
  -26.8310  -30.8709   21.9896 H   0  0  0  0  0  0
  -28.1134  -29.0500   21.1906 H   0  0  0  0  0  0
  -26.0654  -25.9402   19.0244 H   0  0  0  0  0  0
  -23.9896  -27.2844   19.0290 H   0  0  0  0  0  0
  -23.7340  -30.5791   19.3985 H   0  0  0  0  0  0
  -22.7501  -29.2248   19.8712 H   0  0  0  0  0  0
  -25.1287  -36.1971   25.0818 H   0  0  0  0  0  0
  -20.9954  -28.3221   24.1418 H   0  0  0  0  0  0
  -20.5630  -26.2261   23.3603 H   0  0  0  0  0  0
  -21.6633  -26.7410   22.1231 H   0  0  0  0  0  0
  -19.6920  -25.6274   21.1223 H   0  0  0  0  0  0
  -19.6692  -27.3178   20.6726 H   0  0  0  0  0  0
  -17.4197  -26.6656   21.3993 H   0  0  0  0  0  0
  -18.0327  -26.0021   22.8980 H   0  0  0  0  0  0
  -19.7929  -30.7228   24.2277 H   0  0  0  0  0  0
  -17.5013  -31.6255   24.5133 H   0  0  0  0  0  0
  -15.5345  -30.2969   23.7643 H   0  0  0  0  0  0
  -15.8652  -28.0779   22.7108 H   0  0  0  0  0  0
  -24.5852  -30.7112   25.7772 H   0  0  0  0  0  0
  -24.8917  -32.2904   26.4901 H   0  0  0  0  0  0
  -25.8016  -30.8877   27.0214 H   0  0  0  0  0  0
  -26.2848  -29.6798   24.1160 H   0  0  0  0  0  0
  -27.3985  -29.7255   25.4626 H   0  0  0  0  0  0
  -27.8715  -30.4313   23.9346 H   0  0  0  0  0  0
  -27.2631  -33.3606   26.2097 H   0  0  0  0  0  0
  -28.3810  -32.6930   25.0303 H   0  0  0  0  0  0
  -28.0728  -31.8445   26.5367 H   0  0  0  0  0  0
  -28.2608  -38.0099   24.7515 H   0  0  0  0  0  0
  -28.1060  -36.2635   24.6267 H   0  0  0  0  0  0
  -27.2299  -37.1456   25.8859 H   0  0  0  0  0  0
  -20.9324  -29.8703   21.6884 H   0  0  0  0  0  0
  -26.0178  -38.2876   24.1414 H   0  0  0  0  0  0
  -27.7132  -19.4347   19.5167 H   0  0  0  0  0  0
  -31.4802  -17.4662   22.0884 H   0  0  0  0  0  0
  -30.5062  -24.3064   19.9697 H   0  0  0  0  0  0
  -25.9849  -24.6253   21.5872 H   0  0  0  0  0  0
  -26.5645  -24.0786   23.1668 H   0  0  0  0  0  0
  -25.6030  -23.0084   22.1487 H   0  0  0  0  0  0
  -29.5633  -26.0020   21.6200 H   0  0  0  0  0  0
  -27.8892  -25.9329   22.0085 H   0  0  0  0  0  0
  -27.2804  -17.2806   18.6767 H   0  0  0  0  0  0
  -28.2868  -15.9829   18.9478 H   0  0  0  0  0  0
  -28.8547  -15.2216   21.1439 H   0  0  0  0  0  0
  1 25  1  0  0  0
  1 30  2  0  0  0
  1 86  1  0  0  0
  2  3  1  0  0  0
  2 25  1  0  0  0
  2 90  1  0  0  0
  2 91  1  0  0  0
  3  4  1  0  0  0
  3 92  1  0  0  0
  3 93  1  0  0  0
  4  5  1  0  0  0
  4 94  1  0  0  0
  4 95  1  0  0  0
  5  6  1  0  0  0
  5 26  1  0  0  0
  5 96  1  0  0  0
  6 25  1  0  0  0
  6 97  1  0  0  0
  6 98  1  0  0  0
  7  8  2  0  0  0
  7 26  1  0  0  0
  7 29  1  0  0  0
  8  9  1  0  0  0
  8 22  1  0  0  0
  9 10  1  0  0  0
  9 27  2  0  0  0
 10 11  2  0  0  0
 10 15  1  0  0  0
 11 12  1  0  0  0
 11 99  1  0  0  0
 12 13  2  0  0  0
 12100  1  0  0  0
 13 14  1  0  0  0
 13 31  1  0  0  0
 14 15  2  0  0  0
 14101  1  0  0  0
 15102  1  0  0  0
 16 17  2  0  0  0
 16 21  1  0  0  0
 16 31  1  0  0  0
 17 18  1  0  0  0
 17103  1  0  0  0
 18 19  2  0  0  0
 18104  1  0  0  0
 19 20  1  0  0  0
 19 24  1  0  0  0
 20 21  2  0  0  0
 20105  1  0  0  0
 21 23  1  0  0  0
 22 28  1  0  0  0
 22 32  2  0  0  0
 26 27  1  0  0  0
 28106  1  0  0  0
 28107  1  0  0  0
 29108  1  0  0  0
 29109  1  0  0  0
 33 34  1  0  0  0
 33 66  1  0  0  0
 33 70  2  0  0  0
 34 36  1  0  0  0
 34 59  1  0  0  0
 34110  1  0  0  0
 35 44  2  0  0  0
 35 45  1  0  0  0
 35 68  1  0  0  0
 36 56  1  0  0  0
 36111  1  0  0  0
 37 39  1  0  0  0
 37 47  1  0  0  0
 37 66  1  0  0  0
 37112  1  0  0  0
 38 43  2  0  0  0
 38 46  1  0  0  0
 38 47  1  0  0  0
 39 64  1  0  0  0
 39 67  2  0  0  0
 40 52  1  0  0  0
 40 53  2  0  0  0
 40 58  1  0  0  0
 41113  1  0  0  0
 41114  1  0  0  0
 41115  1  0  0  0
 41 48  1  0  0  0
 42 43  1  0  0  0
 42 66  1  0  0  0
 42116  1  0  0  0
 42117  1  0  0  0
 43 44  1  0  0  0
 44118  1  0  0  0
 45 46  2  0  0  0
 45119  1  0  0  0
 46120  1  0  0  0
 47121  1  0  0  0
 47122  1  0  0  0
 48 56  1  0  0  0
 48 65  1  0  0  0
 48123  1  0  0  0
 49 50  1  0  0  0
 49 53  1  0  0  0
 49 64  1  0  0  0
 49124  1  0  0  0
 50 51  1  0  0  0
 50125  1  0  0  0
 50126  1  0  0  0
 51 52  1  0  0  0
 51127  1  0  0  0
 51128  1  0  0  0
 52129  1  0  0  0
 52130  1  0  0  0
 53 54  1  0  0  0
 54 55  2  0  0  0
 54131  1  0  0  0
 55 57  1  0  0  0
 55132  1  0  0  0
 56 69  2  0  0  0
 57 58  2  0  0  0
 57133  1  0  0  0
 58134  1  0  0  0
 59 60  1  0  0  0
 59 61  1  0  0  0
 59 62  1  0  0  0
 60135  1  0  0  0
 60136  1  0  0  0
 60137  1  0  0  0
 61138  1  0  0  0
 61139  1  0  0  0
 61140  1  0  0  0
 62141  1  0  0  0
 62142  1  0  0  0
 62143  1  0  0  0
 63 65  1  0  0  0
 63144  1  0  0  0
 63145  1  0  0  0
 63146  1  0  0  0
 64147  1  0  0  0
 65148  1  0  0  0
 68 83  1  0  0  0
 71 73  2  0  0  0
 71 74  1  0  0  0
 71149  1  0  0  0
 72 75  1  0  0  0
 72 76  2  0  0  0
 72150  1  0  0  0
 73 76  1  0  0  0
 73 84  1  0  0  0
 74 75  2  0  0  0
 74 85  1  0  0  0
 75 86  1  0  0  0
 76 89  1  0  0  0
 77 78  2  0  0  0
 77 81  1  0  0  0
 77151  1  0  0  0
 78 79  1  0  0  0
 78 83  1  0  0  0
 79 80  2  0  0  0
 79 82  1  0  0  0
 80 84  1  0  0  0
 80 87  1  0  0  0
 81 84  1  0  0  0
 81 88  2  0  0  0
 82152  1  0  0  0
 82153  1  0  0  0
 82154  1  0  0  0
 83155  1  0  0  0
 83156  1  0  0  0
 85157  1  0  0  0
 85158  1  0  0  0
 86159  1  0  0  0
M  CHG  1  87  -1
M  ISO  4   1 100  68 101  83 101  86 100
M  END
> <chiral flag>
0

> <version>
0

> <s_m_source_file>
/data/baiqing/PycharmProjects/Reinvent-master-3.2/result/LINK_invent/BTK/process_docking_weight1_custom_product_contain_oxygen_bond_distance_aromatic_linkinvent_7_9_3/rearranged_h_0090.sdf

> <i_m_source_file_index>
25

> <r_mmod_Potential_Energy-OPLS-2005>
-220.517425537109

> <r_mmod_Stretch_Energy-OPLS-2005>
66.3539047241211

> <r_mmod_Bend_Energy-OPLS-2005>
131.568084716797

> <r_mmod_Torsional_Energy-OPLS-2005>
328.628509521484

> <r_mmod_Improper_Torsional_Energy-OPLS-2005>
11.5637063980103

> <r_mmod_Van_der_Waal_Energy-OPLS-2005>
181.232711791992

> <r_mmod_Electrostatic_Energy-OPLS-2005>
-539.689453125

> <r_mmod_Solvation_Energy-OPLS-2005>
-429.445526123047

> <b_mmod_Minimization_Converged-OPLS-2005>
0

> <r_mmod_RMS_Derivative-OPLS-2005>
1.93804049491882

$$$$
25
                    3D
 Structure written by MMmdl.
158167  0  0  1  0            999 V2000
  -30.6262  -14.7944   20.4585 C   0  0  0  0  0  0
  -30.4275  -12.4888   19.4839 C   0  0  0  0  0  0
  -29.5077  -12.5101   18.2418 C   0  0  0  0  0  0
  -28.0400  -12.3215   18.6675 C   0  0  0  0  0  0
  -27.6400  -13.2412   19.8540 C   0  0  2  0  0  0
  -28.6856  -13.2171   20.9910 C   0  0  0  0  0  0
  -25.2497  -13.8239   20.5716 C   0  0  0  0  0  0
  -24.1803  -13.0449   20.9248 C   0  0  0  0  0  0
  -24.6447  -11.6939   20.8831 C   0  0  0  0  0  0
  -23.9146  -10.4295   21.0471 C   0  0  0  0  0  0
  -24.3678   -9.4195   21.9235 C   0  0  0  0  0  0
  -23.6322   -8.2255   22.0796 C   0  0  0  0  0  0
  -22.4312   -8.0317   21.3572 C   0  0  0  0  0  0
  -21.9971   -9.0310   20.4669 C   0  0  0  0  0  0
  -22.7336  -10.2167   20.3080 C   0  0  0  0  0  0
  -21.6861   -6.0758   22.5294 C   0  0  0  0  0  0
  -21.4025   -6.5659   23.8235 C   0  0  0  0  0  0
  -21.3639   -5.6806   24.9196 C   0  0  0  0  0  0
  -21.6038   -4.3070   24.7245 C   0  0  0  0  0  0
  -21.8823   -3.8162   23.4365 C   0  0  0  0  0  0
  -21.9187   -4.6978   22.3416 C   0  0  0  0  0  0
  -22.7804  -13.5225   21.1869 C   0  0  0  0  0  0
  -22.1659   -4.2152   21.0998 F   0  0  0  0  0  0
  -21.5614   -3.4559   25.7764 F   0  0  0  0  0  0
  -29.9787  -13.5734   20.3981 N   0  0  0  0  0  0
  -26.2937  -12.9456   20.3334 N   0  0  0  0  0  0
  -25.9380  -11.6608   20.5863 N   0  0  0  0  0  0
  -22.0434  -12.8212   22.0410 N   0  0  0  0  0  0
  -25.4134  -15.1953   20.4036 N   0  0  0  0  0  0
  -31.8129  -14.8319   20.1213 O   0  0  0  0  0  0
  -21.6659   -6.8915   21.4263 O   0  0  0  0  0  0
  -22.3480  -14.5507   20.6697 O   0  0  0  0  0  0
  -24.6335  -31.8503   23.1950 C   0  0  0  0  0  0
  -25.9145  -32.4718   23.8298 C   0  0  1  0  0  0
  -27.2246  -27.2341   20.1259 C   0  0  0  0  0  0
  -25.5937  -33.8529   24.2225 N   0  0  0  0  0  0
  -23.4276  -30.4682   21.5428 C   0  0  2  0  0  0
  -24.8769  -28.9146   20.1028 C   0  0  0  0  0  0
  -22.7498  -29.4557   22.4970 C   0  0  0  0  0  0
  -18.0272  -28.1356   22.8518 C   0  0  0  0  0  0
  -24.1479  -36.7276   23.2629 C   0  0  0  0  0  0
  -25.9732  -30.7590   21.3702 C   0  0  0  0  0  0
  -26.0468  -29.3772   20.7182 C   0  0  0  0  0  0
  -27.2180  -28.5477   20.7219 C   0  0  0  0  0  0
  -26.0264  -26.8452   19.4860 C   0  0  0  0  0  0
  -24.8771  -27.6605   19.4727 C   0  0  0  0  0  0
  -23.6375  -29.7913   20.1618 C   0  0  0  0  0  0
  -25.4110  -36.3059   24.0310 C   0  0  1  0  0  0
  -20.5877  -28.3662   23.1306 C   0  0  2  0  0  0
  -20.6742  -26.9380   22.5429 C   0  0  0  0  0  0
  -19.5718  -26.6374   21.5221 C   0  0  0  0  0  0
  -18.1893  -26.7918   22.1616 C   0  0  0  0  0  0
  -19.1525  -28.8832   23.2899 C   0  0  0  0  0  0
  -18.9434  -30.1446   23.8889 C   0  0  0  0  0  0
  -17.6428  -30.6572   24.0553 C   0  0  0  0  0  0
  -25.9071  -34.9423   23.5083 C   0  0  0  0  0  0
  -16.5325  -29.9051   23.6343 C   0  0  0  0  0  0
  -16.7260  -28.6463   23.0384 C   0  0  0  0  0  0
  -26.4517  -31.6519   25.0664 C   0  0  0  0  0  0
  -25.3734  -31.3638   26.1357 C   0  0  0  0  0  0
  -27.0318  -30.2928   24.6100 C   0  0  0  0  0  0
  -27.6066  -32.4248   25.7451 C   0  0  0  0  0  0
  -27.5584  -37.1773   24.8452 C   0  0  0  0  0  0
  -21.4204  -29.3031   22.3729 N   0  0  0  0  0  0
  -26.4278  -37.3767   23.9412 N   0  0  0  0  0  0
  -24.6983  -31.0433   22.0930 N   0  0  0  0  0  0
  -23.4198  -28.8107   23.3074 O   0  0  0  0  0  0
  -28.3161  -26.3300   20.2317 O   0  0  0  0  0  0
  -26.5666  -34.8908   22.4666 O   0  0  0  0  0  0
  -23.5484  -32.1349   23.7233 O   0  0  0  0  0  0
  -31.3798  -20.1144   20.8439 C   0  0  0  0  0  0
  -29.5024  -18.6265   20.5125 C   0  0  0  0  0  0
  -31.6897  -17.6888   21.0116 C   0  0  0  0  0  0
  -27.8206  -21.3352   20.2134 C   0  0  0  0  0  0
  -28.4818  -23.5351   19.9578 C   0  0  0  0  0  0
  -29.9945  -20.0169   20.5672 C   0  0  0  0  0  0
  -32.2023  -18.9957   21.0680 C   0  0  0  0  0  0
  -30.3353  -17.4242   20.7106 C   0  0  0  0  0  0
  -27.3759  -22.6231   19.9965 C   0  0  0  0  0  0
  -29.5731  -22.7013   20.2664 C   0  0  0  0  0  0
  -30.9773  -23.2272   20.4192 C   0  0  0  0  0  0
  -28.4509  -25.0666   19.4168 C   0  0  0  0  0  0
  -29.2028  -21.2933   20.3639 N   0  0  0  0  0  0
  -33.5552  -19.1859   21.3604 N   0  0  0  0  0  0
  -29.8984  -15.9789   20.6792 N   0  0  0  0  0  0
  -26.0727  -22.9640   19.7772 O   0  0  0  0  0  0
  -31.4682  -12.6020   19.1731 H   0  0  0  0  0  0
  -30.3770  -11.5230   19.9925 H   0  0  0  0  0  0
  -29.7943  -11.7275   17.5391 H   0  0  0  0  0  0
  -29.6206  -13.4535   17.7078 H   0  0  0  0  0  0
  -27.9148  -11.2762   18.9556 H   0  0  0  0  0  0
  -27.3728  -12.4824   17.8209 H   0  0  0  0  0  0
  -27.6203  -14.2525   19.4540 H   0  0  0  0  0  0
  -28.7341  -12.2343   21.4621 H   0  0  0  0  0  0
  -28.4188  -13.9216   21.7826 H   0  0  0  0  0  0
  -25.2829   -9.5624   22.4816 H   0  0  0  0  0  0
  -23.9993   -7.4647   22.7548 H   0  0  0  0  0  0
  -21.0890   -8.8864   19.8988 H   0  0  0  0  0  0
  -22.3845  -10.9722   19.6176 H   0  0  0  0  0  0
  -21.2045   -7.6167   23.9726 H   0  0  0  0  0  0
  -21.1445   -6.0556   25.9083 H   0  0  0  0  0  0
  -22.0613   -2.7621   23.2904 H   0  0  0  0  0  0
  -22.4025  -11.9844   22.4753 H   0  0  0  0  0  0
  -21.1059  -13.1243   22.2611 H   0  0  0  0  0  0
  -24.6410  -15.8486   20.4992 H   0  0  0  0  0  0
  -26.2485  -15.6282   20.0270 H   0  0  0  0  0  0
  -26.7206  -32.5356   23.1019 H   0  0  0  0  0  0
  -25.0050  -33.9679   25.0345 H   0  0  0  0  0  0
  -22.7232  -31.2894   21.3970 H   0  0  0  0  0  0
  -23.3761  -35.9590   23.3253 H   0  0  0  0  0  0
  -24.3595  -36.8949   22.2060 H   0  0  0  0  0  0
  -23.7203  -37.6438   23.6701 H   0  0  0  0  0  0
  -26.0953  -31.5119   20.5909 H   0  0  0  0  0  0
  -26.8593  -30.8265   21.9893 H   0  0  0  0  0  0
  -28.1084  -28.8966   21.2250 H   0  0  0  0  0  0
  -25.9275  -25.8705   19.0311 H   0  0  0  0  0  0
  -23.9862  -27.2983   18.9799 H   0  0  0  0  0  0
  -23.7179  -30.5576   19.3912 H   0  0  0  0  0  0
  -22.7627  -29.1984   19.8872 H   0  0  0  0  0  0
  -25.1289  -36.1900   25.0798 H   0  0  0  0  0  0
  -20.9961  -28.3214   24.1424 H   0  0  0  0  0  0
  -20.5629  -26.2262   23.3626 H   0  0  0  0  0  0
  -21.6604  -26.7385   22.1222 H   0  0  0  0  0  0
  -19.6877  -25.6293   21.1224 H   0  0  0  0  0  0
  -19.6652  -27.3211   20.6779 H   0  0  0  0  0  0
  -17.4178  -26.6738   21.3986 H   0  0  0  0  0  0
  -18.0238  -26.0012   22.8961 H   0  0  0  0  0  0
  -19.7895  -30.7290   24.2242 H   0  0  0  0  0  0
  -17.4954  -31.6253   24.5130 H   0  0  0  0  0  0
  -15.5320  -30.2928   23.7657 H   0  0  0  0  0  0
  -15.8660  -28.0765   22.7114 H   0  0  0  0  0  0
  -24.6003  -30.6868   25.7688 H   0  0  0  0  0  0
  -24.8793  -32.2772   26.4687 H   0  0  0  0  0  0
  -25.8052  -30.8911   27.0191 H   0  0  0  0  0  0
  -26.2851  -29.6694   24.1152 H   0  0  0  0  0  0
  -27.4040  -29.7146   25.4575 H   0  0  0  0  0  0
  -27.8732  -30.4179   23.9269 H   0  0  0  0  0  0
  -27.2701  -33.3614   26.1914 H   0  0  0  0  0  0
  -28.3938  -32.6689   25.0300 H   0  0  0  0  0  0
  -28.0643  -31.8413   26.5447 H   0  0  0  0  0  0
  -28.2539  -38.0132   24.7581 H   0  0  0  0  0  0
  -28.1136  -36.2666   24.6168 H   0  0  0  0  0  0
  -27.2319  -37.1283   25.8854 H   0  0  0  0  0  0
  -20.9392  -29.8792   21.6967 H   0  0  0  0  0  0
  -26.0149  -38.2824   24.1462 H   0  0  0  0  0  0
  -31.8713  -21.0592   20.9195 H   0  0  0  0  0  0
  -28.4528  -18.4821   20.3065 H   0  0  0  0  0  0
  -32.3708  -16.8824   21.2263 H   0  0  0  0  0  0
  -27.2473  -20.4159   20.2525 H   0  0  0  0  0  0
  -31.0098  -24.3144   20.3347 H   0  0  0  0  0  0
  -31.6496  -22.8367   19.6526 H   0  0  0  0  0  0
  -31.3814  -23.0202   21.4120 H   0  0  0  0  0  0
  -27.7840  -25.0862   18.5575 H   0  0  0  0  0  0
  -29.4199  -25.1864   18.9359 H   0  0  0  0  0  0
  -33.8599  -20.1192   21.6205 H   0  0  0  0  0  0
  -34.0097  -18.4714   21.9223 H   0  0  0  0  0  0
  -28.9163  -15.8258   20.8487 H   0  0  0  0  0  0
  -25.4564  -22.2594   19.9624 H   0  0  0  0  0  0
  1 25  1  0  0  0
  1 30  2  0  0  0
  1 85  1  0  0  0
  2  3  1  0  0  0
  2 25  1  0  0  0
  2 87  1  0  0  0
  2 88  1  0  0  0
  3  4  1  0  0  0
  3 89  1  0  0  0
  3 90  1  0  0  0
  4  5  1  0  0  0
  4 91  1  0  0  0
  4 92  1  0  0  0
  5  6  1  0  0  0
  5 26  1  0  0  0
  5 93  1  0  0  0
  6 25  1  0  0  0
  6 94  1  0  0  0
  6 95  1  0  0  0
  7  8  2  0  0  0
  7 26  1  0  0  0
  7 29  1  0  0  0
  8  9  1  0  0  0
  8 22  1  0  0  0
  9 10  1  0  0  0
  9 27  2  0  0  0
 10 11  2  0  0  0
 10 15  1  0  0  0
 11 12  1  0  0  0
 11 96  1  0  0  0
 12 13  2  0  0  0
 12 97  1  0  0  0
 13 14  1  0  0  0
 13 31  1  0  0  0
 14 15  2  0  0  0
 14 98  1  0  0  0
 15 99  1  0  0  0
 16 17  2  0  0  0
 16 21  1  0  0  0
 16 31  1  0  0  0
 17 18  1  0  0  0
 17100  1  0  0  0
 18 19  2  0  0  0
 18101  1  0  0  0
 19 20  1  0  0  0
 19 24  1  0  0  0
 20 21  2  0  0  0
 20102  1  0  0  0
 21 23  1  0  0  0
 22 28  1  0  0  0
 22 32  2  0  0  0
 26 27  1  0  0  0
 28103  1  0  0  0
 28104  1  0  0  0
 29105  1  0  0  0
 29106  1  0  0  0
 33 34  1  0  0  0
 33 66  1  0  0  0
 33 70  2  0  0  0
 34 36  1  0  0  0
 34 59  1  0  0  0
 34107  1  0  0  0
 35 44  2  0  0  0
 35 45  1  0  0  0
 35 68  1  0  0  0
 36 56  1  0  0  0
 36108  1  0  0  0
 37 39  1  0  0  0
 37 47  1  0  0  0
 37 66  1  0  0  0
 37109  1  0  0  0
 38 43  2  0  0  0
 38 46  1  0  0  0
 38 47  1  0  0  0
 39 64  1  0  0  0
 39 67  2  0  0  0
 40 52  1  0  0  0
 40 53  2  0  0  0
 40 58  1  0  0  0
 41110  1  0  0  0
 41111  1  0  0  0
 41112  1  0  0  0
 41 48  1  0  0  0
 42 43  1  0  0  0
 42 66  1  0  0  0
 42113  1  0  0  0
 42114  1  0  0  0
 43 44  1  0  0  0
 44115  1  0  0  0
 45 46  2  0  0  0
 45116  1  0  0  0
 46117  1  0  0  0
 47118  1  0  0  0
 47119  1  0  0  0
 48 56  1  0  0  0
 48 65  1  0  0  0
 48120  1  0  0  0
 49 50  1  0  0  0
 49 53  1  0  0  0
 49 64  1  0  0  0
 49121  1  0  0  0
 50 51  1  0  0  0
 50122  1  0  0  0
 50123  1  0  0  0
 51 52  1  0  0  0
 51124  1  0  0  0
 51125  1  0  0  0
 52126  1  0  0  0
 52127  1  0  0  0
 53 54  1  0  0  0
 54 55  2  0  0  0
 54128  1  0  0  0
 55 57  1  0  0  0
 55129  1  0  0  0
 56 69  2  0  0  0
 57 58  2  0  0  0
 57130  1  0  0  0
 58131  1  0  0  0
 59 60  1  0  0  0
 59 61  1  0  0  0
 59 62  1  0  0  0
 60132  1  0  0  0
 60133  1  0  0  0
 60134  1  0  0  0
 61135  1  0  0  0
 61136  1  0  0  0
 61137  1  0  0  0
 62138  1  0  0  0
 62139  1  0  0  0
 62140  1  0  0  0
 63 65  1  0  0  0
 63141  1  0  0  0
 63142  1  0  0  0
 63143  1  0  0  0
 64144  1  0  0  0
 65145  1  0  0  0
 68 82  1  0  0  0
 71 76  2  0  0  0
 71 77  1  0  0  0
 71146  1  0  0  0
 72 76  1  0  0  0
 72 78  2  0  0  0
 72147  1  0  0  0
 73 77  2  0  0  0
 73 78  1  0  0  0
 73148  1  0  0  0
 74 79  2  0  0  0
 74 83  1  0  0  0
 74149  1  0  0  0
 75 79  1  0  0  0
 75 80  2  0  0  0
 75 82  1  0  0  0
 76 83  1  0  0  0
 77 84  1  0  0  0
 78 85  1  0  0  0
 79 86  1  0  0  0
 80 81  1  0  0  0
 80 83  1  0  0  0
 81150  1  0  0  0
 81151  1  0  0  0
 81152  1  0  0  0
 82153  1  0  0  0
 82154  1  0  0  0
 84155  1  0  0  0
 84156  1  0  0  0
 85157  1  0  0  0
 86158  1  0  0  0
M  ISO  4   1 100  68 101  82 101  85 100
M  END
> <chiral flag>
0

> <version>
0

> <s_m_source_file>
/data/baiqing/PycharmProjects/Reinvent-master-3.2/result/LINK_invent/BTK/process_docking_weight1_custom_product_contain_oxygen_bond_distance_aromatic_linkinvent_7_9_3/rearranged_h_0090.sdf

> <i_m_source_file_index>
26

> <r_mmod_Potential_Energy-OPLS-2005>
288.724639892578

> <r_mmod_Stretch_Energy-OPLS-2005>
167.259460449219

> <r_mmod_Bend_Energy-OPLS-2005>
206.960861206055

> <r_mmod_Torsional_Energy-OPLS-2005>
234.579498291016

> <r_mmod_Improper_Torsional_Energy-OPLS-2005>
10.697979927063

> <r_mmod_Van_der_Waal_Energy-OPLS-2005>
146.588562011719

> <r_mmod_Electrostatic_Energy-OPLS-2005>
-331.507659912109

> <r_mmod_Solvation_Energy-OPLS-2005>
-250.923202514648

> <b_mmod_Minimization_Converged-OPLS-2005>
0

> <r_mmod_RMS_Derivative-OPLS-2005>
4.61100769042969

$$$$
26
                    3D
 Structure written by MMmdl.
159168  0  0  1  0            999 V2000
  -30.6336  -14.7445   20.5184 C   0  0  0  0  0  0
  -30.4288  -12.4690   19.4785 C   0  0  0  0  0  0
  -29.5092  -12.5233   18.2394 C   0  0  0  0  0  0
  -28.0372  -12.3375   18.6507 C   0  0  0  0  0  0
  -27.6419  -13.2334   19.8530 C   0  0  2  0  0  0
  -28.6802  -13.1585   20.9900 C   0  0  0  0  0  0
  -25.2507  -13.8202   20.5703 C   0  0  0  0  0  0
  -24.1798  -13.0441   20.9198 C   0  0  0  0  0  0
  -24.6392  -11.6919   20.8736 C   0  0  0  0  0  0
  -23.9071  -10.4297   21.0404 C   0  0  0  0  0  0
  -24.3622   -9.4210   21.9184 C   0  0  0  0  0  0
  -23.6295   -8.2245   22.0757 C   0  0  0  0  0  0
  -22.4274   -8.0288   21.3550 C   0  0  0  0  0  0
  -21.9912   -9.0262   20.4651 C   0  0  0  0  0  0
  -22.7242  -10.2138   20.3056 C   0  0  0  0  0  0
  -21.6855   -6.0741   22.5279 C   0  0  0  0  0  0
  -21.4016   -6.5644   23.8214 C   0  0  0  0  0  0
  -21.3656   -5.6796   24.9177 C   0  0  0  0  0  0
  -21.6042   -4.3058   24.7225 C   0  0  0  0  0  0
  -21.8816   -3.8152   23.4345 C   0  0  0  0  0  0
  -21.9192   -4.6969   22.3403 C   0  0  0  0  0  0
  -22.7821  -13.5221   21.1865 C   0  0  0  0  0  0
  -22.1663   -4.2154   21.0979 F   0  0  0  0  0  0
  -21.5623   -3.4540   25.7737 F   0  0  0  0  0  0
  -29.9860  -13.5262   20.4231 N   0  0  0  0  0  0
  -26.2930  -12.9408   20.3280 N   0  0  0  0  0  0
  -25.9322  -11.6546   20.5733 N   0  0  0  0  0  0
  -22.0478  -12.8211   22.0429 N   0  0  0  0  0  0
  -25.4220  -15.1927   20.4156 N   0  0  0  0  0  0
  -31.7798  -14.8497   20.0704 O   0  0  0  0  0  0
  -21.6641   -6.8883   21.4241 O   0  0  0  0  0  0
  -22.3496  -14.5524   20.6713 O   0  0  0  0  0  0
  -24.6329  -31.8541   23.1977 C   0  0  0  0  0  0
  -25.9152  -32.4743   23.8324 C   0  0  1  0  0  0
  -27.2166  -27.2451   20.1204 C   0  0  0  0  0  0
  -25.5937  -33.8548   24.2242 N   0  0  0  0  0  0
  -23.4296  -30.4779   21.5415 C   0  0  2  0  0  0
  -24.8748  -28.9238   20.1087 C   0  0  0  0  0  0
  -22.7510  -29.4601   22.4903 C   0  0  0  0  0  0
  -18.0297  -28.1389   22.8484 C   0  0  0  0  0  0
  -24.1494  -36.7281   23.2643 C   0  0  0  0  0  0
  -25.9777  -30.7608   21.3809 C   0  0  0  0  0  0
  -26.0475  -29.3825   20.7209 C   0  0  0  0  0  0
  -27.2181  -28.5543   20.7179 C   0  0  0  0  0  0
  -26.0136  -26.8577   19.4851 C   0  0  0  0  0  0
  -24.8640  -27.6699   19.4817 C   0  0  0  0  0  0
  -23.6477  -29.8141   20.1570 C   0  0  0  0  0  0
  -25.4123  -36.3065   24.0322 C   0  0  1  0  0  0
  -20.5903  -28.3704   23.1264 C   0  0  2  0  0  0
  -20.6786  -26.9418   22.5407 C   0  0  0  0  0  0
  -19.5759  -26.6383   21.5214 C   0  0  0  0  0  0
  -18.1939  -26.7929   22.1625 C   0  0  0  0  0  0
  -19.1551  -28.8863   23.2868 C   0  0  0  0  0  0
  -18.9468  -30.1465   23.8888 C   0  0  0  0  0  0
  -17.6467  -30.6589   24.0563 C   0  0  0  0  0  0
  -25.9061  -34.9433   23.5082 C   0  0  0  0  0  0
  -16.5359  -29.9086   23.6332 C   0  0  0  0  0  0
  -16.7283  -28.6503   23.0351 C   0  0  0  0  0  0
  -26.4509  -31.6581   25.0724 C   0  0  0  0  0  0
  -25.3721  -31.3739   26.1434 C   0  0  0  0  0  0
  -27.0368  -30.2994   24.6234 C   0  0  0  0  0  0
  -27.6053  -32.4332   25.7502 C   0  0  0  0  0  0
  -27.5574  -37.1804   24.8469 C   0  0  0  0  0  0
  -21.4215  -29.3045   22.3650 N   0  0  0  0  0  0
  -26.4297  -37.3761   23.9398 N   0  0  0  0  0  0
  -24.6991  -31.0496   22.0958 N   0  0  0  0  0  0
  -23.4201  -28.8141   23.3009 O   0  0  0  0  0  0
  -28.3147  -26.3475   20.1912 O   0  0  0  0  0  0
  -26.5637  -34.8911   22.4655 O   0  0  0  0  0  0
  -23.5474  -32.1372   23.7259 O   0  0  0  0  0  0
  -29.1660  -18.2444   18.1584 C   0  0  0  0  0  0
  -29.0945  -19.5258   18.7429 C   0  0  0  0  0  0
  -29.4771  -17.0952   18.9115 C   0  0  0  0  0  0
  -29.3363  -19.7405   20.1181 C   0  0  0  0  0  0
  -29.7170  -17.1648   20.3016 C   0  0  0  0  0  0
  -29.6257  -18.5144   20.8851 C   0  0  0  0  0  0
  -28.7780  -23.8249   20.4146 C   0  0  0  0  0  0
  -29.5626  -23.9508   21.6578 C   0  0  0  0  0  0
  -28.2169  -24.9611   19.8292 C   0  0  0  0  0  0
  -28.6785  -22.3211   19.8644 C   0  0  0  0  0  0
  -30.5348  -22.8178   21.9857 C   0  0  0  0  0  0
  -29.8850  -21.4228   21.9142 C   0  0  0  0  0  0
  -29.9403  -15.9093   22.4950 C   0  0  0  0  0  0
  -29.2933  -21.1315   20.6062 N   0  0  0  0  0  0
  -29.9767  -15.8708   21.0285 N   0  0  0  0  0  0
  -29.4938  -24.9162   22.4264 O   0  0  0  0  0  0
  -29.8048  -18.6389   22.2224 F   0  0  0  0  0  0
  -31.4701  -12.5891   19.1748 H   0  0  0  0  0  0
  -30.3733  -11.4891   19.9556 H   0  0  0  0  0  0
  -29.7964  -11.7550   17.5206 H   0  0  0  0  0  0
  -29.6334  -13.4808   17.7310 H   0  0  0  0  0  0
  -27.9002  -11.2878   18.9130 H   0  0  0  0  0  0
  -27.3779  -12.5257   17.8025 H   0  0  0  0  0  0
  -27.6412  -14.2587   19.4818 H   0  0  0  0  0  0
  -28.7170  -12.1558   21.4179 H   0  0  0  0  0  0
  -28.3851  -13.8221   21.8014 H   0  0  0  0  0  0
  -25.2769   -9.5682   22.4757 H   0  0  0  0  0  0
  -24.0004   -7.4632   22.7470 H   0  0  0  0  0  0
  -21.0847   -8.8783   19.8952 H   0  0  0  0  0  0
  -22.3708  -10.9679   19.6165 H   0  0  0  0  0  0
  -21.2013   -7.6154   23.9718 H   0  0  0  0  0  0
  -21.1481   -6.0530   25.9077 H   0  0  0  0  0  0
  -22.0597   -2.7614   23.2847 H   0  0  0  0  0  0
  -22.4103  -11.9869   22.4807 H   0  0  0  0  0  0
  -21.1099  -13.1232   22.2650 H   0  0  0  0  0  0
  -24.6602  -15.8511   20.5345 H   0  0  0  0  0  0
  -26.2854  -15.6342   20.1255 H   0  0  0  0  0  0
  -26.7213  -32.5385   23.1059 H   0  0  0  0  0  0
  -25.0077  -33.9685   25.0382 H   0  0  0  0  0  0
  -22.7264  -31.3008   21.3966 H   0  0  0  0  0  0
  -23.3751  -35.9617   23.3308 H   0  0  0  0  0  0
  -24.3581  -36.8905   22.2057 H   0  0  0  0  0  0
  -23.7252  -37.6481   23.6674 H   0  0  0  0  0  0
  -26.1213  -31.5215   20.6125 H   0  0  0  0  0  0
  -26.8534  -30.8066   22.0169 H   0  0  0  0  0  0
  -28.1156  -28.8976   21.2128 H   0  0  0  0  0  0
  -25.9148  -25.8970   19.0058 H   0  0  0  0  0  0
  -23.9637  -27.3123   19.0008 H   0  0  0  0  0  0
  -23.7752  -30.5919   19.4028 H   0  0  0  0  0  0
  -22.7646  -29.2508   19.8502 H   0  0  0  0  0  0
  -25.1310  -36.1907   25.0814 H   0  0  0  0  0  0
  -20.9995  -28.3283   24.1384 H   0  0  0  0  0  0
  -20.5690  -26.2312   23.3612 H   0  0  0  0  0  0
  -21.6653  -26.7445   22.1198 H   0  0  0  0  0  0
  -19.6919  -25.6290   21.1250 H   0  0  0  0  0  0
  -19.6695  -27.3187   20.6738 H   0  0  0  0  0  0
  -17.4208  -26.6676   21.4028 H   0  0  0  0  0  0
  -18.0342  -26.0076   22.9026 H   0  0  0  0  0  0
  -19.7946  -30.7288   24.2245 H   0  0  0  0  0  0
  -17.5020  -31.6267   24.5168 H   0  0  0  0  0  0
  -15.5357  -30.2981   23.7663 H   0  0  0  0  0  0
  -15.8683  -28.0821   22.7063 H   0  0  0  0  0  0
  -24.5897  -30.7090   25.7753 H   0  0  0  0  0  0
  -24.8913  -32.2914   26.4839 H   0  0  0  0  0  0
  -25.8024  -30.8922   27.0223 H   0  0  0  0  0  0
  -26.2963  -29.6724   24.1251 H   0  0  0  0  0  0
  -27.4033  -29.7277   25.4770 H   0  0  0  0  0  0
  -27.8847  -30.4261   23.9498 H   0  0  0  0  0  0
  -27.2652  -33.3638   26.2058 H   0  0  0  0  0  0
  -28.3876  -32.6883   25.0340 H   0  0  0  0  0  0
  -28.0708  -31.8473   26.5437 H   0  0  0  0  0  0
  -28.2610  -38.0082   24.7480 H   0  0  0  0  0  0
  -28.1052  -36.2608   24.6347 H   0  0  0  0  0  0
  -27.2285  -37.1512   25.8873 H   0  0  0  0  0  0
  -20.9400  -29.8766   21.6855 H   0  0  0  0  0  0
  -26.0171  -38.2838   24.1373 H   0  0  0  0  0  0
  -28.9789  -18.1431   17.0983 H   0  0  0  0  0  0
  -28.8618  -20.3519   18.0895 H   0  0  0  0  0  0
  -29.5059  -16.1458   18.3965 H   0  0  0  0  0  0
  -27.6874  -24.8424   18.8968 H   0  0  0  0  0  0
  -29.1196  -22.3546   18.8678 H   0  0  0  0  0  0
  -27.6199  -22.1062   19.7123 H   0  0  0  0  0  0
  -30.9471  -22.9819   22.9811 H   0  0  0  0  0  0
  -31.3716  -22.8759   21.2893 H   0  0  0  0  0  0
  -29.1258  -21.3154   22.6907 H   0  0  0  0  0  0
  -30.6768  -20.7092   22.1392 H   0  0  0  0  0  0
  -30.0349  -14.9257   22.9599 H   0  0  0  0  0  0
  -29.0019  -16.3397   22.8456 H   0  0  0  0  0  0
  -30.7648  -16.5117   22.8775 H   0  0  0  0  0  0
  1 25  1  0  0  0
  1 30  2  0  0  0
  1 85  1  0  0  0
  2  3  1  0  0  0
  2 25  1  0  0  0
  2 88  1  0  0  0
  2 89  1  0  0  0
  3  4  1  0  0  0
  3 90  1  0  0  0
  3 91  1  0  0  0
  4  5  1  0  0  0
  4 92  1  0  0  0
  4 93  1  0  0  0
  5  6  1  0  0  0
  5 26  1  0  0  0
  5 94  1  0  0  0
  6 25  1  0  0  0
  6 95  1  0  0  0
  6 96  1  0  0  0
  7  8  2  0  0  0
  7 26  1  0  0  0
  7 29  1  0  0  0
  8  9  1  0  0  0
  8 22  1  0  0  0
  9 10  1  0  0  0
  9 27  2  0  0  0
 10 11  2  0  0  0
 10 15  1  0  0  0
 11 12  1  0  0  0
 11 97  1  0  0  0
 12 13  2  0  0  0
 12 98  1  0  0  0
 13 14  1  0  0  0
 13 31  1  0  0  0
 14 15  2  0  0  0
 14 99  1  0  0  0
 15100  1  0  0  0
 16 17  2  0  0  0
 16 21  1  0  0  0
 16 31  1  0  0  0
 17 18  1  0  0  0
 17101  1  0  0  0
 18 19  2  0  0  0
 18102  1  0  0  0
 19 20  1  0  0  0
 19 24  1  0  0  0
 20 21  2  0  0  0
 20103  1  0  0  0
 21 23  1  0  0  0
 22 28  1  0  0  0
 22 32  2  0  0  0
 26 27  1  0  0  0
 28104  1  0  0  0
 28105  1  0  0  0
 29106  1  0  0  0
 29107  1  0  0  0
 33 34  1  0  0  0
 33 66  1  0  0  0
 33 70  2  0  0  0
 34 36  1  0  0  0
 34 59  1  0  0  0
 34108  1  0  0  0
 35 44  2  0  0  0
 35 45  1  0  0  0
 35 68  1  0  0  0
 36 56  1  0  0  0
 36109  1  0  0  0
 37 39  1  0  0  0
 37 47  1  0  0  0
 37 66  1  0  0  0
 37110  1  0  0  0
 38 43  2  0  0  0
 38 46  1  0  0  0
 38 47  1  0  0  0
 39 64  1  0  0  0
 39 67  2  0  0  0
 40 52  1  0  0  0
 40 53  2  0  0  0
 40 58  1  0  0  0
 41111  1  0  0  0
 41112  1  0  0  0
 41113  1  0  0  0
 41 48  1  0  0  0
 42 43  1  0  0  0
 42 66  1  0  0  0
 42114  1  0  0  0
 42115  1  0  0  0
 43 44  1  0  0  0
 44116  1  0  0  0
 45 46  2  0  0  0
 45117  1  0  0  0
 46118  1  0  0  0
 47119  1  0  0  0
 47120  1  0  0  0
 48 56  1  0  0  0
 48 65  1  0  0  0
 48121  1  0  0  0
 49 50  1  0  0  0
 49 53  1  0  0  0
 49 64  1  0  0  0
 49122  1  0  0  0
 50 51  1  0  0  0
 50123  1  0  0  0
 50124  1  0  0  0
 51 52  1  0  0  0
 51125  1  0  0  0
 51126  1  0  0  0
 52127  1  0  0  0
 52128  1  0  0  0
 53 54  1  0  0  0
 54 55  2  0  0  0
 54129  1  0  0  0
 55 57  1  0  0  0
 55130  1  0  0  0
 56 69  2  0  0  0
 57 58  2  0  0  0
 57131  1  0  0  0
 58132  1  0  0  0
 59 60  1  0  0  0
 59 61  1  0  0  0
 59 62  1  0  0  0
 60133  1  0  0  0
 60134  1  0  0  0
 60135  1  0  0  0
 61136  1  0  0  0
 61137  1  0  0  0
 61138  1  0  0  0
 62139  1  0  0  0
 62140  1  0  0  0
 62141  1  0  0  0
 63 65  1  0  0  0
 63142  1  0  0  0
 63143  1  0  0  0
 63144  1  0  0  0
 64145  1  0  0  0
 65146  1  0  0  0
 68 79  1  0  0  0
 71 72  2  0  0  0
 71 73  1  0  0  0
 71147  1  0  0  0
 72 74  1  0  0  0
 72148  1  0  0  0
 73 75  2  0  0  0
 73149  1  0  0  0
 74 76  2  0  0  0
 74 84  1  0  0  0
 75 76  1  0  0  0
 75 85  1  0  0  0
 76 87  1  0  0  0
 77 78  1  0  0  0
 77 79  2  0  0  0
 77 80  1  0  0  0
 78 81  1  0  0  0
 78 86  2  0  0  0
 79150  1  0  0  0
 80 84  1  0  0  0
 80151  1  0  0  0
 80152  1  0  0  0
 81 82  1  0  0  0
 81153  1  0  0  0
 81154  1  0  0  0
 82 84  1  0  0  0
 82155  1  0  0  0
 82156  1  0  0  0
 83 85  1  0  0  0
 83157  1  0  0  0
 83158  1  0  0  0
 83159  1  0  0  0
M  ISO  4   1 100  68 101  79 101  85 100
M  END
> <chiral flag>
0

> <version>
0

> <s_m_source_file>
/data/baiqing/PycharmProjects/Reinvent-master-3.2/result/LINK_invent/BTK/process_docking_weight1_custom_product_contain_oxygen_bond_distance_aromatic_linkinvent_7_9_3/rearranged_h_0090.sdf

> <i_m_source_file_index>
27

> <r_mmod_Potential_Energy-OPLS-2005>
379.753570556641

> <r_mmod_Stretch_Energy-OPLS-2005>
148.657501220703

> <r_mmod_Bend_Energy-OPLS-2005>
180.330871582031

> <r_mmod_Torsional_Energy-OPLS-2005>
263.128784179688

> <r_mmod_Improper_Torsional_Energy-OPLS-2005>
3.33066606521606

> <r_mmod_Van_der_Waal_Energy-OPLS-2005>
159.116714477539

> <r_mmod_Electrostatic_Energy-OPLS-2005>
-237.766204833984

> <r_mmod_Solvation_Energy-OPLS-2005>
-224.164764404297

> <b_mmod_Minimization_Converged-OPLS-2005>
0

> <r_mmod_RMS_Derivative-OPLS-2005>
0.879789173603058

$$$$
27
                    3D
 Structure written by MMmdl.
162171  0  0  1  0            999 V2000
  -30.6634  -14.6090   20.5834 C   0  0  0  0  0  0
  -30.4357  -12.3978   19.4512 C   0  0  0  0  0  0
  -29.5075  -12.5348   18.2233 C   0  0  0  0  0  0
  -28.0295  -12.3636   18.6261 C   0  0  0  0  0  0
  -27.6571  -13.2131   19.8685 C   0  0  2  0  0  0
  -28.6938  -13.0216   20.9937 C   0  0  0  0  0  0
  -25.2572  -13.8162   20.5653 C   0  0  0  0  0  0
  -24.1838  -13.0431   20.9166 C   0  0  0  0  0  0
  -24.6401  -11.6905   20.8715 C   0  0  0  0  0  0
  -23.9067  -10.4288   21.0388 C   0  0  0  0  0  0
  -24.3615   -9.4206   21.9173 C   0  0  0  0  0  0
  -23.6287   -8.2243   22.0757 C   0  0  0  0  0  0
  -22.4269   -8.0280   21.3548 C   0  0  0  0  0  0
  -21.9899   -9.0254   20.4652 C   0  0  0  0  0  0
  -22.7231  -10.2130   20.3049 C   0  0  0  0  0  0
  -21.6854   -6.0728   22.5279 C   0  0  0  0  0  0
  -21.4016   -6.5636   23.8211 C   0  0  0  0  0  0
  -21.3656   -5.6791   24.9174 C   0  0  0  0  0  0
  -21.6041   -4.3053   24.7226 C   0  0  0  0  0  0
  -21.8818   -3.8143   23.4347 C   0  0  0  0  0  0
  -21.9195   -4.6956   22.3402 C   0  0  0  0  0  0
  -22.7860  -13.5232   21.1834 C   0  0  0  0  0  0
  -22.1661   -4.2141   21.0978 F   0  0  0  0  0  0
  -21.5625   -3.4540   25.7738 F   0  0  0  0  0  0
  -30.0188  -13.3958   20.4625 N   0  0  0  0  0  0
  -26.3001  -12.9337   20.3300 N   0  0  0  0  0  0
  -25.9326  -11.6494   20.5723 N   0  0  0  0  0  0
  -22.0510  -12.8225   22.0403 N   0  0  0  0  0  0
  -25.4274  -15.1876   20.4033 N   0  0  0  0  0  0
  -31.7367  -14.8228   20.0081 O   0  0  0  0  0  0
  -21.6639   -6.8872   21.4242 O   0  0  0  0  0  0
  -22.3542  -14.5533   20.6677 O   0  0  0  0  0  0
  -24.6245  -31.8602   23.1996 C   0  0  0  0  0  0
  -25.9090  -32.4779   23.8338 C   0  0  1  0  0  0
  -27.2366  -27.3284   20.1045 C   0  0  0  0  0  0
  -25.5902  -33.8582   24.2275 N   0  0  0  0  0  0
  -23.4182  -30.4797   21.5447 C   0  0  2  0  0  0
  -24.8638  -28.9296   20.1133 C   0  0  0  0  0  0
  -22.7459  -29.4625   22.4964 C   0  0  0  0  0  0
  -18.0281  -28.1378   22.8488 C   0  0  0  0  0  0
  -24.1483  -36.7290   23.2642 C   0  0  0  0  0  0
  -25.9568  -30.7910   21.3685 C   0  0  0  0  0  0
  -26.0298  -29.4167   20.7151 C   0  0  0  0  0  0
  -27.2129  -28.6250   20.7036 C   0  0  0  0  0  0
  -26.0387  -26.8790   19.5019 C   0  0  0  0  0  0
  -24.8691  -27.6656   19.5017 C   0  0  0  0  0  0
  -23.6301  -29.8077   20.1619 C   0  0  0  0  0  0
  -25.4109  -36.3092   24.0336 C   0  0  1  0  0  0
  -20.5876  -28.3689   23.1292 C   0  0  2  0  0  0
  -20.6771  -26.9416   22.5409 C   0  0  0  0  0  0
  -19.5745  -26.6380   21.5212 C   0  0  0  0  0  0
  -18.1927  -26.7918   22.1626 C   0  0  0  0  0  0
  -19.1532  -28.8847   23.2886 C   0  0  0  0  0  0
  -18.9455  -30.1445   23.8908 C   0  0  0  0  0  0
  -17.6457  -30.6583   24.0564 C   0  0  0  0  0  0
  -25.9047  -34.9458   23.5115 C   0  0  0  0  0  0
  -16.5349  -29.9085   23.6326 C   0  0  0  0  0  0
  -16.7269  -28.6497   23.0360 C   0  0  0  0  0  0
  -26.4484  -31.6579   25.0702 C   0  0  0  0  0  0
  -25.3722  -31.3700   26.1432 C   0  0  0  0  0  0
  -27.0331  -30.3010   24.6129 C   0  0  0  0  0  0
  -27.6052  -32.4308   25.7470 C   0  0  0  0  0  0
  -27.5580  -37.1800   24.8471 C   0  0  0  0  0  0
  -21.4175  -29.3055   22.3705 N   0  0  0  0  0  0
  -26.4294  -37.3781   23.9410 N   0  0  0  0  0  0
  -24.6855  -31.0612   22.0947 N   0  0  0  0  0  0
  -23.4177  -28.8172   23.3049 O   0  0  0  0  0  0
  -28.4002  -26.5465   20.1502 O   0  0  0  0  0  0
  -26.5632  -34.8929   22.4689 O   0  0  0  0  0  0
  -23.5406  -32.1407   23.7324 O   0  0  0  0  0  0
  -28.4678  -17.6749   21.1495 C   0  0  0  0  0  0
  -28.1802  -19.0646   21.0514 C   0  0  0  0  0  0
  -30.7909  -18.1144   20.7434 C   0  0  0  0  0  0
  -29.7849  -17.1531   21.0479 C   0  0  0  0  0  0
  -29.1939  -20.0412   20.8610 C   0  0  0  0  0  0
  -30.5065  -19.5180   20.6607 C   0  0  0  0  0  0
  -28.2926  -24.1930   21.8737 C   0  0  0  0  0  0
  -28.5047  -23.9681   20.5607 C   0  0  0  0  0  0
  -28.2419  -23.0885   22.8367 C   0  0  0  0  0  0
  -30.0516  -15.7133   21.5143 C   0  0  0  0  0  0
  -28.1163  -21.6694   22.2775 C   0  0  0  0  0  0
  -28.7916  -22.5039   20.0175 C   0  0  2  0  0  0
  -27.6971  -22.0947   19.0194 C   0  0  0  0  0  0
  -28.5075  -25.1868   19.5740 C   0  0  0  0  0  0
  -29.7769  -15.4465   22.7238 N   0  0  0  0  0  0
  -28.9323  -21.4476   21.0782 N   0  0  0  0  0  0
  -31.5535  -20.4211   20.4901 N   0  0  0  0  0  0
  -28.2737  -23.2662   24.0561 O   0  0  0  0  0  0
  -31.4784  -12.5157   19.1515 H   0  0  0  0  0  0
  -30.3686  -11.3918   19.8675 H   0  0  0  0  0  0
  -29.7758  -11.8008   17.4621 H   0  0  0  0  0  0
  -29.6497  -13.5155   17.7667 H   0  0  0  0  0  0
  -27.8608  -11.3064   18.8358 H   0  0  0  0  0  0
  -27.3774  -12.6165   17.7892 H   0  0  0  0  0  0
  -27.6922  -14.2581   19.5599 H   0  0  0  0  0  0
  -28.7096  -11.9806   21.3189 H   0  0  0  0  0  0
  -28.3890  -13.5797   21.8744 H   0  0  0  0  0  0
  -25.2768   -9.5673   22.4742 H   0  0  0  0  0  0
  -23.9993   -7.4631   22.7479 H   0  0  0  0  0  0
  -21.0822   -8.8769   19.8962 H   0  0  0  0  0  0
  -22.3689  -10.9660   19.6151 H   0  0  0  0  0  0
  -21.2016   -7.6148   23.9706 H   0  0  0  0  0  0
  -21.1475   -6.0529   25.9074 H   0  0  0  0  0  0
  -22.0601   -2.7607   23.2853 H   0  0  0  0  0  0
  -22.4140  -11.9897   22.4793 H   0  0  0  0  0  0
  -21.1132  -13.1251   22.2621 H   0  0  0  0  0  0
  -24.6561  -15.8391   20.4989 H   0  0  0  0  0  0
  -26.2686  -15.6184   20.0429 H   0  0  0  0  0  0
  -26.7167  -32.5450   23.1097 H   0  0  0  0  0  0
  -25.0033  -33.9721   25.0410 H   0  0  0  0  0  0
  -22.7127  -31.3000   21.3990 H   0  0  0  0  0  0
  -23.3753  -35.9615   23.3311 H   0  0  0  0  0  0
  -24.3578  -36.8896   22.2055 H   0  0  0  0  0  0
  -23.7224  -37.6489   23.6660 H   0  0  0  0  0  0
  -26.0848  -31.5505   20.5960 H   0  0  0  0  0  0
  -26.8395  -30.8436   21.9943 H   0  0  0  0  0  0
  -28.1107  -28.9993   21.1750 H   0  0  0  0  0  0
  -25.9641  -25.9089   19.0381 H   0  0  0  0  0  0
  -23.9715  -27.2823   19.0357 H   0  0  0  0  0  0
  -23.7430  -30.5800   19.4005 H   0  0  0  0  0  0
  -22.7509  -29.2318   19.8666 H   0  0  0  0  0  0
  -25.1288  -36.1956   25.0831 H   0  0  0  0  0  0
  -20.9961  -28.3252   24.1412 H   0  0  0  0  0  0
  -20.5673  -26.2303   23.3609 H   0  0  0  0  0  0
  -21.6641  -26.7446   22.1201 H   0  0  0  0  0  0
  -19.6911  -25.6292   21.1239 H   0  0  0  0  0  0
  -19.6669  -27.3194   20.6744 H   0  0  0  0  0  0
  -17.4196  -26.6666   21.4030 H   0  0  0  0  0  0
  -18.0325  -26.0060   22.9021 H   0  0  0  0  0  0
  -19.7937  -30.7248   24.2284 H   0  0  0  0  0  0
  -17.5022  -31.6259   24.5170 H   0  0  0  0  0  0
  -15.5354  -30.2997   23.7638 H   0  0  0  0  0  0
  -15.8665  -28.0811   22.7089 H   0  0  0  0  0  0
  -24.5898  -30.7048   25.7761 H   0  0  0  0  0  0
  -24.8906  -32.2857   26.4870 H   0  0  0  0  0  0
  -25.8047  -30.8871   27.0201 H   0  0  0  0  0  0
  -26.2906  -29.6765   24.1145 H   0  0  0  0  0  0
  -27.4051  -29.7247   25.4610 H   0  0  0  0  0  0
  -27.8760  -30.4318   23.9338 H   0  0  0  0  0  0
  -27.2672  -33.3606   26.2055 H   0  0  0  0  0  0
  -28.3852  -32.6866   25.0289 H   0  0  0  0  0  0
  -28.0736  -31.8427   26.5371 H   0  0  0  0  0  0
  -28.2610  -38.0087   24.7517 H   0  0  0  0  0  0
  -28.1066  -36.2619   24.6304 H   0  0  0  0  0  0
  -27.2303  -37.1461   25.8876 H   0  0  0  0  0  0
  -20.9367  -29.8761   21.6896 H   0  0  0  0  0  0
  -26.0182  -38.2861   24.1401 H   0  0  0  0  0  0
  -27.6562  -17.0044   21.3971 H   0  0  0  0  0  0
  -27.1589  -19.3763   21.2130 H   0  0  0  0  0  0
  -31.8150  -17.7756   20.6723 H   0  0  0  0  0  0
  -28.1266  -25.1914   22.2498 H   0  0  0  0  0  0
  -27.0655  -21.5006   22.0377 H   0  0  0  0  0  0
  -28.3866  -20.9606   23.0617 H   0  0  0  0  0  0
  -29.7423  -22.5512   19.4837 H   0  0  0  0  0  0
  -26.7176  -22.0551   19.4961 H   0  0  0  0  0  0
  -27.8981  -21.1138   18.5888 H   0  0  0  0  0  0
  -27.6308  -22.7921   18.1853 H   0  0  0  0  0  0
  -27.8001  -25.0134   18.7683 H   0  0  0  0  0  0
  -29.4780  -25.1614   19.0778 H   0  0  0  0  0  0
  -29.4092  -16.2628   23.1966 H   0  0  0  0  0  0
  -32.4588  -20.1416   20.8511 H   0  0  0  0  0  0
  -31.2989  -21.3608   20.7800 H   0  0  0  0  0  0
  1 25  1  0  0  0
  1 30  2  0  0  0
  1 80  1  0  0  0
  2  3  1  0  0  0
  2 25  1  0  0  0
  2 89  1  0  0  0
  2 90  1  0  0  0
  3  4  1  0  0  0
  3 91  1  0  0  0
  3 92  1  0  0  0
  4  5  1  0  0  0
  4 93  1  0  0  0
  4 94  1  0  0  0
  5  6  1  0  0  0
  5 26  1  0  0  0
  5 95  1  0  0  0
  6 25  1  0  0  0
  6 96  1  0  0  0
  6 97  1  0  0  0
  7  8  2  0  0  0
  7 26  1  0  0  0
  7 29  1  0  0  0
  8  9  1  0  0  0
  8 22  1  0  0  0
  9 10  1  0  0  0
  9 27  2  0  0  0
 10 11  2  0  0  0
 10 15  1  0  0  0
 11 12  1  0  0  0
 11 98  1  0  0  0
 12 13  2  0  0  0
 12 99  1  0  0  0
 13 14  1  0  0  0
 13 31  1  0  0  0
 14 15  2  0  0  0
 14100  1  0  0  0
 15101  1  0  0  0
 16 17  2  0  0  0
 16 21  1  0  0  0
 16 31  1  0  0  0
 17 18  1  0  0  0
 17102  1  0  0  0
 18 19  2  0  0  0
 18103  1  0  0  0
 19 20  1  0  0  0
 19 24  1  0  0  0
 20 21  2  0  0  0
 20104  1  0  0  0
 21 23  1  0  0  0
 22 28  1  0  0  0
 22 32  2  0  0  0
 26 27  1  0  0  0
 28105  1  0  0  0
 28106  1  0  0  0
 29107  1  0  0  0
 29108  1  0  0  0
 33 34  1  0  0  0
 33 66  1  0  0  0
 33 70  2  0  0  0
 34 36  1  0  0  0
 34 59  1  0  0  0
 34109  1  0  0  0
 35 44  2  0  0  0
 35 45  1  0  0  0
 35 68  1  0  0  0
 36 56  1  0  0  0
 36110  1  0  0  0
 37 39  1  0  0  0
 37 47  1  0  0  0
 37 66  1  0  0  0
 37111  1  0  0  0
 38 43  2  0  0  0
 38 46  1  0  0  0
 38 47  1  0  0  0
 39 64  1  0  0  0
 39 67  2  0  0  0
 40 52  1  0  0  0
 40 53  2  0  0  0
 40 58  1  0  0  0
 41112  1  0  0  0
 41113  1  0  0  0
 41114  1  0  0  0
 41 48  1  0  0  0
 42 43  1  0  0  0
 42 66  1  0  0  0
 42115  1  0  0  0
 42116  1  0  0  0
 43 44  1  0  0  0
 44117  1  0  0  0
 45 46  2  0  0  0
 45118  1  0  0  0
 46119  1  0  0  0
 47120  1  0  0  0
 47121  1  0  0  0
 48 56  1  0  0  0
 48 65  1  0  0  0
 48122  1  0  0  0
 49 50  1  0  0  0
 49 53  1  0  0  0
 49 64  1  0  0  0
 49123  1  0  0  0
 50 51  1  0  0  0
 50124  1  0  0  0
 50125  1  0  0  0
 51 52  1  0  0  0
 51126  1  0  0  0
 51127  1  0  0  0
 52128  1  0  0  0
 52129  1  0  0  0
 53 54  1  0  0  0
 54 55  2  0  0  0
 54130  1  0  0  0
 55 57  1  0  0  0
 55131  1  0  0  0
 56 69  2  0  0  0
 57 58  2  0  0  0
 57132  1  0  0  0
 58133  1  0  0  0
 59 60  1  0  0  0
 59 61  1  0  0  0
 59 62  1  0  0  0
 60134  1  0  0  0
 60135  1  0  0  0
 60136  1  0  0  0
 61137  1  0  0  0
 61138  1  0  0  0
 61139  1  0  0  0
 62140  1  0  0  0
 62141  1  0  0  0
 62142  1  0  0  0
 63 65  1  0  0  0
 63143  1  0  0  0
 63144  1  0  0  0
 63145  1  0  0  0
 64146  1  0  0  0
 65147  1  0  0  0
 68 84  1  0  0  0
 71 72  2  0  0  0
 71 74  1  0  0  0
 71148  1  0  0  0
 72 75  1  0  0  0
 72149  1  0  0  0
 73 74  2  0  0  0
 73 76  1  0  0  0
 73150  1  0  0  0
 74 80  1  0  0  0
 75 76  2  0  0  0
 75 86  1  0  0  0
 76 87  1  0  0  0
 77 78  2  0  0  0
 77 79  1  0  0  0
 77151  1  0  0  0
 78 82  1  0  0  0
 78 84  1  0  0  0
 79 81  1  0  0  0
 79 88  2  0  0  0
 80 85  2  0  0  0
 81 86  1  0  0  0
 81152  1  0  0  0
 81153  1  0  0  0
 82 83  1  0  0  0
 82 86  1  0  0  0
 82154  1  0  0  0
 83155  1  0  0  0
 83156  1  0  0  0
 83157  1  0  0  0
 84158  1  0  0  0
 84159  1  0  0  0
 85160  1  0  0  0
 87161  1  0  0  0
 87162  1  0  0  0
M  ISO  4   1 100  68 101  80 100  84 101
M  END
> <chiral flag>
0

> <version>
0

> <s_m_source_file>
/data/baiqing/PycharmProjects/Reinvent-master-3.2/result/LINK_invent/BTK/process_docking_weight1_custom_product_contain_oxygen_bond_distance_aromatic_linkinvent_7_9_3/rearranged_h_0090.sdf

> <i_m_source_file_index>
28

> <r_mmod_Potential_Energy-OPLS-2005>
176.526870727539

> <r_mmod_Stretch_Energy-OPLS-2005>
91.7451171875

> <r_mmod_Bend_Energy-OPLS-2005>
162.409332275391

> <r_mmod_Torsional_Energy-OPLS-2005>
244.837753295898

> <r_mmod_Improper_Torsional_Energy-OPLS-2005>
12.4851856231689

> <r_mmod_Van_der_Waal_Energy-OPLS-2005>
153.788040161133

> <r_mmod_Electrostatic_Energy-OPLS-2005>
-302.642395019531

> <r_mmod_Solvation_Energy-OPLS-2005>
-223.938079833984

> <b_mmod_Minimization_Converged-OPLS-2005>
0

> <r_mmod_RMS_Derivative-OPLS-2005>
1.38967573642731

$$$$
28
                    3D
 Structure written by MMmdl.
157166  0  0  1  0            999 V2000
  -30.5950  -14.6983   20.4977 C   0  0  0  0  0  0
  -30.4437  -12.4303   19.4647 C   0  0  0  0  0  0
  -29.5125  -12.5170   18.2330 C   0  0  0  0  0  0
  -28.0366  -12.3419   18.6436 C   0  0  0  0  0  0
  -27.6516  -13.2202   19.8633 C   0  0  2  0  0  0
  -28.6945  -13.0938   20.9965 C   0  0  0  0  0  0
  -25.2563  -13.8182   20.5690 C   0  0  0  0  0  0
  -24.1831  -13.0447   20.9191 C   0  0  0  0  0  0
  -24.6398  -11.6917   20.8740 C   0  0  0  0  0  0
  -23.9063  -10.4299   21.0407 C   0  0  0  0  0  0
  -24.3615   -9.4211   21.9184 C   0  0  0  0  0  0
  -23.6290   -8.2249   22.0749 C   0  0  0  0  0  0
  -22.4275   -8.0285   21.3537 C   0  0  0  0  0  0
  -21.9907   -9.0263   20.4645 C   0  0  0  0  0  0
  -22.7232  -10.2146   20.3057 C   0  0  0  0  0  0
  -21.6854   -6.0738   22.5277 C   0  0  0  0  0  0
  -21.4014   -6.5642   23.8212 C   0  0  0  0  0  0
  -21.3656   -5.6792   24.9171 C   0  0  0  0  0  0
  -21.6042   -4.3056   24.7224 C   0  0  0  0  0  0
  -21.8818   -3.8145   23.4344 C   0  0  0  0  0  0
  -21.9191   -4.6965   22.3400 C   0  0  0  0  0  0
  -22.7855  -13.5247   21.1854 C   0  0  0  0  0  0
  -22.1662   -4.2147   21.0980 F   0  0  0  0  0  0
  -21.5621   -3.4541   25.7735 F   0  0  0  0  0  0
  -30.0057  -13.4568   20.4351 N   0  0  0  0  0  0
  -26.2985  -12.9361   20.3319 N   0  0  0  0  0  0
  -25.9328  -11.6515   20.5762 N   0  0  0  0  0  0
  -22.0488  -12.8245   22.0410 N   0  0  0  0  0  0
  -25.4292  -15.1900   20.4121 N   0  0  0  0  0  0
  -31.7552  -14.8604   20.1092 O   0  0  0  0  0  0
  -21.6636   -6.8883   21.4241 O   0  0  0  0  0  0
  -22.3545  -14.5558   20.6702 O   0  0  0  0  0  0
  -24.6284  -31.8565   23.2007 C   0  0  0  0  0  0
  -25.9119  -32.4761   23.8342 C   0  0  1  0  0  0
  -27.2282  -27.2936   20.1323 C   0  0  0  0  0  0
  -25.5917  -33.8560   24.2262 N   0  0  0  0  0  0
  -23.4253  -30.4781   21.5429 C   0  0  2  0  0  0
  -24.8752  -28.9265   20.1140 C   0  0  0  0  0  0
  -22.7497  -29.4603   22.4926 C   0  0  0  0  0  0
  -18.0292  -28.1394   22.8490 C   0  0  0  0  0  0
  -24.1486  -36.7289   23.2632 C   0  0  0  0  0  0
  -25.9684  -30.7791   21.3776 C   0  0  0  0  0  0
  -26.0440  -29.4028   20.7230 C   0  0  0  0  0  0
  -27.2253  -28.5976   20.7237 C   0  0  0  0  0  0
  -26.0393  -26.8755   19.4972 C   0  0  0  0  0  0
  -24.8749  -27.6683   19.4909 C   0  0  0  0  0  0
  -23.6439  -29.8105   20.1593 C   0  0  0  0  0  0
  -25.4103  -36.3067   24.0329 C   0  0  1  0  0  0
  -20.5895  -28.3699   23.1280 C   0  0  2  0  0  0
  -20.6785  -26.9419   22.5412 C   0  0  0  0  0  0
  -19.5756  -26.6389   21.5221 C   0  0  0  0  0  0
  -18.1938  -26.7934   22.1633 C   0  0  0  0  0  0
  -19.1548  -28.8862   23.2880 C   0  0  0  0  0  0
  -18.9466  -30.1467   23.8895 C   0  0  0  0  0  0
  -17.6463  -30.6589   24.0569 C   0  0  0  0  0  0
  -25.9051  -34.9444   23.5099 C   0  0  0  0  0  0
  -16.5354  -29.9089   23.6333 C   0  0  0  0  0  0
  -16.7281  -28.6509   23.0349 C   0  0  0  0  0  0
  -26.4494  -31.6585   25.0726 C   0  0  0  0  0  0
  -25.3725  -31.3751   26.1456 C   0  0  0  0  0  0
  -27.0337  -30.3002   24.6211 C   0  0  0  0  0  0
  -27.6053  -32.4329   25.7481 C   0  0  0  0  0  0
  -27.5592  -37.1764   24.8440 C   0  0  0  0  0  0
  -21.4208  -29.3039   22.3667 N   0  0  0  0  0  0
  -26.4267  -37.3778   23.9438 N   0  0  0  0  0  0
  -24.6927  -31.0552   22.0971 N   0  0  0  0  0  0
  -23.4202  -28.8150   23.3028 O   0  0  0  0  0  0
  -28.3221  -26.4085   20.1459 O   0  0  0  0  0  0
  -26.5634  -34.8918   22.4675 O   0  0  0  0  0  0
  -23.5440  -32.1366   23.7320 O   0  0  0  0  0  0
  -28.9131  -19.4440   21.4824 C   0  0  0  0  0  0
  -30.2880  -19.3256   19.5374 C   0  0  0  0  0  0
  -29.0480  -18.0241   21.6757 C   0  0  0  0  0  0
  -29.5199  -20.1577   20.4098 C   0  0  0  0  0  0
  -29.7991  -17.2056   20.7679 C   0  0  0  0  0  0
  -30.4162  -17.9076   19.6936 C   0  0  0  0  0  0
  -28.8228  -23.9263   20.2340 C   0  0  0  0  0  0
  -28.5287  -22.5569   20.7372 C   0  0  0  0  0  0
  -27.3330  -17.8938   23.5221 C   0  0  0  0  0  0
  -28.3635  -17.3864   22.8232 C   0  0  0  0  0  0
  -28.1057  -25.0659   20.5562 C   0  0  0  0  0  0
  -30.0087  -23.8355   19.3206 C   0  0  0  0  0  0
  -30.3136  -22.3213   19.2629 C   0  0  0  0  0  0
  -29.4100  -21.6353   20.2015 N   0  0  0  0  0  0
  -29.7883  -15.7314   20.9210 N   0  0  0  0  0  0
  -27.6174  -22.2741   21.5209 O   0  0  0  0  0  0
  -31.1120  -17.2243   18.7548 F   0  0  0  0  0  0
  -31.4827  -12.5690   19.1615 H   0  0  0  0  0  0
  -30.3951  -11.4389   19.9180 H   0  0  0  0  0  0
  -29.7876  -11.7584   17.4996 H   0  0  0  0  0  0
  -29.6424  -13.4811   17.7391 H   0  0  0  0  0  0
  -27.8865  -11.2894   18.8853 H   0  0  0  0  0  0
  -27.3802  -12.5558   17.7990 H   0  0  0  0  0  0
  -27.6641  -14.2528   19.5139 H   0  0  0  0  0  0
  -28.7197  -12.0745   21.3848 H   0  0  0  0  0  0
  -28.4264  -13.7257   21.8444 H   0  0  0  0  0  0
  -25.2765   -9.5687   22.4756 H   0  0  0  0  0  0
  -23.9993   -7.4643   22.7474 H   0  0  0  0  0  0
  -21.0830   -8.8790   19.8963 H   0  0  0  0  0  0
  -22.3687  -10.9689   19.6170 H   0  0  0  0  0  0
  -21.2012   -7.6151   23.9721 H   0  0  0  0  0  0
  -21.1475   -6.0518   25.9074 H   0  0  0  0  0  0
  -22.0598   -2.7608   23.2848 H   0  0  0  0  0  0
  -22.4095  -11.9908   22.4809 H   0  0  0  0  0  0
  -21.1111  -13.1292   22.2618 H   0  0  0  0  0  0
  -24.6682  -15.8484   20.5331 H   0  0  0  0  0  0
  -26.2852  -15.6304   20.0987 H   0  0  0  0  0  0
  -26.7192  -32.5427   23.1096 H   0  0  0  0  0  0
  -25.0038  -33.9691   25.0386 H   0  0  0  0  0  0
  -22.7205  -31.2992   21.3965 H   0  0  0  0  0  0
  -23.3753  -35.9614   23.3244 H   0  0  0  0  0  0
  -24.3595  -36.8957   22.2058 H   0  0  0  0  0  0
  -23.7228  -37.6470   23.6686 H   0  0  0  0  0  0
  -26.1034  -31.5403   20.6076 H   0  0  0  0  0  0
  -26.8471  -30.8285   22.0094 H   0  0  0  0  0  0
  -28.1223  -28.9560   21.2087 H   0  0  0  0  0  0
  -26.0055  -25.9080   19.0176 H   0  0  0  0  0  0
  -23.9807  -27.2966   19.0093 H   0  0  0  0  0  0
  -23.7685  -30.5862   19.4030 H   0  0  0  0  0  0
  -22.7635  -29.2424   19.8534 H   0  0  0  0  0  0
  -25.1273  -36.1900   25.0818 H   0  0  0  0  0  0
  -20.9987  -28.3281   24.1400 H   0  0  0  0  0  0
  -20.5701  -26.2307   23.3614 H   0  0  0  0  0  0
  -21.6651  -26.7455   22.1194 H   0  0  0  0  0  0
  -19.6918  -25.6301   21.1246 H   0  0  0  0  0  0
  -19.6694  -27.3207   20.6760 H   0  0  0  0  0  0
  -17.4208  -26.6685   21.4037 H   0  0  0  0  0  0
  -18.0337  -26.0077   22.9030 H   0  0  0  0  0  0
  -19.7938  -30.7295   24.2256 H   0  0  0  0  0  0
  -17.5009  -31.6263   24.5182 H   0  0  0  0  0  0
  -15.5355  -30.2990   23.7651 H   0  0  0  0  0  0
  -15.8682  -28.0832   22.7055 H   0  0  0  0  0  0
  -24.5876  -30.7122   25.7794 H   0  0  0  0  0  0
  -24.8945  -32.2933   26.4882 H   0  0  0  0  0  0
  -25.8035  -30.8920   27.0233 H   0  0  0  0  0  0
  -26.2923  -29.6742   24.1232 H   0  0  0  0  0  0
  -27.4014  -29.7274   25.4735 H   0  0  0  0  0  0
  -27.8801  -30.4278   23.9460 H   0  0  0  0  0  0
  -27.2663  -33.3627   26.2061 H   0  0  0  0  0  0
  -28.3846  -32.6890   25.0291 H   0  0  0  0  0  0
  -28.0741  -31.8455   26.5385 H   0  0  0  0  0  0
  -28.2526  -38.0143   24.7603 H   0  0  0  0  0  0
  -28.1169  -36.2683   24.6099 H   0  0  0  0  0  0
  -27.2340  -37.1208   25.8842 H   0  0  0  0  0  0
  -20.9402  -29.8736   21.6845 H   0  0  0  0  0  0
  -26.0139  -38.2829   24.1516 H   0  0  0  0  0  0
  -28.3429  -20.0077   22.2040 H   0  0  0  0  0  0
  -30.7907  -19.7643   18.6887 H   0  0  0  0  0  0
  -26.9216  -17.3516   24.3622 H   0  0  0  0  0  0
  -26.8753  -18.8422   23.2831 H   0  0  0  0  0  0
  -28.7501  -16.4314   23.1503 H   0  0  0  0  0  0
  -27.2610  -25.0024   21.2308 H   0  0  0  0  0  0
  -30.8440  -24.3961   19.7411 H   0  0  0  0  0  0
  -29.7761  -24.2426   18.3360 H   0  0  0  0  0  0
  -31.3538  -22.1214   19.5243 H   0  0  0  0  0  0
  -30.1465  -21.9465   18.2523 H   0  0  0  0  0  0
  -28.9500  -15.3912   21.3638 H   0  0  0  0  0  0
  1 25  1  0  0  0
  1 30  2  0  0  0
  1 85  1  0  0  0
  2  3  1  0  0  0
  2 25  1  0  0  0
  2 88  1  0  0  0
  2 89  1  0  0  0
  3  4  1  0  0  0
  3 90  1  0  0  0
  3 91  1  0  0  0
  4  5  1  0  0  0
  4 92  1  0  0  0
  4 93  1  0  0  0
  5  6  1  0  0  0
  5 26  1  0  0  0
  5 94  1  0  0  0
  6 25  1  0  0  0
  6 95  1  0  0  0
  6 96  1  0  0  0
  7  8  2  0  0  0
  7 26  1  0  0  0
  7 29  1  0  0  0
  8  9  1  0  0  0
  8 22  1  0  0  0
  9 10  1  0  0  0
  9 27  2  0  0  0
 10 11  2  0  0  0
 10 15  1  0  0  0
 11 12  1  0  0  0
 11 97  1  0  0  0
 12 13  2  0  0  0
 12 98  1  0  0  0
 13 14  1  0  0  0
 13 31  1  0  0  0
 14 15  2  0  0  0
 14 99  1  0  0  0
 15100  1  0  0  0
 16 17  2  0  0  0
 16 21  1  0  0  0
 16 31  1  0  0  0
 17 18  1  0  0  0
 17101  1  0  0  0
 18 19  2  0  0  0
 18102  1  0  0  0
 19 20  1  0  0  0
 19 24  1  0  0  0
 20 21  2  0  0  0
 20103  1  0  0  0
 21 23  1  0  0  0
 22 28  1  0  0  0
 22 32  2  0  0  0
 26 27  1  0  0  0
 28104  1  0  0  0
 28105  1  0  0  0
 29106  1  0  0  0
 29107  1  0  0  0
 33 34  1  0  0  0
 33 66  1  0  0  0
 33 70  2  0  0  0
 34 36  1  0  0  0
 34 59  1  0  0  0
 34108  1  0  0  0
 35 44  2  0  0  0
 35 45  1  0  0  0
 35 68  1  0  0  0
 36 56  1  0  0  0
 36109  1  0  0  0
 37 39  1  0  0  0
 37 47  1  0  0  0
 37 66  1  0  0  0
 37110  1  0  0  0
 38 43  2  0  0  0
 38 46  1  0  0  0
 38 47  1  0  0  0
 39 64  1  0  0  0
 39 67  2  0  0  0
 40 52  1  0  0  0
 40 53  2  0  0  0
 40 58  1  0  0  0
 41111  1  0  0  0
 41112  1  0  0  0
 41113  1  0  0  0
 41 48  1  0  0  0
 42 43  1  0  0  0
 42 66  1  0  0  0
 42114  1  0  0  0
 42115  1  0  0  0
 43 44  1  0  0  0
 44116  1  0  0  0
 45 46  2  0  0  0
 45117  1  0  0  0
 46118  1  0  0  0
 47119  1  0  0  0
 47120  1  0  0  0
 48 56  1  0  0  0
 48 65  1  0  0  0
 48121  1  0  0  0
 49 50  1  0  0  0
 49 53  1  0  0  0
 49 64  1  0  0  0
 49122  1  0  0  0
 50 51  1  0  0  0
 50123  1  0  0  0
 50124  1  0  0  0
 51 52  1  0  0  0
 51125  1  0  0  0
 51126  1  0  0  0
 52127  1  0  0  0
 52128  1  0  0  0
 53 54  1  0  0  0
 54 55  2  0  0  0
 54129  1  0  0  0
 55 57  1  0  0  0
 55130  1  0  0  0
 56 69  2  0  0  0
 57 58  2  0  0  0
 57131  1  0  0  0
 58132  1  0  0  0
 59 60  1  0  0  0
 59 61  1  0  0  0
 59 62  1  0  0  0
 60133  1  0  0  0
 60134  1  0  0  0
 60135  1  0  0  0
 61136  1  0  0  0
 61137  1  0  0  0
 61138  1  0  0  0
 62139  1  0  0  0
 62140  1  0  0  0
 62141  1  0  0  0
 63 65  1  0  0  0
 63142  1  0  0  0
 63143  1  0  0  0
 63144  1  0  0  0
 64145  1  0  0  0
 65146  1  0  0  0
 68 81  1  0  0  0
 71 73  2  0  0  0
 71 74  1  0  0  0
 71147  1  0  0  0
 72 74  2  0  0  0
 72 76  1  0  0  0
 72148  1  0  0  0
 73 75  1  0  0  0
 73 80  1  0  0  0
 74 84  1  0  0  0
 75 76  2  0  0  0
 75 85  1  0  0  0
 76 87  1  0  0  0
 77 78  1  0  0  0
 77 81  2  0  0  0
 77 82  1  0  0  0
 78 84  1  0  0  0
 78 86  2  0  0  0
 79 80  2  0  0  0
 79149  1  0  0  0
 79150  1  0  0  0
 80151  1  0  0  0
 81152  1  0  0  0
 82 83  1  0  0  0
 82153  1  0  0  0
 82154  1  0  0  0
 83 84  1  0  0  0
 83155  1  0  0  0
 83156  1  0  0  0
 85157  1  0  0  0
M  ISO  4   1 100  68 101  81 101  85 100
M  END
> <chiral flag>
0

> <version>
0

> <s_m_source_file>
/data/baiqing/PycharmProjects/Reinvent-master-3.2/result/LINK_invent/BTK/process_docking_weight1_custom_product_contain_oxygen_bond_distance_aromatic_linkinvent_7_9_3/rearranged_h_0090.sdf

> <i_m_source_file_index>
29

> <r_mmod_Potential_Energy-OPLS-2005>
164.691955566406

> <r_mmod_Stretch_Energy-OPLS-2005>
98.1546630859375

> <r_mmod_Bend_Energy-OPLS-2005>
171.296859741211

> <r_mmod_Torsional_Energy-OPLS-2005>
266.502380371094

> <r_mmod_Improper_Torsional_Energy-OPLS-2005>
3.21663022041321

> <r_mmod_Van_der_Waal_Energy-OPLS-2005>
143.66015625

> <r_mmod_Electrostatic_Energy-OPLS-2005>
-370.694122314453

> <r_mmod_Solvation_Energy-OPLS-2005>
-213.091445922852

> <b_mmod_Minimization_Converged-OPLS-2005>
0

> <r_mmod_RMS_Derivative-OPLS-2005>
1.16791653633118

$$$$
29
                    3D
 Structure written by MMmdl.
155163  0  0  1  0            999 V2000
  -30.6191  -14.6927   20.5341 C   0  0  0  0  0  0
  -30.4340  -12.4420   19.4771 C   0  0  0  0  0  0
  -29.5092  -12.5230   18.2399 C   0  0  0  0  0  0
  -28.0338  -12.3422   18.6526 C   0  0  0  0  0  0
  -27.6411  -13.2287   19.8637 C   0  0  2  0  0  0
  -28.6789  -13.1313   21.0050 C   0  0  0  0  0  0
  -25.2442  -13.8140   20.5531 C   0  0  0  0  0  0
  -24.1812  -13.0401   20.9200 C   0  0  0  0  0  0
  -24.6418  -11.6874   20.8830 C   0  0  0  0  0  0
  -23.9101  -10.4255   21.0446 C   0  0  0  0  0  0
  -24.3638   -9.4154   21.9200 C   0  0  0  0  0  0
  -23.6301   -8.2206   22.0764 C   0  0  0  0  0  0
  -22.4296   -8.0265   21.3533 C   0  0  0  0  0  0
  -21.9929   -9.0253   20.4660 C   0  0  0  0  0  0
  -22.7279  -10.2114   20.3086 C   0  0  0  0  0  0
  -21.6847   -6.0741   22.5277 C   0  0  0  0  0  0
  -21.3997   -6.5643   23.8210 C   0  0  0  0  0  0
  -21.3680   -5.6801   24.9181 C   0  0  0  0  0  0
  -21.6040   -4.3060   24.7212 C   0  0  0  0  0  0
  -21.8838   -3.8154   23.4337 C   0  0  0  0  0  0
  -21.9184   -4.6972   22.3397 C   0  0  0  0  0  0
  -22.7849  -13.5193   21.1842 C   0  0  0  0  0  0
  -22.1678   -4.2170   21.0972 F   0  0  0  0  0  0
  -21.5626   -3.4550   25.7718 F   0  0  0  0  0  0
  -29.9849  -13.4777   20.4337 N   0  0  0  0  0  0
  -26.2910  -12.9379   20.3296 N   0  0  0  0  0  0
  -25.9344  -11.6528   20.5850 N   0  0  0  0  0  0
  -22.0539  -12.8212   22.0438 N   0  0  0  0  0  0
  -25.3952  -15.1823   20.3494 N   0  0  0  0  0  0
  -31.8025  -14.7790   20.1934 O   0  0  0  0  0  0
  -21.6651   -6.8877   21.4234 O   0  0  0  0  0  0
  -22.3530  -14.5491   20.6666 O   0  0  0  0  0  0
  -24.6218  -31.8602   23.2039 C   0  0  0  0  0  0
  -25.9076  -32.4774   23.8361 C   0  0  1  0  0  0
  -27.2292  -27.3446   20.1220 C   0  0  0  0  0  0
  -25.5894  -33.8583   24.2277 N   0  0  0  0  0  0
  -23.4111  -30.4735   21.5491 C   0  0  2  0  0  0
  -24.8613  -28.9328   20.1137 C   0  0  0  0  0  0
  -22.7509  -29.4528   22.5051 C   0  0  0  0  0  0
  -18.0394  -28.1388   22.8642 C   0  0  0  0  0  0
  -24.1487  -36.7309   23.2632 C   0  0  0  0  0  0
  -25.9485  -30.7980   21.3706 C   0  0  0  0  0  0
  -26.0245  -29.4250   20.7192 C   0  0  0  0  0  0
  -27.2101  -28.6380   20.7171 C   0  0  0  0  0  0
  -26.0500  -26.8978   19.4880 C   0  0  0  0  0  0
  -24.8747  -27.6764   19.4840 C   0  0  0  0  0  0
  -23.6260  -29.8057   20.1642 C   0  0  0  0  0  0
  -25.4118  -36.3077   24.0315 C   0  0  1  0  0  0
  -20.5983  -28.3674   23.1711 C   0  0  2  0  0  0
  -20.6661  -26.9358   22.5908 C   0  0  0  0  0  0
  -19.6059  -26.7139   21.5089 C   0  0  0  0  0  0
  -18.2210  -26.8028   22.1588 C   0  0  0  0  0  0
  -19.1614  -28.8883   23.3122 C   0  0  0  0  0  0
  -18.9470  -30.1518   23.9045 C   0  0  0  0  0  0
  -17.6440  -30.6596   24.0692 C   0  0  0  0  0  0
  -25.9056  -34.9443   23.5092 C   0  0  0  0  0  0
  -16.5369  -29.9072   23.6419 C   0  0  0  0  0  0
  -16.7358  -28.6503   23.0460 C   0  0  0  0  0  0
  -26.4477  -31.6597   25.0731 C   0  0  0  0  0  0
  -25.3729  -31.3749   26.1472 C   0  0  0  0  0  0
  -27.0291  -30.3012   24.6185 C   0  0  0  0  0  0
  -27.6027  -32.4349   25.7496 C   0  0  0  0  0  0
  -27.5578  -37.1800   24.8445 C   0  0  0  0  0  0
  -21.4238  -29.2854   22.3875 N   0  0  0  0  0  0
  -26.4290  -37.3779   23.9383 N   0  0  0  0  0  0
  -24.6773  -31.0644   22.0943 N   0  0  0  0  0  0
  -23.4293  -28.8175   23.3159 O   0  0  0  0  0  0
  -28.3789  -26.5544   20.1201 O   0  0  0  0  0  0
  -26.5640  -34.8898   22.4667 O   0  0  0  0  0  0
  -23.5403  -32.1365   23.7432 O   0  0  0  0  0  0
  -29.4863  -19.6441   20.8747 C   0  0  0  0  0  0
  -27.2168  -19.2076   22.4327 C   0  0  0  0  0  0
  -29.1819  -18.2715   21.2556 C   0  0  0  0  0  0
  -27.9821  -18.0922   22.0259 C   0  0  0  0  0  0
  -28.6597  -20.7700   21.2493 C   0  0  0  0  0  0
  -27.5579  -20.5153   22.0767 C   0  0  0  0  0  0
  -28.3295  -25.1556   20.2760 C   0  0  0  0  0  0
  -30.1972  -17.1259   20.9453 C   0  0  0  0  0  0
  -29.3828  -24.3503   19.9429 C   0  0  0  0  0  0
  -29.5109  -22.8612   20.0230 C   0  0  0  0  0  0
  -27.4466  -16.7569   22.5136 C   0  0  0  0  0  0
  -28.7811  -22.1938   20.9396 N   0  0  0  0  0  0
  -29.8333  -15.7939   20.8464 N   0  0  0  0  0  0
  -31.3624  -17.4917   20.7781 O   0  0  0  0  0  0
  -30.3218  -22.2627   19.3127 O   0  0  0  0  0  0
  -30.4725  -24.9359   19.4303 O   0  0  0  0  0  0
  -26.8244  -21.5562   22.5477 F   0  0  0  0  0  0
  -31.4700  -12.5917   19.1666 H   0  0  0  0  0  0
  -30.4017  -11.4559   19.9465 H   0  0  0  0  0  0
  -29.7952  -11.7670   17.5069 H   0  0  0  0  0  0
  -29.6352  -13.4925   17.7500 H   0  0  0  0  0  0
  -27.8895  -11.2926   18.9115 H   0  0  0  0  0  0
  -27.3795  -12.5466   17.8038 H   0  0  0  0  0  0
  -27.6457  -14.2572   19.5029 H   0  0  0  0  0  0
  -28.7022  -12.1326   21.4455 H   0  0  0  0  0  0
  -28.4166  -13.8047   21.8213 H   0  0  0  0  0  0
  -25.2774   -9.5636   22.4788 H   0  0  0  0  0  0
  -24.0026   -7.4592   22.7474 H   0  0  0  0  0  0
  -21.0865   -8.8770   19.8963 H   0  0  0  0  0  0
  -22.3731  -10.9666   19.6227 H   0  0  0  0  0  0
  -21.2012   -7.6155   23.9715 H   0  0  0  0  0  0
  -21.1482   -6.0532   25.9078 H   0  0  0  0  0  0
  -22.0595   -2.7615   23.2823 H   0  0  0  0  0  0
  -22.4148  -11.9857   22.4819 H   0  0  0  0  0  0
  -21.1172  -13.1237   22.2678 H   0  0  0  0  0  0
  -24.5580  -15.7557   20.3162 H   0  0  0  0  0  0
  -26.1240  -15.5303   19.7394 H   0  0  0  0  0  0
  -26.7128  -32.5466   23.1101 H   0  0  0  0  0  0
  -24.9992  -33.9721   25.0390 H   0  0  0  0  0  0
  -22.6899  -31.2815   21.4065 H   0  0  0  0  0  0
  -23.3732  -35.9662   23.3309 H   0  0  0  0  0  0
  -24.3534  -36.8937   22.2034 H   0  0  0  0  0  0
  -23.7252  -37.6515   23.6677 H   0  0  0  0  0  0
  -26.0765  -31.5627   20.6036 H   0  0  0  0  0  0
  -26.8281  -30.8489   22.0010 H   0  0  0  0  0  0
  -28.1073  -29.0196   21.1803 H   0  0  0  0  0  0
  -26.0374  -25.9391   18.9901 H   0  0  0  0  0  0
  -23.9850  -27.3029   18.9959 H   0  0  0  0  0  0
  -23.7461  -30.5773   19.4002 H   0  0  0  0  0  0
  -22.7500  -29.2251   19.8680 H   0  0  0  0  0  0
  -25.1297  -36.1926   25.0814 H   0  0  0  0  0  0
  -21.0032  -28.3319   24.1866 H   0  0  0  0  0  0
  -20.4468  -26.2461   23.4078 H   0  0  0  0  0  0
  -21.6698  -26.6810   22.2417 H   0  0  0  0  0  0
  -19.7503  -25.7580   21.0082 H   0  0  0  0  0  0
  -19.7121  -27.4873   20.7426 H   0  0  0  0  0  0
  -17.4469  -26.6550   21.4084 H   0  0  0  0  0  0
  -18.1068  -25.9997   22.8906 H   0  0  0  0  0  0
  -19.7897  -30.7445   24.2371 H   0  0  0  0  0  0
  -17.4932  -31.6281   24.5282 H   0  0  0  0  0  0
  -15.5349  -30.2976   23.7648 H   0  0  0  0  0  0
  -15.8799  -28.0831   22.7081 H   0  0  0  0  0  0
  -24.5924  -30.7044   25.7854 H   0  0  0  0  0  0
  -24.8885  -32.2920   26.4857 H   0  0  0  0  0  0
  -25.8084  -30.8998   27.0277 H   0  0  0  0  0  0
  -26.2847  -29.6774   24.1212 H   0  0  0  0  0  0
  -27.3960  -29.7264   25.4704 H   0  0  0  0  0  0
  -27.8755  -30.4267   23.9420 H   0  0  0  0  0  0
  -27.2622  -33.3674   26.2036 H   0  0  0  0  0  0
  -28.3871  -32.6880   25.0338 H   0  0  0  0  0  0
  -28.0672  -31.8498   26.5448 H   0  0  0  0  0  0
  -28.2596  -38.0098   24.7488 H   0  0  0  0  0  0
  -28.1076  -36.2617   24.6300 H   0  0  0  0  0  0
  -27.2277  -37.1490   25.8844 H   0  0  0  0  0  0
  -20.9427  -29.8278   21.6852 H   0  0  0  0  0  0
  -26.0175  -38.2863   24.1372 H   0  0  0  0  0  0
  -30.3932  -19.8369   20.3130 H   0  0  0  0  0  0
  -26.3503  -19.0785   23.0654 H   0  0  0  0  0  0
  -27.3877  -24.8002   20.6790 H   0  0  0  0  0  0
  -26.3869  -16.8386   22.7713 H   0  0  0  0  0  0
  -27.9850  -16.4259   23.4044 H   0  0  0  0  0  0
  -27.4903  -16.0057   21.7352 H   0  0  0  0  0  0
  -28.1376  -22.7800   21.4559 H   0  0  0  0  0  0
  -28.8579  -15.6058   20.9969 H   0  0  0  0  0  0
  -31.0324  -24.2145   19.1576 H   0  0  0  0  0  0
  1 25  1  0  0  0
  1 30  2  0  0  0
  1 83  1  0  0  0
  2  3  1  0  0  0
  2 25  1  0  0  0
  2 88  1  0  0  0
  2 89  1  0  0  0
  3  4  1  0  0  0
  3 90  1  0  0  0
  3 91  1  0  0  0
  4  5  1  0  0  0
  4 92  1  0  0  0
  4 93  1  0  0  0
  5  6  1  0  0  0
  5 26  1  0  0  0
  5 94  1  0  0  0
  6 25  1  0  0  0
  6 95  1  0  0  0
  6 96  1  0  0  0
  7  8  2  0  0  0
  7 26  1  0  0  0
  7 29  1  0  0  0
  8  9  1  0  0  0
  8 22  1  0  0  0
  9 10  1  0  0  0
  9 27  2  0  0  0
 10 11  2  0  0  0
 10 15  1  0  0  0
 11 12  1  0  0  0
 11 97  1  0  0  0
 12 13  2  0  0  0
 12 98  1  0  0  0
 13 14  1  0  0  0
 13 31  1  0  0  0
 14 15  2  0  0  0
 14 99  1  0  0  0
 15100  1  0  0  0
 16 17  2  0  0  0
 16 21  1  0  0  0
 16 31  1  0  0  0
 17 18  1  0  0  0
 17101  1  0  0  0
 18 19  2  0  0  0
 18102  1  0  0  0
 19 20  1  0  0  0
 19 24  1  0  0  0
 20 21  2  0  0  0
 20103  1  0  0  0
 21 23  1  0  0  0
 22 28  1  0  0  0
 22 32  2  0  0  0
 26 27  1  0  0  0
 28104  1  0  0  0
 28105  1  0  0  0
 29106  1  0  0  0
 29107  1  0  0  0
 33 34  1  0  0  0
 33 66  1  0  0  0
 33 70  2  0  0  0
 34 36  1  0  0  0
 34 59  1  0  0  0
 34108  1  0  0  0
 35 44  2  0  0  0
 35 45  1  0  0  0
 35 68  1  0  0  0
 36 56  1  0  0  0
 36109  1  0  0  0
 37 39  1  0  0  0
 37 47  1  0  0  0
 37 66  1  0  0  0
 37110  1  0  0  0
 38 43  2  0  0  0
 38 46  1  0  0  0
 38 47  1  0  0  0
 39 64  1  0  0  0
 39 67  2  0  0  0
 40 52  1  0  0  0
 40 53  2  0  0  0
 40 58  1  0  0  0
 41111  1  0  0  0
 41112  1  0  0  0
 41113  1  0  0  0
 41 48  1  0  0  0
 42 43  1  0  0  0
 42 66  1  0  0  0
 42114  1  0  0  0
 42115  1  0  0  0
 43 44  1  0  0  0
 44116  1  0  0  0
 45 46  2  0  0  0
 45117  1  0  0  0
 46118  1  0  0  0
 47119  1  0  0  0
 47120  1  0  0  0
 48 56  1  0  0  0
 48 65  1  0  0  0
 48121  1  0  0  0
 49 50  1  0  0  0
 49 53  1  0  0  0
 49 64  1  0  0  0
 49122  1  0  0  0
 50 51  1  0  0  0
 50123  1  0  0  0
 50124  1  0  0  0
 51 52  1  0  0  0
 51125  1  0  0  0
 51126  1  0  0  0
 52127  1  0  0  0
 52128  1  0  0  0
 53 54  1  0  0  0
 54 55  2  0  0  0
 54129  1  0  0  0
 55 57  1  0  0  0
 55130  1  0  0  0
 56 69  2  0  0  0
 57 58  2  0  0  0
 57131  1  0  0  0
 58132  1  0  0  0
 59 60  1  0  0  0
 59 61  1  0  0  0
 59 62  1  0  0  0
 60133  1  0  0  0
 60134  1  0  0  0
 60135  1  0  0  0
 61136  1  0  0  0
 61137  1  0  0  0
 61138  1  0  0  0
 62139  1  0  0  0
 62140  1  0  0  0
 62141  1  0  0  0
 63 65  1  0  0  0
 63142  1  0  0  0
 63143  1  0  0  0
 63144  1  0  0  0
 64145  1  0  0  0
 65146  1  0  0  0
 68 77  1  0  0  0
 71 73  2  0  0  0
 71 75  1  0  0  0
 71147  1  0  0  0
 72 74  2  0  0  0
 72 76  1  0  0  0
 72148  1  0  0  0
 73 74  1  0  0  0
 73 78  1  0  0  0
 74 81  1  0  0  0
 75 76  2  0  0  0
 75 82  1  0  0  0
 76 87  1  0  0  0
 77 79  2  0  0  0
 77149  1  0  0  0
 78 83  1  0  0  0
 78 84  2  0  0  0
 79 80  1  0  0  0
 79 86  1  0  0  0
 80 82  1  0  0  0
 80 85  2  0  0  0
 81150  1  0  0  0
 81151  1  0  0  0
 81152  1  0  0  0
 82153  1  0  0  0
 83154  1  0  0  0
 86155  1  0  0  0
M  ISO  4   1 100  68 101  77 101  83 100
M  END
> <chiral flag>
0

> <version>
0

> <s_m_source_file>
/data/baiqing/PycharmProjects/Reinvent-master-3.2/result/LINK_invent/BTK/process_docking_weight1_custom_product_contain_oxygen_bond_distance_aromatic_linkinvent_7_9_3/rearranged_h_0090.sdf

> <i_m_source_file_index>
30

> <r_mmod_Potential_Energy-OPLS-2005>
-35.4075393676758

> <r_mmod_Stretch_Energy-OPLS-2005>
85.7149124145508

> <r_mmod_Bend_Energy-OPLS-2005>
172.109222412109

> <r_mmod_Torsional_Energy-OPLS-2005>
232.008575439453

> <r_mmod_Improper_Torsional_Energy-OPLS-2005>
7.78768587112427

> <r_mmod_Van_der_Waal_Energy-OPLS-2005>
155.769195556641

> <r_mmod_Electrostatic_Energy-OPLS-2005>
-502.993865966797

> <r_mmod_Solvation_Energy-OPLS-2005>
-239.794647216797

> <b_mmod_Minimization_Converged-OPLS-2005>
0

> <r_mmod_RMS_Derivative-OPLS-2005>
8.14537048339844

$$$$
30
                    3D
 Structure written by MMmdl.
162170  0  0  1  0            999 V2000
  -30.8036  -14.3595   20.6675 C   0  0  0  0  0  0
  -30.4100  -12.2763   19.4141 C   0  0  0  0  0  0
  -29.4875  -12.5006   18.2030 C   0  0  0  0  0  0
  -28.0138  -12.3549   18.6305 C   0  0  0  0  0  0
  -27.6677  -13.1995   19.8899 C   0  0  2  0  0  0
  -28.7107  -12.9585   21.0091 C   0  0  0  0  0  0
  -25.2612  -13.8163   20.5701 C   0  0  0  0  0  0
  -24.1838  -13.0447   20.9177 C   0  0  0  0  0  0
  -24.6392  -11.6911   20.8764 C   0  0  0  0  0  0
  -23.9060  -10.4295   21.0414 C   0  0  0  0  0  0
  -24.3619   -9.4195   21.9169 C   0  0  0  0  0  0
  -23.6311   -8.2223   22.0748 C   0  0  0  0  0  0
  -22.4283   -8.0269   21.3551 C   0  0  0  0  0  0
  -21.9902   -9.0250   20.4661 C   0  0  0  0  0  0
  -22.7234  -10.2133   20.3062 C   0  0  0  0  0  0
  -21.6842   -6.0736   22.5300 C   0  0  0  0  0  0
  -21.3995   -6.5638   23.8231 C   0  0  0  0  0  0
  -21.3643   -5.6786   24.9184 C   0  0  0  0  0  0
  -21.6035   -4.3051   24.7229 C   0  0  0  0  0  0
  -21.8831   -3.8157   23.4352 C   0  0  0  0  0  0
  -21.9187   -4.6966   22.3413 C   0  0  0  0  0  0
  -22.7854  -13.5232   21.1838 C   0  0  0  0  0  0
  -22.1641   -4.2151   21.0984 F   0  0  0  0  0  0
  -21.5651   -3.4524   25.7744 F   0  0  0  0  0  0
  -30.0438  -13.2498   20.4590 N   0  0  0  0  0  0
  -26.3056  -12.9324   20.3475 N   0  0  0  0  0  0
  -25.9314  -11.6482   20.5837 N   0  0  0  0  0  0
  -22.0502  -12.8272   22.0416 N   0  0  0  0  0  0
  -25.4353  -15.1884   20.4112 N   0  0  0  0  0  0
  -31.8352  -14.5612   20.0191 O   0  0  0  0  0  0
  -21.6642   -6.8878   21.4253 O   0  0  0  0  0  0
  -22.3529  -14.5497   20.6649 O   0  0  0  0  0  0
  -24.6130  -31.8699   23.2135 C   0  0  0  0  0  0
  -25.9047  -32.4826   23.8415 C   0  0  1  0  0  0
  -27.2455  -27.4920   20.0765 C   0  0  0  0  0  0
  -25.5941  -33.8620   24.2357 N   0  0  0  0  0  0
  -23.3976  -30.4946   21.5511 C   0  0  2  0  0  0
  -24.8480  -28.9693   20.1083 C   0  0  0  0  0  0
  -22.7386  -29.4667   22.4982 C   0  0  0  0  0  0
  -18.0265  -28.1387   22.8483 C   0  0  0  0  0  0
  -24.1459  -36.7274   23.2644 C   0  0  0  0  0  0
  -25.9206  -30.8576   21.3537 C   0  0  0  0  0  0
  -26.0031  -29.4968   20.6991 C   0  0  0  0  0  0
  -27.2064  -28.7641   20.6825 C   0  0  0  0  0  0
  -26.0810  -26.9647   19.4840 C   0  0  0  0  0  0
  -24.8784  -27.7011   19.4968 C   0  0  0  0  0  0
  -23.6038  -29.8270   20.1635 C   0  0  0  0  0  0
  -25.4079  -36.3098   24.0356 C   0  0  1  0  0  0
  -20.5858  -28.3647   23.1343 C   0  0  2  0  0  0
  -20.6735  -26.9382   22.5449 C   0  0  0  0  0  0
  -19.5749  -26.6388   21.5212 C   0  0  0  0  0  0
  -18.1910  -26.7945   22.1586 C   0  0  0  0  0  0
  -19.1519  -28.8823   23.2919 C   0  0  0  0  0  0
  -18.9453  -30.1415   23.8947 C   0  0  0  0  0  0
  -17.6466  -30.6583   24.0569 C   0  0  0  0  0  0
  -25.9034  -34.9481   23.5140 C   0  0  0  0  0  0
  -16.5348  -29.9096   23.6330 C   0  0  0  0  0  0
  -16.7255  -28.6516   23.0338 C   0  0  0  0  0  0
  -26.4511  -31.6589   25.0717 C   0  0  0  0  0  0
  -25.3855  -31.3843   26.1573 C   0  0  0  0  0  0
  -27.0171  -30.2961   24.6071 C   0  0  0  0  0  0
  -27.6214  -32.4228   25.7360 C   0  0  0  0  0  0
  -27.5579  -37.1741   24.8456 C   0  0  0  0  0  0
  -21.4122  -29.3008   22.3709 N   0  0  0  0  0  0
  -26.4233  -37.3818   23.9486 N   0  0  0  0  0  0
  -24.6620  -31.0856   22.1000 N   0  0  0  0  0  0
  -23.4184  -28.8212   23.3002 O   0  0  0  0  0  0
  -28.3829  -26.7289   20.1379 O   0  0  0  0  0  0
  -26.5551  -34.8946   22.4668 O   0  0  0  0  0  0
  -23.5329  -32.1408   23.7566 O   0  0  0  0  0  0
  -32.8405  -22.0721   24.1307 C   0  0  0  0  0  0
  -31.2135  -20.2640   23.8115 C   0  0  0  0  0  0
  -33.6100  -19.7986   23.7280 C   0  0  0  0  0  0
  -31.5063  -21.6281   24.0317 C   0  0  0  0  0  0
  -33.8967  -21.1555   23.9873 C   0  0  0  0  0  0
  -32.2755  -19.3423   23.6285 C   0  0  0  0  0  0
  -30.3561  -15.3324   21.6584 C   0  0  0  0  0  0
  -31.2980  -16.1315   22.2044 C   0  0  0  0  0  0
  -28.5639  -26.1463   21.3656 C   0  0  0  0  0  0
  -30.4381  -22.6125   24.0922 C   0  0  0  0  0  0
  -29.4636  -25.1876   21.6344 C   0  0  0  0  0  0
  -30.9924  -17.2531   23.0676 C   0  0  0  0  0  0
  -29.4617  -24.6176   22.9777 C   0  0  0  0  0  0
  -35.2190  -21.5968   24.0713 N   0  0  0  0  0  0
  -32.1007  -17.9902   23.2286 N   0  0  0  0  0  0
  -30.3802  -23.5383   23.1162 N   0  0  0  0  0  0
  -29.5524  -22.5410   25.0922 N   0  3  0  0  0  0
  -29.8976  -17.4987   23.5825 O   0  0  0  0  0  0
  -28.7224  -24.9542   23.9125 O   0  0  0  0  0  0
  -30.3160  -24.7379   20.6977 O   0  0  0  0  0  0
  -31.4558  -12.3457   19.1073 H   0  0  0  0  0  0
  -30.2957  -11.2608   19.7974 H   0  0  0  0  0  0
  -29.7269  -11.7825   17.4179 H   0  0  0  0  0  0
  -29.6607  -13.4898   17.7766 H   0  0  0  0  0  0
  -27.8414  -11.2999   18.8452 H   0  0  0  0  0  0
  -27.3467  -12.6037   17.8041 H   0  0  0  0  0  0
  -27.7194  -14.2493   19.6003 H   0  0  0  0  0  0
  -28.6809  -11.9178   21.3383 H   0  0  0  0  0  0
  -28.4653  -13.5350   21.9011 H   0  0  0  0  0  0
  -25.2783   -9.5668   22.4703 H   0  0  0  0  0  0
  -24.0054   -7.4603   22.7425 H   0  0  0  0  0  0
  -21.0851   -8.8762   19.8954 H   0  0  0  0  0  0
  -22.3707  -10.9660   19.6157 H   0  0  0  0  0  0
  -21.1960   -7.6140   23.9728 H   0  0  0  0  0  0
  -21.1439   -6.0511   25.9096 H   0  0  0  0  0  0
  -22.0623   -2.7618   23.2843 H   0  0  0  0  0  0
  -22.4117  -12.0010   22.4924 H   0  0  0  0  0  0
  -21.1103  -13.1304   22.2582 H   0  0  0  0  0  0
  -24.6743  -15.8517   20.5141 H   0  0  0  0  0  0
  -26.3070  -15.6240   20.1408 H   0  0  0  0  0  0
  -26.7124  -32.5561   23.1203 H   0  0  0  0  0  0
  -25.0185  -33.9793   25.0565 H   0  0  0  0  0  0
  -22.6860  -31.3114   21.4151 H   0  0  0  0  0  0
  -23.3817  -35.9495   23.3147 H   0  0  0  0  0  0
  -24.3593  -36.9038   22.2087 H   0  0  0  0  0  0
  -23.7066  -37.6372   23.6744 H   0  0  0  0  0  0
  -26.0161  -31.6267   20.5853 H   0  0  0  0  0  0
  -26.8174  -30.9181   21.9592 H   0  0  0  0  0  0
  -28.0987  -29.1609   21.1482 H   0  0  0  0  0  0
  -26.1015  -25.9806   19.0359 H   0  0  0  0  0  0
  -23.9876  -27.2914   19.0432 H   0  0  0  0  0  0
  -23.7045  -30.6045   19.4040 H   0  0  0  0  0  0
  -22.7328  -29.2400   19.8682 H   0  0  0  0  0  0
  -25.1234  -36.1924   25.0839 H   0  0  0  0  0  0
  -20.9964  -28.3217   24.1464 H   0  0  0  0  0  0
  -20.5597  -26.2262   23.3634 H   0  0  0  0  0  0
  -21.6612  -26.7390   22.1284 H   0  0  0  0  0  0
  -19.6898  -25.6304   21.1233 H   0  0  0  0  0  0
  -19.6749  -27.3199   20.6748 H   0  0  0  0  0  0
  -17.4214  -26.6733   21.3949 H   0  0  0  0  0  0
  -18.0269  -26.0074   22.8962 H   0  0  0  0  0  0
  -19.7943  -30.7171   24.2397 H   0  0  0  0  0  0
  -17.5041  -31.6275   24.5168 H   0  0  0  0  0  0
  -15.5350  -30.3002   23.7670 H   0  0  0  0  0  0
  -15.8651  -28.0845   22.7039 H   0  0  0  0  0  0
  -24.5798  -30.7436   25.7984 H   0  0  0  0  0  0
  -24.9364  -32.3098   26.5189 H   0  0  0  0  0  0
  -25.8229  -30.8836   27.0223 H   0  0  0  0  0  0
  -26.2530  -29.6721   24.1416 H   0  0  0  0  0  0
  -27.4157  -29.7251   25.4473 H   0  0  0  0  0  0
  -27.8344  -30.4153   23.8955 H   0  0  0  0  0  0
  -27.3030  -33.3684   26.1767 H   0  0  0  0  0  0
  -28.4078  -32.6483   25.0139 H   0  0  0  0  0  0
  -28.0788  -31.8400   26.5373 H   0  0  0  0  0  0
  -28.2597  -38.0042   24.7554 H   0  0  0  0  0  0
  -28.1061  -36.2596   24.6160 H   0  0  0  0  0  0
  -27.2360  -37.1253   25.8871 H   0  0  0  0  0  0
  -20.9277  -29.8699   21.6918 H   0  0  0  0  0  0
  -26.0126  -38.2860   24.1630 H   0  0  0  0  0  0
  -33.0415  -23.1210   24.3117 H   0  0  0  0  0  0
  -30.1810  -19.9596   23.7109 H   0  0  0  0  0  0
  -34.4236  -19.1035   23.5759 H   0  0  0  0  0  0
  -29.3149  -15.4586   21.9090 H   0  0  0  0  0  0
  -32.3368  -15.9529   21.9575 H   0  0  0  0  0  0
  -27.8801  -26.5242   22.1181 H   0  0  0  0  0  0
  -35.4197  -22.5900   24.0134 H   0  0  0  0  0  0
  -35.9591  -21.0175   23.6837 H   0  0  0  0  0  0
  -32.9338  -17.5520   22.8638 H   0  0  0  0  0  0
  -31.0154  -23.3507   22.3540 H   0  0  0  0  0  0
  -29.6246  -21.8191   25.7921 H   0  0  0  0  0  0
  -28.8468  -23.2590   25.1817 H   0  0  0  0  0  0
  -30.1262  -25.2182   19.8999 H   0  0  0  0  0  0
  1 25  1  0  0  0
  1 30  2  0  0  0
  1 77  1  0  0  0
  2  3  1  0  0  0
  2 25  1  0  0  0
  2 91  1  0  0  0
  2 92  1  0  0  0
  3  4  1  0  0  0
  3 93  1  0  0  0
  3 94  1  0  0  0
  4  5  1  0  0  0
  4 95  1  0  0  0
  4 96  1  0  0  0
  5  6  1  0  0  0
  5 26  1  0  0  0
  5 97  1  0  0  0
  6 25  1  0  0  0
  6 98  1  0  0  0
  6 99  1  0  0  0
  7  8  2  0  0  0
  7 26  1  0  0  0
  7 29  1  0  0  0
  8  9  1  0  0  0
  8 22  1  0  0  0
  9 10  1  0  0  0
  9 27  2  0  0  0
 10 11  2  0  0  0
 10 15  1  0  0  0
 11 12  1  0  0  0
 11100  1  0  0  0
 12 13  2  0  0  0
 12101  1  0  0  0
 13 14  1  0  0  0
 13 31  1  0  0  0
 14 15  2  0  0  0
 14102  1  0  0  0
 15103  1  0  0  0
 16 17  2  0  0  0
 16 21  1  0  0  0
 16 31  1  0  0  0
 17 18  1  0  0  0
 17104  1  0  0  0
 18 19  2  0  0  0
 18105  1  0  0  0
 19 20  1  0  0  0
 19 24  1  0  0  0
 20 21  2  0  0  0
 20106  1  0  0  0
 21 23  1  0  0  0
 22 28  1  0  0  0
 22 32  2  0  0  0
 26 27  1  0  0  0
 28107  1  0  0  0
 28108  1  0  0  0
 29109  1  0  0  0
 29110  1  0  0  0
 33 34  1  0  0  0
 33 66  1  0  0  0
 33 70  2  0  0  0
 34 36  1  0  0  0
 34 59  1  0  0  0
 34111  1  0  0  0
 35 44  2  0  0  0
 35 45  1  0  0  0
 35 68  1  0  0  0
 36 56  1  0  0  0
 36112  1  0  0  0
 37 39  1  0  0  0
 37 47  1  0  0  0
 37 66  1  0  0  0
 37113  1  0  0  0
 38 43  2  0  0  0
 38 46  1  0  0  0
 38 47  1  0  0  0
 39 64  1  0  0  0
 39 67  2  0  0  0
 40 52  1  0  0  0
 40 53  2  0  0  0
 40 58  1  0  0  0
 41114  1  0  0  0
 41115  1  0  0  0
 41116  1  0  0  0
 41 48  1  0  0  0
 42 43  1  0  0  0
 42 66  1  0  0  0
 42117  1  0  0  0
 42118  1  0  0  0
 43 44  1  0  0  0
 44119  1  0  0  0
 45 46  2  0  0  0
 45120  1  0  0  0
 46121  1  0  0  0
 47122  1  0  0  0
 47123  1  0  0  0
 48 56  1  0  0  0
 48 65  1  0  0  0
 48124  1  0  0  0
 49 50  1  0  0  0
 49 53  1  0  0  0
 49 64  1  0  0  0
 49125  1  0  0  0
 50 51  1  0  0  0
 50126  1  0  0  0
 50127  1  0  0  0
 51 52  1  0  0  0
 51128  1  0  0  0
 51129  1  0  0  0
 52130  1  0  0  0
 52131  1  0  0  0
 53 54  1  0  0  0
 54 55  2  0  0  0
 54132  1  0  0  0
 55 57  1  0  0  0
 55133  1  0  0  0
 56 69  2  0  0  0
 57 58  2  0  0  0
 57134  1  0  0  0
 58135  1  0  0  0
 59 60  1  0  0  0
 59 61  1  0  0  0
 59 62  1  0  0  0
 60136  1  0  0  0
 60137  1  0  0  0
 60138  1  0  0  0
 61139  1  0  0  0
 61140  1  0  0  0
 61141  1  0  0  0
 62142  1  0  0  0
 62143  1  0  0  0
 62144  1  0  0  0
 63 65  1  0  0  0
 63145  1  0  0  0
 63146  1  0  0  0
 63147  1  0  0  0
 64148  1  0  0  0
 65149  1  0  0  0
 68 79  1  0  0  0
 71 74  2  0  0  0
 71 75  1  0  0  0
 71150  1  0  0  0
 72 74  1  0  0  0
 72 76  2  0  0  0
 72151  1  0  0  0
 73 75  2  0  0  0
 73 76  1  0  0  0
 73152  1  0  0  0
 74 80  1  0  0  0
 75 84  1  0  0  0
 76 85  1  0  0  0
 77 78  2  0  0  0
 77153  1  0  0  0
 78 82  1  0  0  0
 78154  1  0  0  0
 79 81  2  0  0  0
 79155  1  0  0  0
 80 86  1  0  0  0
 80 87  2  0  0  0
 81 83  1  0  0  0
 81 90  1  0  0  0
 82 85  1  0  0  0
 82 88  2  0  0  0
 83 86  1  0  0  0
 83 89  2  0  0  0
 84156  1  0  0  0
 84157  1  0  0  0
 85158  1  0  0  0
 86159  1  0  0  0
 87160  1  0  0  0
 87161  1  0  0  0
 90162  1  0  0  0
M  CHG  1  87   1
M  ISO  4   1 100  68 101  77 100  79 101
M  END
> <chiral flag>
0

> <version>
0

> <s_m_source_file>
/data/baiqing/PycharmProjects/Reinvent-master-3.2/result/LINK_invent/BTK/process_docking_weight1_custom_product_contain_oxygen_bond_distance_aromatic_linkinvent_7_9_3/rearranged_h_0090.sdf

> <i_m_source_file_index>
31

> <r_mmod_Potential_Energy-OPLS-2005>
-478.568756103516

> <r_mmod_Stretch_Energy-OPLS-2005>
33.4578132629395

> <r_mmod_Bend_Energy-OPLS-2005>
125.304351806641

> <r_mmod_Torsional_Energy-OPLS-2005>
205.664581298828

> <r_mmod_Improper_Torsional_Energy-OPLS-2005>
6.45505952835083

> <r_mmod_Van_der_Waal_Energy-OPLS-2005>
181.954437255859

> <r_mmod_Electrostatic_Energy-OPLS-2005>
-605.783569335938

> <r_mmod_Solvation_Energy-OPLS-2005>
-436.207641601562

> <b_mmod_Minimization_Converged-OPLS-2005>
0

> <r_mmod_RMS_Derivative-OPLS-2005>
4.17606449127197

$$$$
31
                    3D
 Structure written by MMmdl.
164173  0  0  1  0            999 V2000
  -30.2348  -11.9363   19.5686 C   0  0  0  0  0  0
  -30.7530  -13.9431   18.7590 C   0  0  0  0  0  0
  -30.3631  -15.8606   18.8778 C   0  0  0  0  0  0
  -28.5999  -16.3953   20.2443 C   0  0  0  0  0  0
  -27.5903  -14.4235   21.0043 C   0  0  2  0  0  0
  -28.5762  -12.9364   20.8608 C   0  0  0  0  0  0
  -24.9871  -14.1871   20.6920 C   0  0  0  0  0  0
  -24.0202  -13.2130   20.9147 C   0  0  0  0  0  0
  -24.6266  -11.9239   20.8682 C   0  0  0  0  0  0
  -23.9572  -10.5528   21.0139 C   0  0  0  0  0  0
  -24.4103   -9.5147   21.8521 C   0  0  0  0  0  0
  -23.6960   -8.3012   22.0199 C   0  0  0  0  0  0
  -22.4651   -8.0864   21.3581 C   0  0  0  0  0  0
  -22.0170   -9.0976   20.4943 C   0  0  0  0  0  0
  -22.7438  -10.3026   20.3320 C   0  0  0  0  0  0
  -21.6683   -6.1355   22.5673 C   0  0  0  0  0  0
  -21.4041   -6.5892   23.8757 C   0  0  0  0  0  0
  -21.3697   -5.6793   24.9458 C   0  0  0  0  0  0
  -21.5905   -4.3093   24.7184 C   0  0  0  0  0  0
  -21.8656   -3.8555   23.4142 C   0  0  0  0  0  0
  -21.8998   -4.7672   22.3434 C   0  0  0  0  0  0
  -22.5814  -13.5181   21.1524 C   0  0  0  0  0  0
  -22.1525   -4.2834   21.0982 F   0  0  0  0  0  0
  -21.5592   -3.4442   25.7608 F   0  0  0  0  0  0
  -29.7783  -12.8969   19.6748 N   0  0  0  0  0  0
  -26.2212  -13.6140   20.7537 N   0  0  0  0  0  0
  -25.9474  -12.1941   20.8540 N   0  0  0  0  0  0
  -21.8793  -12.8242   22.0462 N   0  0  0  0  0  0
  -24.9590  -15.5772   20.5109 N   0  0  0  0  0  0
  -31.4442  -11.9573   19.9476 O   0  0  0  0  0  0
  -21.6670   -6.9572   21.4565 O   0  0  0  0  0  0
  -22.0846  -14.5042   20.6145 O   0  0  0  0  0  0
  -24.7266  -31.7527   23.1207 C   0  0  0  0  0  0
  -25.9675  -32.4233   23.7861 C   0  0  1  0  0  0
  -26.8597  -26.2869   19.9927 C   0  0  0  0  0  0
  -25.6121  -33.8070   24.1739 N   0  0  0  0  0  0
  -23.5431  -30.3752   21.5032 C   0  0  2  0  0  0
  -24.8995  -28.6519   20.0766 C   0  0  0  0  0  0
  -22.7920  -29.4141   22.4678 C   0  0  0  0  0  0
  -18.0325  -28.1451   22.8404 C   0  0  0  0  0  0
  -24.1513  -36.7115   23.2648 C   0  0  0  0  0  0
  -26.1393  -30.3032   21.4270 C   0  0  0  0  0  0
  -26.1199  -28.8494   20.7338 C   0  0  0  0  0  0
  -27.1038  -27.6742   20.6676 C   0  0  0  0  0  0
  -25.6618  -26.4169   19.2885 C   0  0  0  0  0  0
  -24.7261  -27.4787   19.3546 C   0  0  0  0  0  0
  -23.7808  -29.6987   20.1251 C   0  0  0  0  0  0
  -25.4156  -36.2757   24.0244 C   0  0  1  0  0  0
  -20.5945  -28.3763   23.1135 C   0  0  2  0  0  0
  -20.6811  -26.9424   22.5386 C   0  0  0  0  0  0
  -19.5793  -26.6373   21.5229 C   0  0  0  0  0  0
  -18.1962  -26.7978   22.1619 C   0  0  0  0  0  0
  -19.1568  -28.8966   23.2740 C   0  0  0  0  0  0
  -18.9513  -30.1552   23.8799 C   0  0  0  0  0  0
  -17.6509  -30.6609   24.0550 C   0  0  0  0  0  0
  -25.9151  -34.9149   23.4832 C   0  0  0  0  0  0
  -16.5392  -29.9070   23.6326 C   0  0  0  0  0  0
  -16.7336  -28.6492   23.0341 C   0  0  0  0  0  0
  -26.4677  -31.6473   25.0679 C   0  0  0  0  0  0
  -25.3648  -31.3973   26.1280 C   0  0  0  0  0  0
  -27.0650  -30.2761   24.6859 C   0  0  0  0  0  0
  -27.6075  -32.4429   25.7547 C   0  0  0  0  0  0
  -27.5572  -37.1701   24.8437 C   0  0  0  0  0  0
  -21.4538  -29.2969   22.3420 N   0  0  0  0  0  0
  -26.4232  -37.3579   23.9432 N   0  0  0  0  0  0
  -24.8416  -30.8568   22.0674 N   0  0  0  0  0  0
  -23.4276  -28.7659   23.3040 O   0  0  0  0  0  0
  -27.4703  -24.7837   19.8381 O   0  0  0  0  0  0
  -26.5826  -34.8820   22.4470 O   0  0  0  0  0  0
  -23.6208  -32.0854   23.6009 O   0  0  0  0  0  0
  -27.9699  -13.3723   16.7417 C   0  0  0  0  0  0
  -28.6815  -14.3867   17.3644 C   0  0  0  0  0  0
  -26.3959  -14.2606   18.1187 C   0  0  0  0  0  0
  -27.1203  -12.9236   17.7359 C   0  0  0  0  0  0
  -28.4110  -14.6684   18.8516 C   0  0  0  0  0  0
  -27.1253  -15.5903   18.4636 C   0  0  0  0  0  0
  -29.9418  -15.2572   22.2974 C   0  0  0  0  0  0
  -27.8072  -11.5731   18.4246 C   0  0  0  0  0  0
  -26.9262  -18.9648   19.1927 C   0  0  0  0  0  0
  -30.9136  -16.4060   22.7126 C   0  0  0  0  0  0
  -32.0225  -16.1220   21.7162 C   0  0  0  0  0  0
  -31.5354  -14.7918   21.1270 C   0  0  0  0  0  0
  -27.0369  -20.9735   18.8853 C   0  0  0  0  0  0
  -26.8429  -22.9741   19.6114 C   0  0  0  0  0  0
  -29.9873  -14.8259   20.8993 N   0  0  0  0  0  0
  -26.6670  -17.4419   18.5453 N   0  0  0  0  0  0
  -29.1660  -11.2240   18.9237 N   0  0  0  0  0  0
  -29.3684  -14.6883   23.2586 O   0  0  0  0  0  0
  -27.0414  -10.6022   18.3765 O   0  0  0  0  0  0
  -27.1245  -18.8716   20.4105 O   0  0  0  0  0  0
  -31.8361  -13.8466   18.6880 H   0  0  0  0  0  0
  -30.7965  -13.5082   17.7411 H   0  0  0  0  0  0
  -30.1736  -16.2954   17.9004 H   0  0  0  0  0  0
  -31.2557  -16.4709   19.0140 H   0  0  0  0  0  0
  -28.5884  -17.1597   19.4970 H   0  0  0  0  0  0
  -28.8779  -17.1353   21.0167 H   0  0  0  0  0  0
  -27.4118  -14.6442   22.0661 H   0  0  0  0  0  0
  -28.1631  -11.9712   21.1007 H   0  0  0  0  0  0
  -29.0913  -12.8580   21.8315 H   0  0  0  0  0  0
  -25.3389   -9.6403   22.3799 H   0  0  0  0  0  0
  -24.0428   -7.5656   22.7186 H   0  0  0  0  0  0
  -21.1014   -8.9536   19.9734 H   0  0  0  0  0  0
  -22.2984  -11.0185   19.6723 H   0  0  0  0  0  0
  -21.2200   -7.6378   24.0617 H   0  0  0  0  0  0
  -21.1702   -6.0343   25.9474 H   0  0  0  0  0  0
  -22.0387   -2.7987   23.2367 H   0  0  0  0  0  0
  -22.2270  -12.0609   22.6158 H   0  0  0  0  0  0
  -20.9664  -13.2043   22.2795 H   0  0  0  0  0  0
  -24.0768  -16.1182   20.4518 H   0  0  0  0  0  0
  -25.7558  -16.2190   20.4758 H   0  0  0  0  0  0
  -26.7817  -32.4536   23.0625 H   0  0  0  0  0  0
  -25.0256  -33.9032   24.9876 H   0  0  0  0  0  0
  -22.8923  -31.2304   21.3103 H   0  0  0  0  0  0
  -23.3777  -35.9437   23.3147 H   0  0  0  0  0  0
  -24.3581  -36.8974   22.2096 H   0  0  0  0  0  0
  -23.7253  -37.6220   23.6857 H   0  0  0  0  0  0
  -26.4033  -31.0088   20.6345 H   0  0  0  0  0  0
  -26.9858  -30.3485   22.1097 H   0  0  0  0  0  0
  -28.0268  -27.7750   21.2303 H   0  0  0  0  0  0
  -25.3635  -25.5519   18.7059 H   0  0  0  0  0  0
  -23.8266  -27.3452   18.7788 H   0  0  0  0  0  0
  -24.0423  -30.4576   19.3836 H   0  0  0  0  0  0
  -22.8568  -29.2462   19.7507 H   0  0  0  0  0  0
  -25.1373  -36.1478   25.0722 H   0  0  0  0  0  0
  -21.0027  -28.3406   24.1305 H   0  0  0  0  0  0
  -20.5681  -26.2446   23.3657 H   0  0  0  0  0  0
  -21.6673  -26.7398   22.1207 H   0  0  0  0  0  0
  -19.6922  -25.6253   21.1330 H   0  0  0  0  0  0
  -19.6712  -27.3126   20.6703 H   0  0  0  0  0  0
  -17.4237  -26.6706   21.4009 H   0  0  0  0  0  0
  -18.0318  -26.0149   22.9038 H   0  0  0  0  0  0
  -19.7972  -30.7378   24.2151 H   0  0  0  0  0  0
  -17.5022  -31.6268   24.5205 H   0  0  0  0  0  0
  -15.5352  -30.2963   23.7731 H   0  0  0  0  0  0
  -15.8743  -28.0833   22.7109 H   0  0  0  0  0  0
  -24.5837  -30.7305   25.7634 H   0  0  0  0  0  0
  -24.8844  -32.3258   26.4369 H   0  0  0  0  0  0
  -25.7733  -30.9382   27.0300 H   0  0  0  0  0  0
  -26.3371  -29.6304   24.1964 H   0  0  0  0  0  0
  -27.4038  -29.7347   25.5712 H   0  0  0  0  0  0
  -27.9373  -30.3851   24.0430 H   0  0  0  0  0  0
  -27.2544  -33.3834   26.1848 H   0  0  0  0  0  0
  -28.4033  -32.6888   25.0478 H   0  0  0  0  0  0
  -28.0617  -31.8772   26.5726 H   0  0  0  0  0  0
  -28.2474  -38.0112   24.7554 H   0  0  0  0  0  0
  -28.1197  -36.2627   24.6155 H   0  0  0  0  0  0
  -27.2323  -37.1202   25.8846 H   0  0  0  0  0  0
  -20.9933  -29.8817   21.6547 H   0  0  0  0  0  0
  -26.0043  -38.2610   24.1448 H   0  0  0  0  0  0
  -28.4314  -12.7798   15.9432 H   0  0  0  0  0  0
  -29.5606  -14.6567   16.7891 H   0  0  0  0  0  0
  -25.3769  -14.3159   17.7142 H   0  0  0  0  0  0
  -31.2353  -16.3179   23.7569 H   0  0  0  0  0  0
  -30.5870  -17.4650   22.7199 H   0  0  0  0  0  0
  -33.0271  -15.9411   22.1281 H   0  0  0  0  0  0
  -32.1578  -16.8777   20.9400 H   0  0  0  0  0  0
  -31.8093  -13.9873   21.8376 H   0  0  0  0  0  0
  -32.2697  -14.6257   20.3623 H   0  0  0  0  0  0
  -26.8098  -21.0561   17.8204 H   0  0  0  0  0  0
  -28.1182  -20.9563   18.8920 H   0  0  0  0  0  0
  -26.5275  -22.7569   20.6344 H   0  0  0  0  0  0
  -25.9140  -23.2279   19.0872 H   0  0  0  0  0  0
  -25.7466  -17.5306   18.1203 H   0  0  0  0  0  0
  -29.2951  -10.2326   19.0594 H   0  0  0  0  0  0
  1 25  1  0  0  0
  1 30  2  0  0  0
  1 87  1  0  0  0
  2  3  1  0  0  0
  2 25  1  0  0  0
  2 91  1  0  0  0
  2 92  1  0  0  0
  3  4  1  0  0  0
  3 93  1  0  0  0
  3 94  1  0  0  0
  4  5  1  0  0  0
  4 95  1  0  0  0
  4 96  1  0  0  0
  5  6  1  0  0  0
  5 26  1  0  0  0
  5 97  1  0  0  0
  6 25  1  0  0  0
  6 98  1  0  0  0
  6 99  1  0  0  0
  7  8  2  0  0  0
  7 26  1  0  0  0
  7 29  1  0  0  0
  8  9  1  0  0  0
  8 22  1  0  0  0
  9 10  1  0  0  0
  9 27  2  0  0  0
 10 11  2  0  0  0
 10 15  1  0  0  0
 11 12  1  0  0  0
 11100  1  0  0  0
 12 13  2  0  0  0
 12101  1  0  0  0
 13 14  1  0  0  0
 13 31  1  0  0  0
 14 15  2  0  0  0
 14102  1  0  0  0
 15103  1  0  0  0
 16 17  2  0  0  0
 16 21  1  0  0  0
 16 31  1  0  0  0
 17 18  1  0  0  0
 17104  1  0  0  0
 18 19  2  0  0  0
 18105  1  0  0  0
 19 20  1  0  0  0
 19 24  1  0  0  0
 20 21  2  0  0  0
 20106  1  0  0  0
 21 23  1  0  0  0
 22 28  1  0  0  0
 22 32  2  0  0  0
 26 27  1  0  0  0
 28107  1  0  0  0
 28108  1  0  0  0
 29109  1  0  0  0
 29110  1  0  0  0
 33 34  1  0  0  0
 33 66  1  0  0  0
 33 70  2  0  0  0
 34 36  1  0  0  0
 34 59  1  0  0  0
 34111  1  0  0  0
 35 44  2  0  0  0
 35 45  1  0  0  0
 35 68  1  0  0  0
 36 56  1  0  0  0
 36112  1  0  0  0
 37 39  1  0  0  0
 37 47  1  0  0  0
 37 66  1  0  0  0
 37113  1  0  0  0
 38 43  2  0  0  0
 38 46  1  0  0  0
 38 47  1  0  0  0
 39 64  1  0  0  0
 39 67  2  0  0  0
 40 52  1  0  0  0
 40 53  2  0  0  0
 40 58  1  0  0  0
 41114  1  0  0  0
 41115  1  0  0  0
 41116  1  0  0  0
 41 48  1  0  0  0
 42 43  1  0  0  0
 42 66  1  0  0  0
 42117  1  0  0  0
 42118  1  0  0  0
 43 44  1  0  0  0
 44119  1  0  0  0
 45 46  2  0  0  0
 45120  1  0  0  0
 46121  1  0  0  0
 47122  1  0  0  0
 47123  1  0  0  0
 48 56  1  0  0  0
 48 65  1  0  0  0
 48124  1  0  0  0
 49 50  1  0  0  0
 49 53  1  0  0  0
 49 64  1  0  0  0
 49125  1  0  0  0
 50 51  1  0  0  0
 50126  1  0  0  0
 50127  1  0  0  0
 51 52  1  0  0  0
 51128  1  0  0  0
 51129  1  0  0  0
 52130  1  0  0  0
 52131  1  0  0  0
 53 54  1  0  0  0
 54 55  2  0  0  0
 54132  1  0  0  0
 55 57  1  0  0  0
 55133  1  0  0  0
 56 69  2  0  0  0
 57 58  2  0  0  0
 57134  1  0  0  0
 58135  1  0  0  0
 59 60  1  0  0  0
 59 61  1  0  0  0
 59 62  1  0  0  0
 60136  1  0  0  0
 60137  1  0  0  0
 60138  1  0  0  0
 61139  1  0  0  0
 61140  1  0  0  0
 61141  1  0  0  0
 62142  1  0  0  0
 62143  1  0  0  0
 62144  1  0  0  0
 63 65  1  0  0  0
 63145  1  0  0  0
 63146  1  0  0  0
 63147  1  0  0  0
 64148  1  0  0  0
 65149  1  0  0  0
 68 84  1  0  0  0
 71 72  2  0  0  0
 71 74  1  0  0  0
 71150  1  0  0  0
 72 75  1  0  0  0
 72151  1  0  0  0
 73 74  2  0  0  0
 73 76  1  0  0  0
 73152  1  0  0  0
 74 78  1  0  0  0
 75 76  2  0  0  0
 75 85  1  0  0  0
 76 86  1  0  0  0
 77 80  1  0  0  0
 77 85  1  0  0  0
 77 88  2  0  0  0
 78 87  1  0  0  0
 78 89  2  0  0  0
 79 83  1  0  0  0
 79 86  1  0  0  0
 79 90  2  0  0  0
 80 81  1  0  0  0
 80153  1  0  0  0
 80154  1  0  0  0
 81 82  1  0  0  0
 81155  1  0  0  0
 81156  1  0  0  0
 82 85  1  0  0  0
 82157  1  0  0  0
 82158  1  0  0  0
 83 84  1  0  0  0
 83159  1  0  0  0
 83160  1  0  0  0
 84161  1  0  0  0
 84162  1  0  0  0
 86163  1  0  0  0
 87164  1  0  0  0
M  ISO  4   1 100  68 101  84 101  87 100
M  END
> <chiral flag>
0

> <version>
0

> <s_m_source_file>
/data/baiqing/PycharmProjects/Reinvent-master-3.2/result/LINK_invent/BTK/process_docking_weight1_custom_product_contain_oxygen_bond_distance_aromatic_linkinvent_7_9_3/rearranged_h_0090.sdf

> <i_m_source_file_index>
32

> <r_mmod_Potential_Energy-OPLS-2005>
17680.783203125

> <r_mmod_Stretch_Energy-OPLS-2005>
6635.3798828125

> <r_mmod_Bend_Energy-OPLS-2005>
1979.6025390625

> <r_mmod_Torsional_Energy-OPLS-2005>
860.092224121094

> <r_mmod_Improper_Torsional_Energy-OPLS-2005>
52.6854705810547

> <r_mmod_Van_der_Waal_Energy-OPLS-2005>
2475.42993164062

> <r_mmod_Electrostatic_Energy-OPLS-2005>
-545.749267578125

> <r_mmod_Solvation_Energy-OPLS-2005>
-228.534866333008

> <b_mmod_Minimization_Converged-OPLS-2005>
0

> <r_mmod_RMS_Derivative-OPLS-2005>
60.1382789611816

$$$$
32
                    3D
 Structure written by MMmdl.
156165  0  0  1  0            999 V2000
  -30.6084  -14.6685   20.4857 C   0  0  0  0  0  0
  -30.4417  -12.4088   19.4490 C   0  0  0  0  0  0
  -29.5073  -12.5146   18.2223 C   0  0  0  0  0  0
  -28.0306  -12.3507   18.6350 C   0  0  0  0  0  0
  -27.6514  -13.2202   19.8638 C   0  0  2  0  0  0
  -28.7008  -13.0817   20.9901 C   0  0  0  0  0  0
  -25.2524  -13.8145   20.5680 C   0  0  0  0  0  0
  -24.1799  -13.0401   20.9153 C   0  0  0  0  0  0
  -24.6394  -11.6887   20.8722 C   0  0  0  0  0  0
  -23.9070  -10.4276   21.0398 C   0  0  0  0  0  0
  -24.3618   -9.4197   21.9181 C   0  0  0  0  0  0
  -23.6285   -8.2242   22.0756 C   0  0  0  0  0  0
  -22.4265   -8.0285   21.3546 C   0  0  0  0  0  0
  -21.9897   -9.0259   20.4653 C   0  0  0  0  0  0
  -22.7235  -10.2132   20.3055 C   0  0  0  0  0  0
  -21.6856   -6.0726   22.5278 C   0  0  0  0  0  0
  -21.4023   -6.5631   23.8211 C   0  0  0  0  0  0
  -21.3654   -5.6780   24.9168 C   0  0  0  0  0  0
  -21.6042   -4.3046   24.7220 C   0  0  0  0  0  0
  -21.8820   -3.8135   23.4348 C   0  0  0  0  0  0
  -21.9193   -4.6952   22.3402 C   0  0  0  0  0  0
  -22.7830  -13.5214   21.1822 C   0  0  0  0  0  0
  -22.1661   -4.2137   21.0977 F   0  0  0  0  0  0
  -21.5619   -3.4532   25.7740 F   0  0  0  0  0  0
  -30.0134  -13.4334   20.4224 N   0  0  0  0  0  0
  -26.2984  -12.9358   20.3342 N   0  0  0  0  0  0
  -25.9338  -11.6503   20.5767 N   0  0  0  0  0  0
  -22.0463  -12.8245   22.0399 N   0  0  0  0  0  0
  -25.4129  -15.1872   20.4174 N   0  0  0  0  0  0
  -31.7793  -14.8366   20.1302 O   0  0  0  0  0  0
  -21.6633   -6.8874   21.4243 O   0  0  0  0  0  0
  -22.3521  -14.5520   20.6664 O   0  0  0  0  0  0
  -24.6260  -31.8585   23.2017 C   0  0  0  0  0  0
  -25.9107  -32.4770   23.8351 C   0  0  1  0  0  0
  -27.2302  -27.3160   20.1181 C   0  0  0  0  0  0
  -25.5927  -33.8570   24.2279 N   0  0  0  0  0  0
  -23.4217  -30.4796   21.5450 C   0  0  2  0  0  0
  -24.8721  -28.9353   20.1122 C   0  0  0  0  0  0
  -22.7481  -29.4600   22.4942 C   0  0  0  0  0  0
  -18.0291  -28.1380   22.8478 C   0  0  0  0  0  0
  -24.1491  -36.7288   23.2630 C   0  0  0  0  0  0
  -25.9636  -30.7884   21.3750 C   0  0  0  0  0  0
  -26.0421  -29.4153   20.7166 C   0  0  0  0  0  0
  -27.2279  -28.6187   20.7082 C   0  0  0  0  0  0
  -26.0420  -26.8941   19.4825 C   0  0  0  0  0  0
  -24.8741  -27.6798   19.4857 C   0  0  0  0  0  0
  -23.6379  -29.8125   20.1614 C   0  0  0  0  0  0
  -25.4108  -36.3074   24.0328 C   0  0  1  0  0  0
  -20.5884  -28.3682   23.1279 C   0  0  2  0  0  0
  -20.6777  -26.9405   22.5408 C   0  0  0  0  0  0
  -19.5757  -26.6373   21.5207 C   0  0  0  0  0  0
  -18.1936  -26.7924   22.1615 C   0  0  0  0  0  0
  -19.1539  -28.8852   23.2872 C   0  0  0  0  0  0
  -18.9464  -30.1452   23.8886 C   0  0  0  0  0  0
  -17.6462  -30.6581   24.0556 C   0  0  0  0  0  0
  -25.9049  -34.9447   23.5105 C   0  0  0  0  0  0
  -16.5357  -29.9073   23.6327 C   0  0  0  0  0  0
  -16.7275  -28.6492   23.0352 C   0  0  0  0  0  0
  -26.4491  -31.6578   25.0718 C   0  0  0  0  0  0
  -25.3730  -31.3740   26.1457 C   0  0  0  0  0  0
  -27.0308  -30.2990   24.6175 C   0  0  0  0  0  0
  -27.6076  -32.4294   25.7467 C   0  0  0  0  0  0
  -27.5592  -37.1777   24.8440 C   0  0  0  0  0  0
  -21.4196  -29.3030   22.3677 N   0  0  0  0  0  0
  -26.4281  -37.3776   23.9422 N   0  0  0  0  0  0
  -24.6889  -31.0580   22.0978 N   0  0  0  0  0  0
  -23.4199  -28.8138   23.3025 O   0  0  0  0  0  0
  -28.3264  -26.4378   20.1339 O   0  0  0  0  0  0
  -26.5616  -34.8912   22.4669 O   0  0  0  0  0  0
  -23.5426  -32.1392   23.7336 O   0  0  0  0  0  0
  -30.8634  -19.4184   20.4736 C   0  0  0  0  0  0
  -30.9670  -17.9910   20.5871 C   0  0  0  0  0  0
  -28.4703  -19.2585   20.3948 C   0  0  0  0  0  0
  -30.3550  -22.3184   19.4192 C   0  0  0  0  0  0
  -28.8654  -23.8004   20.3274 C   0  0  0  0  0  0
  -29.6114  -20.1002   20.3803 C   0  0  0  0  0  0
  -29.8120  -17.1625   20.6130 C   0  0  0  0  0  0
  -29.9891  -23.6445   19.4567 C   0  0  0  0  0  0
  -28.5702  -17.8421   20.5148 C   0  0  0  0  0  0
  -28.6054  -22.5012   20.7757 C   0  0  0  0  0  0
  -27.5340  -22.0648   21.7280 C   0  0  0  0  0  0
  -28.0694  -25.1047   20.7377 C   0  0  0  0  0  0
  -29.5125  -21.5617   20.2205 N   0  0  0  0  0  0
  -29.7650  -15.7061   20.7836 N   0  0  0  0  0  0
  -30.6076  -24.6441   18.7655 O   0  0  0  0  0  0
  -27.4344  -17.1048   20.5270 F   0  0  0  0  0  0
  -31.4813  -12.5434   19.1437 H   0  0  0  0  0  0
  -30.3857  -11.4153   19.8948 H   0  0  0  0  0  0
  -29.7720  -11.7613   17.4794 H   0  0  0  0  0  0
  -29.6463  -13.4823   17.7354 H   0  0  0  0  0  0
  -27.8675  -11.2967   18.8634 H   0  0  0  0  0  0
  -27.3772  -12.5834   17.7939 H   0  0  0  0  0  0
  -27.6604  -14.2548   19.5215 H   0  0  0  0  0  0
  -28.7179  -12.0608   21.3729 H   0  0  0  0  0  0
  -28.4478  -13.7146   21.8425 H   0  0  0  0  0  0
  -25.2771   -9.5660   22.4755 H   0  0  0  0  0  0
  -23.9984   -7.4632   22.7479 H   0  0  0  0  0  0
  -21.0819   -8.8792   19.8969 H   0  0  0  0  0  0
  -22.3705  -10.9674   19.6165 H   0  0  0  0  0  0
  -21.2033   -7.6144   23.9716 H   0  0  0  0  0  0
  -21.1462   -6.0507   25.9068 H   0  0  0  0  0  0
  -22.0604   -2.7595   23.2855 H   0  0  0  0  0  0
  -22.4062  -11.9924   22.4830 H   0  0  0  0  0  0
  -21.1091  -13.1314   22.2594 H   0  0  0  0  0  0
  -24.6415  -15.8285   20.5590 H   0  0  0  0  0  0
  -26.2848  -15.6707   20.2283 H   0  0  0  0  0  0
  -26.7172  -32.5443   23.1101 H   0  0  0  0  0  0
  -25.0072  -33.9716   25.0423 H   0  0  0  0  0  0
  -22.7158  -31.2999   21.4002 H   0  0  0  0  0  0
  -23.3759  -35.9611   23.3257 H   0  0  0  0  0  0
  -24.3603  -36.8943   22.2054 H   0  0  0  0  0  0
  -23.7230  -37.6474   23.6673 H   0  0  0  0  0  0
  -26.0952  -31.5533   20.6085 H   0  0  0  0  0  0
  -26.8428  -30.8378   22.0057 H   0  0  0  0  0  0
  -28.1269  -28.9827   21.1860 H   0  0  0  0  0  0
  -26.0076  -25.9339   18.9870 H   0  0  0  0  0  0
  -23.9798  -27.3088   19.0044 H   0  0  0  0  0  0
  -23.7523  -30.5878   19.4030 H   0  0  0  0  0  0
  -22.7597  -29.2379   19.8612 H   0  0  0  0  0  0
  -25.1278  -36.1923   25.0817 H   0  0  0  0  0  0
  -20.9967  -28.3262   24.1403 H   0  0  0  0  0  0
  -20.5669  -26.2293   23.3607 H   0  0  0  0  0  0
  -21.6652  -26.7436   22.1210 H   0  0  0  0  0  0
  -19.6921  -25.6281   21.1241 H   0  0  0  0  0  0
  -19.6694  -27.3175   20.6732 H   0  0  0  0  0  0
  -17.4205  -26.6667   21.4018 H   0  0  0  0  0  0
  -18.0341  -26.0064   22.9008 H   0  0  0  0  0  0
  -19.7939  -30.7276   24.2251 H   0  0  0  0  0  0
  -17.5014  -31.6262   24.5150 H   0  0  0  0  0  0
  -15.5357  -30.2976   23.7645 H   0  0  0  0  0  0
  -15.8679  -28.0800   22.7081 H   0  0  0  0  0  0
  -24.5872  -30.7130   25.7784 H   0  0  0  0  0  0
  -24.8967  -32.2924   26.4902 H   0  0  0  0  0  0
  -25.8045  -30.8884   27.0219 H   0  0  0  0  0  0
  -26.2870  -29.6756   24.1199 H   0  0  0  0  0  0
  -27.3993  -29.7236   25.4678 H   0  0  0  0  0  0
  -27.8754  -30.4258   23.9399 H   0  0  0  0  0  0
  -27.2717  -33.3598   26.2058 H   0  0  0  0  0  0
  -28.3869  -32.6843   25.0272 H   0  0  0  0  0  0
  -28.0760  -31.8405   26.5364 H   0  0  0  0  0  0
  -28.2551  -38.0135   24.7584 H   0  0  0  0  0  0
  -28.1152  -36.2678   24.6131 H   0  0  0  0  0  0
  -27.2336  -37.1259   25.8845 H   0  0  0  0  0  0
  -20.9384  -29.8751   21.6881 H   0  0  0  0  0  0
  -26.0158  -38.2835   24.1484 H   0  0  0  0  0  0
  -31.7766  -19.9970   20.4603 H   0  0  0  0  0  0
  -31.9466  -17.5411   20.6683 H   0  0  0  0  0  0
  -27.4876  -19.6923   20.2982 H   0  0  0  0  0  0
  -31.1498  -21.8285   18.8720 H   0  0  0  0  0  0
  -27.1893  -22.8965   22.3425 H   0  0  0  0  0  0
  -27.8927  -21.2924   22.4080 H   0  0  0  0  0  0
  -26.6672  -21.6768   21.1923 H   0  0  0  0  0  0
  -28.2390  -25.2336   21.8072 H   0  0  0  0  0  0
  -27.0170  -24.8354   20.6596 H   0  0  0  0  0  0
  -28.8354  -15.3768   20.9986 H   0  0  0  0  0  0
  -31.3228  -24.3366   18.2166 H   0  0  0  0  0  0
  1 25  1  0  0  0
  1 30  2  0  0  0
  1 84  1  0  0  0
  2  3  1  0  0  0
  2 25  1  0  0  0
  2 87  1  0  0  0
  2 88  1  0  0  0
  3  4  1  0  0  0
  3 89  1  0  0  0
  3 90  1  0  0  0
  4  5  1  0  0  0
  4 91  1  0  0  0
  4 92  1  0  0  0
  5  6  1  0  0  0
  5 26  1  0  0  0
  5 93  1  0  0  0
  6 25  1  0  0  0
  6 94  1  0  0  0
  6 95  1  0  0  0
  7  8  2  0  0  0
  7 26  1  0  0  0
  7 29  1  0  0  0
  8  9  1  0  0  0
  8 22  1  0  0  0
  9 10  1  0  0  0
  9 27  2  0  0  0
 10 11  2  0  0  0
 10 15  1  0  0  0
 11 12  1  0  0  0
 11 96  1  0  0  0
 12 13  2  0  0  0
 12 97  1  0  0  0
 13 14  1  0  0  0
 13 31  1  0  0  0
 14 15  2  0  0  0
 14 98  1  0  0  0
 15 99  1  0  0  0
 16 17  2  0  0  0
 16 21  1  0  0  0
 16 31  1  0  0  0
 17 18  1  0  0  0
 17100  1  0  0  0
 18 19  2  0  0  0
 18101  1  0  0  0
 19 20  1  0  0  0
 19 24  1  0  0  0
 20 21  2  0  0  0
 20102  1  0  0  0
 21 23  1  0  0  0
 22 28  1  0  0  0
 22 32  2  0  0  0
 26 27  1  0  0  0
 28103  1  0  0  0
 28104  1  0  0  0
 29105  1  0  0  0
 29106  1  0  0  0
 33 34  1  0  0  0
 33 66  1  0  0  0
 33 70  2  0  0  0
 34 36  1  0  0  0
 34 59  1  0  0  0
 34107  1  0  0  0
 35 44  2  0  0  0
 35 45  1  0  0  0
 35 68  1  0  0  0
 36 56  1  0  0  0
 36108  1  0  0  0
 37 39  1  0  0  0
 37 47  1  0  0  0
 37 66  1  0  0  0
 37109  1  0  0  0
 38 43  2  0  0  0
 38 46  1  0  0  0
 38 47  1  0  0  0
 39 64  1  0  0  0
 39 67  2  0  0  0
 40 52  1  0  0  0
 40 53  2  0  0  0
 40 58  1  0  0  0
 41110  1  0  0  0
 41111  1  0  0  0
 41112  1  0  0  0
 41 48  1  0  0  0
 42 43  1  0  0  0
 42 66  1  0  0  0
 42113  1  0  0  0
 42114  1  0  0  0
 43 44  1  0  0  0
 44115  1  0  0  0
 45 46  2  0  0  0
 45116  1  0  0  0
 46117  1  0  0  0
 47118  1  0  0  0
 47119  1  0  0  0
 48 56  1  0  0  0
 48 65  1  0  0  0
 48120  1  0  0  0
 49 50  1  0  0  0
 49 53  1  0  0  0
 49 64  1  0  0  0
 49121  1  0  0  0
 50 51  1  0  0  0
 50122  1  0  0  0
 50123  1  0  0  0
 51 52  1  0  0  0
 51124  1  0  0  0
 51125  1  0  0  0
 52126  1  0  0  0
 52127  1  0  0  0
 53 54  1  0  0  0
 54 55  2  0  0  0
 54128  1  0  0  0
 55 57  1  0  0  0
 55129  1  0  0  0
 56 69  2  0  0  0
 57 58  2  0  0  0
 57130  1  0  0  0
 58131  1  0  0  0
 59 60  1  0  0  0
 59 61  1  0  0  0
 59 62  1  0  0  0
 60132  1  0  0  0
 60133  1  0  0  0
 60134  1  0  0  0
 61135  1  0  0  0
 61136  1  0  0  0
 61137  1  0  0  0
 62138  1  0  0  0
 62139  1  0  0  0
 62140  1  0  0  0
 63 65  1  0  0  0
 63141  1  0  0  0
 63142  1  0  0  0
 63143  1  0  0  0
 64144  1  0  0  0
 65145  1  0  0  0
 68 82  1  0  0  0
 71 72  2  0  0  0
 71 76  1  0  0  0
 71146  1  0  0  0
 72 77  1  0  0  0
 72147  1  0  0  0
 73 76  2  0  0  0
 73 79  1  0  0  0
 73148  1  0  0  0
 74 78  2  0  0  0
 74 83  1  0  0  0
 74149  1  0  0  0
 75 78  1  0  0  0
 75 80  2  0  0  0
 75 82  1  0  0  0
 76 83  1  0  0  0
 77 79  2  0  0  0
 77 84  1  0  0  0
 78 85  1  0  0  0
 79 86  1  0  0  0
 80 81  1  0  0  0
 80 83  1  0  0  0
 81150  1  0  0  0
 81151  1  0  0  0
 81152  1  0  0  0
 82153  1  0  0  0
 82154  1  0  0  0
 84155  1  0  0  0
 85156  1  0  0  0
M  ISO  4   1 100  68 101  82 101  84 100
M  END
> <chiral flag>
0

> <version>
0

> <s_m_source_file>
/data/baiqing/PycharmProjects/Reinvent-master-3.2/result/LINK_invent/BTK/process_docking_weight1_custom_product_contain_oxygen_bond_distance_aromatic_linkinvent_7_9_3/rearranged_h_0090.sdf

> <i_m_source_file_index>
33

> <r_mmod_Potential_Energy-OPLS-2005>
17.2741184234619

> <r_mmod_Stretch_Energy-OPLS-2005>
83.1526947021484

> <r_mmod_Bend_Energy-OPLS-2005>
145.568374633789

> <r_mmod_Torsional_Energy-OPLS-2005>
245.799438476562

> <r_mmod_Improper_Torsional_Energy-OPLS-2005>
4.73304462432861

> <r_mmod_Van_der_Waal_Energy-OPLS-2005>
136.136276245117

> <r_mmod_Electrostatic_Energy-OPLS-2005>
-422.935668945312

> <r_mmod_Solvation_Energy-OPLS-2005>
-230.759292602539

> <b_mmod_Minimization_Converged-OPLS-2005>
0

> <r_mmod_RMS_Derivative-OPLS-2005>
1.55023419857025

$$$$
33
                    3D
 Structure written by MMmdl.
158167  0  0  1  0            999 V2000
  -30.6084  -14.7307   20.3547 C   0  0  0  0  0  0
  -30.4348  -12.4070   19.4756 C   0  0  0  0  0  0
  -29.5034  -12.3668   18.2412 C   0  0  0  0  0  0
  -28.0207  -12.2823   18.6583 C   0  0  0  0  0  0
  -27.6348  -13.2142   19.8404 C   0  0  2  0  0  0
  -28.6901  -13.1893   20.9653 C   0  0  0  0  0  0
  -25.2514  -13.8152   20.5714 C   0  0  0  0  0  0
  -24.1781  -13.0429   20.9213 C   0  0  0  0  0  0
  -24.6356  -11.6906   20.8793 C   0  0  0  0  0  0
  -23.9036  -10.4289   21.0438 C   0  0  0  0  0  0
  -24.3601   -9.4201   21.9203 C   0  0  0  0  0  0
  -23.6286   -8.2232   22.0756 C   0  0  0  0  0  0
  -22.4268   -8.0275   21.3546 C   0  0  0  0  0  0
  -21.9901   -9.0248   20.4650 C   0  0  0  0  0  0
  -22.7218  -10.2132   20.3071 C   0  0  0  0  0  0
  -21.6843   -6.0735   22.5279 C   0  0  0  0  0  0
  -21.4012   -6.5642   23.8212 C   0  0  0  0  0  0
  -21.3657   -5.6794   24.9176 C   0  0  0  0  0  0
  -21.6044   -4.3057   24.7228 C   0  0  0  0  0  0
  -21.8817   -3.8149   23.4349 C   0  0  0  0  0  0
  -21.9187   -4.6965   22.3407 C   0  0  0  0  0  0
  -22.7807  -13.5233   21.1861 C   0  0  0  0  0  0
  -22.1652   -4.2154   21.0982 F   0  0  0  0  0  0
  -21.5632   -3.4540   25.7738 F   0  0  0  0  0  0
  -29.9826  -13.5067   20.3494 N   0  0  0  0  0  0
  -26.2915  -12.9326   20.3334 N   0  0  0  0  0  0
  -25.9286  -11.6498   20.5868 N   0  0  0  0  0  0
  -22.0441  -12.8238   22.0424 N   0  0  0  0  0  0
  -25.4260  -15.1862   20.4108 N   0  0  0  0  0  0
  -31.8382  -14.7949   20.2711 O   0  0  0  0  0  0
  -21.6637   -6.8872   21.4237 O   0  0  0  0  0  0
  -22.3511  -14.5549   20.6716 O   0  0  0  0  0  0
  -24.6289  -31.8581   23.2005 C   0  0  0  0  0  0
  -25.9130  -32.4764   23.8348 C   0  0  1  0  0  0
  -27.2197  -27.2944   20.1094 C   0  0  0  0  0  0
  -25.5941  -33.8567   24.2277 N   0  0  0  0  0  0
  -23.4225  -30.4839   21.5437 C   0  0  2  0  0  0
  -24.8649  -28.9354   20.1088 C   0  0  0  0  0  0
  -22.7482  -29.4636   22.4924 C   0  0  0  0  0  0
  -18.0288  -28.1392   22.8485 C   0  0  0  0  0  0
  -24.1490  -36.7283   23.2639 C   0  0  0  0  0  0
  -25.9669  -30.7807   21.3752 C   0  0  0  0  0  0
  -26.0353  -29.4072   20.7133 C   0  0  0  0  0  0
  -27.2115  -28.5971   20.7045 C   0  0  0  0  0  0
  -26.0141  -26.8707   19.5014 C   0  0  0  0  0  0
  -24.8568  -27.6731   19.4969 C   0  0  0  0  0  0
  -23.6362  -29.8210   20.1583 C   0  0  0  0  0  0
  -25.4116  -36.3078   24.0329 C   0  0  1  0  0  0
  -20.5889  -28.3710   23.1270 C   0  0  2  0  0  0
  -20.6787  -26.9435   22.5397 C   0  0  0  0  0  0
  -19.5758  -26.6393   21.5207 C   0  0  0  0  0  0
  -18.1938  -26.7931   22.1626 C   0  0  0  0  0  0
  -19.1539  -28.8865   23.2874 C   0  0  0  0  0  0
  -18.9461  -30.1462   23.8897 C   0  0  0  0  0  0
  -17.6461  -30.6590   24.0566 C   0  0  0  0  0  0
  -25.9056  -34.9445   23.5104 C   0  0  0  0  0  0
  -16.5354  -29.9089   23.6330 C   0  0  0  0  0  0
  -16.7273  -28.6505   23.0353 C   0  0  0  0  0  0
  -26.4505  -31.6576   25.0723 C   0  0  0  0  0  0
  -25.3734  -31.3708   26.1446 C   0  0  0  0  0  0
  -27.0350  -30.2993   24.6198 C   0  0  0  0  0  0
  -27.6064  -32.4311   25.7490 C   0  0  0  0  0  0
  -27.5582  -37.1802   24.8470 C   0  0  0  0  0  0
  -21.4190  -29.3065   22.3662 N   0  0  0  0  0  0
  -26.4295  -37.3775   23.9407 N   0  0  0  0  0  0
  -24.6917  -31.0593   22.0954 N   0  0  0  0  0  0
  -23.4196  -28.8174   23.3013 O   0  0  0  0  0  0
  -28.3529  -26.4596   20.1819 O   0  0  0  0  0  0
  -26.5627  -34.8916   22.4671 O   0  0  0  0  0  0
  -23.5446  -32.1391   23.7321 O   0  0  0  0  0  0
  -28.2838  -19.2523   20.0104 C   0  0  0  0  0  0
  -28.4688  -17.8463   19.8594 C   0  0  0  0  0  0
  -28.6519  -23.5876   21.6583 C   0  0  0  0  0  0
  -30.6307  -17.9943   20.8895 C   0  0  0  0  0  0
  -28.8789  -22.5253   19.7226 C   0  0  0  0  0  0
  -28.6576  -23.8040   20.2474 C   0  0  0  0  0  0
  -29.2684  -20.0890   20.5918 C   0  0  0  0  0  0
  -29.6528  -17.1668   20.2684 C   0  0  0  0  0  0
  -30.4495  -19.4131   21.0472 C   0  0  0  0  0  0
  -28.8736  -22.2538   21.9079 C   0  0  0  0  0  0
  -29.7877  -15.7190   18.3366 C   0  0  0  0  0  0
  -28.4626  -25.1612   19.4644 C   0  0  0  0  0  0
  -29.0345  -21.5398   20.7261 N   0  0  0  0  0  0
  -31.4829  -20.1451   21.6362 N   0  0  0  0  0  0
  -29.8645  -15.7765   19.8105 N   0  0  0  0  0  0
  -28.9258  -21.6226   23.1107 O   0  0  0  0  0  0
  -31.4739  -12.5315   19.1656 H   0  0  0  0  0  0
  -30.3919  -11.4609   20.0184 H   0  0  0  0  0  0
  -29.7528  -11.4978   17.6312 H   0  0  0  0  0  0
  -29.6626  -13.2141   17.5835 H   0  0  0  0  0  0
  -27.8408  -11.2451   18.9439 H   0  0  0  0  0  0
  -27.3750  -12.4718   17.8006 H   0  0  0  0  0  0
  -27.6045  -14.2228   19.4385 H   0  0  0  0  0  0
  -28.7219  -12.2150   21.4543 H   0  0  0  0  0  0
  -28.4455  -13.9220   21.7364 H   0  0  0  0  0  0
  -25.2738   -9.5683   22.4786 H   0  0  0  0  0  0
  -23.9991   -7.4620   22.7470 H   0  0  0  0  0  0
  -21.0830   -8.8774   19.8954 H   0  0  0  0  0  0
  -22.3673  -10.9684   19.6195 H   0  0  0  0  0  0
  -21.2007   -7.6150   23.9725 H   0  0  0  0  0  0
  -21.1476   -6.0520   25.9084 H   0  0  0  0  0  0
  -22.0596   -2.7613   23.2842 H   0  0  0  0  0  0
  -22.4040  -11.9902   22.4829 H   0  0  0  0  0  0
  -21.1072  -13.1287   22.2641 H   0  0  0  0  0  0
  -24.6689  -15.8496   20.5323 H   0  0  0  0  0  0
  -26.2955  -15.6197   20.1300 H   0  0  0  0  0  0
  -26.7195  -32.5420   23.1092 H   0  0  0  0  0  0
  -25.0101  -33.9709   25.0433 H   0  0  0  0  0  0
  -22.7174  -31.3055   21.4016 H   0  0  0  0  0  0
  -23.3755  -35.9615   23.3305 H   0  0  0  0  0  0
  -24.3583  -36.8895   22.2053 H   0  0  0  0  0  0
  -23.7238  -37.6484   23.6656 H   0  0  0  0  0  0
  -26.1090  -31.5455   20.6104 H   0  0  0  0  0  0
  -26.8433  -30.8230   22.0105 H   0  0  0  0  0  0
  -28.1122  -28.9563   21.1826 H   0  0  0  0  0  0
  -25.9080  -25.8966   19.0535 H   0  0  0  0  0  0
  -23.9532  -27.2988   19.0354 H   0  0  0  0  0  0
  -23.7604  -30.5994   19.4046 H   0  0  0  0  0  0
  -22.7528  -29.2564   19.8536 H   0  0  0  0  0  0
  -25.1292  -36.1936   25.0823 H   0  0  0  0  0  0
  -20.9989  -28.3297   24.1390 H   0  0  0  0  0  0
  -20.5704  -26.2325   23.3604 H   0  0  0  0  0  0
  -21.6652  -26.7473   22.1185 H   0  0  0  0  0  0
  -19.6926  -25.6299   21.1246 H   0  0  0  0  0  0
  -19.6687  -27.3194   20.6728 H   0  0  0  0  0  0
  -17.4206  -26.6667   21.4032 H   0  0  0  0  0  0
  -18.0354  -26.0077   22.9030 H   0  0  0  0  0  0
  -19.7933  -30.7275   24.2279 H   0  0  0  0  0  0
  -17.5010  -31.6269   24.5163 H   0  0  0  0  0  0
  -15.5351  -30.2988   23.7649 H   0  0  0  0  0  0
  -15.8678  -28.0815   22.7076 H   0  0  0  0  0  0
  -24.5919  -30.7048   25.7767 H   0  0  0  0  0  0
  -24.8915  -32.2866   26.4872 H   0  0  0  0  0  0
  -25.8056  -30.8885   27.0224 H   0  0  0  0  0  0
  -26.2931  -29.6749   24.1204 H   0  0  0  0  0  0
  -27.4013  -29.7248   25.4715 H   0  0  0  0  0  0
  -27.8817  -30.4262   23.9450 H   0  0  0  0  0  0
  -27.2681  -33.3610   26.2074 H   0  0  0  0  0  0
  -28.3871  -32.6875   25.0313 H   0  0  0  0  0  0
  -28.0752  -31.8440   26.5401 H   0  0  0  0  0  0
  -28.2604  -38.0095   24.7508 H   0  0  0  0  0  0
  -28.1076  -36.2624   24.6306 H   0  0  0  0  0  0
  -27.2304  -37.1459   25.8877 H   0  0  0  0  0  0
  -20.9376  -29.8788   21.6867 H   0  0  0  0  0  0
  -26.0177  -38.2853   24.1399 H   0  0  0  0  0  0
  -27.3652  -19.6970   19.6571 H   0  0  0  0  0  0
  -27.6921  -17.2889   19.3555 H   0  0  0  0  0  0
  -28.4969  -24.3453   22.4145 H   0  0  0  0  0  0
  -31.5700  -17.5470   21.1820 H   0  0  0  0  0  0
  -28.9500  -22.2193   18.6870 H   0  0  0  0  0  0
  -30.5952  -15.1336   17.8924 H   0  0  0  0  0  0
  -29.8854  -16.7032   17.8772 H   0  0  0  0  0  0
  -28.8358  -15.3116   18.0002 H   0  0  0  0  0  0
  -27.6944  -25.0108   18.7117 H   0  0  0  0  0  0
  -29.3683  -25.2646   18.8661 H   0  0  0  0  0  0
  -32.1192  -19.6423   22.2462 H   0  0  0  0  0  0
  -31.1948  -21.0337   22.0377 H   0  0  0  0  0  0
  -28.7013  -22.2599   23.7817 H   0  0  0  0  0  0
  1 25  1  0  0  0
  1 30  2  0  0  0
  1 85  1  0  0  0
  2  3  1  0  0  0
  2 25  1  0  0  0
  2 87  1  0  0  0
  2 88  1  0  0  0
  3  4  1  0  0  0
  3 89  1  0  0  0
  3 90  1  0  0  0
  4  5  1  0  0  0
  4 91  1  0  0  0
  4 92  1  0  0  0
  5  6  1  0  0  0
  5 26  1  0  0  0
  5 93  1  0  0  0
  6 25  1  0  0  0
  6 94  1  0  0  0
  6 95  1  0  0  0
  7  8  2  0  0  0
  7 26  1  0  0  0
  7 29  1  0  0  0
  8  9  1  0  0  0
  8 22  1  0  0  0
  9 10  1  0  0  0
  9 27  2  0  0  0
 10 11  2  0  0  0
 10 15  1  0  0  0
 11 12  1  0  0  0
 11 96  1  0  0  0
 12 13  2  0  0  0
 12 97  1  0  0  0
 13 14  1  0  0  0
 13 31  1  0  0  0
 14 15  2  0  0  0
 14 98  1  0  0  0
 15 99  1  0  0  0
 16 17  2  0  0  0
 16 21  1  0  0  0
 16 31  1  0  0  0
 17 18  1  0  0  0
 17100  1  0  0  0
 18 19  2  0  0  0
 18101  1  0  0  0
 19 20  1  0  0  0
 19 24  1  0  0  0
 20 21  2  0  0  0
 20102  1  0  0  0
 21 23  1  0  0  0
 22 28  1  0  0  0
 22 32  2  0  0  0
 26 27  1  0  0  0
 28103  1  0  0  0
 28104  1  0  0  0
 29105  1  0  0  0
 29106  1  0  0  0
 33 34  1  0  0  0
 33 66  1  0  0  0
 33 70  2  0  0  0
 34 36  1  0  0  0
 34 59  1  0  0  0
 34107  1  0  0  0
 35 44  2  0  0  0
 35 45  1  0  0  0
 35 68  1  0  0  0
 36 56  1  0  0  0
 36108  1  0  0  0
 37 39  1  0  0  0
 37 47  1  0  0  0
 37 66  1  0  0  0
 37109  1  0  0  0
 38 43  2  0  0  0
 38 46  1  0  0  0
 38 47  1  0  0  0
 39 64  1  0  0  0
 39 67  2  0  0  0
 40 52  1  0  0  0
 40 53  2  0  0  0
 40 58  1  0  0  0
 41110  1  0  0  0
 41111  1  0  0  0
 41112  1  0  0  0
 41 48  1  0  0  0
 42 43  1  0  0  0
 42 66  1  0  0  0
 42113  1  0  0  0
 42114  1  0  0  0
 43 44  1  0  0  0
 44115  1  0  0  0
 45 46  2  0  0  0
 45116  1  0  0  0
 46117  1  0  0  0
 47118  1  0  0  0
 47119  1  0  0  0
 48 56  1  0  0  0
 48 65  1  0  0  0
 48120  1  0  0  0
 49 50  1  0  0  0
 49 53  1  0  0  0
 49 64  1  0  0  0
 49121  1  0  0  0
 50 51  1  0  0  0
 50122  1  0  0  0
 50123  1  0  0  0
 51 52  1  0  0  0
 51124  1  0  0  0
 51125  1  0  0  0
 52126  1  0  0  0
 52127  1  0  0  0
 53 54  1  0  0  0
 54 55  2  0  0  0
 54128  1  0  0  0
 55 57  1  0  0  0
 55129  1  0  0  0
 56 69  2  0  0  0
 57 58  2  0  0  0
 57130  1  0  0  0
 58131  1  0  0  0
 59 60  1  0  0  0
 59 61  1  0  0  0
 59 62  1  0  0  0
 60132  1  0  0  0
 60133  1  0  0  0
 60134  1  0  0  0
 61135  1  0  0  0
 61136  1  0  0  0
 61137  1  0  0  0
 62138  1  0  0  0
 62139  1  0  0  0
 62140  1  0  0  0
 63 65  1  0  0  0
 63141  1  0  0  0
 63142  1  0  0  0
 63143  1  0  0  0
 64144  1  0  0  0
 65145  1  0  0  0
 68 82  1  0  0  0
 71 72  2  0  0  0
 71 77  1  0  0  0
 71146  1  0  0  0
 72 78  1  0  0  0
 72147  1  0  0  0
 73 76  1  0  0  0
 73 80  2  0  0  0
 73148  1  0  0  0
 74 78  2  0  0  0
 74 79  1  0  0  0
 74149  1  0  0  0
 75 76  2  0  0  0
 75 83  1  0  0  0
 75150  1  0  0  0
 76 82  1  0  0  0
 77 79  2  0  0  0
 77 83  1  0  0  0
 78 85  1  0  0  0
 79 84  1  0  0  0
 80 83  1  0  0  0
 80 86  1  0  0  0
 81 85  1  0  0  0
 81151  1  0  0  0
 81152  1  0  0  0
 81153  1  0  0  0
 82154  1  0  0  0
 82155  1  0  0  0
 84156  1  0  0  0
 84157  1  0  0  0
 86158  1  0  0  0
M  ISO  4   1 100  68 101  82 101  85 100
M  END
> <chiral flag>
0

> <version>
0

> <s_m_source_file>
/data/baiqing/PycharmProjects/Reinvent-master-3.2/result/LINK_invent/BTK/process_docking_weight1_custom_product_contain_oxygen_bond_distance_aromatic_linkinvent_7_9_3/rearranged_h_0090.sdf

> <i_m_source_file_index>
34

> <r_mmod_Potential_Energy-OPLS-2005>
355.996154785156

> <r_mmod_Stretch_Energy-OPLS-2005>
94.5651092529297

> <r_mmod_Bend_Energy-OPLS-2005>
165.250137329102

> <r_mmod_Torsional_Energy-OPLS-2005>
343.377746582031

> <r_mmod_Improper_Torsional_Energy-OPLS-2005>
31.1551036834717

> <r_mmod_Van_der_Waal_Energy-OPLS-2005>
141.433334350586

> <r_mmod_Electrostatic_Energy-OPLS-2005>
-289.979187011719

> <r_mmod_Solvation_Energy-OPLS-2005>
-215.594284057617

> <b_mmod_Minimization_Converged-OPLS-2005>
0

> <r_mmod_RMS_Derivative-OPLS-2005>
1.48804473876953

$$$$
34
                    3D
 Structure written by MMmdl.
147155  0  0  1  0            999 V2000
  -30.5983  -14.8407   20.4110 C   0  0  0  0  0  0
  -30.4181  -12.5075   19.4902 C   0  0  0  0  0  0
  -29.5061  -12.5045   18.2446 C   0  0  0  0  0  0
  -28.0354  -12.3172   18.6589 C   0  0  0  0  0  0
  -27.6289  -13.2402   19.8383 C   0  0  2  0  0  0
  -28.6721  -13.2452   20.9763 C   0  0  0  0  0  0
  -25.2451  -13.8217   20.5732 C   0  0  0  0  0  0
  -24.1763  -13.0453   20.9254 C   0  0  0  0  0  0
  -24.6365  -11.6932   20.8769 C   0  0  0  0  0  0
  -23.9051  -10.4309   21.0420 C   0  0  0  0  0  0
  -24.3613   -9.4225   21.9193 C   0  0  0  0  0  0
  -23.6302   -8.2253   22.0754 C   0  0  0  0  0  0
  -22.4282   -8.0289   21.3546 C   0  0  0  0  0  0
  -21.9911   -9.0260   20.4645 C   0  0  0  0  0  0
  -22.7229  -10.2147   20.3060 C   0  0  0  0  0  0
  -21.6857   -6.0748   22.5285 C   0  0  0  0  0  0
  -21.4021   -6.5650   23.8220 C   0  0  0  0  0  0
  -21.3650   -5.6797   24.9177 C   0  0  0  0  0  0
  -21.6040   -4.3062   24.7227 C   0  0  0  0  0  0
  -21.8816   -3.8158   23.4348 C   0  0  0  0  0  0
  -21.9195   -4.6976   22.3404 C   0  0  0  0  0  0
  -22.7787  -13.5224   21.1916 C   0  0  0  0  0  0
  -22.1665   -4.2160   21.0983 F   0  0  0  0  0  0
  -21.5610   -3.4543   25.7738 F   0  0  0  0  0  0
  -29.9613  -13.6092   20.3801 N   0  0  0  0  0  0
  -26.2861  -12.9432   20.3250 N   0  0  0  0  0  0
  -25.9293  -11.6570   20.5760 N   0  0  0  0  0  0
  -22.0456  -12.8187   22.0464 N   0  0  0  0  0  0
  -25.4136  -15.1944   20.4143 N   0  0  0  0  0  0
  -31.8037  -14.8461   20.1417 O   0  0  0  0  0  0
  -21.6645   -6.8892   21.4249 O   0  0  0  0  0  0
  -22.3475  -14.5542   20.6782 O   0  0  0  0  0  0
  -24.6365  -31.8496   23.1921 C   0  0  0  0  0  0
  -25.9162  -32.4723   23.8294 C   0  0  1  0  0  0
  -27.2180  -27.2000   20.1360 C   0  0  0  0  0  0
  -25.5930  -33.8529   24.2208 N   0  0  0  0  0  0
  -23.4372  -30.4698   21.5366 C   0  0  2  0  0  0
  -24.8826  -28.9055   20.1061 C   0  0  0  0  0  0
  -22.7515  -29.4590   22.4885 C   0  0  0  0  0  0
  -18.0306  -28.1390   22.8493 C   0  0  0  0  0  0
  -24.1487  -36.7263   23.2642 C   0  0  0  0  0  0
  -25.9870  -30.7426   21.3788 C   0  0  0  0  0  0
  -26.0549  -29.3594   20.7212 C   0  0  0  0  0  0
  -27.2196  -28.5181   20.7260 C   0  0  0  0  0  0
  -26.0198  -26.8278   19.4879 C   0  0  0  0  0  0
  -24.8736  -27.6503   19.4785 C   0  0  0  0  0  0
  -23.6550  -29.7970   20.1544 C   0  0  0  0  0  0
  -25.4118  -36.3050   24.0316 C   0  0  1  0  0  0
  -20.5909  -28.3721   23.1241 C   0  0  2  0  0  0
  -20.6792  -26.9428   22.5414 C   0  0  0  0  0  0
  -19.5770  -26.6377   21.5218 C   0  0  0  0  0  0
  -18.1950  -26.7922   22.1641 C   0  0  0  0  0  0
  -19.1560  -28.8875   23.2868 C   0  0  0  0  0  0
  -18.9475  -30.1474   23.8895 C   0  0  0  0  0  0
  -17.6472  -30.6590   24.0579 C   0  0  0  0  0  0
  -25.9066  -34.9425   23.5069 C   0  0  0  0  0  0
  -16.5364  -29.9081   23.6353 C   0  0  0  0  0  0
  -16.7294  -28.6497   23.0373 C   0  0  0  0  0  0
  -26.4505  -31.6585   25.0714 C   0  0  0  0  0  0
  -25.3700  -31.3746   26.1406 C   0  0  0  0  0  0
  -27.0366  -30.3000   24.6245 C   0  0  0  0  0  0
  -27.6050  -32.4334   25.7485 C   0  0  0  0  0  0
  -27.5575  -37.1782   24.8466 C   0  0  0  0  0  0
  -21.4218  -29.3071   22.3624 N   0  0  0  0  0  0
  -26.4294  -37.3750   23.9400 N   0  0  0  0  0  0
  -24.7071  -31.0410   22.0918 N   0  0  0  0  0  0
  -23.4185  -28.8139   23.3018 O   0  0  0  0  0  0
  -28.3079  -26.2863   20.2479 O   0  0  0  0  0  0
  -26.5662  -34.8924   22.4654 O   0  0  0  0  0  0
  -23.5493  -32.1338   23.7172 O   0  0  0  0  0  0
  -28.2044  -18.9082   21.1939 C   0  0  0  0  0  0
  -27.9007  -20.3169   21.0922 C   0  0  0  0  0  0
  -29.3752  -18.6566   20.5104 C   0  0  0  0  0  0
  -28.8754  -20.9667   20.3817 C   0  0  0  0  0  0
  -30.2611  -17.3658   20.3279 C   0  0  0  0  0  0
  -28.3859  -23.5278   20.4651 C   0  0  0  0  0  0
  -28.3978  -24.9059   19.5946 C   0  0  0  0  0  0
  -28.9102  -22.3257   19.9596 N   0  0  0  0  0  0
  -29.8545  -16.0337   20.5412 N   0  0  0  0  0  0
  -31.4061  -17.6104   19.9344 O   0  0  0  0  0  0
  -27.9112  -23.5766   21.6025 O   0  0  0  0  0  0
  -29.7807  -19.9389   20.0044 O   0  0  0  0  0  0
  -26.7854  -20.8942   21.5990 F   0  0  0  0  0  0
  -31.4594  -12.6149   19.1840 H   0  0  0  0  0  0
  -30.3618  -11.5490   20.0087 H   0  0  0  0  0  0
  -29.8058  -11.7104   17.5581 H   0  0  0  0  0  0
  -29.6174  -13.4431   17.6989 H   0  0  0  0  0  0
  -27.9086  -11.2735   18.9493 H   0  0  0  0  0  0
  -27.3763  -12.4793   17.8047 H   0  0  0  0  0  0
  -27.6019  -14.2473   19.4220 H   0  0  0  0  0  0
  -28.7304  -12.2709   21.4633 H   0  0  0  0  0  0
  -28.3896  -13.9603   21.7504 H   0  0  0  0  0  0
  -25.2763   -9.5701   22.4764 H   0  0  0  0  0  0
  -24.0021   -7.4633   22.7458 H   0  0  0  0  0  0
  -21.0850   -8.8771   19.8942 H   0  0  0  0  0  0
  -22.3689  -10.9688   19.6165 H   0  0  0  0  0  0
  -21.2024   -7.6160   23.9724 H   0  0  0  0  0  0
  -21.1468   -6.0533   25.9077 H   0  0  0  0  0  0
  -22.0602   -2.7625   23.2847 H   0  0  0  0  0  0
  -22.4100  -11.9818   22.4771 H   0  0  0  0  0  0
  -21.1078  -13.1183   22.2734 H   0  0  0  0  0  0
  -24.6380  -15.8408   20.5095 H   0  0  0  0  0  0
  -26.2375  -15.6263   20.0175 H   0  0  0  0  0  0
  -26.7233  -32.5332   23.1032 H   0  0  0  0  0  0
  -25.0044  -33.9649   25.0332 H   0  0  0  0  0  0
  -22.7391  -31.2956   21.3847 H   0  0  0  0  0  0
  -23.3754  -35.9591   23.3301 H   0  0  0  0  0  0
  -24.3577  -36.8889   22.2059 H   0  0  0  0  0  0
  -23.7240  -37.6455   23.6683 H   0  0  0  0  0  0
  -26.1363  -31.4974   20.6045 H   0  0  0  0  0  0
  -26.8614  -30.7897   22.0168 H   0  0  0  0  0  0
  -28.1142  -28.8588   21.2287 H   0  0  0  0  0  0
  -25.9156  -25.8648   19.0160 H   0  0  0  0  0  0
  -23.9731  -27.2914   18.9994 H   0  0  0  0  0  0
  -23.7788  -30.5683   19.3933 H   0  0  0  0  0  0
  -22.7713  -29.2299   19.8562 H   0  0  0  0  0  0
  -25.1310  -36.1889   25.0810 H   0  0  0  0  0  0
  -21.0024  -28.3304   24.1354 H   0  0  0  0  0  0
  -21.6668  -26.7453   22.1238 H   0  0  0  0  0  0
  -20.5686  -26.2338   23.3637 H   0  0  0  0  0  0
  -19.6934  -25.6286   21.1253 H   0  0  0  0  0  0
  -19.6734  -27.3183   20.6749 H   0  0  0  0  0  0
  -17.4206  -26.6635   21.4061 H   0  0  0  0  0  0
  -18.0369  -26.0069   22.9047 H   0  0  0  0  0  0
  -19.7930  -30.7319   24.2269 H   0  0  0  0  0  0
  -17.5028  -31.6275   24.5168 H   0  0  0  0  0  0
  -15.5369  -30.2998   23.7674 H   0  0  0  0  0  0
  -15.8705  -28.0806   22.7075 H   0  0  0  0  0  0
  -24.5896  -30.7085   25.7707 H   0  0  0  0  0  0
  -24.8870  -32.2918   26.4790 H   0  0  0  0  0  0
  -25.7976  -30.8941   27.0216 H   0  0  0  0  0  0
  -26.2977  -29.6725   24.1254 H   0  0  0  0  0  0
  -27.4009  -29.7281   25.4787 H   0  0  0  0  0  0
  -27.8865  -30.4248   23.9532 H   0  0  0  0  0  0
  -27.2675  -33.3653   26.2030 H   0  0  0  0  0  0
  -28.3883  -32.6860   25.0328 H   0  0  0  0  0  0
  -28.0715  -31.8491   26.5423 H   0  0  0  0  0  0
  -28.2591  -38.0078   24.7515 H   0  0  0  0  0  0
  -28.1074  -36.2609   24.6306 H   0  0  0  0  0  0
  -27.2295  -37.1450   25.8870 H   0  0  0  0  0  0
  -20.9408  -29.8770   21.6806 H   0  0  0  0  0  0
  -26.0161  -38.2818   24.1400 H   0  0  0  0  0  0
  -27.6226  -18.1618   21.7151 H   0  0  0  0  0  0
  -27.6878  -24.7948   18.7781 H   0  0  0  0  0  0
  -29.3679  -24.9074   19.0982 H   0  0  0  0  0  0
  -29.4046  -22.4561   19.0893 H   0  0  0  0  0  0
  -28.8866  -15.9234   20.7868 H   0  0  0  0  0  0
  1 25  1  0  0  0
  1 30  2  0  0  0
  1 79  1  0  0  0
  2  3  1  0  0  0
  2 25  1  0  0  0
  2 84  1  0  0  0
  2 85  1  0  0  0
  3  4  1  0  0  0
  3 86  1  0  0  0
  3 87  1  0  0  0
  4  5  1  0  0  0
  4 88  1  0  0  0
  4 89  1  0  0  0
  5  6  1  0  0  0
  5 26  1  0  0  0
  5 90  1  0  0  0
  6 25  1  0  0  0
  6 91  1  0  0  0
  6 92  1  0  0  0
  7  8  2  0  0  0
  7 26  1  0  0  0
  7 29  1  0  0  0
  8  9  1  0  0  0
  8 22  1  0  0  0
  9 10  1  0  0  0
  9 27  2  0  0  0
 10 11  2  0  0  0
 10 15  1  0  0  0
 11 12  1  0  0  0
 11 93  1  0  0  0
 12 13  2  0  0  0
 12 94  1  0  0  0
 13 14  1  0  0  0
 13 31  1  0  0  0
 14 15  2  0  0  0
 14 95  1  0  0  0
 15 96  1  0  0  0
 16 17  2  0  0  0
 16 21  1  0  0  0
 16 31  1  0  0  0
 17 18  1  0  0  0
 17 97  1  0  0  0
 18 19  2  0  0  0
 18 98  1  0  0  0
 19 20  1  0  0  0
 19 24  1  0  0  0
 20 21  2  0  0  0
 20 99  1  0  0  0
 21 23  1  0  0  0
 22 28  1  0  0  0
 22 32  2  0  0  0
 26 27  1  0  0  0
 28100  1  0  0  0
 28101  1  0  0  0
 29102  1  0  0  0
 29103  1  0  0  0
 33 34  1  0  0  0
 33 66  1  0  0  0
 33 70  2  0  0  0
 34 36  1  0  0  0
 34 59  1  0  0  0
 34104  1  0  0  0
 35 44  2  0  0  0
 35 45  1  0  0  0
 35 68  1  0  0  0
 36 56  1  0  0  0
 36105  1  0  0  0
 37 39  1  0  0  0
 37 47  1  0  0  0
 37 66  1  0  0  0
 37106  1  0  0  0
 38 43  2  0  0  0
 38 46  1  0  0  0
 38 47  1  0  0  0
 39 64  1  0  0  0
 39 67  2  0  0  0
 40 52  1  0  0  0
 40 53  2  0  0  0
 40 58  1  0  0  0
 41107  1  0  0  0
 41108  1  0  0  0
 41109  1  0  0  0
 41 48  1  0  0  0
 42 43  1  0  0  0
 42 66  1  0  0  0
 42110  1  0  0  0
 42111  1  0  0  0
 43 44  1  0  0  0
 44112  1  0  0  0
 45 46  2  0  0  0
 45113  1  0  0  0
 46114  1  0  0  0
 47115  1  0  0  0
 47116  1  0  0  0
 48 56  1  0  0  0
 48 65  1  0  0  0
 48117  1  0  0  0
 49 50  1  0  0  0
 49 53  1  0  0  0
 49 64  1  0  0  0
 49118  1  0  0  0
 50 51  1  0  0  0
 50119  1  0  0  0
 50120  1  0  0  0
 51 52  1  0  0  0
 51121  1  0  0  0
 51122  1  0  0  0
 52123  1  0  0  0
 52124  1  0  0  0
 53 54  1  0  0  0
 54 55  2  0  0  0
 54125  1  0  0  0
 55 57  1  0  0  0
 55126  1  0  0  0
 56 69  2  0  0  0
 57 58  2  0  0  0
 57127  1  0  0  0
 58128  1  0  0  0
 59 60  1  0  0  0
 59 61  1  0  0  0
 59 62  1  0  0  0
 60129  1  0  0  0
 60130  1  0  0  0
 60131  1  0  0  0
 61132  1  0  0  0
 61133  1  0  0  0
 61134  1  0  0  0
 62135  1  0  0  0
 62136  1  0  0  0
 62137  1  0  0  0
 63 65  1  0  0  0
 63138  1  0  0  0
 63139  1  0  0  0
 63140  1  0  0  0
 64141  1  0  0  0
 65142  1  0  0  0
 68 77  1  0  0  0
 71 72  1  0  0  0
 71 73  2  0  0  0
 71143  1  0  0  0
 72 74  2  0  0  0
 72 83  1  0  0  0
 73 75  1  0  0  0
 73 82  1  0  0  0
 74 78  1  0  0  0
 74 82  1  0  0  0
 75 79  1  0  0  0
 75 80  2  0  0  0
 76 77  1  0  0  0
 76 78  1  0  0  0
 76 81  2  0  0  0
 77144  1  0  0  0
 77145  1  0  0  0
 78146  1  0  0  0
 79147  1  0  0  0
M  ISO  4   1 100  68 101  77 101  79 100
M  END
> <chiral flag>
0

> <version>
0

> <s_m_source_file>
/data/baiqing/PycharmProjects/Reinvent-master-3.2/result/LINK_invent/BTK/process_docking_weight1_custom_product_contain_oxygen_bond_distance_aromatic_linkinvent_7_9_3/rearranged_h_0090.sdf

> <i_m_source_file_index>
35

> <r_mmod_Potential_Energy-OPLS-2005>
100.636764526367

> <r_mmod_Stretch_Energy-OPLS-2005>
162.492706298828

> <r_mmod_Bend_Energy-OPLS-2005>
222.912063598633

> <r_mmod_Torsional_Energy-OPLS-2005>
225.234146118164

> <r_mmod_Improper_Torsional_Energy-OPLS-2005>
5.50265169143677

> <r_mmod_Van_der_Waal_Energy-OPLS-2005>
119.491905212402

> <r_mmod_Electrostatic_Energy-OPLS-2005>
-490.716125488281

> <r_mmod_Solvation_Energy-OPLS-2005>
-274.493011474609

> <b_mmod_Minimization_Converged-OPLS-2005>
0

> <r_mmod_RMS_Derivative-OPLS-2005>
1.95556485652924

$$$$
35
                    3D
 Structure written by MMmdl.
153161  0  0  1  0            999 V2000
  -30.6461  -14.6320   20.5836 C   0  0  0  0  0  0
  -30.4391  -12.4130   19.4579 C   0  0  0  0  0  0
  -29.5106  -12.5385   18.2276 C   0  0  0  0  0  0
  -28.0308  -12.3660   18.6270 C   0  0  0  0  0  0
  -27.6552  -13.2137   19.8691 C   0  0  2  0  0  0
  -28.6909  -13.0120   20.9922 C   0  0  0  0  0  0
  -25.2557  -13.8163   20.5669 C   0  0  0  0  0  0
  -24.1822  -13.0431   20.9173 C   0  0  0  0  0  0
  -24.6391  -11.6905   20.8726 C   0  0  0  0  0  0
  -23.9065  -10.4289   21.0405 C   0  0  0  0  0  0
  -24.3615   -9.4199   21.9183 C   0  0  0  0  0  0
  -23.6290   -8.2236   22.0750 C   0  0  0  0  0  0
  -22.4270   -8.0278   21.3545 C   0  0  0  0  0  0
  -21.9906   -9.0253   20.4644 C   0  0  0  0  0  0
  -22.7240  -10.2129   20.3053 C   0  0  0  0  0  0
  -21.6854   -6.0732   22.5277 C   0  0  0  0  0  0
  -21.4013   -6.5637   23.8210 C   0  0  0  0  0  0
  -21.3659   -5.6791   24.9174 C   0  0  0  0  0  0
  -21.6047   -4.3052   24.7226 C   0  0  0  0  0  0
  -21.8822   -3.8143   23.4345 C   0  0  0  0  0  0
  -21.9192   -4.6959   22.3402 C   0  0  0  0  0  0
  -22.7846  -13.5223   21.1857 C   0  0  0  0  0  0
  -22.1660   -4.2143   21.0979 F   0  0  0  0  0  0
  -21.5630   -3.4537   25.7739 F   0  0  0  0  0  0
  -30.0126  -13.4092   20.4688 N   0  0  0  0  0  0
  -26.2982  -12.9341   20.3303 N   0  0  0  0  0  0
  -25.9313  -11.6494   20.5719 N   0  0  0  0  0  0
  -22.0500  -12.8208   22.0422 N   0  0  0  0  0  0
  -25.4286  -15.1887   20.4102 N   0  0  0  0  0  0
  -31.7313  -14.8331   20.0251 O   0  0  0  0  0  0
  -21.6638   -6.8873   21.4237 O   0  0  0  0  0  0
  -22.3521  -14.5538   20.6722 O   0  0  0  0  0  0
  -24.6260  -31.8601   23.2037 C   0  0  0  0  0  0
  -25.9111  -32.4775   23.8361 C   0  0  1  0  0  0
  -27.2273  -27.3289   20.1233 C   0  0  0  0  0  0
  -25.5941  -33.8577   24.2293 N   0  0  0  0  0  0
  -23.4192  -30.4823   21.5463 C   0  0  2  0  0  0
  -24.8671  -28.9368   20.1132 C   0  0  0  0  0  0
  -22.7474  -29.4625   22.4959 C   0  0  0  0  0  0
  -18.0287  -28.1375   22.8487 C   0  0  0  0  0  0
  -24.1494  -36.7290   23.2640 C   0  0  0  0  0  0
  -25.9585  -30.7956   21.3712 C   0  0  0  0  0  0
  -26.0350  -29.4225   20.7159 C   0  0  0  0  0  0
  -27.2212  -28.6316   20.7072 C   0  0  0  0  0  0
  -26.0405  -26.8904   19.4975 C   0  0  0  0  0  0
  -24.8722  -27.6757   19.4944 C   0  0  0  0  0  0
  -23.6333  -29.8145   20.1623 C   0  0  0  0  0  0
  -25.4118  -36.3085   24.0332 C   0  0  1  0  0  0
  -20.5887  -28.3677   23.1293 C   0  0  2  0  0  0
  -20.6774  -26.9399   22.5416 C   0  0  0  0  0  0
  -19.5749  -26.6376   21.5219 C   0  0  0  0  0  0
  -18.1928  -26.7922   22.1624 C   0  0  0  0  0  0
  -19.1538  -28.8846   23.2880 C   0  0  0  0  0  0
  -18.9465  -30.1452   23.8889 C   0  0  0  0  0  0
  -17.6464  -30.6579   24.0558 C   0  0  0  0  0  0
  -25.9053  -34.9451   23.5112 C   0  0  0  0  0  0
  -16.5353  -29.9073   23.6330 C   0  0  0  0  0  0
  -16.7275  -28.6490   23.0354 C   0  0  0  0  0  0
  -26.4494  -31.6577   25.0724 C   0  0  0  0  0  0
  -25.3737  -31.3693   26.1463 C   0  0  0  0  0  0
  -27.0336  -30.3007   24.6156 C   0  0  0  0  0  0
  -27.6077  -32.4302   25.7483 C   0  0  0  0  0  0
  -27.5577  -37.1800   24.8468 C   0  0  0  0  0  0
  -21.4189  -29.3038   22.3695 N   0  0  0  0  0  0
  -26.4292  -37.3784   23.9415 N   0  0  0  0  0  0
  -24.6869  -31.0627   22.0974 N   0  0  0  0  0  0
  -23.4202  -28.8157   23.3028 O   0  0  0  0  0  0
  -28.3405  -26.4826   20.1365 O   0  0  0  0  0  0
  -26.5613  -34.8921   22.4669 O   0  0  0  0  0  0
  -23.5426  -32.1386   23.7377 O   0  0  0  0  0  0
  -29.7057  -18.3053   21.9276 C   0  0  0  0  0  0
  -29.5236  -19.6733   21.5673 C   0  0  0  0  0  0
  -29.9681  -17.6910   19.6284 C   0  0  0  0  0  0
  -29.9220  -17.2537   20.9805 C   0  0  0  0  0  0
  -29.7946  -19.0638   19.2623 C   0  0  0  0  0  0
  -29.5532  -20.0959   20.2163 C   0  0  0  0  0  0
  -29.9953  -15.7790   21.4554 C   0  0  0  0  0  0
  -28.9120  -23.9404   19.9851 C   0  0  0  0  0  0
  -28.1247  -25.1192   20.6778 C   0  0  0  0  0  0
  -28.9289  -22.5061   20.6602 C   0  0  0  0  0  0
  -29.5684  -15.5172   22.6224 N   0  0  0  0  0  0
  -29.8474  -19.4182   17.9157 N   0  0  0  0  0  0
  -29.5130  -24.1364   18.9219 O   0  0  0  0  0  0
  -29.3784  -21.4273   19.7722 O   0  0  0  0  0  0
  -31.4801  -12.5443   19.1578 H   0  0  0  0  0  0
  -30.3852  -11.4061   19.8745 H   0  0  0  0  0  0
  -29.7823  -11.7991   17.4735 H   0  0  0  0  0  0
  -29.6509  -13.5157   17.7633 H   0  0  0  0  0  0
  -27.8649  -11.3091   18.8391 H   0  0  0  0  0  0
  -27.3796  -12.6135   17.7877 H   0  0  0  0  0  0
  -27.6910  -14.2601   19.5644 H   0  0  0  0  0  0
  -28.7151  -11.9635   21.2925 H   0  0  0  0  0  0
  -28.3772  -13.5361   21.8888 H   0  0  0  0  0  0
  -25.2763   -9.5674   22.4756 H   0  0  0  0  0  0
  -24.0003   -7.4621   22.7463 H   0  0  0  0  0  0
  -21.0841   -8.8777   19.8947 H   0  0  0  0  0  0
  -22.3708  -10.9668   19.6155 H   0  0  0  0  0  0
  -21.2005   -7.6145   23.9714 H   0  0  0  0  0  0
  -21.1479   -6.0518   25.9076 H   0  0  0  0  0  0
  -22.0603   -2.7604   23.2850 H   0  0  0  0  0  0
  -22.4117  -11.9858   22.4783 H   0  0  0  0  0  0
  -21.1120  -13.1227   22.2652 H   0  0  0  0  0  0
  -24.6697  -15.8503   20.5316 H   0  0  0  0  0  0
  -26.2938  -15.6283   20.1221 H   0  0  0  0  0  0
  -26.7184  -32.5455   23.1116 H   0  0  0  0  0  0
  -25.0121  -33.9729   25.0458 H   0  0  0  0  0  0
  -22.7135  -31.3036   21.4017 H   0  0  0  0  0  0
  -23.3765  -35.9613   23.3296 H   0  0  0  0  0  0
  -24.3588  -36.8910   22.2054 H   0  0  0  0  0  0
  -23.7232  -37.6485   23.6662 H   0  0  0  0  0  0
  -26.0880  -31.5590   20.6026 H   0  0  0  0  0  0
  -26.8392  -30.8458   21.9997 H   0  0  0  0  0  0
  -28.1192  -29.0014   21.1813 H   0  0  0  0  0  0
  -26.0099  -25.9249   19.0123 H   0  0  0  0  0  0
  -23.9785  -27.2997   19.0154 H   0  0  0  0  0  0
  -23.7482  -30.5898   19.4035 H   0  0  0  0  0  0
  -22.7541  -29.2413   19.8626 H   0  0  0  0  0  0
  -25.1292  -36.1940   25.0824 H   0  0  0  0  0  0
  -20.9973  -28.3237   24.1418 H   0  0  0  0  0  0
  -20.5688  -26.2277   23.3606 H   0  0  0  0  0  0
  -21.6636  -26.7434   22.1191 H   0  0  0  0  0  0
  -19.6910  -25.6293   21.1234 H   0  0  0  0  0  0
  -19.6687  -27.3201   20.6760 H   0  0  0  0  0  0
  -17.4199  -26.6683   21.4024 H   0  0  0  0  0  0
  -18.0310  -26.0063   22.9014 H   0  0  0  0  0  0
  -19.7944  -30.7266   24.2256 H   0  0  0  0  0  0
  -17.5019  -31.6264   24.5148 H   0  0  0  0  0  0
  -15.5353  -30.2966   23.7670 H   0  0  0  0  0  0
  -15.8671  -28.0801   22.7081 H   0  0  0  0  0  0
  -24.5947  -30.6988   25.7803 H   0  0  0  0  0  0
  -24.8880  -32.2841   26.4877 H   0  0  0  0  0  0
  -25.8088  -30.8897   27.0244 H   0  0  0  0  0  0
  -26.2890  -29.6751   24.1219 H   0  0  0  0  0  0
  -27.4080  -29.7269   25.4645 H   0  0  0  0  0  0
  -27.8740  -30.4289   23.9331 H   0  0  0  0  0  0
  -27.2720  -33.3638   26.2009 H   0  0  0  0  0  0
  -28.3914  -32.6797   25.0316 H   0  0  0  0  0  0
  -28.0708  -31.8444   26.5435 H   0  0  0  0  0  0
  -28.2594  -38.0103   24.7534 H   0  0  0  0  0  0
  -28.1071  -36.2633   24.6264 H   0  0  0  0  0  0
  -27.2295  -37.1410   25.8872 H   0  0  0  0  0  0
  -20.9374  -29.8751   21.6893 H   0  0  0  0  0  0
  -26.0168  -38.2856   24.1426 H   0  0  0  0  0  0
  -29.6637  -18.0728   22.9825 H   0  0  0  0  0  0
  -29.3616  -20.3935   22.3561 H   0  0  0  0  0  0
  -30.1221  -16.9544   18.8519 H   0  0  0  0  0  0
  -28.4110  -25.1328   21.7292 H   0  0  0  0  0  0
  -27.0687  -24.8521   20.6648 H   0  0  0  0  0  0
  -27.9260  -22.2771   21.0213 H   0  0  0  0  0  0
  -29.5838  -22.5517   21.5307 H   0  0  0  0  0  0
  -29.1952  -16.3459   23.0678 H   0  0  0  0  0  0
  -29.6238  -18.7156   17.2184 H   0  0  0  0  0  0
  -29.4867  -20.3387   17.6827 H   0  0  0  0  0  0
  1 25  1  0  0  0
  1 30  2  0  0  0
  1 77  1  0  0  0
  2  3  1  0  0  0
  2 25  1  0  0  0
  2 85  1  0  0  0
  2 86  1  0  0  0
  3  4  1  0  0  0
  3 87  1  0  0  0
  3 88  1  0  0  0
  4  5  1  0  0  0
  4 89  1  0  0  0
  4 90  1  0  0  0
  5  6  1  0  0  0
  5 26  1  0  0  0
  5 91  1  0  0  0
  6 25  1  0  0  0
  6 92  1  0  0  0
  6 93  1  0  0  0
  7  8  2  0  0  0
  7 26  1  0  0  0
  7 29  1  0  0  0
  8  9  1  0  0  0
  8 22  1  0  0  0
  9 10  1  0  0  0
  9 27  2  0  0  0
 10 11  2  0  0  0
 10 15  1  0  0  0
 11 12  1  0  0  0
 11 94  1  0  0  0
 12 13  2  0  0  0
 12 95  1  0  0  0
 13 14  1  0  0  0
 13 31  1  0  0  0
 14 15  2  0  0  0
 14 96  1  0  0  0
 15 97  1  0  0  0
 16 17  2  0  0  0
 16 21  1  0  0  0
 16 31  1  0  0  0
 17 18  1  0  0  0
 17 98  1  0  0  0
 18 19  2  0  0  0
 18 99  1  0  0  0
 19 20  1  0  0  0
 19 24  1  0  0  0
 20 21  2  0  0  0
 20100  1  0  0  0
 21 23  1  0  0  0
 22 28  1  0  0  0
 22 32  2  0  0  0
 26 27  1  0  0  0
 28101  1  0  0  0
 28102  1  0  0  0
 29103  1  0  0  0
 29104  1  0  0  0
 33 34  1  0  0  0
 33 66  1  0  0  0
 33 70  2  0  0  0
 34 36  1  0  0  0
 34 59  1  0  0  0
 34105  1  0  0  0
 35 44  2  0  0  0
 35 45  1  0  0  0
 35 68  1  0  0  0
 36 56  1  0  0  0
 36106  1  0  0  0
 37 39  1  0  0  0
 37 47  1  0  0  0
 37 66  1  0  0  0
 37107  1  0  0  0
 38 43  2  0  0  0
 38 46  1  0  0  0
 38 47  1  0  0  0
 39 64  1  0  0  0
 39 67  2  0  0  0
 40 52  1  0  0  0
 40 53  2  0  0  0
 40 58  1  0  0  0
 41108  1  0  0  0
 41109  1  0  0  0
 41110  1  0  0  0
 41 48  1  0  0  0
 42 43  1  0  0  0
 42 66  1  0  0  0
 42111  1  0  0  0
 42112  1  0  0  0
 43 44  1  0  0  0
 44113  1  0  0  0
 45 46  2  0  0  0
 45114  1  0  0  0
 46115  1  0  0  0
 47116  1  0  0  0
 47117  1  0  0  0
 48 56  1  0  0  0
 48 65  1  0  0  0
 48118  1  0  0  0
 49 50  1  0  0  0
 49 53  1  0  0  0
 49 64  1  0  0  0
 49119  1  0  0  0
 50 51  1  0  0  0
 50120  1  0  0  0
 50121  1  0  0  0
 51 52  1  0  0  0
 51122  1  0  0  0
 51123  1  0  0  0
 52124  1  0  0  0
 52125  1  0  0  0
 53 54  1  0  0  0
 54 55  2  0  0  0
 54126  1  0  0  0
 55 57  1  0  0  0
 55127  1  0  0  0
 56 69  2  0  0  0
 57 58  2  0  0  0
 57128  1  0  0  0
 58129  1  0  0  0
 59 60  1  0  0  0
 59 61  1  0  0  0
 59 62  1  0  0  0
 60130  1  0  0  0
 60131  1  0  0  0
 60132  1  0  0  0
 61133  1  0  0  0
 61134  1  0  0  0
 61135  1  0  0  0
 62136  1  0  0  0
 62137  1  0  0  0
 62138  1  0  0  0
 63 65  1  0  0  0
 63139  1  0  0  0
 63140  1  0  0  0
 63141  1  0  0  0
 64142  1  0  0  0
 65143  1  0  0  0
 68 79  1  0  0  0
 71 72  2  0  0  0
 71 74  1  0  0  0
 71144  1  0  0  0
 72 76  1  0  0  0
 72145  1  0  0  0
 73 74  2  0  0  0
 73 75  1  0  0  0
 73146  1  0  0  0
 74 77  1  0  0  0
 75 76  2  0  0  0
 75 82  1  0  0  0
 76 84  1  0  0  0
 77 81  2  0  0  0
 78 79  1  0  0  0
 78 80  1  0  0  0
 78 83  2  0  0  0
 79147  1  0  0  0
 79148  1  0  0  0
 80 84  1  0  0  0
 80149  1  0  0  0
 80150  1  0  0  0
 81151  1  0  0  0
 82152  1  0  0  0
 82153  1  0  0  0
M  ISO  4   1 100  68 101  77 100  79 101
M  END
> <chiral flag>
0

> <version>
0

> <s_m_source_file>
/data/baiqing/PycharmProjects/Reinvent-master-3.2/result/LINK_invent/BTK/process_docking_weight1_custom_product_contain_oxygen_bond_distance_aromatic_linkinvent_7_9_3/rearranged_h_0090.sdf

> <i_m_source_file_index>
36

> <r_mmod_Potential_Energy-OPLS-2005>
173.068908691406

> <r_mmod_Stretch_Energy-OPLS-2005>
92.4215087890625

> <r_mmod_Bend_Energy-OPLS-2005>
148.506774902344

> <r_mmod_Torsional_Energy-OPLS-2005>
211.271255493164

> <r_mmod_Improper_Torsional_Energy-OPLS-2005>
5.90434837341309

> <r_mmod_Van_der_Waal_Energy-OPLS-2005>
149.821578979492

> <r_mmod_Electrostatic_Energy-OPLS-2005>
-230.790771484375

> <r_mmod_Solvation_Energy-OPLS-2005>
-247.164794921875

> <b_mmod_Minimization_Converged-OPLS-2005>
0

> <r_mmod_RMS_Derivative-OPLS-2005>
1.21816408634186

$$$$
36
                    3D
 Structure written by MMmdl.
153162  0  0  1  0            999 V2000
  -30.6754  -14.8351   20.4747 C   0  0  0  0  0  0
  -30.4069  -12.5325   19.4981 C   0  0  0  0  0  0
  -29.5011  -12.5281   18.2509 C   0  0  0  0  0  0
  -28.0352  -12.3354   18.6697 C   0  0  0  0  0  0
  -27.6292  -13.2590   19.8503 C   0  0  2  0  0  0
  -28.6750  -13.2742   20.9893 C   0  0  0  0  0  0
  -25.2377  -13.8216   20.5652 C   0  0  0  0  0  0
  -24.1738  -13.0426   20.9235 C   0  0  0  0  0  0
  -24.6398  -11.6929   20.8792 C   0  0  0  0  0  0
  -23.9093  -10.4288   21.0424 C   0  0  0  0  0  0
  -24.3639   -9.4196   21.9196 C   0  0  0  0  0  0
  -23.6307   -8.2233   22.0759 C   0  0  0  0  0  0
  -22.4288   -8.0280   21.3547 C   0  0  0  0  0  0
  -21.9933   -9.0256   20.4647 C   0  0  0  0  0  0
  -22.7269  -10.2132   20.3063 C   0  0  0  0  0  0
  -21.6853   -6.0736   22.5281 C   0  0  0  0  0  0
  -21.4010   -6.5641   23.8213 C   0  0  0  0  0  0
  -21.3660   -5.6793   24.9174 C   0  0  0  0  0  0
  -21.6047   -4.3057   24.7228 C   0  0  0  0  0  0
  -21.8820   -3.8149   23.4347 C   0  0  0  0  0  0
  -21.9191   -4.6964   22.3403 C   0  0  0  0  0  0
  -22.7757  -13.5186   21.1878 C   0  0  0  0  0  0
  -22.1664   -4.2151   21.0979 F   0  0  0  0  0  0
  -21.5627   -3.4540   25.7739 F   0  0  0  0  0  0
  -29.9614  -13.6446   20.3910 N   0  0  0  0  0  0
  -26.2875  -12.9510   20.3327 N   0  0  0  0  0  0
  -25.9347  -11.6622   20.5831 N   0  0  0  0  0  0
  -22.0422  -12.8172   22.0446 N   0  0  0  0  0  0
  -25.3883  -15.1915   20.3871 N   0  0  0  0  0  0
  -31.8275  -14.8281   20.0408 O   0  0  0  0  0  0
  -21.6646   -6.8881   21.4244 O   0  0  0  0  0  0
  -22.3433  -14.5491   20.6726 O   0  0  0  0  0  0
  -24.6375  -31.8474   23.1911 C   0  0  0  0  0  0
  -25.9170  -32.4711   23.8284 C   0  0  1  0  0  0
  -27.2211  -27.1950   20.1317 C   0  0  0  0  0  0
  -25.5939  -33.8516   24.2205 N   0  0  0  0  0  0
  -23.4392  -30.4670   21.5341 C   0  0  2  0  0  0
  -24.8904  -28.9062   20.0977 C   0  0  0  0  0  0
  -22.7543  -29.4556   22.4862 C   0  0  0  0  0  0
  -18.0300  -28.1390   22.8479 C   0  0  0  0  0  0
  -24.1492  -36.7266   23.2643 C   0  0  0  0  0  0
  -25.9897  -30.7385   21.3822 C   0  0  0  0  0  0
  -26.0622  -29.3571   20.7184 C   0  0  0  0  0  0
  -27.2263  -28.5115   20.7282 C   0  0  0  0  0  0
  -26.0284  -26.8287   19.4730 C   0  0  0  0  0  0
  -24.8832  -27.6543   19.4608 C   0  0  0  0  0  0
  -23.6616  -29.7986   20.1501 C   0  0  0  0  0  0
  -25.4122  -36.3044   24.0319 C   0  0  1  0  0  0
  -20.5909  -28.3710   23.1246 C   0  0  2  0  0  0
  -20.6783  -26.9417   22.5407 C   0  0  0  0  0  0
  -19.5759  -26.6378   21.5211 C   0  0  0  0  0  0
  -18.1940  -26.7929   22.1622 C   0  0  0  0  0  0
  -19.1556  -28.8868   23.2855 C   0  0  0  0  0  0
  -18.9474  -30.1465   23.8879 C   0  0  0  0  0  0
  -17.6472  -30.6588   24.0559 C   0  0  0  0  0  0
  -25.9067  -34.9416   23.5071 C   0  0  0  0  0  0
  -16.5362  -29.9082   23.6334 C   0  0  0  0  0  0
  -16.7285  -28.6500   23.0355 C   0  0  0  0  0  0
  -26.4515  -31.6568   25.0709 C   0  0  0  0  0  0
  -25.3715  -31.3740   26.1415 C   0  0  0  0  0  0
  -27.0381  -30.2973   24.6261 C   0  0  0  0  0  0
  -27.6048  -32.4333   25.7493 C   0  0  0  0  0  0
  -27.5578  -37.1789   24.8465 C   0  0  0  0  0  0
  -21.4239  -29.3039   22.3619 N   0  0  0  0  0  0
  -26.4290  -37.3751   23.9406 N   0  0  0  0  0  0
  -24.7080  -31.0377   22.0915 N   0  0  0  0  0  0
  -23.4210  -28.8108   23.2997 O   0  0  0  0  0  0
  -28.2451  -26.2140   20.3036 O   0  0  0  0  0  0
  -26.5652  -34.8908   22.4650 O   0  0  0  0  0  0
  -23.5509  -32.1326   23.7167 O   0  0  0  0  0  0
  -27.1061  -18.1411   21.2338 C   0  0  0  0  0  0
  -27.5063  -19.4568   20.9101 C   0  0  0  0  0  0
  -27.9904  -17.0424   21.1627 C   0  0  0  0  0  0
  -28.8147  -19.7491   20.4682 C   0  0  0  0  0  0
  -29.3312  -17.1996   20.7654 C   0  0  0  0  0  0
  -29.7242  -18.5826   20.4212 C   0  0  0  0  0  0
  -28.6510  -23.6923   19.5487 C   0  0  0  0  0  0
  -29.3297  -21.4377   18.7228 C   0  0  0  0  0  0
  -28.4468  -25.0894   19.4348 C   0  0  0  0  0  0
  -29.0772  -22.9018   18.3299 C   0  0  0  0  0  0
  -28.6132  -22.5263   20.6328 C   0  0  0  0  0  0
  -29.0719  -21.1765   20.0198 N   0  0  0  0  0  0
  -30.2601  -16.0503   21.0388 N   0  0  0  0  0  0
  -29.7211  -20.6136   17.8903 O   0  0  0  0  0  0
  -31.0194  -18.7955   20.0872 F   0  0  0  0  0  0
  -31.4493  -12.6207   19.1892 H   0  0  0  0  0  0
  -30.3445  -11.5763   20.0200 H   0  0  0  0  0  0
  -29.8031  -11.7361   17.5642 H   0  0  0  0  0  0
  -29.6125  -13.4677   17.7076 H   0  0  0  0  0  0
  -27.9141  -11.2909   18.9588 H   0  0  0  0  0  0
  -27.3723  -12.4933   17.8181 H   0  0  0  0  0  0
  -27.5992  -14.2679   19.4378 H   0  0  0  0  0  0
  -28.7391  -12.2996   21.4752 H   0  0  0  0  0  0
  -28.3982  -13.9854   21.7670 H   0  0  0  0  0  0
  -25.2777   -9.5667   22.4783 H   0  0  0  0  0  0
  -24.0009   -7.4618   22.7477 H   0  0  0  0  0  0
  -21.0862   -8.8782   19.8949 H   0  0  0  0  0  0
  -22.3731  -10.9677   19.6177 H   0  0  0  0  0  0
  -21.2004   -7.6151   23.9720 H   0  0  0  0  0  0
  -21.1483   -6.0521   25.9078 H   0  0  0  0  0  0
  -22.0599   -2.7613   23.2846 H   0  0  0  0  0  0
  -22.4058  -11.9838   22.4826 H   0  0  0  0  0  0
  -21.1042  -13.1182   22.2670 H   0  0  0  0  0  0
  -24.6041  -15.8290   20.4682 H   0  0  0  0  0  0
  -26.2207  -15.6325   20.0186 H   0  0  0  0  0  0
  -26.7235  -32.5335   23.1017 H   0  0  0  0  0  0
  -25.0063  -33.9636   25.0338 H   0  0  0  0  0  0
  -22.7390  -31.2913   21.3835 H   0  0  0  0  0  0
  -23.3757  -35.9595   23.3294 H   0  0  0  0  0  0
  -24.3579  -36.8907   22.2060 H   0  0  0  0  0  0
  -23.7245  -37.6460   23.6684 H   0  0  0  0  0  0
  -26.1414  -31.4987   20.6147 H   0  0  0  0  0  0
  -26.8616  -30.7845   22.0230 H   0  0  0  0  0  0
  -28.1125  -28.8381   21.2539 H   0  0  0  0  0  0
  -25.9488  -25.8536   19.0146 H   0  0  0  0  0  0
  -23.9847  -27.3015   18.9734 H   0  0  0  0  0  0
  -23.7881  -30.5746   19.3944 H   0  0  0  0  0  0
  -22.7788  -29.2341   19.8445 H   0  0  0  0  0  0
  -25.1310  -36.1877   25.0811 H   0  0  0  0  0  0
  -21.0004  -28.3298   24.1365 H   0  0  0  0  0  0
  -20.5673  -26.2323   23.3621 H   0  0  0  0  0  0
  -21.6651  -26.7423   22.1208 H   0  0  0  0  0  0
  -19.6920  -25.6284   21.1252 H   0  0  0  0  0  0
  -19.6697  -27.3179   20.6733 H   0  0  0  0  0  0
  -17.4209  -26.6673   21.4026 H   0  0  0  0  0  0
  -18.0341  -26.0074   22.9022 H   0  0  0  0  0  0
  -19.7950  -30.7284   24.2241 H   0  0  0  0  0  0
  -17.5025  -31.6266   24.5164 H   0  0  0  0  0  0
  -15.5362  -30.2978   23.7665 H   0  0  0  0  0  0
  -15.8686  -28.0811   22.7081 H   0  0  0  0  0  0
  -24.5895  -30.7087   25.7737 H   0  0  0  0  0  0
  -24.8903  -32.2916   26.4807 H   0  0  0  0  0  0
  -25.8011  -30.8934   27.0213 H   0  0  0  0  0  0
  -26.2988  -29.6696   24.1270 H   0  0  0  0  0  0
  -27.4017  -29.7267   25.4817 H   0  0  0  0  0  0
  -27.8885  -30.4225   23.9555 H   0  0  0  0  0  0
  -27.2637  -33.3643   26.2032 H   0  0  0  0  0  0
  -28.3877  -32.6878   25.0337 H   0  0  0  0  0  0
  -28.0697  -31.8487   26.5442 H   0  0  0  0  0  0
  -28.2589  -38.0091   24.7512 H   0  0  0  0  0  0
  -28.1079  -36.2621   24.6294 H   0  0  0  0  0  0
  -27.2294  -37.1439   25.8868 H   0  0  0  0  0  0
  -20.9440  -29.8755   21.6808 H   0  0  0  0  0  0
  -26.0160  -38.2822   24.1404 H   0  0  0  0  0  0
  -26.0918  -17.9708   21.5678 H   0  0  0  0  0  0
  -26.7718  -20.2471   20.9721 H   0  0  0  0  0  0
  -27.6419  -16.0793   21.5005 H   0  0  0  0  0  0
  -28.5754  -25.4952   18.4403 H   0  0  0  0  0  0
  -29.9853  -23.3285   17.9040 H   0  0  0  0  0  0
  -28.2955  -22.9428   17.5713 H   0  0  0  0  0  0
  -27.5999  -22.4364   21.0234 H   0  0  0  0  0  0
  -29.2627  -22.7863   21.4687 H   0  0  0  0  0  0
  -31.1462  -16.4698   21.2792 H   0  0  0  0  0  0
  1 25  1  0  0  0
  1 30  2  0  0  0
  1 83  1  0  0  0
  2  3  1  0  0  0
  2 25  1  0  0  0
  2 86  1  0  0  0
  2 87  1  0  0  0
  3  4  1  0  0  0
  3 88  1  0  0  0
  3 89  1  0  0  0
  4  5  1  0  0  0
  4 90  1  0  0  0
  4 91  1  0  0  0
  5  6  1  0  0  0
  5 26  1  0  0  0
  5 92  1  0  0  0
  6 25  1  0  0  0
  6 93  1  0  0  0
  6 94  1  0  0  0
  7  8  2  0  0  0
  7 26  1  0  0  0
  7 29  1  0  0  0
  8  9  1  0  0  0
  8 22  1  0  0  0
  9 10  1  0  0  0
  9 27  2  0  0  0
 10 11  2  0  0  0
 10 15  1  0  0  0
 11 12  1  0  0  0
 11 95  1  0  0  0
 12 13  2  0  0  0
 12 96  1  0  0  0
 13 14  1  0  0  0
 13 31  1  0  0  0
 14 15  2  0  0  0
 14 97  1  0  0  0
 15 98  1  0  0  0
 16 17  2  0  0  0
 16 21  1  0  0  0
 16 31  1  0  0  0
 17 18  1  0  0  0
 17 99  1  0  0  0
 18 19  2  0  0  0
 18100  1  0  0  0
 19 20  1  0  0  0
 19 24  1  0  0  0
 20 21  2  0  0  0
 20101  1  0  0  0
 21 23  1  0  0  0
 22 28  1  0  0  0
 22 32  2  0  0  0
 26 27  1  0  0  0
 28102  1  0  0  0
 28103  1  0  0  0
 29104  1  0  0  0
 29105  1  0  0  0
 33 34  1  0  0  0
 33 66  1  0  0  0
 33 70  2  0  0  0
 34 36  1  0  0  0
 34 59  1  0  0  0
 34106  1  0  0  0
 35 44  2  0  0  0
 35 45  1  0  0  0
 35 68  1  0  0  0
 36 56  1  0  0  0
 36107  1  0  0  0
 37 39  1  0  0  0
 37 47  1  0  0  0
 37 66  1  0  0  0
 37108  1  0  0  0
 38 43  2  0  0  0
 38 46  1  0  0  0
 38 47  1  0  0  0
 39 64  1  0  0  0
 39 67  2  0  0  0
 40 52  1  0  0  0
 40 53  2  0  0  0
 40 58  1  0  0  0
 41109  1  0  0  0
 41110  1  0  0  0
 41111  1  0  0  0
 41 48  1  0  0  0
 42 43  1  0  0  0
 42 66  1  0  0  0
 42112  1  0  0  0
 42113  1  0  0  0
 43 44  1  0  0  0
 44114  1  0  0  0
 45 46  2  0  0  0
 45115  1  0  0  0
 46116  1  0  0  0
 47117  1  0  0  0
 47118  1  0  0  0
 48 56  1  0  0  0
 48 65  1  0  0  0
 48119  1  0  0  0
 49 50  1  0  0  0
 49 53  1  0  0  0
 49 64  1  0  0  0
 49120  1  0  0  0
 50 51  1  0  0  0
 50121  1  0  0  0
 50122  1  0  0  0
 51 52  1  0  0  0
 51123  1  0  0  0
 51124  1  0  0  0
 52125  1  0  0  0
 52126  1  0  0  0
 53 54  1  0  0  0
 54 55  2  0  0  0
 54127  1  0  0  0
 55 57  1  0  0  0
 55128  1  0  0  0
 56 69  2  0  0  0
 57 58  2  0  0  0
 57129  1  0  0  0
 58130  1  0  0  0
 59 60  1  0  0  0
 59 61  1  0  0  0
 59 62  1  0  0  0
 60131  1  0  0  0
 60132  1  0  0  0
 60133  1  0  0  0
 61134  1  0  0  0
 61135  1  0  0  0
 61136  1  0  0  0
 62137  1  0  0  0
 62138  1  0  0  0
 62139  1  0  0  0
 63 65  1  0  0  0
 63140  1  0  0  0
 63141  1  0  0  0
 63142  1  0  0  0
 64143  1  0  0  0
 65144  1  0  0  0
 68 79  1  0  0  0
 71 72  2  0  0  0
 71 73  1  0  0  0
 71145  1  0  0  0
 72 74  1  0  0  0
 72146  1  0  0  0
 73 75  2  0  0  0
 73147  1  0  0  0
 74 76  2  0  0  0
 74 82  1  0  0  0
 75 76  1  0  0  0
 75 83  1  0  0  0
 76 85  1  0  0  0
 77 79  2  0  0  0
 77 80  1  0  0  0
 77 81  1  0  0  0
 78 80  1  0  0  0
 78 82  1  0  0  0
 78 84  2  0  0  0
 79148  1  0  0  0
 80149  1  0  0  0
 80150  1  0  0  0
 81 82  1  0  0  0
 81151  1  0  0  0
 81152  1  0  0  0
 83153  1  0  0  0
M  ISO  4   1 100  68 101  79 101  83 100
M  END
> <chiral flag>
0

> <version>
0

> <s_m_source_file>
/data/baiqing/PycharmProjects/Reinvent-master-3.2/result/LINK_invent/BTK/process_docking_weight1_custom_product_contain_oxygen_bond_distance_aromatic_linkinvent_7_9_3/rearranged_h_0090.sdf

> <i_m_source_file_index>
37

> <r_mmod_Potential_Energy-OPLS-2005>
484.912475585938

> <r_mmod_Stretch_Energy-OPLS-2005>
171.097900390625

> <r_mmod_Bend_Energy-OPLS-2005>
332.185455322266

> <r_mmod_Torsional_Energy-OPLS-2005>
319.138671875

> <r_mmod_Improper_Torsional_Energy-OPLS-2005>
10.9210042953491

> <r_mmod_Van_der_Waal_Energy-OPLS-2005>
123.921882629395

> <r_mmod_Electrostatic_Energy-OPLS-2005>
-405.894714355469

> <r_mmod_Solvation_Energy-OPLS-2005>
-209.209808349609

> <b_mmod_Minimization_Converged-OPLS-2005>
0

> <r_mmod_RMS_Derivative-OPLS-2005>
0.487665414810181

$$$$
37
                    3D
 Structure written by MMmdl.
152159  0  0  1  0            999 V2000
  -30.6286  -14.5693   20.5775 C   0  0  0  0  0  0
  -30.4438  -12.3610   19.4400 C   0  0  0  0  0  0
  -29.5050  -12.5017   18.2204 C   0  0  0  0  0  0
  -28.0247  -12.3525   18.6295 C   0  0  0  0  0  0
  -27.6616  -13.2004   19.8767 C   0  0  2  0  0  0
  -28.7063  -12.9927   20.9970 C   0  0  0  0  0  0
  -25.2609  -13.8127   20.5709 C   0  0  0  0  0  0
  -24.1847  -13.0424   20.9198 C   0  0  0  0  0  0
  -24.6383  -11.6882   20.8738 C   0  0  0  0  0  0
  -23.9048  -10.4285   21.0393 C   0  0  0  0  0  0
  -24.3613   -9.4205   21.9175 C   0  0  0  0  0  0
  -23.6293   -8.2240   22.0742 C   0  0  0  0  0  0
  -22.4276   -8.0281   21.3533 C   0  0  0  0  0  0
  -21.9910   -9.0243   20.4626 C   0  0  0  0  0  0
  -22.7221  -10.2125   20.3039 C   0  0  0  0  0  0
  -21.6850   -6.0760   22.5282 C   0  0  0  0  0  0
  -21.4017   -6.5664   23.8219 C   0  0  0  0  0  0
  -21.3650   -5.6803   24.9172 C   0  0  0  0  0  0
  -21.6036   -4.3065   24.7204 C   0  0  0  0  0  0
  -21.8826   -3.8170   23.4322 C   0  0  0  0  0  0
  -21.9188   -4.6994   22.3389 C   0  0  0  0  0  0
  -22.7866  -13.5218   21.1859 C   0  0  0  0  0  0
  -22.1654   -4.2197   21.0958 F   0  0  0  0  0  0
  -21.5614   -3.4538   25.7705 F   0  0  0  0  0  0
  -30.0222  -13.3495   20.4489 N   0  0  0  0  0  0
  -26.3027  -12.9279   20.3384 N   0  0  0  0  0  0
  -25.9309  -11.6446   20.5766 N   0  0  0  0  0  0
  -22.0497  -12.8200   22.0398 N   0  0  0  0  0  0
  -25.4354  -15.1845   20.4104 N   0  0  0  0  0  0
  -31.7481  -14.7746   20.0972 O   0  0  0  0  0  0
  -21.6630   -6.8894   21.4241 O   0  0  0  0  0  0
  -22.3560  -14.5532   20.6707 O   0  0  0  0  0  0
  -24.6204  -31.8617   23.2044 C   0  0  0  0  0  0
  -25.9073  -32.4786   23.8359 C   0  0  1  0  0  0
  -27.2393  -27.3758   20.1010 C   0  0  0  0  0  0
  -25.5915  -33.8590   24.2294 N   0  0  0  0  0  0
  -23.4109  -30.4841   21.5442 C   0  0  2  0  0  0
  -24.8572  -28.9372   20.1134 C   0  0  0  0  0  0
  -22.7435  -29.4637   22.4948 C   0  0  0  0  0  0
  -18.0270  -28.1380   22.8474 C   0  0  0  0  0  0
  -24.1483  -36.7310   23.2638 C   0  0  0  0  0  0
  -25.9440  -30.8083   21.3643 C   0  0  0  0  0  0
  -26.0191  -29.4365   20.7130 C   0  0  0  0  0  0
  -27.2087  -28.6638   20.7034 C   0  0  0  0  0  0
  -26.0560  -26.9064   19.4869 C   0  0  0  0  0  0
  -24.8727  -27.6727   19.4992 C   0  0  0  0  0  0
  -23.6231  -29.8129   20.1607 C   0  0  0  0  0  0
  -25.4104  -36.3092   24.0334 C   0  0  1  0  0  0
  -20.5865  -28.3680   23.1295 C   0  0  2  0  0  0
  -20.6764  -26.9410   22.5416 C   0  0  0  0  0  0
  -19.5749  -26.6387   21.5206 C   0  0  0  0  0  0
  -18.1922  -26.7926   22.1613 C   0  0  0  0  0  0
  -19.1523  -28.8841   23.2880 C   0  0  0  0  0  0
  -18.9458  -30.1445   23.8895 C   0  0  0  0  0  0
  -17.6462  -30.6581   24.0568 C   0  0  0  0  0  0
  -25.9039  -34.9459   23.5111 C   0  0  0  0  0  0
  -16.5347  -29.9090   23.6327 C   0  0  0  0  0  0
  -16.7263  -28.6513   23.0331 C   0  0  0  0  0  0
  -26.4485  -31.6577   25.0703 C   0  0  0  0  0  0
  -25.3768  -31.3700   26.1469 C   0  0  0  0  0  0
  -27.0315  -30.3011   24.6107 C   0  0  0  0  0  0
  -27.6035  -32.4309   25.7484 C   0  0  0  0  0  0
  -27.5573  -37.1808   24.8462 C   0  0  0  0  0  0
  -21.4146  -29.3050   22.3705 N   0  0  0  0  0  0
  -26.4280  -37.3788   23.9414 N   0  0  0  0  0  0
  -24.6767  -31.0676   22.0960 N   0  0  0  0  0  0
  -23.4177  -28.8173   23.3010 O   0  0  0  0  0  0
  -28.4078  -26.6201   20.1313 O   0  0  0  0  0  0
  -26.5601  -34.8924   22.4676 O   0  0  0  0  0  0
  -23.5385  -32.1393   23.7413 O   0  0  0  0  0  0
  -28.8015  -24.3215   20.8018 C   0  0  0  0  0  0
  -28.4127  -25.2464   19.8830 C   0  0  0  0  0  0
  -28.9102  -22.8655   20.5619 C   0  0  0  0  0  0
  -28.9825  -20.7698   22.0934 C   0  0  0  0  0  0
  -29.7013  -18.3531   21.7407 C   0  0  0  0  0  0
  -28.6335  -20.5341   23.5446 C   0  0  0  0  0  0
  -29.8767  -15.7631   21.2637 C   0  0  0  0  0  0
  -30.0982  -17.2401   20.7213 C   0  0  0  0  0  0
  -29.4112  -19.7292   21.2806 N   0  0  0  0  0  0
  -28.8124  -22.0997   21.7809 N   0  3  0  0  0  0
  -29.1011  -22.2930   19.4839 O   0  0  0  0  0  0
  -29.6545  -18.0616   22.9386 O   0  0  0  0  0  0
  -31.4819  -12.4981   19.1325 H   0  0  0  0  0  0
  -30.3900  -11.3539   19.8559 H   0  0  0  0  0  0
  -29.7572  -11.7564   17.4650 H   0  0  0  0  0  0
  -29.6593  -13.4753   17.7534 H   0  0  0  0  0  0
  -27.8424  -11.2968   18.8349 H   0  0  0  0  0  0
  -27.3733  -12.6141   17.7939 H   0  0  0  0  0  0
  -27.6996  -14.2440   19.5649 H   0  0  0  0  0  0
  -28.7159  -11.9491   21.3137 H   0  0  0  0  0  0
  -28.4579  -13.5575   21.8952 H   0  0  0  0  0  0
  -25.2753   -9.5683   22.4759 H   0  0  0  0  0  0
  -24.0010   -7.4626   22.7451 H   0  0  0  0  0  0
  -21.0850   -8.8718   19.8932 H   0  0  0  0  0  0
  -22.3653  -10.9656   19.6155 H   0  0  0  0  0  0
  -21.2028   -7.6178   23.9736 H   0  0  0  0  0  0
  -21.1458   -6.0528   25.9076 H   0  0  0  0  0  0
  -22.0621   -2.7641   23.2778 H   0  0  0  0  0  0
  -22.4093  -11.9834   22.4762 H   0  0  0  0  0  0
  -21.1119  -13.1219   22.2623 H   0  0  0  0  0  0
  -24.6686  -15.8394   20.5142 H   0  0  0  0  0  0
  -26.2845  -15.6181   20.0714 H   0  0  0  0  0  0
  -26.7135  -32.5455   23.1108 H   0  0  0  0  0  0
  -25.0098  -33.9746   25.0461 H   0  0  0  0  0  0
  -22.7032  -31.3036   21.4003 H   0  0  0  0  0  0
  -23.3735  -35.9651   23.3299 H   0  0  0  0  0  0
  -24.3589  -36.8931   22.2055 H   0  0  0  0  0  0
  -23.7247  -37.6524   23.6653 H   0  0  0  0  0  0
  -26.0639  -31.5683   20.5907 H   0  0  0  0  0  0
  -26.8310  -30.8634   21.9842 H   0  0  0  0  0  0
  -28.1046  -29.0472   21.1713 H   0  0  0  0  0  0
  -26.0311  -25.9409   19.0028 H   0  0  0  0  0  0
  -23.9796  -27.2792   19.0336 H   0  0  0  0  0  0
  -23.7440  -30.5880   19.4030 H   0  0  0  0  0  0
  -22.7434  -29.2426   19.8565 H   0  0  0  0  0  0
  -25.1280  -36.1948   25.0827 H   0  0  0  0  0  0
  -20.9953  -28.3250   24.1416 H   0  0  0  0  0  0
  -20.5657  -26.2294   23.3612 H   0  0  0  0  0  0
  -21.6634  -26.7444   22.1213 H   0  0  0  0  0  0
  -19.6916  -25.6305   21.1223 H   0  0  0  0  0  0
  -19.6679  -27.3204   20.6741 H   0  0  0  0  0  0
  -17.4196  -26.6661   21.4011 H   0  0  0  0  0  0
  -18.0320  -26.0065   22.9008 H   0  0  0  0  0  0
  -19.7938  -30.7255   24.2255 H   0  0  0  0  0  0
  -17.5025  -31.6254   24.5183 H   0  0  0  0  0  0
  -15.5356  -30.2998   23.7652 H   0  0  0  0  0  0
  -15.8661  -28.0851   22.7026 H   0  0  0  0  0  0
  -24.5932  -30.7036   25.7851 H   0  0  0  0  0  0
  -24.8974  -32.2859   26.4932 H   0  0  0  0  0  0
  -25.8157  -30.8888   27.0220 H   0  0  0  0  0  0
  -26.2861  -29.6771   24.1161 H   0  0  0  0  0  0
  -27.4077  -29.7249   25.4571 H   0  0  0  0  0  0
  -27.8699  -30.4322   23.9262 H   0  0  0  0  0  0
  -27.2622  -33.3590   26.2089 H   0  0  0  0  0  0
  -28.3847  -32.6907   25.0325 H   0  0  0  0  0  0
  -28.0702  -31.8422   26.5398 H   0  0  0  0  0  0
  -28.2584  -38.0109   24.7519 H   0  0  0  0  0  0
  -28.1068  -36.2646   24.6259 H   0  0  0  0  0  0
  -27.2301  -37.1438   25.8866 H   0  0  0  0  0  0
  -20.9307  -29.8819   21.6965 H   0  0  0  0  0  0
  -26.0156  -38.2857   24.1431 H   0  0  0  0  0  0
  -29.0750  -24.6897   21.7789 H   0  0  0  0  0  0
  -28.1144  -25.0025   18.8719 H   0  0  0  0  0  0
  -27.9006  -19.7329   23.6436 H   0  0  0  0  0  0
  -28.1858  -21.4157   24.0069 H   0  0  0  0  0  0
  -29.5247  -20.2900   24.1235 H   0  0  0  0  0  0
  -28.8032  -15.5935   21.2516 H   0  0  0  0  0  0
  -30.1724  -15.7025   22.3120 H   0  0  0  0  0  0
  -31.1507  -17.3880   20.4829 H   0  0  0  0  0  0
  -29.5406  -17.3897   19.7969 H   0  0  0  0  0  0
  -29.5128  -19.9722   20.3071 H   0  0  0  0  0  0
  -28.5876  -22.6142   22.6175 H   0  0  0  0  0  0
  1 25  1  0  0  0
  1 30  2  0  0  0
  1 77  1  0  0  0
  2  3  1  0  0  0
  2 25  1  0  0  0
  2 83  1  0  0  0
  2 84  1  0  0  0
  3  4  1  0  0  0
  3 85  1  0  0  0
  3 86  1  0  0  0
  4  5  1  0  0  0
  4 87  1  0  0  0
  4 88  1  0  0  0
  5  6  1  0  0  0
  5 26  1  0  0  0
  5 89  1  0  0  0
  6 25  1  0  0  0
  6 90  1  0  0  0
  6 91  1  0  0  0
  7  8  2  0  0  0
  7 26  1  0  0  0
  7 29  1  0  0  0
  8  9  1  0  0  0
  8 22  1  0  0  0
  9 10  1  0  0  0
  9 27  2  0  0  0
 10 11  2  0  0  0
 10 15  1  0  0  0
 11 12  1  0  0  0
 11 92  1  0  0  0
 12 13  2  0  0  0
 12 93  1  0  0  0
 13 14  1  0  0  0
 13 31  1  0  0  0
 14 15  2  0  0  0
 14 94  1  0  0  0
 15 95  1  0  0  0
 16 17  2  0  0  0
 16 21  1  0  0  0
 16 31  1  0  0  0
 17 18  1  0  0  0
 17 96  1  0  0  0
 18 19  2  0  0  0
 18 97  1  0  0  0
 19 20  1  0  0  0
 19 24  1  0  0  0
 20 21  2  0  0  0
 20 98  1  0  0  0
 21 23  1  0  0  0
 22 28  1  0  0  0
 22 32  2  0  0  0
 26 27  1  0  0  0
 28 99  1  0  0  0
 28100  1  0  0  0
 29101  1  0  0  0
 29102  1  0  0  0
 33 34  1  0  0  0
 33 66  1  0  0  0
 33 70  2  0  0  0
 34 36  1  0  0  0
 34 59  1  0  0  0
 34103  1  0  0  0
 35 44  2  0  0  0
 35 45  1  0  0  0
 35 68  1  0  0  0
 36 56  1  0  0  0
 36104  1  0  0  0
 37 39  1  0  0  0
 37 47  1  0  0  0
 37 66  1  0  0  0
 37105  1  0  0  0
 38 43  2  0  0  0
 38 46  1  0  0  0
 38 47  1  0  0  0
 39 64  1  0  0  0
 39 67  2  0  0  0
 40 52  1  0  0  0
 40 53  2  0  0  0
 40 58  1  0  0  0
 41106  1  0  0  0
 41107  1  0  0  0
 41108  1  0  0  0
 41 48  1  0  0  0
 42 43  1  0  0  0
 42 66  1  0  0  0
 42109  1  0  0  0
 42110  1  0  0  0
 43 44  1  0  0  0
 44111  1  0  0  0
 45 46  2  0  0  0
 45112  1  0  0  0
 46113  1  0  0  0
 47114  1  0  0  0
 47115  1  0  0  0
 48 56  1  0  0  0
 48 65  1  0  0  0
 48116  1  0  0  0
 49 50  1  0  0  0
 49 53  1  0  0  0
 49 64  1  0  0  0
 49117  1  0  0  0
 50 51  1  0  0  0
 50118  1  0  0  0
 50119  1  0  0  0
 51 52  1  0  0  0
 51120  1  0  0  0
 51121  1  0  0  0
 52122  1  0  0  0
 52123  1  0  0  0
 53 54  1  0  0  0
 54 55  2  0  0  0
 54124  1  0  0  0
 55 57  1  0  0  0
 55125  1  0  0  0
 56 69  2  0  0  0
 57 58  2  0  0  0
 57126  1  0  0  0
 58127  1  0  0  0
 59 60  1  0  0  0
 59 61  1  0  0  0
 59 62  1  0  0  0
 60128  1  0  0  0
 60129  1  0  0  0
 60130  1  0  0  0
 61131  1  0  0  0
 61132  1  0  0  0
 61133  1  0  0  0
 62134  1  0  0  0
 62135  1  0  0  0
 62136  1  0  0  0
 63 65  1  0  0  0
 63137  1  0  0  0
 63138  1  0  0  0
 63139  1  0  0  0
 64140  1  0  0  0
 65141  1  0  0  0
 68 72  1  0  0  0
 71 72  2  0  0  0
 71 73  1  0  0  0
 71142  1  0  0  0
 72143  1  0  0  0
 73 80  1  0  0  0
 73 81  2  0  0  0
 74 76  1  0  0  0
 74 79  1  0  0  0
 74 80  2  0  0  0
 75 78  1  0  0  0
 75 79  1  0  0  0
 75 82  2  0  0  0
 76144  1  0  0  0
 76145  1  0  0  0
 76146  1  0  0  0
 77 78  1  0  0  0
 77147  1  0  0  0
 77148  1  0  0  0
 78149  1  0  0  0
 78150  1  0  0  0
 79151  1  0  0  0
 80152  1  0  0  0
M  CHG  1  80   1
M  ISO  4   1 100  68 101  72 101  77 100
M  END
> <chiral flag>
0

> <version>
0

> <s_m_source_file>
/data/baiqing/PycharmProjects/Reinvent-master-3.2/result/LINK_invent/BTK/process_docking_weight1_custom_product_contain_oxygen_bond_distance_aromatic_linkinvent_7_9_3/rearranged_h_0090.sdf

> <i_m_source_file_index>
38

> <r_mmod_Potential_Energy-OPLS-2005>
-261.162017822266

> <r_mmod_Stretch_Energy-OPLS-2005>
61.3360328674316

> <r_mmod_Bend_Energy-OPLS-2005>
159.127258300781

> <r_mmod_Torsional_Energy-OPLS-2005>
176.678558349609

> <r_mmod_Improper_Torsional_Energy-OPLS-2005>
2.74091029167175

> <r_mmod_Van_der_Waal_Energy-OPLS-2005>
141.355224609375

> <r_mmod_Electrostatic_Energy-OPLS-2005>
-357.194122314453

> <r_mmod_Solvation_Energy-OPLS-2005>
-471.097137451172

> <b_mmod_Minimization_Converged-OPLS-2005>
0

> <r_mmod_RMS_Derivative-OPLS-2005>
1.956547498703

$$$$
38
                    3D
 Structure written by MMmdl.
163172  0  0  1  0            999 V2000
  -30.6562  -14.6649   20.6181 C   0  0  0  0  0  0
  -30.4322  -12.4399   19.4771 C   0  0  0  0  0  0
  -29.5179  -12.5299   18.2349 C   0  0  0  0  0  0
  -28.0418  -12.3405   18.6343 C   0  0  0  0  0  0
  -27.6435  -13.2214   19.8428 C   0  0  2  0  0  0
  -28.6683  -13.1016   20.9825 C   0  0  0  0  0  0
  -25.2521  -13.8180   20.5676 C   0  0  0  0  0  0
  -24.1787  -13.0449   20.9193 C   0  0  0  0  0  0
  -24.6372  -11.6915   20.8734 C   0  0  0  0  0  0
  -23.9058  -10.4287   21.0414 C   0  0  0  0  0  0
  -24.3620   -9.4198   21.9183 C   0  0  0  0  0  0
  -23.6299   -8.2229   22.0757 C   0  0  0  0  0  0
  -22.4280   -8.0270   21.3548 C   0  0  0  0  0  0
  -21.9906   -9.0247   20.4660 C   0  0  0  0  0  0
  -22.7233  -10.2119   20.3069 C   0  0  0  0  0  0
  -21.6866   -6.0722   22.5266 C   0  0  0  0  0  0
  -21.4016   -6.5625   23.8201 C   0  0  0  0  0  0
  -21.3661   -5.6773   24.9151 C   0  0  0  0  0  0
  -21.6064   -4.3032   24.7204 C   0  0  0  0  0  0
  -21.8828   -3.8130   23.4324 C   0  0  0  0  0  0
  -21.9193   -4.6952   22.3381 C   0  0  0  0  0  0
  -22.7815  -13.5239   21.1868 C   0  0  0  0  0  0
  -22.1670   -4.2142   21.0955 F   0  0  0  0  0  0
  -21.5640   -3.4515   25.7717 F   0  0  0  0  0  0
  -29.9973  -13.4624   20.4612 N   0  0  0  0  0  0
  -26.2913  -12.9360   20.3165 N   0  0  0  0  0  0
  -25.9278  -11.6516   20.5662 N   0  0  0  0  0  0
  -22.0458  -12.8235   22.0431 N   0  0  0  0  0  0
  -25.4263  -15.1899   20.4164 N   0  0  0  0  0  0
  -31.7507  -14.8399   20.0706 O   0  0  0  0  0  0
  -21.6648   -6.8862   21.4230 O   0  0  0  0  0  0
  -22.3492  -14.5547   20.6716 O   0  0  0  0  0  0
  -24.6319  -31.8575   23.2013 C   0  0  0  0  0  0
  -25.9140  -32.4769   23.8361 C   0  0  1  0  0  0
  -27.2129  -27.2821   20.1374 C   0  0  0  0  0  0
  -25.5940  -33.8571   24.2296 N   0  0  0  0  0  0
  -23.4292  -30.4801   21.5436 C   0  0  2  0  0  0
  -24.8747  -28.9310   20.1076 C   0  0  0  0  0  0
  -22.7523  -29.4624   22.4921 C   0  0  0  0  0  0
  -18.0319  -28.1410   22.8492 C   0  0  0  0  0  0
  -24.1484  -36.7305   23.2634 C   0  0  0  0  0  0
  -25.9728  -30.7735   21.3782 C   0  0  0  0  0  0
  -26.0448  -29.3974   20.7242 C   0  0  0  0  0  0
  -27.2199  -28.5843   20.7311 C   0  0  0  0  0  0
  -26.0342  -26.8906   19.4658 C   0  0  0  0  0  0
  -24.8748  -27.6849   19.4639 C   0  0  0  0  0  0
  -23.6459  -29.8161   20.1584 C   0  0  0  0  0  0
  -25.4114  -36.3094   24.0330 C   0  0  1  0  0  0
  -20.5923  -28.3739   23.1255 C   0  0  2  0  0  0
  -20.6796  -26.9455   22.5408 C   0  0  0  0  0  0
  -19.5763  -26.6406   21.5221 C   0  0  0  0  0  0
  -18.1951  -26.7951   22.1637 C   0  0  0  0  0  0
  -19.1567  -28.8887   23.2863 C   0  0  0  0  0  0
  -18.9478  -30.1484   23.8886 C   0  0  0  0  0  0
  -17.6472  -30.6592   24.0578 C   0  0  0  0  0  0
  -25.9058  -34.9454   23.5118 C   0  0  0  0  0  0
  -16.5371  -29.9094   23.6331 C   0  0  0  0  0  0
  -16.7298  -28.6519   23.0337 C   0  0  0  0  0  0
  -26.4493  -31.6571   25.0747 C   0  0  0  0  0  0
  -25.3731  -31.3691   26.1476 C   0  0  0  0  0  0
  -27.0320  -30.2992   24.6207 C   0  0  0  0  0  0
  -27.6064  -32.4306   25.7490 C   0  0  0  0  0  0
  -27.5586  -37.1809   24.8471 C   0  0  0  0  0  0
  -21.4230  -29.3075   22.3646 N   0  0  0  0  0  0
  -26.4296  -37.3795   23.9420 N   0  0  0  0  0  0
  -24.6978  -31.0553   22.0971 N   0  0  0  0  0  0
  -23.4232  -28.8165   23.3010 O   0  0  0  0  0  0
  -28.2729  -26.3586   20.1986 O   0  0  0  0  0  0
  -26.5629  -34.8915   22.4698 O   0  0  0  0  0  0
  -23.5476  -32.1366   23.7329 O   0  0  0  0  0  0
  -28.5721  -19.0186   20.1696 C   0  0  0  0  0  0
  -28.8065  -17.6148   20.3558 C   0  0  0  0  0  0
  -30.6469  -19.4979   21.2613 C   0  0  0  0  0  0
  -29.7760  -23.5261   19.5370 C   0  0  0  0  0  0
  -30.9052  -18.0998   21.4510 C   0  0  0  0  0  0
  -28.6896  -23.7004   20.4443 C   0  0  0  0  0  0
  -29.4887  -20.0068   20.6231 C   0  0  0  0  0  0
  -29.9684  -17.1039   21.0094 C   0  0  0  0  0  0
  -28.4456  -22.4069   20.9357 C   0  0  0  0  0  0
  -30.1270  -22.1997   19.5138 C   0  0  0  0  0  0
  -32.8073  -18.4577   23.0555 C   0  0  0  0  0  0
  -32.1377  -17.7056   22.1649 C   0  0  0  0  0  0
  -27.4033  -21.9610   21.9153 C   0  0  0  0  0  0
  -30.1263  -15.4347   22.8380 C   0  0  0  0  0  0
  -27.9192  -25.0347   20.7967 C   0  0  0  0  0  0
  -29.3393  -21.4526   20.3802 N   0  0  0  0  0  0
  -30.0780  -15.6699   21.3811 N   0  0  0  0  0  0
  -31.0972  -21.5993   18.7735 O   0  0  0  0  0  0
  -31.4755  -12.5666   19.1846 H   0  0  0  0  0  0
  -30.3724  -11.4469   19.9246 H   0  0  0  0  0  0
  -29.8057  -11.7796   17.4966 H   0  0  0  0  0  0
  -29.6470  -13.5002   17.7517 H   0  0  0  0  0  0
  -27.9002  -11.2895   18.8842 H   0  0  0  0  0  0
  -27.3931  -12.5450   17.7820 H   0  0  0  0  0  0
  -27.6570  -14.2522   19.4916 H   0  0  0  0  0  0
  -28.6894  -12.0871   21.3847 H   0  0  0  0  0  0
  -28.3256  -13.7417   21.7892 H   0  0  0  0  0  0
  -25.2766   -9.5672   22.4748 H   0  0  0  0  0  0
  -24.0024   -7.4608   22.7457 H   0  0  0  0  0  0
  -21.0849   -8.8761   19.8955 H   0  0  0  0  0  0
  -22.3713  -10.9655   19.6168 H   0  0  0  0  0  0
  -21.2024   -7.6128   23.9717 H   0  0  0  0  0  0
  -21.1486   -6.0477   25.9059 H   0  0  0  0  0  0
  -22.0618   -2.7594   23.2813 H   0  0  0  0  0  0
  -22.4070  -11.9899   22.4823 H   0  0  0  0  0  0
  -21.1096  -13.1276   22.2681 H   0  0  0  0  0  0
  -24.6672  -15.8514   20.5374 H   0  0  0  0  0  0
  -26.2911  -15.6201   20.1192 H   0  0  0  0  0  0
  -26.7231  -32.5405   23.1119 H   0  0  0  0  0  0
  -25.0088  -33.9705   25.0441 H   0  0  0  0  0  0
  -22.7272  -31.3036   21.3992 H   0  0  0  0  0  0
  -23.3748  -35.9639   23.3304 H   0  0  0  0  0  0
  -24.3577  -36.8926   22.2053 H   0  0  0  0  0  0
  -23.7224  -37.6506   23.6644 H   0  0  0  0  0  0
  -26.1136  -31.5280   20.6029 H   0  0  0  0  0  0
  -26.8528  -30.8235   22.0086 H   0  0  0  0  0  0
  -28.1123  -28.9295   21.2344 H   0  0  0  0  0  0
  -25.9957  -25.9369   18.9557 H   0  0  0  0  0  0
  -23.9847  -27.3268   18.9647 H   0  0  0  0  0  0
  -23.7729  -30.5916   19.4044 H   0  0  0  0  0  0
  -22.7621  -29.2518   19.8530 H   0  0  0  0  0  0
  -25.1277  -36.1966   25.0820 H   0  0  0  0  0  0
  -21.0021  -28.3325   24.1368 H   0  0  0  0  0  0
  -20.5732  -26.2348   23.3623 H   0  0  0  0  0  0
  -21.6653  -26.7481   22.1172 H   0  0  0  0  0  0
  -19.6920  -25.6311   21.1252 H   0  0  0  0  0  0
  -19.6676  -27.3216   20.6751 H   0  0  0  0  0  0
  -17.4217  -26.6718   21.4044 H   0  0  0  0  0  0
  -18.0335  -26.0092   22.9033 H   0  0  0  0  0  0
  -19.7946  -30.7324   24.2231 H   0  0  0  0  0  0
  -17.5013  -31.6256   24.5221 H   0  0  0  0  0  0
  -15.5362  -30.2991   23.7637 H   0  0  0  0  0  0
  -15.8704  -28.0837   22.7027 H   0  0  0  0  0  0
  -24.5923  -30.7015   25.7813 H   0  0  0  0  0  0
  -24.8876  -32.2827   26.4914 H   0  0  0  0  0  0
  -25.8051  -30.8870   27.0261 H   0  0  0  0  0  0
  -26.2876  -29.6769   24.1226 H   0  0  0  0  0  0
  -27.4002  -29.7220   25.4701 H   0  0  0  0  0  0
  -27.8766  -30.4284   23.9439 H   0  0  0  0  0  0
  -27.2696  -33.3628   26.2043 H   0  0  0  0  0  0
  -28.3844  -32.6850   25.0274 H   0  0  0  0  0  0
  -28.0770  -31.8458   26.5401 H   0  0  0  0  0  0
  -28.2603  -38.0103   24.7518 H   0  0  0  0  0  0
  -28.1058  -36.2635   24.6272 H   0  0  0  0  0  0
  -27.2298  -37.1447   25.8868 H   0  0  0  0  0  0
  -20.9442  -29.8786   21.6824 H   0  0  0  0  0  0
  -26.0179  -38.2877   24.1404 H   0  0  0  0  0  0
  -27.6698  -19.3420   19.6681 H   0  0  0  0  0  0
  -28.0504  -16.9209   20.0205 H   0  0  0  0  0  0
  -31.3720  -20.2214   21.6034 H   0  0  0  0  0  0
  -30.2509  -24.3039   18.9530 H   0  0  0  0  0  0
  -33.7093  -18.0833   23.5166 H   0  0  0  0  0  0
  -32.4730  -19.4440   23.3468 H   0  0  0  0  0  0
  -32.5409  -16.7316   21.9234 H   0  0  0  0  0  0
  -26.6159  -21.3959   21.4138 H   0  0  0  0  0  0
  -26.9341  -22.8088   22.4152 H   0  0  0  0  0  0
  -27.8307  -21.3207   22.6887 H   0  0  0  0  0  0
  -31.1565  -15.3935   23.1910 H   0  0  0  0  0  0
  -29.6638  -14.5061   23.1633 H   0  0  0  0  0  0
  -29.6242  -16.2367   23.3816 H   0  0  0  0  0  0
  -27.9929  -25.1594   21.8772 H   0  0  0  0  0  0
  -26.8694  -24.7986   20.6281 H   0  0  0  0  0  0
  -31.0413  -20.6636   18.9382 H   0  0  0  0  0  0
  1 25  1  0  0  0
  1 30  2  0  0  0
  1 87  1  0  0  0
  2  3  1  0  0  0
  2 25  1  0  0  0
  2 89  1  0  0  0
  2 90  1  0  0  0
  3  4  1  0  0  0
  3 91  1  0  0  0
  3 92  1  0  0  0
  4  5  1  0  0  0
  4 93  1  0  0  0
  4 94  1  0  0  0
  5  6  1  0  0  0
  5 26  1  0  0  0
  5 95  1  0  0  0
  6 25  1  0  0  0
  6 96  1  0  0  0
  6 97  1  0  0  0
  7  8  2  0  0  0
  7 26  1  0  0  0
  7 29  1  0  0  0
  8  9  1  0  0  0
  8 22  1  0  0  0
  9 10  1  0  0  0
  9 27  2  0  0  0
 10 11  2  0  0  0
 10 15  1  0  0  0
 11 12  1  0  0  0
 11 98  1  0  0  0
 12 13  2  0  0  0
 12 99  1  0  0  0
 13 14  1  0  0  0
 13 31  1  0  0  0
 14 15  2  0  0  0
 14100  1  0  0  0
 15101  1  0  0  0
 16 17  2  0  0  0
 16 21  1  0  0  0
 16 31  1  0  0  0
 17 18  1  0  0  0
 17102  1  0  0  0
 18 19  2  0  0  0
 18103  1  0  0  0
 19 20  1  0  0  0
 19 24  1  0  0  0
 20 21  2  0  0  0
 20104  1  0  0  0
 21 23  1  0  0  0
 22 28  1  0  0  0
 22 32  2  0  0  0
 26 27  1  0  0  0
 28105  1  0  0  0
 28106  1  0  0  0
 29107  1  0  0  0
 29108  1  0  0  0
 33 34  1  0  0  0
 33 66  1  0  0  0
 33 70  2  0  0  0
 34 36  1  0  0  0
 34 59  1  0  0  0
 34109  1  0  0  0
 35 44  2  0  0  0
 35 45  1  0  0  0
 35 68  1  0  0  0
 36 56  1  0  0  0
 36110  1  0  0  0
 37 39  1  0  0  0
 37 47  1  0  0  0
 37 66  1  0  0  0
 37111  1  0  0  0
 38 43  2  0  0  0
 38 46  1  0  0  0
 38 47  1  0  0  0
 39 64  1  0  0  0
 39 67  2  0  0  0
 40 52  1  0  0  0
 40 53  2  0  0  0
 40 58  1  0  0  0
 41112  1  0  0  0
 41113  1  0  0  0
 41114  1  0  0  0
 41 48  1  0  0  0
 42 43  1  0  0  0
 42 66  1  0  0  0
 42115  1  0  0  0
 42116  1  0  0  0
 43 44  1  0  0  0
 44117  1  0  0  0
 45 46  2  0  0  0
 45118  1  0  0  0
 46119  1  0  0  0
 47120  1  0  0  0
 47121  1  0  0  0
 48 56  1  0  0  0
 48 65  1  0  0  0
 48122  1  0  0  0
 49 50  1  0  0  0
 49 53  1  0  0  0
 49 64  1  0  0  0
 49123  1  0  0  0
 50 51  1  0  0  0
 50124  1  0  0  0
 50125  1  0  0  0
 51 52  1  0  0  0
 51126  1  0  0  0
 51127  1  0  0  0
 52128  1  0  0  0
 52129  1  0  0  0
 53 54  1  0  0  0
 54 55  2  0  0  0
 54130  1  0  0  0
 55 57  1  0  0  0
 55131  1  0  0  0
 56 69  2  0  0  0
 57 58  2  0  0  0
 57132  1  0  0  0
 58133  1  0  0  0
 59 60  1  0  0  0
 59 61  1  0  0  0
 59 62  1  0  0  0
 60134  1  0  0  0
 60135  1  0  0  0
 60136  1  0  0  0
 61137  1  0  0  0
 61138  1  0  0  0
 61139  1  0  0  0
 62140  1  0  0  0
 62141  1  0  0  0
 62142  1  0  0  0
 63 65  1  0  0  0
 63143  1  0  0  0
 63144  1  0  0  0
 63145  1  0  0  0
 64146  1  0  0  0
 65147  1  0  0  0
 68 85  1  0  0  0
 71 72  2  0  0  0
 71 77  1  0  0  0
 71148  1  0  0  0
 72 78  1  0  0  0
 72149  1  0  0  0
 73 75  1  0  0  0
 73 77  2  0  0  0
 73150  1  0  0  0
 74 76  1  0  0  0
 74 80  2  0  0  0
 74151  1  0  0  0
 75 78  2  0  0  0
 75 82  1  0  0  0
 76 79  2  0  0  0
 76 85  1  0  0  0
 77 86  1  0  0  0
 78 87  1  0  0  0
 79 83  1  0  0  0
 79 86  1  0  0  0
 80 86  1  0  0  0
 80 88  1  0  0  0
 81 82  2  0  0  0
 81152  1  0  0  0
 81153  1  0  0  0
 82154  1  0  0  0
 83155  1  0  0  0
 83156  1  0  0  0
 83157  1  0  0  0
 84 87  1  0  0  0
 84158  1  0  0  0
 84159  1  0  0  0
 84160  1  0  0  0
 85161  1  0  0  0
 85162  1  0  0  0
 88163  1  0  0  0
M  ISO  4   1 100  68 101  85 101  87 100
M  END
> <chiral flag>
0

> <version>
0

> <s_m_source_file>
/data/baiqing/PycharmProjects/Reinvent-master-3.2/result/LINK_invent/BTK/process_docking_weight1_custom_product_contain_oxygen_bond_distance_aromatic_linkinvent_7_9_3/rearranged_h_0090.sdf

> <i_m_source_file_index>
39

> <r_mmod_Potential_Energy-OPLS-2005>
296.36572265625

> <r_mmod_Stretch_Energy-OPLS-2005>
100.055076599121

> <r_mmod_Bend_Energy-OPLS-2005>
144.995178222656

> <r_mmod_Torsional_Energy-OPLS-2005>
352.555694580078

> <r_mmod_Improper_Torsional_Energy-OPLS-2005>
4.88870859146118

> <r_mmod_Van_der_Waal_Energy-OPLS-2005>
140.222808837891

> <r_mmod_Electrostatic_Energy-OPLS-2005>
-308.788543701172

> <r_mmod_Solvation_Energy-OPLS-2005>
-205.097274780273

> <b_mmod_Minimization_Converged-OPLS-2005>
0

> <r_mmod_RMS_Derivative-OPLS-2005>
3.0107274055481

$$$$
39
                    3D
 Structure written by MMmdl.
159168  0  0  1  0            999 V2000
  -30.6435  -14.7396   20.5251 C   0  0  0  0  0  0
  -30.4293  -12.4678   19.4782 C   0  0  0  0  0  0
  -29.5113  -12.5257   18.2378 C   0  0  0  0  0  0
  -28.0377  -12.3437   18.6468 C   0  0  0  0  0  0
  -27.6430  -13.2356   19.8528 C   0  0  2  0  0  0
  -28.6818  -13.1570   20.9894 C   0  0  0  0  0  0
  -25.2513  -13.8210   20.5701 C   0  0  0  0  0  0
  -24.1802  -13.0448   20.9196 C   0  0  0  0  0  0
  -24.6395  -11.6926   20.8729 C   0  0  0  0  0  0
  -23.9073  -10.4298   21.0402 C   0  0  0  0  0  0
  -24.3623   -9.4213   21.9180 C   0  0  0  0  0  0
  -23.6300   -8.2248   22.0751 C   0  0  0  0  0  0
  -22.4278   -8.0285   21.3549 C   0  0  0  0  0  0
  -21.9914   -9.0258   20.4650 C   0  0  0  0  0  0
  -22.7243  -10.2135   20.3055 C   0  0  0  0  0  0
  -21.6856   -6.0736   22.5280 C   0  0  0  0  0  0
  -21.4016   -6.5638   23.8214 C   0  0  0  0  0  0
  -21.3661   -5.6790   24.9176 C   0  0  0  0  0  0
  -21.6045   -4.3052   24.7225 C   0  0  0  0  0  0
  -21.8819   -3.8146   23.4345 C   0  0  0  0  0  0
  -21.9195   -4.6963   22.3401 C   0  0  0  0  0  0
  -22.7824  -13.5227   21.1864 C   0  0  0  0  0  0
  -22.1664   -4.2149   21.0979 F   0  0  0  0  0  0
  -21.5627   -3.4536   25.7736 F   0  0  0  0  0  0
  -29.9892  -13.5243   20.4247 N   0  0  0  0  0  0
  -26.2939  -12.9422   20.3274 N   0  0  0  0  0  0
  -25.9325  -11.6558   20.5724 N   0  0  0  0  0  0
  -22.0471  -12.8217   22.0422 N   0  0  0  0  0  0
  -25.4220  -15.1936   20.4159 N   0  0  0  0  0  0
  -31.7859  -14.8451   20.0677 O   0  0  0  0  0  0
  -21.6645   -6.8881   21.4244 O   0  0  0  0  0  0
  -22.3507  -14.5532   20.6713 O   0  0  0  0  0  0
  -24.6335  -31.8546   23.1991 C   0  0  0  0  0  0
  -25.9153  -32.4750   23.8337 C   0  0  1  0  0  0
  -27.2121  -27.2395   20.1268 C   0  0  0  0  0  0
  -25.5944  -33.8554   24.2252 N   0  0  0  0  0  0
  -23.4312  -30.4793   21.5429 C   0  0  2  0  0  0
  -24.8778  -28.9307   20.1069 C   0  0  0  0  0  0
  -22.7517  -29.4601   22.4901 C   0  0  0  0  0  0
  -18.0295  -28.1390   22.8481 C   0  0  0  0  0  0
  -24.1490  -36.7280   23.2638 C   0  0  0  0  0  0
  -25.9807  -30.7589   21.3858 C   0  0  0  0  0  0
  -26.0512  -29.3814   20.7251 C   0  0  0  0  0  0
  -27.2196  -28.5476   20.7284 C   0  0  0  0  0  0
  -26.0190  -26.8807   19.4542 C   0  0  0  0  0  0
  -24.8687  -27.6890   19.4599 C   0  0  0  0  0  0
  -23.6504  -29.8193   20.1575 C   0  0  0  0  0  0
  -25.4117  -36.3066   24.0324 C   0  0  1  0  0  0
  -20.5902  -28.3703   23.1263 C   0  0  2  0  0  0
  -20.6783  -26.9418   22.5407 C   0  0  0  0  0  0
  -19.5757  -26.6383   21.5212 C   0  0  0  0  0  0
  -18.1938  -26.7930   22.1625 C   0  0  0  0  0  0
  -19.1549  -28.8864   23.2866 C   0  0  0  0  0  0
  -18.9469  -30.1463   23.8886 C   0  0  0  0  0  0
  -17.6466  -30.6589   24.0562 C   0  0  0  0  0  0
  -25.9063  -34.9438   23.5090 C   0  0  0  0  0  0
  -16.5357  -29.9084   23.6333 C   0  0  0  0  0  0
  -16.7280  -28.6504   23.0352 C   0  0  0  0  0  0
  -26.4507  -31.6583   25.0736 C   0  0  0  0  0  0
  -25.3717  -31.3744   26.1447 C   0  0  0  0  0  0
  -27.0359  -30.2993   24.6251 C   0  0  0  0  0  0
  -27.6054  -32.4330   25.7512 C   0  0  0  0  0  0
  -27.5582  -37.1792   24.8460 C   0  0  0  0  0  0
  -21.4222  -29.3048   22.3649 N   0  0  0  0  0  0
  -26.4287  -37.3771   23.9415 N   0  0  0  0  0  0
  -24.7009  -31.0494   22.0982 N   0  0  0  0  0  0
  -23.4209  -28.8134   23.3002 O   0  0  0  0  0  0
  -28.2782  -26.3005   20.2153 O   0  0  0  0  0  0
  -26.5636  -34.8915   22.4660 O   0  0  0  0  0  0
  -23.5478  -32.1381   23.7268 O   0  0  0  0  0  0
  -29.2051  -18.2937   18.2246 C   0  0  0  0  0  0
  -29.1330  -19.5622   18.8359 C   0  0  0  0  0  0
  -29.5049  -17.1279   18.9569 C   0  0  0  0  0  0
  -29.3638  -19.7481   20.2173 C   0  0  0  0  0  0
  -29.7534  -17.1714   20.3468 C   0  0  0  0  0  0
  -29.6822  -18.5106   20.9542 C   0  0  0  0  0  0
  -28.6804  -22.2915   20.1100 C   0  0  0  0  0  0
  -28.8213  -23.6205   20.4925 C   0  0  0  0  0  0
  -29.9196  -22.7766   22.5918 C   0  0  0  0  0  0
  -29.8049  -23.9481   21.6029 C   0  0  0  0  0  0
  -29.9383  -21.3319   22.0347 C   0  0  0  0  0  0
  -29.9513  -15.8761   22.5205 C   0  0  0  0  0  0
  -27.9847  -24.8473   19.9056 C   0  0  0  0  0  0
  -29.2840  -21.1287   20.7277 N   0  0  0  0  0  0
  -29.9995  -15.8640   21.0534 N   0  0  0  0  0  0
  -30.0204  -22.9897   23.8030 O   0  0  0  0  0  0
  -29.9216  -18.6097   22.2833 F   0  0  0  0  0  0
  -31.4713  -12.5845   19.1765 H   0  0  0  0  0  0
  -30.3711  -11.4870   19.9532 H   0  0  0  0  0  0
  -29.7984  -11.7569   17.5190 H   0  0  0  0  0  0
  -29.6370  -13.4832   17.7298 H   0  0  0  0  0  0
  -27.8954  -11.2933   18.9035 H   0  0  0  0  0  0
  -27.3813  -12.5410   17.7984 H   0  0  0  0  0  0
  -27.6430  -14.2623   19.4852 H   0  0  0  0  0  0
  -28.7175  -12.1531   21.4150 H   0  0  0  0  0  0
  -28.3840  -13.8177   21.8019 H   0  0  0  0  0  0
  -25.2770   -9.5688   22.4755 H   0  0  0  0  0  0
  -24.0011   -7.4637   22.7466 H   0  0  0  0  0  0
  -21.0846   -8.8777   19.8956 H   0  0  0  0  0  0
  -22.3704  -10.9672   19.6162 H   0  0  0  0  0  0
  -21.2009   -7.6146   23.9718 H   0  0  0  0  0  0
  -21.1484   -6.0519   25.9079 H   0  0  0  0  0  0
  -22.0597   -2.7608   23.2843 H   0  0  0  0  0  0
  -22.4091  -11.9884   22.4818 H   0  0  0  0  0  0
  -21.1086  -13.1241   22.2622 H   0  0  0  0  0  0
  -24.6591  -15.8504   20.5386 H   0  0  0  0  0  0
  -26.2835  -15.6359   20.1219 H   0  0  0  0  0  0
  -26.7219  -32.5392   23.1074 H   0  0  0  0  0  0
  -25.0079  -33.9690   25.0390 H   0  0  0  0  0  0
  -22.7282  -31.3025   21.3989 H   0  0  0  0  0  0
  -23.3759  -35.9605   23.3286 H   0  0  0  0  0  0
  -24.3582  -36.8919   22.2056 H   0  0  0  0  0  0
  -23.7233  -37.6472   23.6673 H   0  0  0  0  0  0
  -26.1266  -31.5195   20.6175 H   0  0  0  0  0  0
  -26.8557  -30.8043   22.0223 H   0  0  0  0  0  0
  -28.1113  -28.8820   21.2402 H   0  0  0  0  0  0
  -25.9302  -25.9444   18.9248 H   0  0  0  0  0  0
  -23.9747  -27.3434   18.9586 H   0  0  0  0  0  0
  -23.7773  -30.5985   19.4053 H   0  0  0  0  0  0
  -22.7677  -29.2563   19.8492 H   0  0  0  0  0  0
  -25.1297  -36.1910   25.0816 H   0  0  0  0  0  0
  -20.9994  -28.3282   24.1385 H   0  0  0  0  0  0
  -20.5686  -26.2312   23.3614 H   0  0  0  0  0  0
  -21.6650  -26.7442   22.1199 H   0  0  0  0  0  0
  -19.6920  -25.6291   21.1249 H   0  0  0  0  0  0
  -19.6696  -27.3189   20.6738 H   0  0  0  0  0  0
  -17.4208  -26.6675   21.4027 H   0  0  0  0  0  0
  -18.0340  -26.0075   22.9026 H   0  0  0  0  0  0
  -19.7944  -30.7283   24.2250 H   0  0  0  0  0  0
  -17.5020  -31.6268   24.5165 H   0  0  0  0  0  0
  -15.5355  -30.2982   23.7665 H   0  0  0  0  0  0
  -15.8681  -28.0820   22.7069 H   0  0  0  0  0  0
  -24.5900  -30.7086   25.7772 H   0  0  0  0  0  0
  -24.8899  -32.2917   26.4844 H   0  0  0  0  0  0
  -25.8023  -30.8940   27.0242 H   0  0  0  0  0  0
  -26.2955  -29.6737   24.1252 H   0  0  0  0  0  0
  -27.3995  -29.7264   25.4791 H   0  0  0  0  0  0
  -27.8854  -30.4253   23.9535 H   0  0  0  0  0  0
  -27.2659  -33.3638   26.2068 H   0  0  0  0  0  0
  -28.3877  -32.6879   25.0349 H   0  0  0  0  0  0
  -28.0711  -31.8471   26.5446 H   0  0  0  0  0  0
  -28.2579  -38.0110   24.7534 H   0  0  0  0  0  0
  -28.1097  -36.2641   24.6249 H   0  0  0  0  0  0
  -27.2306  -37.1396   25.8863 H   0  0  0  0  0  0
  -20.9409  -29.8775   21.6856 H   0  0  0  0  0  0
  -26.0162  -38.2841   24.1429 H   0  0  0  0  0  0
  -29.0213  -18.2140   17.1620 H   0  0  0  0  0  0
  -28.9121  -20.4082   18.2028 H   0  0  0  0  0  0
  -29.5255  -16.1875   18.4247 H   0  0  0  0  0  0
  -27.9568  -22.0419   19.3453 H   0  0  0  0  0  0
  -29.4555  -24.8267   22.1450 H   0  0  0  0  0  0
  -30.7809  -24.1837   21.1801 H   0  0  0  0  0  0
  -29.4284  -20.7255   22.7820 H   0  0  0  0  0  0
  -30.9738  -20.9940   21.9883 H   0  0  0  0  0  0
  -29.0202  -16.3229   22.8701 H   0  0  0  0  0  0
  -30.7867  -16.4495   22.9237 H   0  0  0  0  0  0
  -30.0157  -14.8825   22.9685 H   0  0  0  0  0  0
  -26.9846  -24.6271   20.2798 H   0  0  0  0  0  0
  -27.9400  -24.7281   18.8224 H   0  0  0  0  0  0
  1 25  1  0  0  0
  1 30  2  0  0  0
  1 85  1  0  0  0
  2  3  1  0  0  0
  2 25  1  0  0  0
  2 88  1  0  0  0
  2 89  1  0  0  0
  3  4  1  0  0  0
  3 90  1  0  0  0
  3 91  1  0  0  0
  4  5  1  0  0  0
  4 92  1  0  0  0
  4 93  1  0  0  0
  5  6  1  0  0  0
  5 26  1  0  0  0
  5 94  1  0  0  0
  6 25  1  0  0  0
  6 95  1  0  0  0
  6 96  1  0  0  0
  7  8  2  0  0  0
  7 26  1  0  0  0
  7 29  1  0  0  0
  8  9  1  0  0  0
  8 22  1  0  0  0
  9 10  1  0  0  0
  9 27  2  0  0  0
 10 11  2  0  0  0
 10 15  1  0  0  0
 11 12  1  0  0  0
 11 97  1  0  0  0
 12 13  2  0  0  0
 12 98  1  0  0  0
 13 14  1  0  0  0
 13 31  1  0  0  0
 14 15  2  0  0  0
 14 99  1  0  0  0
 15100  1  0  0  0
 16 17  2  0  0  0
 16 21  1  0  0  0
 16 31  1  0  0  0
 17 18  1  0  0  0
 17101  1  0  0  0
 18 19  2  0  0  0
 18102  1  0  0  0
 19 20  1  0  0  0
 19 24  1  0  0  0
 20 21  2  0  0  0
 20103  1  0  0  0
 21 23  1  0  0  0
 22 28  1  0  0  0
 22 32  2  0  0  0
 26 27  1  0  0  0
 28104  1  0  0  0
 28105  1  0  0  0
 29106  1  0  0  0
 29107  1  0  0  0
 33 34  1  0  0  0
 33 66  1  0  0  0
 33 70  2  0  0  0
 34 36  1  0  0  0
 34 59  1  0  0  0
 34108  1  0  0  0
 35 44  2  0  0  0
 35 45  1  0  0  0
 35 68  1  0  0  0
 36 56  1  0  0  0
 36109  1  0  0  0
 37 39  1  0  0  0
 37 47  1  0  0  0
 37 66  1  0  0  0
 37110  1  0  0  0
 38 43  2  0  0  0
 38 46  1  0  0  0
 38 47  1  0  0  0
 39 64  1  0  0  0
 39 67  2  0  0  0
 40 52  1  0  0  0
 40 53  2  0  0  0
 40 58  1  0  0  0
 41111  1  0  0  0
 41112  1  0  0  0
 41113  1  0  0  0
 41 48  1  0  0  0
 42 43  1  0  0  0
 42 66  1  0  0  0
 42114  1  0  0  0
 42115  1  0  0  0
 43 44  1  0  0  0
 44116  1  0  0  0
 45 46  2  0  0  0
 45117  1  0  0  0
 46118  1  0  0  0
 47119  1  0  0  0
 47120  1  0  0  0
 48 56  1  0  0  0
 48 65  1  0  0  0
 48121  1  0  0  0
 49 50  1  0  0  0
 49 53  1  0  0  0
 49 64  1  0  0  0
 49122  1  0  0  0
 50 51  1  0  0  0
 50123  1  0  0  0
 50124  1  0  0  0
 51 52  1  0  0  0
 51125  1  0  0  0
 51126  1  0  0  0
 52127  1  0  0  0
 52128  1  0  0  0
 53 54  1  0  0  0
 54 55  2  0  0  0
 54129  1  0  0  0
 55 57  1  0  0  0
 55130  1  0  0  0
 56 69  2  0  0  0
 57 58  2  0  0  0
 57131  1  0  0  0
 58132  1  0  0  0
 59 60  1  0  0  0
 59 61  1  0  0  0
 59 62  1  0  0  0
 60133  1  0  0  0
 60134  1  0  0  0
 60135  1  0  0  0
 61136  1  0  0  0
 61137  1  0  0  0
 61138  1  0  0  0
 62139  1  0  0  0
 62140  1  0  0  0
 62141  1  0  0  0
 63 65  1  0  0  0
 63142  1  0  0  0
 63143  1  0  0  0
 63144  1  0  0  0
 64145  1  0  0  0
 65146  1  0  0  0
 68 83  1  0  0  0
 71 72  2  0  0  0
 71 73  1  0  0  0
 71147  1  0  0  0
 72 74  1  0  0  0
 72148  1  0  0  0
 73 75  2  0  0  0
 73149  1  0  0  0
 74 76  2  0  0  0
 74 84  1  0  0  0
 75 76  1  0  0  0
 75 85  1  0  0  0
 76 87  1  0  0  0
 77 78  2  0  0  0
 77 84  1  0  0  0
 77150  1  0  0  0
 78 80  1  0  0  0
 78 83  1  0  0  0
 79 80  1  0  0  0
 79 81  1  0  0  0
 79 86  2  0  0  0
 80151  1  0  0  0
 80152  1  0  0  0
 81 84  1  0  0  0
 81153  1  0  0  0
 81154  1  0  0  0
 82 85  1  0  0  0
 82155  1  0  0  0
 82156  1  0  0  0
 82157  1  0  0  0
 83158  1  0  0  0
 83159  1  0  0  0
M  ISO  4   1 100  68 101  83 101  85 100
M  END
> <chiral flag>
0

> <version>
0

> <s_m_source_file>
/data/baiqing/PycharmProjects/Reinvent-master-3.2/result/LINK_invent/BTK/process_docking_weight1_custom_product_contain_oxygen_bond_distance_aromatic_linkinvent_7_9_3/rearranged_h_0090.sdf

> <i_m_source_file_index>
40

> <r_mmod_Potential_Energy-OPLS-2005>
414.453643798828

> <r_mmod_Stretch_Energy-OPLS-2005>
149.376541137695

> <r_mmod_Bend_Energy-OPLS-2005>
168.923568725586

> <r_mmod_Torsional_Energy-OPLS-2005>
284.9443359375

> <r_mmod_Improper_Torsional_Energy-OPLS-2005>
3.34146308898926

> <r_mmod_Van_der_Waal_Energy-OPLS-2005>
168.229537963867

> <r_mmod_Electrostatic_Energy-OPLS-2005>
-244.980667114258

> <r_mmod_Solvation_Energy-OPLS-2005>
-207.386779785156

> <b_mmod_Minimization_Converged-OPLS-2005>
0

> <r_mmod_RMS_Derivative-OPLS-2005>
0.448410242795944

$$$$
40
                    3D
 Structure written by MMmdl.
156164  0  0  1  0            999 V2000
  -30.6857  -14.4722   20.5906 C   0  0  0  0  0  0
  -30.4266  -12.3057   19.4266 C   0  0  0  0  0  0
  -29.5023  -12.5158   18.2087 C   0  0  0  0  0  0
  -28.0173  -12.3897   18.6101 C   0  0  0  0  0  0
  -27.6652  -13.2087   19.8809 C   0  0  2  0  0  0
  -28.7044  -12.9631   20.9987 C   0  0  0  0  0  0
  -25.2580  -13.8168   20.5657 C   0  0  0  0  0  0
  -24.1842  -13.0438   20.9164 C   0  0  0  0  0  0
  -24.6390  -11.6903   20.8716 C   0  0  0  0  0  0
  -23.9050  -10.4288   21.0388 C   0  0  0  0  0  0
  -24.3605   -9.4210   21.9172 C   0  0  0  0  0  0
  -23.6291   -8.2242   22.0739 C   0  0  0  0  0  0
  -22.4266   -8.0272   21.3533 C   0  0  0  0  0  0
  -21.9900   -9.0245   20.4636 C   0  0  0  0  0  0
  -22.7224  -10.2130   20.3044 C   0  0  0  0  0  0
  -21.6846   -6.0732   22.5274 C   0  0  0  0  0  0
  -21.4015   -6.5640   23.8209 C   0  0  0  0  0  0
  -21.3670   -5.6789   24.9171 C   0  0  0  0  0  0
  -21.6044   -4.3052   24.7219 C   0  0  0  0  0  0
  -21.8822   -3.8144   23.4342 C   0  0  0  0  0  0
  -21.9195   -4.6960   22.3397 C   0  0  0  0  0  0
  -22.7862  -13.5230   21.1841 C   0  0  0  0  0  0
  -22.1662   -4.2153   21.0975 F   0  0  0  0  0  0
  -21.5631   -3.4533   25.7733 F   0  0  0  0  0  0
  -30.0401  -13.2795   20.4604 N   0  0  0  0  0  0
  -26.3029  -12.9342   20.3364 N   0  0  0  0  0  0
  -25.9322  -11.6497   20.5762 N   0  0  0  0  0  0
  -22.0516  -12.8226   22.0414 N   0  0  0  0  0  0
  -25.4311  -15.1886   20.4050 N   0  0  0  0  0  0
  -31.7860  -14.6928   20.0730 O   0  0  0  0  0  0
  -21.6635   -6.8872   21.4235 O   0  0  0  0  0  0
  -22.3542  -14.5531   20.6689 O   0  0  0  0  0  0
  -24.6170  -31.8681   23.2089 C   0  0  0  0  0  0
  -25.9060  -32.4818   23.8390 C   0  0  1  0  0  0
  -27.2243  -27.4060   20.1058 C   0  0  0  0  0  0
  -25.5902  -33.8619   24.2311 N   0  0  0  0  0  0
  -23.4050  -30.4932   21.5504 C   0  0  2  0  0  0
  -24.8487  -28.9605   20.1109 C   0  0  0  0  0  0
  -22.7431  -29.4663   22.4979 C   0  0  0  0  0  0
  -18.0281  -28.1394   22.8498 C   0  0  0  0  0  0
  -24.1482  -36.7307   23.2641 C   0  0  0  0  0  0
  -25.9377  -30.8250   21.3678 C   0  0  0  0  0  0
  -26.0112  -29.4599   20.7096 C   0  0  0  0  0  0
  -27.2021  -28.6921   20.6998 C   0  0  0  0  0  0
  -26.0402  -26.9330   19.4905 C   0  0  0  0  0  0
  -24.8608  -27.6992   19.4944 C   0  0  0  0  0  0
  -23.6123  -29.8303   20.1633 C   0  0  0  0  0  0
  -25.4108  -36.3106   24.0333 C   0  0  1  0  0  0
  -20.5875  -28.3682   23.1321 C   0  0  2  0  0  0
  -20.6776  -26.9416   22.5425 C   0  0  0  0  0  0
  -19.5745  -26.6395   21.5234 C   0  0  0  0  0  0
  -18.1924  -26.7940   22.1641 C   0  0  0  0  0  0
  -19.1531  -28.8855   23.2907 C   0  0  0  0  0  0
  -18.9456  -30.1465   23.8909 C   0  0  0  0  0  0
  -17.6455  -30.6596   24.0574 C   0  0  0  0  0  0
  -25.9042  -34.9474   23.5121 C   0  0  0  0  0  0
  -16.5347  -29.9097   23.6332 C   0  0  0  0  0  0
  -16.7269  -28.6519   23.0346 C   0  0  0  0  0  0
  -26.4470  -31.6609   25.0733 C   0  0  0  0  0  0
  -25.3716  -31.3745   26.1469 C   0  0  0  0  0  0
  -27.0308  -30.3040   24.6150 C   0  0  0  0  0  0
  -27.6038  -32.4342   25.7489 C   0  0  0  0  0  0
  -27.5578  -37.1813   24.8465 C   0  0  0  0  0  0
  -21.4156  -29.3042   22.3720 N   0  0  0  0  0  0
  -26.4293  -37.3792   23.9405 N   0  0  0  0  0  0
  -24.6713  -31.0771   22.0999 N   0  0  0  0  0  0
  -23.4198  -28.8217   23.3037 O   0  0  0  0  0  0
  -28.3794  -26.6423   20.1555 O   0  0  0  0  0  0
  -26.5616  -34.8926   22.4691 O   0  0  0  0  0  0
  -23.5357  -32.1450   23.7467 O   0  0  0  0  0  0
  -29.5473  -18.9920   22.3135 C   0  0  0  0  0  0
  -30.6448  -18.9843   20.1529 C   0  0  0  0  0  0
  -29.5351  -17.5775   22.3108 C   0  0  0  0  0  0
  -30.6525  -17.5675   20.1578 C   0  0  0  0  0  0
  -30.0896  -19.7183   21.2292 C   0  0  0  0  0  0
  -30.0973  -16.8420   21.2419 C   0  0  0  0  0  0
  -30.1623  -21.2304   21.2673 C   0  0  0  0  0  0
  -29.4338  -24.4223   20.5510 C   0  0  0  0  0  0
  -29.8004  -23.3695   18.2309 C   0  0  0  0  0  0
  -28.2301  -25.2128   19.9751 C   0  0  0  0  0  0
  -30.1033  -23.2565   19.7375 C   0  0  2  0  0  0
  -30.0103  -15.4109   21.2874 N   0  0  0  0  0  0
  -29.7681  -21.8764   20.1559 N   0  0  0  0  0  0
  -30.6000  -21.8034   22.2659 O   0  0  0  0  0  0
  -29.8653  -24.7481   21.6613 O   0  0  0  0  0  0
  -31.4738  -12.4024   19.1342 H   0  0  0  0  0  0
  -30.3195  -11.2898   19.8101 H   0  0  0  0  0  0
  -29.7391  -11.7946   17.4256 H   0  0  0  0  0  0
  -29.6850  -13.5024   17.7803 H   0  0  0  0  0  0
  -27.8052  -11.3333   18.7780 H   0  0  0  0  0  0
  -27.3767  -12.6954   17.7819 H   0  0  0  0  0  0
  -27.7156  -14.2629   19.6067 H   0  0  0  0  0  0
  -28.6767  -11.9178   21.3117 H   0  0  0  0  0  0
  -28.4564  -13.5326   21.8952 H   0  0  0  0  0  0
  -25.2764   -9.5686   22.4736 H   0  0  0  0  0  0
  -24.0007   -7.4631   22.7449 H   0  0  0  0  0  0
  -21.0834   -8.8753   19.8943 H   0  0  0  0  0  0
  -22.3677  -10.9659   19.6143 H   0  0  0  0  0  0
  -21.2009   -7.6149   23.9714 H   0  0  0  0  0  0
  -21.1492   -6.0519   25.9076 H   0  0  0  0  0  0
  -22.0597   -2.7604   23.2832 H   0  0  0  0  0  0
  -22.4134  -11.9894   22.4818 H   0  0  0  0  0  0
  -21.1136  -13.1241   22.2631 H   0  0  0  0  0  0
  -24.6640  -15.8451   20.5048 H   0  0  0  0  0  0
  -26.2859  -15.6258   20.0819 H   0  0  0  0  0  0
  -26.7132  -32.5511   23.1152 H   0  0  0  0  0  0
  -25.0023  -33.9779   25.0434 H   0  0  0  0  0  0
  -22.6937  -31.3106   21.4146 H   0  0  0  0  0  0
  -23.3736  -35.9650   23.3331 H   0  0  0  0  0  0
  -24.3564  -36.8899   22.2050 H   0  0  0  0  0  0
  -23.7245  -37.6522   23.6643 H   0  0  0  0  0  0
  -26.0616  -31.5940   20.6040 H   0  0  0  0  0  0
  -26.8211  -30.8694   21.9932 H   0  0  0  0  0  0
  -28.0970  -29.0733   21.1721 H   0  0  0  0  0  0
  -26.0001  -25.9700   19.0034 H   0  0  0  0  0  0
  -23.9673  -27.3133   19.0222 H   0  0  0  0  0  0
  -23.7203  -30.6077   19.4062 H   0  0  0  0  0  0
  -22.7344  -29.2532   19.8673 H   0  0  0  0  0  0
  -25.1287  -36.1970   25.0828 H   0  0  0  0  0  0
  -20.9967  -28.3257   24.1444 H   0  0  0  0  0  0
  -20.5715  -26.2292   23.3619 H   0  0  0  0  0  0
  -21.6644  -26.7484   22.1197 H   0  0  0  0  0  0
  -19.6911  -25.6311   21.1256 H   0  0  0  0  0  0
  -19.6681  -27.3217   20.6775 H   0  0  0  0  0  0
  -17.4202  -26.6702   21.4035 H   0  0  0  0  0  0
  -18.0311  -26.0083   22.9035 H   0  0  0  0  0  0
  -19.7930  -30.7290   24.2273 H   0  0  0  0  0  0
  -17.5007  -31.6272   24.5182 H   0  0  0  0  0  0
  -15.5348  -30.3003   23.7648 H   0  0  0  0  0  0
  -15.8672  -28.0847   22.7041 H   0  0  0  0  0  0
  -24.5847  -30.7151   25.7787 H   0  0  0  0  0  0
  -24.8957  -32.2923   26.4937 H   0  0  0  0  0  0
  -25.8029  -30.8867   27.0218 H   0  0  0  0  0  0
  -26.2883  -29.6806   24.1153 H   0  0  0  0  0  0
  -27.4004  -29.7274   25.4640 H   0  0  0  0  0  0
  -27.8747  -30.4339   23.9369 H   0  0  0  0  0  0
  -27.2643  -33.3622   26.2101 H   0  0  0  0  0  0
  -28.3816  -32.6946   25.0300 H   0  0  0  0  0  0
  -28.0746  -31.8460   26.5374 H   0  0  0  0  0  0
  -28.2609  -38.0096   24.7496 H   0  0  0  0  0  0
  -28.1059  -36.2630   24.6306 H   0  0  0  0  0  0
  -27.2299  -37.1483   25.8870 H   0  0  0  0  0  0
  -20.9330  -29.8730   21.6904 H   0  0  0  0  0  0
  -26.0179  -38.2874   24.1391 H   0  0  0  0  0  0
  -29.1325  -19.5244   23.1589 H   0  0  0  0  0  0
  -31.0923  -19.5087   19.3202 H   0  0  0  0  0  0
  -29.0947  -17.0583   23.1509 H   0  0  0  0  0  0
  -31.0795  -17.0526   19.3087 H   0  0  0  0  0  0
  -30.0385  -24.3628   17.8476 H   0  0  0  0  0  0
  -28.7552  -23.1549   18.0046 H   0  0  0  0  0  0
  -30.4002  -22.6598   17.6608 H   0  0  0  0  0  0
  -27.3496  -24.8683   20.5188 H   0  0  0  0  0  0
  -28.0579  -24.9989   18.9229 H   0  0  0  0  0  0
  -31.1820  -23.3697   19.8557 H   0  0  0  0  0  0
  -29.2367  -15.0429   21.8198 H   0  0  0  0  0  0
  -29.3502  -21.2881   19.4501 H   0  0  0  0  0  0
  1 25  1  0  0  0
  1 30  2  0  0  0
  1 82  1  0  0  0
  2  3  1  0  0  0
  2 25  1  0  0  0
  2 86  1  0  0  0
  2 87  1  0  0  0
  3  4  1  0  0  0
  3 88  1  0  0  0
  3 89  1  0  0  0
  4  5  1  0  0  0
  4 90  1  0  0  0
  4 91  1  0  0  0
  5  6  1  0  0  0
  5 26  1  0  0  0
  5 92  1  0  0  0
  6 25  1  0  0  0
  6 93  1  0  0  0
  6 94  1  0  0  0
  7  8  2  0  0  0
  7 26  1  0  0  0
  7 29  1  0  0  0
  8  9  1  0  0  0
  8 22  1  0  0  0
  9 10  1  0  0  0
  9 27  2  0  0  0
 10 11  2  0  0  0
 10 15  1  0  0  0
 11 12  1  0  0  0
 11 95  1  0  0  0
 12 13  2  0  0  0
 12 96  1  0  0  0
 13 14  1  0  0  0
 13 31  1  0  0  0
 14 15  2  0  0  0
 14 97  1  0  0  0
 15 98  1  0  0  0
 16 17  2  0  0  0
 16 21  1  0  0  0
 16 31  1  0  0  0
 17 18  1  0  0  0
 17 99  1  0  0  0
 18 19  2  0  0  0
 18100  1  0  0  0
 19 20  1  0  0  0
 19 24  1  0  0  0
 20 21  2  0  0  0
 20101  1  0  0  0
 21 23  1  0  0  0
 22 28  1  0  0  0
 22 32  2  0  0  0
 26 27  1  0  0  0
 28102  1  0  0  0
 28103  1  0  0  0
 29104  1  0  0  0
 29105  1  0  0  0
 33 34  1  0  0  0
 33 66  1  0  0  0
 33 70  2  0  0  0
 34 36  1  0  0  0
 34 59  1  0  0  0
 34106  1  0  0  0
 35 44  2  0  0  0
 35 45  1  0  0  0
 35 68  1  0  0  0
 36 56  1  0  0  0
 36107  1  0  0  0
 37 39  1  0  0  0
 37 47  1  0  0  0
 37 66  1  0  0  0
 37108  1  0  0  0
 38 43  2  0  0  0
 38 46  1  0  0  0
 38 47  1  0  0  0
 39 64  1  0  0  0
 39 67  2  0  0  0
 40 52  1  0  0  0
 40 53  2  0  0  0
 40 58  1  0  0  0
 41109  1  0  0  0
 41110  1  0  0  0
 41111  1  0  0  0
 41 48  1  0  0  0
 42 43  1  0  0  0
 42 66  1  0  0  0
 42112  1  0  0  0
 42113  1  0  0  0
 43 44  1  0  0  0
 44114  1  0  0  0
 45 46  2  0  0  0
 45115  1  0  0  0
 46116  1  0  0  0
 47117  1  0  0  0
 47118  1  0  0  0
 48 56  1  0  0  0
 48 65  1  0  0  0
 48119  1  0  0  0
 49 50  1  0  0  0
 49 53  1  0  0  0
 49 64  1  0  0  0
 49120  1  0  0  0
 50 51  1  0  0  0
 50121  1  0  0  0
 50122  1  0  0  0
 51 52  1  0  0  0
 51123  1  0  0  0
 51124  1  0  0  0
 52125  1  0  0  0
 52126  1  0  0  0
 53 54  1  0  0  0
 54 55  2  0  0  0
 54127  1  0  0  0
 55 57  1  0  0  0
 55128  1  0  0  0
 56 69  2  0  0  0
 57 58  2  0  0  0
 57129  1  0  0  0
 58130  1  0  0  0
 59 60  1  0  0  0
 59 61  1  0  0  0
 59 62  1  0  0  0
 60131  1  0  0  0
 60132  1  0  0  0
 60133  1  0  0  0
 61134  1  0  0  0
 61135  1  0  0  0
 61136  1  0  0  0
 62137  1  0  0  0
 62138  1  0  0  0
 62139  1  0  0  0
 63 65  1  0  0  0
 63140  1  0  0  0
 63141  1  0  0  0
 63142  1  0  0  0
 64143  1  0  0  0
 65144  1  0  0  0
 68 80  1  0  0  0
 71 73  2  0  0  0
 71 75  1  0  0  0
 71145  1  0  0  0
 72 74  1  0  0  0
 72 75  2  0  0  0
 72146  1  0  0  0
 73 76  1  0  0  0
 73147  1  0  0  0
 74 76  2  0  0  0
 74148  1  0  0  0
 75 77  1  0  0  0
 76 82  1  0  0  0
 77 83  1  0  0  0
 77 84  2  0  0  0
 78 80  1  0  0  0
 78 81  1  0  0  0
 78 85  2  0  0  0
 79149  1  0  0  0
 79150  1  0  0  0
 79151  1  0  0  0
 79 81  1  0  0  0
 80152  1  0  0  0
 80153  1  0  0  0
 81 83  1  0  0  0
 81154  1  0  0  0
 82155  1  0  0  0
 83156  1  0  0  0
M  ISO  4   1 100  68 101  80 101  82 100
M  END
> <chiral flag>
0

> <version>
0

> <s_m_source_file>
/data/baiqing/PycharmProjects/Reinvent-master-3.2/result/LINK_invent/BTK/process_docking_weight1_custom_product_contain_oxygen_bond_distance_aromatic_linkinvent_7_9_3/rearranged_h_0090.sdf

> <i_m_source_file_index>
41

> <r_mmod_Potential_Energy-OPLS-2005>
-74.1650695800781

> <r_mmod_Stretch_Energy-OPLS-2005>
44.4490928649902

> <r_mmod_Bend_Energy-OPLS-2005>
107.006301879883

> <r_mmod_Torsional_Energy-OPLS-2005>
248.512756347656

> <r_mmod_Improper_Torsional_Energy-OPLS-2005>
3.35026264190674

> <r_mmod_Van_der_Waal_Energy-OPLS-2005>
155.699752807617

> <r_mmod_Electrostatic_Energy-OPLS-2005>
-382.693664550781

> <r_mmod_Solvation_Energy-OPLS-2005>
-265.662445068359

> <b_mmod_Minimization_Converged-OPLS-2005>
0

> <r_mmod_RMS_Derivative-OPLS-2005>
1.6449499130249

$$$$
41
                    3D
 Structure written by MMmdl.
149157  0  0  1  0            999 V2000
  -30.5208  -15.0551   20.4015 C   0  0  0  0  0  0
  -30.4367  -12.6612   19.5078 C   0  0  0  0  0  0
  -29.5233  -12.5409   18.2657 C   0  0  0  0  0  0
  -28.0615  -12.3086   18.6881 C   0  0  0  0  0  0
  -27.6214  -13.2596   19.8310 C   0  0  2  0  0  0
  -28.6623  -13.3460   20.9671 C   0  0  0  0  0  0
  -25.2429  -13.8235   20.5734 C   0  0  0  0  0  0
  -24.1761  -13.0440   20.9245 C   0  0  0  0  0  0
  -24.6396  -11.6932   20.8766 C   0  0  0  0  0  0
  -23.9088  -10.4296   21.0412 C   0  0  0  0  0  0
  -24.3634   -9.4207   21.9187 C   0  0  0  0  0  0
  -23.6303   -8.2244   22.0754 C   0  0  0  0  0  0
  -22.4284   -8.0287   21.3543 C   0  0  0  0  0  0
  -21.9926   -9.0262   20.4645 C   0  0  0  0  0  0
  -22.7261  -10.2139   20.3057 C   0  0  0  0  0  0
  -21.6856   -6.0741   22.5279 C   0  0  0  0  0  0
  -21.4015   -6.5642   23.8213 C   0  0  0  0  0  0
  -21.3656   -5.6794   24.9174 C   0  0  0  0  0  0
  -21.6044   -4.3057   24.7225 C   0  0  0  0  0  0
  -21.8818   -3.8150   23.4345 C   0  0  0  0  0  0
  -21.9192   -4.6969   22.3401 C   0  0  0  0  0  0
  -22.7779  -13.5201   21.1898 C   0  0  0  0  0  0
  -22.1661   -4.2154   21.0980 F   0  0  0  0  0  0
  -21.5626   -3.4540   25.7737 F   0  0  0  0  0  0
  -29.9232  -13.7850   20.3544 N   0  0  0  0  0  0
  -26.2853  -12.9485   20.3237 N   0  0  0  0  0  0
  -25.9331  -11.6603   20.5739 N   0  0  0  0  0  0
  -22.0434  -12.8182   22.0452 N   0  0  0  0  0  0
  -25.4077  -15.1970   20.4178 N   0  0  0  0  0  0
  -31.7344  -15.0646   20.1647 O   0  0  0  0  0  0
  -21.6643   -6.8888   21.4243 O   0  0  0  0  0  0
  -22.3458  -14.5504   20.6744 O   0  0  0  0  0  0
  -24.6505  -31.8369   23.1820 C   0  0  0  0  0  0
  -25.9247  -32.4655   23.8233 C   0  0  1  0  0  0
  -27.2147  -27.0594   20.1631 C   0  0  0  0  0  0
  -25.5965  -33.8465   24.2145 N   0  0  0  0  0  0
  -23.4578  -30.4546   21.5291 C   0  0  2  0  0  0
  -24.9092  -28.8692   20.1097 C   0  0  0  0  0  0
  -22.7602  -29.4510   22.4828 C   0  0  0  0  0  0
  -18.0308  -28.1399   22.8475 C   0  0  0  0  0  0
  -24.1491  -36.7235   23.2648 C   0  0  0  0  0  0
  -26.0201  -30.6862   21.3927 C   0  0  0  0  0  0
  -26.0899  -29.2903   20.7345 C   0  0  0  0  0  0
  -27.2422  -28.4041   20.7406 C   0  0  0  0  0  0
  -26.0065  -26.7612   19.4941 C   0  0  0  0  0  0
  -24.8854  -27.6209   19.4712 C   0  0  0  0  0  0
  -23.6892  -29.7812   20.1502 C   0  0  0  0  0  0
  -25.4129  -36.3008   24.0310 C   0  0  1  0  0  0
  -20.5926  -28.3734   23.1219 C   0  0  2  0  0  0
  -20.6795  -26.9429   22.5403 C   0  0  0  0  0  0
  -19.5766  -26.6378   21.5218 C   0  0  0  0  0  0
  -18.1946  -26.7934   22.1627 C   0  0  0  0  0  0
  -19.1567  -28.8887   23.2837 C   0  0  0  0  0  0
  -18.9485  -30.1484   23.8861 C   0  0  0  0  0  0
  -17.6482  -30.6597   24.0560 C   0  0  0  0  0  0
  -25.9084  -34.9386   23.5040 C   0  0  0  0  0  0
  -16.5372  -29.9087   23.6346 C   0  0  0  0  0  0
  -16.7293  -28.6509   23.0360 C   0  0  0  0  0  0
  -26.4538  -31.6551   25.0708 C   0  0  0  0  0  0
  -25.3700  -31.3774   26.1393 C   0  0  0  0  0  0
  -27.0418  -30.2933   24.6351 C   0  0  0  0  0  0
  -27.6053  -32.4339   25.7493 C   0  0  0  0  0  0
  -27.5564  -37.1787   24.8475 C   0  0  0  0  0  0
  -21.4284  -29.3049   22.3583 N   0  0  0  0  0  0
  -26.4288  -37.3726   23.9396 N   0  0  0  0  0  0
  -24.7298  -31.0157   22.0890 N   0  0  0  0  0  0
  -23.4216  -28.8063   23.3007 O   0  0  0  0  0  0
  -28.2362  -26.0168   20.2418 O   0  0  0  0  0  0
  -26.5678  -34.8899   22.4624 O   0  0  0  0  0  0
  -23.5609  -32.1278   23.6997 O   0  0  0  0  0  0
  -31.8936  -19.5064   20.4813 C   0  0  0  0  0  0
  -31.4559  -18.1681   20.5126 C   0  0  0  0  0  0
  -29.6074  -20.4972   20.3507 C   0  0  0  0  0  0
  -31.0320  -20.6246   20.3965 C   0  0  0  0  0  0
  -30.0941  -17.8152   20.4531 C   0  0  0  0  0  0
  -29.1949  -19.0324   20.3792 C   0  0  0  0  0  0
  -28.9046  -23.1129   20.3516 C   0  0  0  0  0  0
  -27.9019  -24.4689   20.0682 C   0  0  0  0  0  0
  -28.7112  -21.7492   20.2151 N   0  0  0  0  0  0
  -31.6835  -21.8563   20.3340 N   0  0  0  0  0  0
  -29.7577  -16.2834   20.4903 N   0  0  0  0  0  0
  -27.8644  -18.7777   20.3226 F   0  0  0  0  0  0
  -31.4663  -12.8275   19.1881 H   0  0  0  0  0  0
  -30.4511  -11.7274   20.0725 H   0  0  0  0  0  0
  -29.8619  -11.7278   17.6223 H   0  0  0  0  0  0
  -29.5927  -13.4530   17.6707 H   0  0  0  0  0  0
  -27.9790  -11.2735   19.0217 H   0  0  0  0  0  0
  -27.3951  -12.4059   17.8299 H   0  0  0  0  0  0
  -27.5654  -14.2484   19.3745 H   0  0  0  0  0  0
  -28.7771  -12.3875   21.4752 H   0  0  0  0  0  0
  -28.3431  -14.0638   21.7245 H   0  0  0  0  0  0
  -25.2776   -9.5680   22.4768 H   0  0  0  0  0  0
  -24.0007   -7.4636   22.7476 H   0  0  0  0  0  0
  -21.0856   -8.8789   19.8952 H   0  0  0  0  0  0
  -22.3724  -10.9681   19.6170 H   0  0  0  0  0  0
  -21.2009   -7.6150   23.9720 H   0  0  0  0  0  0
  -21.1475   -6.0523   25.9078 H   0  0  0  0  0  0
  -22.0598   -2.7614   23.2845 H   0  0  0  0  0  0
  -22.4057  -11.9845   22.4836 H   0  0  0  0  0  0
  -21.1047  -13.1194   22.2659 H   0  0  0  0  0  0
  -24.6389  -15.8474   20.5385 H   0  0  0  0  0  0
  -26.2492  -15.6431   20.0776 H   0  0  0  0  0  0
  -26.7311  -32.5236   23.0954 H   0  0  0  0  0  0
  -25.0088  -33.9562   25.0280 H   0  0  0  0  0  0
  -22.7643  -31.2831   21.3700 H   0  0  0  0  0  0
  -23.3748  -35.9576   23.3332 H   0  0  0  0  0  0
  -24.3560  -36.8843   22.2056 H   0  0  0  0  0  0
  -23.7267  -37.6444   23.6678 H   0  0  0  0  0  0
  -26.1862  -31.4360   20.6181 H   0  0  0  0  0  0
  -26.8867  -30.7372   22.0408 H   0  0  0  0  0  0
  -28.1380  -28.7223   21.2554 H   0  0  0  0  0  0
  -25.8883  -25.8081   19.0023 H   0  0  0  0  0  0
  -23.9866  -27.2928   18.9674 H   0  0  0  0  0  0
  -23.8315  -30.5553   19.3953 H   0  0  0  0  0  0
  -22.8018  -29.2285   19.8369 H   0  0  0  0  0  0
  -25.1324  -36.1826   25.0804 H   0  0  0  0  0  0
  -21.0019  -28.3331   24.1341 H   0  0  0  0  0  0
  -20.5697  -26.2344   23.3627 H   0  0  0  0  0  0
  -21.6658  -26.7428   22.1197 H   0  0  0  0  0  0
  -19.6928  -25.6282   21.1262 H   0  0  0  0  0  0
  -19.6701  -27.3177   20.6739 H   0  0  0  0  0  0
  -17.4214  -26.6680   21.4032 H   0  0  0  0  0  0
  -18.0344  -26.0081   22.9030 H   0  0  0  0  0  0
  -19.7964  -30.7312   24.2207 H   0  0  0  0  0  0
  -17.5036  -31.6272   24.5168 H   0  0  0  0  0  0
  -15.5374  -30.2981   23.7692 H   0  0  0  0  0  0
  -15.8690  -28.0821   22.7092 H   0  0  0  0  0  0
  -24.5866  -30.7139   25.7709 H   0  0  0  0  0  0
  -24.8910  -32.2972   26.4762 H   0  0  0  0  0  0
  -25.7957  -30.8971   27.0211 H   0  0  0  0  0  0
  -26.3057  -29.6634   24.1342 H   0  0  0  0  0  0
  -27.3980  -29.7261   25.4959 H   0  0  0  0  0  0
  -27.8982  -30.4140   23.9715 H   0  0  0  0  0  0
  -27.2637  -33.3679   26.1968 H   0  0  0  0  0  0
  -28.3915  -32.6835   25.0355 H   0  0  0  0  0  0
  -28.0661  -31.8530   26.5493 H   0  0  0  0  0  0
  -28.2608  -38.0054   24.7467 H   0  0  0  0  0  0
  -28.1029  -36.2580   24.6375 H   0  0  0  0  0  0
  -27.2267  -37.1522   25.8876 H   0  0  0  0  0  0
  -20.9511  -29.8752   21.6740 H   0  0  0  0  0  0
  -26.0145  -38.2794   24.1373 H   0  0  0  0  0  0
  -32.9623  -19.6681   20.5160 H   0  0  0  0  0  0
  -32.2183  -17.4087   20.5835 H   0  0  0  0  0  0
  -29.8620  -23.4806   20.7195 H   0  0  0  0  0  0
  -27.0053  -24.2944   20.6637 H   0  0  0  0  0  0
  -27.5762  -24.3591   19.0342 H   0  0  0  0  0  0
  -32.6579  -21.8969   20.6148 H   0  0  0  0  0  0
  -31.1688  -22.6813   20.6097 H   0  0  0  0  0  0
  -28.7688  -16.1040   20.5776 H   0  0  0  0  0  0
  1 25  1  0  0  0
  1 30  2  0  0  0
  1 81  1  0  0  0
  2  3  1  0  0  0
  2 25  1  0  0  0
  2 83  1  0  0  0
  2 84  1  0  0  0
  3  4  1  0  0  0
  3 85  1  0  0  0
  3 86  1  0  0  0
  4  5  1  0  0  0
  4 87  1  0  0  0
  4 88  1  0  0  0
  5  6  1  0  0  0
  5 26  1  0  0  0
  5 89  1  0  0  0
  6 25  1  0  0  0
  6 90  1  0  0  0
  6 91  1  0  0  0
  7  8  2  0  0  0
  7 26  1  0  0  0
  7 29  1  0  0  0
  8  9  1  0  0  0
  8 22  1  0  0  0
  9 10  1  0  0  0
  9 27  2  0  0  0
 10 11  2  0  0  0
 10 15  1  0  0  0
 11 12  1  0  0  0
 11 92  1  0  0  0
 12 13  2  0  0  0
 12 93  1  0  0  0
 13 14  1  0  0  0
 13 31  1  0  0  0
 14 15  2  0  0  0
 14 94  1  0  0  0
 15 95  1  0  0  0
 16 17  2  0  0  0
 16 21  1  0  0  0
 16 31  1  0  0  0
 17 18  1  0  0  0
 17 96  1  0  0  0
 18 19  2  0  0  0
 18 97  1  0  0  0
 19 20  1  0  0  0
 19 24  1  0  0  0
 20 21  2  0  0  0
 20 98  1  0  0  0
 21 23  1  0  0  0
 22 28  1  0  0  0
 22 32  2  0  0  0
 26 27  1  0  0  0
 28 99  1  0  0  0
 28100  1  0  0  0
 29101  1  0  0  0
 29102  1  0  0  0
 33 34  1  0  0  0
 33 66  1  0  0  0
 33 70  2  0  0  0
 34 36  1  0  0  0
 34 59  1  0  0  0
 34103  1  0  0  0
 35 44  2  0  0  0
 35 45  1  0  0  0
 35 68  1  0  0  0
 36 56  1  0  0  0
 36104  1  0  0  0
 37 39  1  0  0  0
 37 47  1  0  0  0
 37 66  1  0  0  0
 37105  1  0  0  0
 38 43  2  0  0  0
 38 46  1  0  0  0
 38 47  1  0  0  0
 39 64  1  0  0  0
 39 67  2  0  0  0
 40 52  1  0  0  0
 40 53  2  0  0  0
 40 58  1  0  0  0
 41106  1  0  0  0
 41107  1  0  0  0
 41108  1  0  0  0
 41 48  1  0  0  0
 42 43  1  0  0  0
 42 66  1  0  0  0
 42109  1  0  0  0
 42110  1  0  0  0
 43 44  1  0  0  0
 44111  1  0  0  0
 45 46  2  0  0  0
 45112  1  0  0  0
 46113  1  0  0  0
 47114  1  0  0  0
 47115  1  0  0  0
 48 56  1  0  0  0
 48 65  1  0  0  0
 48116  1  0  0  0
 49 50  1  0  0  0
 49 53  1  0  0  0
 49 64  1  0  0  0
 49117  1  0  0  0
 50 51  1  0  0  0
 50118  1  0  0  0
 50119  1  0  0  0
 51 52  1  0  0  0
 51120  1  0  0  0
 51121  1  0  0  0
 52122  1  0  0  0
 52123  1  0  0  0
 53 54  1  0  0  0
 54 55  2  0  0  0
 54124  1  0  0  0
 55 57  1  0  0  0
 55125  1  0  0  0
 56 69  2  0  0  0
 57 58  2  0  0  0
 57126  1  0  0  0
 58127  1  0  0  0
 59 60  1  0  0  0
 59 61  1  0  0  0
 59 62  1  0  0  0
 60128  1  0  0  0
 60129  1  0  0  0
 60130  1  0  0  0
 61131  1  0  0  0
 61132  1  0  0  0
 61133  1  0  0  0
 62134  1  0  0  0
 62135  1  0  0  0
 62136  1  0  0  0
 63 65  1  0  0  0
 63137  1  0  0  0
 63138  1  0  0  0
 63139  1  0  0  0
 64140  1  0  0  0
 65141  1  0  0  0
 68 78  1  0  0  0
 71 72  2  0  0  0
 71 74  1  0  0  0
 71142  1  0  0  0
 72 75  1  0  0  0
 72143  1  0  0  0
 73 74  2  0  0  0
 73 76  1  0  0  0
 73 79  1  0  0  0
 74 80  1  0  0  0
 75 76  2  0  0  0
 75 81  1  0  0  0
 76 82  1  0  0  0
 77 78  1  0  0  0
 77 79  2  0  0  0
 77144  1  0  0  0
 78145  1  0  0  0
 78146  1  0  0  0
 80147  1  0  0  0
 80148  1  0  0  0
 81149  1  0  0  0
M  ISO  4   1 100  68 101  78 101  81 100
M  END
> <chiral flag>
0

> <version>
0

> <s_m_source_file>
/data/baiqing/PycharmProjects/Reinvent-master-3.2/result/LINK_invent/BTK/process_docking_weight1_custom_product_contain_oxygen_bond_distance_aromatic_linkinvent_7_9_3/rearranged_h_0090.sdf

> <i_m_source_file_index>
42

> <r_mmod_Potential_Energy-OPLS-2005>
680.440124511719

> <r_mmod_Stretch_Energy-OPLS-2005>
368.247283935547

> <r_mmod_Bend_Energy-OPLS-2005>
291.609741210938

> <r_mmod_Torsional_Energy-OPLS-2005>
214.99577331543

> <r_mmod_Improper_Torsional_Energy-OPLS-2005>
8.09658622741699

> <r_mmod_Van_der_Waal_Energy-OPLS-2005>
144.702362060547

> <r_mmod_Electrostatic_Energy-OPLS-2005>
-398.598785400391

> <r_mmod_Solvation_Energy-OPLS-2005>
-221.225189208984

> <b_mmod_Minimization_Converged-OPLS-2005>
0

> <r_mmod_RMS_Derivative-OPLS-2005>
0.562517523765564

$$$$
42
                    3D
 Structure written by MMmdl.
151159  0  0  1  0            999 V2000
  -30.6172  -14.6556   20.4964 C   0  0  0  0  0  0
  -30.4403  -12.4033   19.4541 C   0  0  0  0  0  0
  -29.5089  -12.5134   18.2264 C   0  0  0  0  0  0
  -28.0328  -12.3447   18.6393 C   0  0  0  0  0  0
  -27.6528  -13.2184   19.8649 C   0  0  2  0  0  0
  -28.6986  -13.0814   20.9942 C   0  0  0  0  0  0
  -25.2554  -13.8167   20.5679 C   0  0  0  0  0  0
  -24.1821  -13.0428   20.9161 C   0  0  0  0  0  0
  -24.6401  -11.6903   20.8730 C   0  0  0  0  0  0
  -23.9072  -10.4288   21.0397 C   0  0  0  0  0  0
  -24.3621   -9.4208   21.9177 C   0  0  0  0  0  0
  -23.6293   -8.2245   22.0753 C   0  0  0  0  0  0
  -22.4276   -8.0280   21.3545 C   0  0  0  0  0  0
  -21.9910   -9.0254   20.4650 C   0  0  0  0  0  0
  -22.7240  -10.2131   20.3055 C   0  0  0  0  0  0
  -21.6856   -6.0736   22.5279 C   0  0  0  0  0  0
  -21.4015   -6.5640   23.8212 C   0  0  0  0  0  0
  -21.3663   -5.6793   24.9175 C   0  0  0  0  0  0
  -21.6048   -4.3055   24.7227 C   0  0  0  0  0  0
  -21.8820   -3.8147   23.4349 C   0  0  0  0  0  0
  -21.9193   -4.6963   22.3404 C   0  0  0  0  0  0
  -22.7846  -13.5225   21.1836 C   0  0  0  0  0  0
  -22.1659   -4.2152   21.0980 F   0  0  0  0  0  0
  -21.5631   -3.4538   25.7740 F   0  0  0  0  0  0
  -30.0123  -13.4270   20.4285 N   0  0  0  0  0  0
  -26.2995  -12.9356   20.3346 N   0  0  0  0  0  0
  -25.9336  -11.6506   20.5769 N   0  0  0  0  0  0
  -22.0496  -12.8222   22.0401 N   0  0  0  0  0  0
  -25.4233  -15.1892   20.4132 N   0  0  0  0  0  0
  -31.7842  -14.8111   20.1248 O   0  0  0  0  0  0
  -21.6639   -6.8879   21.4243 O   0  0  0  0  0  0
  -22.3525  -14.5532   20.6690 O   0  0  0  0  0  0
  -24.6264  -31.8606   23.2026 C   0  0  0  0  0  0
  -25.9111  -32.4784   23.8352 C   0  0  1  0  0  0
  -27.2220  -27.3194   20.1159 C   0  0  0  0  0  0
  -25.5929  -33.8587   24.2285 N   0  0  0  0  0  0
  -23.4190  -30.4845   21.5463 C   0  0  2  0  0  0
  -24.8641  -28.9398   20.1108 C   0  0  0  0  0  0
  -22.7473  -29.4632   22.4951 C   0  0  0  0  0  0
  -18.0285  -28.1384   22.8493 C   0  0  0  0  0  0
  -24.1489  -36.7296   23.2635 C   0  0  0  0  0  0
  -25.9596  -30.7920   21.3725 C   0  0  0  0  0  0
  -26.0332  -29.4188   20.7152 C   0  0  0  0  0  0
  -27.2150  -28.6203   20.7078 C   0  0  0  0  0  0
  -26.0294  -26.8945   19.4855 C   0  0  0  0  0  0
  -24.8641  -27.6831   19.4874 C   0  0  0  0  0  0
  -23.6322  -29.8199   20.1612 C   0  0  0  0  0  0
  -25.4115  -36.3092   24.0328 C   0  0  1  0  0  0
  -20.5885  -28.3693   23.1290 C   0  0  2  0  0  0
  -20.6780  -26.9420   22.5411 C   0  0  0  0  0  0
  -19.5750  -26.6385   21.5222 C   0  0  0  0  0  0
  -18.1930  -26.7926   22.1632 C   0  0  0  0  0  0
  -19.1537  -28.8857   23.2885 C   0  0  0  0  0  0
  -18.9459  -30.1459   23.8903 C   0  0  0  0  0  0
  -17.6458  -30.6589   24.0568 C   0  0  0  0  0  0
  -25.9052  -34.9460   23.5108 C   0  0  0  0  0  0
  -16.5350  -29.9088   23.6329 C   0  0  0  0  0  0
  -16.7271  -28.6502   23.0356 C   0  0  0  0  0  0
  -26.4493  -31.6590   25.0721 C   0  0  0  0  0  0
  -25.3730  -31.3734   26.1451 C   0  0  0  0  0  0
  -27.0322  -30.3013   24.6163 C   0  0  0  0  0  0
  -27.6060  -32.4314   25.7488 C   0  0  0  0  0  0
  -27.5587  -37.1799   24.8459 C   0  0  0  0  0  0
  -21.4190  -29.3048   22.3690 N   0  0  0  0  0  0
  -26.4291  -37.3785   23.9413 N   0  0  0  0  0  0
  -24.6873  -31.0618   22.0977 N   0  0  0  0  0  0
  -23.4199  -28.8176   23.3031 O   0  0  0  0  0  0
  -28.3411  -26.4727   20.1707 O   0  0  0  0  0  0
  -26.5623  -34.8926   22.4677 O   0  0  0  0  0  0
  -23.5431  -32.1407   23.7360 O   0  0  0  0  0  0
  -31.1162  -19.3034   20.3510 C   0  0  0  0  0  0
  -31.1004  -17.8774   20.3973 C   0  0  0  0  0  0
  -28.7759  -19.3897   20.8855 C   0  0  0  0  0  0
  -29.9660  -20.1095   20.5997 C   0  0  0  0  0  0
  -29.9153  -17.1624   20.7048 C   0  0  0  0  0  0
  -28.7574  -17.9595   20.9348 C   0  0  0  0  0  0
  -30.1119  -21.6471   20.6956 C   0  0  0  0  0  0
  -29.3045  -24.0448   20.4876 C   0  0  0  0  0  0
  -28.1343  -25.0109   20.0206 C   0  0  0  0  0  0
  -29.7979  -15.7053   20.8234 N   0  0  0  0  0  0
  -29.1186  -22.5419   20.3987 N   0  0  0  0  0  0
  -31.2177  -22.0799   21.0286 O   0  0  0  0  0  0
  -27.5944  -17.3289   21.2274 F   0  0  0  0  0  0
  -31.4809  -12.5318   19.1513 H   0  0  0  0  0  0
  -30.3779  -11.4091   19.8992 H   0  0  0  0  0  0
  -29.7773  -11.7659   17.4794 H   0  0  0  0  0  0
  -29.6460  -13.4847   17.7481 H   0  0  0  0  0  0
  -27.8756  -11.2908   18.8731 H   0  0  0  0  0  0
  -27.3772  -12.5695   17.7975 H   0  0  0  0  0  0
  -27.6662  -14.2524   19.5197 H   0  0  0  0  0  0
  -28.7146  -12.0619   21.3828 H   0  0  0  0  0  0
  -28.4431  -13.7187   21.8424 H   0  0  0  0  0  0
  -25.2766   -9.5686   22.4753 H   0  0  0  0  0  0
  -24.0007   -7.4639   22.7472 H   0  0  0  0  0  0
  -21.0845   -8.8774   19.8954 H   0  0  0  0  0  0
  -22.3697  -10.9673   19.6166 H   0  0  0  0  0  0
  -21.2002   -7.6147   23.9719 H   0  0  0  0  0  0
  -21.1485   -6.0520   25.9079 H   0  0  0  0  0  0
  -22.0596   -2.7611   23.2848 H   0  0  0  0  0  0
  -22.4109  -11.9888   22.4799 H   0  0  0  0  0  0
  -21.1119  -13.1258   22.2613 H   0  0  0  0  0  0
  -24.6607  -15.8416   20.5557 H   0  0  0  0  0  0
  -26.2944  -15.6527   20.1882 H   0  0  0  0  0  0
  -26.7181  -32.5453   23.1102 H   0  0  0  0  0  0
  -25.0081  -33.9731   25.0434 H   0  0  0  0  0  0
  -22.7130  -31.3053   21.4043 H   0  0  0  0  0  0
  -23.3762  -35.9616   23.3279 H   0  0  0  0  0  0
  -24.3586  -36.8938   22.2053 H   0  0  0  0  0  0
  -23.7222  -37.6486   23.6668 H   0  0  0  0  0  0
  -26.0881  -31.5549   20.6035 H   0  0  0  0  0  0
  -26.8413  -30.8427   21.9997 H   0  0  0  0  0  0
  -28.1112  -28.9832   21.1912 H   0  0  0  0  0  0
  -25.9688  -25.9356   18.9931 H   0  0  0  0  0  0
  -23.9683  -27.3112   19.0096 H   0  0  0  0  0  0
  -23.7502  -30.5963   19.4044 H   0  0  0  0  0  0
  -22.7520  -29.2488   19.8598 H   0  0  0  0  0  0
  -25.1294  -36.1945   25.0820 H   0  0  0  0  0  0
  -20.9973  -28.3265   24.1411 H   0  0  0  0  0  0
  -20.5700  -26.2306   23.3611 H   0  0  0  0  0  0
  -21.6647  -26.7463   22.1194 H   0  0  0  0  0  0
  -19.6915  -25.6296   21.1253 H   0  0  0  0  0  0
  -19.6683  -27.3199   20.6754 H   0  0  0  0  0  0
  -17.4203  -26.6682   21.4029 H   0  0  0  0  0  0
  -18.0326  -26.0065   22.9024 H   0  0  0  0  0  0
  -19.7934  -30.7276   24.2274 H   0  0  0  0  0  0
  -17.5010  -31.6269   24.5167 H   0  0  0  0  0  0
  -15.5350  -30.2992   23.7644 H   0  0  0  0  0  0
  -15.8674  -28.0819   22.7075 H   0  0  0  0  0  0
  -24.5855  -30.7150   25.7763 H   0  0  0  0  0  0
  -24.8984  -32.2913   26.4932 H   0  0  0  0  0  0
  -25.8038  -30.8838   27.0193 H   0  0  0  0  0  0
  -26.2884  -29.6772   24.1192 H   0  0  0  0  0  0
  -27.4028  -29.7259   25.4657 H   0  0  0  0  0  0
  -27.8754  -30.4302   23.9374 H   0  0  0  0  0  0
  -27.2675  -33.3603   26.2090 H   0  0  0  0  0  0
  -28.3855  -32.6890   25.0305 H   0  0  0  0  0  0
  -28.0745  -31.8422   26.5382 H   0  0  0  0  0  0
  -28.2586  -38.0115   24.7543 H   0  0  0  0  0  0
  -28.1102  -36.2649   24.6237 H   0  0  0  0  0  0
  -27.2311  -37.1394   25.8861 H   0  0  0  0  0  0
  -20.9371  -29.8773   21.6901 H   0  0  0  0  0  0
  -26.0176  -38.2858   24.1430 H   0  0  0  0  0  0
  -32.0595  -19.7920   20.1480 H   0  0  0  0  0  0
  -32.0237  -17.3470   20.2155 H   0  0  0  0  0  0
  -27.8672  -19.9294   21.1088 H   0  0  0  0  0  0
  -29.5403  -24.2846   21.5251 H   0  0  0  0  0  0
  -30.1960  -24.3070   19.9163 H   0  0  0  0  0  0
  -27.2386  -24.7253   20.5743 H   0  0  0  0  0  0
  -27.9302  -24.8070   18.9688 H   0  0  0  0  0  0
  -28.8759  -15.4081   21.1053 H   0  0  0  0  0  0
  -28.2158  -22.1849   20.1167 H   0  0  0  0  0  0
  1 25  1  0  0  0
  1 30  2  0  0  0
  1 80  1  0  0  0
  2  3  1  0  0  0
  2 25  1  0  0  0
  2 84  1  0  0  0
  2 85  1  0  0  0
  3  4  1  0  0  0
  3 86  1  0  0  0
  3 87  1  0  0  0
  4  5  1  0  0  0
  4 88  1  0  0  0
  4 89  1  0  0  0
  5  6  1  0  0  0
  5 26  1  0  0  0
  5 90  1  0  0  0
  6 25  1  0  0  0
  6 91  1  0  0  0
  6 92  1  0  0  0
  7  8  2  0  0  0
  7 26  1  0  0  0
  7 29  1  0  0  0
  8  9  1  0  0  0
  8 22  1  0  0  0
  9 10  1  0  0  0
  9 27  2  0  0  0
 10 11  2  0  0  0
 10 15  1  0  0  0
 11 12  1  0  0  0
 11 93  1  0  0  0
 12 13  2  0  0  0
 12 94  1  0  0  0
 13 14  1  0  0  0
 13 31  1  0  0  0
 14 15  2  0  0  0
 14 95  1  0  0  0
 15 96  1  0  0  0
 16 17  2  0  0  0
 16 21  1  0  0  0
 16 31  1  0  0  0
 17 18  1  0  0  0
 17 97  1  0  0  0
 18 19  2  0  0  0
 18 98  1  0  0  0
 19 20  1  0  0  0
 19 24  1  0  0  0
 20 21  2  0  0  0
 20 99  1  0  0  0
 21 23  1  0  0  0
 22 28  1  0  0  0
 22 32  2  0  0  0
 26 27  1  0  0  0
 28100  1  0  0  0
 28101  1  0  0  0
 29102  1  0  0  0
 29103  1  0  0  0
 33 34  1  0  0  0
 33 66  1  0  0  0
 33 70  2  0  0  0
 34 36  1  0  0  0
 34 59  1  0  0  0
 34104  1  0  0  0
 35 44  2  0  0  0
 35 45  1  0  0  0
 35 68  1  0  0  0
 36 56  1  0  0  0
 36105  1  0  0  0
 37 39  1  0  0  0
 37 47  1  0  0  0
 37 66  1  0  0  0
 37106  1  0  0  0
 38 43  2  0  0  0
 38 46  1  0  0  0
 38 47  1  0  0  0
 39 64  1  0  0  0
 39 67  2  0  0  0
 40 52  1  0  0  0
 40 53  2  0  0  0
 40 58  1  0  0  0
 41107  1  0  0  0
 41108  1  0  0  0
 41109  1  0  0  0
 41 48  1  0  0  0
 42 43  1  0  0  0
 42 66  1  0  0  0
 42110  1  0  0  0
 42111  1  0  0  0
 43 44  1  0  0  0
 44112  1  0  0  0
 45 46  2  0  0  0
 45113  1  0  0  0
 46114  1  0  0  0
 47115  1  0  0  0
 47116  1  0  0  0
 48 56  1  0  0  0
 48 65  1  0  0  0
 48117  1  0  0  0
 49 50  1  0  0  0
 49 53  1  0  0  0
 49 64  1  0  0  0
 49118  1  0  0  0
 50 51  1  0  0  0
 50119  1  0  0  0
 50120  1  0  0  0
 51 52  1  0  0  0
 51121  1  0  0  0
 51122  1  0  0  0
 52123  1  0  0  0
 52124  1  0  0  0
 53 54  1  0  0  0
 54 55  2  0  0  0
 54125  1  0  0  0
 55 57  1  0  0  0
 55126  1  0  0  0
 56 69  2  0  0  0
 57 58  2  0  0  0
 57127  1  0  0  0
 58128  1  0  0  0
 59 60  1  0  0  0
 59 61  1  0  0  0
 59 62  1  0  0  0
 60129  1  0  0  0
 60130  1  0  0  0
 60131  1  0  0  0
 61132  1  0  0  0
 61133  1  0  0  0
 61134  1  0  0  0
 62135  1  0  0  0
 62136  1  0  0  0
 62137  1  0  0  0
 63 65  1  0  0  0
 63138  1  0  0  0
 63139  1  0  0  0
 63140  1  0  0  0
 64141  1  0  0  0
 65142  1  0  0  0
 68 79  1  0  0  0
 71 72  2  0  0  0
 71 74  1  0  0  0
 71143  1  0  0  0
 72 75  1  0  0  0
 72144  1  0  0  0
 73 74  2  0  0  0
 73 76  1  0  0  0
 73145  1  0  0  0
 74 77  1  0  0  0
 75 76  2  0  0  0
 75 80  1  0  0  0
 76 83  1  0  0  0
 77 81  1  0  0  0
 77 82  2  0  0  0
 78 79  1  0  0  0
 78 81  1  0  0  0
 78146  1  0  0  0
 78147  1  0  0  0
 79148  1  0  0  0
 79149  1  0  0  0
 80150  1  0  0  0
 81151  1  0  0  0
M  ISO  4   1 100  68 101  79 101  80 100
M  END
> <chiral flag>
0

> <version>
0

> <s_m_source_file>
/data/baiqing/PycharmProjects/Reinvent-master-3.2/result/LINK_invent/BTK/process_docking_weight1_custom_product_contain_oxygen_bond_distance_aromatic_linkinvent_7_9_3/rearranged_h_0090.sdf

> <i_m_source_file_index>
43

> <r_mmod_Potential_Energy-OPLS-2005>
-77.2847366333008

> <r_mmod_Stretch_Energy-OPLS-2005>
78.8824691772461

> <r_mmod_Bend_Energy-OPLS-2005>
141.790603637695

> <r_mmod_Torsional_Energy-OPLS-2005>
217.442764282227

> <r_mmod_Improper_Torsional_Energy-OPLS-2005>
4.70903921127319

> <r_mmod_Van_der_Waal_Energy-OPLS-2005>
148.05241394043

> <r_mmod_Electrostatic_Energy-OPLS-2005>
-492.010955810547

> <r_mmod_Solvation_Energy-OPLS-2005>
-227.451812744141

> <b_mmod_Minimization_Converged-OPLS-2005>
0

> <r_mmod_RMS_Derivative-OPLS-2005>
0.871422171592712

$$$$
43
                    3D
 Structure written by MMmdl.
162171  0  0  1  0            999 V2000
  -30.6346  -14.5708   20.5643 C   0  0  0  0  0  0
  -30.4432  -12.3621   19.4434 C   0  0  0  0  0  0
  -29.5113  -12.5173   18.2218 C   0  0  0  0  0  0
  -28.0323  -12.3570   18.6283 C   0  0  0  0  0  0
  -27.6622  -13.2066   19.8716 C   0  0  2  0  0  0
  -28.7000  -13.0050   20.9986 C   0  0  0  0  0  0
  -25.2592  -13.8139   20.5612 C   0  0  0  0  0  0
  -24.1860  -13.0440   20.9209 C   0  0  0  0  0  0
  -24.6407  -11.6906   20.8757 C   0  0  0  0  0  0
  -23.9068  -10.4293   21.0417 C   0  0  0  0  0  0
  -24.3613   -9.4200   21.9184 C   0  0  0  0  0  0
  -23.6283   -8.2241   22.0755 C   0  0  0  0  0  0
  -22.4263   -8.0285   21.3553 C   0  0  0  0  0  0
  -21.9905   -9.0262   20.4655 C   0  0  0  0  0  0
  -22.7246  -10.2135   20.3062 C   0  0  0  0  0  0
  -21.6851   -6.0730   22.5279 C   0  0  0  0  0  0
  -21.4010   -6.5635   23.8209 C   0  0  0  0  0  0
  -21.3657   -5.6791   24.9178 C   0  0  0  0  0  0
  -21.6044   -4.3054   24.7232 C   0  0  0  0  0  0
  -21.8816   -3.8147   23.4354 C   0  0  0  0  0  0
  -21.9192   -4.6959   22.3410 C   0  0  0  0  0  0
  -22.7880  -13.5250   21.1857 C   0  0  0  0  0  0
  -22.1658   -4.2147   21.0983 F   0  0  0  0  0  0
  -21.5629   -3.4538   25.7742 F   0  0  0  0  0  0
  -30.0277  -13.3494   20.4582 N   0  0  0  0  0  0
  -26.3017  -12.9307   20.3291 N   0  0  0  0  0  0
  -25.9325  -11.6478   20.5743 N   0  0  0  0  0  0
  -22.0493  -12.8260   22.0407 N   0  0  0  0  0  0
  -25.4285  -15.1835   20.3816 N   0  0  0  0  0  0
  -31.7559  -14.7858   20.0924 O   0  0  0  0  0  0
  -21.6633   -6.8880   21.4242 O   0  0  0  0  0  0
  -22.3580  -14.5552   20.6684 O   0  0  0  0  0  0
  -24.6195  -31.8646   23.2057 C   0  0  0  0  0  0
  -25.9062  -32.4809   23.8387 C   0  0  1  0  0  0
  -27.2332  -27.3893   20.1056 C   0  0  0  0  0  0
  -25.5889  -33.8605   24.2320 N   0  0  0  0  0  0
  -23.4125  -30.4861   21.5474 C   0  0  2  0  0  0
  -24.8613  -28.9461   20.1156 C   0  0  0  0  0  0
  -22.7453  -29.4632   22.4965 C   0  0  0  0  0  0
  -18.0280  -28.1402   22.8502 C   0  0  0  0  0  0
  -24.1479  -36.7313   23.2640 C   0  0  0  0  0  0
  -25.9456  -30.8179   21.3653 C   0  0  0  0  0  0
  -26.0250  -29.4463   20.7157 C   0  0  0  0  0  0
  -27.2174  -28.6763   20.7065 C   0  0  0  0  0  0
  -26.0534  -26.9143   19.5009 C   0  0  0  0  0  0
  -24.8725  -27.6812   19.5031 C   0  0  0  0  0  0
  -23.6254  -29.8185   20.1629 C   0  0  0  0  0  0
  -25.4096  -36.3104   24.0344 C   0  0  1  0  0  0
  -20.5876  -28.3687   23.1312 C   0  0  2  0  0  0
  -20.6754  -26.9414   22.5425 C   0  0  0  0  0  0
  -19.5727  -26.6398   21.5224 C   0  0  0  0  0  0
  -18.1911  -26.7948   22.1635 C   0  0  0  0  0  0
  -19.1534  -28.8860   23.2904 C   0  0  0  0  0  0
  -18.9454  -30.1460   23.8919 C   0  0  0  0  0  0
  -17.6456  -30.6593   24.0575 C   0  0  0  0  0  0
  -25.9037  -34.9468   23.5136 C   0  0  0  0  0  0
  -16.5348  -29.9101   23.6324 C   0  0  0  0  0  0
  -16.7268  -28.6519   23.0349 C   0  0  0  0  0  0
  -26.4463  -31.6597   25.0733 C   0  0  0  0  0  0
  -25.3715  -31.3714   26.1477 C   0  0  0  0  0  0
  -27.0301  -30.3034   24.6133 C   0  0  0  0  0  0
  -27.6051  -32.4310   25.7489 C   0  0  0  0  0  0
  -27.5577  -37.1809   24.8461 C   0  0  0  0  0  0
  -21.4168  -29.3040   22.3714 N   0  0  0  0  0  0
  -26.4282  -37.3791   23.9418 N   0  0  0  0  0  0
  -24.6779  -31.0719   22.0976 N   0  0  0  0  0  0
  -23.4197  -28.8162   23.3018 O   0  0  0  0  0  0
  -28.3461  -26.5666   20.0826 O   0  0  0  0  0  0
  -26.5606  -34.8917   22.4704 O   0  0  0  0  0  0
  -23.5367  -32.1409   23.7414 O   0  0  0  0  0  0
  -28.4605  -19.0113   21.3463 C   0  0  0  0  0  0
  -30.8149  -17.8045   20.4226 C   0  0  0  0  0  0
  -29.4422  -19.8529   20.7640 C   0  0  0  0  0  0
  -28.6375  -17.6098   21.4557 C   0  0  0  0  0  0
  -29.8109  -16.9726   20.9820 C   0  0  0  0  0  0
  -30.6455  -19.2212   20.3297 C   0  0  0  0  0  0
  -28.8450  -24.2964   20.9277 C   0  0  0  0  0  0
  -29.4065  -22.0584   19.5876 C   0  0  0  0  0  0
  -28.3960  -25.5791   21.0532 C   0  0  0  0  0  0
  -29.3303  -23.6185   19.6465 C   0  0  0  0  0  0
  -28.9697  -23.3930   22.1427 C   0  0  0  0  0  0
  -28.5456  -21.9340   21.8602 C   0  0  0  0  0  0
  -32.7957  -20.0644   20.7021 C   0  0  0  0  0  0
  -29.2265  -21.3013   20.7134 N   0  0  0  0  0  0
  -27.6313  -16.8493   22.0547 N   0  0  0  0  0  0
  -29.8816  -15.5366   21.1525 N   0  0  0  0  0  0
  -29.6314  -21.5528   18.4827 O   0  0  0  0  0  0
  -31.6688  -19.9908   19.8404 O   0  0  0  0  0  0
  -31.4854  -12.4883   19.1442 H   0  0  0  0  0  0
  -30.3761  -11.3528   19.8524 H   0  0  0  0  0  0
  -29.7707  -11.7859   17.4552 H   0  0  0  0  0  0
  -29.6627  -13.4993   17.7715 H   0  0  0  0  0  0
  -27.8593  -11.3010   18.8400 H   0  0  0  0  0  0
  -27.3828  -12.6097   17.7900 H   0  0  0  0  0  0
  -27.7031  -14.2517   19.5625 H   0  0  0  0  0  0
  -28.6967  -11.9666   21.3328 H   0  0  0  0  0  0
  -28.4384  -13.5898   21.8818 H   0  0  0  0  0  0
  -25.2751   -9.5671   22.4768 H   0  0  0  0  0  0
  -23.9996   -7.4624   22.7463 H   0  0  0  0  0  0
  -21.0842   -8.8789   19.8952 H   0  0  0  0  0  0
  -22.3710  -10.9676   19.6176 H   0  0  0  0  0  0
  -21.1999   -7.6139   23.9721 H   0  0  0  0  0  0
  -21.1478   -6.0514   25.9080 H   0  0  0  0  0  0
  -22.0598   -2.7609   23.2856 H   0  0  0  0  0  0
  -22.4072  -11.9921   22.4822 H   0  0  0  0  0  0
  -21.1101  -13.1288   22.2567 H   0  0  0  0  0  0
  -24.6204  -15.7948   20.4177 H   0  0  0  0  0  0
  -26.1705  -15.5595   19.8047 H   0  0  0  0  0  0
  -26.7142  -32.5513   23.1160 H   0  0  0  0  0  0
  -25.0001  -33.9758   25.0436 H   0  0  0  0  0  0
  -22.7031  -31.3033   21.4044 H   0  0  0  0  0  0
  -23.3731  -35.9659   23.3308 H   0  0  0  0  0  0
  -24.3565  -36.8919   22.2052 H   0  0  0  0  0  0
  -23.7243  -37.6527   23.6647 H   0  0  0  0  0  0
  -26.0611  -31.5790   20.5920 H   0  0  0  0  0  0
  -26.8315  -30.8749   21.9864 H   0  0  0  0  0  0
  -28.1186  -29.0545   21.1688 H   0  0  0  0  0  0
  -26.0507  -25.9398   19.0340 H   0  0  0  0  0  0
  -23.9797  -27.2907   19.0349 H   0  0  0  0  0  0
  -23.7403  -30.5918   19.4023 H   0  0  0  0  0  0
  -22.7480  -29.2421   19.8652 H   0  0  0  0  0  0
  -25.1269  -36.1973   25.0838 H   0  0  0  0  0  0
  -20.9981  -28.3251   24.1428 H   0  0  0  0  0  0
  -20.5650  -26.2290   23.3614 H   0  0  0  0  0  0
  -21.6621  -26.7439   22.1223 H   0  0  0  0  0  0
  -19.6870  -25.6312   21.1242 H   0  0  0  0  0  0
  -19.6655  -27.3208   20.6753 H   0  0  0  0  0  0
  -17.4180  -26.6709   21.4037 H   0  0  0  0  0  0
  -18.0290  -26.0092   22.9026 H   0  0  0  0  0  0
  -19.7929  -30.7275   24.2293 H   0  0  0  0  0  0
  -17.5009  -31.6273   24.5180 H   0  0  0  0  0  0
  -15.5347  -30.3009   23.7636 H   0  0  0  0  0  0
  -15.8667  -28.0841   22.7060 H   0  0  0  0  0  0
  -24.5888  -30.7058   25.7815 H   0  0  0  0  0  0
  -24.8892  -32.2864   26.4932 H   0  0  0  0  0  0
  -25.8052  -30.8882   27.0243 H   0  0  0  0  0  0
  -26.2861  -29.6796   24.1160 H   0  0  0  0  0  0
  -27.4030  -29.7272   25.4614 H   0  0  0  0  0  0
  -27.8711  -30.4350   23.9319 H   0  0  0  0  0  0
  -27.2703  -33.3615   26.2088 H   0  0  0  0  0  0
  -28.3847  -32.6861   25.0298 H   0  0  0  0  0  0
  -28.0734  -31.8413   26.5382 H   0  0  0  0  0  0
  -28.2603  -38.0099   24.7512 H   0  0  0  0  0  0
  -28.1065  -36.2634   24.6277 H   0  0  0  0  0  0
  -27.2302  -37.1472   25.8865 H   0  0  0  0  0  0
  -20.9333  -29.8805   21.6969 H   0  0  0  0  0  0
  -26.0169  -38.2871   24.1408 H   0  0  0  0  0  0
  -27.5425  -19.4490   21.7115 H   0  0  0  0  0  0
  -31.7379  -17.3663   20.0744 H   0  0  0  0  0  0
  -28.0831  -25.9696   22.0134 H   0  0  0  0  0  0
  -30.3412  -23.9809   19.4609 H   0  0  0  0  0  0
  -28.7246  -23.9753   18.8128 H   0  0  0  0  0  0
  -28.3893  -23.7969   22.9732 H   0  0  0  0  0  0
  -30.0126  -23.4057   22.4625 H   0  0  0  0  0  0
  -27.4704  -21.8979   21.6788 H   0  0  0  0  0  0
  -28.7241  -21.3463   22.7620 H   0  0  0  0  0  0
  -33.5285  -20.7543   20.2845 H   0  0  0  0  0  0
  -33.2819  -19.0960   20.8238 H   0  0  0  0  0  0
  -32.5101  -20.4405   21.6863 H   0  0  0  0  0  0
  -26.8303  -17.3789   22.3807 H   0  0  0  0  0  0
  -27.2916  -16.0505   21.5299 H   0  0  0  0  0  0
  -29.0661  -15.1813   21.6283 H   0  0  0  0  0  0
  1 25  1  0  0  0
  1 30  2  0  0  0
  1 86  1  0  0  0
  2  3  1  0  0  0
  2 25  1  0  0  0
  2 89  1  0  0  0
  2 90  1  0  0  0
  3  4  1  0  0  0
  3 91  1  0  0  0
  3 92  1  0  0  0
  4  5  1  0  0  0
  4 93  1  0  0  0
  4 94  1  0  0  0
  5  6  1  0  0  0
  5 26  1  0  0  0
  5 95  1  0  0  0
  6 25  1  0  0  0
  6 96  1  0  0  0
  6 97  1  0  0  0
  7  8  2  0  0  0
  7 26  1  0  0  0
  7 29  1  0  0  0
  8  9  1  0  0  0
  8 22  1  0  0  0
  9 10  1  0  0  0
  9 27  2  0  0  0
 10 11  2  0  0  0
 10 15  1  0  0  0
 11 12  1  0  0  0
 11 98  1  0  0  0
 12 13  2  0  0  0
 12 99  1  0  0  0
 13 14  1  0  0  0
 13 31  1  0  0  0
 14 15  2  0  0  0
 14100  1  0  0  0
 15101  1  0  0  0
 16 17  2  0  0  0
 16 21  1  0  0  0
 16 31  1  0  0  0
 17 18  1  0  0  0
 17102  1  0  0  0
 18 19  2  0  0  0
 18103  1  0  0  0
 19 20  1  0  0  0
 19 24  1  0  0  0
 20 21  2  0  0  0
 20104  1  0  0  0
 21 23  1  0  0  0
 22 28  1  0  0  0
 22 32  2  0  0  0
 26 27  1  0  0  0
 28105  1  0  0  0
 28106  1  0  0  0
 29107  1  0  0  0
 29108  1  0  0  0
 33 34  1  0  0  0
 33 66  1  0  0  0
 33 70  2  0  0  0
 34 36  1  0  0  0
 34 59  1  0  0  0
 34109  1  0  0  0
 35 44  2  0  0  0
 35 45  1  0  0  0
 35 68  1  0  0  0
 36 56  1  0  0  0
 36110  1  0  0  0
 37 39  1  0  0  0
 37 47  1  0  0  0
 37 66  1  0  0  0
 37111  1  0  0  0
 38 43  2  0  0  0
 38 46  1  0  0  0
 38 47  1  0  0  0
 39 64  1  0  0  0
 39 67  2  0  0  0
 40 52  1  0  0  0
 40 53  2  0  0  0
 40 58  1  0  0  0
 41112  1  0  0  0
 41113  1  0  0  0
 41114  1  0  0  0
 41 48  1  0  0  0
 42 43  1  0  0  0
 42 66  1  0  0  0
 42115  1  0  0  0
 42116  1  0  0  0
 43 44  1  0  0  0
 44117  1  0  0  0
 45 46  2  0  0  0
 45118  1  0  0  0
 46119  1  0  0  0
 47120  1  0  0  0
 47121  1  0  0  0
 48 56  1  0  0  0
 48 65  1  0  0  0
 48122  1  0  0  0
 49 50  1  0  0  0
 49 53  1  0  0  0
 49 64  1  0  0  0
 49123  1  0  0  0
 50 51  1  0  0  0
 50124  1  0  0  0
 50125  1  0  0  0
 51 52  1  0  0  0
 51126  1  0  0  0
 51127  1  0  0  0
 52128  1  0  0  0
 52129  1  0  0  0
 53 54  1  0  0  0
 54 55  2  0  0  0
 54130  1  0  0  0
 55 57  1  0  0  0
 55131  1  0  0  0
 56 69  2  0  0  0
 57 58  2  0  0  0
 57132  1  0  0  0
 58133  1  0  0  0
 59 60  1  0  0  0
 59 61  1  0  0  0
 59 62  1  0  0  0
 60134  1  0  0  0
 60135  1  0  0  0
 60136  1  0  0  0
 61137  1  0  0  0
 61138  1  0  0  0
 61139  1  0  0  0
 62140  1  0  0  0
 62141  1  0  0  0
 62142  1  0  0  0
 63 65  1  0  0  0
 63143  1  0  0  0
 63144  1  0  0  0
 63145  1  0  0  0
 64146  1  0  0  0
 65147  1  0  0  0
 68 79  1  0  0  0
 71 73  2  0  0  0
 71 74  1  0  0  0
 71148  1  0  0  0
 72 75  1  0  0  0
 72 76  2  0  0  0
 72149  1  0  0  0
 73 76  1  0  0  0
 73 84  1  0  0  0
 74 75  2  0  0  0
 74 85  1  0  0  0
 75 86  1  0  0  0
 76 88  1  0  0  0
 77 79  2  0  0  0
 77 80  1  0  0  0
 77 81  1  0  0  0
 78 80  1  0  0  0
 78 84  1  0  0  0
 78 87  2  0  0  0
 79150  1  0  0  0
 80151  1  0  0  0
 80152  1  0  0  0
 81 82  1  0  0  0
 81153  1  0  0  0
 81154  1  0  0  0
 82 84  1  0  0  0
 82155  1  0  0  0
 82156  1  0  0  0
 83 88  1  0  0  0
 83157  1  0  0  0
 83158  1  0  0  0
 83159  1  0  0  0
 85160  1  0  0  0
 85161  1  0  0  0
 86162  1  0  0  0
M  ISO  4   1 100  68 101  79 101  86 100
M  END
> <chiral flag>
0

> <version>
0

> <s_m_source_file>
/data/baiqing/PycharmProjects/Reinvent-master-3.2/result/LINK_invent/BTK/process_docking_weight1_custom_product_contain_oxygen_bond_distance_aromatic_linkinvent_7_9_3/rearranged_h_0090.sdf

> <i_m_source_file_index>
44

> <r_mmod_Potential_Energy-OPLS-2005>
-20.3827610015869

> <r_mmod_Stretch_Energy-OPLS-2005>
57.1510543823242

> <r_mmod_Bend_Energy-OPLS-2005>
123.507431030273

> <r_mmod_Torsional_Energy-OPLS-2005>
322.877838134766

> <r_mmod_Improper_Torsional_Energy-OPLS-2005>
11.0978736877441

> <r_mmod_Van_der_Waal_Energy-OPLS-2005>
155.654937744141

> <r_mmod_Electrostatic_Energy-OPLS-2005>
-490.741363525391

> <r_mmod_Solvation_Energy-OPLS-2005>
-226.199127197266

> <b_mmod_Minimization_Converged-OPLS-2005>
0

> <r_mmod_RMS_Derivative-OPLS-2005>
1.83522963523865

$$$$
44
                    3D
 Structure written by MMmdl.
154162  0  0  1  0            999 V2000
  -30.5975  -14.6851   20.4797 C   0  0  0  0  0  0
  -30.4409  -12.4185   19.4617 C   0  0  0  0  0  0
  -29.5113  -12.5162   18.2304 C   0  0  0  0  0  0
  -28.0353  -12.3415   18.6404 C   0  0  0  0  0  0
  -27.6505  -13.2200   19.8605 C   0  0  2  0  0  0
  -28.6938  -13.0954   20.9933 C   0  0  0  0  0  0
  -25.2552  -13.8178   20.5689 C   0  0  0  0  0  0
  -24.1823  -13.0438   20.9184 C   0  0  0  0  0  0
  -24.6396  -11.6910   20.8729 C   0  0  0  0  0  0
  -23.9064  -10.4290   21.0400 C   0  0  0  0  0  0
  -24.3617   -9.4206   21.9180 C   0  0  0  0  0  0
  -23.6285   -8.2244   22.0752 C   0  0  0  0  0  0
  -22.4269   -8.0280   21.3538 C   0  0  0  0  0  0
  -21.9902   -9.0258   20.4644 C   0  0  0  0  0  0
  -22.7233  -10.2136   20.3052 C   0  0  0  0  0  0
  -21.6854   -6.0733   22.5276 C   0  0  0  0  0  0
  -21.4018   -6.5638   23.8209 C   0  0  0  0  0  0
  -21.3659   -5.6790   24.9169 C   0  0  0  0  0  0
  -21.6043   -4.3052   24.7223 C   0  0  0  0  0  0
  -21.8821   -3.8141   23.4345 C   0  0  0  0  0  0
  -21.9193   -4.6959   22.3401 C   0  0  0  0  0  0
  -22.7846  -13.5231   21.1851 C   0  0  0  0  0  0
  -22.1658   -4.2143   21.0979 F   0  0  0  0  0  0
  -21.5623   -3.4541   25.7735 F   0  0  0  0  0  0
  -30.0058  -13.4472   20.4295 N   0  0  0  0  0  0
  -26.2976  -12.9360   20.3297 N   0  0  0  0  0  0
  -25.9323  -11.6512   20.5745 N   0  0  0  0  0  0
  -22.0493  -12.8224   22.0413 N   0  0  0  0  0  0
  -25.4276  -15.1902   20.4142 N   0  0  0  0  0  0
  -31.7755  -14.8335   20.1403 O   0  0  0  0  0  0
  -21.6633   -6.8877   21.4239 O   0  0  0  0  0  0
  -22.3529  -14.5535   20.6697 O   0  0  0  0  0  0
  -24.6266  -31.8573   23.2004 C   0  0  0  0  0  0
  -25.9105  -32.4766   23.8343 C   0  0  1  0  0  0
  -27.2275  -27.3038   20.1297 C   0  0  0  0  0  0
  -25.5918  -33.8566   24.2272 N   0  0  0  0  0  0
  -23.4226  -30.4782   21.5426 C   0  0  2  0  0  0
  -24.8722  -28.9274   20.1137 C   0  0  0  0  0  0
  -22.7480  -29.4602   22.4928 C   0  0  0  0  0  0
  -18.0287  -28.1382   22.8484 C   0  0  0  0  0  0
  -24.1491  -36.7293   23.2638 C   0  0  0  0  0  0
  -25.9639  -30.7836   21.3739 C   0  0  0  0  0  0
  -26.0404  -29.4075   20.7212 C   0  0  0  0  0  0
  -27.2233  -28.6071   20.7194 C   0  0  0  0  0  0
  -26.0398  -26.8764   19.4997 C   0  0  0  0  0  0
  -24.8737  -27.6672   19.4939 C   0  0  0  0  0  0
  -23.6396  -29.8090   20.1596 C   0  0  0  0  0  0
  -25.4115  -36.3075   24.0328 C   0  0  1  0  0  0
  -20.5889  -28.3683   23.1282 C   0  0  2  0  0  0
  -20.6780  -26.9404   22.5406 C   0  0  0  0  0  0
  -19.5752  -26.6380   21.5212 C   0  0  0  0  0  0
  -18.1935  -26.7920   22.1629 C   0  0  0  0  0  0
  -19.1541  -28.8849   23.2876 C   0  0  0  0  0  0
  -18.9463  -30.1455   23.8890 C   0  0  0  0  0  0
  -17.6462  -30.6581   24.0563 C   0  0  0  0  0  0
  -25.9051  -34.9444   23.5103 C   0  0  0  0  0  0
  -16.5352  -29.9080   23.6330 C   0  0  0  0  0  0
  -16.7277  -28.6500   23.0346 C   0  0  0  0  0  0
  -26.4489  -31.6581   25.0717 C   0  0  0  0  0  0
  -25.3724  -31.3728   26.1449 C   0  0  0  0  0  0
  -27.0338  -30.3007   24.6177 C   0  0  0  0  0  0
  -27.6050  -32.4316   25.7482 C   0  0  0  0  0  0
  -27.5581  -37.1797   24.8461 C   0  0  0  0  0  0
  -21.4192  -29.3033   22.3673 N   0  0  0  0  0  0
  -26.4292  -37.3769   23.9407 N   0  0  0  0  0  0
  -24.6897  -31.0570   22.0961 N   0  0  0  0  0  0
  -23.4195  -28.8147   23.3018 O   0  0  0  0  0  0
  -28.3334  -26.4382   20.1309 O   0  0  0  0  0  0
  -26.5626  -34.8911   22.4675 O   0  0  0  0  0  0
  -23.5426  -32.1374   23.7323 O   0  0  0  0  0  0
  -30.0569  -19.3266   19.2751 C   0  0  0  0  0  0
  -29.1079  -19.4452   21.4670 C   0  0  0  0  0  0
  -30.1970  -17.8973   19.3666 C   0  0  0  0  0  0
  -29.5048  -20.1481   20.2976 C   0  0  0  0  0  0
  -29.8131  -17.2066   20.5650 C   0  0  0  0  0  0
  -29.2569  -18.0270   21.5899 C   0  0  0  0  0  0
  -30.5803  -17.6007   16.8916 C   0  0  0  0  0  0
  -30.6304  -17.1587   18.1602 C   0  0  0  0  0  0
  -28.1571  -25.0913   20.5351 C   0  0  0  0  0  0
  -28.8967  -23.9958   20.1379 C   0  0  0  0  0  0
  -28.6574  -22.6037   20.6626 C   0  0  0  0  0  0
  -29.4191  -21.6110   20.0909 N   0  0  0  0  0  0
  -29.7655  -15.7419   20.7701 N   0  0  0  0  0  0
  -27.8350  -22.3455   21.5442 O   0  0  0  0  0  0
  -29.8800  -24.1771   19.2435 O   0  0  0  0  0  0
  -28.8261  -17.4284   22.7277 F   0  0  0  0  0  0
  -31.4810  -12.5521   19.1599 H   0  0  0  0  0  0
  -30.3849  -11.4266   19.9123 H   0  0  0  0  0  0
  -29.7846  -11.7641   17.4891 H   0  0  0  0  0  0
  -29.6434  -13.4852   17.7467 H   0  0  0  0  0  0
  -27.8832  -11.2889   18.8804 H   0  0  0  0  0  0
  -27.3794  -12.5577   17.7961 H   0  0  0  0  0  0
  -27.6611  -14.2515   19.5083 H   0  0  0  0  0  0
  -28.7134  -12.0783   21.3874 H   0  0  0  0  0  0
  -28.4336  -13.7378   21.8360 H   0  0  0  0  0  0
  -25.2772   -9.5678   22.4745 H   0  0  0  0  0  0
  -23.9990   -7.4643   22.7481 H   0  0  0  0  0  0
  -21.0824   -8.8790   19.8961 H   0  0  0  0  0  0
  -22.3697  -10.9677   19.6158 H   0  0  0  0  0  0
  -21.2016   -7.6148   23.9714 H   0  0  0  0  0  0
  -21.1475   -6.0517   25.9071 H   0  0  0  0  0  0
  -22.0600   -2.7602   23.2851 H   0  0  0  0  0  0
  -22.4110  -11.9882   22.4790 H   0  0  0  0  0  0
  -21.1119  -13.1264   22.2643 H   0  0  0  0  0  0
  -24.6665  -15.8479   20.5426 H   0  0  0  0  0  0
  -26.2778  -15.6305   20.0861 H   0  0  0  0  0  0
  -26.7171  -32.5437   23.1089 H   0  0  0  0  0  0
  -25.0064  -33.9706   25.0414 H   0  0  0  0  0  0
  -22.7170  -31.2987   21.3965 H   0  0  0  0  0  0
  -23.3737  -35.9644   23.3314 H   0  0  0  0  0  0
  -24.3576  -36.8896   22.2048 H   0  0  0  0  0  0
  -23.7266  -37.6510   23.6647 H   0  0  0  0  0  0
  -26.0946  -31.5442   20.6028 H   0  0  0  0  0  0
  -26.8445  -30.8361   22.0025 H   0  0  0  0  0  0
  -28.1226  -28.9703   21.1970 H   0  0  0  0  0  0
  -26.0085  -25.9080   19.0207 H   0  0  0  0  0  0
  -23.9794  -27.2937   19.0140 H   0  0  0  0  0  0
  -23.7583  -30.5832   19.4010 H   0  0  0  0  0  0
  -22.7603  -29.2371   19.8585 H   0  0  0  0  0  0
  -25.1291  -36.1928   25.0821 H   0  0  0  0  0  0
  -20.9981  -28.3254   24.1403 H   0  0  0  0  0  0
  -20.5685  -26.2286   23.3601 H   0  0  0  0  0  0
  -21.6646  -26.7431   22.1197 H   0  0  0  0  0  0
  -19.6915  -25.6291   21.1239 H   0  0  0  0  0  0
  -19.6692  -27.3193   20.6744 H   0  0  0  0  0  0
  -17.4197  -26.6646   21.4044 H   0  0  0  0  0  0
  -18.0352  -26.0071   22.9039 H   0  0  0  0  0  0
  -19.7936  -30.7277   24.2253 H   0  0  0  0  0  0
  -17.5011  -31.6259   24.5167 H   0  0  0  0  0  0
  -15.5353  -30.2980   23.7655 H   0  0  0  0  0  0
  -15.8676  -28.0824   22.7053 H   0  0  0  0  0  0
  -24.5872  -30.7112   25.7770 H   0  0  0  0  0  0
  -24.8956  -32.2909   26.4896 H   0  0  0  0  0  0
  -25.8046  -30.8872   27.0207 H   0  0  0  0  0  0
  -26.2921  -29.6749   24.1202 H   0  0  0  0  0  0
  -27.4039  -29.7268   25.4680 H   0  0  0  0  0  0
  -27.8782  -30.4294   23.9402 H   0  0  0  0  0  0
  -27.2660  -33.3610   26.2067 H   0  0  0  0  0  0
  -28.3854  -32.6886   25.0306 H   0  0  0  0  0  0
  -28.0723  -31.8439   26.5391 H   0  0  0  0  0  0
  -28.2590  -38.0101   24.7509 H   0  0  0  0  0  0
  -28.1088  -36.2633   24.6285 H   0  0  0  0  0  0
  -27.2297  -37.1437   25.8863 H   0  0  0  0  0  0
  -20.9369  -29.8751   21.6879 H   0  0  0  0  0  0
  -26.0172  -38.2843   24.1408 H   0  0  0  0  0  0
  -30.3697  -19.8225   18.3686 H   0  0  0  0  0  0
  -28.6789  -19.9867   22.2970 H   0  0  0  0  0  0
  -30.9430  -16.9799   16.0842 H   0  0  0  0  0  0
  -30.1823  -18.5672   16.6209 H   0  0  0  0  0  0
  -31.0460  -16.1775   18.2982 H   0  0  0  0  0  0
  -27.3443  -24.9959   21.2439 H   0  0  0  0  0  0
  -29.9982  -21.9814   19.3480 H   0  0  0  0  0  0
  -28.9175  -15.4398   21.2244 H   0  0  0  0  0  0
  -29.8868  -25.1019   19.0295 H   0  0  0  0  0  0
  1 25  1  0  0  0
  1 30  2  0  0  0
  1 83  1  0  0  0
  2  3  1  0  0  0
  2 25  1  0  0  0
  2 87  1  0  0  0
  2 88  1  0  0  0
  3  4  1  0  0  0
  3 89  1  0  0  0
  3 90  1  0  0  0
  4  5  1  0  0  0
  4 91  1  0  0  0
  4 92  1  0  0  0
  5  6  1  0  0  0
  5 26  1  0  0  0
  5 93  1  0  0  0
  6 25  1  0  0  0
  6 94  1  0  0  0
  6 95  1  0  0  0
  7  8  2  0  0  0
  7 26  1  0  0  0
  7 29  1  0  0  0
  8  9  1  0  0  0
  8 22  1  0  0  0
  9 10  1  0  0  0
  9 27  2  0  0  0
 10 11  2  0  0  0
 10 15  1  0  0  0
 11 12  1  0  0  0
 11 96  1  0  0  0
 12 13  2  0  0  0
 12 97  1  0  0  0
 13 14  1  0  0  0
 13 31  1  0  0  0
 14 15  2  0  0  0
 14 98  1  0  0  0
 15 99  1  0  0  0
 16 17  2  0  0  0
 16 21  1  0  0  0
 16 31  1  0  0  0
 17 18  1  0  0  0
 17100  1  0  0  0
 18 19  2  0  0  0
 18101  1  0  0  0
 19 20  1  0  0  0
 19 24  1  0  0  0
 20 21  2  0  0  0
 20102  1  0  0  0
 21 23  1  0  0  0
 22 28  1  0  0  0
 22 32  2  0  0  0
 26 27  1  0  0  0
 28103  1  0  0  0
 28104  1  0  0  0
 29105  1  0  0  0
 29106  1  0  0  0
 33 34  1  0  0  0
 33 66  1  0  0  0
 33 70  2  0  0  0
 34 36  1  0  0  0
 34 59  1  0  0  0
 34107  1  0  0  0
 35 44  2  0  0  0
 35 45  1  0  0  0
 35 68  1  0  0  0
 36 56  1  0  0  0
 36108  1  0  0  0
 37 39  1  0  0  0
 37 47  1  0  0  0
 37 66  1  0  0  0
 37109  1  0  0  0
 38 43  2  0  0  0
 38 46  1  0  0  0
 38 47  1  0  0  0
 39 64  1  0  0  0
 39 67  2  0  0  0
 40 52  1  0  0  0
 40 53  2  0  0  0
 40 58  1  0  0  0
 41110  1  0  0  0
 41111  1  0  0  0
 41112  1  0  0  0
 41 48  1  0  0  0
 42 43  1  0  0  0
 42 66  1  0  0  0
 42113  1  0  0  0
 42114  1  0  0  0
 43 44  1  0  0  0
 44115  1  0  0  0
 45 46  2  0  0  0
 45116  1  0  0  0
 46117  1  0  0  0
 47118  1  0  0  0
 47119  1  0  0  0
 48 56  1  0  0  0
 48 65  1  0  0  0
 48120  1  0  0  0
 49 50  1  0  0  0
 49 53  1  0  0  0
 49 64  1  0  0  0
 49121  1  0  0  0
 50 51  1  0  0  0
 50122  1  0  0  0
 50123  1  0  0  0
 51 52  1  0  0  0
 51124  1  0  0  0
 51125  1  0  0  0
 52126  1  0  0  0
 52127  1  0  0  0
 53 54  1  0  0  0
 54 55  2  0  0  0
 54128  1  0  0  0
 55 57  1  0  0  0
 55129  1  0  0  0
 56 69  2  0  0  0
 57 58  2  0  0  0
 57130  1  0  0  0
 58131  1  0  0  0
 59 60  1  0  0  0
 59 61  1  0  0  0
 59 62  1  0  0  0
 60132  1  0  0  0
 60133  1  0  0  0
 60134  1  0  0  0
 61135  1  0  0  0
 61136  1  0  0  0
 61137  1  0  0  0
 62138  1  0  0  0
 62139  1  0  0  0
 62140  1  0  0  0
 63 65  1  0  0  0
 63141  1  0  0  0
 63142  1  0  0  0
 63143  1  0  0  0
 64144  1  0  0  0
 65145  1  0  0  0
 68 79  1  0  0  0
 71 73  2  0  0  0
 71 74  1  0  0  0
 71146  1  0  0  0
 72 74  2  0  0  0
 72 76  1  0  0  0
 72147  1  0  0  0
 73 75  1  0  0  0
 73 78  1  0  0  0
 74 82  1  0  0  0
 75 76  2  0  0  0
 75 83  1  0  0  0
 76 86  1  0  0  0
 77 78  2  0  0  0
 77148  1  0  0  0
 77149  1  0  0  0
 78150  1  0  0  0
 79 80  2  0  0  0
 79151  1  0  0  0
 80 81  1  0  0  0
 80 85  1  0  0  0
 81 82  1  0  0  0
 81 84  2  0  0  0
 82152  1  0  0  0
 83153  1  0  0  0
 85154  1  0  0  0
M  ISO  4   1 100  68 101  79 101  83 100
M  END
> <chiral flag>
0

> <version>
0

> <s_m_source_file>
/data/baiqing/PycharmProjects/Reinvent-master-3.2/result/LINK_invent/BTK/process_docking_weight1_custom_product_contain_oxygen_bond_distance_aromatic_linkinvent_7_9_3/rearranged_h_0090.sdf

> <i_m_source_file_index>
45

> <r_mmod_Potential_Energy-OPLS-2005>
3.34998822212219

> <r_mmod_Stretch_Energy-OPLS-2005>
90.3552856445312

> <r_mmod_Bend_Energy-OPLS-2005>
149.523468017578

> <r_mmod_Torsional_Energy-OPLS-2005>
237.407287597656

> <r_mmod_Improper_Torsional_Energy-OPLS-2005>
4.78064203262329

> <r_mmod_Van_der_Waal_Energy-OPLS-2005>
147.452011108398

> <r_mmod_Electrostatic_Energy-OPLS-2005>
-470.611633300781

> <r_mmod_Solvation_Energy-OPLS-2005>
-215.627014160156

> <b_mmod_Minimization_Converged-OPLS-2005>
0

> <r_mmod_RMS_Derivative-OPLS-2005>
0.98333603143692

$$$$
45
                    3D
 Structure written by MMmdl.
153161  0  0  1  0            999 V2000
  -30.5434  -14.9775   20.3495 C   0  0  0  0  0  0
  -30.4460  -12.5927   19.4760 C   0  0  0  0  0  0
  -29.5103  -12.4288   18.2524 C   0  0  0  0  0  0
  -28.0425  -12.2686   18.6864 C   0  0  0  0  0  0
  -27.6242  -13.2392   19.8225 C   0  0  2  0  0  0
  -28.6790  -13.3150   20.9436 C   0  0  0  0  0  0
  -25.2482  -13.8215   20.5741 C   0  0  0  0  0  0
  -24.1780  -13.0451   20.9243 C   0  0  0  0  0  0
  -24.6380  -11.6930   20.8786 C   0  0  0  0  0  0
  -23.9065  -10.4300   21.0427 C   0  0  0  0  0  0
  -24.3618   -9.4210   21.9196 C   0  0  0  0  0  0
  -23.6294   -8.2243   22.0758 C   0  0  0  0  0  0
  -22.4277   -8.0283   21.3546 C   0  0  0  0  0  0
  -21.9915   -9.0259   20.4649 C   0  0  0  0  0  0
  -22.7243  -10.2140   20.3067 C   0  0  0  0  0  0
  -21.6853   -6.0737   22.5278 C   0  0  0  0  0  0
  -21.4013   -6.5640   23.8211 C   0  0  0  0  0  0
  -21.3659   -5.6793   24.9173 C   0  0  0  0  0  0
  -21.6044   -4.3056   24.7224 C   0  0  0  0  0  0
  -21.8818   -3.8148   23.4346 C   0  0  0  0  0  0
  -21.9192   -4.6964   22.3402 C   0  0  0  0  0  0
  -22.7799  -13.5226   21.1882 C   0  0  0  0  0  0
  -22.1662   -4.2150   21.0980 F   0  0  0  0  0  0
  -21.5629   -3.4540   25.7737 F   0  0  0  0  0  0
  -29.9357  -13.7207   20.3027 N   0  0  0  0  0  0
  -26.2885  -12.9424   20.3270 N   0  0  0  0  0  0
  -25.9312  -11.6569   20.5808 N   0  0  0  0  0  0
  -22.0443  -12.8214   22.0432 N   0  0  0  0  0  0
  -25.4197  -15.1938   20.4177 N   0  0  0  0  0  0
  -31.7800  -14.9892   20.3161 O   0  0  0  0  0  0
  -21.6641   -6.8880   21.4240 O   0  0  0  0  0  0
  -22.3486  -14.5528   20.6720 O   0  0  0  0  0  0
  -24.6430  -31.8442   23.1879 C   0  0  0  0  0  0
  -25.9203  -32.4696   23.8270 C   0  0  1  0  0  0
  -27.2182  -27.1418   20.1630 C   0  0  0  0  0  0
  -25.5952  -33.8501   24.2189 N   0  0  0  0  0  0
  -23.4466  -30.4625   21.5334 C   0  0  2  0  0  0
  -24.8972  -28.8853   20.1153 C   0  0  0  0  0  0
  -22.7566  -29.4547   22.4865 C   0  0  0  0  0  0
  -18.0304  -28.1395   22.8477 C   0  0  0  0  0  0
  -24.1491  -36.7257   23.2643 C   0  0  0  0  0  0
  -26.0015  -30.7210   21.3845 C   0  0  0  0  0  0
  -26.0747  -29.3305   20.7309 C   0  0  0  0  0  0
  -27.2404  -28.4766   20.7326 C   0  0  0  0  0  0
  -26.0171  -26.7919   19.5128 C   0  0  0  0  0  0
  -24.8803  -27.6288   19.4897 C   0  0  0  0  0  0
  -23.6738  -29.7882   20.1542 C   0  0  0  0  0  0
  -25.4123  -36.3033   24.0316 C   0  0  1  0  0  0
  -20.5916  -28.3719   23.1238 C   0  0  2  0  0  0
  -20.6788  -26.9423   22.5405 C   0  0  0  0  0  0
  -19.5762  -26.6381   21.5212 C   0  0  0  0  0  0
  -18.1943  -26.7934   22.1623 C   0  0  0  0  0  0
  -19.1561  -28.8876   23.2849 C   0  0  0  0  0  0
  -18.9477  -30.1472   23.8874 C   0  0  0  0  0  0
  -17.6474  -30.6591   24.0559 C   0  0  0  0  0  0
  -25.9072  -34.9408   23.5062 C   0  0  0  0  0  0
  -16.5364  -29.9084   23.6337 C   0  0  0  0  0  0
  -16.7288  -28.6503   23.0357 C   0  0  0  0  0  0
  -26.4525  -31.6563   25.0711 C   0  0  0  0  0  0
  -25.3711  -31.3749   26.1409 C   0  0  0  0  0  0
  -27.0393  -30.2962   24.6288 C   0  0  0  0  0  0
  -27.6054  -32.4331   25.7499 C   0  0  0  0  0  0
  -27.5574  -37.1786   24.8466 C   0  0  0  0  0  0
  -21.4259  -29.3047   22.3613 N   0  0  0  0  0  0
  -26.4287  -37.3745   23.9407 N   0  0  0  0  0  0
  -24.7168  -31.0303   22.0908 N   0  0  0  0  0  0
  -23.4210  -28.8099   23.3018 O   0  0  0  0  0  0
  -28.2716  -26.1618   20.1723 O   0  0  0  0  0  0
  -26.5659  -34.8906   22.4641 O   0  0  0  0  0  0
  -23.5550  -32.1313   23.7105 O   0  0  0  0  0  0
  -28.9146  -18.4777   19.1994 C   0  0  0  0  0  0
  -28.6961  -19.9036   19.3540 C   0  0  0  0  0  0
  -30.0241  -18.3572   21.2649 C   0  0  0  0  0  0
  -29.6176  -17.5967   20.1131 C   0  0  0  0  0  0
  -29.1193  -20.6561   20.4886 C   0  0  0  0  0  0
  -29.7833  -19.7931   21.4415 C   0  0  0  0  0  0
  -28.6185  -23.3322   20.0514 C   0  0  0  0  0  0
  -29.8204  -15.8982   18.3039 C   0  0  0  0  0  0
  -28.0240  -24.7290   20.7243 C   0  0  0  0  0  0
  -30.2313  -20.3912   22.6197 N   0  0  0  0  0  0
  -28.7952  -22.1280   20.7824 N   0  0  0  0  0  0
  -29.8529  -16.0965   19.7704 N   0  0  0  0  0  0
  -28.8974  -23.3547   18.8498 O   0  0  0  0  0  0
  -31.4677  -12.7727   19.1374 H   0  0  0  0  0  0
  -30.4802  -11.6745   20.0643 H   0  0  0  0  0  0
  -29.8160  -11.5571   17.6723 H   0  0  0  0  0  0
  -29.5912  -13.2665   17.5662 H   0  0  0  0  0  0
  -27.9282  -11.2399   19.0291 H   0  0  0  0  0  0
  -27.3779  -12.3754   17.8284 H   0  0  0  0  0  0
  -27.5711  -14.2256   19.3632 H   0  0  0  0  0  0
  -28.7833  -12.3597   21.4599 H   0  0  0  0  0  0
  -28.3862  -14.0520   21.6932 H   0  0  0  0  0  0
  -25.2760   -9.5684   22.4777 H   0  0  0  0  0  0
  -24.0001   -7.4632   22.7477 H   0  0  0  0  0  0
  -21.0848   -8.8780   19.8952 H   0  0  0  0  0  0
  -22.3702  -10.9683   19.6182 H   0  0  0  0  0  0
  -21.2006   -7.6148   23.9714 H   0  0  0  0  0  0
  -21.1481   -6.0524   25.9075 H   0  0  0  0  0  0
  -22.0598   -2.7611   23.2845 H   0  0  0  0  0  0
  -22.4064  -11.9878   22.4822 H   0  0  0  0  0  0
  -21.1058  -13.1235   22.2633 H   0  0  0  0  0  0
  -24.6595  -15.8533   20.5423 H   0  0  0  0  0  0
  -26.2834  -15.6343   20.1260 H   0  0  0  0  0  0
  -26.7270  -32.5309   23.1002 H   0  0  0  0  0  0
  -25.0078  -33.9612   25.0323 H   0  0  0  0  0  0
  -22.7489  -31.2879   21.3772 H   0  0  0  0  0  0
  -23.3756  -35.9586   23.3295 H   0  0  0  0  0  0
  -24.3575  -36.8901   22.2059 H   0  0  0  0  0  0
  -23.7246  -37.6450   23.6688 H   0  0  0  0  0  0
  -26.1536  -31.4735   20.6096 H   0  0  0  0  0  0
  -26.8730  -30.7747   22.0254 H   0  0  0  0  0  0
  -28.1427  -28.8166   21.2213 H   0  0  0  0  0  0
  -25.9452  -25.8279   19.0292 H   0  0  0  0  0  0
  -23.9823  -27.2831   18.9961 H   0  0  0  0  0  0
  -23.8117  -30.5606   19.3968 H   0  0  0  0  0  0
  -22.7887  -29.2300   19.8440 H   0  0  0  0  0  0
  -25.1311  -36.1859   25.0807 H   0  0  0  0  0  0
  -21.0004  -28.3309   24.1361 H   0  0  0  0  0  0
  -20.5682  -26.2332   23.3622 H   0  0  0  0  0  0
  -21.6653  -26.7430   22.1201 H   0  0  0  0  0  0
  -19.6923  -25.6286   21.1255 H   0  0  0  0  0  0
  -19.6700  -27.3180   20.6732 H   0  0  0  0  0  0
  -17.4211  -26.6678   21.4026 H   0  0  0  0  0  0
  -18.0342  -26.0080   22.9024 H   0  0  0  0  0  0
  -19.7952  -30.7293   24.2234 H   0  0  0  0  0  0
  -17.5027  -31.6270   24.5165 H   0  0  0  0  0  0
  -15.5363  -30.2978   23.7675 H   0  0  0  0  0  0
  -15.8688  -28.0813   22.7086 H   0  0  0  0  0  0
  -24.5901  -30.7085   25.7731 H   0  0  0  0  0  0
  -24.8888  -32.2928   26.4779 H   0  0  0  0  0  0
  -25.7997  -30.8962   27.0224 H   0  0  0  0  0  0
  -26.3010  -29.6680   24.1293 H   0  0  0  0  0  0
  -27.4008  -29.7265   25.4859 H   0  0  0  0  0  0
  -27.8914  -30.4201   23.9602 H   0  0  0  0  0  0
  -27.2647  -33.3654   26.2016 H   0  0  0  0  0  0
  -28.3898  -32.6855   25.0352 H   0  0  0  0  0  0
  -28.0685  -31.8497   26.5468 H   0  0  0  0  0  0
  -28.2586  -38.0087   24.7507 H   0  0  0  0  0  0
  -28.1075  -36.2615   24.6300 H   0  0  0  0  0  0
  -27.2290  -37.1441   25.8869 H   0  0  0  0  0  0
  -20.9472  -29.8755   21.6786 H   0  0  0  0  0  0
  -26.0153  -38.2813   24.1408 H   0  0  0  0  0  0
  -28.4919  -18.0617   18.2971 H   0  0  0  0  0  0
  -28.1466  -20.4185   18.5792 H   0  0  0  0  0  0
  -30.5502  -17.8253   22.0444 H   0  0  0  0  0  0
  -28.8140  -15.6546   17.9635 H   0  0  0  0  0  0
  -30.5022  -15.1308   17.9353 H   0  0  0  0  0  0
  -30.1642  -16.7784   17.7612 H   0  0  0  0  0  0
  -28.3849  -24.7451   21.7526 H   0  0  0  0  0  0
  -26.9488  -24.5773   20.8157 H   0  0  0  0  0  0
  -30.9146  -19.8797   23.1688 H   0  0  0  0  0  0
  -30.4636  -21.3771   22.5651 H   0  0  0  0  0  0
  -28.6666  -22.2836   21.7730 H   0  0  0  0  0  0
  1 25  1  0  0  0
  1 30  2  0  0  0
  1 82  1  0  0  0
  2  3  1  0  0  0
  2 25  1  0  0  0
  2 84  1  0  0  0
  2 85  1  0  0  0
  3  4  1  0  0  0
  3 86  1  0  0  0
  3 87  1  0  0  0
  4  5  1  0  0  0
  4 88  1  0  0  0
  4 89  1  0  0  0
  5  6  1  0  0  0
  5 26  1  0  0  0
  5 90  1  0  0  0
  6 25  1  0  0  0
  6 91  1  0  0  0
  6 92  1  0  0  0
  7  8  2  0  0  0
  7 26  1  0  0  0
  7 29  1  0  0  0
  8  9  1  0  0  0
  8 22  1  0  0  0
  9 10  1  0  0  0
  9 27  2  0  0  0
 10 11  2  0  0  0
 10 15  1  0  0  0
 11 12  1  0  0  0
 11 93  1  0  0  0
 12 13  2  0  0  0
 12 94  1  0  0  0
 13 14  1  0  0  0
 13 31  1  0  0  0
 14 15  2  0  0  0
 14 95  1  0  0  0
 15 96  1  0  0  0
 16 17  2  0  0  0
 16 21  1  0  0  0
 16 31  1  0  0  0
 17 18  1  0  0  0
 17 97  1  0  0  0
 18 19  2  0  0  0
 18 98  1  0  0  0
 19 20  1  0  0  0
 19 24  1  0  0  0
 20 21  2  0  0  0
 20 99  1  0  0  0
 21 23  1  0  0  0
 22 28  1  0  0  0
 22 32  2  0  0  0
 26 27  1  0  0  0
 28100  1  0  0  0
 28101  1  0  0  0
 29102  1  0  0  0
 29103  1  0  0  0
 33 34  1  0  0  0
 33 66  1  0  0  0
 33 70  2  0  0  0
 34 36  1  0  0  0
 34 59  1  0  0  0
 34104  1  0  0  0
 35 44  2  0  0  0
 35 45  1  0  0  0
 35 68  1  0  0  0
 36 56  1  0  0  0
 36105  1  0  0  0
 37 39  1  0  0  0
 37 47  1  0  0  0
 37 66  1  0  0  0
 37106  1  0  0  0
 38 43  2  0  0  0
 38 46  1  0  0  0
 38 47  1  0  0  0
 39 64  1  0  0  0
 39 67  2  0  0  0
 40 52  1  0  0  0
 40 53  2  0  0  0
 40 58  1  0  0  0
 41107  1  0  0  0
 41108  1  0  0  0
 41109  1  0  0  0
 41 48  1  0  0  0
 42 43  1  0  0  0
 42 66  1  0  0  0
 42110  1  0  0  0
 42111  1  0  0  0
 43 44  1  0  0  0
 44112  1  0  0  0
 45 46  2  0  0  0
 45113  1  0  0  0
 46114  1  0  0  0
 47115  1  0  0  0
 47116  1  0  0  0
 48 56  1  0  0  0
 48 65  1  0  0  0
 48117  1  0  0  0
 49 50  1  0  0  0
 49 53  1  0  0  0
 49 64  1  0  0  0
 49118  1  0  0  0
 50 51  1  0  0  0
 50119  1  0  0  0
 50120  1  0  0  0
 51 52  1  0  0  0
 51121  1  0  0  0
 51122  1  0  0  0
 52123  1  0  0  0
 52124  1  0  0  0
 53 54  1  0  0  0
 54 55  2  0  0  0
 54125  1  0  0  0
 55 57  1  0  0  0
 55126  1  0  0  0
 56 69  2  0  0  0
 57 58  2  0  0  0
 57127  1  0  0  0
 58128  1  0  0  0
 59 60  1  0  0  0
 59 61  1  0  0  0
 59 62  1  0  0  0
 60129  1  0  0  0
 60130  1  0  0  0
 60131  1  0  0  0
 61132  1  0  0  0
 61133  1  0  0  0
 61134  1  0  0  0
 62135  1  0  0  0
 62136  1  0  0  0
 62137  1  0  0  0
 63 65  1  0  0  0
 63138  1  0  0  0
 63139  1  0  0  0
 63140  1  0  0  0
 64141  1  0  0  0
 65142  1  0  0  0
 68 79  1  0  0  0
 71 72  2  0  0  0
 71 74  1  0  0  0
 71143  1  0  0  0
 72 75  1  0  0  0
 72144  1  0  0  0
 73 74  2  0  0  0
 73 76  1  0  0  0
 73145  1  0  0  0
 74 82  1  0  0  0
 75 76  2  0  0  0
 75 81  1  0  0  0
 76 80  1  0  0  0
 77 79  1  0  0  0
 77 81  1  0  0  0
 77 83  2  0  0  0
 78 82  1  0  0  0
 78146  1  0  0  0
 78147  1  0  0  0
 78148  1  0  0  0
 79149  1  0  0  0
 79150  1  0  0  0
 80151  1  0  0  0
 80152  1  0  0  0
 81153  1  0  0  0
M  ISO  4   1 100  68 101  79 101  82 100
M  END
> <chiral flag>
0

> <version>
0

> <s_m_source_file>
/data/baiqing/PycharmProjects/Reinvent-master-3.2/result/LINK_invent/BTK/process_docking_weight1_custom_product_contain_oxygen_bond_distance_aromatic_linkinvent_7_9_3/rearranged_h_0090.sdf

> <i_m_source_file_index>
46

> <r_mmod_Potential_Energy-OPLS-2005>
619.753112792969

> <r_mmod_Stretch_Energy-OPLS-2005>
239.882431030273

> <r_mmod_Bend_Energy-OPLS-2005>
275.289794921875

> <r_mmod_Torsional_Energy-OPLS-2005>
335.513885498047

> <r_mmod_Improper_Torsional_Energy-OPLS-2005>
32.0241165161133

> <r_mmod_Van_der_Waal_Energy-OPLS-2005>
143.575012207031

> <r_mmod_Electrostatic_Energy-OPLS-2005>
-381.14794921875

> <r_mmod_Solvation_Energy-OPLS-2005>
-236.014877319336

> <b_mmod_Minimization_Converged-OPLS-2005>
0

> <r_mmod_RMS_Derivative-OPLS-2005>
0.297603100538254

$$$$
46
                    3D
 Structure written by MMmdl.
143151  0  0  1  0            999 V2000
  -30.4967  -15.1510   20.3875 C   0  0  0  0  0  0
  -30.4336  -12.7252   19.5231 C   0  0  0  0  0  0
  -29.5293  -12.5580   18.2794 C   0  0  0  0  0  0
  -28.0713  -12.3070   18.7017 C   0  0  0  0  0  0
  -27.6160  -13.2698   19.8278 C   0  0  2  0  0  0
  -28.6523  -13.4041   20.9641 C   0  0  0  0  0  0
  -25.2407  -13.8259   20.5743 C   0  0  0  0  0  0
  -24.1751  -13.0450   20.9257 C   0  0  0  0  0  0
  -24.6398  -11.6944   20.8762 C   0  0  0  0  0  0
  -23.9095  -10.4301   21.0402 C   0  0  0  0  0  0
  -24.3641   -9.4214   21.9183 C   0  0  0  0  0  0
  -23.6308   -8.2253   22.0757 C   0  0  0  0  0  0
  -22.4290   -8.0291   21.3550 C   0  0  0  0  0  0
  -21.9930   -9.0264   20.4652 C   0  0  0  0  0  0
  -22.7262  -10.2140   20.3056 C   0  0  0  0  0  0
  -21.6861   -6.0740   22.5279 C   0  0  0  0  0  0
  -21.4019   -6.5640   23.8212 C   0  0  0  0  0  0
  -21.3659   -5.6789   24.9174 C   0  0  0  0  0  0
  -21.6043   -4.3053   24.7222 C   0  0  0  0  0  0
  -21.8824   -3.8149   23.4340 C   0  0  0  0  0  0
  -21.9199   -4.6967   22.3401 C   0  0  0  0  0  0
  -22.7769  -13.5206   21.1897 C   0  0  0  0  0  0
  -22.1670   -4.2153   21.0978 F   0  0  0  0  0  0
  -21.5625   -3.4538   25.7734 F   0  0  0  0  0  0
  -29.9016  -13.8684   20.3445 N   0  0  0  0  0  0
  -26.2831  -12.9517   20.3228 N   0  0  0  0  0  0
  -25.9335  -11.6630   20.5729 N   0  0  0  0  0  0
  -22.0427  -12.8187   22.0448 N   0  0  0  0  0  0
  -25.4045  -15.1985   20.4151 N   0  0  0  0  0  0
  -31.7156  -15.1215   20.1691 O   0  0  0  0  0  0
  -21.6650   -6.8888   21.4243 O   0  0  0  0  0  0
  -22.3454  -14.5513   20.6742 O   0  0  0  0  0  0
  -24.6551  -31.8325   23.1778 C   0  0  0  0  0  0
  -25.9266  -32.4634   23.8217 C   0  0  1  0  0  0
  -27.2117  -26.9959   20.1816 C   0  0  0  0  0  0
  -25.5971  -33.8449   24.2133 N   0  0  0  0  0  0
  -23.4658  -30.4478   21.5248 C   0  0  2  0  0  0
  -24.9171  -28.8462   20.1142 C   0  0  0  0  0  0
  -22.7621  -29.4505   22.4811 C   0  0  0  0  0  0
  -18.0321  -28.1420   22.8466 C   0  0  0  0  0  0
  -24.1489  -36.7219   23.2645 C   0  0  0  0  0  0
  -26.0303  -30.6586   21.4015 C   0  0  0  0  0  0
  -26.0975  -29.2543   20.7492 C   0  0  0  0  0  0
  -27.2402  -28.3465   20.7654 C   0  0  0  0  0  0
  -26.0079  -26.7294   19.4903 C   0  0  0  0  0  0
  -24.8931  -27.6015   19.4665 C   0  0  0  0  0  0
  -23.7013  -29.7669   20.1490 C   0  0  0  0  0  0
  -25.4130  -36.3001   24.0311 C   0  0  1  0  0  0
  -20.5939  -28.3769   23.1195 C   0  0  2  0  0  0
  -20.6805  -26.9461   22.5398 C   0  0  0  0  0  0
  -19.5778  -26.6395   21.5210 C   0  0  0  0  0  0
  -18.1960  -26.7952   22.1624 C   0  0  0  0  0  0
  -19.1580  -28.8911   23.2819 C   0  0  0  0  0  0
  -18.9495  -30.1499   23.8858 C   0  0  0  0  0  0
  -17.6491  -30.6608   24.0562 C   0  0  0  0  0  0
  -25.9089  -34.9380   23.5040 C   0  0  0  0  0  0
  -16.5380  -29.9100   23.6346 C   0  0  0  0  0  0
  -16.7303  -28.6521   23.0362 C   0  0  0  0  0  0
  -26.4542  -31.6552   25.0716 C   0  0  0  0  0  0
  -25.3684  -31.3788   26.1384 C   0  0  0  0  0  0
  -27.0430  -30.2925   24.6409 C   0  0  0  0  0  0
  -27.6057  -32.4343   25.7506 C   0  0  0  0  0  0
  -27.5574  -37.1773   24.8473 C   0  0  0  0  0  0
  -21.4306  -29.3060   22.3540 N   0  0  0  0  0  0
  -26.4288  -37.3725   23.9407 N   0  0  0  0  0  0
  -24.7375  -31.0052   22.0884 N   0  0  0  0  0  0
  -23.4197  -28.8075   23.3033 O   0  0  0  0  0  0
  -28.2386  -25.9371   20.2226 O   0  0  0  0  0  0
  -26.5687  -34.8894   22.4626 O   0  0  0  0  0  0
  -23.5639  -32.1282   23.6904 O   0  0  0  0  0  0
  -29.6934  -20.7287   20.2753 C   0  0  0  0  0  0
  -27.9136  -19.3429   20.6624 C   0  0  0  0  0  0
  -29.2709  -19.2511   20.4322 C   0  0  0  0  0  0
  -28.7668  -21.8556   20.3613 C   0  0  0  0  0  0
  -28.0133  -24.4421   20.3044 C   0  0  0  0  0  0
  -30.1643  -17.8153   20.3860 C   0  0  0  0  0  0
  -28.8901  -23.3648   20.2669 N   0  0  0  0  0  0
  -29.7546  -16.4150   20.4738 N   0  0  0  0  0  0
  -31.3728  -18.0204   20.2473 O   0  0  0  0  0  0
  -27.2449  -21.0181   20.6649 S   0  0  0  0  0  0
  -31.4623  -12.8935   19.2020 H   0  0  0  0  0  0
  -30.4600  -11.8057   20.1104 H   0  0  0  0  0  0
  -29.8870  -11.7382   17.6553 H   0  0  0  0  0  0
  -29.5842  -13.4585   17.6656 H   0  0  0  0  0  0
  -28.0034  -11.2758   19.0509 H   0  0  0  0  0  0
  -27.4059  -12.3835   17.8409 H   0  0  0  0  0  0
  -27.5456  -14.2466   19.3492 H   0  0  0  0  0  0
  -28.7907  -12.4610   21.4948 H   0  0  0  0  0  0
  -28.3139  -14.1318   21.7035 H   0  0  0  0  0  0
  -25.2783   -9.5694   22.4758 H   0  0  0  0  0  0
  -24.0019   -7.4649   22.7477 H   0  0  0  0  0  0
  -21.0866   -8.8788   19.8955 H   0  0  0  0  0  0
  -22.3723  -10.9684   19.6168 H   0  0  0  0  0  0
  -21.2014   -7.6148   23.9722 H   0  0  0  0  0  0
  -21.1476   -6.0515   25.9077 H   0  0  0  0  0  0
  -22.0604   -2.7609   23.2837 H   0  0  0  0  0  0
  -22.4057  -11.9847   22.4820 H   0  0  0  0  0  0
  -21.1051  -13.1210   22.2677 H   0  0  0  0  0  0
  -24.6273  -15.8427   20.5153 H   0  0  0  0  0  0
  -26.2292  -15.6322   20.0228 H   0  0  0  0  0  0
  -26.7335  -32.5198   23.0939 H   0  0  0  0  0  0
  -25.0089  -33.9547   25.0264 H   0  0  0  0  0  0
  -22.7762  -31.2780   21.3590 H   0  0  0  0  0  0
  -23.3767  -35.9536   23.3302 H   0  0  0  0  0  0
  -24.3562  -36.8857   22.2060 H   0  0  0  0  0  0
  -23.7228  -37.6405   23.6687 H   0  0  0  0  0  0
  -26.2043  -31.4020   20.6223 H   0  0  0  0  0  0
  -26.8934  -30.7135   22.0532 H   0  0  0  0  0  0
  -28.1354  -28.6538   21.2869 H   0  0  0  0  0  0
  -25.8974  -25.7835   18.9798 H   0  0  0  0  0  0
  -23.9971  -27.2869   18.9482 H   0  0  0  0  0  0
  -23.8495  -30.5364   19.3896 H   0  0  0  0  0  0
  -22.8122  -29.2167   19.8352 H   0  0  0  0  0  0
  -25.1323  -36.1821   25.0804 H   0  0  0  0  0  0
  -21.0034  -28.3381   24.1315 H   0  0  0  0  0  0
  -20.5702  -26.2395   23.3637 H   0  0  0  0  0  0
  -21.6671  -26.7456   22.1196 H   0  0  0  0  0  0
  -19.6942  -25.6292   21.1274 H   0  0  0  0  0  0
  -19.6705  -27.3177   20.6715 H   0  0  0  0  0  0
  -17.4226  -26.6689   21.4030 H   0  0  0  0  0  0
  -18.0362  -26.0108   22.9037 H   0  0  0  0  0  0
  -19.7974  -30.7324   24.2209 H   0  0  0  0  0  0
  -17.5049  -31.6283   24.5179 H   0  0  0  0  0  0
  -15.5383  -30.2995   23.7693 H   0  0  0  0  0  0
  -15.8703  -28.0825   22.7106 H   0  0  0  0  0  0
  -24.5879  -30.7120   25.7697 H   0  0  0  0  0  0
  -24.8857  -32.2985   26.4700 H   0  0  0  0  0  0
  -25.7931  -30.9032   27.0233 H   0  0  0  0  0  0
  -26.3088  -29.6614   24.1388 H   0  0  0  0  0  0
  -27.3950  -29.7270   25.5048 H   0  0  0  0  0  0
  -27.9035  -30.4117   23.9822 H   0  0  0  0  0  0
  -27.2647  -33.3691   26.1968 H   0  0  0  0  0  0
  -28.3922  -32.6827   25.0367 H   0  0  0  0  0  0
  -28.0659  -31.8541   26.5512 H   0  0  0  0  0  0
  -28.2596  -38.0066   24.7511 H   0  0  0  0  0  0
  -28.1066  -36.2594   24.6320 H   0  0  0  0  0  0
  -27.2286  -37.1445   25.8875 H   0  0  0  0  0  0
  -20.9559  -29.8728   21.6652 H   0  0  0  0  0  0
  -26.0149  -38.2792   24.1398 H   0  0  0  0  0  0
  -30.7448  -20.9080   20.0968 H   0  0  0  0  0  0
  -27.2377  -18.5158   20.8414 H   0  0  0  0  0  0
  -26.9510  -24.2114   20.4244 H   0  0  0  0  0  0
  -28.7635  -16.2990   20.5952 H   0  0  0  0  0  0
  1 25  1  0  0  0
  1 30  2  0  0  0
  1 78  1  0  0  0
  2  3  1  0  0  0
  2 25  1  0  0  0
  2 81  1  0  0  0
  2 82  1  0  0  0
  3  4  1  0  0  0
  3 83  1  0  0  0
  3 84  1  0  0  0
  4  5  1  0  0  0
  4 85  1  0  0  0
  4 86  1  0  0  0
  5  6  1  0  0  0
  5 26  1  0  0  0
  5 87  1  0  0  0
  6 25  1  0  0  0
  6 88  1  0  0  0
  6 89  1  0  0  0
  7  8  2  0  0  0
  7 26  1  0  0  0
  7 29  1  0  0  0
  8  9  1  0  0  0
  8 22  1  0  0  0
  9 10  1  0  0  0
  9 27  2  0  0  0
 10 11  2  0  0  0
 10 15  1  0  0  0
 11 12  1  0  0  0
 11 90  1  0  0  0
 12 13  2  0  0  0
 12 91  1  0  0  0
 13 14  1  0  0  0
 13 31  1  0  0  0
 14 15  2  0  0  0
 14 92  1  0  0  0
 15 93  1  0  0  0
 16 17  2  0  0  0
 16 21  1  0  0  0
 16 31  1  0  0  0
 17 18  1  0  0  0
 17 94  1  0  0  0
 18 19  2  0  0  0
 18 95  1  0  0  0
 19 20  1  0  0  0
 19 24  1  0  0  0
 20 21  2  0  0  0
 20 96  1  0  0  0
 21 23  1  0  0  0
 22 28  1  0  0  0
 22 32  2  0  0  0
 26 27  1  0  0  0
 28 97  1  0  0  0
 28 98  1  0  0  0
 29 99  1  0  0  0
 29100  1  0  0  0
 33 34  1  0  0  0
 33 66  1  0  0  0
 33 70  2  0  0  0
 34 36  1  0  0  0
 34 59  1  0  0  0
 34101  1  0  0  0
 35 44  2  0  0  0
 35 45  1  0  0  0
 35 68  1  0  0  0
 36 56  1  0  0  0
 36102  1  0  0  0
 37 39  1  0  0  0
 37 47  1  0  0  0
 37 66  1  0  0  0
 37103  1  0  0  0
 38 43  2  0  0  0
 38 46  1  0  0  0
 38 47  1  0  0  0
 39 64  1  0  0  0
 39 67  2  0  0  0
 40 52  1  0  0  0
 40 53  2  0  0  0
 40 58  1  0  0  0
 41104  1  0  0  0
 41105  1  0  0  0
 41106  1  0  0  0
 41 48  1  0  0  0
 42 43  1  0  0  0
 42 66  1  0  0  0
 42107  1  0  0  0
 42108  1  0  0  0
 43 44  1  0  0  0
 44109  1  0  0  0
 45 46  2  0  0  0
 45110  1  0  0  0
 46111  1  0  0  0
 47112  1  0  0  0
 47113  1  0  0  0
 48 56  1  0  0  0
 48 65  1  0  0  0
 48114  1  0  0  0
 49 50  1  0  0  0
 49 53  1  0  0  0
 49 64  1  0  0  0
 49115  1  0  0  0
 50 51  1  0  0  0
 50116  1  0  0  0
 50117  1  0  0  0
 51 52  1  0  0  0
 51118  1  0  0  0
 51119  1  0  0  0
 52120  1  0  0  0
 52121  1  0  0  0
 53 54  1  0  0  0
 54 55  2  0  0  0
 54122  1  0  0  0
 55 57  1  0  0  0
 55123  1  0  0  0
 56 69  2  0  0  0
 57 58  2  0  0  0
 57124  1  0  0  0
 58125  1  0  0  0
 59 60  1  0  0  0
 59 61  1  0  0  0
 59 62  1  0  0  0
 60126  1  0  0  0
 60127  1  0  0  0
 60128  1  0  0  0
 61129  1  0  0  0
 61130  1  0  0  0
 61131  1  0  0  0
 62132  1  0  0  0
 62133  1  0  0  0
 62134  1  0  0  0
 63 65  1  0  0  0
 63135  1  0  0  0
 63136  1  0  0  0
 63137  1  0  0  0
 64138  1  0  0  0
 65139  1  0  0  0
 68 75  1  0  0  0
 71 73  1  0  0  0
 71 74  2  0  0  0
 71140  1  0  0  0
 72 73  2  0  0  0
 72 80  1  0  0  0
 72141  1  0  0  0
 73 76  1  0  0  0
 74 77  1  0  0  0
 74 80  1  0  0  0
 75 77  2  0  0  0
 75142  1  0  0  0
 76 78  1  0  0  0
 76 79  2  0  0  0
 78143  1  0  0  0
M  ISO  4   1 100  68 101  75 101  78 100
M  END
> <chiral flag>
0

> <version>
0

> <s_m_source_file>
/data/baiqing/PycharmProjects/Reinvent-master-3.2/result/LINK_invent/BTK/process_docking_weight1_custom_product_contain_oxygen_bond_distance_aromatic_linkinvent_7_9_3/rearranged_h_0090.sdf

> <i_m_source_file_index>
47

> <r_mmod_Potential_Energy-OPLS-2005>
707.130126953125

> <r_mmod_Stretch_Energy-OPLS-2005>
389.236694335938

> <r_mmod_Bend_Energy-OPLS-2005>
321.236999511719

> <r_mmod_Torsional_Energy-OPLS-2005>
207.74560546875

> <r_mmod_Improper_Torsional_Energy-OPLS-2005>
4.15721654891968

> <r_mmod_Van_der_Waal_Energy-OPLS-2005>
112.048263549805

> <r_mmod_Electrostatic_Energy-OPLS-2005>
-427.897399902344

> <r_mmod_Solvation_Energy-OPLS-2005>
-245.610687255859

> <b_mmod_Minimization_Converged-OPLS-2005>
0

> <r_mmod_RMS_Derivative-OPLS-2005>
1.2939475774765

$$$$
47
                    3D
 Structure written by MMmdl.
158167  0  0  1  0            999 V2000
  -30.7398  -14.4555   20.5789 C   0  0  0  0  0  0
  -30.4116  -12.3083   19.4088 C   0  0  0  0  0  0
  -29.4851  -12.4966   18.1927 C   0  0  0  0  0  0
  -28.0084  -12.3578   18.6123 C   0  0  0  0  0  0
  -27.6539  -13.2096   19.8618 C   0  0  2  0  0  0
  -28.7018  -13.0239   20.9816 C   0  0  0  0  0  0
  -25.2572  -13.8164   20.5694 C   0  0  0  0  0  0
  -24.1833  -13.0434   20.9192 C   0  0  0  0  0  0
  -24.6391  -11.6905   20.8740 C   0  0  0  0  0  0
  -23.9058  -10.4293   21.0406 C   0  0  0  0  0  0
  -24.3614   -9.4212   21.9183 C   0  0  0  0  0  0
  -23.6294   -8.2246   22.0754 C   0  0  0  0  0  0
  -22.4276   -8.0283   21.3545 C   0  0  0  0  0  0
  -21.9908   -9.0254   20.4645 C   0  0  0  0  0  0
  -22.7232  -10.2136   20.3054 C   0  0  0  0  0  0
  -21.6855   -6.0737   22.5278 C   0  0  0  0  0  0
  -21.4017   -6.5641   23.8211 C   0  0  0  0  0  0
  -21.3661   -5.6794   24.9173 C   0  0  0  0  0  0
  -21.6045   -4.3056   24.7225 C   0  0  0  0  0  0
  -21.8819   -3.8148   23.4346 C   0  0  0  0  0  0
  -21.9194   -4.6964   22.3402 C   0  0  0  0  0  0
  -22.7860  -13.5235   21.1854 C   0  0  0  0  0  0
  -22.1662   -4.2151   21.0979 F   0  0  0  0  0  0
  -21.5629   -3.4539   25.7736 F   0  0  0  0  0  0
  -30.0222  -13.3145   20.4053 N   0  0  0  0  0  0
  -26.2996  -12.9337   20.3333 N   0  0  0  0  0  0
  -25.9316  -11.6495   20.5756 N   0  0  0  0  0  0
  -22.0500  -12.8227   22.0407 N   0  0  0  0  0  0
  -25.4265  -15.1887   20.4114 N   0  0  0  0  0  0
  -31.9106  -14.5549   20.1987 O   0  0  0  0  0  0
  -21.6643   -6.8881   21.4240 O   0  0  0  0  0  0
  -22.3554  -14.5544   20.6701 O   0  0  0  0  0  0
  -24.6139  -31.8695   23.2109 C   0  0  0  0  0  0
  -25.9034  -32.4831   23.8403 C   0  0  1  0  0  0
  -27.2312  -27.4514   20.0947 C   0  0  0  0  0  0
  -25.5901  -33.8632   24.2338 N   0  0  0  0  0  0
  -23.3998  -30.4925   21.5526 C   0  0  2  0  0  0
  -24.8442  -28.9613   20.1153 C   0  0  0  0  0  0
  -22.7402  -29.4660   22.5014 C   0  0  0  0  0  0
  -18.0273  -28.1374   22.8496 C   0  0  0  0  0  0
  -24.1489  -36.7319   23.2637 C   0  0  0  0  0  0
  -25.9264  -30.8423   21.3587 C   0  0  0  0  0  0
  -26.0052  -29.4787   20.7039 C   0  0  0  0  0  0
  -27.2050  -28.7339   20.6830 C   0  0  0  0  0  0
  -26.0516  -26.9387   19.5139 C   0  0  0  0  0  0
  -24.8610  -27.6890   19.5172 C   0  0  0  0  0  0
  -23.6057  -29.8259   20.1668 C   0  0  0  0  0  0
  -25.4111  -36.3121   24.0336 C   0  0  1  0  0  0
  -20.5860  -28.3649   23.1331 C   0  0  2  0  0  0
  -20.6765  -26.9393   22.5421 C   0  0  0  0  0  0
  -19.5742  -26.6384   21.5219 C   0  0  0  0  0  0
  -18.1919  -26.7924   22.1630 C   0  0  0  0  0  0
  -19.1522  -28.8829   23.2909 C   0  0  0  0  0  0
  -18.9449  -30.1441   23.8912 C   0  0  0  0  0  0
  -17.6451  -30.6579   24.0563 C   0  0  0  0  0  0
  -25.9038  -34.9483   23.5135 C   0  0  0  0  0  0
  -16.5340  -29.9080   23.6323 C   0  0  0  0  0  0
  -16.7262  -28.6500   23.0346 C   0  0  0  0  0  0
  -26.4469  -31.6595   25.0717 C   0  0  0  0  0  0
  -25.3747  -31.3681   26.1473 C   0  0  0  0  0  0
  -27.0291  -30.3045   24.6056 C   0  0  0  0  0  0
  -27.6060  -32.4303   25.7474 C   0  0  0  0  0  0
  -27.5580  -37.1816   24.8465 C   0  0  0  0  0  0
  -21.4134  -29.3019   22.3747 N   0  0  0  0  0  0
  -26.4296  -37.3804   23.9405 N   0  0  0  0  0  0
  -24.6652  -31.0813   22.0999 N   0  0  0  0  0  0
  -23.4185  -28.8211   23.3054 O   0  0  0  0  0  0
  -28.3989  -26.7233   20.0840 O   0  0  0  0  0  0
  -26.5598  -34.8926   22.4696 O   0  0  0  0  0  0
  -23.5334  -32.1444   23.7508 O   0  0  0  0  0  0
  -30.2136  -18.3143   19.5338 C   0  0  0  0  0  0
  -29.8725  -19.5917   19.0451 C   0  0  0  0  0  0
  -29.0074  -20.1914   21.2217 C   0  0  0  0  0  0
  -29.9919  -17.9720   20.8824 C   0  0  0  0  0  0
  -29.2715  -20.5720   19.8787 C   0  0  0  0  0  0
  -29.3731  -18.9208   21.7245 C   0  0  0  0  0  0
  -28.7782  -23.0105   20.2161 C   0  0  0  0  0  0
  -28.5646  -24.2646   19.7505 C   0  0  0  0  0  0
  -28.9738  -23.3975   17.4130 C   0  0  0  0  0  0
  -30.5694  -16.6880   21.4122 C   0  0  0  0  0  0
  -28.5307  -24.5913   18.2571 C   0  0  0  0  0  0
  -28.6375  -22.0104   17.9729 C   0  0  0  0  0  0
  -28.3238  -25.4319   20.7044 C   0  0  0  0  0  0
  -28.9702  -21.8826   19.4060 N   0  0  0  0  0  0
  -30.0347  -15.5402   20.9549 N   0  0  0  0  0  0
  -29.5539  -23.5485   16.3343 O   0  0  0  0  0  0
  -31.5407  -16.7348   22.1766 O   0  0  0  0  0  0
  -29.1321  -18.6308   23.0266 F   0  0  0  0  0  0
  -31.4567  -12.3915   19.1048 H   0  0  0  0  0  0
  -30.3017  -11.3058   19.8247 H   0  0  0  0  0  0
  -29.7239  -11.7648   17.4194 H   0  0  0  0  0  0
  -29.6522  -13.4781   17.7467 H   0  0  0  0  0  0
  -27.8212  -11.3032   18.8171 H   0  0  0  0  0  0
  -27.3552  -12.6238   17.7809 H   0  0  0  0  0  0
  -27.6856  -14.2519   19.5446 H   0  0  0  0  0  0
  -28.6843  -12.0009   21.3600 H   0  0  0  0  0  0
  -28.4763  -13.6616   21.8382 H   0  0  0  0  0  0
  -25.2761   -9.5695   22.4754 H   0  0  0  0  0  0
  -24.0007   -7.4641   22.7472 H   0  0  0  0  0  0
  -21.0839   -8.8771   19.8951 H   0  0  0  0  0  0
  -22.3690  -10.9674   19.6163 H   0  0  0  0  0  0
  -21.2011   -7.6150   23.9715 H   0  0  0  0  0  0
  -21.1482   -6.0524   25.9076 H   0  0  0  0  0  0
  -22.0597   -2.7610   23.2843 H   0  0  0  0  0  0
  -22.4119  -11.9890   22.4792 H   0  0  0  0  0  0
  -21.1121  -13.1255   22.2607 H   0  0  0  0  0  0
  -24.6535  -15.8366   20.5203 H   0  0  0  0  0  0
  -26.2687  -15.6344   20.0711 H   0  0  0  0  0  0
  -26.7110  -32.5542   23.1180 H   0  0  0  0  0  0
  -25.0069  -33.9799   25.0495 H   0  0  0  0  0  0
  -22.6864  -31.3077   21.4163 H   0  0  0  0  0  0
  -23.3748  -35.9658   23.3319 H   0  0  0  0  0  0
  -24.3581  -36.8914   22.2049 H   0  0  0  0  0  0
  -23.7243  -37.6530   23.6637 H   0  0  0  0  0  0
  -26.0313  -31.6102   20.5914 H   0  0  0  0  0  0
  -26.8176  -30.8967   21.9726 H   0  0  0  0  0  0
  -28.1056  -29.1294   21.1311 H   0  0  0  0  0  0
  -26.0433  -25.9592   19.0615 H   0  0  0  0  0  0
  -23.9666  -27.2796   19.0671 H   0  0  0  0  0  0
  -23.7088  -30.6017   19.4071 H   0  0  0  0  0  0
  -22.7299  -29.2439   19.8734 H   0  0  0  0  0  0
  -25.1290  -36.1998   25.0827 H   0  0  0  0  0  0
  -20.9943  -28.3207   24.1454 H   0  0  0  0  0  0
  -20.5674  -26.2259   23.3604 H   0  0  0  0  0  0
  -21.6639  -26.7450   22.1210 H   0  0  0  0  0  0
  -19.6903  -25.6302   21.1232 H   0  0  0  0  0  0
  -19.6678  -27.3209   20.6761 H   0  0  0  0  0  0
  -17.4195  -26.6677   21.4022 H   0  0  0  0  0  0
  -18.0311  -26.0063   22.9020 H   0  0  0  0  0  0
  -19.7924  -30.7257   24.2282 H   0  0  0  0  0  0
  -17.5003  -31.6259   24.5166 H   0  0  0  0  0  0
  -15.5339  -30.2986   23.7633 H   0  0  0  0  0  0
  -15.8669  -28.0818   22.7050 H   0  0  0  0  0  0
  -24.5926  -30.7026   25.7799 H   0  0  0  0  0  0
  -24.8937  -32.2830   26.4941 H   0  0  0  0  0  0
  -25.8110  -30.8831   27.0217 H   0  0  0  0  0  0
  -26.2820  -29.6821   24.1119 H   0  0  0  0  0  0
  -27.4093  -29.7250   25.4477 H   0  0  0  0  0  0
  -27.8639  -30.4373   23.9171 H   0  0  0  0  0  0
  -27.2693  -33.3591   26.2093 H   0  0  0  0  0  0
  -28.3846  -32.6887   25.0282 H   0  0  0  0  0  0
  -28.0767  -31.8409   26.5354 H   0  0  0  0  0  0
  -28.2616  -38.0094   24.7509 H   0  0  0  0  0  0
  -28.1050  -36.2629   24.6300 H   0  0  0  0  0  0
  -27.2291  -37.1483   25.8864 H   0  0  0  0  0  0
  -20.9294  -29.8732   21.6967 H   0  0  0  0  0  0
  -26.0188  -38.2883   24.1406 H   0  0  0  0  0  0
  -30.7187  -17.6174   18.8788 H   0  0  0  0  0  0
  -30.1510  -19.7927   18.0230 H   0  0  0  0  0  0
  -28.5286  -20.8692   21.9095 H   0  0  0  0  0  0
  -28.8021  -22.8319   21.2811 H   0  0  0  0  0  0
  -29.1973  -25.4292   18.0546 H   0  0  0  0  0  0
  -27.5268  -24.8846   17.9572 H   0  0  0  0  0  0
  -29.1303  -21.2931   17.3260 H   0  0  0  0  0  0
  -27.5671  -21.8452   17.8510 H   0  0  0  0  0  0
  -27.3684  -25.2746   21.2098 H   0  0  0  0  0  0
  -29.0801  -25.3952   21.4886 H   0  0  0  0  0  0
  -29.0516  -15.5379   20.7458 H   0  0  0  0  0  0
  1 25  1  0  0  0
  1 30  2  0  0  0
  1 85  1  0  0  0
  2  3  1  0  0  0
  2 25  1  0  0  0
  2 89  1  0  0  0
  2 90  1  0  0  0
  3  4  1  0  0  0
  3 91  1  0  0  0
  3 92  1  0  0  0
  4  5  1  0  0  0
  4 93  1  0  0  0
  4 94  1  0  0  0
  5  6  1  0  0  0
  5 26  1  0  0  0
  5 95  1  0  0  0
  6 25  1  0  0  0
  6 96  1  0  0  0
  6 97  1  0  0  0
  7  8  2  0  0  0
  7 26  1  0  0  0
  7 29  1  0  0  0
  8  9  1  0  0  0
  8 22  1  0  0  0
  9 10  1  0  0  0
  9 27  2  0  0  0
 10 11  2  0  0  0
 10 15  1  0  0  0
 11 12  1  0  0  0
 11 98  1  0  0  0
 12 13  2  0  0  0
 12 99  1  0  0  0
 13 14  1  0  0  0
 13 31  1  0  0  0
 14 15  2  0  0  0
 14100  1  0  0  0
 15101  1  0  0  0
 16 17  2  0  0  0
 16 21  1  0  0  0
 16 31  1  0  0  0
 17 18  1  0  0  0
 17102  1  0  0  0
 18 19  2  0  0  0
 18103  1  0  0  0
 19 20  1  0  0  0
 19 24  1  0  0  0
 20 21  2  0  0  0
 20104  1  0  0  0
 21 23  1  0  0  0
 22 28  1  0  0  0
 22 32  2  0  0  0
 26 27  1  0  0  0
 28105  1  0  0  0
 28106  1  0  0  0
 29107  1  0  0  0
 29108  1  0  0  0
 33 34  1  0  0  0
 33 66  1  0  0  0
 33 70  2  0  0  0
 34 36  1  0  0  0
 34 59  1  0  0  0
 34109  1  0  0  0
 35 44  2  0  0  0
 35 45  1  0  0  0
 35 68  1  0  0  0
 36 56  1  0  0  0
 36110  1  0  0  0
 37 39  1  0  0  0
 37 47  1  0  0  0
 37 66  1  0  0  0
 37111  1  0  0  0
 38 43  2  0  0  0
 38 46  1  0  0  0
 38 47  1  0  0  0
 39 64  1  0  0  0
 39 67  2  0  0  0
 40 52  1  0  0  0
 40 53  2  0  0  0
 40 58  1  0  0  0
 41112  1  0  0  0
 41113  1  0  0  0
 41114  1  0  0  0
 41 48  1  0  0  0
 42 43  1  0  0  0
 42 66  1  0  0  0
 42115  1  0  0  0
 42116  1  0  0  0
 43 44  1  0  0  0
 44117  1  0  0  0
 45 46  2  0  0  0
 45118  1  0  0  0
 46119  1  0  0  0
 47120  1  0  0  0
 47121  1  0  0  0
 48 56  1  0  0  0
 48 65  1  0  0  0
 48122  1  0  0  0
 49 50  1  0  0  0
 49 53  1  0  0  0
 49 64  1  0  0  0
 49123  1  0  0  0
 50 51  1  0  0  0
 50124  1  0  0  0
 50125  1  0  0  0
 51 52  1  0  0  0
 51126  1  0  0  0
 51127  1  0  0  0
 52128  1  0  0  0
 52129  1  0  0  0
 53 54  1  0  0  0
 54 55  2  0  0  0
 54130  1  0  0  0
 55 57  1  0  0  0
 55131  1  0  0  0
 56 69  2  0  0  0
 57 58  2  0  0  0
 57132  1  0  0  0
 58133  1  0  0  0
 59 60  1  0  0  0
 59 61  1  0  0  0
 59 62  1  0  0  0
 60134  1  0  0  0
 60135  1  0  0  0
 60136  1  0  0  0
 61137  1  0  0  0
 61138  1  0  0  0
 61139  1  0  0  0
 62140  1  0  0  0
 62141  1  0  0  0
 62142  1  0  0  0
 63 65  1  0  0  0
 63143  1  0  0  0
 63144  1  0  0  0
 63145  1  0  0  0
 64146  1  0  0  0
 65147  1  0  0  0
 68 83  1  0  0  0
 71 72  2  0  0  0
 71 74  1  0  0  0
 71148  1  0  0  0
 72 75  1  0  0  0
 72149  1  0  0  0
 73 75  2  0  0  0
 73 76  1  0  0  0
 73150  1  0  0  0
 74 76  2  0  0  0
 74 80  1  0  0  0
 75 84  1  0  0  0
 76 88  1  0  0  0
 77 78  2  0  0  0
 77 84  1  0  0  0
 77151  1  0  0  0
 78 81  1  0  0  0
 78 83  1  0  0  0
 79 81  1  0  0  0
 79 82  1  0  0  0
 79 86  2  0  0  0
 80 85  1  0  0  0
 80 87  2  0  0  0
 81152  1  0  0  0
 81153  1  0  0  0
 82 84  1  0  0  0
 82154  1  0  0  0
 82155  1  0  0  0
 83156  1  0  0  0
 83157  1  0  0  0
 85158  1  0  0  0
M  ISO  4   1 100  68 101  83 101  85 100
M  END
> <chiral flag>
0

> <version>
0

> <s_m_source_file>
/data/baiqing/PycharmProjects/Reinvent-master-3.2/result/LINK_invent/BTK/process_docking_weight1_custom_product_contain_oxygen_bond_distance_aromatic_linkinvent_7_9_3/rearranged_h_0090.sdf

> <i_m_source_file_index>
48

> <r_mmod_Potential_Energy-OPLS-2005>
1.88943064212799

> <r_mmod_Stretch_Energy-OPLS-2005>
38.9786376953125

> <r_mmod_Bend_Energy-OPLS-2005>
97.81103515625

> <r_mmod_Torsional_Energy-OPLS-2005>
296.926147460938

> <r_mmod_Improper_Torsional_Energy-OPLS-2005>
6.91594648361206

> <r_mmod_Van_der_Waal_Energy-OPLS-2005>
178.611679077148

> <r_mmod_Electrostatic_Energy-OPLS-2005>
-399.15283203125

> <r_mmod_Solvation_Energy-OPLS-2005>
-234.686676025391

> <b_mmod_Minimization_Converged-OPLS-2005>
0

> <r_mmod_RMS_Derivative-OPLS-2005>
1.29015707969666

$$$$
48
                    3D
 Structure written by MMmdl.
148156  0  0  1  0            999 V2000
  -30.3379  -15.5640   20.3000 C   0  0  0  0  0  0
  -30.4337  -13.0236   19.5109 C   0  0  0  0  0  0
  -29.5406  -12.6204   18.3052 C   0  0  0  0  0  0
  -28.1153  -12.2668   18.7641 C   0  0  0  0  0  0
  -27.5925  -13.2707   19.8151 C   0  0  2  0  0  0
  -28.6276  -13.6114   20.9150 C   0  0  0  0  0  0
  -25.2331  -13.8146   20.5884 C   0  0  0  0  0  0
  -24.1684  -13.0345   20.9325 C   0  0  0  0  0  0
  -24.6363  -11.6856   20.8813 C   0  0  0  0  0  0
  -23.9061  -10.4238   21.0433 C   0  0  0  0  0  0
  -24.3610   -9.4157   21.9206 C   0  0  0  0  0  0
  -23.6277   -8.2200   22.0765 C   0  0  0  0  0  0
  -22.4261   -8.0256   21.3547 C   0  0  0  0  0  0
  -21.9902   -9.0231   20.4651 C   0  0  0  0  0  0
  -22.7241  -10.2102   20.3068 C   0  0  0  0  0  0
  -21.6838   -6.0726   22.5283 C   0  0  0  0  0  0
  -21.4004   -6.5634   23.8216 C   0  0  0  0  0  0
  -21.3656   -5.6790   24.9179 C   0  0  0  0  0  0
  -21.6044   -4.3053   24.7231 C   0  0  0  0  0  0
  -21.8818   -3.8143   23.4353 C   0  0  0  0  0  0
  -21.9186   -4.6956   22.3407 C   0  0  0  0  0  0
  -22.7706  -13.5127   21.1928 C   0  0  0  0  0  0
  -22.1656   -4.2142   21.0984 F   0  0  0  0  0  0
  -21.5631   -3.4536   25.7743 F   0  0  0  0  0  0
  -29.8068  -14.2060   20.2398 N   0  0  0  0  0  0
  -26.2765  -12.9413   20.3354 N   0  0  0  0  0  0
  -25.9302  -11.6524   20.5788 N   0  0  0  0  0  0
  -22.0340  -12.8139   22.0481 N   0  0  0  0  0  0
  -25.3887  -15.1882   20.4386 N   0  0  0  0  0  0
  -31.5819  -15.5004   20.2723 O   0  0  0  0  0  0
  -21.6618   -6.8862   21.4243 O   0  0  0  0  0  0
  -22.3415  -14.5439   20.6756 O   0  0  0  0  0  0
  -24.6776  -31.8053   23.1566 C   0  0  0  0  0  0
  -25.9385  -32.4491   23.8088 C   0  0  1  0  0  0
  -27.2332  -26.7631   20.2090 C   0  0  0  0  0  0
  -25.5988  -33.8314   24.1978 N   0  0  0  0  0  0
  -23.5017  -30.4088   21.5083 C   0  0  2  0  0  0
  -24.9605  -28.7597   20.1182 C   0  0  0  0  0  0
  -22.7738  -29.4344   22.4727 C   0  0  0  0  0  0
  -18.0337  -28.1417   22.8457 C   0  0  0  0  0  0
  -24.1501  -36.7167   23.2653 C   0  0  0  0  0  0
  -26.0786  -30.5564   21.4147 C   0  0  0  0  0  0
  -26.1453  -29.1267   20.7667 C   0  0  0  0  0  0
  -27.2659  -28.1525   20.7862 C   0  0  0  0  0  0
  -26.0186  -26.5931   19.4986 C   0  0  0  0  0  0
  -24.9312  -27.5161   19.4629 C   0  0  0  0  0  0
  -23.7530  -29.7072   20.1425 C   0  0  0  0  0  0
  -25.4148  -36.2909   24.0287 C   0  0  1  0  0  0
  -20.5968  -28.3774   23.1150 C   0  0  2  0  0  0
  -20.6807  -26.9439   22.5401 C   0  0  0  0  0  0
  -19.5783  -26.6373   21.5214 C   0  0  0  0  0  0
  -18.1965  -26.7945   22.1619 C   0  0  0  0  0  0
  -19.1600  -28.8920   23.2786 C   0  0  0  0  0  0
  -18.9507  -30.1504   23.8831 C   0  0  0  0  0  0
  -17.6497  -30.6601   24.0552 C   0  0  0  0  0  0
  -25.9119  -34.9296   23.4967 C   0  0  0  0  0  0
  -16.5386  -29.9082   23.6350 C   0  0  0  0  0  0
  -16.7317  -28.6505   23.0365 C   0  0  0  0  0  0
  -26.4585  -31.6505   25.0688 C   0  0  0  0  0  0
  -25.3669  -31.3798   26.1314 C   0  0  0  0  0  0
  -27.0515  -30.2850   24.6554 C   0  0  0  0  0  0
  -27.6042  -32.4356   25.7500 C   0  0  0  0  0  0
  -27.5568  -37.1741   24.8467 C   0  0  0  0  0  0
  -21.4391  -29.3028   22.3475 N   0  0  0  0  0  0
  -26.4279  -37.3661   23.9402 N   0  0  0  0  0  0
  -24.7752  -30.9552   22.0792 N   0  0  0  0  0  0
  -23.4201  -28.7944   23.3054 O   0  0  0  0  0  0
  -28.2292  -25.5915   20.2666 O   0  0  0  0  0  0
  -26.5755  -34.8863   22.4580 O   0  0  0  0  0  0
  -23.5809  -32.1105   23.6553 O   0  0  0  0  0  0
  -30.5341  -20.5896   20.9789 C   0  0  0  0  0  0
  -30.7348  -19.1201   20.9408 C   0  0  0  0  0  0
  -29.3491  -21.1142   20.4498 C   0  0  0  0  0  0
  -29.6863  -18.4374   20.3628 C   0  0  0  0  0  0
  -28.9503  -22.7796   20.3881 C   0  0  0  0  0  0
  -28.0690  -24.0051   20.1956 C   0  0  0  0  0  0
  -28.2794  -17.6714   17.9977 C   0  0  0  0  0  0
  -28.4513  -16.6566   19.1474 C   0  0  0  0  0  0
  -29.5655  -16.9036   20.0899 N   0  0  0  0  0  0
  -28.8007  -19.7093   20.0779 O   0  0  0  0  0  0
  -31.4259  -13.2853   19.1408 H   0  0  0  0  0  0
  -30.5878  -12.1777   20.1831 H   0  0  0  0  0  0
  -29.9802  -11.7799   17.7664 H   0  0  0  0  0  0
  -29.4984  -13.4503   17.5984 H   0  0  0  0  0  0
  -28.1444  -11.2687   19.2030 H   0  0  0  0  0  0
  -27.4380  -12.2083   17.9113 H   0  0  0  0  0  0
  -27.4181  -14.1670   19.2340 H   0  0  0  0  0  0
  -28.8842  -12.7363   21.5139 H   0  0  0  0  0  0
  -28.2109  -14.3465   21.6051 H   0  0  0  0  0  0
  -25.2749   -9.5625   22.4789 H   0  0  0  0  0  0
  -23.9972   -7.4588   22.7488 H   0  0  0  0  0  0
  -21.0828   -8.8760   19.8963 H   0  0  0  0  0  0
  -22.3708  -10.9647   19.6184 H   0  0  0  0  0  0
  -21.1992   -7.6142   23.9716 H   0  0  0  0  0  0
  -21.1481   -6.0523   25.9082 H   0  0  0  0  0  0
  -22.0601   -2.7604   23.2858 H   0  0  0  0  0  0
  -22.3940  -11.9803   22.4884 H   0  0  0  0  0  0
  -21.0962  -13.1185   22.2680 H   0  0  0  0  0  0
  -24.6174  -15.8339   20.5682 H   0  0  0  0  0  0
  -26.2421  -15.6417   20.1443 H   0  0  0  0  0  0
  -26.7462  -32.4978   23.0798 H   0  0  0  0  0  0
  -25.0048  -33.9360   25.0072 H   0  0  0  0  0  0
  -22.8244  -31.2447   21.3211 H   0  0  0  0  0  0
  -23.3771  -35.9489   23.3278 H   0  0  0  0  0  0
  -24.3571  -36.8859   22.2074 H   0  0  0  0  0  0
  -23.7257  -37.6339   23.6745 H   0  0  0  0  0  0
  -26.2769  -31.2841   20.6268 H   0  0  0  0  0  0
  -26.9315  -30.6217   22.0782 H   0  0  0  0  0  0
  -28.1594  -28.4371   21.3237 H   0  0  0  0  0  0
  -25.8728  -25.6530   18.9864 H   0  0  0  0  0  0
  -24.0368  -27.2276   18.9281 H   0  0  0  0  0  0
  -23.9224  -30.4675   19.3792 H   0  0  0  0  0  0
  -22.8595  -29.1687   19.8214 H   0  0  0  0  0  0
  -25.1356  -36.1682   25.0778 H   0  0  0  0  0  0
  -21.0053  -28.3398   24.1274 H   0  0  0  0  0  0
  -20.5677  -26.2397   23.3657 H   0  0  0  0  0  0
  -21.6669  -26.7392   22.1216 H   0  0  0  0  0  0
  -19.6943  -25.6267   21.1287 H   0  0  0  0  0  0
  -19.6725  -27.3148   20.6715 H   0  0  0  0  0  0
  -17.4235  -26.6685   21.4022 H   0  0  0  0  0  0
  -18.0357  -26.0101   22.9029 H   0  0  0  0  0  0
  -19.7981  -30.7341   24.2166 H   0  0  0  0  0  0
  -17.5046  -31.6273   24.5168 H   0  0  0  0  0  0
  -15.5383  -30.2962   23.7712 H   0  0  0  0  0  0
  -15.8718  -28.0803   22.7114 H   0  0  0  0  0  0
  -24.5881  -30.7118   25.7615 H   0  0  0  0  0  0
  -24.8827  -32.3010   26.4563 H   0  0  0  0  0  0
  -25.7863  -30.9080   27.0209 H   0  0  0  0  0  0
  -26.3226  -29.6470   24.1548 H   0  0  0  0  0  0
  -27.3961  -29.7283   25.5279 H   0  0  0  0  0  0
  -27.9197  -30.3984   24.0060 H   0  0  0  0  0  0
  -27.2585  -33.3716   26.1897 H   0  0  0  0  0  0
  -28.3942  -32.6823   25.0396 H   0  0  0  0  0  0
  -28.0614  -31.8610   26.5565 H   0  0  0  0  0  0
  -28.2561  -38.0059   24.7504 H   0  0  0  0  0  0
  -28.1088  -36.2579   24.6309 H   0  0  0  0  0  0
  -27.2278  -37.1396   25.8869 H   0  0  0  0  0  0
  -20.9685  -29.8675   21.6543 H   0  0  0  0  0  0
  -26.0113  -38.2716   24.1396 H   0  0  0  0  0  0
  -31.2808  -21.2513   21.3950 H   0  0  0  0  0  0
  -31.6197  -18.6186   21.3070 H   0  0  0  0  0  0
  -29.8994  -23.2351   20.6312 H   0  0  0  0  0  0
  -27.0390  -23.7991   19.9423 H   0  0  0  0  0  0
  -27.7017  -17.2254   17.1868 H   0  0  0  0  0  0
  -29.2370  -17.9799   17.5764 H   0  0  0  0  0  0
  -27.7252  -18.5585   18.3003 H   0  0  0  0  0  0
  -28.6048  -15.7281   18.6022 H   0  0  0  0  0  0
  -27.5245  -16.5682   19.7080 H   0  0  0  0  0  0
  1 25  1  0  0  0
  1 30  2  0  0  0
  1 79  1  0  0  0
  2  3  1  0  0  0
  2 25  1  0  0  0
  2 81  1  0  0  0
  2 82  1  0  0  0
  3  4  1  0  0  0
  3 83  1  0  0  0
  3 84  1  0  0  0
  4  5  1  0  0  0
  4 85  1  0  0  0
  4 86  1  0  0  0
  5  6  1  0  0  0
  5 26  1  0  0  0
  5 87  1  0  0  0
  6 25  1  0  0  0
  6 88  1  0  0  0
  6 89  1  0  0  0
  7  8  2  0  0  0
  7 26  1  0  0  0
  7 29  1  0  0  0
  8  9  1  0  0  0
  8 22  1  0  0  0
  9 10  1  0  0  0
  9 27  2  0  0  0
 10 11  2  0  0  0
 10 15  1  0  0  0
 11 12  1  0  0  0
 11 90  1  0  0  0
 12 13  2  0  0  0
 12 91  1  0  0  0
 13 14  1  0  0  0
 13 31  1  0  0  0
 14 15  2  0  0  0
 14 92  1  0  0  0
 15 93  1  0  0  0
 16 17  2  0  0  0
 16 21  1  0  0  0
 16 31  1  0  0  0
 17 18  1  0  0  0
 17 94  1  0  0  0
 18 19  2  0  0  0
 18 95  1  0  0  0
 19 20  1  0  0  0
 19 24  1  0  0  0
 20 21  2  0  0  0
 20 96  1  0  0  0
 21 23  1  0  0  0
 22 28  1  0  0  0
 22 32  2  0  0  0
 26 27  1  0  0  0
 28 97  1  0  0  0
 28 98  1  0  0  0
 29 99  1  0  0  0
 29100  1  0  0  0
 33 34  1  0  0  0
 33 66  1  0  0  0
 33 70  2  0  0  0
 34 36  1  0  0  0
 34 59  1  0  0  0
 34101  1  0  0  0
 35 44  2  0  0  0
 35 45  1  0  0  0
 35 68  1  0  0  0
 36 56  1  0  0  0
 36102  1  0  0  0
 37 39  1  0  0  0
 37 47  1  0  0  0
 37 66  1  0  0  0
 37103  1  0  0  0
 38 43  2  0  0  0
 38 46  1  0  0  0
 38 47  1  0  0  0
 39 64  1  0  0  0
 39 67  2  0  0  0
 40 52  1  0  0  0
 40 53  2  0  0  0
 40 58  1  0  0  0
 41104  1  0  0  0
 41105  1  0  0  0
 41106  1  0  0  0
 41 48  1  0  0  0
 42 43  1  0  0  0
 42 66  1  0  0  0
 42107  1  0  0  0
 42108  1  0  0  0
 43 44  1  0  0  0
 44109  1  0  0  0
 45 46  2  0  0  0
 45110  1  0  0  0
 46111  1  0  0  0
 47112  1  0  0  0
 47113  1  0  0  0
 48 56  1  0  0  0
 48 65  1  0  0  0
 48114  1  0  0  0
 49 50  1  0  0  0
 49 53  1  0  0  0
 49 64  1  0  0  0
 49115  1  0  0  0
 50 51  1  0  0  0
 50116  1  0  0  0
 50117  1  0  0  0
 51 52  1  0  0  0
 51118  1  0  0  0
 51119  1  0  0  0
 52120  1  0  0  0
 52121  1  0  0  0
 53 54  1  0  0  0
 54 55  2  0  0  0
 54122  1  0  0  0
 55 57  1  0  0  0
 55123  1  0  0  0
 56 69  2  0  0  0
 57 58  2  0  0  0
 57124  1  0  0  0
 58125  1  0  0  0
 59 60  1  0  0  0
 59 61  1  0  0  0
 59 62  1  0  0  0
 60126  1  0  0  0
 60127  1  0  0  0
 60128  1  0  0  0
 61129  1  0  0  0
 61130  1  0  0  0
 61131  1  0  0  0
 62132  1  0  0  0
 62133  1  0  0  0
 62134  1  0  0  0
 63 65  1  0  0  0
 63135  1  0  0  0
 63136  1  0  0  0
 63137  1  0  0  0
 64138  1  0  0  0
 65139  1  0  0  0
 68 76  1  0  0  0
 71 72  1  0  0  0
 71 73  2  0  0  0
 71140  1  0  0  0
 72 74  2  0  0  0
 72141  1  0  0  0
 73 75  1  0  0  0
 73 80  1  0  0  0
 74 79  1  0  0  0
 74 80  1  0  0  0
 75 76  2  0  0  0
 75142  1  0  0  0
 76143  1  0  0  0
 77 78  1  0  0  0
 77144  1  0  0  0
 77145  1  0  0  0
 77146  1  0  0  0
 78 79  1  0  0  0
 78147  1  0  0  0
 78148  1  0  0  0
M  ISO  4   1 100  68 101  76 101  79 100
M  END
> <chiral flag>
0

> <version>
0

> <s_m_source_file>
/data/baiqing/PycharmProjects/Reinvent-master-3.2/result/LINK_invent/BTK/process_docking_weight1_custom_product_contain_oxygen_bond_distance_aromatic_linkinvent_7_9_3/rearranged_h_0090.sdf

> <i_m_source_file_index>
49

> <r_mmod_Potential_Energy-OPLS-2005>
2155.884765625

> <r_mmod_Stretch_Energy-OPLS-2005>
818.577026367188

> <r_mmod_Bend_Energy-OPLS-2005>
602.337829589844

> <r_mmod_Torsional_Energy-OPLS-2005>
272.53662109375

> <r_mmod_Improper_Torsional_Energy-OPLS-2005>
8.11393451690674

> <r_mmod_Van_der_Waal_Energy-OPLS-2005>
120.535484313965

> <r_mmod_Electrostatic_Energy-OPLS-2005>
-264.539672851562

> <r_mmod_Solvation_Energy-OPLS-2005>
-190.374298095703

> <b_mmod_Minimization_Converged-OPLS-2005>
0

> <r_mmod_RMS_Derivative-OPLS-2005>
0.653062224388123

$$$$
49
                    3D
 Structure written by MMmdl.
150158  0  0  1  0            999 V2000
  -30.6073  -14.6759   20.4867 C   0  0  0  0  0  0
  -30.4404  -12.4121   19.4590 C   0  0  0  0  0  0
  -29.5105  -12.5076   18.2283 C   0  0  0  0  0  0
  -28.0337  -12.3402   18.6395 C   0  0  0  0  0  0
  -27.6509  -13.2181   19.8604 C   0  0  2  0  0  0
  -28.6959  -13.0919   20.9921 C   0  0  0  0  0  0
  -25.2554  -13.8172   20.5681 C   0  0  0  0  0  0
  -24.1826  -13.0437   20.9199 C   0  0  0  0  0  0
  -24.6395  -11.6908   20.8745 C   0  0  0  0  0  0
  -23.9063  -10.4291   21.0408 C   0  0  0  0  0  0
  -24.3615   -9.4206   21.9185 C   0  0  0  0  0  0
  -23.6290   -8.2242   22.0754 C   0  0  0  0  0  0
  -22.4273   -8.0281   21.3543 C   0  0  0  0  0  0
  -21.9907   -9.0255   20.4647 C   0  0  0  0  0  0
  -22.7236  -10.2135   20.3058 C   0  0  0  0  0  0
  -21.6853   -6.0735   22.5278 C   0  0  0  0  0  0
  -21.4015   -6.5639   23.8211 C   0  0  0  0  0  0
  -21.3659   -5.6791   24.9173 C   0  0  0  0  0  0
  -21.6043   -4.3053   24.7224 C   0  0  0  0  0  0
  -21.8820   -3.8145   23.4345 C   0  0  0  0  0  0
  -21.9193   -4.6962   22.3401 C   0  0  0  0  0  0
  -22.7849  -13.5230   21.1857 C   0  0  0  0  0  0
  -22.1661   -4.2148   21.0979 F   0  0  0  0  0  0
  -21.5627   -3.4538   25.7737 F   0  0  0  0  0  0
  -30.0073  -13.4424   20.4256 N   0  0  0  0  0  0
  -26.2977  -12.9352   20.3302 N   0  0  0  0  0  0
  -25.9324  -11.6509   20.5756 N   0  0  0  0  0  0
  -22.0488  -12.8226   22.0414 N   0  0  0  0  0  0
  -25.4263  -15.1894   20.4076 N   0  0  0  0  0  0
  -31.7782  -14.8259   20.1250 O   0  0  0  0  0  0
  -21.6639   -6.8878   21.4240 O   0  0  0  0  0  0
  -22.3536  -14.5535   20.6701 O   0  0  0  0  0  0
  -24.6278  -31.8584   23.2013 C   0  0  0  0  0  0
  -25.9118  -32.4771   23.8346 C   0  0  1  0  0  0
  -27.2231  -27.3016   20.1185 C   0  0  0  0  0  0
  -25.5926  -33.8572   24.2272 N   0  0  0  0  0  0
  -23.4223  -30.4822   21.5443 C   0  0  2  0  0  0
  -24.8687  -28.9356   20.1108 C   0  0  0  0  0  0
  -22.7483  -29.4618   22.4928 C   0  0  0  0  0  0
  -18.0288  -28.1385   22.8487 C   0  0  0  0  0  0
  -24.1489  -36.7292   23.2639 C   0  0  0  0  0  0
  -25.9654  -30.7840   21.3750 C   0  0  0  0  0  0
  -26.0392  -29.4105   20.7158 C   0  0  0  0  0  0
  -27.2195  -28.6060   20.7082 C   0  0  0  0  0  0
  -26.0274  -26.8846   19.4887 C   0  0  0  0  0  0
  -24.8660  -27.6790   19.4878 C   0  0  0  0  0  0
  -23.6378  -29.8177   20.1597 C   0  0  0  0  0  0
  -25.4114  -36.3079   24.0328 C   0  0  1  0  0  0
  -20.5890  -28.3691   23.1278 C   0  0  2  0  0  0
  -20.6777  -26.9413   22.5408 C   0  0  0  0  0  0
  -19.5750  -26.6383   21.5212 C   0  0  0  0  0  0
  -18.1932  -26.7926   22.1627 C   0  0  0  0  0  0
  -19.1541  -28.8855   23.2878 C   0  0  0  0  0  0
  -18.9463  -30.1456   23.8895 C   0  0  0  0  0  0
  -17.6462  -30.6587   24.0563 C   0  0  0  0  0  0
  -25.9052  -34.9448   23.5101 C   0  0  0  0  0  0
  -16.5354  -29.9085   23.6329 C   0  0  0  0  0  0
  -16.7275  -28.6502   23.0352 C   0  0  0  0  0  0
  -26.4496  -31.6586   25.0724 C   0  0  0  0  0  0
  -25.3725  -31.3732   26.1449 C   0  0  0  0  0  0
  -27.0342  -30.3007   24.6191 C   0  0  0  0  0  0
  -27.6050  -32.4327   25.7496 C   0  0  0  0  0  0
  -27.5580  -37.1800   24.8464 C   0  0  0  0  0  0
  -21.4194  -29.3044   22.3671 N   0  0  0  0  0  0
  -26.4291  -37.3774   23.9409 N   0  0  0  0  0  0
  -24.6908  -31.0583   22.0970 N   0  0  0  0  0  0
  -23.4200  -28.8156   23.3011 O   0  0  0  0  0  0
  -28.3348  -26.4395   20.1725 O   0  0  0  0  0  0
  -26.5623  -34.8918   22.4669 O   0  0  0  0  0  0
  -23.5437  -32.1389   23.7332 O   0  0  0  0  0  0
  -31.1099  -19.3271   20.2361 C   0  0  0  0  0  0
  -31.0704  -17.9001   20.2919 C   0  0  0  0  0  0
  -28.7697  -18.0345   20.9505 C   0  0  0  0  0  0
  -29.9949  -20.1667   20.5435 C   0  0  0  0  0  0
  -29.8960  -17.2003   20.6702 C   0  0  0  0  0  0
  -28.8079  -19.4686   20.8935 C   0  0  0  0  0  0
  -30.1958  -21.7061   20.6431 C   0  0  0  0  0  0
  -29.3162  -24.0311   20.4225 C   0  0  0  0  0  0
  -28.1042  -24.9693   20.0272 C   0  0  0  0  0  0
  -29.7797  -15.7339   20.7933 N   0  0  0  0  0  0
  -29.2164  -22.6442   20.3736 N   0  0  0  0  0  0
  -31.3438  -22.0519   20.9504 O   0  0  0  0  0  0
  -30.3494  -24.6164   20.7710 O   0  0  0  0  0  0
  -27.6910  -20.1689   21.2097 F   0  0  0  0  0  0
  -31.4808  -12.5426   19.1564 H   0  0  0  0  0  0
  -30.3827  -11.4208   19.9113 H   0  0  0  0  0  0
  -29.7808  -11.7502   17.4914 H   0  0  0  0  0  0
  -29.6471  -13.4731   17.7383 H   0  0  0  0  0  0
  -27.8761  -11.2879   18.8788 H   0  0  0  0  0  0
  -27.3790  -12.5603   17.7955 H   0  0  0  0  0  0
  -27.6625  -14.2496   19.5082 H   0  0  0  0  0  0
  -28.7156  -12.0745   21.3858 H   0  0  0  0  0  0
  -28.4373  -13.7328   21.8364 H   0  0  0  0  0  0
  -25.2763   -9.5681   22.4758 H   0  0  0  0  0  0
  -23.9999   -7.4634   22.7474 H   0  0  0  0  0  0
  -21.0837   -8.8776   19.8955 H   0  0  0  0  0  0
  -22.3695  -10.9675   19.6167 H   0  0  0  0  0  0
  -21.2011   -7.6148   23.9714 H   0  0  0  0  0  0
  -21.1479   -6.0522   25.9075 H   0  0  0  0  0  0
  -22.0600   -2.7608   23.2847 H   0  0  0  0  0  0
  -22.4102  -11.9889   22.4806 H   0  0  0  0  0  0
  -21.1107  -13.1258   22.2618 H   0  0  0  0  0  0
  -24.6530  -15.8386   20.5038 H   0  0  0  0  0  0
  -26.2597  -15.6224   20.0316 H   0  0  0  0  0  0
  -26.7186  -32.5435   23.1094 H   0  0  0  0  0  0
  -25.0067  -33.9712   25.0411 H   0  0  0  0  0  0
  -22.7169  -31.3033   21.4010 H   0  0  0  0  0  0
  -23.3749  -35.9626   23.3300 H   0  0  0  0  0  0
  -24.3580  -36.8916   22.2054 H   0  0  0  0  0  0
  -23.7244  -37.6494   23.6663 H   0  0  0  0  0  0
  -26.0999  -31.5475   20.6075 H   0  0  0  0  0  0
  -26.8447  -30.8316   22.0059 H   0  0  0  0  0  0
  -28.1168  -28.9655   21.1922 H   0  0  0  0  0  0
  -25.9582  -25.9260   18.9974 H   0  0  0  0  0  0
  -23.9692  -27.3102   19.0088 H   0  0  0  0  0  0
  -23.7586  -30.5946   19.4038 H   0  0  0  0  0  0
  -22.7570  -29.2489   19.8562 H   0  0  0  0  0  0
  -25.1294  -36.1930   25.0820 H   0  0  0  0  0  0
  -20.9983  -28.3267   24.1398 H   0  0  0  0  0  0
  -20.5679  -26.2301   23.3608 H   0  0  0  0  0  0
  -21.6645  -26.7440   22.1200 H   0  0  0  0  0  0
  -19.6911  -25.6294   21.1242 H   0  0  0  0  0  0
  -19.6685  -27.3193   20.6742 H   0  0  0  0  0  0
  -17.4198  -26.6670   21.4034 H   0  0  0  0  0  0
  -18.0337  -26.0071   22.9027 H   0  0  0  0  0  0
  -19.7938  -30.7274   24.2263 H   0  0  0  0  0  0
  -17.5016  -31.6266   24.5165 H   0  0  0  0  0  0
  -15.5354  -30.2987   23.7653 H   0  0  0  0  0  0
  -15.8676  -28.0820   22.7069 H   0  0  0  0  0  0
  -24.5891  -30.7092   25.7776 H   0  0  0  0  0  0
  -24.8930  -32.2904   26.4878 H   0  0  0  0  0  0
  -25.8044  -30.8900   27.0222 H   0  0  0  0  0  0
  -26.2922  -29.6756   24.1210 H   0  0  0  0  0  0
  -27.4029  -29.7266   25.4701 H   0  0  0  0  0  0
  -27.8795  -30.4289   23.9426 H   0  0  0  0  0  0
  -27.2653  -33.3625   26.2072 H   0  0  0  0  0  0
  -28.3861  -32.6892   25.0326 H   0  0  0  0  0  0
  -28.0718  -31.8457   26.5416 H   0  0  0  0  0  0
  -28.2592  -38.0102   24.7515 H   0  0  0  0  0  0
  -28.1081  -36.2634   24.6281 H   0  0  0  0  0  0
  -27.2298  -37.1439   25.8867 H   0  0  0  0  0  0
  -20.9373  -29.8771   21.6885 H   0  0  0  0  0  0
  -26.0171  -38.2848   24.1412 H   0  0  0  0  0  0
  -32.0518  -19.7909   19.9783 H   0  0  0  0  0  0
  -31.9744  -17.3550   20.0595 H   0  0  0  0  0  0
  -27.8370  -17.5735   21.2409 H   0  0  0  0  0  0
  -27.2515  -24.6708   20.6384 H   0  0  0  0  0  0
  -27.8559  -24.7465   18.9893 H   0  0  0  0  0  0
  -28.8671  -15.4162   21.0815 H   0  0  0  0  0  0
  -28.3198  -22.2658   20.1088 H   0  0  0  0  0  0
  1 25  1  0  0  0
  1 30  2  0  0  0
  1 80  1  0  0  0
  2  3  1  0  0  0
  2 25  1  0  0  0
  2 85  1  0  0  0
  2 86  1  0  0  0
  3  4  1  0  0  0
  3 87  1  0  0  0
  3 88  1  0  0  0
  4  5  1  0  0  0
  4 89  1  0  0  0
  4 90  1  0  0  0
  5  6  1  0  0  0
  5 26  1  0  0  0
  5 91  1  0  0  0
  6 25  1  0  0  0
  6 92  1  0  0  0
  6 93  1  0  0  0
  7  8  2  0  0  0
  7 26  1  0  0  0
  7 29  1  0  0  0
  8  9  1  0  0  0
  8 22  1  0  0  0
  9 10  1  0  0  0
  9 27  2  0  0  0
 10 11  2  0  0  0
 10 15  1  0  0  0
 11 12  1  0  0  0
 11 94  1  0  0  0
 12 13  2  0  0  0
 12 95  1  0  0  0
 13 14  1  0  0  0
 13 31  1  0  0  0
 14 15  2  0  0  0
 14 96  1  0  0  0
 15 97  1  0  0  0
 16 17  2  0  0  0
 16 21  1  0  0  0
 16 31  1  0  0  0
 17 18  1  0  0  0
 17 98  1  0  0  0
 18 19  2  0  0  0
 18 99  1  0  0  0
 19 20  1  0  0  0
 19 24  1  0  0  0
 20 21  2  0  0  0
 20100  1  0  0  0
 21 23  1  0  0  0
 22 28  1  0  0  0
 22 32  2  0  0  0
 26 27  1  0  0  0
 28101  1  0  0  0
 28102  1  0  0  0
 29103  1  0  0  0
 29104  1  0  0  0
 33 34  1  0  0  0
 33 66  1  0  0  0
 33 70  2  0  0  0
 34 36  1  0  0  0
 34 59  1  0  0  0
 34105  1  0  0  0
 35 44  2  0  0  0
 35 45  1  0  0  0
 35 68  1  0  0  0
 36 56  1  0  0  0
 36106  1  0  0  0
 37 39  1  0  0  0
 37 47  1  0  0  0
 37 66  1  0  0  0
 37107  1  0  0  0
 38 43  2  0  0  0
 38 46  1  0  0  0
 38 47  1  0  0  0
 39 64  1  0  0  0
 39 67  2  0  0  0
 40 52  1  0  0  0
 40 53  2  0  0  0
 40 58  1  0  0  0
 41108  1  0  0  0
 41109  1  0  0  0
 41110  1  0  0  0
 41 48  1  0  0  0
 42 43  1  0  0  0
 42 66  1  0  0  0
 42111  1  0  0  0
 42112  1  0  0  0
 43 44  1  0  0  0
 44113  1  0  0  0
 45 46  2  0  0  0
 45114  1  0  0  0
 46115  1  0  0  0
 47116  1  0  0  0
 47117  1  0  0  0
 48 56  1  0  0  0
 48 65  1  0  0  0
 48118  1  0  0  0
 49 50  1  0  0  0
 49 53  1  0  0  0
 49 64  1  0  0  0
 49119  1  0  0  0
 50 51  1  0  0  0
 50120  1  0  0  0
 50121  1  0  0  0
 51 52  1  0  0  0
 51122  1  0  0  0
 51123  1  0  0  0
 52124  1  0  0  0
 52125  1  0  0  0
 53 54  1  0  0  0
 54 55  2  0  0  0
 54126  1  0  0  0
 55 57  1  0  0  0
 55127  1  0  0  0
 56 69  2  0  0  0
 57 58  2  0  0  0
 57128  1  0  0  0
 58129  1  0  0  0
 59 60  1  0  0  0
 59 61  1  0  0  0
 59 62  1  0  0  0
 60130  1  0  0  0
 60131  1  0  0  0
 60132  1  0  0  0
 61133  1  0  0  0
 61134  1  0  0  0
 61135  1  0  0  0
 62136  1  0  0  0
 62137  1  0  0  0
 62138  1  0  0  0
 63 65  1  0  0  0
 63139  1  0  0  0
 63140  1  0  0  0
 63141  1  0  0  0
 64142  1  0  0  0
 65143  1  0  0  0
 68 79  1  0  0  0
 71 72  2  0  0  0
 71 74  1  0  0  0
 71144  1  0  0  0
 72 75  1  0  0  0
 72145  1  0  0  0
 73 75  2  0  0  0
 73 76  1  0  0  0
 73146  1  0  0  0
 74 76  2  0  0  0
 74 77  1  0  0  0
 75 80  1  0  0  0
 76 84  1  0  0  0
 77 81  1  0  0  0
 77 82  2  0  0  0
 78 79  1  0  0  0
 78 81  1  0  0  0
 78 83  2  0  0  0
 79147  1  0  0  0
 79148  1  0  0  0
 80149  1  0  0  0
 81150  1  0  0  0
M  ISO  4   1 100  68 101  79 101  80 100
M  END
> <chiral flag>
0

> <version>
0

> <s_m_source_file>
/data/baiqing/PycharmProjects/Reinvent-master-3.2/result/LINK_invent/BTK/process_docking_weight1_custom_product_contain_oxygen_bond_distance_aromatic_linkinvent_7_9_3/rearranged_h_0090.sdf

> <i_m_source_file_index>
50

> <r_mmod_Potential_Energy-OPLS-2005>
-25.2279872894287

> <r_mmod_Stretch_Energy-OPLS-2005>
93.0222396850586

> <r_mmod_Bend_Energy-OPLS-2005>
149.318771362305

> <r_mmod_Torsional_Energy-OPLS-2005>
218.844543457031

> <r_mmod_Improper_Torsional_Energy-OPLS-2005>
5.19262266159058

> <r_mmod_Van_der_Waal_Energy-OPLS-2005>
153.32763671875

> <r_mmod_Electrostatic_Energy-OPLS-2005>
-423.644866943359

> <r_mmod_Solvation_Energy-OPLS-2005>
-280.388793945312

> <b_mmod_Minimization_Converged-OPLS-2005>
0

> <r_mmod_RMS_Derivative-OPLS-2005>
0.22262866795063

$$$$
50
                    3D
 Structure written by MMmdl.
159168  0  0  1  0            999 V2000
  -30.7867  -14.3604   20.5362 C   0  0  0  0  0  0
  -30.3846  -12.2320   19.4344 C   0  0  0  0  0  0
  -29.4857  -12.4959   18.2113 C   0  0  0  0  0  0
  -28.0066  -12.3737   18.6179 C   0  0  0  0  0  0
  -27.6583  -13.2178   19.8741 C   0  0  2  0  0  0
  -28.6966  -13.0216   21.0045 C   0  0  0  0  0  0
  -25.2557  -13.8177   20.5682 C   0  0  0  0  0  0
  -24.1812  -13.0425   20.9151 C   0  0  0  0  0  0
  -24.6393  -11.6907   20.8718 C   0  0  0  0  0  0
  -23.9072  -10.4285   21.0386 C   0  0  0  0  0  0
  -24.3618   -9.4211   21.9182 C   0  0  0  0  0  0
  -23.6280   -8.2243   22.0761 C   0  0  0  0  0  0
  -22.4268   -8.0276   21.3535 C   0  0  0  0  0  0
  -21.9895   -9.0253   20.4632 C   0  0  0  0  0  0
  -22.7238  -10.2122   20.3038 C   0  0  0  0  0  0
  -21.6842   -6.0733   22.5282 C   0  0  0  0  0  0
  -21.4018   -6.5651   23.8217 C   0  0  0  0  0  0
  -21.3639   -5.6818   24.9187 C   0  0  0  0  0  0
  -21.6034   -4.3077   24.7246 C   0  0  0  0  0  0
  -21.8810   -3.8154   23.4369 C   0  0  0  0  0  0
  -21.9167   -4.6959   22.3405 C   0  0  0  0  0  0
  -22.7821  -13.5203   21.1814 C   0  0  0  0  0  0
  -22.1637   -4.2136   21.0980 F   0  0  0  0  0  0
  -21.5615   -3.4561   25.7756 F   0  0  0  0  0  0
  -30.0404  -13.2348   20.4497 N   0  0  0  0  0  0
  -26.3006  -12.9387   20.3374 N   0  0  0  0  0  0
  -25.9324  -11.6541   20.5784 N   0  0  0  0  0  0
  -22.0466  -12.8187   22.0374 N   0  0  0  0  0  0
  -25.4280  -15.1892   20.4104 N   0  0  0  0  0  0
  -31.9406  -14.4315   20.1107 O   0  0  0  0  0  0
  -21.6629   -6.8873   21.4242 O   0  0  0  0  0  0
  -22.3489  -14.5507   20.6674 O   0  0  0  0  0  0
  -24.6074  -31.8728   23.2134 C   0  0  0  0  0  0
  -25.9009  -32.4840   23.8423 C   0  0  1  0  0  0
  -27.2399  -27.5146   20.1059 C   0  0  0  0  0  0
  -25.5899  -33.8633   24.2381 N   0  0  0  0  0  0
  -23.3918  -30.4960   21.5489 C   0  0  2  0  0  0
  -24.8429  -28.9710   20.1117 C   0  0  0  0  0  0
  -22.7354  -29.4689   22.4981 C   0  0  0  0  0  0
  -18.0259  -28.1382   22.8471 C   0  0  0  0  0  0
  -24.1484  -36.7323   23.2637 C   0  0  0  0  0  0
  -25.9055  -30.8728   21.3425 C   0  0  0  0  0  0
  -25.9917  -29.5059   20.7072 C   0  0  0  0  0  0
  -27.1952  -28.7830   20.7075 C   0  0  0  0  0  0
  -26.0873  -26.9704   19.5048 C   0  0  0  0  0  0
  -24.8822  -27.6990   19.5069 C   0  0  0  0  0  0
  -23.5986  -29.8256   20.1618 C   0  0  0  0  0  0
  -25.4100  -36.3130   24.0350 C   0  0  1  0  0  0
  -20.5843  -28.3668   23.1321 C   0  0  2  0  0  0
  -20.6757  -26.9399   22.5438 C   0  0  0  0  0  0
  -19.5762  -26.6402   21.5195 C   0  0  0  0  0  0
  -18.1922  -26.7938   22.1563 C   0  0  0  0  0  0
  -19.1511  -28.8831   23.2900 C   0  0  0  0  0  0
  -18.9447  -30.1434   23.8935 C   0  0  0  0  0  0
  -17.6455  -30.6583   24.0582 C   0  0  0  0  0  0
  -25.9024  -34.9485   23.5163 C   0  0  0  0  0  0
  -16.5341  -29.9100   23.6317 C   0  0  0  0  0  0
  -16.7264  -28.6514   23.0337 C   0  0  0  0  0  0
  -26.4446  -31.6554   25.0686 C   0  0  0  0  0  0
  -25.3730  -31.3582   26.1434 C   0  0  0  0  0  0
  -27.0244  -30.3032   24.5922 C   0  0  0  0  0  0
  -27.6076  -32.4170   25.7451 C   0  0  0  0  0  0
  -27.5581  -37.1825   24.8463 C   0  0  0  0  0  0
  -21.4089  -29.3041   22.3719 N   0  0  0  0  0  0
  -26.4287  -37.3809   23.9418 N   0  0  0  0  0  0
  -24.6538  -31.0918   22.0973 N   0  0  0  0  0  0
  -23.4153  -28.8232   23.3002 O   0  0  0  0  0  0
  -28.3963  -26.7985   20.1343 O   0  0  0  0  0  0
  -26.5562  -34.8922   22.4706 O   0  0  0  0  0  0
  -23.5292  -32.1401   23.7612 O   0  0  0  0  0  0
  -30.7746  -20.0123   20.7350 C   0  0  0  0  0  0
  -30.6439  -18.6212   20.8663 C   0  0  0  0  0  0
  -29.2547  -19.9634   18.8193 C   0  0  0  0  0  0
  -30.0920  -20.6826   19.6998 C   0  0  0  0  0  0
  -29.8789  -17.8978   19.9295 C   0  0  0  0  0  0
  -29.1557  -18.5684   18.9248 C   0  0  0  0  0  0
  -29.3605  -25.0270   21.3748 C   0  0  0  0  0  0
  -29.9555  -24.4494   20.2008 C   0  0  0  0  0  0
  -30.0564  -16.4627   19.8590 C   0  0  0  0  0  0
  -28.6358  -26.1523   21.3175 C   0  0  0  0  0  0
  -30.1221  -15.5914   20.8824 C   0  0  0  0  0  0
  -30.2832  -22.1058   19.4598 C   0  0  0  0  0  0
  -29.4323  -24.0801   22.5323 C   0  0  0  0  0  0
  -29.6382  -22.7352   21.8243 C   0  0  0  0  0  0
  -30.0204  -23.0352   20.4169 N   0  0  0  0  0  0
  -30.6912  -22.4369   18.2293 N   0  3  0  0  0  0
  -30.3110  -25.0053   19.1529 O   0  0  0  0  0  0
  -28.4314  -17.8746   18.0114 F   0  0  0  0  0  0
  -31.4374  -12.2479   19.1460 H   0  0  0  0  0  0
  -30.2039  -11.2324   19.8312 H   0  0  0  0  0  0
  -29.7130  -11.7872   17.4152 H   0  0  0  0  0  0
  -29.6851  -13.4898   17.8077 H   0  0  0  0  0  0
  -27.8036  -11.3206   18.8129 H   0  0  0  0  0  0
  -27.3628  -12.6603   17.7845 H   0  0  0  0  0  0
  -27.6999  -14.2647   19.5694 H   0  0  0  0  0  0
  -28.6315  -12.0121   21.4142 H   0  0  0  0  0  0
  -28.4892  -13.6936   21.8388 H   0  0  0  0  0  0
  -25.2748   -9.5690   22.4791 H   0  0  0  0  0  0
  -23.9945   -7.4655   22.7531 H   0  0  0  0  0  0
  -21.0799   -8.8809   19.8960 H   0  0  0  0  0  0
  -22.3712  -10.9675   19.6160 H   0  0  0  0  0  0
  -21.2054   -7.6171   23.9709 H   0  0  0  0  0  0
  -21.1454   -6.0570   25.9082 H   0  0  0  0  0  0
  -22.0592   -2.7614   23.2901 H   0  0  0  0  0  0
  -22.4047  -11.9808   22.4710 H   0  0  0  0  0  0
  -21.1111  -13.1268   22.2636 H   0  0  0  0  0  0
  -24.6657  -15.8520   20.5057 H   0  0  0  0  0  0
  -26.2948  -15.6199   20.1122 H   0  0  0  0  0  0
  -26.7090  -32.5619   23.1223 H   0  0  0  0  0  0
  -25.0113  -33.9807   25.0574 H   0  0  0  0  0  0
  -22.6789  -31.3117   21.4089 H   0  0  0  0  0  0
  -23.3764  -35.9637   23.3261 H   0  0  0  0  0  0
  -24.3613  -36.8974   22.2066 H   0  0  0  0  0  0
  -23.7189  -37.6500   23.6655 H   0  0  0  0  0  0
  -25.9782  -31.6298   20.5612 H   0  0  0  0  0  0
  -26.8086  -30.9568   21.9340 H   0  0  0  0  0  0
  -28.0850  -29.1894   21.1693 H   0  0  0  0  0  0
  -26.1261  -25.9892   19.0521 H   0  0  0  0  0  0
  -23.9992  -27.2810   19.0453 H   0  0  0  0  0  0
  -23.7009  -30.5976   19.3989 H   0  0  0  0  0  0
  -22.7270  -29.2380   19.8673 H   0  0  0  0  0  0
  -25.1258  -36.2013   25.0841 H   0  0  0  0  0  0
  -20.9931  -28.3265   24.1442 H   0  0  0  0  0  0
  -20.5627  -26.2286   23.3626 H   0  0  0  0  0  0
  -21.6650  -26.7435   22.1278 H   0  0  0  0  0  0
  -19.6948  -25.6319   21.1234 H   0  0  0  0  0  0
  -19.6750  -27.3220   20.6735 H   0  0  0  0  0  0
  -17.4211  -26.6711   21.3937 H   0  0  0  0  0  0
  -18.0295  -26.0057   22.8926 H   0  0  0  0  0  0
  -19.7927  -30.7229   24.2340 H   0  0  0  0  0  0
  -17.5015  -31.6265   24.5176 H   0  0  0  0  0  0
  -15.5354  -30.3032   23.7623 H   0  0  0  0  0  0
  -15.8647  -28.0869   22.7032 H   0  0  0  0  0  0
  -24.6132  -30.6633   25.7807 H   0  0  0  0  0  0
  -24.8631  -32.2659   26.4667 H   0  0  0  0  0  0
  -25.8163  -30.9009   27.0298 H   0  0  0  0  0  0
  -26.2741  -29.6832   24.0992 H   0  0  0  0  0  0
  -27.4102  -29.7188   25.4288 H   0  0  0  0  0  0
  -27.8521  -30.4408   23.8965 H   0  0  0  0  0  0
  -27.2850  -33.3580   26.1917 H   0  0  0  0  0  0
  -28.3996  -32.6494   25.0313 H   0  0  0  0  0  0
  -28.0584  -31.8276   26.5455 H   0  0  0  0  0  0
  -28.2592  -38.0126   24.7514 H   0  0  0  0  0  0
  -28.1079  -36.2660   24.6269 H   0  0  0  0  0  0
  -27.2311  -37.1470   25.8869 H   0  0  0  0  0  0
  -20.9230  -29.8759   21.6946 H   0  0  0  0  0  0
  -26.0183  -38.2886   24.1428 H   0  0  0  0  0  0
  -31.4620  -20.5359   21.3838 H   0  0  0  0  0  0
  -31.2381  -18.1039   21.6072 H   0  0  0  0  0  0
  -28.7334  -20.4682   18.0192 H   0  0  0  0  0  0
  -30.3041  -16.1239   18.8612 H   0  0  0  0  0  0
  -28.0897  -26.5553   22.1620 H   0  0  0  0  0  0
  -29.8206  -15.8265   21.8923 H   0  0  0  0  0  0
  -28.5292  -24.1004   23.1421 H   0  0  0  0  0  0
  -30.2843  -24.3307   23.1673 H   0  0  0  0  0  0
  -28.7095  -22.1591   21.8453 H   0  0  0  0  0  0
  -30.3978  -22.1602   22.3535 H   0  0  0  0  0  0
  -30.9893  -21.7241   17.5808 H   0  0  0  0  0  0
  -30.8042  -23.4155   17.9933 H   0  0  0  0  0  0
  1 25  1  0  0  0
  1 30  2  0  0  0
  1 81  1  0  0  0
  2  3  1  0  0  0
  2 25  1  0  0  0
  2 89  1  0  0  0
  2 90  1  0  0  0
  3  4  1  0  0  0
  3 91  1  0  0  0
  3 92  1  0  0  0
  4  5  1  0  0  0
  4 93  1  0  0  0
  4 94  1  0  0  0
  5  6  1  0  0  0
  5 26  1  0  0  0
  5 95  1  0  0  0
  6 25  1  0  0  0
  6 96  1  0  0  0
  6 97  1  0  0  0
  7  8  2  0  0  0
  7 26  1  0  0  0
  7 29  1  0  0  0
  8  9  1  0  0  0
  8 22  1  0  0  0
  9 10  1  0  0  0
  9 27  2  0  0  0
 10 11  2  0  0  0
 10 15  1  0  0  0
 11 12  1  0  0  0
 11 98  1  0  0  0
 12 13  2  0  0  0
 12 99  1  0  0  0
 13 14  1  0  0  0
 13 31  1  0  0  0
 14 15  2  0  0  0
 14100  1  0  0  0
 15101  1  0  0  0
 16 17  2  0  0  0
 16 21  1  0  0  0
 16 31  1  0  0  0
 17 18  1  0  0  0
 17102  1  0  0  0
 18 19  2  0  0  0
 18103  1  0  0  0
 19 20  1  0  0  0
 19 24  1  0  0  0
 20 21  2  0  0  0
 20104  1  0  0  0
 21 23  1  0  0  0
 22 28  1  0  0  0
 22 32  2  0  0  0
 26 27  1  0  0  0
 28105  1  0  0  0
 28106  1  0  0  0
 29107  1  0  0  0
 29108  1  0  0  0
 33 34  1  0  0  0
 33 66  1  0  0  0
 33 70  2  0  0  0
 34 36  1  0  0  0
 34 59  1  0  0  0
 34109  1  0  0  0
 35 44  2  0  0  0
 35 45  1  0  0  0
 35 68  1  0  0  0
 36 56  1  0  0  0
 36110  1  0  0  0
 37 39  1  0  0  0
 37 47  1  0  0  0
 37 66  1  0  0  0
 37111  1  0  0  0
 38 43  2  0  0  0
 38 46  1  0  0  0
 38 47  1  0  0  0
 39 64  1  0  0  0
 39 67  2  0  0  0
 40 52  1  0  0  0
 40 53  2  0  0  0
 40 58  1  0  0  0
 41112  1  0  0  0
 41113  1  0  0  0
 41114  1  0  0  0
 41 48  1  0  0  0
 42 43  1  0  0  0
 42 66  1  0  0  0
 42115  1  0  0  0
 42116  1  0  0  0
 43 44  1  0  0  0
 44117  1  0  0  0
 45 46  2  0  0  0
 45118  1  0  0  0
 46119  1  0  0  0
 47120  1  0  0  0
 47121  1  0  0  0
 48 56  1  0  0  0
 48 65  1  0  0  0
 48122  1  0  0  0
 49 50  1  0  0  0
 49 53  1  0  0  0
 49 64  1  0  0  0
 49123  1  0  0  0
 50 51  1  0  0  0
 50124  1  0  0  0
 50125  1  0  0  0
 51 52  1  0  0  0
 51126  1  0  0  0
 51127  1  0  0  0
 52128  1  0  0  0
 52129  1  0  0  0
 53 54  1  0  0  0
 54 55  2  0  0  0
 54130  1  0  0  0
 55 57  1  0  0  0
 55131  1  0  0  0
 56 69  2  0  0  0
 57 58  2  0  0  0
 57132  1  0  0  0
 58133  1  0  0  0
 59 60  1  0  0  0
 59 61  1  0  0  0
 59 62  1  0  0  0
 60134  1  0  0  0
 60135  1  0  0  0
 60136  1  0  0  0
 61137  1  0  0  0
 61138  1  0  0  0
 61139  1  0  0  0
 62140  1  0  0  0
 62141  1  0  0  0
 62142  1  0  0  0
 63 65  1  0  0  0
 63143  1  0  0  0
 63144  1  0  0  0
 63145  1  0  0  0
 64146  1  0  0  0
 65147  1  0  0  0
 68 80  1  0  0  0
 71 72  2  0  0  0
 71 74  1  0  0  0
 71148  1  0  0  0
 72 75  1  0  0  0
 72149  1  0  0  0
 73 74  2  0  0  0
 73 76  1  0  0  0
 73150  1  0  0  0
 74 82  1  0  0  0
 75 76  2  0  0  0
 75 79  1  0  0  0
 76 88  1  0  0  0
 77 78  1  0  0  0
 77 80  2  0  0  0
 77 83  1  0  0  0
 78 85  1  0  0  0
 78 87  2  0  0  0
 79 81  2  0  0  0
 79151  1  0  0  0
 80152  1  0  0  0
 81153  1  0  0  0
 82 85  1  0  0  0
 82 86  2  0  0  0
 83 84  1  0  0  0
 83154  1  0  0  0
 83155  1  0  0  0
 84 85  1  0  0  0
 84156  1  0  0  0
 84157  1  0  0  0
 86158  1  0  0  0
 86159  1  0  0  0
M  CHG  1  86   1
M  ISO  4   1 100  68 101  80 101  81 100
M  END
> <chiral flag>
0

> <version>
0

> <s_m_source_file>
/data/baiqing/PycharmProjects/Reinvent-master-3.2/result/LINK_invent/BTK/process_docking_weight1_custom_product_contain_oxygen_bond_distance_aromatic_linkinvent_7_9_3/rearranged_h_0090.sdf

> <i_m_source_file_index>
51

> <r_mmod_Potential_Energy-OPLS-2005>
-93.3779602050781

> <r_mmod_Stretch_Energy-OPLS-2005>
30.7746772766113

> <r_mmod_Bend_Energy-OPLS-2005>
139.304473876953

> <r_mmod_Torsional_Energy-OPLS-2005>
284.753509521484

> <r_mmod_Improper_Torsional_Energy-OPLS-2005>
14.1525583267212

> <r_mmod_Van_der_Waal_Energy-OPLS-2005>
173.114883422852

> <r_mmod_Electrostatic_Energy-OPLS-2005>
-358.288818359375

> <r_mmod_Solvation_Energy-OPLS-2005>
-395.429534912109

> <b_mmod_Minimization_Converged-OPLS-2005>
0

> <r_mmod_RMS_Derivative-OPLS-2005>
3.42937088012695

$$$$
51
                    3D
 Structure written by MMmdl.
154162  0  0  1  0            999 V2000
  -30.7399  -14.5898   20.5294 C   0  0  0  0  0  0
  -30.4242  -12.3823   19.4204 C   0  0  0  0  0  0
  -29.4860  -12.4634   18.2017 C   0  0  0  0  0  0
  -28.0164  -12.2729   18.6304 C   0  0  0  0  0  0
  -27.6293  -13.1607   19.8387 C   0  0  2  0  0  0
  -28.6984  -13.1032   20.9629 C   0  0  0  0  0  0
  -25.2525  -13.7997   20.5630 C   0  0  0  0  0  0
  -24.1765  -13.0359   20.9217 C   0  0  0  0  0  0
  -24.6296  -11.6812   20.8825 C   0  0  0  0  0  0
  -23.8975  -10.4234   21.0473 C   0  0  0  0  0  0
  -24.3571   -9.4149   21.9208 C   0  0  0  0  0  0
  -23.6266   -8.2184   22.0743 C   0  0  0  0  0  0
  -22.4250   -8.0233   21.3533 C   0  0  0  0  0  0
  -21.9864   -9.0203   20.4631 C   0  0  0  0  0  0
  -22.7168  -10.2099   20.3081 C   0  0  0  0  0  0
  -21.6829   -6.0705   22.5276 C   0  0  0  0  0  0
  -21.3980   -6.5622   23.8200 C   0  0  0  0  0  0
  -21.3671   -5.6786   24.9177 C   0  0  0  0  0  0
  -21.6068   -4.3050   24.7230 C   0  0  0  0  0  0
  -21.8821   -3.8129   23.4350 C   0  0  0  0  0  0
  -21.9179   -4.6935   22.3404 C   0  0  0  0  0  0
  -22.7808  -13.5192   21.1884 C   0  0  0  0  0  0
  -22.1651   -4.2134   21.0978 F   0  0  0  0  0  0
  -21.5670   -3.4532   25.7742 F   0  0  0  0  0  0
  -30.0059  -13.4348   20.3668 N   0  0  0  0  0  0
  -26.2875  -12.9041   20.3307 N   0  0  0  0  0  0
  -25.9205  -11.6284   20.5879 N   0  0  0  0  0  0
  -22.0463  -12.8199   22.0461 N   0  0  0  0  0  0
  -25.4237  -15.1707   20.3915 N   0  0  0  0  0  0
  -31.9317  -14.6092   20.2175 O   0  0  0  0  0  0
  -21.6623   -6.8831   21.4228 O   0  0  0  0  0  0
  -22.3511  -14.5480   20.6680 O   0  0  0  0  0  0
  -24.6183  -31.8632   23.2094 C   0  0  0  0  0  0
  -25.9069  -32.4780   23.8381 C   0  0  1  0  0  0
  -27.2348  -27.4005   20.0957 C   0  0  0  0  0  0
  -25.5906  -33.8582   24.2304 N   0  0  0  0  0  0
  -23.4066  -30.4892   21.5480 C   0  0  2  0  0  0
  -24.8525  -28.9521   20.1101 C   0  0  0  0  0  0
  -22.7418  -29.4641   22.4965 C   0  0  0  0  0  0
  -18.0266  -28.1354   22.8480 C   0  0  0  0  0  0
  -24.1488  -36.7316   23.2634 C   0  0  0  0  0  0
  -25.9402  -30.8163   21.3702 C   0  0  0  0  0  0
  -26.0136  -29.4498   20.7125 C   0  0  0  0  0  0
  -27.2017  -28.6808   20.7046 C   0  0  0  0  0  0
  -26.0558  -26.9389   19.4620 C   0  0  0  0  0  0
  -24.8697  -27.6980   19.4795 C   0  0  0  0  0  0
  -23.6173  -29.8243   20.1615 C   0  0  0  0  0  0
  -25.4099  -36.3087   24.0341 C   0  0  1  0  0  0
  -20.5856  -28.3650   23.1289 C   0  0  2  0  0  0
  -20.6733  -26.9375   22.5401 C   0  0  0  0  0  0
  -19.5719  -26.6361   21.5191 C   0  0  0  0  0  0
  -18.1909  -26.7893   22.1621 C   0  0  0  0  0  0
  -19.1517  -28.8821   23.2878 C   0  0  0  0  0  0
  -18.9450  -30.1429   23.8878 C   0  0  0  0  0  0
  -17.6449  -30.6558   24.0558 C   0  0  0  0  0  0
  -25.9034  -34.9451   23.5122 C   0  0  0  0  0  0
  -16.5338  -29.9068   23.6309 C   0  0  0  0  0  0
  -16.7256  -28.6486   23.0329 C   0  0  0  0  0  0
  -26.4471  -31.6562   25.0728 C   0  0  0  0  0  0
  -25.3749  -31.3726   26.1508 C   0  0  0  0  0  0
  -27.0260  -30.2961   24.6156 C   0  0  0  0  0  0
  -27.6032  -32.4288   25.7514 C   0  0  0  0  0  0
  -27.5581  -37.1803   24.8463 C   0  0  0  0  0  0
  -21.4145  -29.3023   22.3705 N   0  0  0  0  0  0
  -26.4274  -37.3784   23.9425 N   0  0  0  0  0  0
  -24.6734  -31.0715   22.1004 N   0  0  0  0  0  0
  -23.4190  -28.8173   23.3002 O   0  0  0  0  0  0
  -28.4086  -26.6589   20.1516 O   0  0  0  0  0  0
  -26.5607  -34.8903   22.4696 O   0  0  0  0  0  0
  -23.5368  -32.1401   23.7477 O   0  0  0  0  0  0
  -31.1258  -18.7017   19.9823 C   0  0  0  0  0  0
  -30.8658  -20.1056   19.8509 C   0  0  0  0  0  0
  -30.7215  -18.1767   21.1844 C   0  0  0  0  0  0
  -30.2592  -20.6828   20.9479 C   0  0  0  0  0  0
  -31.4151  -16.4394   22.7774 C   0  0  0  0  0  0
  -28.9723  -16.1330   20.2206 C   0  0  0  0  0  0
  -30.7868  -16.7872   21.6352 C   0  0  0  0  0  0
  -29.5996  -22.9407   20.2331 C   0  0  0  0  0  0
  -29.3255  -24.3884   20.7266 C   0  0  0  0  0  0
  -28.4110  -25.2511   19.7998 C   0  0  0  0  0  0
  -29.8788  -21.9857   21.1547 N   0  0  0  0  0  0
  -30.1295  -15.7903   20.8349 N   0  0  0  0  0  0
  -28.1216  -16.9098   20.6682 O   0  0  0  0  0  0
  -29.5563  -22.6985   19.0240 O   0  0  0  0  0  0
  -30.0709  -19.4569   22.2003 S   0  0  0  0  0  0
  -31.4597  -12.4917   19.0935 H   0  0  0  0  0  0
  -30.3629  -11.3979   19.8891 H   0  0  0  0  0  0
  -29.7582  -11.6999   17.4717 H   0  0  0  0  0  0
  -29.6129  -13.4233   17.6999 H   0  0  0  0  0  0
  -27.8763  -11.2202   18.8820 H   0  0  0  0  0  0
  -27.3526  -12.4722   17.7881 H   0  0  0  0  0  0
  -27.5689  -14.1450   19.4063 H   0  0  0  0  0  0
  -28.7302  -12.1081   21.4106 H   0  0  0  0  0  0
  -28.4449  -13.7867   21.7757 H   0  0  0  0  0  0
  -25.2745   -9.5623   22.4752 H   0  0  0  0  0  0
  -24.0008   -7.4549   22.7415 H   0  0  0  0  0  0
  -21.0821   -8.8693   19.8898 H   0  0  0  0  0  0
  -22.3638  -10.9646   19.6187 H   0  0  0  0  0  0
  -21.1941   -7.6132   23.9680 H   0  0  0  0  0  0
  -21.1520   -6.0538   25.9083 H   0  0  0  0  0  0
  -22.0601   -2.7594   23.2859 H   0  0  0  0  0  0
  -22.4129  -11.9922   22.4910 H   0  0  0  0  0  0
  -21.1043  -13.1143   22.2611 H   0  0  0  0  0  0
  -24.6510  -15.8201   20.4933 H   0  0  0  0  0  0
  -26.2868  -15.6342   20.1368 H   0  0  0  0  0  0
  -26.7145  -32.5462   23.1140 H   0  0  0  0  0  0
  -25.0046  -33.9726   25.0445 H   0  0  0  0  0  0
  -22.6986  -31.3086   21.4068 H   0  0  0  0  0  0
  -23.3725  -35.9670   23.3273 H   0  0  0  0  0  0
  -24.3608  -36.8962   22.2054 H   0  0  0  0  0  0
  -23.7243  -37.6520   23.6657 H   0  0  0  0  0  0
  -26.0650  -31.5841   20.6064 H   0  0  0  0  0  0
  -26.8242  -30.8598   21.9962 H   0  0  0  0  0  0
  -28.0949  -29.0602   21.1803 H   0  0  0  0  0  0
  -26.0197  -25.9987   18.9344 H   0  0  0  0  0  0
  -23.9806  -27.3155   18.9979 H   0  0  0  0  0  0
  -23.7354  -30.6004   19.4043 H   0  0  0  0  0  0
  -22.7396  -29.2509   19.8577 H   0  0  0  0  0  0
  -25.1265  -36.1949   25.0827 H   0  0  0  0  0  0
  -20.9934  -28.3180   24.1413 H   0  0  0  0  0  0
  -20.5578  -26.2257   23.3591 H   0  0  0  0  0  0
  -21.6612  -26.7371   22.1220 H   0  0  0  0  0  0
  -19.6869  -25.6274   21.1222 H   0  0  0  0  0  0
  -19.6638  -27.3167   20.6718 H   0  0  0  0  0  0
  -17.4161  -26.6620   21.4046 H   0  0  0  0  0  0
  -18.0328  -26.0034   22.9022 H   0  0  0  0  0  0
  -19.7935  -30.7257   24.2217 H   0  0  0  0  0  0
  -17.5012  -31.6237   24.5171 H   0  0  0  0  0  0
  -15.5344  -30.2977   23.7631 H   0  0  0  0  0  0
  -15.8658  -28.0827   22.7015 H   0  0  0  0  0  0
  -24.5923  -30.7041   25.7928 H   0  0  0  0  0  0
  -24.8951  -32.2898   26.4920 H   0  0  0  0  0  0
  -25.8150  -30.8972   27.0284 H   0  0  0  0  0  0
  -26.2805  -29.6773   24.1146 H   0  0  0  0  0  0
  -27.3884  -29.7170   25.4663 H   0  0  0  0  0  0
  -27.8727  -30.4208   23.9402 H   0  0  0  0  0  0
  -27.2610  -33.3579   26.2082 H   0  0  0  0  0  0
  -28.3859  -32.6847   25.0368 H   0  0  0  0  0  0
  -28.0644  -31.8404   26.5452 H   0  0  0  0  0  0
  -28.2569  -38.0126   24.7526 H   0  0  0  0  0  0
  -28.1100  -36.2656   24.6245 H   0  0  0  0  0  0
  -27.2318  -37.1421   25.8870 H   0  0  0  0  0  0
  -20.9296  -29.8817   21.6991 H   0  0  0  0  0  0
  -26.0155  -38.2865   24.1422 H   0  0  0  0  0  0
  -31.5938  -18.1344   19.1905 H   0  0  0  0  0  0
  -31.1361  -20.6338   18.9460 H   0  0  0  0  0  0
  -31.9106  -17.1815   23.3898 H   0  0  0  0  0  0
  -31.4549  -15.4178   23.1277 H   0  0  0  0  0  0
  -28.9027  -15.6751   19.2203 H   0  0  0  0  0  0
  -30.2943  -24.8767   20.8328 H   0  0  0  0  0  0
  -28.8861  -24.3525   21.7239 H   0  0  0  0  0  0
  -27.4260  -24.7925   19.8526 H   0  0  0  0  0  0
  -28.7424  -25.1798   18.7625 H   0  0  0  0  0  0
  -29.7752  -22.2686   22.1207 H   0  0  0  0  0  0
  1 25  1  0  0  0
  1 30  2  0  0  0
  1 82  1  0  0  0
  2  3  1  0  0  0
  2 25  1  0  0  0
  2 86  1  0  0  0
  2 87  1  0  0  0
  3  4  1  0  0  0
  3 88  1  0  0  0
  3 89  1  0  0  0
  4  5  1  0  0  0
  4 90  1  0  0  0
  4 91  1  0  0  0
  5  6  1  0  0  0
  5 26  1  0  0  0
  5 92  1  0  0  0
  6 25  1  0  0  0
  6 93  1  0  0  0
  6 94  1  0  0  0
  7  8  2  0  0  0
  7 26  1  0  0  0
  7 29  1  0  0  0
  8  9  1  0  0  0
  8 22  1  0  0  0
  9 10  1  0  0  0
  9 27  2  0  0  0
 10 11  2  0  0  0
 10 15  1  0  0  0
 11 12  1  0  0  0
 11 95  1  0  0  0
 12 13  2  0  0  0
 12 96  1  0  0  0
 13 14  1  0  0  0
 13 31  1  0  0  0
 14 15  2  0  0  0
 14 97  1  0  0  0
 15 98  1  0  0  0
 16 17  2  0  0  0
 16 21  1  0  0  0
 16 31  1  0  0  0
 17 18  1  0  0  0
 17 99  1  0  0  0
 18 19  2  0  0  0
 18100  1  0  0  0
 19 20  1  0  0  0
 19 24  1  0  0  0
 20 21  2  0  0  0
 20101  1  0  0  0
 21 23  1  0  0  0
 22 28  1  0  0  0
 22 32  2  0  0  0
 26 27  1  0  0  0
 28102  1  0  0  0
 28103  1  0  0  0
 29104  1  0  0  0
 29105  1  0  0  0
 33 34  1  0  0  0
 33 66  1  0  0  0
 33 70  2  0  0  0
 34 36  1  0  0  0
 34 59  1  0  0  0
 34106  1  0  0  0
 35 44  2  0  0  0
 35 45  1  0  0  0
 35 68  1  0  0  0
 36 56  1  0  0  0
 36107  1  0  0  0
 37 39  1  0  0  0
 37 47  1  0  0  0
 37 66  1  0  0  0
 37108  1  0  0  0
 38 43  2  0  0  0
 38 46  1  0  0  0
 38 47  1  0  0  0
 39 64  1  0  0  0
 39 67  2  0  0  0
 40 52  1  0  0  0
 40 53  2  0  0  0
 40 58  1  0  0  0
 41109  1  0  0  0
 41110  1  0  0  0
 41111  1  0  0  0
 41 48  1  0  0  0
 42 43  1  0  0  0
 42 66  1  0  0  0
 42112  1  0  0  0
 42113  1  0  0  0
 43 44  1  0  0  0
 44114  1  0  0  0
 45 46  2  0  0  0
 45115  1  0  0  0
 46116  1  0  0  0
 47117  1  0  0  0
 47118  1  0  0  0
 48 56  1  0  0  0
 48 65  1  0  0  0
 48119  1  0  0  0
 49 50  1  0  0  0
 49 53  1  0  0  0
 49 64  1  0  0  0
 49120  1  0  0  0
 50 51  1  0  0  0
 50121  1  0  0  0
 50122  1  0  0  0
 51 52  1  0  0  0
 51123  1  0  0  0
 51124  1  0  0  0
 52125  1  0  0  0
 52126  1  0  0  0
 53 54  1  0  0  0
 54 55  2  0  0  0
 54127  1  0  0  0
 55 57  1  0  0  0
 55128  1  0  0  0
 56 69  2  0  0  0
 57 58  2  0  0  0
 57129  1  0  0  0
 58130  1  0  0  0
 59 60  1  0  0  0
 59 61  1  0  0  0
 59 62  1  0  0  0
 60131  1  0  0  0
 60132  1  0  0  0
 60133  1  0  0  0
 61134  1  0  0  0
 61135  1  0  0  0
 61136  1  0  0  0
 62137  1  0  0  0
 62138  1  0  0  0
 62139  1  0  0  0
 63 65  1  0  0  0
 63140  1  0  0  0
 63141  1  0  0  0
 63142  1  0  0  0
 64143  1  0  0  0
 65144  1  0  0  0
 68 80  1  0  0  0
 71 72  1  0  0  0
 71 73  2  0  0  0
 71145  1  0  0  0
 72 74  2  0  0  0
 72146  1  0  0  0
 73 77  1  0  0  0
 73 85  1  0  0  0
 74 81  1  0  0  0
 74 85  1  0  0  0
 75 77  2  0  0  0
 75147  1  0  0  0
 75148  1  0  0  0
 76 82  1  0  0  0
 76 83  2  0  0  0
 76149  1  0  0  0
 77 82  1  0  0  0
 78 79  1  0  0  0
 78 81  1  0  0  0
 78 84  2  0  0  0
 79 80  1  0  0  0
 79150  1  0  0  0
 79151  1  0  0  0
 80152  1  0  0  0
 80153  1  0  0  0
 81154  1  0  0  0
M  ISO  4   1 100  68 101  80 101  82 100
M  END
> <chiral flag>
0

> <version>
0

> <s_m_source_file>
/data/baiqing/PycharmProjects/Reinvent-master-3.2/result/LINK_invent/BTK/process_docking_weight1_custom_product_contain_oxygen_bond_distance_aromatic_linkinvent_7_9_3/rearranged_h_0090.sdf

> <i_m_source_file_index>
52

> <r_mmod_Potential_Energy-OPLS-2005>
73.9790420532227

> <r_mmod_Stretch_Energy-OPLS-2005>
54.7508125305176

> <r_mmod_Bend_Energy-OPLS-2005>
127.637786865234

> <r_mmod_Torsional_Energy-OPLS-2005>
291.805999755859

> <r_mmod_Improper_Torsional_Energy-OPLS-2005>
4.65975713729858

> <r_mmod_Van_der_Waal_Energy-OPLS-2005>
163.496917724609

> <r_mmod_Electrostatic_Energy-OPLS-2005>
-391.247833251953

> <r_mmod_Solvation_Energy-OPLS-2005>
-214.898651123047

> <b_mmod_Minimization_Converged-OPLS-2005>
0

> <r_mmod_RMS_Derivative-OPLS-2005>
3.10640501976013

$$$$
52
                    3D
 Structure written by MMmdl.
149157  0  0  1  0            999 V2000
  -30.7022  -14.6453   20.4923 C   0  0  0  0  0  0
  -30.4210  -12.4055   19.4507 C   0  0  0  0  0  0
  -29.4974  -12.4944   18.2202 C   0  0  0  0  0  0
  -28.0239  -12.3405   18.6410 C   0  0  0  0  0  0
  -27.6451  -13.2344   19.8538 C   0  0  2  0  0  0
  -28.6968  -13.1558   20.9836 C   0  0  0  0  0  0
  -25.2523  -13.8207   20.5704 C   0  0  0  0  0  0
  -24.1815  -13.0440   20.9226 C   0  0  0  0  0  0
  -24.6416  -11.6916   20.8780 C   0  0  0  0  0  0
  -23.9101  -10.4293   21.0432 C   0  0  0  0  0  0
  -24.3636   -9.4203   21.9209 C   0  0  0  0  0  0
  -23.6293   -8.2247   22.0774 C   0  0  0  0  0  0
  -22.4288   -8.0288   21.3541 C   0  0  0  0  0  0
  -21.9943   -9.0267   20.4642 C   0  0  0  0  0  0
  -22.7286  -10.2142   20.3055 C   0  0  0  0  0  0
  -21.6866   -6.0733   22.5272 C   0  0  0  0  0  0
  -21.4013   -6.5637   23.8201 C   0  0  0  0  0  0
  -21.3662   -5.6794   24.9163 C   0  0  0  0  0  0
  -21.6054   -4.3063   24.7228 C   0  0  0  0  0  0
  -21.8819   -3.8148   23.4352 C   0  0  0  0  0  0
  -21.9195   -4.6957   22.3396 C   0  0  0  0  0  0
  -22.7827  -13.5207   21.1873 C   0  0  0  0  0  0
  -22.1678   -4.2138   21.0982 F   0  0  0  0  0  0
  -21.5622   -3.4543   25.7746 F   0  0  0  0  0  0
  -30.0021  -13.4700   20.3883 N   0  0  0  0  0  0
  -26.2968  -12.9428   20.3332 N   0  0  0  0  0  0
  -25.9355  -11.6571   20.5806 N   0  0  0  0  0  0
  -22.0437  -12.8185   22.0391 N   0  0  0  0  0  0
  -25.4179  -15.1933   20.4077 N   0  0  0  0  0  0
  -31.8961  -14.6572   20.1829 O   0  0  0  0  0  0
  -21.6652   -6.8881   21.4239 O   0  0  0  0  0  0
  -22.3527  -14.5511   20.6711 O   0  0  0  0  0  0
  -24.6222  -31.8627   23.2062 C   0  0  0  0  0  0
  -25.9076  -32.4799   23.8371 C   0  0  1  0  0  0
  -27.2166  -27.3402   20.1225 C   0  0  0  0  0  0
  -25.5903  -33.8600   24.2294 N   0  0  0  0  0  0
  -23.4147  -30.4865   21.5484 C   0  0  2  0  0  0
  -24.8615  -28.9391   20.1188 C   0  0  0  0  0  0
  -22.7442  -29.4637   22.4965 C   0  0  0  0  0  0
  -18.0277  -28.1383   22.8483 C   0  0  0  0  0  0
  -24.1491  -36.7301   23.2645 C   0  0  0  0  0  0
  -25.9537  -30.7963   21.3765 C   0  0  0  0  0  0
  -26.0283  -29.4210   20.7293 C   0  0  0  0  0  0
  -27.2121  -28.6276   20.7341 C   0  0  0  0  0  0
  -26.0370  -26.9024   19.4925 C   0  0  0  0  0  0
  -24.8635  -27.6796   19.4972 C   0  0  0  0  0  0
  -23.6292  -29.8204   20.1644 C   0  0  0  0  0  0
  -25.4115  -36.3098   24.0335 C   0  0  1  0  0  0
  -20.5873  -28.3680   23.1285 C   0  0  2  0  0  0
  -20.6771  -26.9410   22.5417 C   0  0  0  0  0  0
  -19.5748  -26.6381   21.5219 C   0  0  0  0  0  0
  -18.1925  -26.7922   22.1624 C   0  0  0  0  0  0
  -19.1532  -28.8848   23.2881 C   0  0  0  0  0  0
  -18.9458  -30.1450   23.8897 C   0  0  0  0  0  0
  -17.6464  -30.6587   24.0557 C   0  0  0  0  0  0
  -25.9044  -34.9465   23.5116 C   0  0  0  0  0  0
  -16.5351  -29.9089   23.6328 C   0  0  0  0  0  0
  -16.7273  -28.6504   23.0353 C   0  0  0  0  0  0
  -26.4477  -31.6597   25.0730 C   0  0  0  0  0  0
  -25.3713  -31.3730   26.1459 C   0  0  0  0  0  0
  -27.0325  -30.3031   24.6171 C   0  0  0  0  0  0
  -27.6043  -32.4322   25.7499 C   0  0  0  0  0  0
  -27.5576  -37.1819   24.8471 C   0  0  0  0  0  0
  -21.4161  -29.3030   22.3677 N   0  0  0  0  0  0
  -26.4302  -37.3781   23.9395 N   0  0  0  0  0  0
  -24.6824  -31.0647   22.1007 N   0  0  0  0  0  0
  -23.4182  -28.8183   23.3042 O   0  0  0  0  0  0
  -28.2972  -26.4633   20.0796 O   0  0  0  0  0  0
  -26.5620  -34.8917   22.4693 O   0  0  0  0  0  0
  -23.5383  -32.1428   23.7386 O   0  0  0  0  0  0
  -30.0718  -19.6794   21.0641 C   0  0  0  0  0  0
  -28.0726  -20.1395   19.9495 C   0  0  0  0  0  0
  -29.1288  -20.6941   20.6312 C   0  0  0  0  0  0
  -29.7463  -18.3712   20.7072 C   0  0  0  0  0  0
  -28.6041  -25.7475   21.2297 C   0  0  0  0  0  0
  -30.5449  -17.0773   20.8637 C   0  0  0  0  0  0
  -28.7947  -24.4012   21.4580 C   0  0  0  0  0  0
  -28.6301  -23.2463   20.5270 C   0  0  0  0  0  0
  -29.2757  -22.1101   20.9601 N   0  0  0  0  0  0
  -30.0056  -15.8194   20.6984 N   0  0  0  0  0  0
  -31.7289  -17.2414   21.1827 O   0  0  0  0  0  0
  -27.9693  -23.2751   19.4870 O   0  0  0  0  0  0
  -29.1268  -24.0822   22.7198 O   0  0  0  0  0  0
  -28.2308  -18.3831   19.8256 S   0  0  0  0  0  0
  -31.4635  -12.4929   19.1386 H   0  0  0  0  0  0
  -30.3353  -11.4278   19.9279 H   0  0  0  0  0  0
  -29.7624  -11.7203   17.4989 H   0  0  0  0  0  0
  -29.6395  -13.4512   17.7146 H   0  0  0  0  0  0
  -27.8669  -11.2895   18.8890 H   0  0  0  0  0  0
  -27.3653  -12.5547   17.7997 H   0  0  0  0  0  0
  -27.6446  -14.2605   19.4851 H   0  0  0  0  0  0
  -28.7196  -12.1621   21.4340 H   0  0  0  0  0  0
  -28.4535  -13.8521   21.7884 H   0  0  0  0  0  0
  -25.2776   -9.5673   22.4795 H   0  0  0  0  0  0
  -23.9982   -7.4654   22.7523 H   0  0  0  0  0  0
  -21.0876   -8.8803   19.8935 H   0  0  0  0  0  0
  -22.3769  -10.9683   19.6146 H   0  0  0  0  0  0
  -21.2005   -7.6149   23.9700 H   0  0  0  0  0  0
  -21.1487   -6.0527   25.9068 H   0  0  0  0  0  0
  -22.0603   -2.7613   23.2861 H   0  0  0  0  0  0
  -22.4046  -11.9860   22.4799 H   0  0  0  0  0  0
  -21.1003  -13.1153   22.2472 H   0  0  0  0  0  0
  -24.6447  -15.8423   20.5091 H   0  0  0  0  0  0
  -26.2558  -15.6337   20.0501 H   0  0  0  0  0  0
  -26.7136  -32.5486   23.1110 H   0  0  0  0  0  0
  -25.0018  -33.9759   25.0418 H   0  0  0  0  0  0
  -22.7070  -31.3060   21.4060 H   0  0  0  0  0  0
  -23.3745  -35.9644   23.3337 H   0  0  0  0  0  0
  -24.3574  -36.8893   22.2054 H   0  0  0  0  0  0
  -23.7257  -37.6518   23.6646 H   0  0  0  0  0  0
  -26.0792  -31.5544   20.6004 H   0  0  0  0  0  0
  -26.8365  -30.8512   22.0024 H   0  0  0  0  0  0
  -28.1085  -28.9904   21.2175 H   0  0  0  0  0  0
  -26.0236  -25.9349   19.0106 H   0  0  0  0  0  0
  -23.9682  -27.3044   19.0205 H   0  0  0  0  0  0
  -23.7458  -30.5965   19.4065 H   0  0  0  0  0  0
  -22.7494  -29.2486   19.8651 H   0  0  0  0  0  0
  -25.1299  -36.1965   25.0830 H   0  0  0  0  0  0
  -20.9962  -28.3267   24.1407 H   0  0  0  0  0  0
  -20.5675  -26.2296   23.3615 H   0  0  0  0  0  0
  -21.6641  -26.7445   22.1215 H   0  0  0  0  0  0
  -19.6923  -25.6294   21.1247 H   0  0  0  0  0  0
  -19.6698  -27.3185   20.6742 H   0  0  0  0  0  0
  -17.4200  -26.6656   21.4028 H   0  0  0  0  0  0
  -18.0337  -26.0076   22.9028 H   0  0  0  0  0  0
  -19.7945  -30.7258   24.2272 H   0  0  0  0  0  0
  -17.5028  -31.6272   24.5151 H   0  0  0  0  0  0
  -15.5355  -30.2991   23.7664 H   0  0  0  0  0  0
  -15.8664  -28.0824   22.7071 H   0  0  0  0  0  0
  -24.5879  -30.7098   25.7774 H   0  0  0  0  0  0
  -24.8920  -32.2906   26.4887 H   0  0  0  0  0  0
  -25.8035  -30.8895   27.0230 H   0  0  0  0  0  0
  -26.2912  -29.6783   24.1182 H   0  0  0  0  0  0
  -27.4024  -29.7277   25.4661 H   0  0  0  0  0  0
  -27.8772  -30.4328   23.9400 H   0  0  0  0  0  0
  -27.2662  -33.3615   26.2089 H   0  0  0  0  0  0
  -28.3850  -32.6894   25.0327 H   0  0  0  0  0  0
  -28.0711  -31.8444   26.5406 H   0  0  0  0  0  0
  -28.2621  -38.0084   24.7461 H   0  0  0  0  0  0
  -28.1044  -36.2616   24.6370 H   0  0  0  0  0  0
  -27.2286  -37.1551   25.8872 H   0  0  0  0  0  0
  -20.9338  -29.8742   21.6878 H   0  0  0  0  0  0
  -26.0193  -38.2872   24.1346 H   0  0  0  0  0  0
  -30.9749  -19.9361   21.6019 H   0  0  0  0  0  0
  -27.2093  -20.6358   19.5195 H   0  0  0  0  0  0
  -28.7228  -26.4406   22.0514 H   0  0  0  0  0  0
  -29.9769  -22.3049   21.6620 H   0  0  0  0  0  0
  -29.0031  -15.7650   20.6536 H   0  0  0  0  0  0
  -28.9480  -23.1550   22.8263 H   0  0  0  0  0  0
  1 25  1  0  0  0
  1 30  2  0  0  0
  1 80  1  0  0  0
  2  3  1  0  0  0
  2 25  1  0  0  0
  2 85  1  0  0  0
  2 86  1  0  0  0
  3  4  1  0  0  0
  3 87  1  0  0  0
  3 88  1  0  0  0
  4  5  1  0  0  0
  4 89  1  0  0  0
  4 90  1  0  0  0
  5  6  1  0  0  0
  5 26  1  0  0  0
  5 91  1  0  0  0
  6 25  1  0  0  0
  6 92  1  0  0  0
  6 93  1  0  0  0
  7  8  2  0  0  0
  7 26  1  0  0  0
  7 29  1  0  0  0
  8  9  1  0  0  0
  8 22  1  0  0  0
  9 10  1  0  0  0
  9 27  2  0  0  0
 10 11  2  0  0  0
 10 15  1  0  0  0
 11 12  1  0  0  0
 11 94  1  0  0  0
 12 13  2  0  0  0
 12 95  1  0  0  0
 13 14  1  0  0  0
 13 31  1  0  0  0
 14 15  2  0  0  0
 14 96  1  0  0  0
 15 97  1  0  0  0
 16 17  2  0  0  0
 16 21  1  0  0  0
 16 31  1  0  0  0
 17 18  1  0  0  0
 17 98  1  0  0  0
 18 19  2  0  0  0
 18 99  1  0  0  0
 19 20  1  0  0  0
 19 24  1  0  0  0
 20 21  2  0  0  0
 20100  1  0  0  0
 21 23  1  0  0  0
 22 28  1  0  0  0
 22 32  2  0  0  0
 26 27  1  0  0  0
 28101  1  0  0  0
 28102  1  0  0  0
 29103  1  0  0  0
 29104  1  0  0  0
 33 34  1  0  0  0
 33 66  1  0  0  0
 33 70  2  0  0  0
 34 36  1  0  0  0
 34 59  1  0  0  0
 34105  1  0  0  0
 35 44  2  0  0  0
 35 45  1  0  0  0
 35 68  1  0  0  0
 36 56  1  0  0  0
 36106  1  0  0  0
 37 39  1  0  0  0
 37 47  1  0  0  0
 37 66  1  0  0  0
 37107  1  0  0  0
 38 43  2  0  0  0
 38 46  1  0  0  0
 38 47  1  0  0  0
 39 64  1  0  0  0
 39 67  2  0  0  0
 40 52  1  0  0  0
 40 53  2  0  0  0
 40 58  1  0  0  0
 41108  1  0  0  0
 41109  1  0  0  0
 41110  1  0  0  0
 41 48  1  0  0  0
 42 43  1  0  0  0
 42 66  1  0  0  0
 42111  1  0  0  0
 42112  1  0  0  0
 43 44  1  0  0  0
 44113  1  0  0  0
 45 46  2  0  0  0
 45114  1  0  0  0
 46115  1  0  0  0
 47116  1  0  0  0
 47117  1  0  0  0
 48 56  1  0  0  0
 48 65  1  0  0  0
 48118  1  0  0  0
 49 50  1  0  0  0
 49 53  1  0  0  0
 49 64  1  0  0  0
 49119  1  0  0  0
 50 51  1  0  0  0
 50120  1  0  0  0
 50121  1  0  0  0
 51 52  1  0  0  0
 51122  1  0  0  0
 51123  1  0  0  0
 52124  1  0  0  0
 52125  1  0  0  0
 53 54  1  0  0  0
 54 55  2  0  0  0
 54126  1  0  0  0
 55 57  1  0  0  0
 55127  1  0  0  0
 56 69  2  0  0  0
 57 58  2  0  0  0
 57128  1  0  0  0
 58129  1  0  0  0
 59 60  1  0  0  0
 59 61  1  0  0  0
 59 62  1  0  0  0
 60130  1  0  0  0
 60131  1  0  0  0
 60132  1  0  0  0
 61133  1  0  0  0
 61134  1  0  0  0
 61135  1  0  0  0
 62136  1  0  0  0
 62137  1  0  0  0
 62138  1  0  0  0
 63 65  1  0  0  0
 63139  1  0  0  0
 63140  1  0  0  0
 63141  1  0  0  0
 64142  1  0  0  0
 65143  1  0  0  0
 68 75  1  0  0  0
 71 73  1  0  0  0
 71 74  2  0  0  0
 71144  1  0  0  0
 72 73  2  0  0  0
 72 84  1  0  0  0
 72145  1  0  0  0
 73 79  1  0  0  0
 74 76  1  0  0  0
 74 84  1  0  0  0
 75 77  2  0  0  0
 75146  1  0  0  0
 76 80  1  0  0  0
 76 81  2  0  0  0
 77 78  1  0  0  0
 77 83  1  0  0  0
 78 79  1  0  0  0
 78 82  2  0  0  0
 79147  1  0  0  0
 80148  1  0  0  0
 83149  1  0  0  0
M  ISO  4   1 100  68 101  75 101  80 100
M  END
> <chiral flag>
0

> <version>
0

> <s_m_source_file>
/data/baiqing/PycharmProjects/Reinvent-master-3.2/result/LINK_invent/BTK/process_docking_weight1_custom_product_contain_oxygen_bond_distance_aromatic_linkinvent_7_9_3/rearranged_h_0090.sdf

> <i_m_source_file_index>
53

> <r_mmod_Potential_Energy-OPLS-2005>
-30.2696380615234

> <r_mmod_Stretch_Energy-OPLS-2005>
69.1993408203125

> <r_mmod_Bend_Energy-OPLS-2005>
160.189682006836

> <r_mmod_Torsional_Energy-OPLS-2005>
266.148162841797

> <r_mmod_Improper_Torsional_Energy-OPLS-2005>
6.34482574462891

> <r_mmod_Van_der_Waal_Energy-OPLS-2005>
127.652053833008

> <r_mmod_Electrostatic_Energy-OPLS-2005>
-456.580474853516

> <r_mmod_Solvation_Energy-OPLS-2005>
-255.275314331055

> <b_mmod_Minimization_Converged-OPLS-2005>
0

> <r_mmod_RMS_Derivative-OPLS-2005>
2.39349865913391

$$$$
53
                    3D
 Structure written by MMmdl.
159167  0  0  1  0            999 V2000
  -30.1632  -16.0314   20.3035 C   0  0  0  0  0  0
  -30.3893  -13.3637   19.6059 C   0  0  0  0  0  0
  -29.5705  -12.7960   18.3928 C   0  0  0  0  0  0
  -28.1672  -12.3515   18.8186 C   0  0  0  0  0  0
  -27.5868  -13.3662   19.8238 C   0  0  2  0  0  0
  -28.5643  -13.8308   20.9414 C   0  0  0  0  0  0
  -25.2237  -13.8385   20.5870 C   0  0  0  0  0  0
  -24.1680  -13.0465   20.9312 C   0  0  0  0  0  0
  -24.6487  -11.7016   20.8812 C   0  0  0  0  0  0
  -23.9226  -10.4335   21.0433 C   0  0  0  0  0  0
  -24.3734   -9.4219   21.9204 C   0  0  0  0  0  0
  -23.6366   -8.2276   22.0758 C   0  0  0  0  0  0
  -22.4327   -8.0364   21.3578 C   0  0  0  0  0  0
  -22.0023   -9.0351   20.4668 C   0  0  0  0  0  0
  -22.7412  -10.2184   20.3066 C   0  0  0  0  0  0
  -21.6868   -6.0816   22.5312 C   0  0  0  0  0  0
  -21.4048   -6.5695   23.8263 C   0  0  0  0  0  0
  -21.3652   -5.6816   24.9208 C   0  0  0  0  0  0
  -21.6009   -4.3081   24.7228 C   0  0  0  0  0  0
  -21.8824   -3.8204   23.4347 C   0  0  0  0  0  0
  -21.9199   -4.7043   22.3420 C   0  0  0  0  0  0
  -22.7683  -13.5151   21.1957 C   0  0  0  0  0  0
  -22.1670   -4.2245   21.0994 F   0  0  0  0  0  0
  -21.5593   -3.4546   25.7720 F   0  0  0  0  0  0
  -29.7006  -14.5820   20.3134 N   0  0  0  0  0  0
  -26.2772  -12.9848   20.3340 N   0  0  0  0  0  0
  -25.9453  -11.6861   20.5722 N   0  0  0  0  0  0
  -22.0353  -12.8118   22.0488 N   0  0  0  0  0  0
  -25.3731  -15.2152   20.4354 N   0  0  0  0  0  0
  -31.3678  -15.9030   19.9739 O   0  0  0  0  0  0
  -21.6661   -6.8986   21.4279 O   0  0  0  0  0  0
  -22.3361  -14.5475   20.6834 O   0  0  0  0  0  0
  -24.7074  -31.7708   23.1309 C   0  0  0  0  0  0
  -25.9492  -32.4354   23.8001 C   0  0  1  0  0  0
  -27.2418  -26.4581   20.2289 C   0  0  0  0  0  0
  -25.5949  -33.8194   24.1851 N   0  0  0  0  0  0
  -23.5447  -30.3588   21.4931 C   0  0  2  0  0  0
  -25.0066  -28.6491   20.1216 C   0  0  0  0  0  0
  -22.7847  -29.4140   22.4634 C   0  0  0  0  0  0
  -18.0342  -28.1357   22.8467 C   0  0  0  0  0  0
  -24.1469  -36.7112   23.2660 C   0  0  0  0  0  0
  -26.1349  -30.4197   21.4328 C   0  0  0  0  0  0
  -26.1972  -28.9614   20.7836 C   0  0  0  0  0  0
  -27.2843  -27.8991   20.8021 C   0  0  0  0  0  0
  -26.0171  -26.4227   19.4938 C   0  0  0  0  0  0
  -24.9688  -27.4089   19.4530 C   0  0  0  0  0  0
  -23.8108  -29.6302   20.1397 C   0  0  0  0  0  0
  -25.4126  -36.2858   24.0284 C   0  0  1  0  0  0
  -20.5995  -28.3749   23.1078 C   0  0  2  0  0  0
  -20.6760  -26.9369   22.5395 C   0  0  0  0  0  0
  -19.5759  -26.6312   21.5188 C   0  0  0  0  0  0
  -18.1945  -26.7898   22.1595 C   0  0  0  0  0  0
  -19.1615  -28.8882   23.2754 C   0  0  0  0  0  0
  -18.9508  -30.1455   23.8828 C   0  0  0  0  0  0
  -17.6492  -30.6563   24.0520 C   0  0  0  0  0  0
  -25.9124  -34.9241   23.4944 C   0  0  0  0  0  0
  -16.5381  -29.9041   23.6331 C   0  0  0  0  0  0
  -16.7322  -28.6424   23.0429 C   0  0  0  0  0  0
  -26.4598  -31.6514   25.0734 C   0  0  0  0  0  0
  -25.3599  -31.3887   26.1309 C   0  0  0  0  0  0
  -27.0544  -30.2818   24.6815 C   0  0  0  0  0  0
  -27.6026  -32.4427   25.7536 C   0  0  0  0  0  0
  -27.5570  -37.1694   24.8460 C   0  0  0  0  0  0
  -21.4464  -29.2990   22.3388 N   0  0  0  0  0  0
  -26.4257  -37.3629   23.9433 N   0  0  0  0  0  0
  -24.8223  -30.8892   22.0708 N   0  0  0  0  0  0
  -23.4160  -28.7762   23.3078 O   0  0  0  0  0  0
  -28.1723  -25.1286   20.3421 O   0  0  0  0  0  0
  -26.5834  -34.8853   22.4603 O   0  0  0  0  0  0
  -23.6023  -32.0916   23.6060 O   0  0  0  0  0  0
  -31.1648  -18.9105   22.4780 C   0  0  0  0  0  0
  -29.1475  -19.2573   23.7941 C   0  0  0  0  0  0
  -29.8033  -18.6169   22.7160 C   0  0  0  0  0  0
  -31.1838  -20.5368   24.3037 C   0  0  0  0  0  0
  -31.8492  -19.8634   23.2503 C   0  0  0  0  0  0
  -29.8316  -20.2099   24.5845 C   0  0  0  0  0  0
  -29.0967  -17.5870   21.8630 C   0  0  0  0  0  0
  -31.8999  -21.6097   25.1289 C   0  0  0  0  0  0
  -28.8542  -21.3307   20.5450 C   0  0  0  0  0  0
  -29.2682  -19.3384   19.9911 C   0  0  0  0  0  0
  -28.1989  -23.2625   20.0104 C   0  0  0  0  0  0
  -33.1861  -20.1231   22.9386 N   0  0  0  0  0  0
  -29.1658  -20.8293   25.6453 N   0  0  0  0  0  0
  -29.4849  -17.5223   20.5713 N   0  0  0  0  0  0
  -28.2478  -16.8514   22.3757 O   0  0  0  0  0  0
  -31.3762  -13.6415   19.2345 H   0  0  0  0  0  0
  -30.6002  -12.5698   20.3250 H   0  0  0  0  0  0
  -30.1038  -11.9683   17.9256 H   0  0  0  0  0  0
  -29.4847  -13.5752   17.6327 H   0  0  0  0  0  0
  -28.2420  -11.3683   19.2854 H   0  0  0  0  0  0
  -27.5143  -12.2432   17.9519 H   0  0  0  0  0  0
  -27.4054  -14.2531   19.2113 H   0  0  0  0  0  0
  -28.8869  -12.9942   21.5617 H   0  0  0  0  0  0
  -28.0378  -14.4976   21.6209 H   0  0  0  0  0  0
  -25.2882   -9.5650   22.4799 H   0  0  0  0  0  0
  -24.0074   -7.4637   22.7450 H   0  0  0  0  0  0
  -21.0976   -8.8947   19.8954 H   0  0  0  0  0  0
  -22.3961  -10.9754   19.6176 H   0  0  0  0  0  0
  -21.2074   -7.6205   23.9817 H   0  0  0  0  0  0
  -21.1438   -6.0531   25.9117 H   0  0  0  0  0  0
  -22.0586   -2.7672   23.2819 H   0  0  0  0  0  0
  -22.4003  -11.9767   22.4830 H   0  0  0  0  0  0
  -21.0964  -13.1125   22.2720 H   0  0  0  0  0  0
  -24.5984  -15.8583   20.5622 H   0  0  0  0  0  0
  -26.2351  -15.6773   20.1748 H   0  0  0  0  0  0
  -26.7600  -32.4776   23.0741 H   0  0  0  0  0  0
  -24.9974  -33.9212   24.9922 H   0  0  0  0  0  0
  -22.8864  -31.2028   21.2782 H   0  0  0  0  0  0
  -23.3793  -35.9379   23.3233 H   0  0  0  0  0  0
  -24.3524  -36.8876   22.2093 H   0  0  0  0  0  0
  -23.7158  -37.6221   23.6812 H   0  0  0  0  0  0
  -26.3664  -31.1239   20.6335 H   0  0  0  0  0  0
  -26.9752  -30.4927   22.1090 H   0  0  0  0  0  0
  -28.1738  -28.1614   21.3595 H   0  0  0  0  0  0
  -25.8148  -25.5036   18.9618 H   0  0  0  0  0  0
  -24.0767  -27.1586   18.8996 H   0  0  0  0  0  0
  -23.9978  -30.3801   19.3729 H   0  0  0  0  0  0
  -22.9111  -29.1043   19.8152 H   0  0  0  0  0  0
  -25.1318  -36.1641   25.0778 H   0  0  0  0  0  0
  -21.0092  -28.3379   24.1189 H   0  0  0  0  0  0
  -20.5494  -26.2383   23.3676 H   0  0  0  0  0  0
  -21.6630  -26.7200   22.1275 H   0  0  0  0  0  0
  -19.6903  -25.6189   21.1275 H   0  0  0  0  0  0
  -19.6712  -27.3050   20.6654 H   0  0  0  0  0  0
  -17.4205  -26.6667   21.4002 H   0  0  0  0  0  0
  -18.0340  -26.0019   22.8968 H   0  0  0  0  0  0
  -19.7986  -30.7274   24.2200 H   0  0  0  0  0  0
  -17.5041  -31.6255   24.5087 H   0  0  0  0  0  0
  -15.5374  -30.2921   23.7663 H   0  0  0  0  0  0
  -15.8721  -28.0660   22.7289 H   0  0  0  0  0  0
  -24.5850  -30.7151   25.7625 H   0  0  0  0  0  0
  -24.8702  -32.3102   26.4467 H   0  0  0  0  0  0
  -25.7734  -30.9263   27.0284 H   0  0  0  0  0  0
  -26.3282  -29.6381   24.1841 H   0  0  0  0  0  0
  -27.3864  -29.7370   25.5671 H   0  0  0  0  0  0
  -27.9324  -30.3866   24.0436 H   0  0  0  0  0  0
  -27.2573  -33.3855   26.1793 H   0  0  0  0  0  0
  -28.3985  -32.6788   25.0457 H   0  0  0  0  0  0
  -28.0534  -31.8783   26.5709 H   0  0  0  0  0  0
  -28.2511  -38.0061   24.7569 H   0  0  0  0  0  0
  -28.1142  -36.2591   24.6208 H   0  0  0  0  0  0
  -27.2294  -37.1215   25.8857 H   0  0  0  0  0  0
  -20.9787  -29.8679   21.6454 H   0  0  0  0  0  0
  -26.0098  -38.2673   24.1481 H   0  0  0  0  0  0
  -31.6847  -18.4065   21.6776 H   0  0  0  0  0  0
  -28.1132  -19.0162   24.0074 H   0  0  0  0  0  0
  -32.9252  -21.7888   24.8067 H   0  0  0  0  0  0
  -31.9392  -21.3374   26.1845 H   0  0  0  0  0  0
  -31.3789  -22.5632   25.0440 H   0  0  0  0  0  0
  -29.8125  -21.5923   20.9959 H   0  0  0  0  0  0
  -28.2069  -21.1555   21.4034 H   0  0  0  0  0  0
  -30.1797  -19.4569   19.4061 H   0  0  0  0  0  0
  -28.5036  -19.1934   19.2290 H   0  0  0  0  0  0
  -27.1268  -23.0874   19.9141 H   0  0  0  0  0  0
  -28.5231  -23.3040   18.9700 H   0  0  0  0  0  0
  -33.7071  -19.4791   22.3512 H   0  0  0  0  0  0
  -33.7724  -20.6147   23.6045 H   0  0  0  0  0  0
  -28.3439  -20.3852   26.0430 H   0  0  0  0  0  0
  -29.7326  -21.2855   26.3534 H   0  0  0  0  0  0
  1 25  1  0  0  0
  1 30  2  0  0  0
  1 84  1  0  0  0
  2  3  1  0  0  0
  2 25  1  0  0  0
  2 86  1  0  0  0
  2 87  1  0  0  0
  3  4  1  0  0  0
  3 88  1  0  0  0
  3 89  1  0  0  0
  4  5  1  0  0  0
  4 90  1  0  0  0
  4 91  1  0  0  0
  5  6  1  0  0  0
  5 26  1  0  0  0
  5 92  1  0  0  0
  6 25  1  0  0  0
  6 93  1  0  0  0
  6 94  1  0  0  0
  7  8  2  0  0  0
  7 26  1  0  0  0
  7 29  1  0  0  0
  8  9  1  0  0  0
  8 22  1  0  0  0
  9 10  1  0  0  0
  9 27  2  0  0  0
 10 11  2  0  0  0
 10 15  1  0  0  0
 11 12  1  0  0  0
 11 95  1  0  0  0
 12 13  2  0  0  0
 12 96  1  0  0  0
 13 14  1  0  0  0
 13 31  1  0  0  0
 14 15  2  0  0  0
 14 97  1  0  0  0
 15 98  1  0  0  0
 16 17  2  0  0  0
 16 21  1  0  0  0
 16 31  1  0  0  0
 17 18  1  0  0  0
 17 99  1  0  0  0
 18 19  2  0  0  0
 18100  1  0  0  0
 19 20  1  0  0  0
 19 24  1  0  0  0
 20 21  2  0  0  0
 20101  1  0  0  0
 21 23  1  0  0  0
 22 28  1  0  0  0
 22 32  2  0  0  0
 26 27  1  0  0  0
 28102  1  0  0  0
 28103  1  0  0  0
 29104  1  0  0  0
 29105  1  0  0  0
 33 34  1  0  0  0
 33 66  1  0  0  0
 33 70  2  0  0  0
 34 36  1  0  0  0
 34 59  1  0  0  0
 34106  1  0  0  0
 35 44  2  0  0  0
 35 45  1  0  0  0
 35 68  1  0  0  0
 36 56  1  0  0  0
 36107  1  0  0  0
 37 39  1  0  0  0
 37 47  1  0  0  0
 37 66  1  0  0  0
 37108  1  0  0  0
 38 43  2  0  0  0
 38 46  1  0  0  0
 38 47  1  0  0  0
 39 64  1  0  0  0
 39 67  2  0  0  0
 40 52  1  0  0  0
 40 53  2  0  0  0
 40 58  1  0  0  0
 41109  1  0  0  0
 41110  1  0  0  0
 41111  1  0  0  0
 41 48  1  0  0  0
 42 43  1  0  0  0
 42 66  1  0  0  0
 42112  1  0  0  0
 42113  1  0  0  0
 43 44  1  0  0  0
 44114  1  0  0  0
 45 46  2  0  0  0
 45115  1  0  0  0
 46116  1  0  0  0
 47117  1  0  0  0
 47118  1  0  0  0
 48 56  1  0  0  0
 48 65  1  0  0  0
 48119  1  0  0  0
 49 50  1  0  0  0
 49 53  1  0  0  0
 49 64  1  0  0  0
 49120  1  0  0  0
 50 51  1  0  0  0
 50121  1  0  0  0
 50122  1  0  0  0
 51 52  1  0  0  0
 51123  1  0  0  0
 51124  1  0  0  0
 52125  1  0  0  0
 52126  1  0  0  0
 53 54  1  0  0  0
 54 55  2  0  0  0
 54127  1  0  0  0
 55 57  1  0  0  0
 55128  1  0  0  0
 56 69  2  0  0  0
 57 58  2  0  0  0
 57129  1  0  0  0
 58130  1  0  0  0
 59 60  1  0  0  0
 59 61  1  0  0  0
 59 62  1  0  0  0
 60131  1  0  0  0
 60132  1  0  0  0
 60133  1  0  0  0
 61134  1  0  0  0
 61135  1  0  0  0
 61136  1  0  0  0
 62137  1  0  0  0
 62138  1  0  0  0
 62139  1  0  0  0
 63 65  1  0  0  0
 63140  1  0  0  0
 63141  1  0  0  0
 63142  1  0  0  0
 64143  1  0  0  0
 65144  1  0  0  0
 68 81  1  0  0  0
 71 73  2  0  0  0
 71 75  1  0  0  0
 71145  1  0  0  0
 72 73  1  0  0  0
 72 76  2  0  0  0
 72146  1  0  0  0
 73 77  1  0  0  0
 74 75  2  0  0  0
 74 76  1  0  0  0
 74 78  1  0  0  0
 75 82  1  0  0  0
 76 83  1  0  0  0
 77 84  1  0  0  0
 77 85  2  0  0  0
 78147  1  0  0  0
 78148  1  0  0  0
 78149  1  0  0  0
 79 80  1  0  0  0
 79 81  1  0  0  0
 79150  1  0  0  0
 79151  1  0  0  0
 80 84  1  0  0  0
 80152  1  0  0  0
 80153  1  0  0  0
 81154  1  0  0  0
 81155  1  0  0  0
 82156  1  0  0  0
 82157  1  0  0  0
 83158  1  0  0  0
 83159  1  0  0  0
M  ISO  4   1 100  68 101  81 101  84 100
M  END
> <chiral flag>
0

> <version>
0

> <s_m_source_file>
/data/baiqing/PycharmProjects/Reinvent-master-3.2/result/LINK_invent/BTK/process_docking_weight1_custom_product_contain_oxygen_bond_distance_aromatic_linkinvent_7_9_3/rearranged_h_0090.sdf

> <i_m_source_file_index>
54

> <r_mmod_Potential_Energy-OPLS-2005>
4249.9423828125

> <r_mmod_Stretch_Energy-OPLS-2005>
1960.4453125

> <r_mmod_Bend_Energy-OPLS-2005>
899.646179199219

> <r_mmod_Torsional_Energy-OPLS-2005>
343.810119628906

> <r_mmod_Improper_Torsional_Energy-OPLS-2005>
8.05805778503418

> <r_mmod_Van_der_Waal_Energy-OPLS-2005>
139.160049438477

> <r_mmod_Electrostatic_Energy-OPLS-2005>
-429.767242431641

> <r_mmod_Solvation_Energy-OPLS-2005>
-214.347869873047

> <b_mmod_Minimization_Converged-OPLS-2005>
0

> <r_mmod_RMS_Derivative-OPLS-2005>
4.73113346099854

$$$$
54
                    3D
 Structure written by MMmdl.
146154  0  0  1  0            999 V2000
  -30.5419  -15.1222   20.4087 C   0  0  0  0  0  0
  -30.4247  -12.7147   19.5124 C   0  0  0  0  0  0
  -29.5196  -12.5514   18.2705 C   0  0  0  0  0  0
  -28.0640  -12.3043   18.6994 C   0  0  0  0  0  0
  -27.6138  -13.2700   19.8256 C   0  0  2  0  0  0
  -28.6539  -13.4104   20.9583 C   0  0  0  0  0  0
  -25.2396  -13.8252   20.5753 C   0  0  0  0  0  0
  -24.1741  -13.0443   20.9256 C   0  0  0  0  0  0
  -24.6391  -11.6938   20.8768 C   0  0  0  0  0  0
  -23.9088  -10.4296   21.0409 C   0  0  0  0  0  0
  -24.3634   -9.4208   21.9185 C   0  0  0  0  0  0
  -23.6304   -8.2245   22.0754 C   0  0  0  0  0  0
  -22.4285   -8.0284   21.3544 C   0  0  0  0  0  0
  -21.9926   -9.0258   20.4645 C   0  0  0  0  0  0
  -22.7259  -10.2135   20.3056 C   0  0  0  0  0  0
  -21.6856   -6.0738   22.5278 C   0  0  0  0  0  0
  -21.4017   -6.5641   23.8212 C   0  0  0  0  0  0
  -21.3660   -5.6793   24.9174 C   0  0  0  0  0  0
  -21.6044   -4.3056   24.7224 C   0  0  0  0  0  0
  -21.8819   -3.8148   23.4345 C   0  0  0  0  0  0
  -21.9194   -4.6965   22.3402 C   0  0  0  0  0  0
  -22.7758  -13.5195   21.1900 C   0  0  0  0  0  0
  -22.1662   -4.2150   21.0979 F   0  0  0  0  0  0
  -21.5628   -3.4539   25.7737 F   0  0  0  0  0  0
  -29.9017  -13.8656   20.3291 N   0  0  0  0  0  0
  -26.2824  -12.9521   20.3246 N   0  0  0  0  0  0
  -25.9328  -11.6629   20.5746 N   0  0  0  0  0  0
  -22.0417  -12.8175   22.0454 N   0  0  0  0  0  0
  -25.4036  -15.1986   20.4190 N   0  0  0  0  0  0
  -31.7548  -15.0537   20.1675 O   0  0  0  0  0  0
  -21.6645   -6.8882   21.4241 O   0  0  0  0  0  0
  -22.3438  -14.5495   20.6740 O   0  0  0  0  0  0
  -24.6548  -31.8335   23.1808 C   0  0  0  0  0  0
  -25.9271  -32.4639   23.8233 C   0  0  1  0  0  0
  -27.2076  -27.0125   20.1722 C   0  0  0  0  0  0
  -25.5974  -33.8451   24.2136 N   0  0  0  0  0  0
  -23.4654  -30.4505   21.5280 C   0  0  2  0  0  0
  -24.9187  -28.8614   20.1091 C   0  0  0  0  0  0
  -22.7630  -29.4490   22.4810 C   0  0  0  0  0  0
  -18.0317  -28.1404   22.8471 C   0  0  0  0  0  0
  -24.1493  -36.7229   23.2644 C   0  0  0  0  0  0
  -26.0309  -30.6646   21.4042 C   0  0  0  0  0  0
  -26.0991  -29.2640   20.7483 C   0  0  0  0  0  0
  -27.2417  -28.3554   20.7679 C   0  0  0  0  0  0
  -26.0119  -26.7620   19.4609 C   0  0  0  0  0  0
  -24.8951  -27.6270   19.4466 C   0  0  0  0  0  0
  -23.7012  -29.7780   20.1494 C   0  0  0  0  0  0
  -25.4130  -36.2998   24.0306 C   0  0  1  0  0  0
  -20.5937  -28.3743   23.1202 C   0  0  2  0  0  0
  -20.6797  -26.9433   22.5400 C   0  0  0  0  0  0
  -19.5769  -26.6379   21.5212 C   0  0  0  0  0  0
  -18.1952  -26.7939   22.1623 C   0  0  0  0  0  0
  -19.1576  -28.8893   23.2826 C   0  0  0  0  0  0
  -18.9488  -30.1485   23.8858 C   0  0  0  0  0  0
  -17.6483  -30.6595   24.0557 C   0  0  0  0  0  0
  -25.9090  -34.9377   23.5035 C   0  0  0  0  0  0
  -16.5373  -29.9084   23.6341 C   0  0  0  0  0  0
  -16.7299  -28.6504   23.0361 C   0  0  0  0  0  0
  -26.4549  -31.6551   25.0725 C   0  0  0  0  0  0
  -25.3695  -31.3779   26.1392 C   0  0  0  0  0  0
  -27.0438  -30.2926   24.6410 C   0  0  0  0  0  0
  -27.6053  -32.4347   25.7520 C   0  0  0  0  0  0
  -27.5574  -37.1771   24.8465 C   0  0  0  0  0  0
  -21.4308  -29.3049   22.3559 N   0  0  0  0  0  0
  -26.4283  -37.3724   23.9408 N   0  0  0  0  0  0
  -24.7374  -31.0074   22.0912 N   0  0  0  0  0  0
  -23.4216  -28.8042   23.3009 O   0  0  0  0  0  0
  -28.1774  -25.9020   20.2340 O   0  0  0  0  0  0
  -26.5686  -34.8893   22.4622 O   0  0  0  0  0  0
  -23.5636  -32.1272   23.6946 O   0  0  0  0  0  0
  -31.2352  -20.0959   21.4241 C   0  0  0  0  0  0
  -31.6743  -17.6845   21.4933 C   0  0  0  0  0  0
  -30.1660  -19.4575   20.8237 C   0  0  0  0  0  0
  -30.4589  -17.8700   20.8599 C   0  0  0  0  0  0
  -28.0711  -23.0652   20.4493 C   0  0  0  0  0  0
  -27.7146  -24.4852   20.4259 C   0  0  0  0  0  0
  -29.2469  -22.0357   20.2838 C   0  0  0  0  0  0
  -29.1100  -20.5758   20.4582 N   0  0  0  0  0  0
  -29.8856  -16.4371   20.5152 N   0  0  0  0  0  0
  -30.3451  -22.4796   19.9413 O   0  0  0  0  0  0
  -32.5156  -19.0989   21.9853 S   0  0  0  0  0  0
  -31.4538  -12.8693   19.1859 H   0  0  0  0  0  0
  -30.4432  -11.7968   20.1023 H   0  0  0  0  0  0
  -29.8724  -11.7297   17.6458 H   0  0  0  0  0  0
  -29.5748  -13.4518   17.6566 H   0  0  0  0  0  0
  -27.9978  -11.2743   19.0518 H   0  0  0  0  0  0
  -27.3947  -12.3771   17.8413 H   0  0  0  0  0  0
  -27.5411  -14.2464   19.3454 H   0  0  0  0  0  0
  -28.7902  -12.4709   21.4960 H   0  0  0  0  0  0
  -28.3202  -14.1459   21.6920 H   0  0  0  0  0  0
  -25.2774   -9.5685   22.4767 H   0  0  0  0  0  0
  -24.0009   -7.4636   22.7475 H   0  0  0  0  0  0
  -21.0857   -8.8781   19.8950 H   0  0  0  0  0  0
  -22.3716  -10.9676   19.6168 H   0  0  0  0  0  0
  -21.2011   -7.6150   23.9716 H   0  0  0  0  0  0
  -21.1482   -6.0524   25.9077 H   0  0  0  0  0  0
  -22.0597   -2.7610   23.2845 H   0  0  0  0  0  0
  -22.4052  -11.9846   22.4846 H   0  0  0  0  0  0
  -21.1027  -13.1178   22.2655 H   0  0  0  0  0  0
  -24.6340  -15.8492   20.5342 H   0  0  0  0  0  0
  -26.2483  -15.6419   20.0826 H   0  0  0  0  0  0
  -26.7337  -32.5206   23.0951 H   0  0  0  0  0  0
  -25.0084  -33.9549   25.0260 H   0  0  0  0  0  0
  -22.7741  -31.2803   21.3664 H   0  0  0  0  0  0
  -23.3766  -35.9549   23.3278 H   0  0  0  0  0  0
  -24.3575  -36.8898   22.2064 H   0  0  0  0  0  0
  -23.7237  -37.6408   23.6709 H   0  0  0  0  0  0
  -26.2047  -31.4105   20.6275 H   0  0  0  0  0  0
  -26.8941  -30.7173   22.0556 H   0  0  0  0  0  0
  -28.1314  -28.6529   21.3046 H   0  0  0  0  0  0
  -25.9062  -25.8235   18.9359 H   0  0  0  0  0  0
  -24.0025  -27.3180   18.9201 H   0  0  0  0  0  0
  -23.8496  -30.5521   19.3957 H   0  0  0  0  0  0
  -22.8131  -29.2287   19.8319 H   0  0  0  0  0  0
  -25.1322  -36.1809   25.0797 H   0  0  0  0  0  0
  -21.0028  -28.3345   24.1324 H   0  0  0  0  0  0
  -20.5684  -26.2361   23.3633 H   0  0  0  0  0  0
  -21.6661  -26.7421   22.1201 H   0  0  0  0  0  0
  -19.6929  -25.6280   21.1268 H   0  0  0  0  0  0
  -19.6705  -27.3167   20.6724 H   0  0  0  0  0  0
  -17.4219  -26.6680   21.4029 H   0  0  0  0  0  0
  -18.0350  -26.0090   22.9030 H   0  0  0  0  0  0
  -19.7964  -30.7312   24.2210 H   0  0  0  0  0  0
  -17.5034  -31.6271   24.5166 H   0  0  0  0  0  0
  -15.5372  -30.2973   23.7687 H   0  0  0  0  0  0
  -15.8700  -28.0809   22.7099 H   0  0  0  0  0  0
  -24.5892  -30.7111   25.7706 H   0  0  0  0  0  0
  -24.8867  -32.2972   26.4714 H   0  0  0  0  0  0
  -25.7945  -30.9019   27.0238 H   0  0  0  0  0  0
  -26.3093  -29.6616   24.1392 H   0  0  0  0  0  0
  -27.3966  -29.7269   25.5044 H   0  0  0  0  0  0
  -27.9038  -30.4122   23.9818 H   0  0  0  0  0  0
  -27.2628  -33.3681   26.1998 H   0  0  0  0  0  0
  -28.3916  -32.6853   25.0387 H   0  0  0  0  0  0
  -28.0664  -31.8541   26.5520 H   0  0  0  0  0  0
  -28.2572  -38.0085   24.7518 H   0  0  0  0  0  0
  -28.1088  -36.2613   24.6285 H   0  0  0  0  0  0
  -27.2290  -37.1405   25.8867 H   0  0  0  0  0  0
  -20.9544  -29.8754   21.6714 H   0  0  0  0  0  0
  -26.0139  -38.2786   24.1418 H   0  0  0  0  0  0
  -31.3782  -21.1503   21.6168 H   0  0  0  0  0  0
  -32.1857  -16.7638   21.7391 H   0  0  0  0  0  0
  -27.1807  -22.4981   20.6792 H   0  0  0  0  0  0
  -26.6645  -24.5754   20.6642 H   0  0  0  0  0  0
  -28.1517  -20.2530   20.4793 H   0  0  0  0  0  0
  -28.8802  -16.3974   20.4352 H   0  0  0  0  0  0
  1 25  1  0  0  0
  1 30  2  0  0  0
  1 79  1  0  0  0
  2  3  1  0  0  0
  2 25  1  0  0  0
  2 82  1  0  0  0
  2 83  1  0  0  0
  3  4  1  0  0  0
  3 84  1  0  0  0
  3 85  1  0  0  0
  4  5  1  0  0  0
  4 86  1  0  0  0
  4 87  1  0  0  0
  5  6  1  0  0  0
  5 26  1  0  0  0
  5 88  1  0  0  0
  6 25  1  0  0  0
  6 89  1  0  0  0
  6 90  1  0  0  0
  7  8  2  0  0  0
  7 26  1  0  0  0
  7 29  1  0  0  0
  8  9  1  0  0  0
  8 22  1  0  0  0
  9 10  1  0  0  0
  9 27  2  0  0  0
 10 11  2  0  0  0
 10 15  1  0  0  0
 11 12  1  0  0  0
 11 91  1  0  0  0
 12 13  2  0  0  0
 12 92  1  0  0  0
 13 14  1  0  0  0
 13 31  1  0  0  0
 14 15  2  0  0  0
 14 93  1  0  0  0
 15 94  1  0  0  0
 16 17  2  0  0  0
 16 21  1  0  0  0
 16 31  1  0  0  0
 17 18  1  0  0  0
 17 95  1  0  0  0
 18 19  2  0  0  0
 18 96  1  0  0  0
 19 20  1  0  0  0
 19 24  1  0  0  0
 20 21  2  0  0  0
 20 97  1  0  0  0
 21 23  1  0  0  0
 22 28  1  0  0  0
 22 32  2  0  0  0
 26 27  1  0  0  0
 28 98  1  0  0  0
 28 99  1  0  0  0
 29100  1  0  0  0
 29101  1  0  0  0
 33 34  1  0  0  0
 33 66  1  0  0  0
 33 70  2  0  0  0
 34 36  1  0  0  0
 34 59  1  0  0  0
 34102  1  0  0  0
 35 44  2  0  0  0
 35 45  1  0  0  0
 35 68  1  0  0  0
 36 56  1  0  0  0
 36103  1  0  0  0
 37 39  1  0  0  0
 37 47  1  0  0  0
 37 66  1  0  0  0
 37104  1  0  0  0
 38 43  2  0  0  0
 38 46  1  0  0  0
 38 47  1  0  0  0
 39 64  1  0  0  0
 39 67  2  0  0  0
 40 52  1  0  0  0
 40 53  2  0  0  0
 40 58  1  0  0  0
 41105  1  0  0  0
 41106  1  0  0  0
 41107  1  0  0  0
 41 48  1  0  0  0
 42 43  1  0  0  0
 42 66  1  0  0  0
 42108  1  0  0  0
 42109  1  0  0  0
 43 44  1  0  0  0
 44110  1  0  0  0
 45 46  2  0  0  0
 45111  1  0  0  0
 46112  1  0  0  0
 47113  1  0  0  0
 47114  1  0  0  0
 48 56  1  0  0  0
 48 65  1  0  0  0
 48115  1  0  0  0
 49 50  1  0  0  0
 49 53  1  0  0  0
 49 64  1  0  0  0
 49116  1  0  0  0
 50 51  1  0  0  0
 50117  1  0  0  0
 50118  1  0  0  0
 51 52  1  0  0  0
 51119  1  0  0  0
 51120  1  0  0  0
 52121  1  0  0  0
 52122  1  0  0  0
 53 54  1  0  0  0
 54 55  2  0  0  0
 54123  1  0  0  0
 55 57  1  0  0  0
 55124  1  0  0  0
 56 69  2  0  0  0
 57 58  2  0  0  0
 57125  1  0  0  0
 58126  1  0  0  0
 59 60  1  0  0  0
 59 61  1  0  0  0
 59 62  1  0  0  0
 60127  1  0  0  0
 60128  1  0  0  0
 60129  1  0  0  0
 61130  1  0  0  0
 61131  1  0  0  0
 61132  1  0  0  0
 62133  1  0  0  0
 62134  1  0  0  0
 62135  1  0  0  0
 63 65  1  0  0  0
 63136  1  0  0  0
 63137  1  0  0  0
 63138  1  0  0  0
 64139  1  0  0  0
 65140  1  0  0  0
 68 76  1  0  0  0
 71 73  2  0  0  0
 71 81  1  0  0  0
 71141  1  0  0  0
 72 74  2  0  0  0
 72 81  1  0  0  0
 72142  1  0  0  0
 73 74  1  0  0  0
 73 78  1  0  0  0
 74 79  1  0  0  0
 75 76  2  0  0  0
 75 77  1  0  0  0
 75143  1  0  0  0
 76144  1  0  0  0
 77 78  1  0  0  0
 77 80  2  0  0  0
 78145  1  0  0  0
 79146  1  0  0  0
M  ISO  4   1 100  68 101  76 101  79 100
M  END
> <chiral flag>
0

> <version>
0

> <s_m_source_file>
/data/baiqing/PycharmProjects/Reinvent-master-3.2/result/LINK_invent/BTK/process_docking_weight1_custom_product_contain_oxygen_bond_distance_aromatic_linkinvent_7_9_3/rearranged_h_0090.sdf

> <i_m_source_file_index>
55

> <r_mmod_Potential_Energy-OPLS-2005>
985.218200683594

> <r_mmod_Stretch_Energy-OPLS-2005>
428.220825195312

> <r_mmod_Bend_Energy-OPLS-2005>
518.087524414062

> <r_mmod_Torsional_Energy-OPLS-2005>
237.294662475586

> <r_mmod_Improper_Torsional_Energy-OPLS-2005>
5.94212579727173

> <r_mmod_Van_der_Waal_Energy-OPLS-2005>
140.93830871582

> <r_mmod_Electrostatic_Energy-OPLS-2005>
-432.254241943359

> <r_mmod_Solvation_Energy-OPLS-2005>
-247.760162353516

> <b_mmod_Minimization_Converged-OPLS-2005>
1

> <r_mmod_RMS_Derivative-OPLS-2005>
0.0343831889331341

$$$$
55
                    3D
 Structure written by MMmdl.
156165  0  0  1  0            999 V2000
  -30.6578  -14.7097   20.5489 C   0  0  0  0  0  0
  -30.4334  -12.4534   19.4836 C   0  0  0  0  0  0
  -29.5205  -12.5316   18.2397 C   0  0  0  0  0  0
  -28.0480  -12.3327   18.6439 C   0  0  0  0  0  0
  -27.6454  -13.2286   19.8424 C   0  0  2  0  0  0
  -28.6763  -13.1439   20.9855 C   0  0  0  0  0  0
  -25.2561  -13.8198   20.5686 C   0  0  0  0  0  0
  -24.1833  -13.0446   20.9154 C   0  0  0  0  0  0
  -24.6400  -11.6919   20.8686 C   0  0  0  0  0  0
  -23.9074  -10.4296   21.0377 C   0  0  0  0  0  0
  -24.3595   -9.4229   21.9171 C   0  0  0  0  0  0
  -23.6268   -8.2269   22.0750 C   0  0  0  0  0  0
  -22.4262   -8.0282   21.3529 C   0  0  0  0  0  0
  -21.9897   -9.0270   20.4653 C   0  0  0  0  0  0
  -22.7241  -10.2139   20.3038 C   0  0  0  0  0  0
  -21.6854   -6.0722   22.5278 C   0  0  0  0  0  0
  -21.4020   -6.5623   23.8205 C   0  0  0  0  0  0
  -21.3654   -5.6774   24.9164 C   0  0  0  0  0  0
  -21.6040   -4.3040   24.7223 C   0  0  0  0  0  0
  -21.8815   -3.8131   23.4348 C   0  0  0  0  0  0
  -21.9193   -4.6947   22.3407 C   0  0  0  0  0  0
  -22.7871  -13.5257   21.1818 C   0  0  0  0  0  0
  -22.1676   -4.2151   21.0988 F   0  0  0  0  0  0
  -21.5621   -3.4511   25.7731 F   0  0  0  0  0  0
  -29.9981  -13.4990   20.4398 N   0  0  0  0  0  0
  -26.2948  -12.9399   20.3168 N   0  0  0  0  0  0
  -25.9330  -11.6536   20.5634 N   0  0  0  0  0  0
  -22.0519  -12.8230   22.0360 N   0  0  0  0  0  0
  -25.4337  -15.1919   20.4214 N   0  0  0  0  0  0
  -31.7787  -14.8420   20.0495 O   0  0  0  0  0  0
  -21.6627   -6.8878   21.4240 O   0  0  0  0  0  0
  -22.3559  -14.5568   20.6690 O   0  0  0  0  0  0
  -24.6303  -31.8579   23.1991 C   0  0  0  0  0  0
  -25.9143  -32.4763   23.8329 C   0  0  1  0  0  0
  -27.2177  -27.2826   20.1233 C   0  0  0  0  0  0
  -25.5936  -33.8557   24.2258 N   0  0  0  0  0  0
  -23.4238  -30.4797   21.5455 C   0  0  2  0  0  0
  -24.8688  -28.9264   20.1131 C   0  0  0  0  0  0
  -22.7488  -29.4613   22.4959 C   0  0  0  0  0  0
  -18.0288  -28.1394   22.8505 C   0  0  0  0  0  0
  -24.1496  -36.7287   23.2634 C   0  0  0  0  0  0
  -25.9646  -30.7765   21.3726 C   0  0  0  0  0  0
  -26.0381  -29.3958   20.7231 C   0  0  0  0  0  0
  -27.2154  -28.5825   20.7257 C   0  0  0  0  0  0
  -26.0268  -26.8768   19.4813 C   0  0  0  0  0  0
  -24.8639  -27.6706   19.4867 C   0  0  0  0  0  0
  -23.6381  -29.8105   20.1623 C   0  0  0  0  0  0
  -25.4120  -36.3063   24.0322 C   0  0  1  0  0  0
  -20.5875  -28.3688   23.1299 C   0  0  2  0  0  0
  -20.6763  -26.9407   22.5435 C   0  0  0  0  0  0
  -19.5737  -26.6396   21.5238 C   0  0  0  0  0  0
  -18.1920  -26.7944   22.1637 C   0  0  0  0  0  0
  -19.1541  -28.8857   23.2897 C   0  0  0  0  0  0
  -18.9452  -30.1462   23.8905 C   0  0  0  0  0  0
  -17.6449  -30.6593   24.0569 C   0  0  0  0  0  0
  -25.9070  -34.9432   23.5101 C   0  0  0  0  0  0
  -16.5344  -29.9095   23.6322 C   0  0  0  0  0  0
  -16.7273  -28.6510   23.0355 C   0  0  0  0  0  0
  -26.4497  -31.6558   25.0700 C   0  0  0  0  0  0
  -25.3699  -31.3702   26.1407 C   0  0  0  0  0  0
  -27.0316  -30.2967   24.6160 C   0  0  0  0  0  0
  -27.6102  -32.4248   25.7450 C   0  0  0  0  0  0
  -27.5585  -37.1784   24.8450 C   0  0  0  0  0  0
  -21.4197  -29.3035   22.3684 N   0  0  0  0  0  0
  -26.4288  -37.3768   23.9409 N   0  0  0  0  0  0
  -24.6924  -31.0544   22.0976 N   0  0  0  0  0  0
  -23.4178  -28.8177   23.3092 O   0  0  0  0  0  0
  -28.3088  -26.3915   20.1369 O   0  0  0  0  0  0
  -26.5648  -34.8899   22.4679 O   0  0  0  0  0  0
  -23.5474  -32.1407   23.7287 O   0  0  0  0  0  0
  -28.5519  -19.3010   20.5627 C   0  0  0  0  0  0
  -28.6759  -17.8877   20.7771 C   0  0  0  0  0  0
  -31.0234  -18.0214   20.3715 C   0  0  0  0  0  0
  -29.6626  -20.1522   20.2727 C   0  0  0  0  0  0
  -29.9165  -17.1914   20.7066 C   0  0  0  0  0  0
  -30.9048  -19.4363   20.1520 C   0  0  0  0  0  0
  -28.8714  -23.9159   20.1420 C   0  0  0  0  0  0
  -28.5393  -22.5062   20.4916 C   0  0  0  0  0  0
  -28.0703  -25.0136   20.4072 C   0  0  0  0  0  0
  -30.2091  -23.9217   19.4690 C   0  0  0  0  0  0
  -30.6438  -22.4364   19.4990 C   0  0  0  0  0  0
  -29.9880  -15.6974   22.6409 C   0  0  0  0  0  0
  -29.5521  -21.6436   20.1049 N   0  0  0  0  0  0
  -30.0337  -15.7864   21.1767 N   0  0  0  0  0  0
  -27.5030  -22.1516   21.0640 O   0  0  0  0  0  0
  -32.0495  -20.0935   19.8470 F   0  0  0  0  0  0
  -31.4829  -12.5586   19.2012 H   0  0  0  0  0  0
  -30.3584  -11.4677   19.9495 H   0  0  0  0  0  0
  -29.8155  -11.7828   17.5027 H   0  0  0  0  0  0
  -29.6418  -13.5018   17.7527 H   0  0  0  0  0  0
  -27.9198  -11.2854   18.9123 H   0  0  0  0  0  0
  -27.3896  -12.5095   17.7933 H   0  0  0  0  0  0
  -27.6506  -14.2553   19.4741 H   0  0  0  0  0  0
  -28.6992  -12.1438   21.4201 H   0  0  0  0  0  0
  -28.3569  -13.8059   21.7878 H   0  0  0  0  0  0
  -25.2737   -9.5695   22.4742 H   0  0  0  0  0  0
  -23.9971   -7.4662   22.7473 H   0  0  0  0  0  0
  -21.0826   -8.8782   19.8975 H   0  0  0  0  0  0
  -22.3695  -10.9651   19.6133 H   0  0  0  0  0  0
  -21.2003   -7.6123   23.9708 H   0  0  0  0  0  0
  -21.1488   -6.0502   25.9070 H   0  0  0  0  0  0
  -22.0589   -2.7600   23.2840 H   0  0  0  0  0  0
  -22.4146  -11.9878   22.4709 H   0  0  0  0  0  0
  -21.1130  -13.1264   22.2566 H   0  0  0  0  0  0
  -24.6799  -15.8562   20.5587 H   0  0  0  0  0  0
  -26.2906  -15.6259   20.1071 H   0  0  0  0  0  0
  -26.7205  -32.5406   23.1080 H   0  0  0  0  0  0
  -25.0005  -33.9710   25.0339 H   0  0  0  0  0  0
  -22.7189  -31.3013   21.4021 H   0  0  0  0  0  0
  -23.3759  -35.9622   23.3278 H   0  0  0  0  0  0
  -24.3589  -36.8935   22.2055 H   0  0  0  0  0  0
  -23.7258  -37.6479   23.6679 H   0  0  0  0  0  0
  -26.0835  -31.5304   20.5916 H   0  0  0  0  0  0
  -26.8507  -30.8415   21.9930 H   0  0  0  0  0  0
  -28.1082  -28.9350   21.2207 H   0  0  0  0  0  0
  -25.9812  -25.9167   18.9854 H   0  0  0  0  0  0
  -23.9648  -27.3044   19.0079 H   0  0  0  0  0  0
  -23.7504  -30.5851   19.4030 H   0  0  0  0  0  0
  -22.7571  -29.2376   19.8640 H   0  0  0  0  0  0
  -25.1309  -36.1911   25.0816 H   0  0  0  0  0  0
  -20.9968  -28.3263   24.1416 H   0  0  0  0  0  0
  -20.5671  -26.2297   23.3637 H   0  0  0  0  0  0
  -21.6633  -26.7434   22.1223 H   0  0  0  0  0  0
  -19.6893  -25.6322   21.1235 H   0  0  0  0  0  0
  -19.6682  -27.3227   20.6785 H   0  0  0  0  0  0
  -17.4204  -26.6729   21.4025 H   0  0  0  0  0  0
  -18.0278  -26.0080   22.9011 H   0  0  0  0  0  0
  -19.7923  -30.7294   24.2268 H   0  0  0  0  0  0
  -17.4997  -31.6266   24.5189 H   0  0  0  0  0  0
  -15.5347  -30.3004   23.7636 H   0  0  0  0  0  0
  -15.8671  -28.0840   22.7057 H   0  0  0  0  0  0
  -24.5990  -30.6928   25.7720 H   0  0  0  0  0  0
  -24.8755  -32.2853   26.4680 H   0  0  0  0  0  0
  -25.8017  -30.9010   27.0260 H   0  0  0  0  0  0
  -26.2882  -29.6733   24.1194 H   0  0  0  0  0  0
  -27.3994  -29.7225   25.4675 H   0  0  0  0  0  0
  -27.8757  -30.4236   23.9383 H   0  0  0  0  0  0
  -27.2794  -33.3567   26.2040 H   0  0  0  0  0  0
  -28.3895  -32.6758   25.0241 H   0  0  0  0  0  0
  -28.0781  -31.8335   26.5331 H   0  0  0  0  0  0
  -28.2583  -38.0096   24.7504 H   0  0  0  0  0  0
  -28.1095  -36.2628   24.6254 H   0  0  0  0  0  0
  -27.2299  -37.1396   25.8848 H   0  0  0  0  0  0
  -20.9387  -29.8713   21.6842 H   0  0  0  0  0  0
  -26.0161  -38.2832   24.1445 H   0  0  0  0  0  0
  -27.5617  -19.7224   20.6450 H   0  0  0  0  0  0
  -27.7853  -17.3358   21.0474 H   0  0  0  0  0  0
  -32.0137  -17.5908   20.3295 H   0  0  0  0  0  0
  -27.1177  -24.8749   20.9046 H   0  0  0  0  0  0
  -30.9070  -24.5629   20.0111 H   0  0  0  0  0  0
  -30.1123  -24.3021   18.4511 H   0  0  0  0  0  0
  -31.5583  -22.3529   20.0914 H   0  0  0  0  0  0
  -30.8580  -22.0728   18.4911 H   0  0  0  0  0  0
  -30.8742  -16.1784   23.0611 H   0  0  0  0  0  0
  -29.9814  -14.6745   23.0214 H   0  0  0  0  0  0
  -29.1133  -16.2096   23.0491 H   0  0  0  0  0  0
  1 25  1  0  0  0
  1 30  2  0  0  0
  1 84  1  0  0  0
  2  3  1  0  0  0
  2 25  1  0  0  0
  2 87  1  0  0  0
  2 88  1  0  0  0
  3  4  1  0  0  0
  3 89  1  0  0  0
  3 90  1  0  0  0
  4  5  1  0  0  0
  4 91  1  0  0  0
  4 92  1  0  0  0
  5  6  1  0  0  0
  5 26  1  0  0  0
  5 93  1  0  0  0
  6 25  1  0  0  0
  6 94  1  0  0  0
  6 95  1  0  0  0
  7  8  2  0  0  0
  7 26  1  0  0  0
  7 29  1  0  0  0
  8  9  1  0  0  0
  8 22  1  0  0  0
  9 10  1  0  0  0
  9 27  2  0  0  0
 10 11  2  0  0  0
 10 15  1  0  0  0
 11 12  1  0  0  0
 11 96  1  0  0  0
 12 13  2  0  0  0
 12 97  1  0  0  0
 13 14  1  0  0  0
 13 31  1  0  0  0
 14 15  2  0  0  0
 14 98  1  0  0  0
 15 99  1  0  0  0
 16 17  2  0  0  0
 16 21  1  0  0  0
 16 31  1  0  0  0
 17 18  1  0  0  0
 17100  1  0  0  0
 18 19  2  0  0  0
 18101  1  0  0  0
 19 20  1  0  0  0
 19 24  1  0  0  0
 20 21  2  0  0  0
 20102  1  0  0  0
 21 23  1  0  0  0
 22 28  1  0  0  0
 22 32  2  0  0  0
 26 27  1  0  0  0
 28103  1  0  0  0
 28104  1  0  0  0
 29105  1  0  0  0
 29106  1  0  0  0
 33 34  1  0  0  0
 33 66  1  0  0  0
 33 70  2  0  0  0
 34 36  1  0  0  0
 34 59  1  0  0  0
 34107  1  0  0  0
 35 44  2  0  0  0
 35 45  1  0  0  0
 35 68  1  0  0  0
 36 56  1  0  0  0
 36108  1  0  0  0
 37 39  1  0  0  0
 37 47  1  0  0  0
 37 66  1  0  0  0
 37109  1  0  0  0
 38 43  2  0  0  0
 38 46  1  0  0  0
 38 47  1  0  0  0
 39 64  1  0  0  0
 39 67  2  0  0  0
 40 52  1  0  0  0
 40 53  2  0  0  0
 40 58  1  0  0  0
 41110  1  0  0  0
 41111  1  0  0  0
 41112  1  0  0  0
 41 48  1  0  0  0
 42 43  1  0  0  0
 42 66  1  0  0  0
 42113  1  0  0  0
 42114  1  0  0  0
 43 44  1  0  0  0
 44115  1  0  0  0
 45 46  2  0  0  0
 45116  1  0  0  0
 46117  1  0  0  0
 47118  1  0  0  0
 47119  1  0  0  0
 48 56  1  0  0  0
 48 65  1  0  0  0
 48120  1  0  0  0
 49 50  1  0  0  0
 49 53  1  0  0  0
 49 64  1  0  0  0
 49121  1  0  0  0
 50 51  1  0  0  0
 50122  1  0  0  0
 50123  1  0  0  0
 51 52  1  0  0  0
 51124  1  0  0  0
 51125  1  0  0  0
 52126  1  0  0  0
 52127  1  0  0  0
 53 54  1  0  0  0
 54 55  2  0  0  0
 54128  1  0  0  0
 55 57  1  0  0  0
 55129  1  0  0  0
 56 69  2  0  0  0
 57 58  2  0  0  0
 57130  1  0  0  0
 58131  1  0  0  0
 59 60  1  0  0  0
 59 61  1  0  0  0
 59 62  1  0  0  0
 60132  1  0  0  0
 60133  1  0  0  0
 60134  1  0  0  0
 61135  1  0  0  0
 61136  1  0  0  0
 61137  1  0  0  0
 62138  1  0  0  0
 62139  1  0  0  0
 62140  1  0  0  0
 63 65  1  0  0  0
 63141  1  0  0  0
 63142  1  0  0  0
 63143  1  0  0  0
 64144  1  0  0  0
 65145  1  0  0  0
 68 79  1  0  0  0
 71 72  2  0  0  0
 71 74  1  0  0  0
 71146  1  0  0  0
 72 75  1  0  0  0
 72147  1  0  0  0
 73 75  2  0  0  0
 73 76  1  0  0  0
 73148  1  0  0  0
 74 76  2  0  0  0
 74 83  1  0  0  0
 75 84  1  0  0  0
 76 86  1  0  0  0
 77 78  1  0  0  0
 77 79  2  0  0  0
 77 80  1  0  0  0
 78 83  1  0  0  0
 78 85  2  0  0  0
 79149  1  0  0  0
 80 81  1  0  0  0
 80150  1  0  0  0
 80151  1  0  0  0
 81 83  1  0  0  0
 81152  1  0  0  0
 81153  1  0  0  0
 82 84  1  0  0  0
 82154  1  0  0  0
 82155  1  0  0  0
 82156  1  0  0  0
M  ISO  4   1 100  68 101  79 101  84 100
M  END
> <chiral flag>
0

> <version>
0

> <s_m_source_file>
/data/baiqing/PycharmProjects/Reinvent-master-3.2/result/LINK_invent/BTK/process_docking_weight1_custom_product_contain_oxygen_bond_distance_aromatic_linkinvent_7_9_3/rearranged_h_0090.sdf

> <i_m_source_file_index>
56

> <r_mmod_Potential_Energy-OPLS-2005>
381.041290283203

> <r_mmod_Stretch_Energy-OPLS-2005>
109.539848327637

> <r_mmod_Bend_Energy-OPLS-2005>
177.2490234375

> <r_mmod_Torsional_Energy-OPLS-2005>
346.485412597656

> <r_mmod_Improper_Torsional_Energy-OPLS-2005>
4.85201978683472

> <r_mmod_Van_der_Waal_Energy-OPLS-2005>
145.271270751953

> <r_mmod_Electrostatic_Energy-OPLS-2005>
-283.020538330078

> <r_mmod_Solvation_Energy-OPLS-2005>
-189.68000793457

> <b_mmod_Minimization_Converged-OPLS-2005>
0

> <r_mmod_RMS_Derivative-OPLS-2005>
4.08153343200684

$$$$
56
                    3D
 Structure written by MMmdl.
154162  0  0  1  0            999 V2000
  -30.7249  -14.4989   20.5426 C   0  0  0  0  0  0
  -30.4047  -12.3081   19.4574 C   0  0  0  0  0  0
  -29.5018  -12.5066   18.2231 C   0  0  0  0  0  0
  -28.0165  -12.3839   18.6198 C   0  0  0  0  0  0
  -27.6565  -13.2279   19.8757 C   0  0  2  0  0  0
  -28.6978  -13.0524   21.0058 C   0  0  0  0  0  0
  -25.2536  -13.8196   20.5731 C   0  0  0  0  0  0
  -24.1807  -13.0441   20.9151 C   0  0  0  0  0  0
  -24.6404  -11.6917   20.8724 C   0  0  0  0  0  0
  -23.9082  -10.4297   21.0399 C   0  0  0  0  0  0
  -24.3636   -9.4205   21.9173 C   0  0  0  0  0  0
  -23.6307   -8.2239   22.0738 C   0  0  0  0  0  0
  -22.4279   -8.0283   21.3543 C   0  0  0  0  0  0
  -21.9920   -9.0259   20.4642 C   0  0  0  0  0  0
  -22.7247  -10.2144   20.3054 C   0  0  0  0  0  0
  -21.6849   -6.0749   22.5283 C   0  0  0  0  0  0
  -21.4019   -6.5643   23.8224 C   0  0  0  0  0  0
  -21.3665   -5.6787   24.9181 C   0  0  0  0  0  0
  -21.6056   -4.3052   24.7227 C   0  0  0  0  0  0
  -21.8814   -3.8152   23.4339 C   0  0  0  0  0  0
  -21.9185   -4.6975   22.3398 C   0  0  0  0  0  0
  -22.7837  -13.5219   21.1846 C   0  0  0  0  0  0
  -22.1652   -4.2164   21.0977 F   0  0  0  0  0  0
  -21.5624   -3.4525   25.7734 F   0  0  0  0  0  0
  -30.0275  -13.3330   20.4454 N   0  0  0  0  0  0
  -26.3004  -12.9423   20.3391 N   0  0  0  0  0  0
  -25.9338  -11.6553   20.5773 N   0  0  0  0  0  0
  -22.0503  -12.8252   22.0441 N   0  0  0  0  0  0
  -25.4242  -15.1940   20.4322 N   0  0  0  0  0  0
  -31.8698  -14.6173   20.1021 O   0  0  0  0  0  0
  -21.6629   -6.8893   21.4249 O   0  0  0  0  0  0
  -22.3523  -14.5525   20.6690 O   0  0  0  0  0  0
  -24.6200  -31.8666   23.2108 C   0  0  0  0  0  0
  -25.9093  -32.4791   23.8405 C   0  0  1  0  0  0
  -27.2211  -27.3688   20.0911 C   0  0  0  0  0  0
  -25.5971  -33.8601   24.2323 N   0  0  0  0  0  0
  -23.4084  -30.4927   21.5536 C   0  0  2  0  0  0
  -24.8509  -28.9588   20.1117 C   0  0  0  0  0  0
  -22.7432  -29.4649   22.4975 C   0  0  0  0  0  0
  -18.0272  -28.1379   22.8497 C   0  0  0  0  0  0
  -24.1483  -36.7261   23.2629 C   0  0  0  0  0  0
  -25.9475  -30.8021   21.3854 C   0  0  0  0  0  0
  -26.0165  -29.4362   20.7226 C   0  0  0  0  0  0
  -27.1981  -28.6467   20.7169 C   0  0  0  0  0  0
  -26.0319  -26.9438   19.4461 C   0  0  0  0  0  0
  -24.8571  -27.7131   19.4717 C   0  0  0  0  0  0
  -23.6194  -29.8340   20.1665 C   0  0  0  0  0  0
  -25.4113  -36.3080   24.0323 C   0  0  1  0  0  0
  -20.5877  -28.3664   23.1303 C   0  0  2  0  0  0
  -20.6786  -26.9399   22.5415 C   0  0  0  0  0  0
  -19.5750  -26.6393   21.5220 C   0  0  0  0  0  0
  -18.1918  -26.7924   22.1627 C   0  0  0  0  0  0
  -19.1529  -28.8832   23.2900 C   0  0  0  0  0  0
  -18.9462  -30.1450   23.8878 C   0  0  0  0  0  0
  -17.6471  -30.6576   24.0568 C   0  0  0  0  0  0
  -25.9061  -34.9453   23.5104 C   0  0  0  0  0  0
  -16.5355  -29.9075   23.6357 C   0  0  0  0  0  0
  -16.7268  -28.6505   23.0346 C   0  0  0  0  0  0
  -26.4482  -31.6578   25.0753 C   0  0  0  0  0  0
  -25.3711  -31.3747   26.1483 C   0  0  0  0  0  0
  -27.0296  -30.2980   24.6203 C   0  0  0  0  0  0
  -27.6050  -32.4283   25.7540 C   0  0  0  0  0  0
  -27.5560  -37.1798   24.8470 C   0  0  0  0  0  0
  -21.4158  -29.3017   22.3694 N   0  0  0  0  0  0
  -26.4279  -37.3783   23.9413 N   0  0  0  0  0  0
  -24.6760  -31.0712   22.1049 N   0  0  0  0  0  0
  -23.4188  -28.8193   23.3033 O   0  0  0  0  0  0
  -28.3691  -26.5732   20.1472 O   0  0  0  0  0  0
  -26.5591  -34.8902   22.4645 O   0  0  0  0  0  0
  -23.5383  -32.1465   23.7460 O   0  0  0  0  0  0
  -30.3466  -20.8073   21.2684 C   0  0  0  0  0  0
  -28.1151  -19.8715   21.3915 C   0  0  0  0  0  0
  -30.0206  -18.3597   21.0276 C   0  0  0  0  0  0
  -28.9610  -21.0056   21.4633 C   0  0  0  0  0  0
  -30.8639  -19.5032   21.0522 C   0  0  0  0  0  0
  -28.6294  -18.5696   21.1744 C   0  0  0  0  0  0
  -28.5196  -23.5481   21.6539 C   0  0  0  0  0  0
  -30.6624  -16.9566   20.8665 C   0  0  0  0  0  0
  -29.1900  -24.1014   20.3775 C   0  0  0  0  0  0
  -28.3280  -25.1964   19.6500 C   0  0  0  0  0  0
  -28.4030  -22.2323   21.9597 N   0  0  0  0  0  0
  -30.0636  -15.5991   20.9701 N   0  0  0  0  0  0
  -28.0368  -24.3631   22.4411 O   0  0  0  0  0  0
  -32.2023  -19.3455   20.9067 F   0  0  0  0  0  0
  -27.7815  -17.5125   21.1362 F   0  0  0  0  0  0
  -31.4604  -12.3533   19.1825 H   0  0  0  0  0  0
  -30.2550  -11.3121   19.8782 H   0  0  0  0  0  0
  -29.7460  -11.7744   17.4514 H   0  0  0  0  0  0
  -29.6902  -13.4893   17.7854 H   0  0  0  0  0  0
  -27.8070  -11.3299   18.8054 H   0  0  0  0  0  0
  -27.3805  -12.6742   17.7820 H   0  0  0  0  0  0
  -27.6851  -14.2740   19.5662 H   0  0  0  0  0  0
  -28.6648  -12.0331   21.3937 H   0  0  0  0  0  0
  -28.4675  -13.6960   21.8561 H   0  0  0  0  0  0
  -25.2792   -9.5662   22.4737 H   0  0  0  0  0  0
  -24.0009   -7.4631   22.7461 H   0  0  0  0  0  0
  -21.0835   -8.8782   19.8968 H   0  0  0  0  0  0
  -22.3699  -10.9680   19.6153 H   0  0  0  0  0  0
  -21.2016   -7.6148   23.9729 H   0  0  0  0  0  0
  -21.1496   -6.0520   25.9091 H   0  0  0  0  0  0
  -22.0593   -2.7614   23.2833 H   0  0  0  0  0  0
  -22.4115  -11.9923   22.4861 H   0  0  0  0  0  0
  -21.1139  -13.1316   22.2658 H   0  0  0  0  0  0
  -24.6616  -15.8483   20.5681 H   0  0  0  0  0  0
  -26.3106  -15.6542   20.2668 H   0  0  0  0  0  0
  -26.7139  -32.5448   23.1145 H   0  0  0  0  0  0
  -25.0259  -33.9794   25.0558 H   0  0  0  0  0  0
  -22.6983  -31.3099   21.4177 H   0  0  0  0  0  0
  -23.3762  -35.9581   23.3319 H   0  0  0  0  0  0
  -24.3566  -36.8846   22.2036 H   0  0  0  0  0  0
  -23.7222  -37.6462   23.6632 H   0  0  0  0  0  0
  -26.0851  -31.5699   20.6239 H   0  0  0  0  0  0
  -26.8268  -30.8377   22.0172 H   0  0  0  0  0  0
  -28.0874  -29.0025   21.2179 H   0  0  0  0  0  0
  -25.9559  -26.0153   18.9054 H   0  0  0  0  0  0
  -23.9638  -27.3448   18.9854 H   0  0  0  0  0  0
  -23.7298  -30.6149   19.4116 H   0  0  0  0  0  0
  -22.7383  -29.2640   19.8671 H   0  0  0  0  0  0
  -25.1286  -36.1935   25.0814 H   0  0  0  0  0  0
  -20.9959  -28.3219   24.1429 H   0  0  0  0  0  0
  -20.5711  -26.2247   23.3588 H   0  0  0  0  0  0
  -21.6651  -26.7453   22.1177 H   0  0  0  0  0  0
  -19.6923  -25.6325   21.1198 H   0  0  0  0  0  0
  -19.6690  -27.3242   20.6780 H   0  0  0  0  0  0
  -17.4208  -26.6681   21.4015 H   0  0  0  0  0  0
  -18.0311  -26.0050   22.9005 H   0  0  0  0  0  0
  -19.7940  -30.7288   24.2197 H   0  0  0  0  0  0
  -17.5026  -31.6248   24.5190 H   0  0  0  0  0  0
  -15.5349  -30.2971   23.7719 H   0  0  0  0  0  0
  -15.8661  -28.0843   22.7039 H   0  0  0  0  0  0
  -24.5902  -30.7050   25.7843 H   0  0  0  0  0  0
  -24.8885  -32.2925   26.4843 H   0  0  0  0  0  0
  -25.8041  -30.8994   27.0291 H   0  0  0  0  0  0
  -26.2901  -29.6811   24.1071 H   0  0  0  0  0  0
  -27.3784  -29.7145   25.4735 H   0  0  0  0  0  0
  -27.8861  -30.4227   23.9572 H   0  0  0  0  0  0
  -27.2682  -33.3604   26.2094 H   0  0  0  0  0  0
  -28.3918  -32.6794   25.0410 H   0  0  0  0  0  0
  -28.0640  -31.8390   26.5491 H   0  0  0  0  0  0
  -28.2604  -38.0071   24.7516 H   0  0  0  0  0  0
  -28.1029  -36.2607   24.6318 H   0  0  0  0  0  0
  -27.2264  -37.1459   25.8868 H   0  0  0  0  0  0
  -20.9308  -29.8709   21.6907 H   0  0  0  0  0  0
  -26.0145  -38.2839   24.1461 H   0  0  0  0  0  0
  -31.0355  -21.6330   21.3583 H   0  0  0  0  0  0
  -27.0524  -19.9797   21.5520 H   0  0  0  0  0  0
  -30.0462  -16.9583   19.9648 H   0  0  0  0  0  0
  -30.4438  -16.9226   21.9355 H   0  0  0  0  0  0
  -29.3384  -23.2633   19.6950 H   0  0  0  0  0  0
  -30.1820  -24.4841   20.6124 H   0  0  0  0  0  0
  -27.3258  -24.7792   19.6611 H   0  0  0  0  0  0
  -28.6188  -25.2320   18.5994 H   0  0  0  0  0  0
  -27.7843  -22.0973   22.7482 H   0  0  0  0  0  0
  -29.1137  -15.5094   21.2985 H   0  0  0  0  0  0
  1 25  1  0  0  0
  1 30  2  0  0  0
  1 82  1  0  0  0
  2  3  1  0  0  0
  2 25  1  0  0  0
  2 86  1  0  0  0
  2 87  1  0  0  0
  3  4  1  0  0  0
  3 88  1  0  0  0
  3 89  1  0  0  0
  4  5  1  0  0  0
  4 90  1  0  0  0
  4 91  1  0  0  0
  5  6  1  0  0  0
  5 26  1  0  0  0
  5 92  1  0  0  0
  6 25  1  0  0  0
  6 93  1  0  0  0
  6 94  1  0  0  0
  7  8  2  0  0  0
  7 26  1  0  0  0
  7 29  1  0  0  0
  8  9  1  0  0  0
  8 22  1  0  0  0
  9 10  1  0  0  0
  9 27  2  0  0  0
 10 11  2  0  0  0
 10 15  1  0  0  0
 11 12  1  0  0  0
 11 95  1  0  0  0
 12 13  2  0  0  0
 12 96  1  0  0  0
 13 14  1  0  0  0
 13 31  1  0  0  0
 14 15  2  0  0  0
 14 97  1  0  0  0
 15 98  1  0  0  0
 16 17  2  0  0  0
 16 21  1  0  0  0
 16 31  1  0  0  0
 17 18  1  0  0  0
 17 99  1  0  0  0
 18 19  2  0  0  0
 18100  1  0  0  0
 19 20  1  0  0  0
 19 24  1  0  0  0
 20 21  2  0  0  0
 20101  1  0  0  0
 21 23  1  0  0  0
 22 28  1  0  0  0
 22 32  2  0  0  0
 26 27  1  0  0  0
 28102  1  0  0  0
 28103  1  0  0  0
 29104  1  0  0  0
 29105  1  0  0  0
 33 34  1  0  0  0
 33 66  1  0  0  0
 33 70  2  0  0  0
 34 36  1  0  0  0
 34 59  1  0  0  0
 34106  1  0  0  0
 35 44  2  0  0  0
 35 45  1  0  0  0
 35 68  1  0  0  0
 36 56  1  0  0  0
 36107  1  0  0  0
 37 39  1  0  0  0
 37 47  1  0  0  0
 37 66  1  0  0  0
 37108  1  0  0  0
 38 43  2  0  0  0
 38 46  1  0  0  0
 38 47  1  0  0  0
 39 64  1  0  0  0
 39 67  2  0  0  0
 40 52  1  0  0  0
 40 53  2  0  0  0
 40 58  1  0  0  0
 41109  1  0  0  0
 41110  1  0  0  0
 41111  1  0  0  0
 41 48  1  0  0  0
 42 43  1  0  0  0
 42 66  1  0  0  0
 42112  1  0  0  0
 42113  1  0  0  0
 43 44  1  0  0  0
 44114  1  0  0  0
 45 46  2  0  0  0
 45115  1  0  0  0
 46116  1  0  0  0
 47117  1  0  0  0
 47118  1  0  0  0
 48 56  1  0  0  0
 48 65  1  0  0  0
 48119  1  0  0  0
 49 50  1  0  0  0
 49 53  1  0  0  0
 49 64  1  0  0  0
 49120  1  0  0  0
 50 51  1  0  0  0
 50121  1  0  0  0
 50122  1  0  0  0
 51 52  1  0  0  0
 51123  1  0  0  0
 51124  1  0  0  0
 52125  1  0  0  0
 52126  1  0  0  0
 53 54  1  0  0  0
 54 55  2  0  0  0
 54127  1  0  0  0
 55 57  1  0  0  0
 55128  1  0  0  0
 56 69  2  0  0  0
 57 58  2  0  0  0
 57129  1  0  0  0
 58130  1  0  0  0
 59 60  1  0  0  0
 59 61  1  0  0  0
 59 62  1  0  0  0
 60131  1  0  0  0
 60132  1  0  0  0
 60133  1  0  0  0
 61134  1  0  0  0
 61135  1  0  0  0
 61136  1  0  0  0
 62137  1  0  0  0
 62138  1  0  0  0
 62139  1  0  0  0
 63 65  1  0  0  0
 63140  1  0  0  0
 63141  1  0  0  0
 63142  1  0  0  0
 64143  1  0  0  0
 65144  1  0  0  0
 68 80  1  0  0  0
 71 74  2  0  0  0
 71 75  1  0  0  0
 71145  1  0  0  0
 72 74  1  0  0  0
 72 76  2  0  0  0
 72146  1  0  0  0
 73 75  2  0  0  0
 73 76  1  0  0  0
 73 78  1  0  0  0
 74 81  1  0  0  0
 75 84  1  0  0  0
 76 85  1  0  0  0
 77 79  1  0  0  0
 77 81  1  0  0  0
 77 83  2  0  0  0
 78 82  1  0  0  0
 78147  1  0  0  0
 78148  1  0  0  0
 79 80  1  0  0  0
 79149  1  0  0  0
 79150  1  0  0  0
 80151  1  0  0  0
 80152  1  0  0  0
 81153  1  0  0  0
 82154  1  0  0  0
M  ISO  4   1 100  68 101  80 101  82 100
M  END
> <chiral flag>
0

> <version>
0

> <s_m_source_file>
/data/baiqing/PycharmProjects/Reinvent-master-3.2/result/LINK_invent/BTK/process_docking_weight1_custom_product_contain_oxygen_bond_distance_aromatic_linkinvent_7_9_3/rearranged_h_0090.sdf

> <i_m_source_file_index>
57

> <r_mmod_Potential_Energy-OPLS-2005>
178.738647460938

> <r_mmod_Stretch_Energy-OPLS-2005>
50.8351516723633

> <r_mmod_Bend_Energy-OPLS-2005>
347.937347412109

> <r_mmod_Torsional_Energy-OPLS-2005>
220.521926879883

> <r_mmod_Improper_Torsional_Energy-OPLS-2005>
5.41528463363647

> <r_mmod_Van_der_Waal_Energy-OPLS-2005>
153.09814453125

> <r_mmod_Electrostatic_Energy-OPLS-2005>
-393.131103515625

> <r_mmod_Solvation_Energy-OPLS-2005>
-231.14567565918

> <b_mmod_Minimization_Converged-OPLS-2005>
0

> <r_mmod_RMS_Derivative-OPLS-2005>
2.9247031211853

$$$$
57
                    3D
 Structure written by MMmdl.
157166  0  0  1  0            999 V2000
  -30.5262  -14.9092   20.4358 C   0  0  0  0  0  0
  -30.4529  -12.5601   19.4933 C   0  0  0  0  0  0
  -29.5251  -12.5379   18.2549 C   0  0  0  0  0  0
  -28.0558  -12.3261   18.6710 C   0  0  0  0  0  0
  -27.6392  -13.2418   19.8519 C   0  0  2  0  0  0
  -28.6853  -13.2232   20.9884 C   0  0  0  0  0  0
  -25.2480  -13.8186   20.5714 C   0  0  0  0  0  0
  -24.1776  -13.0412   20.9171 C   0  0  0  0  0  0
  -24.6402  -11.6902   20.8730 C   0  0  0  0  0  0
  -23.9083  -10.4277   21.0394 C   0  0  0  0  0  0
  -24.3626   -9.4199   21.9180 C   0  0  0  0  0  0
  -23.6292   -8.2240   22.0759 C   0  0  0  0  0  0
  -22.4277   -8.0277   21.3544 C   0  0  0  0  0  0
  -21.9911   -9.0251   20.4647 C   0  0  0  0  0  0
  -22.7247  -10.2126   20.3051 C   0  0  0  0  0  0
  -21.6851   -6.0738   22.5277 C   0  0  0  0  0  0
  -21.4016   -6.5641   23.8213 C   0  0  0  0  0  0
  -21.3661   -5.6794   24.9172 C   0  0  0  0  0  0
  -21.6043   -4.3057   24.7217 C   0  0  0  0  0  0
  -21.8817   -3.8147   23.4340 C   0  0  0  0  0  0
  -21.9190   -4.6965   22.3398 C   0  0  0  0  0  0
  -22.7799  -13.5190   21.1843 C   0  0  0  0  0  0
  -22.1658   -4.2153   21.0974 F   0  0  0  0  0  0
  -21.5626   -3.4538   25.7729 F   0  0  0  0  0  0
  -29.9713  -13.6337   20.4033 N   0  0  0  0  0  0
  -26.2938  -12.9425   20.3316 N   0  0  0  0  0  0
  -25.9348  -11.6554   20.5765 N   0  0  0  0  0  0
  -22.0463  -12.8187   22.0419 N   0  0  0  0  0  0
  -25.4085  -15.1921   20.4226 N   0  0  0  0  0  0
  -31.7151  -15.0398   20.1234 O   0  0  0  0  0  0
  -21.6639   -6.8880   21.4243 O   0  0  0  0  0  0
  -22.3471  -14.5498   20.6704 O   0  0  0  0  0  0
  -24.6411  -31.8458   23.1899 C   0  0  0  0  0  0
  -25.9184  -32.4711   23.8284 C   0  0  1  0  0  0
  -27.2235  -27.1568   20.1509 C   0  0  0  0  0  0
  -25.5944  -33.8518   24.2199 N   0  0  0  0  0  0
  -23.4448  -30.4645   21.5350 C   0  0  2  0  0  0
  -24.8951  -28.8916   20.1146 C   0  0  0  0  0  0
  -22.7556  -29.4553   22.4869 C   0  0  0  0  0  0
  -18.0301  -28.1392   22.8475 C   0  0  0  0  0  0
  -24.1490  -36.7262   23.2645 C   0  0  0  0  0  0
  -25.9994  -30.7248   21.3862 C   0  0  0  0  0  0
  -26.0717  -29.3369   20.7304 C   0  0  0  0  0  0
  -27.2388  -28.4861   20.7299 C   0  0  0  0  0  0
  -26.0227  -26.8094   19.4948 C   0  0  0  0  0  0
  -24.8817  -27.6396   19.4822 C   0  0  0  0  0  0
  -23.6706  -29.7927   20.1549 C   0  0  0  0  0  0
  -25.4120  -36.3043   24.0322 C   0  0  1  0  0  0
  -20.5914  -28.3716   23.1237 C   0  0  2  0  0  0
  -20.6789  -26.9421   22.5405 C   0  0  0  0  0  0
  -19.5771  -26.6376   21.5213 C   0  0  0  0  0  0
  -18.1945  -26.7936   22.1613 C   0  0  0  0  0  0
  -19.1558  -28.8869   23.2853 C   0  0  0  0  0  0
  -18.9483  -30.1466   23.8881 C   0  0  0  0  0  0
  -17.6480  -30.6591   24.0561 C   0  0  0  0  0  0
  -25.9070  -34.9418   23.5063 C   0  0  0  0  0  0
  -16.5370  -29.9087   23.6336 C   0  0  0  0  0  0
  -16.7286  -28.6504   23.0357 C   0  0  0  0  0  0
  -26.4505  -31.6578   25.0721 C   0  0  0  0  0  0
  -25.3689  -31.3773   26.1417 C   0  0  0  0  0  0
  -27.0377  -30.2982   24.6291 C   0  0  0  0  0  0
  -27.6049  -32.4334   25.7497 C   0  0  0  0  0  0
  -27.5578  -37.1783   24.8463 C   0  0  0  0  0  0
  -21.4250  -29.3049   22.3617 N   0  0  0  0  0  0
  -26.4283  -37.3755   23.9415 N   0  0  0  0  0  0
  -24.7147  -31.0326   22.0927 N   0  0  0  0  0  0
  -23.4205  -28.8094   23.3011 O   0  0  0  0  0  0
  -28.2937  -26.1963   20.1723 O   0  0  0  0  0  0
  -26.5659  -34.8914   22.4646 O   0  0  0  0  0  0
  -23.5528  -32.1318   23.7126 O   0  0  0  0  0  0
  -30.3469  -19.9597   20.2526 C   0  0  0  0  0  0
  -30.5943  -18.5135   20.2434 C   0  0  0  0  0  0
  -28.1110  -19.5687   20.8792 C   0  0  0  0  0  0
  -29.0860  -20.5764   20.5901 C   0  0  0  0  0  0
  -29.5987  -17.5240   20.5697 C   0  0  0  0  0  0
  -28.3454  -18.1440   20.8649 C   0  0  0  0  0  0
  -30.9116  -23.8245   21.7969 C   0  0  0  0  0  0
  -30.2185  -22.8453   22.7774 C   0  0  0  0  0  0
  -30.4847  -23.7757   20.3266 C   0  0  0  0  0  0
  -28.8944  -22.2009   22.3246 C   0  0  0  0  0  0
  -29.0132  -23.3658   20.1310 C   0  0  2  0  0  0
  -28.0363  -24.6987   20.4823 C   0  0  0  0  0  0
  -28.7786  -22.0101   20.8691 N   0  0  0  0  0  0
  -29.6571  -15.9986   20.6562 N   0  0  0  0  0  0
  -31.8043  -24.5947   22.1761 O   0  0  0  0  0  0
  -30.7029  -22.6009   23.8887 O   0  0  0  0  0  0
  -27.3110  -17.3260   21.1746 F   0  0  0  0  0  0
  -31.4865  -12.7258   19.1854 H   0  0  0  0  0  0
  -30.4431  -11.5947   20.0016 H   0  0  0  0  0  0
  -29.8359  -11.7560   17.5615 H   0  0  0  0  0  0
  -29.6174  -13.4808   17.7133 H   0  0  0  0  0  0
  -27.9447  -11.2808   18.9617 H   0  0  0  0  0  0
  -27.3921  -12.4775   17.8192 H   0  0  0  0  0  0
  -27.6126  -14.2540   19.4475 H   0  0  0  0  0  0
  -28.7591  -12.2310   21.4360 H   0  0  0  0  0  0
  -28.3910  -13.8976   21.7942 H   0  0  0  0  0  0
  -25.2772   -9.5672   22.4757 H   0  0  0  0  0  0
  -23.9993   -7.4635   22.7483 H   0  0  0  0  0  0
  -21.0839   -8.8769   19.8957 H   0  0  0  0  0  0
  -22.3702  -10.9664   19.6158 H   0  0  0  0  0  0
  -21.2017   -7.6150   23.9714 H   0  0  0  0  0  0
  -21.1485   -6.0525   25.9075 H   0  0  0  0  0  0
  -22.0597   -2.7608   23.2836 H   0  0  0  0  0  0
  -22.4083  -11.9844   22.4799 H   0  0  0  0  0  0
  -21.1095  -13.1231   22.2665 H   0  0  0  0  0  0
  -24.6414  -15.8345   20.5831 H   0  0  0  0  0  0
  -26.2817  -15.6725   20.2456 H   0  0  0  0  0  0
  -26.7251  -32.5319   23.1017 H   0  0  0  0  0  0
  -25.0081  -33.9648   25.0336 H   0  0  0  0  0  0
  -22.7467  -31.2898   21.3793 H   0  0  0  0  0  0
  -23.3765  -35.9583   23.3290 H   0  0  0  0  0  0
  -24.3575  -36.8902   22.2062 H   0  0  0  0  0  0
  -23.7229  -37.6448   23.6684 H   0  0  0  0  0  0
  -26.1503  -31.4775   20.6112 H   0  0  0  0  0  0
  -26.8715  -30.7770   22.0260 H   0  0  0  0  0  0
  -28.1387  -28.8248   21.2235 H   0  0  0  0  0  0
  -25.9432  -25.8621   18.9832 H   0  0  0  0  0  0
  -23.9864  -27.2942   18.9839 H   0  0  0  0  0  0
  -23.8072  -30.5672   19.3993 H   0  0  0  0  0  0
  -22.7865  -29.2341   19.8427 H   0  0  0  0  0  0
  -25.1301  -36.1878   25.0814 H   0  0  0  0  0  0
  -21.0003  -28.3303   24.1357 H   0  0  0  0  0  0
  -20.5680  -26.2329   23.3621 H   0  0  0  0  0  0
  -21.6655  -26.7427   22.1202 H   0  0  0  0  0  0
  -19.6941  -25.6280   21.1258 H   0  0  0  0  0  0
  -19.6721  -27.3177   20.6740 H   0  0  0  0  0  0
  -17.4218  -26.6678   21.4013 H   0  0  0  0  0  0
  -18.0344  -26.0073   22.9003 H   0  0  0  0  0  0
  -19.7961  -30.7283   24.2241 H   0  0  0  0  0  0
  -17.5039  -31.6273   24.5165 H   0  0  0  0  0  0
  -15.5375  -30.2993   23.7676 H   0  0  0  0  0  0
  -15.8677  -28.0828   22.7087 H   0  0  0  0  0  0
  -24.5893  -30.7088   25.7743 H   0  0  0  0  0  0
  -24.8851  -32.2957   26.4754 H   0  0  0  0  0  0
  -25.7965  -30.9015   27.0254 H   0  0  0  0  0  0
  -26.3000  -29.6707   24.1281 H   0  0  0  0  0  0
  -27.3983  -29.7272   25.4857 H   0  0  0  0  0  0
  -27.8899  -30.4231   23.9611 H   0  0  0  0  0  0
  -27.2665  -33.3668   26.2005 H   0  0  0  0  0  0
  -28.3892  -32.6835   25.0342 H   0  0  0  0  0  0
  -28.0678  -31.8502   26.5464 H   0  0  0  0  0  0
  -28.2576  -38.0101   24.7520 H   0  0  0  0  0  0
  -28.1087  -36.2624   24.6261 H   0  0  0  0  0  0
  -27.2298  -37.1394   25.8868 H   0  0  0  0  0  0
  -20.9453  -29.8773   21.6808 H   0  0  0  0  0  0
  -26.0153  -38.2819   24.1436 H   0  0  0  0  0  0
  -31.1856  -20.6063   20.0393 H   0  0  0  0  0  0
  -31.5892  -18.1714   19.9990 H   0  0  0  0  0  0
  -27.1237  -19.8950   21.1691 H   0  0  0  0  0  0
  -31.1370  -23.0689   19.8147 H   0  0  0  0  0  0
  -30.6631  -24.7501   19.8718 H   0  0  0  0  0  0
  -28.0751  -22.8271   22.6763 H   0  0  0  0  0  0
  -28.7860  -21.2575   22.8604 H   0  0  0  0  0  0
  -28.8837  -23.1618   19.0669 H   0  0  0  0  0  0
  -27.9057  -24.7103   21.5630 H   0  0  0  0  0  0
  -27.0486  -24.4285   20.1143 H   0  0  0  0  0  0
  -28.7495  -15.6398   20.9117 H   0  0  0  0  0  0
  1 25  1  0  0  0
  1 30  2  0  0  0
  1 84  1  0  0  0
  2  3  1  0  0  0
  2 25  1  0  0  0
  2 88  1  0  0  0
  2 89  1  0  0  0
  3  4  1  0  0  0
  3 90  1  0  0  0
  3 91  1  0  0  0
  4  5  1  0  0  0
  4 92  1  0  0  0
  4 93  1  0  0  0
  5  6  1  0  0  0
  5 26  1  0  0  0
  5 94  1  0  0  0
  6 25  1  0  0  0
  6 95  1  0  0  0
  6 96  1  0  0  0
  7  8  2  0  0  0
  7 26  1  0  0  0
  7 29  1  0  0  0
  8  9  1  0  0  0
  8 22  1  0  0  0
  9 10  1  0  0  0
  9 27  2  0  0  0
 10 11  2  0  0  0
 10 15  1  0  0  0
 11 12  1  0  0  0
 11 97  1  0  0  0
 12 13  2  0  0  0
 12 98  1  0  0  0
 13 14  1  0  0  0
 13 31  1  0  0  0
 14 15  2  0  0  0
 14 99  1  0  0  0
 15100  1  0  0  0
 16 17  2  0  0  0
 16 21  1  0  0  0
 16 31  1  0  0  0
 17 18  1  0  0  0
 17101  1  0  0  0
 18 19  2  0  0  0
 18102  1  0  0  0
 19 20  1  0  0  0
 19 24  1  0  0  0
 20 21  2  0  0  0
 20103  1  0  0  0
 21 23  1  0  0  0
 22 28  1  0  0  0
 22 32  2  0  0  0
 26 27  1  0  0  0
 28104  1  0  0  0
 28105  1  0  0  0
 29106  1  0  0  0
 29107  1  0  0  0
 33 34  1  0  0  0
 33 66  1  0  0  0
 33 70  2  0  0  0
 34 36  1  0  0  0
 34 59  1  0  0  0
 34108  1  0  0  0
 35 44  2  0  0  0
 35 45  1  0  0  0
 35 68  1  0  0  0
 36 56  1  0  0  0
 36109  1  0  0  0
 37 39  1  0  0  0
 37 47  1  0  0  0
 37 66  1  0  0  0
 37110  1  0  0  0
 38 43  2  0  0  0
 38 46  1  0  0  0
 38 47  1  0  0  0
 39 64  1  0  0  0
 39 67  2  0  0  0
 40 52  1  0  0  0
 40 53  2  0  0  0
 40 58  1  0  0  0
 41111  1  0  0  0
 41112  1  0  0  0
 41113  1  0  0  0
 41 48  1  0  0  0
 42 43  1  0  0  0
 42 66  1  0  0  0
 42114  1  0  0  0
 42115  1  0  0  0
 43 44  1  0  0  0
 44116  1  0  0  0
 45 46  2  0  0  0
 45117  1  0  0  0
 46118  1  0  0  0
 47119  1  0  0  0
 47120  1  0  0  0
 48 56  1  0  0  0
 48 65  1  0  0  0
 48121  1  0  0  0
 49 50  1  0  0  0
 49 53  1  0  0  0
 49 64  1  0  0  0
 49122  1  0  0  0
 50 51  1  0  0  0
 50123  1  0  0  0
 50124  1  0  0  0
 51 52  1  0  0  0
 51125  1  0  0  0
 51126  1  0  0  0
 52127  1  0  0  0
 52128  1  0  0  0
 53 54  1  0  0  0
 54 55  2  0  0  0
 54129  1  0  0  0
 55 57  1  0  0  0
 55130  1  0  0  0
 56 69  2  0  0  0
 57 58  2  0  0  0
 57131  1  0  0  0
 58132  1  0  0  0
 59 60  1  0  0  0
 59 61  1  0  0  0
 59 62  1  0  0  0
 60133  1  0  0  0
 60134  1  0  0  0
 60135  1  0  0  0
 61136  1  0  0  0
 61137  1  0  0  0
 61138  1  0  0  0
 62139  1  0  0  0
 62140  1  0  0  0
 62141  1  0  0  0
 63 65  1  0  0  0
 63142  1  0  0  0
 63143  1  0  0  0
 63144  1  0  0  0
 64145  1  0  0  0
 65146  1  0  0  0
 68 82  1  0  0  0
 71 72  2  0  0  0
 71 74  1  0  0  0
 71147  1  0  0  0
 72 75  1  0  0  0
 72148  1  0  0  0
 73 74  2  0  0  0
 73 76  1  0  0  0
 73149  1  0  0  0
 74 83  1  0  0  0
 75 76  2  0  0  0
 75 84  1  0  0  0
 76 87  1  0  0  0
 77 78  1  0  0  0
 77 79  1  0  0  0
 77 85  2  0  0  0
 78 80  1  0  0  0
 78 86  2  0  0  0
 79 81  1  0  0  0
 79150  1  0  0  0
 79151  1  0  0  0
 80 83  1  0  0  0
 80152  1  0  0  0
 80153  1  0  0  0
 81 82  1  0  0  0
 81 83  1  0  0  0
 81154  1  0  0  0
 82155  1  0  0  0
 82156  1  0  0  0
 84157  1  0  0  0
M  ISO  4   1 100  68 101  82 101  84 100
M  END
> <chiral flag>
0

> <version>
0

> <s_m_source_file>
/data/baiqing/PycharmProjects/Reinvent-master-3.2/result/LINK_invent/BTK/process_docking_weight1_custom_product_contain_oxygen_bond_distance_aromatic_linkinvent_7_9_3/rearranged_h_0090.sdf

> <i_m_source_file_index>
58

> <r_mmod_Potential_Energy-OPLS-2005>
471.04345703125

> <r_mmod_Stretch_Energy-OPLS-2005>
215.389495849609

> <r_mmod_Bend_Energy-OPLS-2005>
283.958099365234

> <r_mmod_Torsional_Energy-OPLS-2005>
252.042221069336

> <r_mmod_Improper_Torsional_Energy-OPLS-2005>
7.82645177841187

> <r_mmod_Van_der_Waal_Energy-OPLS-2005>
137.414184570312

> <r_mmod_Electrostatic_Energy-OPLS-2005>
-347.857452392578

> <r_mmod_Solvation_Energy-OPLS-2005>
-245.096939086914

> <b_mmod_Minimization_Converged-OPLS-2005>
0

> <r_mmod_RMS_Derivative-OPLS-2005>
1.15291357040405

$$$$
58
                    3D
 Structure written by MMmdl.
157165  0  0  1  0            999 V2000
  -30.6705  -14.5773   20.5153 C   0  0  0  0  0  0
  -30.4233  -12.3550   19.4553 C   0  0  0  0  0  0
  -29.5053  -12.4896   18.2231 C   0  0  0  0  0  0
  -28.0271  -12.3372   18.6367 C   0  0  0  0  0  0
  -27.6505  -13.2154   19.8625 C   0  0  2  0  0  0
  -28.6930  -13.0724   20.9937 C   0  0  0  0  0  0
  -25.2545  -13.8174   20.5688 C   0  0  0  0  0  0
  -24.1813  -13.0436   20.9186 C   0  0  0  0  0  0
  -24.6383  -11.6906   20.8758 C   0  0  0  0  0  0
  -23.9056  -10.4293   21.0433 C   0  0  0  0  0  0
  -24.3615   -9.4207   21.9219 C   0  0  0  0  0  0
  -23.6277   -8.2243   22.0791 C   0  0  0  0  0  0
  -22.4257   -8.0296   21.3574 C   0  0  0  0  0  0
  -21.9896   -9.0272   20.4675 C   0  0  0  0  0  0
  -22.7235  -10.2143   20.3086 C   0  0  0  0  0  0
  -21.6845   -6.0745   22.5289 C   0  0  0  0  0  0
  -21.4002   -6.5639   23.8228 C   0  0  0  0  0  0
  -21.3652   -5.6788   24.9190 C   0  0  0  0  0  0
  -21.6039   -4.3055   24.7228 C   0  0  0  0  0  0
  -21.8809   -3.8149   23.4355 C   0  0  0  0  0  0
  -21.9188   -4.6971   22.3414 C   0  0  0  0  0  0
  -22.7837  -13.5244   21.1857 C   0  0  0  0  0  0
  -22.1660   -4.2151   21.0999 F   0  0  0  0  0  0
  -21.5622   -3.4543   25.7745 F   0  0  0  0  0  0
  -30.0070  -13.3874   20.4219 N   0  0  0  0  0  0
  -26.2974  -12.9345   20.3319 N   0  0  0  0  0  0
  -25.9300  -11.6503   20.5753 N   0  0  0  0  0  0
  -22.0448  -12.8264   22.0402 N   0  0  0  0  0  0
  -25.4244  -15.1893   20.4133 N   0  0  0  0  0  0
  -31.8432  -14.6911   20.1605 O   0  0  0  0  0  0
  -21.6638   -6.8890   21.4255 O   0  0  0  0  0  0
  -22.3519  -14.5547   20.6713 O   0  0  0  0  0  0
  -24.6205  -31.8658   23.2056 C   0  0  0  0  0  0
  -25.9070  -32.4814   23.8370 C   0  0  1  0  0  0
  -27.2216  -27.3766   20.1044 C   0  0  0  0  0  0
  -25.5921  -33.8615   24.2303 N   0  0  0  0  0  0
  -23.4122  -30.4865   21.5492 C   0  0  2  0  0  0
  -24.8593  -28.9511   20.1060 C   0  0  0  0  0  0
  -22.7466  -29.4632   22.4980 C   0  0  0  0  0  0
  -18.0306  -28.1343   22.8472 C   0  0  0  0  0  0
  -24.1488  -36.7294   23.2631 C   0  0  0  0  0  0
  -25.9478  -30.8124   21.3710 C   0  0  0  0  0  0
  -26.0239  -29.4459   20.7096 C   0  0  0  0  0  0
  -27.2115  -28.6662   20.7058 C   0  0  0  0  0  0
  -26.0467  -26.9208   19.4783 C   0  0  0  0  0  0
  -24.8690  -27.6918   19.4825 C   0  0  0  0  0  0
  -23.6214  -29.8209   20.1622 C   0  0  0  0  0  0
  -25.4114  -36.3103   24.0328 C   0  0  1  0  0  0
  -20.5894  -28.3682   23.1366 C   0  0  2  0  0  0
  -20.6808  -26.9403   22.5499 C   0  0  0  0  0  0
  -19.5860  -26.6433   21.5203 C   0  0  0  0  0  0
  -18.2000  -26.7929   22.1533 C   0  0  0  0  0  0
  -19.1536  -28.8818   23.2927 C   0  0  0  0  0  0
  -18.9427  -30.1404   23.8951 C   0  0  0  0  0  0
  -17.6414  -30.6533   24.0563 C   0  0  0  0  0  0
  -25.9049  -34.9473   23.5115 C   0  0  0  0  0  0
  -16.5327  -29.9008   23.6292 C   0  0  0  0  0  0
  -16.7277  -28.6430   23.0319 C   0  0  0  0  0  0
  -26.4468  -31.6620   25.0730 C   0  0  0  0  0  0
  -25.3693  -31.3781   26.1455 C   0  0  0  0  0  0
  -27.0281  -30.3037   24.6165 C   0  0  0  0  0  0
  -27.6054  -32.4333   25.7475 C   0  0  0  0  0  0
  -27.5586  -37.1800   24.8468 C   0  0  0  0  0  0
  -21.4174  -29.3062   22.3777 N   0  0  0  0  0  0
  -26.4299  -37.3792   23.9401 N   0  0  0  0  0  0
  -24.6785  -31.0700   22.0993 N   0  0  0  0  0  0
  -23.4231  -28.8151   23.3013 O   0  0  0  0  0  0
  -28.2944  -26.4971   20.1499 O   0  0  0  0  0  0
  -26.5618  -34.8940   22.4681 O   0  0  0  0  0  0
  -23.5380  -32.1440   23.7419 O   0  0  0  0  0  0
  -29.5823  -18.8096   20.4820 C   0  0  0  0  0  0
  -29.3557  -20.2211   20.4784 C   0  0  0  0  0  0
  -28.7138  -18.6764   22.7297 C   0  0  0  0  0  0
  -29.2732  -18.0083   21.6154 C   0  0  0  0  0  0
  -28.8273  -20.8818   21.6202 C   0  0  0  0  0  0
  -28.5118  -20.0778   22.7480 C   0  0  0  0  0  0
  -28.5307  -25.9522   21.3983 C   0  0  0  0  0  0
  -28.7140  -24.6633   21.8274 C   0  0  0  0  0  0
  -28.7423  -23.4183   21.0047 C   0  0  0  0  0  0
  -28.9203  -24.5045   23.3357 C   0  0  0  0  0  0
  -29.5341  -16.4735   21.7410 C   0  0  0  0  0  0
  -28.0076  -20.6645   23.9144 N   0  0  0  0  0  0
  -28.6201  -22.3052   21.7820 N   0  0  0  0  0  0
  -29.9102  -15.7039   20.5361 N   0  0  0  0  0  0
  -28.8565  -23.3683   19.7781 O   0  0  0  0  0  0
  -31.4710  -12.4489   19.1642 H   0  0  0  0  0  0
  -30.3246  -11.3638   19.9007 H   0  0  0  0  0  0
  -29.7666  -11.7379   17.4763 H   0  0  0  0  0  0
  -29.6596  -13.4612   17.7502 H   0  0  0  0  0  0
  -27.8616  -11.2848   18.8736 H   0  0  0  0  0  0
  -27.3760  -12.5661   17.7933 H   0  0  0  0  0  0
  -27.6713  -14.2502   19.5220 H   0  0  0  0  0  0
  -28.6947  -12.0554   21.3899 H   0  0  0  0  0  0
  -28.4527  -13.7235   21.8334 H   0  0  0  0  0  0
  -25.2763   -9.5678   22.4795 H   0  0  0  0  0  0
  -23.9971   -7.4627   22.7503 H   0  0  0  0  0  0
  -21.0829   -8.8813   19.8958 H   0  0  0  0  0  0
  -22.3722  -10.9694   19.6196 H   0  0  0  0  0  0
  -21.1983   -7.6146   23.9734 H   0  0  0  0  0  0
  -21.1486   -6.0525   25.9092 H   0  0  0  0  0  0
  -22.0588   -2.7604   23.2866 H   0  0  0  0  0  0
  -22.3992  -11.9919   22.4815 H   0  0  0  0  0  0
  -21.1088  -13.1356   22.2602 H   0  0  0  0  0  0
  -24.6588  -15.8455   20.5277 H   0  0  0  0  0  0
  -26.2851  -15.6330   20.1171 H   0  0  0  0  0  0
  -26.7144  -32.5476   23.1122 H   0  0  0  0  0  0
  -25.0057  -33.9781   25.0446 H   0  0  0  0  0  0
  -22.7014  -31.3034   21.4100 H   0  0  0  0  0  0
  -23.3758  -35.9617   23.3319 H   0  0  0  0  0  0
  -24.3588  -36.8888   22.2042 H   0  0  0  0  0  0
  -23.7240  -37.6507   23.6635 H   0  0  0  0  0  0
  -26.0774  -31.5804   20.6062 H   0  0  0  0  0  0
  -26.8286  -30.8560   22.0009 H   0  0  0  0  0  0
  -28.1069  -29.0365   21.1849 H   0  0  0  0  0  0
  -26.0342  -25.9428   19.0173 H   0  0  0  0  0  0
  -23.9745  -27.3109   19.0077 H   0  0  0  0  0  0
  -23.7246  -30.5983   19.4039 H   0  0  0  0  0  0
  -22.7441  -29.2404   19.8704 H   0  0  0  0  0  0
  -25.1291  -36.1960   25.0821 H   0  0  0  0  0  0
  -20.9966  -28.3254   24.1498 H   0  0  0  0  0  0
  -20.5631  -26.2277   23.3685 H   0  0  0  0  0  0
  -21.6734  -26.7424   22.1412 H   0  0  0  0  0  0
  -19.7066  -25.6394   21.1120 H   0  0  0  0  0  0
  -19.6848  -27.3333   20.6814 H   0  0  0  0  0  0
  -17.4343  -26.6756   21.3841 H   0  0  0  0  0  0
  -18.0334  -25.9996   22.8839 H   0  0  0  0  0  0
  -19.7873  -30.7206   24.2398 H   0  0  0  0  0  0
  -17.4916  -31.6212   24.5148 H   0  0  0  0  0  0
  -15.5317  -30.2884   23.7565 H   0  0  0  0  0  0
  -15.8696  -28.0729   22.7015 H   0  0  0  0  0  0
  -24.5865  -30.7129   25.7797 H   0  0  0  0  0  0
  -24.8867  -32.2960   26.4826 H   0  0  0  0  0  0
  -25.7989  -30.9006   27.0267 H   0  0  0  0  0  0
  -26.2863  -29.6826   24.1126 H   0  0  0  0  0  0
  -27.3930  -29.7249   25.4662 H   0  0  0  0  0  0
  -27.8756  -30.4332   23.9421 H   0  0  0  0  0  0
  -27.2692  -33.3631   26.2072 H   0  0  0  0  0  0
  -28.3828  -32.6894   25.0265 H   0  0  0  0  0  0
  -28.0753  -31.8440   26.5361 H   0  0  0  0  0  0
  -28.2613  -38.0084   24.7492 H   0  0  0  0  0  0
  -28.1066  -36.2618   24.6303 H   0  0  0  0  0  0
  -27.2309  -37.1468   25.8873 H   0  0  0  0  0  0
  -20.9320  -29.8874   21.7089 H   0  0  0  0  0  0
  -26.0190  -38.2872   24.1391 H   0  0  0  0  0  0
  -30.0159  -18.3522   19.6033 H   0  0  0  0  0  0
  -29.6142  -20.7916   19.5978 H   0  0  0  0  0  0
  -28.4635  -18.0925   23.6053 H   0  0  0  0  0  0
  -28.5504  -26.7494   22.1282 H   0  0  0  0  0  0
  -29.1149  -25.4616   23.8228 H   0  0  0  0  0  0
  -29.7788  -23.8675   23.5573 H   0  0  0  0  0  0
  -28.0290  -24.0814   23.8005 H   0  0  0  0  0  0
  -28.6363  -16.0199   22.1644 H   0  0  0  0  0  0
  -30.3158  -16.3424   22.4930 H   0  0  0  0  0  0
  -27.8554  -20.0316   24.6939 H   0  0  0  0  0  0
  -28.4653  -21.5057   24.2459 H   0  0  0  0  0  0
  -28.3678  -22.5345   22.7309 H   0  0  0  0  0  0
  -30.2553  -16.3438   19.8376 H   0  0  0  0  0  0
  1 25  1  0  0  0
  1 30  2  0  0  0
  1 84  1  0  0  0
  2  3  1  0  0  0
  2 25  1  0  0  0
  2 86  1  0  0  0
  2 87  1  0  0  0
  3  4  1  0  0  0
  3 88  1  0  0  0
  3 89  1  0  0  0
  4  5  1  0  0  0
  4 90  1  0  0  0
  4 91  1  0  0  0
  5  6  1  0  0  0
  5 26  1  0  0  0
  5 92  1  0  0  0
  6 25  1  0  0  0
  6 93  1  0  0  0
  6 94  1  0  0  0
  7  8  2  0  0  0
  7 26  1  0  0  0
  7 29  1  0  0  0
  8  9  1  0  0  0
  8 22  1  0  0  0
  9 10  1  0  0  0
  9 27  2  0  0  0
 10 11  2  0  0  0
 10 15  1  0  0  0
 11 12  1  0  0  0
 11 95  1  0  0  0
 12 13  2  0  0  0
 12 96  1  0  0  0
 13 14  1  0  0  0
 13 31  1  0  0  0
 14 15  2  0  0  0
 14 97  1  0  0  0
 15 98  1  0  0  0
 16 17  2  0  0  0
 16 21  1  0  0  0
 16 31  1  0  0  0
 17 18  1  0  0  0
 17 99  1  0  0  0
 18 19  2  0  0  0
 18100  1  0  0  0
 19 20  1  0  0  0
 19 24  1  0  0  0
 20 21  2  0  0  0
 20101  1  0  0  0
 21 23  1  0  0  0
 22 28  1  0  0  0
 22 32  2  0  0  0
 26 27  1  0  0  0
 28102  1  0  0  0
 28103  1  0  0  0
 29104  1  0  0  0
 29105  1  0  0  0
 33 34  1  0  0  0
 33 66  1  0  0  0
 33 70  2  0  0  0
 34 36  1  0  0  0
 34 59  1  0  0  0
 34106  1  0  0  0
 35 44  2  0  0  0
 35 45  1  0  0  0
 35 68  1  0  0  0
 36 56  1  0  0  0
 36107  1  0  0  0
 37 39  1  0  0  0
 37 47  1  0  0  0
 37 66  1  0  0  0
 37108  1  0  0  0
 38 43  2  0  0  0
 38 46  1  0  0  0
 38 47  1  0  0  0
 39 64  1  0  0  0
 39 67  2  0  0  0
 40 52  1  0  0  0
 40 53  2  0  0  0
 40 58  1  0  0  0
 41109  1  0  0  0
 41110  1  0  0  0
 41111  1  0  0  0
 41 48  1  0  0  0
 42 43  1  0  0  0
 42 66  1  0  0  0
 42112  1  0  0  0
 42113  1  0  0  0
 43 44  1  0  0  0
 44114  1  0  0  0
 45 46  2  0  0  0
 45115  1  0  0  0
 46116  1  0  0  0
 47117  1  0  0  0
 47118  1  0  0  0
 48 56  1  0  0  0
 48 65  1  0  0  0
 48119  1  0  0  0
 49 50  1  0  0  0
 49 53  1  0  0  0
 49 64  1  0  0  0
 49120  1  0  0  0
 50 51  1  0  0  0
 50121  1  0  0  0
 50122  1  0  0  0
 51 52  1  0  0  0
 51123  1  0  0  0
 51124  1  0  0  0
 52125  1  0  0  0
 52126  1  0  0  0
 53 54  1  0  0  0
 54 55  2  0  0  0
 54127  1  0  0  0
 55 57  1  0  0  0
 55128  1  0  0  0
 56 69  2  0  0  0
 57 58  2  0  0  0
 57129  1  0  0  0
 58130  1  0  0  0
 59 60  1  0  0  0
 59 61  1  0  0  0
 59 62  1  0  0  0
 60131  1  0  0  0
 60132  1  0  0  0
 60133  1  0  0  0
 61134  1  0  0  0
 61135  1  0  0  0
 61136  1  0  0  0
 62137  1  0  0  0
 62138  1  0  0  0
 62139  1  0  0  0
 63 65  1  0  0  0
 63140  1  0  0  0
 63141  1  0  0  0
 63142  1  0  0  0
 64143  1  0  0  0
 65144  1  0  0  0
 68 77  1  0  0  0
 71 72  2  0  0  0
 71 74  1  0  0  0
 71145  1  0  0  0
 72 75  1  0  0  0
 72146  1  0  0  0
 73 74  2  0  0  0
 73 76  1  0  0  0
 73147  1  0  0  0
 74 81  1  0  0  0
 75 76  2  0  0  0
 75 83  1  0  0  0
 76 82  1  0  0  0
 77 78  2  0  0  0
 77148  1  0  0  0
 78 79  1  0  0  0
 78 80  1  0  0  0
 79 83  1  0  0  0
 79 85  2  0  0  0
 80149  1  0  0  0
 80150  1  0  0  0
 80151  1  0  0  0
 81 84  1  0  0  0
 81152  1  0  0  0
 81153  1  0  0  0
 82154  1  0  0  0
 82155  1  0  0  0
 83156  1  0  0  0
 84157  1  0  0  0
M  ISO  4   1 100  68 101  77 101  84 100
M  END
> <chiral flag>
0

> <version>
0

> <s_m_source_file>
/data/baiqing/PycharmProjects/Reinvent-master-3.2/result/LINK_invent/BTK/process_docking_weight1_custom_product_contain_oxygen_bond_distance_aromatic_linkinvent_7_9_3/rearranged_h_0090.sdf

> <i_m_source_file_index>
59

> <r_mmod_Potential_Energy-OPLS-2005>
-41.8219299316406

> <r_mmod_Stretch_Energy-OPLS-2005>
55.9009017944336

> <r_mmod_Bend_Energy-OPLS-2005>
169.014801025391

> <r_mmod_Torsional_Energy-OPLS-2005>
302.577117919922

> <r_mmod_Improper_Torsional_Energy-OPLS-2005>
24.0611820220947

> <r_mmod_Van_der_Waal_Energy-OPLS-2005>
147.640563964844

> <r_mmod_Electrostatic_Energy-OPLS-2005>
-543.611511230469

> <r_mmod_Solvation_Energy-OPLS-2005>
-233.442672729492

> <b_mmod_Minimization_Converged-OPLS-2005>
0

> <r_mmod_RMS_Derivative-OPLS-2005>
2.82490372657776

$$$$
59
                    3D
 Structure written by MMmdl.
153162  0  0  1  0            999 V2000
  -30.5969  -14.8333   20.5118 C   0  0  0  0  0  0
  -30.4369  -12.5274   19.4882 C   0  0  0  0  0  0
  -29.5175  -12.5391   18.2448 C   0  0  0  0  0  0
  -28.0444  -12.3391   18.6489 C   0  0  0  0  0  0
  -27.6379  -13.2367   19.8451 C   0  0  2  0  0  0
  -28.6747  -13.1682   20.9812 C   0  0  0  0  0  0
  -25.2499  -13.8200   20.5682 C   0  0  0  0  0  0
  -24.1793  -13.0438   20.9186 C   0  0  0  0  0  0
  -24.6390  -11.6918   20.8718 C   0  0  0  0  0  0
  -23.9070  -10.4294   21.0397 C   0  0  0  0  0  0
  -24.3622   -9.4212   21.9178 C   0  0  0  0  0  0
  -23.6296   -8.2247   22.0751 C   0  0  0  0  0  0
  -22.4277   -8.0281   21.3543 C   0  0  0  0  0  0
  -21.9910   -9.0254   20.4645 C   0  0  0  0  0  0
  -22.7238  -10.2132   20.3050 C   0  0  0  0  0  0
  -21.6853   -6.0735   22.5279 C   0  0  0  0  0  0
  -21.4015   -6.5640   23.8212 C   0  0  0  0  0  0
  -21.3661   -5.6793   24.9174 C   0  0  0  0  0  0
  -21.6045   -4.3054   24.7225 C   0  0  0  0  0  0
  -21.8818   -3.8146   23.4346 C   0  0  0  0  0  0
  -21.9192   -4.6963   22.3402 C   0  0  0  0  0  0
  -22.7819  -13.5220   21.1868 C   0  0  0  0  0  0
  -22.1661   -4.2149   21.0979 F   0  0  0  0  0  0
  -21.5630   -3.4538   25.7738 F   0  0  0  0  0  0
  -29.9709  -13.5910   20.4231 N   0  0  0  0  0  0
  -26.2910  -12.9408   20.3217 N   0  0  0  0  0  0
  -25.9316  -11.6546   20.5694 N   0  0  0  0  0  0
  -22.0476  -12.8206   22.0429 N   0  0  0  0  0  0
  -25.4216  -15.1928   20.4162 N   0  0  0  0  0  0
  -31.7489  -14.9238   20.0717 O   0  0  0  0  0  0
  -21.6640   -6.8878   21.4241 O   0  0  0  0  0  0
  -22.3497  -14.5527   20.6723 O   0  0  0  0  0  0
  -24.6377  -31.8497   23.1938 C   0  0  0  0  0  0
  -25.9173  -32.4727   23.8310 C   0  0  1  0  0  0
  -27.2206  -27.2088   20.1394 C   0  0  0  0  0  0
  -25.5944  -33.8532   24.2228 N   0  0  0  0  0  0
  -23.4390  -30.4703   21.5377 C   0  0  2  0  0  0
  -24.8906  -28.9090   20.1101 C   0  0  0  0  0  0
  -22.7542  -29.4574   22.4883 C   0  0  0  0  0  0
  -18.0299  -28.1394   22.8480 C   0  0  0  0  0  0
  -24.1489  -36.7271   23.2640 C   0  0  0  0  0  0
  -25.9902  -30.7452   21.3839 C   0  0  0  0  0  0
  -26.0656  -29.3627   20.7261 C   0  0  0  0  0  0
  -27.2371  -28.5256   20.7298 C   0  0  0  0  0  0
  -26.0253  -26.8378   19.4910 C   0  0  0  0  0  0
  -24.8781  -27.6560   19.4792 C   0  0  0  0  0  0
  -23.6630  -29.8021   20.1557 C   0  0  0  0  0  0
  -25.4117  -36.3054   24.0322 C   0  0  1  0  0  0
  -20.5909  -28.3715   23.1248 C   0  0  2  0  0  0
  -20.6786  -26.9424   22.5404 C   0  0  0  0  0  0
  -19.5759  -26.6383   21.5212 C   0  0  0  0  0  0
  -18.1940  -26.7934   22.1624 C   0  0  0  0  0  0
  -19.1554  -28.8871   23.2858 C   0  0  0  0  0  0
  -18.9472  -30.1469   23.8882 C   0  0  0  0  0  0
  -17.6469  -30.6592   24.0560 C   0  0  0  0  0  0
  -25.9065  -34.9426   23.5082 C   0  0  0  0  0  0
  -16.5360  -29.9086   23.6335 C   0  0  0  0  0  0
  -16.7284  -28.6504   23.0355 C   0  0  0  0  0  0
  -26.4517  -31.6574   25.0726 C   0  0  0  0  0  0
  -25.3719  -31.3744   26.1432 C   0  0  0  0  0  0
  -27.0375  -30.2978   24.6265 C   0  0  0  0  0  0
  -27.6056  -32.4331   25.7506 C   0  0  0  0  0  0
  -27.5579  -37.1786   24.8461 C   0  0  0  0  0  0
  -21.4240  -29.3049   22.3627 N   0  0  0  0  0  0
  -26.4284  -37.3762   23.9414 N   0  0  0  0  0  0
  -24.7081  -31.0411   22.0943 N   0  0  0  0  0  0
  -23.4208  -28.8117   23.3011 O   0  0  0  0  0  0
  -28.2458  -26.2181   20.1770 O   0  0  0  0  0  0
  -26.5643  -34.8912   22.4655 O   0  0  0  0  0  0
  -23.5509  -32.1345   23.7193 O   0  0  0  0  0  0
  -29.3288  -18.5172   21.0057 C   0  0  0  0  0  0
  -30.1544  -19.5020   19.0941 C   0  0  0  0  0  0
  -29.4712  -19.7924   20.2466 C   0  0  0  0  0  0
  -29.8832  -17.3145   20.4737 C   0  0  0  0  0  0
  -28.2639  -23.6250   20.8607 C   0  0  0  0  0  0
  -27.6840  -22.7659   21.9139 C   0  0  0  0  0  0
  -27.9469  -25.0059   20.8919 C   0  0  0  0  0  0
  -29.0919  -22.5496   20.0281 C   0  0  0  0  0  0
  -28.1176  -21.2953   21.8107 C   0  0  0  0  0  0
  -29.5454  -15.9171   22.4200 C   0  0  0  0  0  0
  -28.9700  -21.1438   20.6361 N   0  0  0  0  0  0
  -29.9225  -15.9827   21.0002 N   0  0  0  0  0  0
  -26.9231  -23.1361   22.8142 O   0  0  0  0  0  0
  -30.5838  -17.7879   18.9328 S   0  0  0  0  0  0
  -31.4746  -12.6685   19.1818 H   0  0  0  0  0  0
  -30.4105  -11.5516   19.9758 H   0  0  0  0  0  0
  -29.8213  -11.7635   17.5405 H   0  0  0  0  0  0
  -29.6266  -13.4890   17.7194 H   0  0  0  0  0  0
  -27.9136  -11.2893   18.9149 H   0  0  0  0  0  0
  -27.3881  -12.5208   17.7967 H   0  0  0  0  0  0
  -27.6312  -14.2607   19.4700 H   0  0  0  0  0  0
  -28.7400  -12.1561   21.3832 H   0  0  0  0  0  0
  -28.3414  -13.7845   21.8102 H   0  0  0  0  0  0
  -25.2769   -9.5689   22.4749 H   0  0  0  0  0  0
  -24.0004   -7.4640   22.7471 H   0  0  0  0  0  0
  -21.0839   -8.8773   19.8955 H   0  0  0  0  0  0
  -22.3695  -10.9669   19.6157 H   0  0  0  0  0  0
  -21.2007   -7.6149   23.9715 H   0  0  0  0  0  0
  -21.1485   -6.0523   25.9078 H   0  0  0  0  0  0
  -22.0597   -2.7608   23.2845 H   0  0  0  0  0  0
  -22.4098  -11.9865   22.4808 H   0  0  0  0  0  0
  -21.1097  -13.1228   22.2650 H   0  0  0  0  0  0
  -24.6615  -15.8524   20.5411 H   0  0  0  0  0  0
  -26.2856  -15.6336   20.1260 H   0  0  0  0  0  0
  -26.7241  -32.5360   23.1048 H   0  0  0  0  0  0
  -25.0076  -33.9659   25.0364 H   0  0  0  0  0  0
  -22.7386  -31.2944   21.3867 H   0  0  0  0  0  0
  -23.3758  -35.9595   23.3285 H   0  0  0  0  0  0
  -24.3580  -36.8916   22.2058 H   0  0  0  0  0  0
  -23.7232  -37.6460   23.6681 H   0  0  0  0  0  0
  -26.1369  -31.5029   20.6131 H   0  0  0  0  0  0
  -26.8641  -30.7956   22.0219 H   0  0  0  0  0  0
  -28.1336  -28.8623   21.2311 H   0  0  0  0  0  0
  -25.9671  -25.8680   19.0170 H   0  0  0  0  0  0
  -23.9802  -27.3020   18.9914 H   0  0  0  0  0  0
  -23.7930  -30.5778   19.4002 H   0  0  0  0  0  0
  -22.7803  -29.2391   19.8472 H   0  0  0  0  0  0
  -25.1301  -36.1888   25.0814 H   0  0  0  0  0  0
  -21.0000  -28.3300   24.1369 H   0  0  0  0  0  0
  -20.5680  -26.2329   23.3620 H   0  0  0  0  0  0
  -21.6652  -26.7436   22.1199 H   0  0  0  0  0  0
  -19.6920  -25.6289   21.1254 H   0  0  0  0  0  0
  -19.6695  -27.3184   20.6735 H   0  0  0  0  0  0
  -17.4208  -26.6677   21.4029 H   0  0  0  0  0  0
  -18.0341  -26.0081   22.9025 H   0  0  0  0  0  0
  -19.7948  -30.7290   24.2244 H   0  0  0  0  0  0
  -17.5023  -31.6271   24.5166 H   0  0  0  0  0  0
  -15.5360  -30.2982   23.7671 H   0  0  0  0  0  0
  -15.8684  -28.0818   22.7079 H   0  0  0  0  0  0
  -24.5896  -30.7096   25.7752 H   0  0  0  0  0  0
  -24.8912  -32.2922   26.4831 H   0  0  0  0  0  0
  -25.8018  -30.8932   27.0227 H   0  0  0  0  0  0
  -26.2981  -29.6710   24.1268 H   0  0  0  0  0  0
  -27.4003  -29.7263   25.4819 H   0  0  0  0  0  0
  -27.8883  -30.4228   23.9564 H   0  0  0  0  0  0
  -27.2653  -33.3641   26.2051 H   0  0  0  0  0  0
  -28.3885  -32.6875   25.0349 H   0  0  0  0  0  0
  -28.0706  -31.8480   26.5450 H   0  0  0  0  0  0
  -28.2576  -38.0102   24.7531 H   0  0  0  0  0  0
  -28.1096  -36.2634   24.6257 H   0  0  0  0  0  0
  -27.2303  -37.1397   25.8865 H   0  0  0  0  0  0
  -20.9441  -29.8765   21.6815 H   0  0  0  0  0  0
  -26.0156  -38.2830   24.1430 H   0  0  0  0  0  0
  -28.8133  -18.5325   21.9543 H   0  0  0  0  0  0
  -30.4352  -20.1869   18.3045 H   0  0  0  0  0  0
  -27.2938  -25.3026   21.7025 H   0  0  0  0  0  0
  -30.1399  -22.8497   19.9978 H   0  0  0  0  0  0
  -28.7285  -22.5392   18.9996 H   0  0  0  0  0  0
  -27.2354  -20.6599   21.7281 H   0  0  0  0  0  0
  -28.6586  -21.0107   22.7136 H   0  0  0  0  0  0
  -28.4658  -16.0257   22.5343 H   0  0  0  0  0  0
  -30.0256  -16.7167   22.9855 H   0  0  0  0  0  0
  -29.8480  -14.9916   22.9141 H   0  0  0  0  0  0
  1 25  1  0  0  0
  1 30  2  0  0  0
  1 82  1  0  0  0
  2  3  1  0  0  0
  2 25  1  0  0  0
  2 85  1  0  0  0
  2 86  1  0  0  0
  3  4  1  0  0  0
  3 87  1  0  0  0
  3 88  1  0  0  0
  4  5  1  0  0  0
  4 89  1  0  0  0
  4 90  1  0  0  0
  5  6  1  0  0  0
  5 26  1  0  0  0
  5 91  1  0  0  0
  6 25  1  0  0  0
  6 92  1  0  0  0
  6 93  1  0  0  0
  7  8  2  0  0  0
  7 26  1  0  0  0
  7 29  1  0  0  0
  8  9  1  0  0  0
  8 22  1  0  0  0
  9 10  1  0  0  0
  9 27  2  0  0  0
 10 11  2  0  0  0
 10 15  1  0  0  0
 11 12  1  0  0  0
 11 94  1  0  0  0
 12 13  2  0  0  0
 12 95  1  0  0  0
 13 14  1  0  0  0
 13 31  1  0  0  0
 14 15  2  0  0  0
 14 96  1  0  0  0
 15 97  1  0  0  0
 16 17  2  0  0  0
 16 21  1  0  0  0
 16 31  1  0  0  0
 17 18  1  0  0  0
 17 98  1  0  0  0
 18 19  2  0  0  0
 18 99  1  0  0  0
 19 20  1  0  0  0
 19 24  1  0  0  0
 20 21  2  0  0  0
 20100  1  0  0  0
 21 23  1  0  0  0
 22 28  1  0  0  0
 22 32  2  0  0  0
 26 27  1  0  0  0
 28101  1  0  0  0
 28102  1  0  0  0
 29103  1  0  0  0
 29104  1  0  0  0
 33 34  1  0  0  0
 33 66  1  0  0  0
 33 70  2  0  0  0
 34 36  1  0  0  0
 34 59  1  0  0  0
 34105  1  0  0  0
 35 44  2  0  0  0
 35 45  1  0  0  0
 35 68  1  0  0  0
 36 56  1  0  0  0
 36106  1  0  0  0
 37 39  1  0  0  0
 37 47  1  0  0  0
 37 66  1  0  0  0
 37107  1  0  0  0
 38 43  2  0  0  0
 38 46  1  0  0  0
 38 47  1  0  0  0
 39 64  1  0  0  0
 39 67  2  0  0  0
 40 52  1  0  0  0
 40 53  2  0  0  0
 40 58  1  0  0  0
 41108  1  0  0  0
 41109  1  0  0  0
 41110  1  0  0  0
 41 48  1  0  0  0
 42 43  1  0  0  0
 42 66  1  0  0  0
 42111  1  0  0  0
 42112  1  0  0  0
 43 44  1  0  0  0
 44113  1  0  0  0
 45 46  2  0  0  0
 45114  1  0  0  0
 46115  1  0  0  0
 47116  1  0  0  0
 47117  1  0  0  0
 48 56  1  0  0  0
 48 65  1  0  0  0
 48118  1  0  0  0
 49 50  1  0  0  0
 49 53  1  0  0  0
 49 64  1  0  0  0
 49119  1  0  0  0
 50 51  1  0  0  0
 50120  1  0  0  0
 50121  1  0  0  0
 51 52  1  0  0  0
 51122  1  0  0  0
 51123  1  0  0  0
 52124  1  0  0  0
 52125  1  0  0  0
 53 54  1  0  0  0
 54 55  2  0  0  0
 54126  1  0  0  0
 55 57  1  0  0  0
 55127  1  0  0  0
 56 69  2  0  0  0
 57 58  2  0  0  0
 57128  1  0  0  0
 58129  1  0  0  0
 59 60  1  0  0  0
 59 61  1  0  0  0
 59 62  1  0  0  0
 60130  1  0  0  0
 60131  1  0  0  0
 60132  1  0  0  0
 61133  1  0  0  0
 61134  1  0  0  0
 61135  1  0  0  0
 62136  1  0  0  0
 62137  1  0  0  0
 62138  1  0  0  0
 63 65  1  0  0  0
 63139  1  0  0  0
 63140  1  0  0  0
 63141  1  0  0  0
 64142  1  0  0  0
 65143  1  0  0  0
 68 77  1  0  0  0
 71 73  1  0  0  0
 71 74  2  0  0  0
 71144  1  0  0  0
 72 73  2  0  0  0
 72 84  1  0  0  0
 72145  1  0  0  0
 73 81  1  0  0  0
 74 82  1  0  0  0
 74 84  1  0  0  0
 75 76  1  0  0  0
 75 77  2  0  0  0
 75 78  1  0  0  0
 76 79  1  0  0  0
 76 83  2  0  0  0
 77146  1  0  0  0
 78 81  1  0  0  0
 78147  1  0  0  0
 78148  1  0  0  0
 79 81  1  0  0  0
 79149  1  0  0  0
 79150  1  0  0  0
 80 82  1  0  0  0
 80151  1  0  0  0
 80152  1  0  0  0
 80153  1  0  0  0
M  ISO  4   1 100  68 101  77 101  82 100
M  END
> <chiral flag>
0

> <version>
0

> <s_m_source_file>
/data/baiqing/PycharmProjects/Reinvent-master-3.2/result/LINK_invent/BTK/process_docking_weight1_custom_product_contain_oxygen_bond_distance_aromatic_linkinvent_7_9_3/rearranged_h_0090.sdf

> <i_m_source_file_index>
60

> <r_mmod_Potential_Energy-OPLS-2005>
443.872375488281

> <r_mmod_Stretch_Energy-OPLS-2005>
161.071884155273

> <r_mmod_Bend_Energy-OPLS-2005>
271.668182373047

> <r_mmod_Torsional_Energy-OPLS-2005>
275.794006347656

> <r_mmod_Improper_Torsional_Energy-OPLS-2005>
3.0918972492218

> <r_mmod_Van_der_Waal_Energy-OPLS-2005>
122.290771484375

> <r_mmod_Electrostatic_Energy-OPLS-2005>
-291.401489257812

> <r_mmod_Solvation_Energy-OPLS-2005>
-225.550903320312

> <b_mmod_Minimization_Converged-OPLS-2005>
0

> <r_mmod_RMS_Derivative-OPLS-2005>
0.403112649917603

$$$$
60
                    3D
 Structure written by MMmdl.
155163  0  0  1  0            999 V2000
  -30.5570  -14.9430   20.4911 C   0  0  0  0  0  0
  -30.4410  -12.5915   19.5113 C   0  0  0  0  0  0
  -29.5282  -12.5489   18.2636 C   0  0  0  0  0  0
  -28.0591  -12.3332   18.6706 C   0  0  0  0  0  0
  -27.6353  -13.2497   19.8462 C   0  0  2  0  0  0
  -28.6706  -13.2438   20.9885 C   0  0  0  0  0  0
  -25.2485  -13.8209   20.5721 C   0  0  0  0  0  0
  -24.1793  -13.0435   20.9206 C   0  0  0  0  0  0
  -24.6404  -11.6918   20.8726 C   0  0  0  0  0  0
  -23.9073  -10.4292   21.0380 C   0  0  0  0  0  0
  -24.3622   -9.4205   21.9163 C   0  0  0  0  0  0
  -23.6300   -8.2234   22.0740 C   0  0  0  0  0  0
  -22.4280   -8.0271   21.3537 C   0  0  0  0  0  0
  -21.9906   -9.0241   20.4640 C   0  0  0  0  0  0
  -22.7229  -10.2123   20.3042 C   0  0  0  0  0  0
  -21.6860   -6.0733   22.5276 C   0  0  0  0  0  0
  -21.4021   -6.5629   23.8215 C   0  0  0  0  0  0
  -21.3669   -5.6777   24.9170 C   0  0  0  0  0  0
  -21.6044   -4.3044   24.7216 C   0  0  0  0  0  0
  -21.8817   -3.8137   23.4336 C   0  0  0  0  0  0
  -21.9201   -4.6957   22.3394 C   0  0  0  0  0  0
  -22.7817  -13.5204   21.1883 C   0  0  0  0  0  0
  -22.1667   -4.2141   21.0976 F   0  0  0  0  0  0
  -21.5636   -3.4531   25.7732 F   0  0  0  0  0  0
  -29.9594  -13.6755   20.4224 N   0  0  0  0  0  0
  -26.2912  -12.9442   20.3246 N   0  0  0  0  0  0
  -25.9337  -11.6565   20.5707 N   0  0  0  0  0  0
  -22.0471  -12.8200   22.0445 N   0  0  0  0  0  0
  -25.4179  -15.1939   20.4221 N   0  0  0  0  0  0
  -31.6806  -15.0519   19.9870 O   0  0  0  0  0  0
  -21.6645   -6.8872   21.4240 O   0  0  0  0  0  0
  -22.3491  -14.5502   20.6722 O   0  0  0  0  0  0
  -24.6460  -31.8433   23.1897 C   0  0  0  0  0  0
  -25.9243  -32.4677   23.8263 C   0  0  1  0  0  0
  -27.2084  -27.1248   20.1329 C   0  0  0  0  0  0
  -25.5999  -33.8483   24.2193 N   0  0  0  0  0  0
  -23.4490  -30.4672   21.5347 C   0  0  2  0  0  0
  -24.8940  -28.8964   20.1057 C   0  0  0  0  0  0
  -22.7585  -29.4564   22.4841 C   0  0  0  0  0  0
  -18.0321  -28.1402   22.8479 C   0  0  0  0  0  0
  -24.1496  -36.7242   23.2640 C   0  0  0  0  0  0
  -26.0069  -30.7088   21.3946 C   0  0  0  0  0  0
  -26.0723  -29.3222   20.7308 C   0  0  0  0  0  0
  -27.2256  -28.4500   20.7346 C   0  0  0  0  0  0
  -26.0064  -26.8172   19.4525 C   0  0  0  0  0  0
  -24.8739  -27.6567   19.4548 C   0  0  0  0  0  0
  -23.6758  -29.8036   20.1513 C   0  0  0  0  0  0
  -25.4130  -36.3019   24.0312 C   0  0  1  0  0  0
  -20.5937  -28.3744   23.1213 C   0  0  2  0  0  0
  -20.6807  -26.9444   22.5399 C   0  0  0  0  0  0
  -19.5773  -26.6384   21.5217 C   0  0  0  0  0  0
  -18.1954  -26.7937   22.1626 C   0  0  0  0  0  0
  -19.1577  -28.8891   23.2840 C   0  0  0  0  0  0
  -18.9491  -30.1481   23.8875 C   0  0  0  0  0  0
  -17.6489  -30.6597   24.0565 C   0  0  0  0  0  0
  -25.9086  -34.9399   23.5061 C   0  0  0  0  0  0
  -16.5384  -29.9095   23.6328 C   0  0  0  0  0  0
  -16.7307  -28.6509   23.0359 C   0  0  0  0  0  0
  -26.4560  -31.6542   25.0715 C   0  0  0  0  0  0
  -25.3743  -31.3753   26.1410 C   0  0  0  0  0  0
  -27.0434  -30.2924   24.6330 C   0  0  0  0  0  0
  -27.6076  -32.4321   25.7507 C   0  0  0  0  0  0
  -27.5576  -37.1778   24.8469 C   0  0  0  0  0  0
  -21.4279  -29.3061   22.3582 N   0  0  0  0  0  0
  -26.4283  -37.3736   23.9412 N   0  0  0  0  0  0
  -24.7205  -31.0286   22.0937 N   0  0  0  0  0  0
  -23.4217  -28.8107   23.2997 O   0  0  0  0  0  0
  -28.2524  -26.1269   20.2383 O   0  0  0  0  0  0
  -26.5650  -34.8900   22.4626 O   0  0  0  0  0  0
  -23.5583  -32.1326   23.7112 O   0  0  0  0  0  0
  -29.6195  -19.5876   19.2715 C   0  0  0  0  0  0
  -29.8659  -18.1773   19.5733 C   0  0  0  0  0  0
  -29.0224  -19.9949   21.4898 C   0  0  0  0  0  0
  -29.2324  -18.5840   21.8056 C   0  0  0  0  0  0
  -29.1913  -20.5964   20.2107 C   0  0  0  0  0  0
  -29.7010  -17.5548   20.8621 C   0  0  0  0  0  0
  -29.3536  -18.9739   24.2644 C   0  0  0  0  0  0
  -28.8753  -18.2974   23.2049 C   0  0  0  0  0  0
  -28.6864  -23.3056   20.4755 C   0  0  0  0  0  0
  -30.0721  -15.7104   22.6340 C   0  0  0  0  0  0
  -28.1372  -24.6650   19.6922 C   0  0  0  0  0  0
  -28.8770  -22.0545   19.8233 N   0  0  0  0  0  0
  -29.9661  -16.0393   21.1981 N   0  0  0  0  0  0
  -28.9043  -23.3979   21.6857 O   0  0  0  0  0  0
  -31.4781  -12.7390   19.2080 H   0  0  0  0  0  0
  -30.4254  -11.6302   20.0276 H   0  0  0  0  0  0
  -29.8496  -11.7543   17.5893 H   0  0  0  0  0  0
  -29.6244  -13.4824   17.7056 H   0  0  0  0  0  0
  -27.9482  -11.2886   18.9654 H   0  0  0  0  0  0
  -27.4005  -12.4819   17.8141 H   0  0  0  0  0  0
  -27.6090  -14.2618   19.4410 H   0  0  0  0  0  0
  -28.7516  -12.2527   21.4371 H   0  0  0  0  0  0
  -28.3337  -13.9094   21.7814 H   0  0  0  0  0  0
  -25.2764   -9.5693   22.4742 H   0  0  0  0  0  0
  -24.0018   -7.4627   22.7453 H   0  0  0  0  0  0
  -21.0836   -8.8749   19.8954 H   0  0  0  0  0  0
  -22.3666  -10.9661   19.6165 H   0  0  0  0  0  0
  -21.2005   -7.6136   23.9711 H   0  0  0  0  0  0
  -21.1510   -6.0509   25.9077 H   0  0  0  0  0  0
  -22.0592   -2.7597   23.2833 H   0  0  0  0  0  0
  -22.4095  -11.9879   22.4864 H   0  0  0  0  0  0
  -21.1093  -13.1226   22.2649 H   0  0  0  0  0  0
  -24.6552  -15.8511   20.5472 H   0  0  0  0  0  0
  -26.2808  -15.6384   20.1350 H   0  0  0  0  0  0
  -26.7310  -32.5277   23.0984 H   0  0  0  0  0  0
  -25.0180  -33.9585   25.0365 H   0  0  0  0  0  0
  -22.7540  -31.2955   21.3834 H   0  0  0  0  0  0
  -23.3766  -35.9570   23.3293 H   0  0  0  0  0  0
  -24.3579  -36.8881   22.2055 H   0  0  0  0  0  0
  -23.7241  -37.6434   23.6679 H   0  0  0  0  0  0
  -26.1746  -31.4650   20.6267 H   0  0  0  0  0  0
  -26.8727  -30.7503   22.0432 H   0  0  0  0  0  0
  -28.1184  -28.7673   21.2548 H   0  0  0  0  0  0
  -25.8815  -25.8899   18.9209 H   0  0  0  0  0  0
  -23.9746  -27.3309   18.9493 H   0  0  0  0  0  0
  -23.8237  -30.5821   19.4019 H   0  0  0  0  0  0
  -22.7877  -29.2548   19.8324 H   0  0  0  0  0  0
  -25.1315  -36.1844   25.0802 H   0  0  0  0  0  0
  -21.0029  -28.3345   24.1334 H   0  0  0  0  0  0
  -20.5719  -26.2367   23.3631 H   0  0  0  0  0  0
  -21.6672  -26.7457   22.1189 H   0  0  0  0  0  0
  -19.6944  -25.6284   21.1271 H   0  0  0  0  0  0
  -19.6701  -27.3176   20.6730 H   0  0  0  0  0  0
  -17.4233  -26.6690   21.4027 H   0  0  0  0  0  0
  -18.0350  -26.0080   22.9022 H   0  0  0  0  0  0
  -19.7973  -30.7299   24.2226 H   0  0  0  0  0  0
  -17.5053  -31.6270   24.5184 H   0  0  0  0  0  0
  -15.5384  -30.3001   23.7656 H   0  0  0  0  0  0
  -15.8704  -28.0821   22.7079 H   0  0  0  0  0  0
  -24.5918  -30.7100   25.7745 H   0  0  0  0  0  0
  -24.8941  -32.2947   26.4765 H   0  0  0  0  0  0
  -25.8018  -30.8975   27.0232 H   0  0  0  0  0  0
  -26.3060  -29.6625   24.1338 H   0  0  0  0  0  0
  -27.4039  -29.7241   25.4915 H   0  0  0  0  0  0
  -27.8980  -30.4145   23.9672 H   0  0  0  0  0  0
  -27.2646  -33.3642   26.2010 H   0  0  0  0  0  0
  -28.3929  -32.6843   25.0372 H   0  0  0  0  0  0
  -28.0703  -31.8501   26.5488 H   0  0  0  0  0  0
  -28.2584  -38.0082   24.7515 H   0  0  0  0  0  0
  -28.1077  -36.2607   24.6298 H   0  0  0  0  0  0
  -27.2293  -37.1433   25.8872 H   0  0  0  0  0  0
  -20.9504  -29.8770   21.6751 H   0  0  0  0  0  0
  -26.0150  -38.2808   24.1411 H   0  0  0  0  0  0
  -29.7717  -19.8963   18.2460 H   0  0  0  0  0  0
  -30.1947  -17.5528   18.7543 H   0  0  0  0  0  0
  -28.6570  -20.6450   22.2725 H   0  0  0  0  0  0
  -29.0372  -18.7337   25.2691 H   0  0  0  0  0  0
  -30.0709  -19.7755   24.1478 H   0  0  0  0  0  0
  -28.1464  -17.5177   23.3697 H   0  0  0  0  0  0
  -30.5630  -14.7618   22.8709 H   0  0  0  0  0  0
  -30.6685  -16.4593   23.1550 H   0  0  0  0  0  0
  -29.0890  -15.6381   23.0950 H   0  0  0  0  0  0
  -27.0977  -24.4090   19.5169 H   0  0  0  0  0  0
  -28.6018  -24.6712   18.7052 H   0  0  0  0  0  0
  -28.7648  -22.1692   18.8245 H   0  0  0  0  0  0
  1 25  1  0  0  0
  1 30  2  0  0  0
  1 83  1  0  0  0
  2  3  1  0  0  0
  2 25  1  0  0  0
  2 85  1  0  0  0
  2 86  1  0  0  0
  3  4  1  0  0  0
  3 87  1  0  0  0
  3 88  1  0  0  0
  4  5  1  0  0  0
  4 89  1  0  0  0
  4 90  1  0  0  0
  5  6  1  0  0  0
  5 26  1  0  0  0
  5 91  1  0  0  0
  6 25  1  0  0  0
  6 92  1  0  0  0
  6 93  1  0  0  0
  7  8  2  0  0  0
  7 26  1  0  0  0
  7 29  1  0  0  0
  8  9  1  0  0  0
  8 22  1  0  0  0
  9 10  1  0  0  0
  9 27  2  0  0  0
 10 11  2  0  0  0
 10 15  1  0  0  0
 11 12  1  0  0  0
 11 94  1  0  0  0
 12 13  2  0  0  0
 12 95  1  0  0  0
 13 14  1  0  0  0
 13 31  1  0  0  0
 14 15  2  0  0  0
 14 96  1  0  0  0
 15 97  1  0  0  0
 16 17  2  0  0  0
 16 21  1  0  0  0
 16 31  1  0  0  0
 17 18  1  0  0  0
 17 98  1  0  0  0
 18 19  2  0  0  0
 18 99  1  0  0  0
 19 20  1  0  0  0
 19 24  1  0  0  0
 20 21  2  0  0  0
 20100  1  0  0  0
 21 23  1  0  0  0
 22 28  1  0  0  0
 22 32  2  0  0  0
 26 27  1  0  0  0
 28101  1  0  0  0
 28102  1  0  0  0
 29103  1  0  0  0
 29104  1  0  0  0
 33 34  1  0  0  0
 33 66  1  0  0  0
 33 70  2  0  0  0
 34 36  1  0  0  0
 34 59  1  0  0  0
 34105  1  0  0  0
 35 44  2  0  0  0
 35 45  1  0  0  0
 35 68  1  0  0  0
 36 56  1  0  0  0
 36106  1  0  0  0
 37 39  1  0  0  0
 37 47  1  0  0  0
 37 66  1  0  0  0
 37107  1  0  0  0
 38 43  2  0  0  0
 38 46  1  0  0  0
 38 47  1  0  0  0
 39 64  1  0  0  0
 39 67  2  0  0  0
 40 52  1  0  0  0
 40 53  2  0  0  0
 40 58  1  0  0  0
 41108  1  0  0  0
 41109  1  0  0  0
 41110  1  0  0  0
 41 48  1  0  0  0
 42 43  1  0  0  0
 42 66  1  0  0  0
 42111  1  0  0  0
 42112  1  0  0  0
 43 44  1  0  0  0
 44113  1  0  0  0
 45 46  2  0  0  0
 45114  1  0  0  0
 46115  1  0  0  0
 47116  1  0  0  0
 47117  1  0  0  0
 48 56  1  0  0  0
 48 65  1  0  0  0
 48118  1  0  0  0
 49 50  1  0  0  0
 49 53  1  0  0  0
 49 64  1  0  0  0
 49119  1  0  0  0
 50 51  1  0  0  0
 50120  1  0  0  0
 50121  1  0  0  0
 51 52  1  0  0  0
 51122  1  0  0  0
 51123  1  0  0  0
 52124  1  0  0  0
 52125  1  0  0  0
 53 54  1  0  0  0
 54 55  2  0  0  0
 54126  1  0  0  0
 55 57  1  0  0  0
 55127  1  0  0  0
 56 69  2  0  0  0
 57 58  2  0  0  0
 57128  1  0  0  0
 58129  1  0  0  0
 59 60  1  0  0  0
 59 61  1  0  0  0
 59 62  1  0  0  0
 60130  1  0  0  0
 60131  1  0  0  0
 60132  1  0  0  0
 61133  1  0  0  0
 61134  1  0  0  0
 61135  1  0  0  0
 62136  1  0  0  0
 62137  1  0  0  0
 62138  1  0  0  0
 63 65  1  0  0  0
 63139  1  0  0  0
 63140  1  0  0  0
 63141  1  0  0  0
 64142  1  0  0  0
 65143  1  0  0  0
 68 81  1  0  0  0
 71 72  2  0  0  0
 71 75  1  0  0  0
 71144  1  0  0  0
 72 76  1  0  0  0
 72145  1  0  0  0
 73 74  1  0  0  0
 73 75  2  0  0  0
 73146  1  0  0  0
 74 76  2  0  0  0
 74 78  1  0  0  0
 75 82  1  0  0  0
 76 83  1  0  0  0
 77 78  2  0  0  0
 77147  1  0  0  0
 77148  1  0  0  0
 78149  1  0  0  0
 79 81  1  0  0  0
 79 82  1  0  0  0
 79 84  2  0  0  0
 80 83  1  0  0  0
 80150  1  0  0  0
 80151  1  0  0  0
 80152  1  0  0  0
 81153  1  0  0  0
 81154  1  0  0  0
 82155  1  0  0  0
M  ISO  4   1 100  68 101  81 101  83 100
M  END
> <chiral flag>
0

> <version>
0

> <s_m_source_file>
/data/baiqing/PycharmProjects/Reinvent-master-3.2/result/LINK_invent/BTK/process_docking_weight1_custom_product_contain_oxygen_bond_distance_aromatic_linkinvent_7_9_3/rearranged_h_0090.sdf

> <i_m_source_file_index>
61

> <r_mmod_Potential_Energy-OPLS-2005>
679.419921875

> <r_mmod_Stretch_Energy-OPLS-2005>
267.419891357422

> <r_mmod_Bend_Energy-OPLS-2005>
289.740295410156

> <r_mmod_Torsional_Energy-OPLS-2005>
300.749450683594

> <r_mmod_Improper_Torsional_Energy-OPLS-2005>
4.28795766830444

> <r_mmod_Van_der_Waal_Energy-OPLS-2005>
157.307479858398

> <r_mmod_Electrostatic_Energy-OPLS-2005>
-305.726593017578

> <r_mmod_Solvation_Energy-OPLS-2005>
-229.421051025391

> <b_mmod_Minimization_Converged-OPLS-2005>
0

> <r_mmod_RMS_Derivative-OPLS-2005>
1.86464643478394

$$$$
61
                    3D
 Structure written by MMmdl.
156164  0  0  1  0            999 V2000
  -30.6375  -14.6252   20.4790 C   0  0  0  0  0  0
  -30.4226  -12.3847   19.4531 C   0  0  0  0  0  0
  -29.5010  -12.5287   18.2210 C   0  0  0  0  0  0
  -28.0230  -12.3729   18.6270 C   0  0  0  0  0  0
  -27.6497  -13.2309   19.8654 C   0  0  2  0  0  0
  -28.6929  -13.0835   20.9965 C   0  0  0  0  0  0
  -25.2521  -13.8199   20.5689 C   0  0  0  0  0  0
  -24.1809  -13.0443   20.9185 C   0  0  0  0  0  0
  -24.6404  -11.6921   20.8731 C   0  0  0  0  0  0
  -23.9079  -10.4297   21.0390 C   0  0  0  0  0  0
  -24.3631   -9.4208   21.9165 C   0  0  0  0  0  0
  -23.6305   -8.2236   22.0744 C   0  0  0  0  0  0
  -22.4285   -8.0274   21.3540 C   0  0  0  0  0  0
  -21.9923   -9.0247   20.4639 C   0  0  0  0  0  0
  -22.7253  -10.2126   20.3044 C   0  0  0  0  0  0
  -21.6857   -6.0730   22.5273 C   0  0  0  0  0  0
  -21.4015   -6.5633   23.8212 C   0  0  0  0  0  0
  -21.3665   -5.6784   24.9176 C   0  0  0  0  0  0
  -21.6052   -4.3054   24.7222 C   0  0  0  0  0  0
  -21.8820   -3.8139   23.4346 C   0  0  0  0  0  0
  -21.9189   -4.6954   22.3399 C   0  0  0  0  0  0
  -22.7829  -13.5218   21.1845 C   0  0  0  0  0  0
  -22.1653   -4.2141   21.0979 F   0  0  0  0  0  0
  -21.5634   -3.4540   25.7733 F   0  0  0  0  0  0
  -30.0108  -13.4086   20.4360 N   0  0  0  0  0  0
  -26.2961  -12.9412   20.3325 N   0  0  0  0  0  0
  -25.9341  -11.6555   20.5754 N   0  0  0  0  0  0
  -22.0471  -12.8220   22.0416 N   0  0  0  0  0  0
  -25.4247  -15.1922   20.4103 N   0  0  0  0  0  0
  -31.8132  -14.7443   20.1180 O   0  0  0  0  0  0
  -21.6647   -6.8878   21.4240 O   0  0  0  0  0  0
  -22.3504  -14.5504   20.6675 O   0  0  0  0  0  0
  -24.6234  -31.8606   23.2037 C   0  0  0  0  0  0
  -25.9086  -32.4777   23.8373 C   0  0  1  0  0  0
  -27.2271  -27.3487   20.1197 C   0  0  0  0  0  0
  -25.5912  -33.8581   24.2299 N   0  0  0  0  0  0
  -23.4183  -30.4837   21.5436 C   0  0  2  0  0  0
  -24.8696  -28.9409   20.1101 C   0  0  0  0  0  0
  -22.7473  -29.4622   22.4918 C   0  0  0  0  0  0
  -18.0287  -28.1411   22.8475 C   0  0  0  0  0  0
  -24.1495  -36.7306   23.2639 C   0  0  0  0  0  0
  -25.9558  -30.8019   21.3701 C   0  0  0  0  0  0
  -26.0342  -29.4289   20.7183 C   0  0  0  0  0  0
  -27.2216  -28.6410   20.7189 C   0  0  0  0  0  0
  -26.0473  -26.8973   19.4980 C   0  0  0  0  0  0
  -24.8750  -27.6792   19.4915 C   0  0  0  0  0  0
  -23.6345  -29.8185   20.1581 C   0  0  0  0  0  0
  -25.4113  -36.3084   24.0336 C   0  0  1  0  0  0
  -20.5888  -28.3708   23.1291 C   0  0  2  0  0  0
  -20.6784  -26.9433   22.5416 C   0  0  0  0  0  0
  -19.5758  -26.6397   21.5221 C   0  0  0  0  0  0
  -18.1935  -26.7949   22.1629 C   0  0  0  0  0  0
  -19.1539  -28.8873   23.2880 C   0  0  0  0  0  0
  -18.9466  -30.1471   23.8897 C   0  0  0  0  0  0
  -17.6466  -30.6605   24.0572 C   0  0  0  0  0  0
  -25.9044  -34.9448   23.5120 C   0  0  0  0  0  0
  -16.5354  -29.9108   23.6324 C   0  0  0  0  0  0
  -16.7273  -28.6536   23.0321 C   0  0  0  0  0  0
  -26.4464  -31.6578   25.0733 C   0  0  0  0  0  0
  -25.3702  -31.3716   26.1469 C   0  0  0  0  0  0
  -27.0304  -30.3008   24.6159 C   0  0  0  0  0  0
  -27.6030  -32.4302   25.7503 C   0  0  0  0  0  0
  -27.5582  -37.1807   24.8459 C   0  0  0  0  0  0
  -21.4190  -29.3054   22.3681 N   0  0  0  0  0  0
  -26.4284  -37.3778   23.9415 N   0  0  0  0  0  0
  -24.6842  -31.0645   22.0966 N   0  0  0  0  0  0
  -23.4213  -28.8156   23.2988 O   0  0  0  0  0  0
  -28.3101  -26.4744   20.1358 O   0  0  0  0  0  0
  -26.5611  -34.8906   22.4688 O   0  0  0  0  0  0
  -23.5403  -32.1385   23.7376 O   0  0  0  0  0  0
  -29.9275  -19.5224   18.6601 C   0  0  0  0  0  0
  -29.5078  -18.2743   20.7133 C   0  0  0  0  0  0
  -30.3218  -17.1064   18.7418 C   0  0  0  0  0  0
  -29.5142  -19.5400   20.0138 C   0  0  0  0  0  0
  -30.3173  -18.3239   18.0339 C   0  0  0  0  0  0
  -29.9232  -17.0376   20.0972 C   0  0  0  0  0  0
  -28.2923  -25.5177   21.1516 C   0  0  0  0  0  0
  -29.0673  -20.8682   20.6637 C   0  0  0  0  0  0
  -28.5842  -24.1679   21.1709 C   0  0  0  0  0  0
  -28.9973  -23.3797   19.9686 C   0  0  0  0  0  0
  -28.4798  -23.5120   22.5351 C   0  0  0  0  0  0
  -30.6983  -18.3420   16.6939 N   0  0  0  0  0  0
  -29.8709  -15.7294   20.7586 N   0  0  0  0  0  0
  -29.2176  -22.0133   19.9179 N   0  0  0  0  0  0
  -28.5952  -20.8059   21.7971 O   0  0  0  0  0  0
  -29.2016  -23.9602   18.8992 O   0  0  0  0  0  0
  -31.4679  -12.4887   19.1559 H   0  0  0  0  0  0
  -30.3346  -11.3849   19.8807 H   0  0  0  0  0  0
  -29.7628  -11.7902   17.4623 H   0  0  0  0  0  0
  -29.6512  -13.5071   17.7613 H   0  0  0  0  0  0
  -27.8502  -11.3178   18.8376 H   0  0  0  0  0  0
  -27.3715  -12.6249   17.7881 H   0  0  0  0  0  0
  -27.6668  -14.2703   19.5359 H   0  0  0  0  0  0
  -28.6933  -12.0639   21.3832 H   0  0  0  0  0  0
  -28.4477  -13.7300   21.8395 H   0  0  0  0  0  0
  -25.2768   -9.5680   22.4756 H   0  0  0  0  0  0
  -24.0002   -7.4637   22.7485 H   0  0  0  0  0  0
  -21.0839   -8.8780   19.8971 H   0  0  0  0  0  0
  -22.3703  -10.9663   19.6160 H   0  0  0  0  0  0
  -21.2012   -7.6147   23.9712 H   0  0  0  0  0  0
  -21.1488   -6.0517   25.9079 H   0  0  0  0  0  0
  -22.0596   -2.7600   23.2845 H   0  0  0  0  0  0
  -22.4067  -11.9884   22.4828 H   0  0  0  0  0  0
  -21.1091  -13.1252   22.2599 H   0  0  0  0  0  0
  -24.6656  -15.8540   20.5287 H   0  0  0  0  0  0
  -26.2829  -15.6269   20.0953 H   0  0  0  0  0  0
  -26.7167  -32.5455   23.1139 H   0  0  0  0  0  0
  -25.0059  -33.9744   25.0438 H   0  0  0  0  0  0
  -22.7104  -31.3025   21.4013 H   0  0  0  0  0  0
  -23.3748  -35.9647   23.3288 H   0  0  0  0  0  0
  -24.3585  -36.8937   22.2054 H   0  0  0  0  0  0
  -23.7255  -37.6511   23.6663 H   0  0  0  0  0  0
  -26.0824  -31.5643   20.5994 H   0  0  0  0  0  0
  -26.8377  -30.8548   21.9962 H   0  0  0  0  0  0
  -28.1176  -29.0046   21.2026 H   0  0  0  0  0  0
  -26.0323  -25.9194   19.0361 H   0  0  0  0  0  0
  -23.9809  -27.3028   19.0126 H   0  0  0  0  0  0
  -23.7514  -30.5960   19.4020 H   0  0  0  0  0  0
  -22.7565  -29.2447   19.8560 H   0  0  0  0  0  0
  -25.1288  -36.1934   25.0825 H   0  0  0  0  0  0
  -20.9980  -28.3290   24.1414 H   0  0  0  0  0  0
  -20.5710  -26.2313   23.3615 H   0  0  0  0  0  0
  -21.6651  -26.7478   22.1198 H   0  0  0  0  0  0
  -19.6927  -25.6303   21.1259 H   0  0  0  0  0  0
  -19.6715  -27.3200   20.6750 H   0  0  0  0  0  0
  -17.4212  -26.6687   21.4029 H   0  0  0  0  0  0
  -18.0336  -26.0101   22.9038 H   0  0  0  0  0  0
  -19.7939  -30.7285   24.2276 H   0  0  0  0  0  0
  -17.5017  -31.6274   24.5197 H   0  0  0  0  0  0
  -15.5356  -30.3018   23.7643 H   0  0  0  0  0  0
  -15.8669  -28.0870   22.7009 H   0  0  0  0  0  0
  -24.5878  -30.7058   25.7806 H   0  0  0  0  0  0
  -24.8883  -32.2883   26.4883 H   0  0  0  0  0  0
  -25.8021  -30.8906   27.0256 H   0  0  0  0  0  0
  -26.2885  -29.6772   24.1155 H   0  0  0  0  0  0
  -27.4004  -29.7231   25.4639 H   0  0  0  0  0  0
  -27.8746  -30.4319   23.9384 H   0  0  0  0  0  0
  -27.2650  -33.3607   26.2083 H   0  0  0  0  0  0
  -28.3835  -32.6857   25.0322 H   0  0  0  0  0  0
  -28.0702  -31.8422   26.5414 H   0  0  0  0  0  0
  -28.2576  -38.0122   24.7504 H   0  0  0  0  0  0
  -28.1095  -36.2650   24.6269 H   0  0  0  0  0  0
  -27.2304  -37.1439   25.8860 H   0  0  0  0  0  0
  -20.9367  -29.8769   21.6884 H   0  0  0  0  0  0
  -26.0165  -38.2855   24.1409 H   0  0  0  0  0  0
  -29.9416  -20.4309   18.0742 H   0  0  0  0  0  0
  -29.1780  -18.2578   21.7429 H   0  0  0  0  0  0
  -30.6222  -16.2073   18.2234 H   0  0  0  0  0  0
  -27.9942  -26.0008   22.0722 H   0  0  0  0  0  0
  -28.3762  -24.2461   23.3344 H   0  0  0  0  0  0
  -29.3760  -22.9360   22.7623 H   0  0  0  0  0  0
  -27.5925  -22.8823   22.5787 H   0  0  0  0  0  0
  -30.4357  -19.1337   16.1140 H   0  0  0  0  0  0
  -30.7179  -17.4667   16.1804 H   0  0  0  0  0  0
  -29.0241  -15.5380   21.2744 H   0  0  0  0  0  0
  -29.5727  -21.7742   19.0088 H   0  0  0  0  0  0
  1 25  1  0  0  0
  1 30  2  0  0  0
  1 83  1  0  0  0
  2  3  1  0  0  0
  2 25  1  0  0  0
  2 87  1  0  0  0
  2 88  1  0  0  0
  3  4  1  0  0  0
  3 89  1  0  0  0
  3 90  1  0  0  0
  4  5  1  0  0  0
  4 91  1  0  0  0
  4 92  1  0  0  0
  5  6  1  0  0  0
  5 26  1  0  0  0
  5 93  1  0  0  0
  6 25  1  0  0  0
  6 94  1  0  0  0
  6 95  1  0  0  0
  7  8  2  0  0  0
  7 26  1  0  0  0
  7 29  1  0  0  0
  8  9  1  0  0  0
  8 22  1  0  0  0
  9 10  1  0  0  0
  9 27  2  0  0  0
 10 11  2  0  0  0
 10 15  1  0  0  0
 11 12  1  0  0  0
 11 96  1  0  0  0
 12 13  2  0  0  0
 12 97  1  0  0  0
 13 14  1  0  0  0
 13 31  1  0  0  0
 14 15  2  0  0  0
 14 98  1  0  0  0
 15 99  1  0  0  0
 16 17  2  0  0  0
 16 21  1  0  0  0
 16 31  1  0  0  0
 17 18  1  0  0  0
 17100  1  0  0  0
 18 19  2  0  0  0
 18101  1  0  0  0
 19 20  1  0  0  0
 19 24  1  0  0  0
 20 21  2  0  0  0
 20102  1  0  0  0
 21 23  1  0  0  0
 22 28  1  0  0  0
 22 32  2  0  0  0
 26 27  1  0  0  0
 28103  1  0  0  0
 28104  1  0  0  0
 29105  1  0  0  0
 29106  1  0  0  0
 33 34  1  0  0  0
 33 66  1  0  0  0
 33 70  2  0  0  0
 34 36  1  0  0  0
 34 59  1  0  0  0
 34107  1  0  0  0
 35 44  2  0  0  0
 35 45  1  0  0  0
 35 68  1  0  0  0
 36 56  1  0  0  0
 36108  1  0  0  0
 37 39  1  0  0  0
 37 47  1  0  0  0
 37 66  1  0  0  0
 37109  1  0  0  0
 38 43  2  0  0  0
 38 46  1  0  0  0
 38 47  1  0  0  0
 39 64  1  0  0  0
 39 67  2  0  0  0
 40 52  1  0  0  0
 40 53  2  0  0  0
 40 58  1  0  0  0
 41110  1  0  0  0
 41111  1  0  0  0
 41112  1  0  0  0
 41 48  1  0  0  0
 42 43  1  0  0  0
 42 66  1  0  0  0
 42113  1  0  0  0
 42114  1  0  0  0
 43 44  1  0  0  0
 44115  1  0  0  0
 45 46  2  0  0  0
 45116  1  0  0  0
 46117  1  0  0  0
 47118  1  0  0  0
 47119  1  0  0  0
 48 56  1  0  0  0
 48 65  1  0  0  0
 48120  1  0  0  0
 49 50  1  0  0  0
 49 53  1  0  0  0
 49 64  1  0  0  0
 49121  1  0  0  0
 50 51  1  0  0  0
 50122  1  0  0  0
 50123  1  0  0  0
 51 52  1  0  0  0
 51124  1  0  0  0
 51125  1  0  0  0
 52126  1  0  0  0
 52127  1  0  0  0
 53 54  1  0  0  0
 54 55  2  0  0  0
 54128  1  0  0  0
 55 57  1  0  0  0
 55129  1  0  0  0
 56 69  2  0  0  0
 57 58  2  0  0  0
 57130  1  0  0  0
 58131  1  0  0  0
 59 60  1  0  0  0
 59 61  1  0  0  0
 59 62  1  0  0  0
 60132  1  0  0  0
 60133  1  0  0  0
 60134  1  0  0  0
 61135  1  0  0  0
 61136  1  0  0  0
 61137  1  0  0  0
 62138  1  0  0  0
 62139  1  0  0  0
 62140  1  0  0  0
 63 65  1  0  0  0
 63141  1  0  0  0
 63142  1  0  0  0
 63143  1  0  0  0
 64144  1  0  0  0
 65145  1  0  0  0
 68 77  1  0  0  0
 71 74  2  0  0  0
 71 75  1  0  0  0
 71146  1  0  0  0
 72 74  1  0  0  0
 72 76  2  0  0  0
 72147  1  0  0  0
 73 75  2  0  0  0
 73 76  1  0  0  0
 73148  1  0  0  0
 74 78  1  0  0  0
 75 82  1  0  0  0
 76 83  1  0  0  0
 77 79  2  0  0  0
 77149  1  0  0  0
 78 84  1  0  0  0
 78 85  2  0  0  0
 79 80  1  0  0  0
 79 81  1  0  0  0
 80 84  1  0  0  0
 80 86  2  0  0  0
 81150  1  0  0  0
 81151  1  0  0  0
 81152  1  0  0  0
 82153  1  0  0  0
 82154  1  0  0  0
 83155  1  0  0  0
 84156  1  0  0  0
M  ISO  4   1 100  68 101  77 101  83 100
M  END
> <chiral flag>
0

> <version>
0

> <s_m_source_file>
/data/baiqing/PycharmProjects/Reinvent-master-3.2/result/LINK_invent/BTK/process_docking_weight1_custom_product_contain_oxygen_bond_distance_aromatic_linkinvent_7_9_3/rearranged_h_0090.sdf

> <i_m_source_file_index>
62

> <r_mmod_Potential_Energy-OPLS-2005>
-25.855806350708

> <r_mmod_Stretch_Energy-OPLS-2005>
76.698974609375

> <r_mmod_Bend_Energy-OPLS-2005>
208.403686523438

> <r_mmod_Torsional_Energy-OPLS-2005>
267.112548828125

> <r_mmod_Improper_Torsional_Energy-OPLS-2005>
8.15927600860596

> <r_mmod_Van_der_Waal_Energy-OPLS-2005>
155.89501953125

> <r_mmod_Electrostatic_Energy-OPLS-2005>
-536.030700683594

> <r_mmod_Solvation_Energy-OPLS-2005>
-249.542068481445

> <b_mmod_Minimization_Converged-OPLS-2005>
0

> <r_mmod_RMS_Derivative-OPLS-2005>
2.53241324424744

$$$$
62
                    3D
 Structure written by MMmdl.
150158  0  0  1  0            999 V2000
  -30.6254  -14.7781   20.4323 C   0  0  0  0  0  0
  -30.4246  -12.4798   19.4679 C   0  0  0  0  0  0
  -29.4961  -12.5104   18.2336 C   0  0  0  0  0  0
  -28.0323  -12.3103   18.6619 C   0  0  0  0  0  0
  -27.6367  -13.2342   19.8436 C   0  0  2  0  0  0
  -28.6833  -13.2032   20.9805 C   0  0  0  0  0  0
  -25.2515  -13.8226   20.5733 C   0  0  0  0  0  0
  -24.1797  -13.0473   20.9203 C   0  0  0  0  0  0
  -24.6373  -11.6938   20.8744 C   0  0  0  0  0  0
  -23.9055  -10.4320   21.0399 C   0  0  0  0  0  0
  -24.3610   -9.4240   21.9180 C   0  0  0  0  0  0
  -23.6306   -8.2258   22.0749 C   0  0  0  0  0  0
  -22.4293   -8.0284   21.3531 C   0  0  0  0  0  0
  -21.9910   -9.0255   20.4639 C   0  0  0  0  0  0
  -22.7222  -10.2141   20.3055 C   0  0  0  0  0  0
  -21.6867   -6.0743   22.5277 C   0  0  0  0  0  0
  -21.4010   -6.5643   23.8208 C   0  0  0  0  0  0
  -21.3660   -5.6796   24.9171 C   0  0  0  0  0  0
  -21.6051   -4.3061   24.7221 C   0  0  0  0  0  0
  -21.8827   -3.8148   23.4341 C   0  0  0  0  0  0
  -21.9205   -4.6969   22.3403 C   0  0  0  0  0  0
  -22.7825  -13.5238   21.1860 C   0  0  0  0  0  0
  -22.1677   -4.2144   21.0987 F   0  0  0  0  0  0
  -21.5632   -3.4557   25.7740 F   0  0  0  0  0  0
  -29.9823  -13.5551   20.3945 N   0  0  0  0  0  0
  -26.2918  -12.9425   20.3268 N   0  0  0  0  0  0
  -25.9301  -11.6565   20.5734 N   0  0  0  0  0  0
  -22.0469  -12.8223   22.0409 N   0  0  0  0  0  0
  -25.4333  -15.1953   20.4239 N   0  0  0  0  0  0
  -31.8184  -14.8040   20.1154 O   0  0  0  0  0  0
  -21.6661   -6.8873   21.4226 O   0  0  0  0  0  0
  -22.3515  -14.5562   20.6722 O   0  0  0  0  0  0
  -24.6325  -31.8516   23.1957 C   0  0  0  0  0  0
  -25.9146  -32.4724   23.8311 C   0  0  1  0  0  0
  -27.2285  -27.2368   20.1346 C   0  0  0  0  0  0
  -25.5936  -33.8529   24.2224 N   0  0  0  0  0  0
  -23.4311  -30.4686   21.5425 C   0  0  2  0  0  0
  -24.8814  -28.9145   20.1095 C   0  0  0  0  0  0
  -22.7527  -29.4534   22.4931 C   0  0  0  0  0  0
  -18.0320  -28.1332   22.8498 C   0  0  0  0  0  0
  -24.1496  -36.7279   23.2640 C   0  0  0  0  0  0
  -25.9788  -30.7558   21.3816 C   0  0  0  0  0  0
  -26.0506  -29.3779   20.7220 C   0  0  0  0  0  0
  -27.2220  -28.5512   20.7230 C   0  0  0  0  0  0
  -26.0314  -26.8473   19.4911 C   0  0  0  0  0  0
  -24.8779  -27.6581   19.4845 C   0  0  0  0  0  0
  -23.6527  -29.8028   20.1576 C   0  0  0  0  0  0
  -25.4124  -36.3048   24.0315 C   0  0  1  0  0  0
  -20.5922  -28.3634   23.1324 C   0  0  2  0  0  0
  -20.6824  -26.9368   22.5420 C   0  0  0  0  0  0
  -19.5794  -26.6368   21.5193 C   0  0  0  0  0  0
  -18.1987  -26.7867   22.1651 C   0  0  0  0  0  0
  -19.1573  -28.8805   23.2893 C   0  0  0  0  0  0
  -18.9500  -30.1420   23.8887 C   0  0  0  0  0  0
  -17.6502  -30.6540   24.0544 C   0  0  0  0  0  0
  -25.9059  -34.9415   23.5070 C   0  0  0  0  0  0
  -16.5390  -29.9028   23.6338 C   0  0  0  0  0  0
  -16.7308  -28.6446   23.0362 C   0  0  0  0  0  0
  -26.4500  -31.6574   25.0722 C   0  0  0  0  0  0
  -25.3709  -31.3746   26.1438 C   0  0  0  0  0  0
  -27.0370  -30.2984   24.6255 C   0  0  0  0  0  0
  -27.6031  -32.4350   25.7497 C   0  0  0  0  0  0
  -27.5575  -37.1798   24.8460 C   0  0  0  0  0  0
  -21.4225  -29.3014   22.3729 N   0  0  0  0  0  0
  -26.4290  -37.3753   23.9398 N   0  0  0  0  0  0
  -24.7001  -31.0446   22.0961 N   0  0  0  0  0  0
  -23.4228  -28.8062   23.3013 O   0  0  0  0  0  0
  -28.3419  -26.3599   20.2389 O   0  0  0  0  0  0
  -26.5638  -34.8894   22.4639 O   0  0  0  0  0  0
  -23.5471  -32.1350   23.7241 O   0  0  0  0  0  0
  -28.2510  -19.6127   22.7186 C   0  0  0  0  0  0
  -28.8219  -18.4631   22.1315 C   0  0  0  0  0  0
  -28.3049  -20.8794   22.0962 C   0  0  0  0  0  0
  -29.5100  -19.8545   20.2591 C   0  0  0  0  0  0
  -29.4809  -18.5296   20.8861 C   0  0  0  0  0  0
  -28.9298  -21.0655   20.8408 C   0  0  0  0  0  0
  -30.2515  -17.2712   20.3551 C   0  0  0  0  0  0
  -28.6195  -23.6995   20.6710 C   0  0  0  0  0  0
  -28.4069  -24.9510   19.6777 C   0  0  0  0  0  0
  -28.9011  -22.4135   20.1870 N   0  0  0  0  0  0
  -29.8957  -15.9510   20.6574 N   0  0  0  0  0  0
  -31.2116  -17.5221   19.6176 O   0  0  0  0  0  0
  -28.5571  -23.9252   21.8827 O   0  0  0  0  0  0
  -31.4610  -12.5963   19.1431 H   0  0  0  0  0  0
  -30.3751  -11.5067   19.9599 H   0  0  0  0  0  0
  -29.7839  -11.7380   17.5200 H   0  0  0  0  0  0
  -29.5957  -13.4628   17.7093 H   0  0  0  0  0  0
  -27.9116  -11.2643   18.9512 H   0  0  0  0  0  0
  -27.3593  -12.4658   17.8185 H   0  0  0  0  0  0
  -27.6219  -14.2466   19.4377 H   0  0  0  0  0  0
  -28.7264  -12.2115   21.4338 H   0  0  0  0  0  0
  -28.4119  -13.8958   21.7793 H   0  0  0  0  0  0
  -25.2746   -9.5735   22.4754 H   0  0  0  0  0  0
  -24.0037   -7.4662   22.7483 H   0  0  0  0  0  0
  -21.0828   -8.8754   19.8955 H   0  0  0  0  0  0
  -22.3666  -10.9674   19.6168 H   0  0  0  0  0  0
  -21.1983   -7.6148   23.9705 H   0  0  0  0  0  0
  -21.1481   -6.0524   25.9070 H   0  0  0  0  0  0
  -22.0603   -2.7609   23.2845 H   0  0  0  0  0  0
  -22.4074  -11.9848   22.4745 H   0  0  0  0  0  0
  -21.1102  -13.1267   22.2678 H   0  0  0  0  0  0
  -24.6853  -15.8678   20.5532 H   0  0  0  0  0  0
  -26.3012  -15.6264   20.1359 H   0  0  0  0  0  0
  -26.7203  -32.5353   23.1043 H   0  0  0  0  0  0
  -25.0084  -33.9656   25.0370 H   0  0  0  0  0  0
  -22.7255  -31.2896   21.3962 H   0  0  0  0  0  0
  -23.3742  -35.9622   23.3296 H   0  0  0  0  0  0
  -24.3584  -36.8913   22.2051 H   0  0  0  0  0  0
  -23.7261  -37.6482   23.6679 H   0  0  0  0  0  0
  -26.1248  -31.5158   20.6134 H   0  0  0  0  0  0
  -26.8533  -30.8001   22.0186 H   0  0  0  0  0  0
  -28.1166  -28.9015   21.2192 H   0  0  0  0  0  0
  -25.9340  -25.8904   19.0072 H   0  0  0  0  0  0
  -23.9818  -27.2917   19.0025 H   0  0  0  0  0  0
  -23.7809  -30.5823   19.4060 H   0  0  0  0  0  0
  -22.7699  -29.2391   19.8494 H   0  0  0  0  0  0
  -25.1308  -36.1884   25.0807 H   0  0  0  0  0  0
  -20.9994  -28.3160   24.1446 H   0  0  0  0  0  0
  -21.6707  -26.7418   22.1232 H   0  0  0  0  0  0
  -20.5726  -26.2212   23.3596 H   0  0  0  0  0  0
  -19.6962  -25.6301   21.1161 H   0  0  0  0  0  0
  -19.6724  -27.3217   20.6747 H   0  0  0  0  0  0
  -17.4240  -26.6566   21.4083 H   0  0  0  0  0  0
  -18.0448  -26.0001   22.9056 H   0  0  0  0  0  0
  -19.7989  -30.7241   24.2228 H   0  0  0  0  0  0
  -17.5064  -31.6219   24.5132 H   0  0  0  0  0  0
  -15.5389  -30.2932   23.7652 H   0  0  0  0  0  0
  -15.8722  -28.0736   22.7090 H   0  0  0  0  0  0
  -24.5872  -30.7109   25.7773 H   0  0  0  0  0  0
  -24.8913  -32.2924   26.4850 H   0  0  0  0  0  0
  -25.8008  -30.8929   27.0228 H   0  0  0  0  0  0
  -26.2974  -29.6706   24.1271 H   0  0  0  0  0  0
  -27.4023  -29.7281   25.4808 H   0  0  0  0  0  0
  -27.8859  -30.4249   23.9531 H   0  0  0  0  0  0
  -27.2608  -33.3651   26.2052 H   0  0  0  0  0  0
  -28.3842  -32.6923   25.0330 H   0  0  0  0  0  0
  -28.0704  -31.8504   26.5432 H   0  0  0  0  0  0
  -28.2592  -38.0099   24.7492 H   0  0  0  0  0  0
  -28.1073  -36.2618   24.6306 H   0  0  0  0  0  0
  -27.2286  -37.1472   25.8865 H   0  0  0  0  0  0
  -20.9375  -29.8840   21.7058 H   0  0  0  0  0  0
  -26.0155  -38.2820   24.1401 H   0  0  0  0  0  0
  -27.7689  -19.5275   23.6822 H   0  0  0  0  0  0
  -28.7811  -17.5281   22.6720 H   0  0  0  0  0  0
  -27.8383  -21.7051   22.6121 H   0  0  0  0  0  0
  -30.0145  -19.9370   19.3072 H   0  0  0  0  0  0
  -27.5759  -24.7067   19.0243 H   0  0  0  0  0  0
  -29.2733  -24.9505   19.0161 H   0  0  0  0  0  0
  -29.0641  -22.3942   19.1889 H   0  0  0  0  0  0
  -28.9846  -15.8281   21.0645 H   0  0  0  0  0  0
  1 25  1  0  0  0
  1 30  2  0  0  0
  1 81  1  0  0  0
  2  3  1  0  0  0
  2 25  1  0  0  0
  2 84  1  0  0  0
  2 85  1  0  0  0
  3  4  1  0  0  0
  3 86  1  0  0  0
  3 87  1  0  0  0
  4  5  1  0  0  0
  4 88  1  0  0  0
  4 89  1  0  0  0
  5  6  1  0  0  0
  5 26  1  0  0  0
  5 90  1  0  0  0
  6 25  1  0  0  0
  6 91  1  0  0  0
  6 92  1  0  0  0
  7  8  2  0  0  0
  7 26  1  0  0  0
  7 29  1  0  0  0
  8  9  1  0  0  0
  8 22  1  0  0  0
  9 10  1  0  0  0
  9 27  2  0  0  0
 10 11  2  0  0  0
 10 15  1  0  0  0
 11 12  1  0  0  0
 11 93  1  0  0  0
 12 13  2  0  0  0
 12 94  1  0  0  0
 13 14  1  0  0  0
 13 31  1  0  0  0
 14 15  2  0  0  0
 14 95  1  0  0  0
 15 96  1  0  0  0
 16 17  2  0  0  0
 16 21  1  0  0  0
 16 31  1  0  0  0
 17 18  1  0  0  0
 17 97  1  0  0  0
 18 19  2  0  0  0
 18 98  1  0  0  0
 19 20  1  0  0  0
 19 24  1  0  0  0
 20 21  2  0  0  0
 20 99  1  0  0  0
 21 23  1  0  0  0
 22 28  1  0  0  0
 22 32  2  0  0  0
 26 27  1  0  0  0
 28100  1  0  0  0
 28101  1  0  0  0
 29102  1  0  0  0
 29103  1  0  0  0
 33 34  1  0  0  0
 33 66  1  0  0  0
 33 70  2  0  0  0
 34 36  1  0  0  0
 34 59  1  0  0  0
 34104  1  0  0  0
 35 44  2  0  0  0
 35 45  1  0  0  0
 35 68  1  0  0  0
 36 56  1  0  0  0
 36105  1  0  0  0
 37 39  1  0  0  0
 37 47  1  0  0  0
 37 66  1  0  0  0
 37106  1  0  0  0
 38 43  2  0  0  0
 38 46  1  0  0  0
 38 47  1  0  0  0
 39 64  1  0  0  0
 39 67  2  0  0  0
 40 52  1  0  0  0
 40 53  2  0  0  0
 40 58  1  0  0  0
 41107  1  0  0  0
 41108  1  0  0  0
 41109  1  0  0  0
 41 48  1  0  0  0
 42 43  1  0  0  0
 42 66  1  0  0  0
 42110  1  0  0  0
 42111  1  0  0  0
 43 44  1  0  0  0
 44112  1  0  0  0
 45 46  2  0  0  0
 45113  1  0  0  0
 46114  1  0  0  0
 47115  1  0  0  0
 47116  1  0  0  0
 48 56  1  0  0  0
 48 65  1  0  0  0
 48117  1  0  0  0
 49 50  1  0  0  0
 49 53  1  0  0  0
 49 64  1  0  0  0
 49118  1  0  0  0
 50 51  1  0  0  0
 50119  1  0  0  0
 50120  1  0  0  0
 51 52  1  0  0  0
 51121  1  0  0  0
 51122  1  0  0  0
 52123  1  0  0  0
 52124  1  0  0  0
 53 54  1  0  0  0
 54 55  2  0  0  0
 54125  1  0  0  0
 55 57  1  0  0  0
 55126  1  0  0  0
 56 69  2  0  0  0
 57 58  2  0  0  0
 57127  1  0  0  0
 58128  1  0  0  0
 59 60  1  0  0  0
 59 61  1  0  0  0
 59 62  1  0  0  0
 60129  1  0  0  0
 60130  1  0  0  0
 60131  1  0  0  0
 61132  1  0  0  0
 61133  1  0  0  0
 61134  1  0  0  0
 62135  1  0  0  0
 62136  1  0  0  0
 62137  1  0  0  0
 63 65  1  0  0  0
 63138  1  0  0  0
 63139  1  0  0  0
 63140  1  0  0  0
 64141  1  0  0  0
 65142  1  0  0  0
 68 79  1  0  0  0
 71 72  2  0  0  0
 71 73  1  0  0  0
 71143  1  0  0  0
 72 75  1  0  0  0
 72144  1  0  0  0
 73 76  2  0  0  0
 73145  1  0  0  0
 74 75  2  0  0  0
 74 76  1  0  0  0
 74146  1  0  0  0
 75 77  1  0  0  0
 76 80  1  0  0  0
 77 81  1  0  0  0
 77 82  2  0  0  0
 78 79  1  0  0  0
 78 80  1  0  0  0
 78 83  2  0  0  0
 79147  1  0  0  0
 79148  1  0  0  0
 80149  1  0  0  0
 81150  1  0  0  0
M  ISO  4   1 100  68 101  79 101  81 100
M  END
> <chiral flag>
0

> <version>
0

> <s_m_source_file>
/data/baiqing/PycharmProjects/Reinvent-master-3.2/result/LINK_invent/BTK/process_docking_weight1_custom_product_contain_oxygen_bond_distance_aromatic_linkinvent_7_9_3/rearranged_h_0090.sdf

> <i_m_source_file_index>
63

> <r_mmod_Potential_Energy-OPLS-2005>
95.8810882568359

> <r_mmod_Stretch_Energy-OPLS-2005>
141.240432739258

> <r_mmod_Bend_Energy-OPLS-2005>
179.76286315918

> <r_mmod_Torsional_Energy-OPLS-2005>
228.920227050781

> <r_mmod_Improper_Torsional_Energy-OPLS-2005>
4.31855773925781

> <r_mmod_Van_der_Waal_Energy-OPLS-2005>
145.365158081055

> <r_mmod_Electrostatic_Energy-OPLS-2005>
-439.885101318359

> <r_mmod_Solvation_Energy-OPLS-2005>
-263.1708984375

> <b_mmod_Minimization_Converged-OPLS-2005>
0

> <r_mmod_RMS_Derivative-OPLS-2005>
2.73876738548279

$$$$
63
                    3D
 Structure written by MMmdl.
162171  0  0  1  0            999 V2000
  -30.6630  -14.6832   20.3586 C   0  0  0  0  0  0
  -30.4349  -12.3811   19.4520 C   0  0  0  0  0  0
  -29.4914  -12.3381   18.2275 C   0  0  0  0  0  0
  -28.0142  -12.2667   18.6556 C   0  0  0  0  0  0
  -27.6408  -13.2165   19.8264 C   0  0  2  0  0  0
  -28.7006  -13.1900   20.9467 C   0  0  0  0  0  0
  -25.2563  -13.8207   20.5700 C   0  0  0  0  0  0
  -24.1829  -13.0476   20.9212 C   0  0  0  0  0  0
  -24.6388  -11.6943   20.8778 C   0  0  0  0  0  0
  -23.9069  -10.4317   21.0428 C   0  0  0  0  0  0
  -24.3632   -9.4223   21.9187 C   0  0  0  0  0  0
  -23.6312   -8.2253   22.0748 C   0  0  0  0  0  0
  -22.4293   -8.0293   21.3541 C   0  0  0  0  0  0
  -21.9931   -9.0269   20.4645 C   0  0  0  0  0  0
  -22.7254  -10.2156   20.3062 C   0  0  0  0  0  0
  -21.6866   -6.0747   22.5271 C   0  0  0  0  0  0
  -21.4023   -6.5651   23.8206 C   0  0  0  0  0  0
  -21.3650   -5.6795   24.9162 C   0  0  0  0  0  0
  -21.6043   -4.3061   24.7211 C   0  0  0  0  0  0
  -21.8823   -3.8155   23.4332 C   0  0  0  0  0  0
  -21.9202   -4.6975   22.3390 C   0  0  0  0  0  0
  -22.7846  -13.5260   21.1857 C   0  0  0  0  0  0
  -22.1667   -4.2162   21.0968 F   0  0  0  0  0  0
  -21.5624   -3.4538   25.7721 F   0  0  0  0  0  0
  -29.9962  -13.4846   20.3254 N   0  0  0  0  0  0
  -26.2969  -12.9381   20.3280 N   0  0  0  0  0  0
  -25.9319  -11.6551   20.5842 N   0  0  0  0  0  0
  -22.0487  -12.8237   22.0398 N   0  0  0  0  0  0
  -25.4316  -15.1921   20.4112 N   0  0  0  0  0  0
  -31.8958  -14.7099   20.3459 O   0  0  0  0  0  0
  -21.6657   -6.8891   21.4231 O   0  0  0  0  0  0
  -22.3523  -14.5552   20.6697 O   0  0  0  0  0  0
  -24.6273  -31.8622   23.2066 C   0  0  0  0  0  0
  -25.9121  -32.4789   23.8386 C   0  0  1  0  0  0
  -27.2099  -27.3130   20.1149 C   0  0  0  0  0  0
  -25.5946  -33.8588   24.2309 N   0  0  0  0  0  0
  -23.4199  -30.4922   21.5484 C   0  0  2  0  0  0
  -24.8648  -28.9600   20.1068 C   0  0  0  0  0  0
  -22.7478  -29.4653   22.4920 C   0  0  0  0  0  0
  -18.0290  -28.1384   22.8482 C   0  0  0  0  0  0
  -24.1491  -36.7295   23.2638 C   0  0  0  0  0  0
  -25.9649  -30.7908   21.3823 C   0  0  0  0  0  0
  -26.0371  -29.4216   20.7196 C   0  0  0  0  0  0
  -27.2131  -28.6092   20.7191 C   0  0  0  0  0  0
  -26.0139  -26.9284   19.4543 C   0  0  0  0  0  0
  -24.8565  -27.7190   19.4639 C   0  0  0  0  0  0
  -23.6343  -29.8393   20.1601 C   0  0  0  0  0  0
  -25.4111  -36.3087   24.0334 C   0  0  1  0  0  0
  -20.5896  -28.3700   23.1263 C   0  0  2  0  0  0
  -20.6780  -26.9421   22.5396 C   0  0  0  0  0  0
  -19.5755  -26.6385   21.5200 C   0  0  0  0  0  0
  -18.1937  -26.7928   22.1618 C   0  0  0  0  0  0
  -19.1544  -28.8855   23.2875 C   0  0  0  0  0  0
  -18.9464  -30.1450   23.8899 C   0  0  0  0  0  0
  -17.6466  -30.6585   24.0560 C   0  0  0  0  0  0
  -25.9052  -34.9457   23.5115 C   0  0  0  0  0  0
  -16.5357  -29.9082   23.6328 C   0  0  0  0  0  0
  -16.7280  -28.6499   23.0353 C   0  0  0  0  0  0
  -26.4509  -31.6587   25.0745 C   0  0  0  0  0  0
  -25.3744  -31.3712   26.1470 C   0  0  0  0  0  0
  -27.0352  -30.3009   24.6199 C   0  0  0  0  0  0
  -27.6076  -32.4316   25.7511 C   0  0  0  0  0  0
  -27.5583  -37.1801   24.8463 C   0  0  0  0  0  0
  -21.4192  -29.3060   22.3656 N   0  0  0  0  0  0
  -26.4289  -37.3783   23.9415 N   0  0  0  0  0  0
  -24.6895  -31.0644   22.1020 N   0  0  0  0  0  0
  -23.4206  -28.8173   23.2980 O   0  0  0  0  0  0
  -28.2889  -26.4076   20.2006 O   0  0  0  0  0  0
  -26.5607  -34.8918   22.4673 O   0  0  0  0  0  0
  -23.5435  -32.1422   23.7389 O   0  0  0  0  0  0
  -29.0003  -17.9420   19.2572 C   0  0  0  0  0  0
  -30.2571  -23.7002   20.4740 C   0  0  0  0  0  0
  -30.2612  -19.2502   21.3417 C   0  0  0  0  0  0
  -28.9024  -19.3556   19.3566 C   0  0  0  0  0  0
  -28.8365  -23.7635   20.3529 C   0  0  0  0  0  0
  -29.5380  -20.0630   20.4168 C   0  0  0  0  0  0
  -29.8072  -17.1307   20.1080 C   0  0  0  0  0  0
  -30.4151  -17.8294   21.1961 C   0  0  0  0  0  0
  -30.6346  -22.3785   20.5528 C   0  0  0  0  0  0
  -28.4415  -22.4317   20.4539 C   0  0  0  0  0  0
  -28.1570  -20.0760   18.2429 C   0  0  0  0  0  0
  -30.1827  -15.6037   18.2320 C   0  0  0  0  0  0
  -27.8992  -24.9813   20.0696 C   0  0  0  0  0  0
  -29.5278  -21.5320   20.4927 N   0  0  0  0  0  0
  -31.2289  -17.1590   22.1112 N   0  0  0  0  0  0
  -30.0286  -15.7225   19.7014 N   0  0  0  0  0  0
  -31.8958  -21.8699   20.6319 O   0  0  0  0  0  0
  -27.1691  -21.9404   20.4735 O   0  0  0  0  0  0
  -31.4694  -12.4998   19.1258 H   0  0  0  0  0  0
  -30.3962  -11.4380   19.9994 H   0  0  0  0  0  0
  -29.7292  -11.4589   17.6269 H   0  0  0  0  0  0
  -29.6389  -13.1736   17.5527 H   0  0  0  0  0  0
  -27.8337  -11.2345   18.9568 H   0  0  0  0  0  0
  -27.3623  -12.4434   17.7991 H   0  0  0  0  0  0
  -27.6278  -14.2223   19.4078 H   0  0  0  0  0  0
  -28.7229  -12.2202   21.4448 H   0  0  0  0  0  0
  -28.4676  -13.9336   21.7105 H   0  0  0  0  0  0
  -25.2776   -9.5706   22.4764 H   0  0  0  0  0  0
  -24.0030   -7.4644   22.7459 H   0  0  0  0  0  0
  -21.0868   -8.8804   19.8949 H   0  0  0  0  0  0
  -22.3718  -10.9706   19.6182 H   0  0  0  0  0  0
  -21.2028   -7.6158   23.9719 H   0  0  0  0  0  0
  -21.1458   -6.0516   25.9065 H   0  0  0  0  0  0
  -22.0614   -2.7621   23.2826 H   0  0  0  0  0  0
  -22.4130  -11.9911   22.4795 H   0  0  0  0  0  0
  -21.1095  -13.1237   22.2597 H   0  0  0  0  0  0
  -24.6760  -15.8574   20.5337 H   0  0  0  0  0  0
  -26.3005  -15.6263   20.1256 H   0  0  0  0  0  0
  -26.7189  -32.5464   23.1136 H   0  0  0  0  0  0
  -25.0108  -33.9738   25.0463 H   0  0  0  0  0  0
  -22.7146  -31.3145   21.4110 H   0  0  0  0  0  0
  -23.3755  -35.9625   23.3288 H   0  0  0  0  0  0
  -24.3590  -36.8922   22.2056 H   0  0  0  0  0  0
  -23.7235  -37.6493   23.6659 H   0  0  0  0  0  0
  -26.1017  -31.5562   20.6174 H   0  0  0  0  0  0
  -26.8439  -30.8346   22.0130 H   0  0  0  0  0  0
  -28.1041  -28.9516   21.2267 H   0  0  0  0  0  0
  -25.9142  -25.9929   18.9277 H   0  0  0  0  0  0
  -23.9627  -27.3644   18.9683 H   0  0  0  0  0  0
  -23.7533  -30.6208   19.4088 H   0  0  0  0  0  0
  -22.7539  -29.2712   19.8542 H   0  0  0  0  0  0
  -25.1287  -36.1943   25.0827 H   0  0  0  0  0  0
  -21.0000  -28.3273   24.1379 H   0  0  0  0  0  0
  -20.5666  -26.2317   23.3600 H   0  0  0  0  0  0
  -21.6649  -26.7437   22.1198 H   0  0  0  0  0  0
  -19.6915  -25.6294   21.1234 H   0  0  0  0  0  0
  -19.6685  -27.3189   20.6724 H   0  0  0  0  0  0
  -17.4205  -26.6670   21.4026 H   0  0  0  0  0  0
  -18.0345  -26.0066   22.9011 H   0  0  0  0  0  0
  -19.7945  -30.7260   24.2279 H   0  0  0  0  0  0
  -17.5023  -31.6266   24.5159 H   0  0  0  0  0  0
  -15.5355  -30.2983   23.7650 H   0  0  0  0  0  0
  -15.8681  -28.0809   22.7072 H   0  0  0  0  0  0
  -24.5930  -30.7052   25.7792 H   0  0  0  0  0  0
  -24.8925  -32.2871   26.4901 H   0  0  0  0  0  0
  -25.8074  -30.8886   27.0240 H   0  0  0  0  0  0
  -26.2926  -29.6755   24.1229 H   0  0  0  0  0  0
  -27.4054  -29.7269   25.4705 H   0  0  0  0  0  0
  -27.8801  -30.4293   23.9428 H   0  0  0  0  0  0
  -27.2695  -33.3612   26.2100 H   0  0  0  0  0  0
  -28.3880  -32.6876   25.0332 H   0  0  0  0  0  0
  -28.0753  -31.8431   26.5414 H   0  0  0  0  0  0
  -28.2590  -38.0110   24.7525 H   0  0  0  0  0  0
  -28.1090  -36.2641   24.6263 H   0  0  0  0  0  0
  -27.2309  -37.1419   25.8868 H   0  0  0  0  0  0
  -20.9360  -29.8811   21.6897 H   0  0  0  0  0  0
  -26.0171  -38.2858   24.1417 H   0  0  0  0  0  0
  -28.4862  -17.4804   18.4266 H   0  0  0  0  0  0
  -30.9337  -24.5434   20.4564 H   0  0  0  0  0  0
  -30.7639  -19.7526   22.1551 H   0  0  0  0  0  0
  -28.2074  -19.5126   17.3105 H   0  0  0  0  0  0
  -28.5835  -21.0572   18.0365 H   0  0  0  0  0  0
  -27.1056  -20.1971   18.5008 H   0  0  0  0  0  0
  -30.5503  -16.5258   17.7796 H   0  0  0  0  0  0
  -29.2274  -15.3590   17.7672 H   0  0  0  0  0  0
  -30.9184  -14.8608   17.9173 H   0  0  0  0  0  0
  -27.0108  -24.8076   20.6802 H   0  0  0  0  0  0
  -27.6182  -24.8151   19.0293 H   0  0  0  0  0  0
  -31.8086  -17.7400   22.7084 H   0  0  0  0  0  0
  -31.7646  -16.3787   21.7391 H   0  0  0  0  0  0
  -32.5041  -22.6029   20.6559 H   0  0  0  0  0  0
  -26.5637  -22.6703   20.5368 H   0  0  0  0  0  0
  1 25  1  0  0  0
  1 30  2  0  0  0
  1 86  1  0  0  0
  2  3  1  0  0  0
  2 25  1  0  0  0
  2 89  1  0  0  0
  2 90  1  0  0  0
  3  4  1  0  0  0
  3 91  1  0  0  0
  3 92  1  0  0  0
  4  5  1  0  0  0
  4 93  1  0  0  0
  4 94  1  0  0  0
  5  6  1  0  0  0
  5 26  1  0  0  0
  5 95  1  0  0  0
  6 25  1  0  0  0
  6 96  1  0  0  0
  6 97  1  0  0  0
  7  8  2  0  0  0
  7 26  1  0  0  0
  7 29  1  0  0  0
  8  9  1  0  0  0
  8 22  1  0  0  0
  9 10  1  0  0  0
  9 27  2  0  0  0
 10 11  2  0  0  0
 10 15  1  0  0  0
 11 12  1  0  0  0
 11 98  1  0  0  0
 12 13  2  0  0  0
 12 99  1  0  0  0
 13 14  1  0  0  0
 13 31  1  0  0  0
 14 15  2  0  0  0
 14100  1  0  0  0
 15101  1  0  0  0
 16 17  2  0  0  0
 16 21  1  0  0  0
 16 31  1  0  0  0
 17 18  1  0  0  0
 17102  1  0  0  0
 18 19  2  0  0  0
 18103  1  0  0  0
 19 20  1  0  0  0
 19 24  1  0  0  0
 20 21  2  0  0  0
 20104  1  0  0  0
 21 23  1  0  0  0
 22 28  1  0  0  0
 22 32  2  0  0  0
 26 27  1  0  0  0
 28105  1  0  0  0
 28106  1  0  0  0
 29107  1  0  0  0
 29108  1  0  0  0
 33 34  1  0  0  0
 33 66  1  0  0  0
 33 70  2  0  0  0
 34 36  1  0  0  0
 34 59  1  0  0  0
 34109  1  0  0  0
 35 44  2  0  0  0
 35 45  1  0  0  0
 35 68  1  0  0  0
 36 56  1  0  0  0
 36110  1  0  0  0
 37 39  1  0  0  0
 37 47  1  0  0  0
 37 66  1  0  0  0
 37111  1  0  0  0
 38 43  2  0  0  0
 38 46  1  0  0  0
 38 47  1  0  0  0
 39 64  1  0  0  0
 39 67  2  0  0  0
 40 52  1  0  0  0
 40 53  2  0  0  0
 40 58  1  0  0  0
 41112  1  0  0  0
 41113  1  0  0  0
 41114  1  0  0  0
 41 48  1  0  0  0
 42 43  1  0  0  0
 42 66  1  0  0  0
 42115  1  0  0  0
 42116  1  0  0  0
 43 44  1  0  0  0
 44117  1  0  0  0
 45 46  2  0  0  0
 45118  1  0  0  0
 46119  1  0  0  0
 47120  1  0  0  0
 47121  1  0  0  0
 48 56  1  0  0  0
 48 65  1  0  0  0
 48122  1  0  0  0
 49 50  1  0  0  0
 49 53  1  0  0  0
 49 64  1  0  0  0
 49123  1  0  0  0
 50 51  1  0  0  0
 50124  1  0  0  0
 50125  1  0  0  0
 51 52  1  0  0  0
 51126  1  0  0  0
 51127  1  0  0  0
 52128  1  0  0  0
 52129  1  0  0  0
 53 54  1  0  0  0
 54 55  2  0  0  0
 54130  1  0  0  0
 55 57  1  0  0  0
 55131  1  0  0  0
 56 69  2  0  0  0
 57 58  2  0  0  0
 57132  1  0  0  0
 58133  1  0  0  0
 59 60  1  0  0  0
 59 61  1  0  0  0
 59 62  1  0  0  0
 60134  1  0  0  0
 60135  1  0  0  0
 60136  1  0  0  0
 61137  1  0  0  0
 61138  1  0  0  0
 61139  1  0  0  0
 62140  1  0  0  0
 62141  1  0  0  0
 62142  1  0  0  0
 63 65  1  0  0  0
 63143  1  0  0  0
 63144  1  0  0  0
 63145  1  0  0  0
 64146  1  0  0  0
 65147  1  0  0  0
 68 83  1  0  0  0
 71 74  2  0  0  0
 71 77  1  0  0  0
 71148  1  0  0  0
 72 75  1  0  0  0
 72 79  2  0  0  0
 72149  1  0  0  0
 73 76  2  0  0  0
 73 78  1  0  0  0
 73150  1  0  0  0
 74 76  1  0  0  0
 74 81  1  0  0  0
 75 80  2  0  0  0
 75 83  1  0  0  0
 76 84  1  0  0  0
 77 78  2  0  0  0
 77 86  1  0  0  0
 78 85  1  0  0  0
 79 84  1  0  0  0
 79 87  1  0  0  0
 80 84  1  0  0  0
 80 88  1  0  0  0
 81151  1  0  0  0
 81152  1  0  0  0
 81153  1  0  0  0
 82 86  1  0  0  0
 82154  1  0  0  0
 82155  1  0  0  0
 82156  1  0  0  0
 83157  1  0  0  0
 83158  1  0  0  0
 85159  1  0  0  0
 85160  1  0  0  0
 87161  1  0  0  0
 88162  1  0  0  0
M  ISO  4   1 100  68 101  83 101  86 100
M  END
> <chiral flag>
0

> <version>
0

> <s_m_source_file>
/data/baiqing/PycharmProjects/Reinvent-master-3.2/result/LINK_invent/BTK/process_docking_weight1_custom_product_contain_oxygen_bond_distance_aromatic_linkinvent_7_9_3/rearranged_h_0090.sdf

> <i_m_source_file_index>
64

> <r_mmod_Potential_Energy-OPLS-2005>
324.757293701172

> <r_mmod_Stretch_Energy-OPLS-2005>
87.0670166015625

> <r_mmod_Bend_Energy-OPLS-2005>
166.832885742188

> <r_mmod_Torsional_Energy-OPLS-2005>
338.694793701172

> <r_mmod_Improper_Torsional_Energy-OPLS-2005>
34.9433403015137

> <r_mmod_Van_der_Waal_Energy-OPLS-2005>
169.265396118164

> <r_mmod_Electrostatic_Energy-OPLS-2005>
-337.412750244141

> <r_mmod_Solvation_Energy-OPLS-2005>
-221.287292480469

> <b_mmod_Minimization_Converged-OPLS-2005>
0

> <r_mmod_RMS_Derivative-OPLS-2005>
1.27221190929413

$$$$
64
                    3D
 Structure written by MMmdl.
153161  0  0  1  0            999 V2000
  -30.6197  -14.7365   20.3654 C   0  0  0  0  0  0
  -30.4395  -12.4192   19.4648 C   0  0  0  0  0  0
  -29.5021  -12.3805   18.2352 C   0  0  0  0  0  0
  -28.0223  -12.2857   18.6569 C   0  0  0  0  0  0
  -27.6375  -13.2179   19.8391 C   0  0  2  0  0  0
  -28.6955  -13.1927   20.9616 C   0  0  0  0  0  0
  -25.2532  -13.8176   20.5736 C   0  0  0  0  0  0
  -24.1800  -13.0440   20.9224 C   0  0  0  0  0  0
  -24.6371  -11.6913   20.8786 C   0  0  0  0  0  0
  -23.9049  -10.4292   21.0428 C   0  0  0  0  0  0
  -24.3607   -9.4203   21.9196 C   0  0  0  0  0  0
  -23.6287   -8.2235   22.0756 C   0  0  0  0  0  0
  -22.4271   -8.0275   21.3543 C   0  0  0  0  0  0
  -21.9906   -9.0251   20.4648 C   0  0  0  0  0  0
  -22.7229  -10.2134   20.3067 C   0  0  0  0  0  0
  -21.6851   -6.0732   22.5278 C   0  0  0  0  0  0
  -21.4013   -6.5638   23.8211 C   0  0  0  0  0  0
  -21.3659   -5.6792   24.9174 C   0  0  0  0  0  0
  -21.6044   -4.3055   24.7226 C   0  0  0  0  0  0
  -21.8820   -3.8145   23.4347 C   0  0  0  0  0  0
  -21.9192   -4.6960   22.3403 C   0  0  0  0  0  0
  -22.7822  -13.5233   21.1867 C   0  0  0  0  0  0
  -22.1662   -4.2146   21.0980 F   0  0  0  0  0  0
  -21.5629   -3.4539   25.7739 F   0  0  0  0  0  0
  -29.9873  -13.5149   20.3451 N   0  0  0  0  0  0
  -26.2939  -12.9350   20.3331 N   0  0  0  0  0  0
  -25.9302  -11.6515   20.5840 N   0  0  0  0  0  0
  -22.0462  -12.8226   22.0420 N   0  0  0  0  0  0
  -25.4268  -15.1895   20.4169 N   0  0  0  0  0  0
  -31.8499  -14.7927   20.2820 O   0  0  0  0  0  0
  -21.6636   -6.8872   21.4238 O   0  0  0  0  0  0
  -22.3513  -14.5536   20.6707 O   0  0  0  0  0  0
  -24.6280  -31.8583   23.2013 C   0  0  0  0  0  0
  -25.9120  -32.4770   23.8346 C   0  0  1  0  0  0
  -27.2235  -27.2951   20.1196 C   0  0  0  0  0  0
  -25.5928  -33.8571   24.2271 N   0  0  0  0  0  0
  -23.4224  -30.4822   21.5442 C   0  0  2  0  0  0
  -24.8685  -28.9350   20.1102 C   0  0  0  0  0  0
  -22.7483  -29.4618   22.4926 C   0  0  0  0  0  0
  -18.0288  -28.1385   22.8486 C   0  0  0  0  0  0
  -24.1490  -36.7290   23.2639 C   0  0  0  0  0  0
  -25.9657  -30.7814   21.3765 C   0  0  0  0  0  0
  -26.0379  -29.4069   20.7184 C   0  0  0  0  0  0
  -27.2150  -28.5976   20.7157 C   0  0  0  0  0  0
  -26.0252  -26.8810   19.4899 C   0  0  0  0  0  0
  -24.8654  -27.6784   19.4878 C   0  0  0  0  0  0
  -23.6381  -29.8180   20.1592 C   0  0  0  0  0  0
  -25.4116  -36.3079   24.0328 C   0  0  1  0  0  0
  -20.5890  -28.3693   23.1277 C   0  0  2  0  0  0
  -20.6776  -26.9414   22.5409 C   0  0  0  0  0  0
  -19.5752  -26.6384   21.5211 C   0  0  0  0  0  0
  -18.1932  -26.7928   22.1625 C   0  0  0  0  0  0
  -19.1541  -28.8856   23.2877 C   0  0  0  0  0  0
  -18.9463  -30.1457   23.8895 C   0  0  0  0  0  0
  -17.6463  -30.6587   24.0562 C   0  0  0  0  0  0
  -25.9054  -34.9448   23.5101 C   0  0  0  0  0  0
  -16.5354  -29.9085   23.6330 C   0  0  0  0  0  0
  -16.7275  -28.6502   23.0352 C   0  0  0  0  0  0
  -26.4498  -31.6586   25.0724 C   0  0  0  0  0  0
  -25.3726  -31.3728   26.1447 C   0  0  0  0  0  0
  -27.0345  -30.3007   24.6193 C   0  0  0  0  0  0
  -27.6053  -32.4325   25.7497 C   0  0  0  0  0  0
  -27.5579  -37.1802   24.8466 C   0  0  0  0  0  0
  -21.4195  -29.3043   22.3669 N   0  0  0  0  0  0
  -26.4293  -37.3774   23.9407 N   0  0  0  0  0  0
  -24.6909  -31.0578   22.0972 N   0  0  0  0  0  0
  -23.4199  -28.8159   23.3013 O   0  0  0  0  0  0
  -28.3439  -26.4414   20.1873 O   0  0  0  0  0  0
  -26.5624  -34.8918   22.4669 O   0  0  0  0  0  0
  -23.5438  -32.1391   23.7329 O   0  0  0  0  0  0
  -28.5694  -17.9231   19.8094 C   0  0  0  0  0  0
  -28.4262  -19.3353   19.9567 C   0  0  0  0  0  0
  -30.6407  -17.9683   21.0148 C   0  0  0  0  0  0
  -29.6952  -17.1892   20.2915 C   0  0  0  0  0  0
  -29.4075  -20.1258   20.6113 C   0  0  0  0  0  0
  -30.4972  -19.3893   21.1663 C   0  0  0  0  0  0
  -28.2584  -25.0586   19.8764 C   0  0  0  0  0  0
  -28.7935  -23.9946   20.5756 C   0  0  0  0  0  0
  -28.6122  -22.5656   20.1256 C   0  0  0  0  0  0
  -29.8314  -15.7477   18.3519 C   0  0  0  0  0  0
  -29.3588  -21.5957   20.7626 N   0  0  0  0  0  0
  -29.8888  -15.7952   19.8278 N   0  0  0  0  0  0
  -27.8356  -22.2606   19.2187 O   0  0  0  0  0  0
  -29.4709  -24.2387   21.7083 O   0  0  0  0  0  0
  -31.4573  -20.0728   21.8353 F   0  0  0  0  0  0
  -31.4739  -12.5529   19.1428 H   0  0  0  0  0  0
  -30.4096  -11.4705   20.0028 H   0  0  0  0  0  0
  -29.7548  -11.5188   17.6158 H   0  0  0  0  0  0
  -29.6518  -13.2378   17.5873 H   0  0  0  0  0  0
  -27.8487  -11.2481   18.9437 H   0  0  0  0  0  0
  -27.3719  -12.4709   17.8012 H   0  0  0  0  0  0
  -27.6110  -14.2276   19.4366 H   0  0  0  0  0  0
  -28.7318  -12.2171   21.4483 H   0  0  0  0  0  0
  -28.4497  -13.9233   21.7344 H   0  0  0  0  0  0
  -25.2749   -9.5680   22.4774 H   0  0  0  0  0  0
  -23.9998   -7.4624   22.7471 H   0  0  0  0  0  0
  -21.0839   -8.8769   19.8950 H   0  0  0  0  0  0
  -22.3687  -10.9677   19.6180 H   0  0  0  0  0  0
  -21.2005   -7.6146   23.9713 H   0  0  0  0  0  0
  -21.1481   -6.0523   25.9077 H   0  0  0  0  0  0
  -22.0600   -2.7607   23.2849 H   0  0  0  0  0  0
  -22.4078  -11.9891   22.4815 H   0  0  0  0  0  0
  -21.1077  -13.1249   22.2617 H   0  0  0  0  0  0
  -24.6689  -15.8515   20.5428 H   0  0  0  0  0  0
  -26.2958  -15.6276   20.1404 H   0  0  0  0  0  0
  -26.7186  -32.5431   23.1090 H   0  0  0  0  0  0
  -25.0071  -33.9713   25.0413 H   0  0  0  0  0  0
  -22.7171  -31.3035   21.4009 H   0  0  0  0  0  0
  -23.3752  -35.9622   23.3304 H   0  0  0  0  0  0
  -24.3578  -36.8909   22.2053 H   0  0  0  0  0  0
  -23.7244  -37.6492   23.6661 H   0  0  0  0  0  0
  -26.1013  -31.5440   20.6084 H   0  0  0  0  0  0
  -26.8447  -30.8289   22.0078 H   0  0  0  0  0  0
  -28.1114  -28.9535   21.2039 H   0  0  0  0  0  0
  -25.9405  -25.9187   19.0111 H   0  0  0  0  0  0
  -23.9676  -27.3091   19.0114 H   0  0  0  0  0  0
  -23.7596  -30.5951   19.4036 H   0  0  0  0  0  0
  -22.7571  -29.2497   19.8554 H   0  0  0  0  0  0
  -25.1297  -36.1929   25.0821 H   0  0  0  0  0  0
  -20.9983  -28.3269   24.1397 H   0  0  0  0  0  0
  -20.5677  -26.2303   23.3611 H   0  0  0  0  0  0
  -21.6645  -26.7441   22.1202 H   0  0  0  0  0  0
  -19.6914  -25.6294   21.1242 H   0  0  0  0  0  0
  -19.6688  -27.3193   20.6741 H   0  0  0  0  0  0
  -17.4201  -26.6673   21.4029 H   0  0  0  0  0  0
  -18.0335  -26.0070   22.9022 H   0  0  0  0  0  0
  -19.7939  -30.7273   24.2264 H   0  0  0  0  0  0
  -17.5018  -31.6267   24.5164 H   0  0  0  0  0  0
  -15.5355  -30.2987   23.7655 H   0  0  0  0  0  0
  -15.8675  -28.0820   22.7070 H   0  0  0  0  0  0
  -24.5905  -30.7072   25.7776 H   0  0  0  0  0  0
  -24.8913  -32.2895   26.4865 H   0  0  0  0  0  0
  -25.8048  -30.8911   27.0227 H   0  0  0  0  0  0
  -26.2925  -29.6754   24.1213 H   0  0  0  0  0  0
  -27.4030  -29.7267   25.4705 H   0  0  0  0  0  0
  -27.8800  -30.4287   23.9431 H   0  0  0  0  0  0
  -27.2659  -33.3626   26.2070 H   0  0  0  0  0  0
  -28.3866  -32.6886   25.0328 H   0  0  0  0  0  0
  -28.0718  -31.8455   26.5418 H   0  0  0  0  0  0
  -28.2600  -38.0096   24.7508 H   0  0  0  0  0  0
  -28.1072  -36.2626   24.6299 H   0  0  0  0  0  0
  -27.2295  -37.1460   25.8869 H   0  0  0  0  0  0
  -20.9375  -29.8767   21.6878 H   0  0  0  0  0  0
  -26.0173  -38.2850   24.1403 H   0  0  0  0  0  0
  -27.8081  -17.4019   19.2462 H   0  0  0  0  0  0
  -27.5516  -19.8021   19.5291 H   0  0  0  0  0  0
  -31.5329  -17.4989   21.4021 H   0  0  0  0  0  0
  -27.7214  -24.8868   18.9552 H   0  0  0  0  0  0
  -28.8735  -15.3640   18.0047 H   0  0  0  0  0  0
  -30.6288  -15.1467   17.9103 H   0  0  0  0  0  0
  -29.9601  -16.7322   17.8993 H   0  0  0  0  0  0
  -30.0677  -21.9496   21.3877 H   0  0  0  0  0  0
  -29.5197  -23.4258   22.1929 H   0  0  0  0  0  0
  1 25  1  0  0  0
  1 30  2  0  0  0
  1 82  1  0  0  0
  2  3  1  0  0  0
  2 25  1  0  0  0
  2 86  1  0  0  0
  2 87  1  0  0  0
  3  4  1  0  0  0
  3 88  1  0  0  0
  3 89  1  0  0  0
  4  5  1  0  0  0
  4 90  1  0  0  0
  4 91  1  0  0  0
  5  6  1  0  0  0
  5 26  1  0  0  0
  5 92  1  0  0  0
  6 25  1  0  0  0
  6 93  1  0  0  0
  6 94  1  0  0  0
  7  8  2  0  0  0
  7 26  1  0  0  0
  7 29  1  0  0  0
  8  9  1  0  0  0
  8 22  1  0  0  0
  9 10  1  0  0  0
  9 27  2  0  0  0
 10 11  2  0  0  0
 10 15  1  0  0  0
 11 12  1  0  0  0
 11 95  1  0  0  0
 12 13  2  0  0  0
 12 96  1  0  0  0
 13 14  1  0  0  0
 13 31  1  0  0  0
 14 15  2  0  0  0
 14 97  1  0  0  0
 15 98  1  0  0  0
 16 17  2  0  0  0
 16 21  1  0  0  0
 16 31  1  0  0  0
 17 18  1  0  0  0
 17 99  1  0  0  0
 18 19  2  0  0  0
 18100  1  0  0  0
 19 20  1  0  0  0
 19 24  1  0  0  0
 20 21  2  0  0  0
 20101  1  0  0  0
 21 23  1  0  0  0
 22 28  1  0  0  0
 22 32  2  0  0  0
 26 27  1  0  0  0
 28102  1  0  0  0
 28103  1  0  0  0
 29104  1  0  0  0
 29105  1  0  0  0
 33 34  1  0  0  0
 33 66  1  0  0  0
 33 70  2  0  0  0
 34 36  1  0  0  0
 34 59  1  0  0  0
 34106  1  0  0  0
 35 44  2  0  0  0
 35 45  1  0  0  0
 35 68  1  0  0  0
 36 56  1  0  0  0
 36107  1  0  0  0
 37 39  1  0  0  0
 37 47  1  0  0  0
 37 66  1  0  0  0
 37108  1  0  0  0
 38 43  2  0  0  0
 38 46  1  0  0  0
 38 47  1  0  0  0
 39 64  1  0  0  0
 39 67  2  0  0  0
 40 52  1  0  0  0
 40 53  2  0  0  0
 40 58  1  0  0  0
 41109  1  0  0  0
 41110  1  0  0  0
 41111  1  0  0  0
 41 48  1  0  0  0
 42 43  1  0  0  0
 42 66  1  0  0  0
 42112  1  0  0  0
 42113  1  0  0  0
 43 44  1  0  0  0
 44114  1  0  0  0
 45 46  2  0  0  0
 45115  1  0  0  0
 46116  1  0  0  0
 47117  1  0  0  0
 47118  1  0  0  0
 48 56  1  0  0  0
 48 65  1  0  0  0
 48119  1  0  0  0
 49 50  1  0  0  0
 49 53  1  0  0  0
 49 64  1  0  0  0
 49120  1  0  0  0
 50 51  1  0  0  0
 50121  1  0  0  0
 50122  1  0  0  0
 51 52  1  0  0  0
 51123  1  0  0  0
 51124  1  0  0  0
 52125  1  0  0  0
 52126  1  0  0  0
 53 54  1  0  0  0
 54 55  2  0  0  0
 54127  1  0  0  0
 55 57  1  0  0  0
 55128  1  0  0  0
 56 69  2  0  0  0
 57 58  2  0  0  0
 57129  1  0  0  0
 58130  1  0  0  0
 59 60  1  0  0  0
 59 61  1  0  0  0
 59 62  1  0  0  0
 60131  1  0  0  0
 60132  1  0  0  0
 60133  1  0  0  0
 61134  1  0  0  0
 61135  1  0  0  0
 61136  1  0  0  0
 62137  1  0  0  0
 62138  1  0  0  0
 62139  1  0  0  0
 63 65  1  0  0  0
 63140  1  0  0  0
 63141  1  0  0  0
 63142  1  0  0  0
 64143  1  0  0  0
 65144  1  0  0  0
 68 77  1  0  0  0
 71 72  2  0  0  0
 71 74  1  0  0  0
 71145  1  0  0  0
 72 75  1  0  0  0
 72146  1  0  0  0
 73 74  2  0  0  0
 73 76  1  0  0  0
 73147  1  0  0  0
 74 82  1  0  0  0
 75 76  2  0  0  0
 75 81  1  0  0  0
 76 85  1  0  0  0
 77 78  2  0  0  0
 77148  1  0  0  0
 78 79  1  0  0  0
 78 84  1  0  0  0
 79 81  1  0  0  0
 79 83  2  0  0  0
 80 82  1  0  0  0
 80149  1  0  0  0
 80150  1  0  0  0
 80151  1  0  0  0
 81152  1  0  0  0
 84153  1  0  0  0
M  ISO  4   1 100  68 101  77 101  82 100
M  END
> <chiral flag>
0

> <version>
0

> <s_m_source_file>
/data/baiqing/PycharmProjects/Reinvent-master-3.2/result/LINK_invent/BTK/process_docking_weight1_custom_product_contain_oxygen_bond_distance_aromatic_linkinvent_7_9_3/rearranged_h_0090.sdf

> <i_m_source_file_index>
65

> <r_mmod_Potential_Energy-OPLS-2005>
270.553466796875

> <r_mmod_Stretch_Energy-OPLS-2005>
96.3885803222656

> <r_mmod_Bend_Energy-OPLS-2005>
158.628753662109

> <r_mmod_Torsional_Energy-OPLS-2005>
327.462829589844

> <r_mmod_Improper_Torsional_Energy-OPLS-2005>
27.2949199676514

> <r_mmod_Van_der_Waal_Energy-OPLS-2005>
154.091445922852

> <r_mmod_Electrostatic_Energy-OPLS-2005>
-360.157531738281

> <r_mmod_Solvation_Energy-OPLS-2005>
-220.149719238281

> <b_mmod_Minimization_Converged-OPLS-2005>
0

> <r_mmod_RMS_Derivative-OPLS-2005>
0.0814424231648445

$$$$
65
                    3D
 Structure written by MMmdl.
160168  0  0  1  0            999 V2000
  -30.6803  -14.5526   20.5768 C   0  0  0  0  0  0
  -30.4099  -12.3518   19.4589 C   0  0  0  0  0  0
  -29.4734  -12.4661   18.2369 C   0  0  0  0  0  0
  -27.9934  -12.3339   18.6442 C   0  0  0  0  0  0
  -27.6346  -13.1993   19.8796 C   0  0  2  0  0  0
  -28.6812  -13.0711   21.0124 C   0  0  0  0  0  0
  -25.2375  -13.8030   20.5728 C   0  0  0  0  0  0
  -24.1669  -13.0334   20.9262 C   0  0  0  0  0  0
  -24.6206  -11.6788   20.8774 C   0  0  0  0  0  0
  -23.8885  -10.4167   21.0350 C   0  0  0  0  0  0
  -24.3458   -9.4078   21.9105 C   0  0  0  0  0  0
  -23.6140   -8.2129   22.0700 C   0  0  0  0  0  0
  -22.4134   -8.0154   21.3497 C   0  0  0  0  0  0
  -21.9761   -9.0098   20.4569 C   0  0  0  0  0  0
  -22.7061  -10.1984   20.2987 C   0  0  0  0  0  0
  -21.6786   -6.0612   22.5260 C   0  0  0  0  0  0
  -21.3952   -6.5514   23.8207 C   0  0  0  0  0  0
  -21.3724   -5.6673   24.9188 C   0  0  0  0  0  0
  -21.6138   -4.2938   24.7222 C   0  0  0  0  0  0
  -21.8797   -3.8010   23.4310 C   0  0  0  0  0  0
  -21.9141   -4.6840   22.3358 C   0  0  0  0  0  0
  -22.7679  -13.5134   21.1887 C   0  0  0  0  0  0
  -22.1584   -4.2031   21.0938 F   0  0  0  0  0  0
  -21.5737   -3.4444   25.7728 F   0  0  0  0  0  0
  -29.9987  -13.3788   20.4362 N   0  0  0  0  0  0
  -26.2833  -12.9217   20.3486 N   0  0  0  0  0  0
  -25.9165  -11.6397   20.5942 N   0  0  0  0  0  0
  -22.0310  -12.8207   22.0490 N   0  0  0  0  0  0
  -25.3953  -15.1742   20.3901 N   0  0  0  0  0  0
  -31.8465  -14.6785   20.1944 O   0  0  0  0  0  0
  -21.6540   -6.8724   21.4211 O   0  0  0  0  0  0
  -22.3373  -14.5425   20.6624 O   0  0  0  0  0  0
  -24.6200  -31.8576   23.2040 C   0  0  0  0  0  0
  -25.9073  -32.4729   23.8342 C   0  0  1  0  0  0
  -27.2420  -27.3690   20.1130 C   0  0  0  0  0  0
  -25.5936  -33.8555   24.2268 N   0  0  0  0  0  0
  -23.4163  -30.4826   21.5385 C   0  0  2  0  0  0
  -24.8633  -28.9473   20.1018 C   0  0  0  0  0  0
  -22.7421  -29.4647   22.4862 C   0  0  0  0  0  0
  -18.0289  -28.1388   22.8471 C   0  0  0  0  0  0
  -24.1492  -36.7306   23.2649 C   0  0  0  0  0  0
  -25.9543  -30.8018   21.3734 C   0  0  0  0  0  0
  -26.0261  -29.4370   20.7120 C   0  0  0  0  0  0
  -27.2147  -28.6565   20.7098 C   0  0  0  0  0  0
  -26.0613  -26.9336   19.4581 C   0  0  0  0  0  0
  -24.8833  -27.6981   19.4688 C   0  0  0  0  0  0
  -23.6282  -29.8153   20.1558 C   0  0  0  0  0  0
  -25.4105  -36.3065   24.0321 C   0  0  1  0  0  0
  -20.5885  -28.3678   23.1256 C   0  0  2  0  0  0
  -20.6781  -26.9390   22.5384 C   0  0  0  0  0  0
  -19.5753  -26.6387   21.5206 C   0  0  0  0  0  0
  -18.1947  -26.7946   22.1618 C   0  0  0  0  0  0
  -19.1541  -28.8839   23.2891 C   0  0  0  0  0  0
  -18.9485  -30.1458   23.8872 C   0  0  0  0  0  0
  -17.6490  -30.6580   24.0561 C   0  0  0  0  0  0
  -25.9054  -34.9427   23.5090 C   0  0  0  0  0  0
  -16.5380  -29.9067   23.6347 C   0  0  0  0  0  0
  -16.7302  -28.6505   23.0352 C   0  0  0  0  0  0
  -26.4499  -31.6558   25.0716 C   0  0  0  0  0  0
  -25.3849  -31.3679   26.1528 C   0  0  0  0  0  0
  -27.0331  -30.2975   24.6186 C   0  0  0  0  0  0
  -27.5996  -32.4325   25.7528 C   0  0  0  0  0  0
  -27.5571  -37.1791   24.8462 C   0  0  0  0  0  0
  -21.4130  -29.3078   22.3648 N   0  0  0  0  0  0
  -26.4277  -37.3752   23.9406 N   0  0  0  0  0  0
  -24.6797  -31.0691   22.0932 N   0  0  0  0  0  0
  -23.4161  -28.8186   23.2935 O   0  0  0  0  0  0
  -28.3740  -26.5555   20.1874 O   0  0  0  0  0  0
  -26.5602  -34.8866   22.4648 O   0  0  0  0  0  0
  -23.5378  -32.1382   23.7383 O   0  0  0  0  0  0
  -27.1321  -19.1796   22.3109 C   0  0  0  0  0  0
  -27.6610  -20.3566   21.7471 C   0  0  0  0  0  0
  -29.6971  -19.1374   21.2175 C   0  0  0  0  0  0
  -27.8801  -17.9801   22.3648 C   0  0  0  0  0  0
  -29.2012  -17.9370   21.8153 C   0  0  0  0  0  0
  -28.9698  -20.3613   21.2236 C   0  0  0  0  0  0
  -29.1024  -24.1057   20.5068 C   0  0  0  0  0  0
  -27.2255  -16.7758   23.0404 C   0  0  0  0  0  0
  -31.5871  -17.0291   22.2902 C   0  0  0  0  0  0
  -28.8283  -22.6273   20.0892 C   0  0  0  0  0  0
  -28.1939  -25.1544   19.8103 C   0  0  0  0  0  0
  -30.1081  -16.6653   21.9388 C   0  0  2  0  0  0
  -29.5798  -21.5588   20.7823 N   0  0  0  0  0  0
  -29.9407  -15.6661   20.8396 N   0  0  0  0  0  0
  -29.9685  -24.4091   21.3386 O   0  0  0  0  0  0
  -31.4489  -12.4637   19.1426 H   0  0  0  0  0  0
  -30.3520  -11.3564   19.9030 H   0  0  0  0  0  0
  -29.7249  -11.6916   17.5119 H   0  0  0  0  0  0
  -29.6272  -13.4237   17.7443 H   0  0  0  0  0  0
  -27.7909  -11.2811   18.8439 H   0  0  0  0  0  0
  -27.3359  -12.5984   17.8172 H   0  0  0  0  0  0
  -27.6507  -14.2333   19.5408 H   0  0  0  0  0  0
  -28.6938  -12.0675   21.4334 H   0  0  0  0  0  0
  -28.4320  -13.7311   21.8471 H   0  0  0  0  0  0
  -25.2577   -9.5589   22.4712 H   0  0  0  0  0  0
  -23.9866   -7.4477   22.7357 H   0  0  0  0  0  0
  -21.0756   -8.8502   19.8797 H   0  0  0  0  0  0
  -22.3430  -10.9496   19.6101 H   0  0  0  0  0  0
  -21.1876   -7.6000   23.9695 H   0  0  0  0  0  0
  -21.1674   -6.0390   25.9119 H   0  0  0  0  0  0
  -22.0541   -2.7472   23.2819 H   0  0  0  0  0  0
  -22.3911  -12.0022   22.5193 H   0  0  0  0  0  0
  -21.0829  -13.1105   22.2466 H   0  0  0  0  0  0
  -24.6121  -15.8070   20.4988 H   0  0  0  0  0  0
  -26.2454  -15.6221   20.0758 H   0  0  0  0  0  0
  -26.7130  -32.5341   23.1062 H   0  0  0  0  0  0
  -25.0097  -33.9678   25.0431 H   0  0  0  0  0  0
  -22.7150  -31.3059   21.3858 H   0  0  0  0  0  0
  -23.3708  -35.9688   23.3297 H   0  0  0  0  0  0
  -24.3638  -36.8968   22.2090 H   0  0  0  0  0  0
  -23.7283  -37.6517   23.6669 H   0  0  0  0  0  0
  -26.1130  -31.5696   20.6140 H   0  0  0  0  0  0
  -26.8263  -30.8283   22.0151 H   0  0  0  0  0  0
  -28.0989  -29.0356   21.2013 H   0  0  0  0  0  0
  -26.0135  -25.9961   18.9267 H   0  0  0  0  0  0
  -24.0004  -27.3077   18.9821 H   0  0  0  0  0  0
  -23.7316  -30.5888   19.3960 H   0  0  0  0  0  0
  -22.7524  -29.2383   19.8565 H   0  0  0  0  0  0
  -25.1274  -36.1916   25.0811 H   0  0  0  0  0  0
  -21.0037  -28.3278   24.1363 H   0  0  0  0  0  0
  -20.5707  -26.2292   23.3607 H   0  0  0  0  0  0
  -21.6635  -26.7443   22.1149 H   0  0  0  0  0  0
  -19.6905  -25.6311   21.1241 H   0  0  0  0  0  0
  -19.6677  -27.3165   20.6741 H   0  0  0  0  0  0
  -17.4210  -26.6707   21.4048 H   0  0  0  0  0  0
  -18.0300  -26.0113   22.9029 H   0  0  0  0  0  0
  -19.7988  -30.7281   24.2207 H   0  0  0  0  0  0
  -17.5071  -31.6252   24.5158 H   0  0  0  0  0  0
  -15.5389  -30.2960   23.7692 H   0  0  0  0  0  0
  -15.8736  -28.0829   22.7050 H   0  0  0  0  0  0
  -24.5951  -30.7038   25.7997 H   0  0  0  0  0  0
  -24.9097  -32.2835   26.5063 H   0  0  0  0  0  0
  -25.8308  -30.8863   27.0253 H   0  0  0  0  0  0
  -26.2875  -29.6706   24.1273 H   0  0  0  0  0  0
  -27.4111  -29.7222   25.4656 H   0  0  0  0  0  0
  -27.8706  -30.4240   23.9324 H   0  0  0  0  0  0
  -27.2503  -33.3567   26.2123 H   0  0  0  0  0  0
  -28.3814  -32.7023   25.0435 H   0  0  0  0  0  0
  -28.0647  -31.8502   26.5487 H   0  0  0  0  0  0
  -28.2542  -38.0126   24.7511 H   0  0  0  0  0  0
  -28.1100  -36.2653   24.6245 H   0  0  0  0  0  0
  -27.2304  -37.1417   25.8871 H   0  0  0  0  0  0
  -20.9262  -29.8857   21.6921 H   0  0  0  0  0  0
  -26.0147  -38.2808   24.1430 H   0  0  0  0  0  0
  -26.1342  -19.2147   22.7264 H   0  0  0  0  0  0
  -27.0546  -21.2557   21.7651 H   0  0  0  0  0  0
  -30.6731  -19.1390   20.7579 H   0  0  0  0  0  0
  -26.1704  -16.9505   23.2749 H   0  0  0  0  0  0
  -27.7172  -16.5545   23.9881 H   0  0  0  0  0  0
  -27.2740  -15.8818   22.4146 H   0  0  0  0  0  0
  -31.6417  -17.4723   23.2875 H   0  0  0  0  0  0
  -32.0476  -17.7334   21.5981 H   0  0  0  0  0  0
  -32.2513  -16.1653   22.3209 H   0  0  0  0  0  0
  -29.0635  -22.5542   19.0244 H   0  0  0  0  0  0
  -27.7571  -22.4618   20.1424 H   0  0  0  0  0  0
  -27.1888  -24.8078   20.0509 H   0  0  0  0  0  0
  -28.3354  -25.0518   18.7340 H   0  0  0  0  0  0
  -29.7593  -16.1384   22.8308 H   0  0  0  0  0  0
  -30.5717  -21.5194   20.5531 H   0  0  0  0  0  0
  -29.6267  -16.0852   19.9670 H   0  0  0  0  0  0
  1 25  1  0  0  0
  1 30  2  0  0  0
  1 84  1  0  0  0
  2  3  1  0  0  0
  2 25  1  0  0  0
  2 86  1  0  0  0
  2 87  1  0  0  0
  3  4  1  0  0  0
  3 88  1  0  0  0
  3 89  1  0  0  0
  4  5  1  0  0  0
  4 90  1  0  0  0
  4 91  1  0  0  0
  5  6  1  0  0  0
  5 26  1  0  0  0
  5 92  1  0  0  0
  6 25  1  0  0  0
  6 93  1  0  0  0
  6 94  1  0  0  0
  7  8  2  0  0  0
  7 26  1  0  0  0
  7 29  1  0  0  0
  8  9  1  0  0  0
  8 22  1  0  0  0
  9 10  1  0  0  0
  9 27  2  0  0  0
 10 11  2  0  0  0
 10 15  1  0  0  0
 11 12  1  0  0  0
 11 95  1  0  0  0
 12 13  2  0  0  0
 12 96  1  0  0  0
 13 14  1  0  0  0
 13 31  1  0  0  0
 14 15  2  0  0  0
 14 97  1  0  0  0
 15 98  1  0  0  0
 16 17  2  0  0  0
 16 21  1  0  0  0
 16 31  1  0  0  0
 17 18  1  0  0  0
 17 99  1  0  0  0
 18 19  2  0  0  0
 18100  1  0  0  0
 19 20  1  0  0  0
 19 24  1  0  0  0
 20 21  2  0  0  0
 20101  1  0  0  0
 21 23  1  0  0  0
 22 28  1  0  0  0
 22 32  2  0  0  0
 26 27  1  0  0  0
 28102  1  0  0  0
 28103  1  0  0  0
 29104  1  0  0  0
 29105  1  0  0  0
 33 34  1  0  0  0
 33 66  1  0  0  0
 33 70  2  0  0  0
 34 36  1  0  0  0
 34 59  1  0  0  0
 34106  1  0  0  0
 35 44  2  0  0  0
 35 45  1  0  0  0
 35 68  1  0  0  0
 36 56  1  0  0  0
 36107  1  0  0  0
 37 39  1  0  0  0
 37 47  1  0  0  0
 37 66  1  0  0  0
 37108  1  0  0  0
 38 43  2  0  0  0
 38 46  1  0  0  0
 38 47  1  0  0  0
 39 64  1  0  0  0
 39 67  2  0  0  0
 40 52  1  0  0  0
 40 53  2  0  0  0
 40 58  1  0  0  0
 41109  1  0  0  0
 41110  1  0  0  0
 41111  1  0  0  0
 41 48  1  0  0  0
 42 43  1  0  0  0
 42 66  1  0  0  0
 42112  1  0  0  0
 42113  1  0  0  0
 43 44  1  0  0  0
 44114  1  0  0  0
 45 46  2  0  0  0
 45115  1  0  0  0
 46116  1  0  0  0
 47117  1  0  0  0
 47118  1  0  0  0
 48 56  1  0  0  0
 48 65  1  0  0  0
 48119  1  0  0  0
 49 50  1  0  0  0
 49 53  1  0  0  0
 49 64  1  0  0  0
 49120  1  0  0  0
 50 51  1  0  0  0
 50121  1  0  0  0
 50122  1  0  0  0
 51 52  1  0  0  0
 51123  1  0  0  0
 51124  1  0  0  0
 52125  1  0  0  0
 52126  1  0  0  0
 53 54  1  0  0  0
 54 55  2  0  0  0
 54127  1  0  0  0
 55 57  1  0  0  0
 55128  1  0  0  0
 56 69  2  0  0  0
 57 58  2  0  0  0
 57129  1  0  0  0
 58130  1  0  0  0
 59 60  1  0  0  0
 59 61  1  0  0  0
 59 62  1  0  0  0
 60131  1  0  0  0
 60132  1  0  0  0
 60133  1  0  0  0
 61134  1  0  0  0
 61135  1  0  0  0
 61136  1  0  0  0
 62137  1  0  0  0
 62138  1  0  0  0
 62139  1  0  0  0
 63 65  1  0  0  0
 63140  1  0  0  0
 63141  1  0  0  0
 63142  1  0  0  0
 64143  1  0  0  0
 65144  1  0  0  0
 68 81  1  0  0  0
 71 72  2  0  0  0
 71 74  1  0  0  0
 71145  1  0  0  0
 72 76  1  0  0  0
 72146  1  0  0  0
 73 75  1  0  0  0
 73 76  2  0  0  0
 73147  1  0  0  0
 74 75  2  0  0  0
 74 78  1  0  0  0
 75 82  1  0  0  0
 76 83  1  0  0  0
 77 80  1  0  0  0
 77 81  1  0  0  0
 77 85  2  0  0  0
 78148  1  0  0  0
 78149  1  0  0  0
 78150  1  0  0  0
 79151  1  0  0  0
 79152  1  0  0  0
 79153  1  0  0  0
 79 82  1  0  0  0
 80 83  1  0  0  0
 80154  1  0  0  0
 80155  1  0  0  0
 81156  1  0  0  0
 81157  1  0  0  0
 82 84  1  0  0  0
 82158  1  0  0  0
 83159  1  0  0  0
 84160  1  0  0  0
M  ISO  4   1 100  68 101  81 101  84 100
M  END
> <chiral flag>
0

> <version>
0

> <s_m_source_file>
/data/baiqing/PycharmProjects/Reinvent-master-3.2/result/LINK_invent/BTK/process_docking_weight1_custom_product_contain_oxygen_bond_distance_aromatic_linkinvent_7_9_3/rearranged_h_0090.sdf

> <i_m_source_file_index>
66

> <r_mmod_Potential_Energy-OPLS-2005>
46.6618995666504

> <r_mmod_Stretch_Energy-OPLS-2005>
59.1606750488281

> <r_mmod_Bend_Energy-OPLS-2005>
135.214874267578

> <r_mmod_Torsional_Energy-OPLS-2005>
272.210601806641

> <r_mmod_Improper_Torsional_Energy-OPLS-2005>
12.8879947662354

> <r_mmod_Van_der_Waal_Energy-OPLS-2005>
147.982284545898

> <r_mmod_Electrostatic_Energy-OPLS-2005>
-372.067687988281

> <r_mmod_Solvation_Energy-OPLS-2005>
-242.491653442383

> <b_mmod_Minimization_Converged-OPLS-2005>
0

> <r_mmod_RMS_Derivative-OPLS-2005>
7.86328268051147

$$$$
66
                    3D
 Structure written by MMmdl.
164173  0  0  1  0            999 V2000
  -30.5802  -14.6500   20.4988 C   0  0  0  0  0  0
  -30.4459  -12.3915   19.4624 C   0  0  0  0  0  0
  -29.5173  -12.4962   18.2296 C   0  0  0  0  0  0
  -28.0374  -12.3301   18.6356 C   0  0  0  0  0  0
  -27.6533  -13.2023   19.8604 C   0  0  2  0  0  0
  -28.6929  -13.0359   20.9921 C   0  0  0  0  0  0
  -25.2584  -13.8140   20.5648 C   0  0  0  0  0  0
  -24.1832  -13.0436   20.9188 C   0  0  0  0  0  0
  -24.6362  -11.6895   20.8714 C   0  0  0  0  0  0
  -23.9017  -10.4296   21.0384 C   0  0  0  0  0  0
  -24.3578   -9.4213   21.9162 C   0  0  0  0  0  0
  -23.6263   -8.2253   22.0747 C   0  0  0  0  0  0
  -22.4249   -8.0288   21.3548 C   0  0  0  0  0  0
  -21.9870   -9.0251   20.4646 C   0  0  0  0  0  0
  -22.7189  -10.2131   20.3047 C   0  0  0  0  0  0
  -21.6853   -6.0725   22.5267 C   0  0  0  0  0  0
  -21.4014   -6.5623   23.8203 C   0  0  0  0  0  0
  -21.3659   -5.6777   24.9164 C   0  0  0  0  0  0
  -21.6043   -4.3038   24.7212 C   0  0  0  0  0  0
  -21.8826   -3.8133   23.4336 C   0  0  0  0  0  0
  -21.9193   -4.6952   22.3392 C   0  0  0  0  0  0
  -22.7868  -13.5267   21.1850 C   0  0  0  0  0  0
  -22.1662   -4.2141   21.0967 F   0  0  0  0  0  0
  -21.5626   -3.4517   25.7723 F   0  0  0  0  0  0
  -30.0075  -13.4048   20.4419 N   0  0  0  0  0  0
  -26.2969  -12.9275   20.3247 N   0  0  0  0  0  0
  -25.9282  -11.6457   20.5700 N   0  0  0  0  0  0
  -22.0486  -12.8289   22.0396 N   0  0  0  0  0  0
  -25.4366  -15.1851   20.4060 N   0  0  0  0  0  0
  -31.7345  -14.8332   20.1017 O   0  0  0  0  0  0
  -21.6643   -6.8867   21.4231 O   0  0  0  0  0  0
  -22.3565  -14.5569   20.6660 O   0  0  0  0  0  0
  -24.6277  -31.8573   23.2005 C   0  0  0  0  0  0
  -25.9126  -32.4755   23.8327 C   0  0  1  0  0  0
  -27.2234  -27.3066   20.1076 C   0  0  0  0  0  0
  -25.5936  -33.8557   24.2262 N   0  0  0  0  0  0
  -23.4217  -30.4808   21.5433 C   0  0  2  0  0  0
  -24.8680  -28.9364   20.1059 C   0  0  0  0  0  0
  -22.7470  -29.4620   22.4923 C   0  0  0  0  0  0
  -18.0292  -28.1388   22.8494 C   0  0  0  0  0  0
  -24.1492  -36.7282   23.2633 C   0  0  0  0  0  0
  -25.9633  -30.7825   21.3751 C   0  0  0  0  0  0
  -26.0350  -29.4086   20.7176 C   0  0  0  0  0  0
  -27.2107  -28.6004   20.7204 C   0  0  0  0  0  0
  -26.0344  -26.8923   19.4762 C   0  0  0  0  0  0
  -24.8687  -27.6802   19.4810 C   0  0  0  0  0  0
  -23.6359  -29.8153   20.1578 C   0  0  0  0  0  0
  -25.4114  -36.3065   24.0324 C   0  0  1  0  0  0
  -20.5887  -28.3700   23.1277 C   0  0  2  0  0  0
  -20.6783  -26.9421   22.5406 C   0  0  0  0  0  0
  -19.5757  -26.6391   21.5212 C   0  0  0  0  0  0
  -18.1939  -26.7939   22.1620 C   0  0  0  0  0  0
  -19.1541  -28.8860   23.2881 C   0  0  0  0  0  0
  -18.9468  -30.1464   23.8903 C   0  0  0  0  0  0
  -17.6467  -30.6592   24.0573 C   0  0  0  0  0  0
  -25.9055  -34.9435   23.5092 C   0  0  0  0  0  0
  -16.5357  -29.9095   23.6337 C   0  0  0  0  0  0
  -16.7276  -28.6506   23.0363 C   0  0  0  0  0  0
  -26.4510  -31.6574   25.0704 C   0  0  0  0  0  0
  -25.3758  -31.3732   26.1439 C   0  0  0  0  0  0
  -27.0355  -30.2996   24.6171 C   0  0  0  0  0  0
  -27.6072  -32.4310   25.7462 C   0  0  0  0  0  0
  -27.5580  -37.1785   24.8458 C   0  0  0  0  0  0
  -21.4180  -29.3047   22.3660 N   0  0  0  0  0  0
  -26.4286  -37.3766   23.9406 N   0  0  0  0  0  0
  -24.6896  -31.0568   22.0967 N   0  0  0  0  0  0
  -23.4180  -28.8157   23.3018 O   0  0  0  0  0  0
  -28.3297  -26.4481   20.2189 O   0  0  0  0  0  0
  -26.5626  -34.8913   22.4659 O   0  0  0  0  0  0
  -23.5439  -32.1380   23.7327 O   0  0  0  0  0  0
  -28.3356  -17.6716   21.0131 C   0  0  0  0  0  0
  -30.2199  -19.4082   19.9462 C   0  0  0  0  0  0
  -28.0017  -19.0406   20.7948 C   0  0  0  0  0  0
  -28.9355  -19.9606   20.2248 C   0  0  0  0  0  0
  -29.5920  -17.1019   20.6797 C   0  0  0  0  0  0
  -30.5495  -18.0260   20.1614 C   0  0  0  0  0  0
  -26.9877  -23.5331   18.6981 C   0  0  0  0  0  0
  -28.0416  -23.8456   19.4856 C   0  0  0  0  0  0
  -26.5422  -22.1554   18.5269 C   0  0  0  0  0  0
  -27.6392  -21.1001   18.5719 C   0  0  0  0  0  0
  -28.7948  -22.6573   20.2528 C   0  0  2  0  0  0
  -26.5774  -19.4615   21.1298 C   0  0  0  0  0  0
  -30.3037  -22.9023   20.4032 C   0  0  0  0  0  0
  -28.6156  -25.3177   19.3050 C   0  0  0  0  0  0
  -28.5280  -21.2557   19.7263 N   0  0  0  0  0  0
  -31.8312  -17.5906   19.8358 N   0  0  0  0  0  0
  -29.7339  -15.6534   20.9059 N   0  0  0  0  0  0
  -25.3694  -21.8376   18.3202 O   0  0  0  0  0  0
  -31.4877  -12.5264   19.1666 H   0  0  0  0  0  0
  -30.3904  -11.3946   19.9025 H   0  0  0  0  0  0
  -29.7850  -11.7404   17.4920 H   0  0  0  0  0  0
  -29.6625  -13.4625   17.7422 H   0  0  0  0  0  0
  -27.8777  -11.2749   18.8680 H   0  0  0  0  0  0
  -27.3897  -12.5514   17.7870 H   0  0  0  0  0  0
  -27.6764  -14.2382   19.5222 H   0  0  0  0  0  0
  -28.7083  -11.9984   21.3320 H   0  0  0  0  0  0
  -28.4292  -13.6270   21.8690 H   0  0  0  0  0  0
  -25.2726   -9.5685   22.4725 H   0  0  0  0  0  0
  -23.9980   -7.4643   22.7457 H   0  0  0  0  0  0
  -21.0809   -8.8746   19.8951 H   0  0  0  0  0  0
  -22.3631  -10.9662   19.6146 H   0  0  0  0  0  0
  -21.2008   -7.6131   23.9699 H   0  0  0  0  0  0
  -21.1472   -6.0508   25.9064 H   0  0  0  0  0  0
  -22.0603   -2.7594   23.2841 H   0  0  0  0  0  0
  -22.4093  -11.9959   22.4832 H   0  0  0  0  0  0
  -21.1086  -13.1313   22.2557 H   0  0  0  0  0  0
  -24.6660  -15.8365   20.5104 H   0  0  0  0  0  0
  -26.2609  -15.6046   19.9970 H   0  0  0  0  0  0
  -26.7186  -32.5429   23.1068 H   0  0  0  0  0  0
  -25.0114  -33.9696   25.0427 H   0  0  0  0  0  0
  -22.7188  -31.3035   21.3980 H   0  0  0  0  0  0
  -23.3749  -35.9619   23.3285 H   0  0  0  0  0  0
  -24.3587  -36.8913   22.2051 H   0  0  0  0  0  0
  -23.7253  -37.6480   23.6667 H   0  0  0  0  0  0
  -26.0964  -31.5447   20.6059 H   0  0  0  0  0  0
  -26.8435  -30.8309   22.0042 H   0  0  0  0  0  0
  -28.1008  -28.9499   21.2249 H   0  0  0  0  0  0
  -25.9604  -25.9292   19.0151 H   0  0  0  0  0  0
  -23.9716  -27.3050   19.0086 H   0  0  0  0  0  0
  -23.7521  -30.5906   19.3998 H   0  0  0  0  0  0
  -22.7566  -29.2432   19.8562 H   0  0  0  0  0  0
  -25.1289  -36.1912   25.0814 H   0  0  0  0  0  0
  -20.9986  -28.3290   24.1396 H   0  0  0  0  0  0
  -20.5698  -26.2309   23.3607 H   0  0  0  0  0  0
  -21.6653  -26.7468   22.1191 H   0  0  0  0  0  0
  -19.6923  -25.6307   21.1236 H   0  0  0  0  0  0
  -19.6693  -27.3208   20.6748 H   0  0  0  0  0  0
  -17.4207  -26.6707   21.4018 H   0  0  0  0  0  0
  -18.0324  -26.0072   22.9001 H   0  0  0  0  0  0
  -19.7941  -30.7282   24.2266 H   0  0  0  0  0  0
  -17.5022  -31.6273   24.5166 H   0  0  0  0  0  0
  -15.5359  -30.2997   23.7656 H   0  0  0  0  0  0
  -15.8677  -28.0824   22.7085 H   0  0  0  0  0  0
  -24.5906  -30.7102   25.7776 H   0  0  0  0  0  0
  -24.8999  -32.2923   26.4871 H   0  0  0  0  0  0
  -25.8097  -30.8892   27.0201 H   0  0  0  0  0  0
  -26.2932  -29.6722   24.1224 H   0  0  0  0  0  0
  -27.4079  -29.7266   25.4672 H   0  0  0  0  0  0
  -27.8786  -30.4260   23.9379 H   0  0  0  0  0  0
  -27.2678  -33.3598   26.2048 H   0  0  0  0  0  0
  -28.3870  -32.6879   25.0285 H   0  0  0  0  0  0
  -28.0748  -31.8436   26.5371 H   0  0  0  0  0  0
  -28.2586  -38.0092   24.7511 H   0  0  0  0  0  0
  -28.1084  -36.2627   24.6261 H   0  0  0  0  0  0
  -27.2305  -37.1405   25.8862 H   0  0  0  0  0  0
  -20.9358  -29.8764   21.6864 H   0  0  0  0  0  0
  -26.0162  -38.2829   24.1430 H   0  0  0  0  0  0
  -27.5721  -17.0250   21.4246 H   0  0  0  0  0  0
  -30.9608  -20.0572   19.5015 H   0  0  0  0  0  0
  -26.5152  -24.2545   18.0532 H   0  0  0  0  0  0
  -28.2344  -21.1924   17.6624 H   0  0  0  0  0  0
  -27.1746  -20.1138   18.5396 H   0  0  0  0  0  0
  -28.3808  -22.6769   21.2624 H   0  0  0  0  0  0
  -26.2309  -18.9691   22.0380 H   0  0  0  0  0  0
  -25.9014  -19.1761   20.3233 H   0  0  0  0  0  0
  -26.4902  -20.5369   21.2816 H   0  0  0  0  0  0
  -30.8151  -22.9207   19.4403 H   0  0  0  0  0  0
  -30.7726  -22.1335   21.0177 H   0  0  0  0  0  0
  -30.4959  -23.8521   20.9051 H   0  0  0  0  0  0
  -28.3303  -25.6566   18.3073 H   0  0  0  0  0  0
  -29.6994  -25.2392   19.2345 H   0  0  0  0  0  0
  -32.3186  -18.0653   19.0847 H   0  0  0  0  0  0
  -31.9569  -16.5732   19.8141 H   0  0  0  0  0  0
  -28.8919  -15.2427   21.2774 H   0  0  0  0  0  0
  1 25  1  0  0  0
  1 30  2  0  0  0
  1 87  1  0  0  0
  2  3  1  0  0  0
  2 25  1  0  0  0
  2 89  1  0  0  0
  2 90  1  0  0  0
  3  4  1  0  0  0
  3 91  1  0  0  0
  3 92  1  0  0  0
  4  5  1  0  0  0
  4 93  1  0  0  0
  4 94  1  0  0  0
  5  6  1  0  0  0
  5 26  1  0  0  0
  5 95  1  0  0  0
  6 25  1  0  0  0
  6 96  1  0  0  0
  6 97  1  0  0  0
  7  8  2  0  0  0
  7 26  1  0  0  0
  7 29  1  0  0  0
  8  9  1  0  0  0
  8 22  1  0  0  0
  9 10  1  0  0  0
  9 27  2  0  0  0
 10 11  2  0  0  0
 10 15  1  0  0  0
 11 12  1  0  0  0
 11 98  1  0  0  0
 12 13  2  0  0  0
 12 99  1  0  0  0
 13 14  1  0  0  0
 13 31  1  0  0  0
 14 15  2  0  0  0
 14100  1  0  0  0
 15101  1  0  0  0
 16 17  2  0  0  0
 16 21  1  0  0  0
 16 31  1  0  0  0
 17 18  1  0  0  0
 17102  1  0  0  0
 18 19  2  0  0  0
 18103  1  0  0  0
 19 20  1  0  0  0
 19 24  1  0  0  0
 20 21  2  0  0  0
 20104  1  0  0  0
 21 23  1  0  0  0
 22 28  1  0  0  0
 22 32  2  0  0  0
 26 27  1  0  0  0
 28105  1  0  0  0
 28106  1  0  0  0
 29107  1  0  0  0
 29108  1  0  0  0
 33 34  1  0  0  0
 33 66  1  0  0  0
 33 70  2  0  0  0
 34 36  1  0  0  0
 34 59  1  0  0  0
 34109  1  0  0  0
 35 44  2  0  0  0
 35 45  1  0  0  0
 35 68  1  0  0  0
 36 56  1  0  0  0
 36110  1  0  0  0
 37 39  1  0  0  0
 37 47  1  0  0  0
 37 66  1  0  0  0
 37111  1  0  0  0
 38 43  2  0  0  0
 38 46  1  0  0  0
 38 47  1  0  0  0
 39 64  1  0  0  0
 39 67  2  0  0  0
 40 52  1  0  0  0
 40 53  2  0  0  0
 40 58  1  0  0  0
 41112  1  0  0  0
 41113  1  0  0  0
 41114  1  0  0  0
 41 48  1  0  0  0
 42 43  1  0  0  0
 42 66  1  0  0  0
 42115  1  0  0  0
 42116  1  0  0  0
 43 44  1  0  0  0
 44117  1  0  0  0
 45 46  2  0  0  0
 45118  1  0  0  0
 46119  1  0  0  0
 47120  1  0  0  0
 47121  1  0  0  0
 48 56  1  0  0  0
 48 65  1  0  0  0
 48122  1  0  0  0
 49 50  1  0  0  0
 49 53  1  0  0  0
 49 64  1  0  0  0
 49123  1  0  0  0
 50 51  1  0  0  0
 50124  1  0  0  0
 50125  1  0  0  0
 51 52  1  0  0  0
 51126  1  0  0  0
 51127  1  0  0  0
 52128  1  0  0  0
 52129  1  0  0  0
 53 54  1  0  0  0
 54 55  2  0  0  0
 54130  1  0  0  0
 55 57  1  0  0  0
 55131  1  0  0  0
 56 69  2  0  0  0
 57 58  2  0  0  0
 57132  1  0  0  0
 58133  1  0  0  0
 59 60  1  0  0  0
 59 61  1  0  0  0
 59 62  1  0  0  0
 60134  1  0  0  0
 60135  1  0  0  0
 60136  1  0  0  0
 61137  1  0  0  0
 61138  1  0  0  0
 61139  1  0  0  0
 62140  1  0  0  0
 62141  1  0  0  0
 62142  1  0  0  0
 63 65  1  0  0  0
 63143  1  0  0  0
 63144  1  0  0  0
 63145  1  0  0  0
 64146  1  0  0  0
 65147  1  0  0  0
 68 84  1  0  0  0
 71 73  2  0  0  0
 71 75  1  0  0  0
 71148  1  0  0  0
 72 74  2  0  0  0
 72 76  1  0  0  0
 72149  1  0  0  0
 73 74  1  0  0  0
 73 82  1  0  0  0
 74 85  1  0  0  0
 75 76  2  0  0  0
 75 87  1  0  0  0
 76 86  1  0  0  0
 77 78  2  0  0  0
 77 79  1  0  0  0
 77150  1  0  0  0
 78 81  1  0  0  0
 78 84  1  0  0  0
 79 80  1  0  0  0
 79 88  2  0  0  0
 80 85  1  0  0  0
 80151  1  0  0  0
 80152  1  0  0  0
 81 83  1  0  0  0
 81 85  1  0  0  0
 81153  1  0  0  0
 82154  1  0  0  0
 82155  1  0  0  0
 82156  1  0  0  0
 83157  1  0  0  0
 83158  1  0  0  0
 83159  1  0  0  0
 84160  1  0  0  0
 84161  1  0  0  0
 86162  1  0  0  0
 86163  1  0  0  0
 87164  1  0  0  0
M  ISO  4   1 100  68 101  84 101  87 100
M  END
> <chiral flag>
0

> <version>
0

> <s_m_source_file>
/data/baiqing/PycharmProjects/Reinvent-master-3.2/result/LINK_invent/BTK/process_docking_weight1_custom_product_contain_oxygen_bond_distance_aromatic_linkinvent_7_9_3/rearranged_h_0090.sdf

> <i_m_source_file_index>
67

> <r_mmod_Potential_Energy-OPLS-2005>
100.717903137207

> <r_mmod_Stretch_Energy-OPLS-2005>
99.9349212646484

> <r_mmod_Bend_Energy-OPLS-2005>
215.982604980469

> <r_mmod_Torsional_Energy-OPLS-2005>
265.349609375

> <r_mmod_Improper_Torsional_Energy-OPLS-2005>
10.8767166137695

> <r_mmod_Van_der_Waal_Energy-OPLS-2005>
157.240509033203

> <r_mmod_Electrostatic_Energy-OPLS-2005>
-481.396423339844

> <r_mmod_Solvation_Energy-OPLS-2005>
-223.443756103516

> <b_mmod_Minimization_Converged-OPLS-2005>
0

> <r_mmod_RMS_Derivative-OPLS-2005>
3.11567568778992

$$$$
67
                    3D
 Structure written by MMmdl.
156165  0  0  1  0            999 V2000
  -30.6793  -14.5140   20.5396 C   0  0  0  0  0  0
  -30.4284  -12.3255   19.4267 C   0  0  0  0  0  0
  -29.4975  -12.5093   18.2096 C   0  0  0  0  0  0
  -28.0191  -12.3645   18.6229 C   0  0  0  0  0  0
  -27.6607  -13.2107   19.8747 C   0  0  2  0  0  0
  -28.7045  -13.0059   20.9958 C   0  0  0  0  0  0
  -25.2575  -13.8157   20.5684 C   0  0  0  0  0  0
  -24.1824  -13.0426   20.9148 C   0  0  0  0  0  0
  -24.6393  -11.6900   20.8711 C   0  0  0  0  0  0
  -23.9060  -10.4286   21.0388 C   0  0  0  0  0  0
  -24.3615   -9.4202   21.9167 C   0  0  0  0  0  0
  -23.6293   -8.2237   22.0749 C   0  0  0  0  0  0
  -22.4270   -8.0279   21.3545 C   0  0  0  0  0  0
  -21.9900   -9.0251   20.4650 C   0  0  0  0  0  0
  -22.7229  -10.2129   20.3047 C   0  0  0  0  0  0
  -21.6852   -6.0731   22.5279 C   0  0  0  0  0  0
  -21.4014   -6.5634   23.8213 C   0  0  0  0  0  0
  -21.3660   -5.6784   24.9177 C   0  0  0  0  0  0
  -21.6044   -4.3050   24.7226 C   0  0  0  0  0  0
  -21.8820   -3.8144   23.4344 C   0  0  0  0  0  0
  -21.9195   -4.6958   22.3401 C   0  0  0  0  0  0
  -22.7852  -13.5229   21.1833 C   0  0  0  0  0  0
  -22.1667   -4.2148   21.0979 F   0  0  0  0  0  0
  -21.5627   -3.4530   25.7733 F   0  0  0  0  0  0
  -30.0343  -13.3172   20.4415 N   0  0  0  0  0  0
  -26.3027  -12.9343   20.3380 N   0  0  0  0  0  0
  -25.9327  -11.6494   20.5760 N   0  0  0  0  0  0
  -22.0494  -12.8231   22.0402 N   0  0  0  0  0  0
  -25.4255  -15.1881   20.4178 N   0  0  0  0  0  0
  -31.8218  -14.6832   20.1055 O   0  0  0  0  0  0
  -21.6639   -6.8875   21.4241 O   0  0  0  0  0  0
  -22.3534  -14.5541   20.6696 O   0  0  0  0  0  0
  -24.6168  -31.8653   23.2085 C   0  0  0  0  0  0
  -25.9061  -32.4798   23.8389 C   0  0  1  0  0  0
  -27.2378  -27.4236   20.0978 C   0  0  0  0  0  0
  -25.5923  -33.8598   24.2321 N   0  0  0  0  0  0
  -23.4073  -30.4885   21.5464 C   0  0  2  0  0  0
  -24.8588  -28.9545   20.1102 C   0  0  0  0  0  0
  -22.7431  -29.4647   22.4953 C   0  0  0  0  0  0
  -18.0269  -28.1390   22.8469 C   0  0  0  0  0  0
  -24.1495  -36.7306   23.2638 C   0  0  0  0  0  0
  -25.9385  -30.8282   21.3653 C   0  0  0  0  0  0
  -26.0195  -29.4631   20.7087 C   0  0  0  0  0  0
  -27.2163  -28.7050   20.6998 C   0  0  0  0  0  0
  -26.0643  -26.9330   19.4925 C   0  0  0  0  0  0
  -24.8767  -27.6894   19.4965 C   0  0  0  0  0  0
  -23.6191  -29.8204   20.1610 C   0  0  0  0  0  0
  -25.4112  -36.3092   24.0341 C   0  0  1  0  0  0
  -20.5864  -28.3677   23.1306 C   0  0  2  0  0  0
  -20.6754  -26.9406   22.5427 C   0  0  0  0  0  0
  -19.5754  -26.6389   21.5203 C   0  0  0  0  0  0
  -18.1922  -26.7940   22.1594 C   0  0  0  0  0  0
  -19.1520  -28.8848   23.2883 C   0  0  0  0  0  0
  -18.9447  -30.1447   23.8903 C   0  0  0  0  0  0
  -17.6452  -30.6586   24.0561 C   0  0  0  0  0  0
  -25.9039  -34.9457   23.5120 C   0  0  0  0  0  0
  -16.5339  -29.9086   23.6332 C   0  0  0  0  0  0
  -16.7258  -28.6510   23.0339 C   0  0  0  0  0  0
  -26.4487  -31.6583   25.0723 C   0  0  0  0  0  0
  -25.3769  -31.3764   26.1506 C   0  0  0  0  0  0
  -27.0259  -30.2982   24.6144 C   0  0  0  0  0  0
  -27.6106  -32.4278   25.7445 C   0  0  0  0  0  0
  -27.5589  -37.1802   24.8462 C   0  0  0  0  0  0
  -21.4154  -29.3033   22.3700 N   0  0  0  0  0  0
  -26.4297  -37.3778   23.9409 N   0  0  0  0  0  0
  -24.6718  -31.0757   22.0977 N   0  0  0  0  0  0
  -23.4192  -28.8190   23.3005 O   0  0  0  0  0  0
  -28.3484  -26.6061   20.1284 O   0  0  0  0  0  0
  -26.5581  -34.8917   22.4671 O   0  0  0  0  0  0
  -23.5357  -32.1403   23.7477 O   0  0  0  0  0  0
  -31.2272  -19.0201   20.2071 C   0  0  0  0  0  0
  -31.2369  -17.6348   20.5031 C   0  0  0  0  0  0
  -28.8176  -19.0710   20.4427 C   0  0  0  0  0  0
  -30.0211  -19.7645   20.1697 C   0  0  0  0  0  0
  -30.0264  -16.9404   20.7455 C   0  0  0  0  0  0
  -28.8244  -17.6839   20.7276 C   0  0  0  0  0  0
  -28.7531  -24.3975   21.1203 C   0  0  0  0  0  0
  -28.3389  -25.6885   21.1590 C   0  0  0  0  0  0
  -30.0328  -21.2120   19.6973 C   0  0  0  0  0  0
  -28.6614  -23.4702   22.3039 C   0  0  0  0  0  0
  -29.3225  -23.6023   19.9591 C   0  0  0  0  0  0
  -28.8237  -22.0503   21.7417 C   0  0  0  0  0  0
  -29.3900  -22.1883   20.3985 N   0  0  0  0  0  0
  -29.9281  -15.5312   21.0156 N   0  0  0  0  0  0
  -30.6534  -21.4733   18.6627 O   0  0  0  0  0  0
  -27.6528  -17.0416   20.9518 F   0  0  0  0  0  0
  -31.4719  -12.4317   19.1223 H   0  0  0  0  0  0
  -30.3371  -11.3166   19.8316 H   0  0  0  0  0  0
  -29.7410  -11.7818   17.4338 H   0  0  0  0  0  0
  -29.6590  -13.4935   17.7662 H   0  0  0  0  0  0
  -27.8360  -11.3085   18.8248 H   0  0  0  0  0  0
  -27.3665  -12.6303   17.7911 H   0  0  0  0  0  0
  -27.6976  -14.2565   19.5687 H   0  0  0  0  0  0
  -28.6872  -11.9734   21.3475 H   0  0  0  0  0  0
  -28.4633  -13.6154   21.8681 H   0  0  0  0  0  0
  -25.2763   -9.5685   22.4731 H   0  0  0  0  0  0
  -24.0007   -7.4627   22.7466 H   0  0  0  0  0  0
  -21.0824   -8.8775   19.8964 H   0  0  0  0  0  0
  -22.3682  -10.9666   19.6159 H   0  0  0  0  0  0
  -21.2003   -7.6140   23.9720 H   0  0  0  0  0  0
  -21.1482   -6.0512   25.9084 H   0  0  0  0  0  0
  -22.0595   -2.7606   23.2839 H   0  0  0  0  0  0
  -22.4109  -11.9890   22.4784 H   0  0  0  0  0  0
  -21.1126  -13.1286   22.2626 H   0  0  0  0  0  0
  -24.6638  -15.8383   20.5718 H   0  0  0  0  0  0
  -26.3093  -15.6565   20.2492 H   0  0  0  0  0  0
  -26.7132  -32.5516   23.1154 H   0  0  0  0  0  0
  -25.0127  -33.9757   25.0503 H   0  0  0  0  0  0
  -22.6963  -31.3052   21.4051 H   0  0  0  0  0  0
  -23.3758  -35.9637   23.3268 H   0  0  0  0  0  0
  -24.3601  -36.8948   22.2060 H   0  0  0  0  0  0
  -23.7243  -37.6505   23.6664 H   0  0  0  0  0  0
  -26.0590  -31.5977   20.6012 H   0  0  0  0  0  0
  -26.8224  -30.8752   21.9897 H   0  0  0  0  0  0
  -28.1108  -29.0866   21.1722 H   0  0  0  0  0  0
  -26.0698  -25.9531   19.0363 H   0  0  0  0  0  0
  -23.9846  -27.2908   19.0336 H   0  0  0  0  0  0
  -23.7269  -30.5943   19.4000 H   0  0  0  0  0  0
  -22.7450  -29.2383   19.8642 H   0  0  0  0  0  0
  -25.1288  -36.1949   25.0834 H   0  0  0  0  0  0
  -20.9958  -28.3250   24.1427 H   0  0  0  0  0  0
  -20.5632  -26.2287   23.3616 H   0  0  0  0  0  0
  -21.6633  -26.7430   22.1247 H   0  0  0  0  0  0
  -19.6921  -25.6301   21.1233 H   0  0  0  0  0  0
  -19.6727  -27.3193   20.6731 H   0  0  0  0  0  0
  -17.4213  -26.6694   21.3973 H   0  0  0  0  0  0
  -18.0308  -26.0079   22.8985 H   0  0  0  0  0  0
  -19.7924  -30.7244   24.2295 H   0  0  0  0  0  0
  -17.5011  -31.6269   24.5157 H   0  0  0  0  0  0
  -15.5341  -30.2984   23.7669 H   0  0  0  0  0  0
  -15.8657  -28.0835   22.7046 H   0  0  0  0  0  0
  -24.5923  -30.7101   25.7900 H   0  0  0  0  0  0
  -24.8987  -32.2950   26.4916 H   0  0  0  0  0  0
  -25.8144  -30.8989   27.0282 H   0  0  0  0  0  0
  -26.2769  -29.6763   24.1225 H   0  0  0  0  0  0
  -27.3980  -29.7225   25.4629 H   0  0  0  0  0  0
  -27.8654  -30.4205   23.9296 H   0  0  0  0  0  0
  -27.2786  -33.3627   26.1970 H   0  0  0  0  0  0
  -28.3933  -32.6739   25.0256 H   0  0  0  0  0  0
  -28.0740  -31.8416   26.5391 H   0  0  0  0  0  0
  -28.2630  -38.0073   24.7454 H   0  0  0  0  0  0
  -28.1052  -36.2601   24.6323 H   0  0  0  0  0  0
  -27.2317  -37.1516   25.8870 H   0  0  0  0  0  0
  -20.9322  -29.8751   21.6913 H   0  0  0  0  0  0
  -26.0184  -38.2861   24.1394 H   0  0  0  0  0  0
  -32.1633  -19.5143   19.9844 H   0  0  0  0  0  0
  -32.1847  -17.1163   20.5217 H   0  0  0  0  0  0
  -27.8714  -19.5881   20.3890 H   0  0  0  0  0  0
  -27.9342  -26.1185   22.0665 H   0  0  0  0  0  0
  -27.7249  -23.5967   22.8497 H   0  0  0  0  0  0
  -29.4811  -23.7006   22.9856 H   0  0  0  0  0  0
  -30.3162  -23.9774   19.7095 H   0  0  0  0  0  0
  -28.6849  -23.7054   19.0803 H   0  0  0  0  0  0
  -27.8497  -21.5659   21.6712 H   0  0  0  0  0  0
  -29.4555  -21.4422   22.3916 H   0  0  0  0  0  0
  -29.0181  -15.2426   21.3423 H   0  0  0  0  0  0
  1 25  1  0  0  0
  1 30  2  0  0  0
  1 84  1  0  0  0
  2  3  1  0  0  0
  2 25  1  0  0  0
  2 87  1  0  0  0
  2 88  1  0  0  0
  3  4  1  0  0  0
  3 89  1  0  0  0
  3 90  1  0  0  0
  4  5  1  0  0  0
  4 91  1  0  0  0
  4 92  1  0  0  0
  5  6  1  0  0  0
  5 26  1  0  0  0
  5 93  1  0  0  0
  6 25  1  0  0  0
  6 94  1  0  0  0
  6 95  1  0  0  0
  7  8  2  0  0  0
  7 26  1  0  0  0
  7 29  1  0  0  0
  8  9  1  0  0  0
  8 22  1  0  0  0
  9 10  1  0  0  0
  9 27  2  0  0  0
 10 11  2  0  0  0
 10 15  1  0  0  0
 11 12  1  0  0  0
 11 96  1  0  0  0
 12 13  2  0  0  0
 12 97  1  0  0  0
 13 14  1  0  0  0
 13 31  1  0  0  0
 14 15  2  0  0  0
 14 98  1  0  0  0
 15 99  1  0  0  0
 16 17  2  0  0  0
 16 21  1  0  0  0
 16 31  1  0  0  0
 17 18  1  0  0  0
 17100  1  0  0  0
 18 19  2  0  0  0
 18101  1  0  0  0
 19 20  1  0  0  0
 19 24  1  0  0  0
 20 21  2  0  0  0
 20102  1  0  0  0
 21 23  1  0  0  0
 22 28  1  0  0  0
 22 32  2  0  0  0
 26 27  1  0  0  0
 28103  1  0  0  0
 28104  1  0  0  0
 29105  1  0  0  0
 29106  1  0  0  0
 33 34  1  0  0  0
 33 66  1  0  0  0
 33 70  2  0  0  0
 34 36  1  0  0  0
 34 59  1  0  0  0
 34107  1  0  0  0
 35 44  2  0  0  0
 35 45  1  0  0  0
 35 68  1  0  0  0
 36 56  1  0  0  0
 36108  1  0  0  0
 37 39  1  0  0  0
 37 47  1  0  0  0
 37 66  1  0  0  0
 37109  1  0  0  0
 38 43  2  0  0  0
 38 46  1  0  0  0
 38 47  1  0  0  0
 39 64  1  0  0  0
 39 67  2  0  0  0
 40 52  1  0  0  0
 40 53  2  0  0  0
 40 58  1  0  0  0
 41110  1  0  0  0
 41111  1  0  0  0
 41112  1  0  0  0
 41 48  1  0  0  0
 42 43  1  0  0  0
 42 66  1  0  0  0
 42113  1  0  0  0
 42114  1  0  0  0
 43 44  1  0  0  0
 44115  1  0  0  0
 45 46  2  0  0  0
 45116  1  0  0  0
 46117  1  0  0  0
 47118  1  0  0  0
 47119  1  0  0  0
 48 56  1  0  0  0
 48 65  1  0  0  0
 48120  1  0  0  0
 49 50  1  0  0  0
 49 53  1  0  0  0
 49 64  1  0  0  0
 49121  1  0  0  0
 50 51  1  0  0  0
 50122  1  0  0  0
 50123  1  0  0  0
 51 52  1  0  0  0
 51124  1  0  0  0
 51125  1  0  0  0
 52126  1  0  0  0
 52127  1  0  0  0
 53 54  1  0  0  0
 54 55  2  0  0  0
 54128  1  0  0  0
 55 57  1  0  0  0
 55129  1  0  0  0
 56 69  2  0  0  0
 57 58  2  0  0  0
 57130  1  0  0  0
 58131  1  0  0  0
 59 60  1  0  0  0
 59 61  1  0  0  0
 59 62  1  0  0  0
 60132  1  0  0  0
 60133  1  0  0  0
 60134  1  0  0  0
 61135  1  0  0  0
 61136  1  0  0  0
 61137  1  0  0  0
 62138  1  0  0  0
 62139  1  0  0  0
 62140  1  0  0  0
 63 65  1  0  0  0
 63141  1  0  0  0
 63142  1  0  0  0
 63143  1  0  0  0
 64144  1  0  0  0
 65145  1  0  0  0
 68 78  1  0  0  0
 71 72  2  0  0  0
 71 74  1  0  0  0
 71146  1  0  0  0
 72 75  1  0  0  0
 72147  1  0  0  0
 73 74  2  0  0  0
 73 76  1  0  0  0
 73148  1  0  0  0
 74 79  1  0  0  0
 75 76  2  0  0  0
 75 84  1  0  0  0
 76 86  1  0  0  0
 77 78  2  0  0  0
 77 80  1  0  0  0
 77 81  1  0  0  0
 78149  1  0  0  0
 79 83  1  0  0  0
 79 85  2  0  0  0
 80 82  1  0  0  0
 80150  1  0  0  0
 80151  1  0  0  0
 81 83  1  0  0  0
 81152  1  0  0  0
 81153  1  0  0  0
 82 83  1  0  0  0
 82154  1  0  0  0
 82155  1  0  0  0
 84156  1  0  0  0
M  ISO  4   1 100  68 101  78 101  84 100
M  END
> <chiral flag>
0

> <version>
0

> <s_m_source_file>
/data/baiqing/PycharmProjects/Reinvent-master-3.2/result/LINK_invent/BTK/process_docking_weight1_custom_product_contain_oxygen_bond_distance_aromatic_linkinvent_7_9_3/rearranged_h_0090.sdf

> <i_m_source_file_index>
68

> <r_mmod_Potential_Energy-OPLS-2005>
7.70813226699829

> <r_mmod_Stretch_Energy-OPLS-2005>
42.8437156677246

> <r_mmod_Bend_Energy-OPLS-2005>
125.442306518555

> <r_mmod_Torsional_Energy-OPLS-2005>
292.795074462891

> <r_mmod_Improper_Torsional_Energy-OPLS-2005>
5.23569202423096

> <r_mmod_Van_der_Waal_Energy-OPLS-2005>
143.826217651367

> <r_mmod_Electrostatic_Energy-OPLS-2005>
-406.084075927734

> <r_mmod_Solvation_Energy-OPLS-2005>
-214.954864501953

> <b_mmod_Minimization_Converged-OPLS-2005>
0

> <r_mmod_RMS_Derivative-OPLS-2005>
1.28641283512115

$$$$
68
                    3D
 Structure written by MMmdl.
157166  0  0  1  0            999 V2000
  -30.6194  -14.6492   20.5022 C   0  0  0  0  0  0
  -30.4450  -12.4001   19.4490 C   0  0  0  0  0  0
  -29.5099  -12.5095   18.2233 C   0  0  0  0  0  0
  -28.0331  -12.3429   18.6364 C   0  0  0  0  0  0
  -27.6546  -13.2146   19.8629 C   0  0  2  0  0  0
  -28.7020  -13.0710   20.9910 C   0  0  0  0  0  0
  -25.2568  -13.8159   20.5685 C   0  0  0  0  0  0
  -24.1834  -13.0429   20.9192 C   0  0  0  0  0  0
  -24.6400  -11.6900   20.8740 C   0  0  0  0  0  0
  -23.9065  -10.4286   21.0406 C   0  0  0  0  0  0
  -24.3614   -9.4202   21.9184 C   0  0  0  0  0  0
  -23.6288   -8.2239   22.0753 C   0  0  0  0  0  0
  -22.4269   -8.0279   21.3545 C   0  0  0  0  0  0
  -21.9906   -9.0256   20.4648 C   0  0  0  0  0  0
  -22.7237  -10.2132   20.3057 C   0  0  0  0  0  0
  -21.6852   -6.0732   22.5279 C   0  0  0  0  0  0
  -21.4014   -6.5636   23.8213 C   0  0  0  0  0  0
  -21.3659   -5.6790   24.9175 C   0  0  0  0  0  0
  -21.6044   -4.3052   24.7225 C   0  0  0  0  0  0
  -21.8819   -3.8145   23.4346 C   0  0  0  0  0  0
  -21.9192   -4.6961   22.3402 C   0  0  0  0  0  0
  -22.7856  -13.5228   21.1852 C   0  0  0  0  0  0
  -22.1661   -4.2147   21.0980 F   0  0  0  0  0  0
  -21.5629   -3.4536   25.7738 F   0  0  0  0  0  0
  -30.0171  -13.4192   20.4270 N   0  0  0  0  0  0
  -26.3000  -12.9338   20.3321 N   0  0  0  0  0  0
  -25.9330  -11.6496   20.5757 N   0  0  0  0  0  0
  -22.0494  -12.8228   22.0412 N   0  0  0  0  0  0
  -25.4268  -15.1880   20.4091 N   0  0  0  0  0  0
  -31.7879  -14.8201   20.1415 O   0  0  0  0  0  0
  -21.6636   -6.8876   21.4240 O   0  0  0  0  0  0
  -22.3545  -14.5536   20.6698 O   0  0  0  0  0  0
  -24.6292  -31.8609   23.2055 C   0  0  0  0  0  0
  -25.9135  -32.4785   23.8378 C   0  0  1  0  0  0
  -27.2162  -27.3042   20.1052 C   0  0  0  0  0  0
  -25.5946  -33.8586   24.2298 N   0  0  0  0  0  0
  -23.4225  -30.4895   21.5499 C   0  0  2  0  0  0
  -24.8668  -28.9547   20.1110 C   0  0  0  0  0  0
  -22.7493  -29.4635   22.4936 C   0  0  0  0  0  0
  -18.0291  -28.1386   22.8484 C   0  0  0  0  0  0
  -24.1492  -36.7293   23.2636 C   0  0  0  0  0  0
  -25.9694  -30.7867   21.3821 C   0  0  0  0  0  0
  -26.0419  -29.4166   20.7175 C   0  0  0  0  0  0
  -27.2203  -28.6047   20.7065 C   0  0  0  0  0  0
  -26.0101  -26.9160   19.4657 C   0  0  0  0  0  0
  -24.8545  -27.7096   19.4766 C   0  0  0  0  0  0
  -23.6372  -29.8359   20.1628 C   0  0  0  0  0  0
  -25.4115  -36.3085   24.0329 C   0  0  1  0  0  0
  -20.5895  -28.3696   23.1273 C   0  0  2  0  0  0
  -20.6783  -26.9418   22.5404 C   0  0  0  0  0  0
  -19.5756  -26.6385   21.5210 C   0  0  0  0  0  0
  -18.1936  -26.7928   22.1624 C   0  0  0  0  0  0
  -19.1544  -28.8858   23.2874 C   0  0  0  0  0  0
  -18.9464  -30.1459   23.8891 C   0  0  0  0  0  0
  -17.6462  -30.6588   24.0561 C   0  0  0  0  0  0
  -25.9054  -34.9455   23.5109 C   0  0  0  0  0  0
  -16.5353  -29.9083   23.6331 C   0  0  0  0  0  0
  -16.7277  -28.6501   23.0351 C   0  0  0  0  0  0
  -26.4505  -31.6590   25.0749 C   0  0  0  0  0  0
  -25.3730  -31.3733   26.1469 C   0  0  0  0  0  0
  -27.0344  -30.3008   24.6220 C   0  0  0  0  0  0
  -27.6068  -32.4321   25.7516 C   0  0  0  0  0  0
  -27.5582  -37.1800   24.8461 C   0  0  0  0  0  0
  -21.4206  -29.3051   22.3672 N   0  0  0  0  0  0
  -26.4292  -37.3781   23.9409 N   0  0  0  0  0  0
  -24.6929  -31.0613   22.1020 N   0  0  0  0  0  0
  -23.4211  -28.8156   23.3005 O   0  0  0  0  0  0
  -28.3052  -26.4031   20.1612 O   0  0  0  0  0  0
  -26.5616  -34.8918   22.4671 O   0  0  0  0  0  0
  -23.5450  -32.1413   23.7371 O   0  0  0  0  0  0
  -28.7822  -19.2418   19.8654 C   0  0  0  0  0  0
  -30.8059  -19.3905   21.1448 C   0  0  0  0  0  0
  -28.8317  -17.8205   19.9609 C   0  0  0  0  0  0
  -30.8761  -17.9613   21.2163 C   0  0  0  0  0  0
  -30.3179  -23.7212   20.0286 C   0  0  0  0  0  0
  -28.9078  -23.7533   20.2313 C   0  0  0  0  0  0
  -29.7533  -20.0823   20.4742 C   0  0  0  0  0  0
  -29.8785  -17.1357   20.6323 C   0  0  0  0  0  0
  -28.5634  -22.4222   20.5027 C   0  0  0  0  0  0
  -30.7447  -22.4192   20.1159 C   0  0  0  0  0  0
  -26.0516  -22.2696   20.4367 C   0  0  0  0  0  0
  -27.2781  -21.8462   20.7831 C   0  0  0  0  0  0
  -27.9250  -24.9666   20.0764 C   0  0  0  0  0  0
  -29.6844  -21.5550   20.3856 N   0  0  0  0  0  0
  -29.7830  -15.6880   20.8143 N   0  0  0  0  0  0
  -32.0062  -21.9433   19.9276 O   0  0  0  0  0  0
  -31.4846  -12.5341   19.1443 H   0  0  0  0  0  0
  -30.3880  -11.4042   19.8911 H   0  0  0  0  0  0
  -29.7759  -11.7585   17.4782 H   0  0  0  0  0  0
  -29.6477  -13.4791   17.7416 H   0  0  0  0  0  0
  -27.8735  -11.2897   18.8705 H   0  0  0  0  0  0
  -27.3772  -12.5694   17.7950 H   0  0  0  0  0  0
  -27.6706  -14.2484   19.5181 H   0  0  0  0  0  0
  -28.7171  -12.0489   21.3723 H   0  0  0  0  0  0
  -28.4474  -13.7010   21.8448 H   0  0  0  0  0  0
  -25.2760   -9.5677   22.4758 H   0  0  0  0  0  0
  -23.9998   -7.4629   22.7471 H   0  0  0  0  0  0
  -21.0837   -8.8778   19.8955 H   0  0  0  0  0  0
  -22.3699  -10.9672   19.6166 H   0  0  0  0  0  0
  -21.2006   -7.6143   23.9714 H   0  0  0  0  0  0
  -21.1482   -6.0520   25.9077 H   0  0  0  0  0  0
  -22.0599   -2.7607   23.2847 H   0  0  0  0  0  0
  -22.4099  -11.9886   22.4804 H   0  0  0  0  0  0
  -21.1116  -13.1267   22.2616 H   0  0  0  0  0  0
  -24.6563  -15.8390   20.5147 H   0  0  0  0  0  0
  -26.2692  -15.6281   20.0644 H   0  0  0  0  0  0
  -26.7203  -32.5450   23.1124 H   0  0  0  0  0  0
  -25.0100  -33.9734   25.0447 H   0  0  0  0  0  0
  -22.7167  -31.3113   21.4123 H   0  0  0  0  0  0
  -23.3756  -35.9622   23.3294 H   0  0  0  0  0  0
  -24.3587  -36.8917   22.2051 H   0  0  0  0  0  0
  -23.7241  -37.6493   23.6659 H   0  0  0  0  0  0
  -26.1080  -31.5536   20.6186 H   0  0  0  0  0  0
  -26.8472  -30.8286   22.0153 H   0  0  0  0  0  0
  -28.1175  -28.9538   21.1983 H   0  0  0  0  0  0
  -25.8976  -25.9781   18.9478 H   0  0  0  0  0  0
  -23.9565  -27.3518   18.9918 H   0  0  0  0  0  0
  -23.7592  -30.6175   19.4119 H   0  0  0  0  0  0
  -22.7558  -29.2701   19.8557 H   0  0  0  0  0  0
  -25.1291  -36.1938   25.0821 H   0  0  0  0  0  0
  -20.9985  -28.3269   24.1395 H   0  0  0  0  0  0
  -20.5691  -26.2303   23.3603 H   0  0  0  0  0  0
  -21.6651  -26.7451   22.1192 H   0  0  0  0  0  0
  -19.6918  -25.6294   21.1242 H   0  0  0  0  0  0
  -19.6689  -27.3191   20.6736 H   0  0  0  0  0  0
  -17.4204  -26.6672   21.4028 H   0  0  0  0  0  0
  -18.0340  -26.0072   22.9024 H   0  0  0  0  0  0
  -19.7939  -30.7277   24.2259 H   0  0  0  0  0  0
  -17.5015  -31.6268   24.5163 H   0  0  0  0  0  0
  -15.5353  -30.2980   23.7661 H   0  0  0  0  0  0
  -15.8678  -28.0818   22.7068 H   0  0  0  0  0  0
  -24.5910  -30.7077   25.7795 H   0  0  0  0  0  0
  -24.8917  -32.2900   26.4886 H   0  0  0  0  0  0
  -25.8048  -30.8915   27.0250 H   0  0  0  0  0  0
  -26.2925  -29.6763   24.1230 H   0  0  0  0  0  0
  -27.4010  -29.7262   25.4736 H   0  0  0  0  0  0
  -27.8813  -30.4278   23.9473 H   0  0  0  0  0  0
  -27.2686  -33.3623   26.2095 H   0  0  0  0  0  0
  -28.3878  -32.6878   25.0342 H   0  0  0  0  0  0
  -28.0738  -31.8446   26.5431 H   0  0  0  0  0  0
  -28.2591  -38.0107   24.7524 H   0  0  0  0  0  0
  -28.1087  -36.2639   24.6266 H   0  0  0  0  0  0
  -27.2305  -37.1426   25.8866 H   0  0  0  0  0  0
  -20.9385  -29.8785   21.6892 H   0  0  0  0  0  0
  -26.0173  -38.2853   24.1416 H   0  0  0  0  0  0
  -27.9641  -19.6886   19.3195 H   0  0  0  0  0  0
  -31.5820  -19.9666   21.6275 H   0  0  0  0  0  0
  -28.0335  -17.2523   19.5052 H   0  0  0  0  0  0
  -31.6886  -17.5063   21.7648 H   0  0  0  0  0  0
  -30.9438  -24.5703   19.7909 H   0  0  0  0  0  0
  -25.1739  -21.7236   20.7526 H   0  0  0  0  0  0
  -25.8900  -23.1505   19.8348 H   0  0  0  0  0  0
  -27.3064  -20.9509   21.3896 H   0  0  0  0  0  0
  -27.1189  -24.8050   20.7930 H   0  0  0  0  0  0
  -27.5320  -24.7841   19.0777 H   0  0  0  0  0  0
  -28.8497  -15.3583   21.0058 H   0  0  0  0  0  0
  -32.5648  -22.6812   19.7032 H   0  0  0  0  0  0
  1 25  1  0  0  0
  1 30  2  0  0  0
  1 85  1  0  0  0
  2  3  1  0  0  0
  2 25  1  0  0  0
  2 87  1  0  0  0
  2 88  1  0  0  0
  3  4  1  0  0  0
  3 89  1  0  0  0
  3 90  1  0  0  0
  4  5  1  0  0  0
  4 91  1  0  0  0
  4 92  1  0  0  0
  5  6  1  0  0  0
  5 26  1  0  0  0
  5 93  1  0  0  0
  6 25  1  0  0  0
  6 94  1  0  0  0
  6 95  1  0  0  0
  7  8  2  0  0  0
  7 26  1  0  0  0
  7 29  1  0  0  0
  8  9  1  0  0  0
  8 22  1  0  0  0
  9 10  1  0  0  0
  9 27  2  0  0  0
 10 11  2  0  0  0
 10 15  1  0  0  0
 11 12  1  0  0  0
 11 96  1  0  0  0
 12 13  2  0  0  0
 12 97  1  0  0  0
 13 14  1  0  0  0
 13 31  1  0  0  0
 14 15  2  0  0  0
 14 98  1  0  0  0
 15 99  1  0  0  0
 16 17  2  0  0  0
 16 21  1  0  0  0
 16 31  1  0  0  0
 17 18  1  0  0  0
 17100  1  0  0  0
 18 19  2  0  0  0
 18101  1  0  0  0
 19 20  1  0  0  0
 19 24  1  0  0  0
 20 21  2  0  0  0
 20102  1  0  0  0
 21 23  1  0  0  0
 22 28  1  0  0  0
 22 32  2  0  0  0
 26 27  1  0  0  0
 28103  1  0  0  0
 28104  1  0  0  0
 29105  1  0  0  0
 29106  1  0  0  0
 33 34  1  0  0  0
 33 66  1  0  0  0
 33 70  2  0  0  0
 34 36  1  0  0  0
 34 59  1  0  0  0
 34107  1  0  0  0
 35 44  2  0  0  0
 35 45  1  0  0  0
 35 68  1  0  0  0
 36 56  1  0  0  0
 36108  1  0  0  0
 37 39  1  0  0  0
 37 47  1  0  0  0
 37 66  1  0  0  0
 37109  1  0  0  0
 38 43  2  0  0  0
 38 46  1  0  0  0
 38 47  1  0  0  0
 39 64  1  0  0  0
 39 67  2  0  0  0
 40 52  1  0  0  0
 40 53  2  0  0  0
 40 58  1  0  0  0
 41110  1  0  0  0
 41111  1  0  0  0
 41112  1  0  0  0
 41 48  1  0  0  0
 42 43  1  0  0  0
 42 66  1  0  0  0
 42113  1  0  0  0
 42114  1  0  0  0
 43 44  1  0  0  0
 44115  1  0  0  0
 45 46  2  0  0  0
 45116  1  0  0  0
 46117  1  0  0  0
 47118  1  0  0  0
 47119  1  0  0  0
 48 56  1  0  0  0
 48 65  1  0  0  0
 48120  1  0  0  0
 49 50  1  0  0  0
 49 53  1  0  0  0
 49 64  1  0  0  0
 49121  1  0  0  0
 50 51  1  0  0  0
 50122  1  0  0  0
 50123  1  0  0  0
 51 52  1  0  0  0
 51124  1  0  0  0
 51125  1  0  0  0
 52126  1  0  0  0
 52127  1  0  0  0
 53 54  1  0  0  0
 54 55  2  0  0  0
 54128  1  0  0  0
 55 57  1  0  0  0
 55129  1  0  0  0
 56 69  2  0  0  0
 57 58  2  0  0  0
 57130  1  0  0  0
 58131  1  0  0  0
 59 60  1  0  0  0
 59 61  1  0  0  0
 59 62  1  0  0  0
 60132  1  0  0  0
 60133  1  0  0  0
 60134  1  0  0  0
 61135  1  0  0  0
 61136  1  0  0  0
 61137  1  0  0  0
 62138  1  0  0  0
 62139  1  0  0  0
 62140  1  0  0  0
 63 65  1  0  0  0
 63141  1  0  0  0
 63142  1  0  0  0
 63143  1  0  0  0
 64144  1  0  0  0
 65145  1  0  0  0
 68 83  1  0  0  0
 71 73  2  0  0  0
 71 77  1  0  0  0
 71146  1  0  0  0
 72 74  1  0  0  0
 72 77  2  0  0  0
 72147  1  0  0  0
 73 78  1  0  0  0
 73148  1  0  0  0
 74 78  2  0  0  0
 74149  1  0  0  0
 75 76  1  0  0  0
 75 80  2  0  0  0
 75150  1  0  0  0
 76 79  2  0  0  0
 76 83  1  0  0  0
 77 84  1  0  0  0
 78 85  1  0  0  0
 79 82  1  0  0  0
 79 84  1  0  0  0
 80 84  1  0  0  0
 80 86  1  0  0  0
 81 82  2  0  0  0
 81151  1  0  0  0
 81152  1  0  0  0
 82153  1  0  0  0
 83154  1  0  0  0
 83155  1  0  0  0
 85156  1  0  0  0
 86157  1  0  0  0
M  ISO  4   1 100  68 101  83 101  85 100
M  END
> <chiral flag>
0

> <version>
0

> <s_m_source_file>
/data/baiqing/PycharmProjects/Reinvent-master-3.2/result/LINK_invent/BTK/process_docking_weight1_custom_product_contain_oxygen_bond_distance_aromatic_linkinvent_7_9_3/rearranged_h_0090.sdf

> <i_m_source_file_index>
69

> <r_mmod_Potential_Energy-OPLS-2005>
109.187789916992

> <r_mmod_Stretch_Energy-OPLS-2005>
84.4274368286133

> <r_mmod_Bend_Energy-OPLS-2005>
145.633392333984

> <r_mmod_Torsional_Energy-OPLS-2005>
252.228439331055

> <r_mmod_Improper_Torsional_Energy-OPLS-2005>
6.36320209503174

> <r_mmod_Van_der_Waal_Energy-OPLS-2005>
150.581787109375

> <r_mmod_Electrostatic_Energy-OPLS-2005>
-364.442810058594

> <r_mmod_Solvation_Energy-OPLS-2005>
-222.524551391602

> <b_mmod_Minimization_Converged-OPLS-2005>
0

> <r_mmod_RMS_Derivative-OPLS-2005>
0.355961292982101

$$$$
69
                    3D
 Structure written by MMmdl.
161170  0  0  1  0            999 V2000
  -30.6888  -14.5612   20.5389 C   0  0  0  0  0  0
  -30.4217  -12.3456   19.4544 C   0  0  0  0  0  0
  -29.5015  -12.5028   18.2234 C   0  0  0  0  0  0
  -28.0222  -12.3644   18.6354 C   0  0  0  0  0  0
  -27.6546  -13.2224   19.8772 C   0  0  2  0  0  0
  -28.6984  -13.0467   21.0043 C   0  0  0  0  0  0
  -25.2519  -13.8187   20.5782 C   0  0  0  0  0  0
  -24.1790  -13.0432   20.9246 C   0  0  0  0  0  0
  -24.6341  -11.6905   20.8708 C   0  0  0  0  0  0
  -23.9005  -10.4306   21.0401 C   0  0  0  0  0  0
  -24.3548   -9.4230   21.9186 C   0  0  0  0  0  0
  -23.6250   -8.2241   22.0767 C   0  0  0  0  0  0
  -22.4231   -8.0255   21.3562 C   0  0  0  0  0  0
  -21.9861   -9.0225   20.4651 C   0  0  0  0  0  0
  -22.7178  -10.2128   20.3066 C   0  0  0  0  0  0
  -21.6840   -6.0692   22.5276 C   0  0  0  0  0  0
  -21.4007   -6.5613   23.8198 C   0  0  0  0  0  0
  -21.3670   -5.6786   24.9171 C   0  0  0  0  0  0
  -21.6054   -4.3049   24.7242 C   0  0  0  0  0  0
  -21.8811   -3.8120   23.4369 C   0  0  0  0  0  0
  -21.9195   -4.6922   22.3411 C   0  0  0  0  0  0
  -22.7802  -13.5247   21.1842 C   0  0  0  0  0  0
  -22.1665   -4.2098   21.0985 F   0  0  0  0  0  0
  -21.5628   -3.4539   25.7757 F   0  0  0  0  0  0
  -30.0271  -13.3640   20.4594 N   0  0  0  0  0  0
  -26.2959  -12.9391   20.3404 N   0  0  0  0  0  0
  -25.9272  -11.6536   20.5748 N   0  0  0  0  0  0
  -22.0376  -12.8309   22.0400 N   0  0  0  0  0  0
  -25.4193  -15.1931   20.4255 N   0  0  0  0  0  0
  -31.8225  -14.6670   20.0599 O   0  0  0  0  0  0
  -21.6635   -6.8831   21.4240 O   0  0  0  0  0  0
  -22.3505  -14.5546   20.6649 O   0  0  0  0  0  0
  -24.6152  -31.8699   23.2098 C   0  0  0  0  0  0
  -25.9067  -32.4846   23.8393 C   0  0  1  0  0  0
  -27.2261  -27.3971   20.1519 C   0  0  0  0  0  0
  -25.5893  -33.8628   24.2271 N   0  0  0  0  0  0
  -23.4088  -30.4930   21.5466 C   0  0  2  0  0  0
  -24.8549  -28.9585   20.1208 C   0  0  0  0  0  0
  -22.7462  -29.4730   22.4992 C   0  0  0  0  0  0
  -18.0317  -28.1404   22.8295 C   0  0  0  0  0  0
  -24.1458  -36.7314   23.2634 C   0  0  0  0  0  0
  -25.9388  -30.8319   21.3630 C   0  0  0  0  0  0
  -26.0191  -29.4602   20.7205 C   0  0  0  0  0  0
  -27.2102  -28.6935   20.7253 C   0  0  0  0  0  0
  -26.0445  -26.9214   19.5442 C   0  0  0  0  0  0
  -24.8683  -27.6894   19.5184 C   0  0  0  0  0  0
  -23.6135  -29.8204   20.1632 C   0  0  0  0  0  0
  -25.4105  -36.3113   24.0303 C   0  0  1  0  0  0
  -20.5895  -28.3768   23.1245 C   0  0  2  0  0  0
  -20.6915  -26.9550   22.5195 C   0  0  0  0  0  0
  -19.5918  -26.6579   21.4928 C   0  0  0  0  0  0
  -18.2056  -26.8025   22.1282 C   0  0  0  0  0  0
  -19.1506  -28.8889   23.2777 C   0  0  0  0  0  0
  -18.9348  -30.1515   23.8753 C   0  0  0  0  0  0
  -17.6319  -30.6574   24.0420 C   0  0  0  0  0  0
  -25.9055  -34.9487   23.5080 C   0  0  0  0  0  0
  -16.5262  -29.9015   23.6192 C   0  0  0  0  0  0
  -16.7275  -28.6461   23.0152 C   0  0  0  0  0  0
  -26.4475  -31.6670   25.0754 C   0  0  0  0  0  0
  -25.3702  -31.3805   26.1473 C   0  0  0  0  0  0
  -27.0314  -30.3105   24.6184 C   0  0  0  0  0  0
  -27.6049  -32.4385   25.7555 C   0  0  0  0  0  0
  -27.5567  -37.1818   24.8474 C   0  0  0  0  0  0
  -21.4183  -29.3171   22.3710 N   0  0  0  0  0  0
  -26.4298  -37.3808   23.9403 N   0  0  0  0  0  0
  -24.6727  -31.0813   22.0965 N   0  0  0  0  0  0
  -23.4202  -28.8218   23.3018 O   0  0  0  0  0  0
  -28.3700  -26.6157   20.1415 O   0  0  0  0  0  0
  -26.5630  -34.8960   22.4650 O   0  0  0  0  0  0
  -23.5337  -32.1419   23.7475 O   0  0  0  0  0  0
  -29.8563  -19.2998   23.6747 C   0  0  0  0  0  0
  -30.0558  -18.1246   22.9200 C   0  0  0  0  0  0
  -29.3413  -20.4739   23.0822 C   0  0  0  0  0  0
  -29.2156  -19.3045   20.9576 C   0  0  0  0  0  0
  -29.7574  -18.1080   21.5409 C   0  0  0  0  0  0
  -29.0078  -20.5071   21.7093 C   0  0  0  0  0  0
  -28.7215  -23.0213   21.4103 C   0  0  0  0  0  0
  -28.3549  -24.1000   20.6592 C   0  0  0  0  0  0
  -26.2579  -21.8463   19.7475 C   0  0  0  0  0  0
  -30.2196  -16.9449   20.6704 C   0  0  0  0  0  0
  -27.7355  -23.8862   19.2871 C   0  0  0  0  0  0
  -26.3038  -23.3272   19.3742 C   0  0  0  0  0  0
  -26.9537  -21.3793   21.0326 C   0  0  0  0  0  0
  -28.4752  -25.5730   21.1516 C   0  0  0  0  0  0
  -28.3973  -21.6649   21.1338 N   0  0  0  0  0  0
  -30.0269  -15.6408   21.0575 N   0  0  0  0  0  0
  -25.6103  -21.0575   19.0541 O   0  0  0  0  0  0
  -30.7496  -17.2532   19.6003 O   0  0  0  0  0  0
  -31.4685  -12.4206   19.1525 H   0  0  0  0  0  0
  -30.3150  -11.3434   19.8733 H   0  0  0  0  0  0
  -29.7375  -11.7467   17.4720 H   0  0  0  0  0  0
  -29.6738  -13.4723   17.7550 H   0  0  0  0  0  0
  -27.8442  -11.3099   18.8539 H   0  0  0  0  0  0
  -27.3724  -12.6148   17.7966 H   0  0  0  0  0  0
  -27.6879  -14.2662   19.5602 H   0  0  0  0  0  0
  -28.6861  -12.0141   21.3530 H   0  0  0  0  0  0
  -28.4583  -13.6595   21.8731 H   0  0  0  0  0  0
  -25.2657   -9.5726   22.4815 H   0  0  0  0  0  0
  -23.9940   -7.4647   22.7522 H   0  0  0  0  0  0
  -21.0772   -8.8737   19.8975 H   0  0  0  0  0  0
  -22.3584  -10.9664   19.6200 H   0  0  0  0  0  0
  -21.1987   -7.6113   23.9698 H   0  0  0  0  0  0
  -21.1512   -6.0506   25.9076 H   0  0  0  0  0  0
  -22.0577   -2.7574   23.2888 H   0  0  0  0  0  0
  -22.3876  -11.9984   22.4915 H   0  0  0  0  0  0
  -21.0982  -13.1407   22.2458 H   0  0  0  0  0  0
  -24.6456  -15.8394   20.5385 H   0  0  0  0  0  0
  -26.2613  -15.6445   20.0915 H   0  0  0  0  0  0
  -26.7116  -32.5536   23.1152 H   0  0  0  0  0  0
  -25.0039  -33.9771   25.0395 H   0  0  0  0  0  0
  -22.6983  -31.3077   21.4027 H   0  0  0  0  0  0
  -23.3730  -35.9643   23.3337 H   0  0  0  0  0  0
  -24.3527  -36.8908   22.2047 H   0  0  0  0  0  0
  -23.7200  -37.6509   23.6643 H   0  0  0  0  0  0
  -26.0524  -31.5959   20.5906 H   0  0  0  0  0  0
  -26.8283  -30.8893   21.9827 H   0  0  0  0  0  0
  -28.1115  -29.0862   21.1756 H   0  0  0  0  0  0
  -25.9964  -25.9472   19.0917 H   0  0  0  0  0  0
  -23.9821  -27.2847   19.0517 H   0  0  0  0  0  0
  -23.6975  -30.5830   19.3890 H   0  0  0  0  0  0
  -22.7455  -29.2131   19.8935 H   0  0  0  0  0  0
  -25.1283  -36.1986   25.0795 H   0  0  0  0  0  0
  -20.9923  -28.3219   24.1388 H   0  0  0  0  0  0
  -21.6742  -26.7891   22.0769 H   0  0  0  0  0  0
  -20.6092  -26.2271   23.3275 H   0  0  0  0  0  0
  -19.7215  -25.6625   21.0734 H   0  0  0  0  0  0
  -19.6921  -27.3477   20.6567 H   0  0  0  0  0  0
  -17.4442  -26.6922   21.3500 H   0  0  0  0  0  0
  -18.0397  -26.0018   22.8545 H   0  0  0  0  0  0
  -19.7757  -30.7442   24.2075 H   0  0  0  0  0  0
  -17.4802  -31.6288   24.4971 H   0  0  0  0  0  0
  -15.5220  -30.2849   23.7498 H   0  0  0  0  0  0
  -15.8715  -28.0788   22.6747 H   0  0  0  0  0  0
  -24.5866  -30.7193   25.7764 H   0  0  0  0  0  0
  -24.8938  -32.2996   26.4907 H   0  0  0  0  0  0
  -25.8029  -30.8951   27.0239 H   0  0  0  0  0  0
  -26.2883  -29.6905   24.1180 H   0  0  0  0  0  0
  -27.3970  -29.7350   25.4701 H   0  0  0  0  0  0
  -27.8760  -30.4403   23.9421 H   0  0  0  0  0  0
  -27.2665  -33.3666   26.2188 H   0  0  0  0  0  0
  -28.3898  -32.6992   25.0440 H   0  0  0  0  0  0
  -28.0692  -31.8482   26.5468 H   0  0  0  0  0  0
  -28.2627  -38.0079   24.7504 H   0  0  0  0  0  0
  -28.1024  -36.2616   24.6332 H   0  0  0  0  0  0
  -27.2290  -37.1505   25.8882 H   0  0  0  0  0  0
  -20.9318  -29.8809   21.6882 H   0  0  0  0  0  0
  -26.0179  -38.2878   24.1435 H   0  0  0  0  0  0
  -30.1209  -19.3146   24.7214 H   0  0  0  0  0  0
  -30.5030  -17.2594   23.3933 H   0  0  0  0  0  0
  -29.1918  -21.3441   23.7085 H   0  0  0  0  0  0
  -28.9917  -19.3094   19.9017 H   0  0  0  0  0  0
  -29.1572  -23.1840   22.3888 H   0  0  0  0  0  0
  -28.3702  -23.1866   18.7390 H   0  0  0  0  0  0
  -27.7711  -24.7983   18.6923 H   0  0  0  0  0  0
  -25.7147  -23.8950   20.0931 H   0  0  0  0  0  0
  -25.8019  -23.4338   18.4135 H   0  0  0  0  0  0
  -26.7525  -20.3122   21.1439 H   0  0  0  0  0  0
  -26.4477  -21.8631   21.8679 H   0  0  0  0  0  0
  -29.4360  -25.7011   21.6488 H   0  0  0  0  0  0
  -27.7288  -25.7204   21.9334 H   0  0  0  0  0  0
  -29.3266  -15.4704   21.7569 H   0  0  0  0  0  0
  1 25  1  0  0  0
  1 30  2  0  0  0
  1 86  1  0  0  0
  2  3  1  0  0  0
  2 25  1  0  0  0
  2 89  1  0  0  0
  2 90  1  0  0  0
  3  4  1  0  0  0
  3 91  1  0  0  0
  3 92  1  0  0  0
  4  5  1  0  0  0
  4 93  1  0  0  0
  4 94  1  0  0  0
  5  6  1  0  0  0
  5 26  1  0  0  0
  5 95  1  0  0  0
  6 25  1  0  0  0
  6 96  1  0  0  0
  6 97  1  0  0  0
  7  8  2  0  0  0
  7 26  1  0  0  0
  7 29  1  0  0  0
  8  9  1  0  0  0
  8 22  1  0  0  0
  9 10  1  0  0  0
  9 27  2  0  0  0
 10 11  2  0  0  0
 10 15  1  0  0  0
 11 12  1  0  0  0
 11 98  1  0  0  0
 12 13  2  0  0  0
 12 99  1  0  0  0
 13 14  1  0  0  0
 13 31  1  0  0  0
 14 15  2  0  0  0
 14100  1  0  0  0
 15101  1  0  0  0
 16 17  2  0  0  0
 16 21  1  0  0  0
 16 31  1  0  0  0
 17 18  1  0  0  0
 17102  1  0  0  0
 18 19  2  0  0  0
 18103  1  0  0  0
 19 20  1  0  0  0
 19 24  1  0  0  0
 20 21  2  0  0  0
 20104  1  0  0  0
 21 23  1  0  0  0
 22 28  1  0  0  0
 22 32  2  0  0  0
 26 27  1  0  0  0
 28105  1  0  0  0
 28106  1  0  0  0
 29107  1  0  0  0
 29108  1  0  0  0
 33 34  1  0  0  0
 33 66  1  0  0  0
 33 70  2  0  0  0
 34 36  1  0  0  0
 34 59  1  0  0  0
 34109  1  0  0  0
 35 44  2  0  0  0
 35 45  1  0  0  0
 35 68  1  0  0  0
 36 56  1  0  0  0
 36110  1  0  0  0
 37 39  1  0  0  0
 37 47  1  0  0  0
 37 66  1  0  0  0
 37111  1  0  0  0
 38 43  2  0  0  0
 38 46  1  0  0  0
 38 47  1  0  0  0
 39 64  1  0  0  0
 39 67  2  0  0  0
 40 52  1  0  0  0
 40 53  2  0  0  0
 40 58  1  0  0  0
 41112  1  0  0  0
 41113  1  0  0  0
 41114  1  0  0  0
 41 48  1  0  0  0
 42 43  1  0  0  0
 42 66  1  0  0  0
 42115  1  0  0  0
 42116  1  0  0  0
 43 44  1  0  0  0
 44117  1  0  0  0
 45 46  2  0  0  0
 45118  1  0  0  0
 46119  1  0  0  0
 47120  1  0  0  0
 47121  1  0  0  0
 48 56  1  0  0  0
 48 65  1  0  0  0
 48122  1  0  0  0
 49 50  1  0  0  0
 49 53  1  0  0  0
 49 64  1  0  0  0
 49123  1  0  0  0
 50 51  1  0  0  0
 50124  1  0  0  0
 50125  1  0  0  0
 51 52  1  0  0  0
 51126  1  0  0  0
 51127  1  0  0  0
 52128  1  0  0  0
 52129  1  0  0  0
 53 54  1  0  0  0
 54 55  2  0  0  0
 54130  1  0  0  0
 55 57  1  0  0  0
 55131  1  0  0  0
 56 69  2  0  0  0
 57 58  2  0  0  0
 57132  1  0  0  0
 58133  1  0  0  0
 59 60  1  0  0  0
 59 61  1  0  0  0
 59 62  1  0  0  0
 60134  1  0  0  0
 60135  1  0  0  0
 60136  1  0  0  0
 61137  1  0  0  0
 61138  1  0  0  0
 61139  1  0  0  0
 62140  1  0  0  0
 62141  1  0  0  0
 62142  1  0  0  0
 63 65  1  0  0  0
 63143  1  0  0  0
 63144  1  0  0  0
 63145  1  0  0  0
 64146  1  0  0  0
 65147  1  0  0  0
 68 84  1  0  0  0
 71 72  2  0  0  0
 71 73  1  0  0  0
 71148  1  0  0  0
 72 75  1  0  0  0
 72149  1  0  0  0
 73 76  2  0  0  0
 73150  1  0  0  0
 74 75  2  0  0  0
 74 76  1  0  0  0
 74151  1  0  0  0
 75 80  1  0  0  0
 76 85  1  0  0  0
 77 78  2  0  0  0
 77 85  1  0  0  0
 77152  1  0  0  0
 78 81  1  0  0  0
 78 84  1  0  0  0
 79 82  1  0  0  0
 79 83  1  0  0  0
 79 87  2  0  0  0
 80 86  1  0  0  0
 80 88  2  0  0  0
 81 82  1  0  0  0
 81153  1  0  0  0
 81154  1  0  0  0
 82155  1  0  0  0
 82156  1  0  0  0
 83 85  1  0  0  0
 83157  1  0  0  0
 83158  1  0  0  0
 84159  1  0  0  0
 84160  1  0  0  0
 86161  1  0  0  0
M  ISO  4   1 100  68 101  84 101  86 100
M  END
> <chiral flag>
0

> <version>
0

> <s_m_source_file>
/data/baiqing/PycharmProjects/Reinvent-master-3.2/result/LINK_invent/BTK/process_docking_weight1_custom_product_contain_oxygen_bond_distance_aromatic_linkinvent_7_9_3/rearranged_h_0090.sdf

> <i_m_source_file_index>
70

> <r_mmod_Potential_Energy-OPLS-2005>
21.7125053405762

> <r_mmod_Stretch_Energy-OPLS-2005>
62.0449180603027

> <r_mmod_Bend_Energy-OPLS-2005>
116.512252807617

> <r_mmod_Torsional_Energy-OPLS-2005>
325.233367919922

> <r_mmod_Improper_Torsional_Energy-OPLS-2005>
8.79978275299072

> <r_mmod_Van_der_Waal_Energy-OPLS-2005>
156.957778930664

> <r_mmod_Electrostatic_Energy-OPLS-2005>
-435.109466552734

> <r_mmod_Solvation_Energy-OPLS-2005>
-236.936676025391

> <b_mmod_Minimization_Converged-OPLS-2005>
0

> <r_mmod_RMS_Derivative-OPLS-2005>
7.3140549659729

$$$$
70
                    3D
 Structure written by MMmdl.
156165  0  0  1  0            999 V2000
  -30.5801  -14.6675   20.5111 C   0  0  0  0  0  0
  -30.4473  -12.4103   19.4720 C   0  0  0  0  0  0
  -29.5176  -12.5050   18.2401 C   0  0  0  0  0  0
  -28.0386  -12.3300   18.6477 C   0  0  0  0  0  0
  -27.6521  -13.2092   19.8663 C   0  0  2  0  0  0
  -28.6881  -13.0616   21.0027 C   0  0  0  0  0  0
  -25.2554  -13.8154   20.5764 C   0  0  0  0  0  0
  -24.1787  -13.0428   20.9183 C   0  0  0  0  0  0
  -24.6318  -11.6896   20.8681 C   0  0  0  0  0  0
  -23.8969  -10.4297   21.0353 C   0  0  0  0  0  0
  -24.3554   -9.4233   21.9146 C   0  0  0  0  0  0
  -23.6269   -8.2246   22.0731 C   0  0  0  0  0  0
  -22.4248   -8.0248   21.3528 C   0  0  0  0  0  0
  -21.9839   -9.0204   20.4632 C   0  0  0  0  0  0
  -22.7126  -10.2110   20.3021 C   0  0  0  0  0  0
  -21.6856   -6.0693   22.5284 C   0  0  0  0  0  0
  -21.4009   -6.5611   23.8211 C   0  0  0  0  0  0
  -21.3669   -5.6756   24.9178 C   0  0  0  0  0  0
  -21.6048   -4.3021   24.7222 C   0  0  0  0  0  0
  -21.8822   -3.8108   23.4343 C   0  0  0  0  0  0
  -21.9195   -4.6926   22.3402 C   0  0  0  0  0  0
  -22.7825  -13.5245   21.1869 C   0  0  0  0  0  0
  -22.1669   -4.2118   21.0977 F   0  0  0  0  0  0
  -21.5636   -3.4494   25.7732 F   0  0  0  0  0  0
  -30.0048  -13.4227   20.4550 N   0  0  0  0  0  0
  -26.2943  -12.9314   20.3292 N   0  0  0  0  0  0
  -25.9240  -11.6473   20.5683 N   0  0  0  0  0  0
  -22.0430  -12.8269   22.0435 N   0  0  0  0  0  0
  -25.4340  -15.1897   20.4405 N   0  0  0  0  0  0
  -31.7204  -14.8615   20.0768 O   0  0  0  0  0  0
  -21.6627   -6.8833   21.4239 O   0  0  0  0  0  0
  -22.3521  -14.5536   20.6693 O   0  0  0  0  0  0
  -24.6254  -31.8607   23.2028 C   0  0  0  0  0  0
  -25.9103  -32.4777   23.8365 C   0  0  1  0  0  0
  -27.2128  -27.3103   20.1233 C   0  0  0  0  0  0
  -25.5924  -33.8572   24.2302 N   0  0  0  0  0  0
  -23.4190  -30.4832   21.5479 C   0  0  2  0  0  0
  -24.8621  -28.9307   20.1173 C   0  0  0  0  0  0
  -22.7463  -29.4631   22.4964 C   0  0  0  0  0  0
  -18.0268  -28.1385   22.8505 C   0  0  0  0  0  0
  -24.1492  -36.7289   23.2640 C   0  0  0  0  0  0
  -25.9609  -30.7844   21.3760 C   0  0  0  0  0  0
  -26.0326  -29.4096   20.7236 C   0  0  0  0  0  0
  -27.2135  -28.6083   20.7203 C   0  0  0  0  0  0
  -26.0245  -26.8805   19.4982 C   0  0  0  0  0  0
  -24.8578  -27.6695   19.5002 C   0  0  0  0  0  0
  -23.6337  -29.8161   20.1638 C   0  0  0  0  0  0
  -25.4108  -36.3085   24.0350 C   0  0  1  0  0  0
  -20.5869  -28.3690   23.1281 C   0  0  2  0  0  0
  -20.6763  -26.9428   22.5383 C   0  0  0  0  0  0
  -19.5721  -26.6386   21.5213 C   0  0  0  0  0  0
  -18.1907  -26.7918   22.1652 C   0  0  0  0  0  0
  -19.1518  -28.8854   23.2883 C   0  0  0  0  0  0
  -18.9443  -30.1458   23.8891 C   0  0  0  0  0  0
  -17.6448  -30.6602   24.0541 C   0  0  0  0  0  0
  -25.9048  -34.9460   23.5128 C   0  0  0  0  0  0
  -16.5336  -29.9089   23.6334 C   0  0  0  0  0  0
  -16.7259  -28.6488   23.0388 C   0  0  0  0  0  0
  -26.4488  -31.6581   25.0733 C   0  0  0  0  0  0
  -25.3765  -31.3794   26.1533 C   0  0  0  0  0  0
  -27.0225  -30.2964   24.6194 C   0  0  0  0  0  0
  -27.6144  -32.4258   25.7402 C   0  0  0  0  0  0
  -27.5595  -37.1775   24.8463 C   0  0  0  0  0  0
  -21.4180  -29.3056   22.3701 N   0  0  0  0  0  0
  -26.4287  -37.3783   23.9439 N   0  0  0  0  0  0
  -24.6880  -31.0591   22.0997 N   0  0  0  0  0  0
  -23.4186  -28.8192   23.3047 O   0  0  0  0  0  0
  -28.3086  -26.4388   20.1231 O   0  0  0  0  0  0
  -26.5612  -34.8926   22.4693 O   0  0  0  0  0  0
  -23.5408  -32.1434   23.7332 O   0  0  0  0  0  0
  -30.3586  -17.7809   19.6308 C   0  0  0  0  0  0
  -28.9596  -17.9927   21.5467 C   0  0  0  0  0  0
  -30.1863  -19.1751   19.3427 C   0  0  0  0  0  0
  -29.4333  -20.0699   20.1995 C   0  0  0  0  0  0
  -29.7379  -17.1352   20.7251 C   0  0  0  0  0  0
  -28.8342  -19.4006   21.3176 C   0  0  0  0  0  0
  -28.6557  -23.9389   20.2183 C   0  0  0  0  0  0
  -29.5008  -23.7605   19.0477 C   0  0  0  0  0  0
  -28.1203  -25.1385   20.6443 C   0  0  0  0  0  0
  -28.4930  -22.4992   20.8032 C   0  0  0  0  0  0
  -29.8788  -22.2830   18.8833 C   0  0  0  0  0  0
  -30.8243  -19.6126   18.0338 C   0  0  0  0  0  0
  -29.2639  -21.5106   19.9777 N   0  0  0  0  0  0
  -29.7780  -15.6854   20.9780 N   0  0  0  0  0  0
  -29.8404  -24.6295   18.2377 O   0  0  0  0  0  0
  -28.0918  -20.1070   22.2056 F   0  0  0  0  0  0
  -31.4853  -12.5588   19.1730 H   0  0  0  0  0  0
  -30.4083  -11.4130   19.9151 H   0  0  0  0  0  0
  -29.7971  -11.7507   17.5022 H   0  0  0  0  0  0
  -29.6505  -13.4729   17.7540 H   0  0  0  0  0  0
  -27.8885  -11.2782   18.8953 H   0  0  0  0  0  0
  -27.3822  -12.5400   17.8029 H   0  0  0  0  0  0
  -27.6716  -14.2448   19.5233 H   0  0  0  0  0  0
  -28.7058  -12.0344   21.3698 H   0  0  0  0  0  0
  -28.4153  -13.6740   21.8625 H   0  0  0  0  0  0
  -25.2709   -9.5743   22.4693 H   0  0  0  0  0  0
  -24.0006   -7.4637   22.7441 H   0  0  0  0  0  0
  -21.0753   -8.8658   19.8961 H   0  0  0  0  0  0
  -22.3528  -10.9606   19.6111 H   0  0  0  0  0  0
  -21.1992   -7.6113   23.9711 H   0  0  0  0  0  0
  -21.1491   -6.0477   25.9082 H   0  0  0  0  0  0
  -22.0588   -2.7567   23.2828 H   0  0  0  0  0  0
  -22.4007  -11.9957   22.4895 H   0  0  0  0  0  0
  -21.1056  -13.1339   22.2608 H   0  0  0  0  0  0
  -24.6834  -15.8484   20.6166 H   0  0  0  0  0  0
  -26.3072  -15.6369   20.1960 H   0  0  0  0  0  0
  -26.7170  -32.5451   23.1109 H   0  0  0  0  0  0
  -25.0064  -33.9705   25.0444 H   0  0  0  0  0  0
  -22.7143  -31.3056   21.4050 H   0  0  0  0  0  0
  -23.3788  -35.9581   23.3225 H   0  0  0  0  0  0
  -24.3622  -36.8970   22.2074 H   0  0  0  0  0  0
  -23.7184  -37.6452   23.6688 H   0  0  0  0  0  0
  -26.0891  -31.5398   20.6000 H   0  0  0  0  0  0
  -26.8443  -30.8367   22.0013 H   0  0  0  0  0  0
  -28.1126  -28.9640   21.2040 H   0  0  0  0  0  0
  -25.9920  -25.9105   19.0210 H   0  0  0  0  0  0
  -23.9577  -27.2931   19.0311 H   0  0  0  0  0  0
  -23.7589  -30.5918   19.4070 H   0  0  0  0  0  0
  -22.7510  -29.2480   19.8642 H   0  0  0  0  0  0
  -25.1273  -36.1939   25.0839 H   0  0  0  0  0  0
  -20.9950  -28.3245   24.1409 H   0  0  0  0  0  0
  -20.5687  -26.2308   23.3580 H   0  0  0  0  0  0
  -21.6620  -26.7476   22.1154 H   0  0  0  0  0  0
  -19.6873  -25.6291   21.1250 H   0  0  0  0  0  0
  -19.6627  -27.3181   20.6725 H   0  0  0  0  0  0
  -17.4167  -26.6648   21.4077 H   0  0  0  0  0  0
  -18.0334  -26.0068   22.9065 H   0  0  0  0  0  0
  -19.7917  -30.7259   24.2283 H   0  0  0  0  0  0
  -17.5008  -31.6300   24.5102 H   0  0  0  0  0  0
  -15.5336  -30.2990   23.7662 H   0  0  0  0  0  0
  -15.8651  -28.0790   22.7148 H   0  0  0  0  0  0
  -24.5566  -30.7653   25.7798 H   0  0  0  0  0  0
  -24.9449  -32.3026   26.5409 H   0  0  0  0  0  0
  -25.8007  -30.8446   27.0042 H   0  0  0  0  0  0
  -26.2720  -29.6739   24.1304 H   0  0  0  0  0  0
  -27.3951  -29.7221   25.4687 H   0  0  0  0  0  0
  -27.8625  -30.4163   23.9349 H   0  0  0  0  0  0
  -27.2891  -33.3631   26.1921 H   0  0  0  0  0  0
  -28.3930  -32.6682   25.0156 H   0  0  0  0  0  0
  -28.0824  -31.8391   26.5320 H   0  0  0  0  0  0
  -28.2581  -38.0102   24.7572 H   0  0  0  0  0  0
  -28.1114  -36.2643   24.6192 H   0  0  0  0  0  0
  -27.2341  -37.1312   25.8868 H   0  0  0  0  0  0
  -20.9370  -29.8793   21.6921 H   0  0  0  0  0  0
  -26.0176  -38.2856   24.1464 H   0  0  0  0  0  0
  -30.9555  -17.1811   18.9576 H   0  0  0  0  0  0
  -28.4277  -17.5724   22.3886 H   0  0  0  0  0  0
  -27.4794  -25.1726   21.5128 H   0  0  0  0  0  0
  -27.4325  -22.2409   20.8108 H   0  0  0  0  0  0
  -28.8434  -22.4941   21.8369 H   0  0  0  0  0  0
  -30.9638  -22.1888   18.8824 H   0  0  0  0  0  0
  -29.4829  -21.9801   17.9165 H   0  0  0  0  0  0
  -31.1406  -18.7552   17.4394 H   0  0  0  0  0  0
  -31.7054  -20.2286   18.2089 H   0  0  0  0  0  0
  -30.1047  -20.1329   17.4067 H   0  0  0  0  0  0
  -28.9792  -15.3321   21.4848 H   0  0  0  0  0  0
  1 25  1  0  0  0
  1 30  2  0  0  0
  1 84  1  0  0  0
  2  3  1  0  0  0
  2 25  1  0  0  0
  2 87  1  0  0  0
  2 88  1  0  0  0
  3  4  1  0  0  0
  3 89  1  0  0  0
  3 90  1  0  0  0
  4  5  1  0  0  0
  4 91  1  0  0  0
  4 92  1  0  0  0
  5  6  1  0  0  0
  5 26  1  0  0  0
  5 93  1  0  0  0
  6 25  1  0  0  0
  6 94  1  0  0  0
  6 95  1  0  0  0
  7  8  2  0  0  0
  7 26  1  0  0  0
  7 29  1  0  0  0
  8  9  1  0  0  0
  8 22  1  0  0  0
  9 10  1  0  0  0
  9 27  2  0  0  0
 10 11  2  0  0  0
 10 15  1  0  0  0
 11 12  1  0  0  0
 11 96  1  0  0  0
 12 13  2  0  0  0
 12 97  1  0  0  0
 13 14  1  0  0  0
 13 31  1  0  0  0
 14 15  2  0  0  0
 14 98  1  0  0  0
 15 99  1  0  0  0
 16 17  2  0  0  0
 16 21  1  0  0  0
 16 31  1  0  0  0
 17 18  1  0  0  0
 17100  1  0  0  0
 18 19  2  0  0  0
 18101  1  0  0  0
 19 20  1  0  0  0
 19 24  1  0  0  0
 20 21  2  0  0  0
 20102  1  0  0  0
 21 23  1  0  0  0
 22 28  1  0  0  0
 22 32  2  0  0  0
 26 27  1  0  0  0
 28103  1  0  0  0
 28104  1  0  0  0
 29105  1  0  0  0
 29106  1  0  0  0
 33 34  1  0  0  0
 33 66  1  0  0  0
 33 70  2  0  0  0
 34 36  1  0  0  0
 34 59  1  0  0  0
 34107  1  0  0  0
 35 44  2  0  0  0
 35 45  1  0  0  0
 35 68  1  0  0  0
 36 56  1  0  0  0
 36108  1  0  0  0
 37 39  1  0  0  0
 37 47  1  0  0  0
 37 66  1  0  0  0
 37109  1  0  0  0
 38 43  2  0  0  0
 38 46  1  0  0  0
 38 47  1  0  0  0
 39 64  1  0  0  0
 39 67  2  0  0  0
 40 52  1  0  0  0
 40 53  2  0  0  0
 40 58  1  0  0  0
 41110  1  0  0  0
 41111  1  0  0  0
 41112  1  0  0  0
 41 48  1  0  0  0
 42 43  1  0  0  0
 42 66  1  0  0  0
 42113  1  0  0  0
 42114  1  0  0  0
 43 44  1  0  0  0
 44115  1  0  0  0
 45 46  2  0  0  0
 45116  1  0  0  0
 46117  1  0  0  0
 47118  1  0  0  0
 47119  1  0  0  0
 48 56  1  0  0  0
 48 65  1  0  0  0
 48120  1  0  0  0
 49 50  1  0  0  0
 49 53  1  0  0  0
 49 64  1  0  0  0
 49121  1  0  0  0
 50 51  1  0  0  0
 50122  1  0  0  0
 50123  1  0  0  0
 51 52  1  0  0  0
 51124  1  0  0  0
 51125  1  0  0  0
 52126  1  0  0  0
 52127  1  0  0  0
 53 54  1  0  0  0
 54 55  2  0  0  0
 54128  1  0  0  0
 55 57  1  0  0  0
 55129  1  0  0  0
 56 69  2  0  0  0
 57 58  2  0  0  0
 57130  1  0  0  0
 58131  1  0  0  0
 59 60  1  0  0  0
 59 61  1  0  0  0
 59 62  1  0  0  0
 60132  1  0  0  0
 60133  1  0  0  0
 60134  1  0  0  0
 61135  1  0  0  0
 61136  1  0  0  0
 61137  1  0  0  0
 62138  1  0  0  0
 62139  1  0  0  0
 62140  1  0  0  0
 63 65  1  0  0  0
 63141  1  0  0  0
 63142  1  0  0  0
 63143  1  0  0  0
 64144  1  0  0  0
 65145  1  0  0  0
 68 79  1  0  0  0
 71 73  2  0  0  0
 71 75  1  0  0  0
 71146  1  0  0  0
 72 75  2  0  0  0
 72 76  1  0  0  0
 72147  1  0  0  0
 73 74  1  0  0  0
 73 82  1  0  0  0
 74 76  2  0  0  0
 74 83  1  0  0  0
 75 84  1  0  0  0
 76 86  1  0  0  0
 77 78  1  0  0  0
 77 79  2  0  0  0
 77 80  1  0  0  0
 78 81  1  0  0  0
 78 85  2  0  0  0
 79148  1  0  0  0
 80 83  1  0  0  0
 80149  1  0  0  0
 80150  1  0  0  0
 81 83  1  0  0  0
 81151  1  0  0  0
 81152  1  0  0  0
 82153  1  0  0  0
 82154  1  0  0  0
 82155  1  0  0  0
 84156  1  0  0  0
M  ISO  4   1 100  68 101  79 101  84 100
M  END
> <chiral flag>
0

> <version>
0

> <s_m_source_file>
/data/baiqing/PycharmProjects/Reinvent-master-3.2/result/LINK_invent/BTK/process_docking_weight1_custom_product_contain_oxygen_bond_distance_aromatic_linkinvent_7_9_3/rearranged_h_0090.sdf

> <i_m_source_file_index>
71

> <r_mmod_Potential_Energy-OPLS-2005>
181.36735534668

> <r_mmod_Stretch_Energy-OPLS-2005>
90.5658493041992

> <r_mmod_Bend_Energy-OPLS-2005>
198.453094482422

> <r_mmod_Torsional_Energy-OPLS-2005>
213.149765014648

> <r_mmod_Improper_Torsional_Energy-OPLS-2005>
3.48240876197815

> <r_mmod_Van_der_Waal_Energy-OPLS-2005>
146.9208984375

> <r_mmod_Electrostatic_Energy-OPLS-2005>
-293.779602050781

> <r_mmod_Solvation_Energy-OPLS-2005>
-235.124465942383

> <b_mmod_Minimization_Converged-OPLS-2005>
0

> <r_mmod_RMS_Derivative-OPLS-2005>
3.35501432418823

$$$$
71
                    3D
 Structure written by MMmdl.
150158  0  0  1  0            999 V2000
  -30.6108  -14.6777   20.4828 C   0  0  0  0  0  0
  -30.4398  -12.4129   19.4591 C   0  0  0  0  0  0
  -29.5096  -12.5077   18.2287 C   0  0  0  0  0  0
  -28.0330  -12.3414   18.6411 C   0  0  0  0  0  0
  -27.6506  -13.2208   19.8615 C   0  0  2  0  0  0
  -28.6967  -13.0969   20.9924 C   0  0  0  0  0  0
  -25.2544  -13.8174   20.5693 C   0  0  0  0  0  0
  -24.1813  -13.0430   20.9173 C   0  0  0  0  0  0
  -24.6395  -11.6906   20.8730 C   0  0  0  0  0  0
  -23.9067  -10.4288   21.0400 C   0  0  0  0  0  0
  -24.3617   -9.4206   21.9181 C   0  0  0  0  0  0
  -23.6291   -8.2243   22.0753 C   0  0  0  0  0  0
  -22.4273   -8.0280   21.3544 C   0  0  0  0  0  0
  -21.9908   -9.0253   20.4646 C   0  0  0  0  0  0
  -22.7237  -10.2131   20.3052 C   0  0  0  0  0  0
  -21.6853   -6.0735   22.5279 C   0  0  0  0  0  0
  -21.4015   -6.5639   23.8212 C   0  0  0  0  0  0
  -21.3659   -5.6792   24.9174 C   0  0  0  0  0  0
  -21.6044   -4.3054   24.7225 C   0  0  0  0  0  0
  -21.8819   -3.8146   23.4346 C   0  0  0  0  0  0
  -21.9193   -4.6963   22.3402 C   0  0  0  0  0  0
  -22.7837  -13.5221   21.1846 C   0  0  0  0  0  0
  -22.1661   -4.2148   21.0980 F   0  0  0  0  0  0
  -21.5628   -3.4538   25.7738 F   0  0  0  0  0  0
  -30.0079  -13.4454   20.4239 N   0  0  0  0  0  0
  -26.2981  -12.9367   20.3328 N   0  0  0  0  0  0
  -25.9328  -11.6516   20.5761 N   0  0  0  0  0  0
  -22.0488  -12.8214   22.0410 N   0  0  0  0  0  0
  -25.4230  -15.1902   20.4167 N   0  0  0  0  0  0
  -31.7825  -14.8246   20.1231 O   0  0  0  0  0  0
  -21.6639   -6.8877   21.4241 O   0  0  0  0  0  0
  -22.3515  -14.5528   20.6701 O   0  0  0  0  0  0
  -24.6279  -31.8582   23.2011 C   0  0  0  0  0  0
  -25.9119  -32.4771   23.8346 C   0  0  1  0  0  0
  -27.2237  -27.3001   20.1186 C   0  0  0  0  0  0
  -25.5927  -33.8572   24.2271 N   0  0  0  0  0  0
  -23.4226  -30.4818   21.5442 C   0  0  2  0  0  0
  -24.8693  -28.9348   20.1105 C   0  0  0  0  0  0
  -22.7484  -29.4617   22.4927 C   0  0  0  0  0  0
  -18.0288  -28.1385   22.8486 C   0  0  0  0  0  0
  -24.1489  -36.7291   23.2639 C   0  0  0  0  0  0
  -25.9657  -30.7832   21.3752 C   0  0  0  0  0  0
  -26.0395  -29.4094   20.7161 C   0  0  0  0  0  0
  -27.2196  -28.6044   20.7090 C   0  0  0  0  0  0
  -26.0288  -26.8844   19.4865 C   0  0  0  0  0  0
  -24.8671  -27.6788   19.4863 C   0  0  0  0  0  0
  -23.6382  -29.8170   20.1596 C   0  0  0  0  0  0
  -25.4115  -36.3079   24.0327 C   0  0  1  0  0  0
  -20.5890  -28.3692   23.1278 C   0  0  2  0  0  0
  -20.6777  -26.9413   22.5409 C   0  0  0  0  0  0
  -19.5751  -26.6383   21.5212 C   0  0  0  0  0  0
  -18.1932  -26.7927   22.1626 C   0  0  0  0  0  0
  -19.1541  -28.8855   23.2877 C   0  0  0  0  0  0
  -18.9463  -30.1457   23.8895 C   0  0  0  0  0  0
  -17.6462  -30.6587   24.0563 C   0  0  0  0  0  0
  -25.9052  -34.9448   23.5100 C   0  0  0  0  0  0
  -16.5354  -29.9085   23.6330 C   0  0  0  0  0  0
  -16.7275  -28.6502   23.0352 C   0  0  0  0  0  0
  -26.4497  -31.6586   25.0724 C   0  0  0  0  0  0
  -25.3726  -31.3730   26.1448 C   0  0  0  0  0  0
  -27.0344  -30.3008   24.6192 C   0  0  0  0  0  0
  -27.6051  -32.4327   25.7497 C   0  0  0  0  0  0
  -27.5579  -37.1802   24.8465 C   0  0  0  0  0  0
  -21.4195  -29.3043   22.3671 N   0  0  0  0  0  0
  -26.4292  -37.3774   23.9407 N   0  0  0  0  0  0
  -24.6910  -31.0579   22.0969 N   0  0  0  0  0  0
  -23.4200  -28.8155   23.3013 O   0  0  0  0  0  0
  -28.3347  -26.4367   20.1750 O   0  0  0  0  0  0
  -26.5623  -34.8917   22.4668 O   0  0  0  0  0  0
  -23.5438  -32.1387   23.7329 O   0  0  0  0  0  0
  -31.1101  -19.3372   20.2412 C   0  0  0  0  0  0
  -31.0833  -17.9091   20.2845 C   0  0  0  0  0  0
  -28.8064  -19.4469   20.8983 C   0  0  0  0  0  0
  -29.9865  -20.1611   20.5574 C   0  0  0  0  0  0
  -29.9127  -17.2005   20.6585 C   0  0  0  0  0  0
  -28.7767  -18.0141   20.9442 C   0  0  0  0  0  0
  -30.1715  -21.6982   20.6967 C   0  0  0  0  0  0
  -29.2983  -24.0227   20.4600 C   0  0  0  0  0  0
  -28.1085  -24.9671   20.0116 C   0  0  0  0  0  0
  -29.7891  -15.7385   20.7825 N   0  0  0  0  0  0
  -29.2078  -22.6361   20.3775 N   0  0  0  0  0  0
  -31.2927  -22.0380   21.0925 O   0  0  0  0  0  0
  -30.3045  -24.6038   20.8861 O   0  0  0  0  0  0
  -27.6228  -17.3970   21.2952 F   0  0  0  0  0  0
  -31.4803  -12.5417   19.1559 H   0  0  0  0  0  0
  -30.3811  -11.4224   19.9130 H   0  0  0  0  0  0
  -29.7792  -11.7492   17.4925 H   0  0  0  0  0  0
  -29.6463  -13.4725   17.7374 H   0  0  0  0  0  0
  -27.8757  -11.2893   18.8816 H   0  0  0  0  0  0
  -27.3776  -12.5604   17.7974 H   0  0  0  0  0  0
  -27.6602  -14.2521   19.5086 H   0  0  0  0  0  0
  -28.7163  -12.0808   21.3891 H   0  0  0  0  0  0
  -28.4394  -13.7410   21.8347 H   0  0  0  0  0  0
  -25.2764   -9.5682   22.4753 H   0  0  0  0  0  0
  -24.0000   -7.4636   22.7474 H   0  0  0  0  0  0
  -21.0838   -8.8772   19.8953 H   0  0  0  0  0  0
  -22.3696  -10.9669   19.6160 H   0  0  0  0  0  0
  -21.2009   -7.6148   23.9715 H   0  0  0  0  0  0
  -21.1480   -6.0522   25.9077 H   0  0  0  0  0  0
  -22.0599   -2.7608   23.2847 H   0  0  0  0  0  0
  -22.4108  -11.9875   22.4794 H   0  0  0  0  0  0
  -21.1109  -13.1242   22.2627 H   0  0  0  0  0  0
  -24.6618  -15.8430   20.5650 H   0  0  0  0  0  0
  -26.2926  -15.6523   20.1826 H   0  0  0  0  0  0
  -26.7186  -32.5434   23.1092 H   0  0  0  0  0  0
  -25.0069  -33.9713   25.0413 H   0  0  0  0  0  0
  -22.7173  -31.3030   21.4006 H   0  0  0  0  0  0
  -23.3749  -35.9626   23.3304 H   0  0  0  0  0  0
  -24.3579  -36.8911   22.2053 H   0  0  0  0  0  0
  -23.7245  -37.6494   23.6661 H   0  0  0  0  0  0
  -26.1003  -31.5465   20.6076 H   0  0  0  0  0  0
  -26.8449  -30.8308   22.0063 H   0  0  0  0  0  0
  -28.1164  -28.9635   21.1943 H   0  0  0  0  0  0
  -25.9613  -25.9265   18.9934 H   0  0  0  0  0  0
  -23.9707  -27.3105   19.0063 H   0  0  0  0  0  0
  -23.7591  -30.5938   19.4036 H   0  0  0  0  0  0
  -22.7576  -29.2480   19.8561 H   0  0  0  0  0  0
  -25.1296  -36.1930   25.0820 H   0  0  0  0  0  0
  -20.9983  -28.3268   24.1398 H   0  0  0  0  0  0
  -20.5678  -26.2301   23.3610 H   0  0  0  0  0  0
  -21.6645  -26.7440   22.1202 H   0  0  0  0  0  0
  -19.6913  -25.6294   21.1242 H   0  0  0  0  0  0
  -19.6687  -27.3193   20.6742 H   0  0  0  0  0  0
  -17.4200  -26.6671   21.4031 H   0  0  0  0  0  0
  -18.0336  -26.0071   22.9025 H   0  0  0  0  0  0
  -19.7939  -30.7274   24.2263 H   0  0  0  0  0  0
  -17.5017  -31.6267   24.5165 H   0  0  0  0  0  0
  -15.5354  -30.2986   23.7654 H   0  0  0  0  0  0
  -15.8676  -28.0821   22.7068 H   0  0  0  0  0  0
  -24.5899  -30.7081   25.7776 H   0  0  0  0  0  0
  -24.8920  -32.2899   26.4871 H   0  0  0  0  0  0
  -25.8046  -30.8907   27.0225 H   0  0  0  0  0  0
  -26.2925  -29.6756   24.1211 H   0  0  0  0  0  0
  -27.4031  -29.7268   25.4703 H   0  0  0  0  0  0
  -27.8798  -30.4290   23.9427 H   0  0  0  0  0  0
  -27.2655  -33.3626   26.2071 H   0  0  0  0  0  0
  -28.3863  -32.6891   25.0328 H   0  0  0  0  0  0
  -28.0717  -31.8457   26.5418 H   0  0  0  0  0  0
  -28.2597  -38.0098   24.7509 H   0  0  0  0  0  0
  -28.1074  -36.2629   24.6295 H   0  0  0  0  0  0
  -27.2296  -37.1455   25.8868 H   0  0  0  0  0  0
  -20.9374  -29.8769   21.6883 H   0  0  0  0  0  0
  -26.0173  -38.2849   24.1405 H   0  0  0  0  0  0
  -32.0487  -19.8141   19.9924 H   0  0  0  0  0  0
  -31.9899  -17.3703   20.0503 H   0  0  0  0  0  0
  -27.9173  -19.9922   21.1786 H   0  0  0  0  0  0
  -27.2313  -24.6657   20.5856 H   0  0  0  0  0  0
  -27.9017  -24.7520   18.9629 H   0  0  0  0  0  0
  -28.8665  -15.4476   21.0683 H   0  0  0  0  0  0
  -28.3389  -22.2659   20.0265 H   0  0  0  0  0  0
  1 25  1  0  0  0
  1 30  2  0  0  0
  1 80  1  0  0  0
  2  3  1  0  0  0
  2 25  1  0  0  0
  2 85  1  0  0  0
  2 86  1  0  0  0
  3  4  1  0  0  0
  3 87  1  0  0  0
  3 88  1  0  0  0
  4  5  1  0  0  0
  4 89  1  0  0  0
  4 90  1  0  0  0
  5  6  1  0  0  0
  5 26  1  0  0  0
  5 91  1  0  0  0
  6 25  1  0  0  0
  6 92  1  0  0  0
  6 93  1  0  0  0
  7  8  2  0  0  0
  7 26  1  0  0  0
  7 29  1  0  0  0
  8  9  1  0  0  0
  8 22  1  0  0  0
  9 10  1  0  0  0
  9 27  2  0  0  0
 10 11  2  0  0  0
 10 15  1  0  0  0
 11 12  1  0  0  0
 11 94  1  0  0  0
 12 13  2  0  0  0
 12 95  1  0  0  0
 13 14  1  0  0  0
 13 31  1  0  0  0
 14 15  2  0  0  0
 14 96  1  0  0  0
 15 97  1  0  0  0
 16 17  2  0  0  0
 16 21  1  0  0  0
 16 31  1  0  0  0
 17 18  1  0  0  0
 17 98  1  0  0  0
 18 19  2  0  0  0
 18 99  1  0  0  0
 19 20  1  0  0  0
 19 24  1  0  0  0
 20 21  2  0  0  0
 20100  1  0  0  0
 21 23  1  0  0  0
 22 28  1  0  0  0
 22 32  2  0  0  0
 26 27  1  0  0  0
 28101  1  0  0  0
 28102  1  0  0  0
 29103  1  0  0  0
 29104  1  0  0  0
 33 34  1  0  0  0
 33 66  1  0  0  0
 33 70  2  0  0  0
 34 36  1  0  0  0
 34 59  1  0  0  0
 34105  1  0  0  0
 35 44  2  0  0  0
 35 45  1  0  0  0
 35 68  1  0  0  0
 36 56  1  0  0  0
 36106  1  0  0  0
 37 39  1  0  0  0
 37 47  1  0  0  0
 37 66  1  0  0  0
 37107  1  0  0  0
 38 43  2  0  0  0
 38 46  1  0  0  0
 38 47  1  0  0  0
 39 64  1  0  0  0
 39 67  2  0  0  0
 40 52  1  0  0  0
 40 53  2  0  0  0
 40 58  1  0  0  0
 41108  1  0  0  0
 41109  1  0  0  0
 41110  1  0  0  0
 41 48  1  0  0  0
 42 43  1  0  0  0
 42 66  1  0  0  0
 42111  1  0  0  0
 42112  1  0  0  0
 43 44  1  0  0  0
 44113  1  0  0  0
 45 46  2  0  0  0
 45114  1  0  0  0
 46115  1  0  0  0
 47116  1  0  0  0
 47117  1  0  0  0
 48 56  1  0  0  0
 48 65  1  0  0  0
 48118  1  0  0  0
 49 50  1  0  0  0
 49 53  1  0  0  0
 49 64  1  0  0  0
 49119  1  0  0  0
 50 51  1  0  0  0
 50120  1  0  0  0
 50121  1  0  0  0
 51 52  1  0  0  0
 51122  1  0  0  0
 51123  1  0  0  0
 52124  1  0  0  0
 52125  1  0  0  0
 53 54  1  0  0  0
 54 55  2  0  0  0
 54126  1  0  0  0
 55 57  1  0  0  0
 55127  1  0  0  0
 56 69  2  0  0  0
 57 58  2  0  0  0
 57128  1  0  0  0
 58129  1  0  0  0
 59 60  1  0  0  0
 59 61  1  0  0  0
 59 62  1  0  0  0
 60130  1  0  0  0
 60131  1  0  0  0
 60132  1  0  0  0
 61133  1  0  0  0
 61134  1  0  0  0
 61135  1  0  0  0
 62136  1  0  0  0
 62137  1  0  0  0
 62138  1  0  0  0
 63 65  1  0  0  0
 63139  1  0  0  0
 63140  1  0  0  0
 63141  1  0  0  0
 64142  1  0  0  0
 65143  1  0  0  0
 68 79  1  0  0  0
 71 72  2  0  0  0
 71 74  1  0  0  0
 71144  1  0  0  0
 72 75  1  0  0  0
 72145  1  0  0  0
 73 74  2  0  0  0
 73 76  1  0  0  0
 73146  1  0  0  0
 74 77  1  0  0  0
 75 76  2  0  0  0
 75 80  1  0  0  0
 76 84  1  0  0  0
 77 81  1  0  0  0
 77 82  2  0  0  0
 78 79  1  0  0  0
 78 81  1  0  0  0
 78 83  2  0  0  0
 79147  1  0  0  0
 79148  1  0  0  0
 80149  1  0  0  0
 81150  1  0  0  0
M  ISO  4   1 100  68 101  79 101  80 100
M  END
> <chiral flag>
0

> <version>
0

> <s_m_source_file>
/data/baiqing/PycharmProjects/Reinvent-master-3.2/result/LINK_invent/BTK/process_docking_weight1_custom_product_contain_oxygen_bond_distance_aromatic_linkinvent_7_9_3/rearranged_h_0090.sdf

> <i_m_source_file_index>
72

> <r_mmod_Potential_Energy-OPLS-2005>
-114.081840515137

> <r_mmod_Stretch_Energy-OPLS-2005>
91.3526306152344

> <r_mmod_Bend_Energy-OPLS-2005>
150.067779541016

> <r_mmod_Torsional_Energy-OPLS-2005>
219.889465332031

> <r_mmod_Improper_Torsional_Energy-OPLS-2005>
5.02043676376343

> <r_mmod_Van_der_Waal_Energy-OPLS-2005>
151.793029785156

> <r_mmod_Electrostatic_Energy-OPLS-2005>
-507.714721679688

> <r_mmod_Solvation_Energy-OPLS-2005>
-284.386077880859

> <b_mmod_Minimization_Converged-OPLS-2005>
0

> <r_mmod_RMS_Derivative-OPLS-2005>
0.106859803199768

$$$$
72
                    3D
 Structure written by MMmdl.
160169  0  0  1  0            999 V2000
  -30.6330  -14.7766   20.3836 C   0  0  0  0  0  0
  -30.4233  -12.4531   19.4846 C   0  0  0  0  0  0
  -29.4956  -12.4029   18.2469 C   0  0  0  0  0  0
  -28.0146  -12.3226   18.6584 C   0  0  0  0  0  0
  -27.6366  -13.2470   19.8504 C   0  0  2  0  0  0
  -28.6924  -13.2386   20.9730 C   0  0  0  0  0  0
  -25.2553  -13.8319   20.5893 C   0  0  0  0  0  0
  -24.1859  -13.0518   20.9250 C   0  0  0  0  0  0
  -24.6424  -11.6971   20.8782 C   0  0  0  0  0  0
  -23.9092  -10.4357   21.0395 C   0  0  0  0  0  0
  -24.3609   -9.4278   21.9184 C   0  0  0  0  0  0
  -23.6296   -8.2311   22.0765 C   0  0  0  0  0  0
  -22.4291   -8.0333   21.3552 C   0  0  0  0  0  0
  -21.9969   -9.0285   20.4607 C   0  0  0  0  0  0
  -22.7292  -10.2176   20.3021 C   0  0  0  0  0  0
  -21.6852   -6.0765   22.5301 C   0  0  0  0  0  0
  -21.4024   -6.5650   23.8248 C   0  0  0  0  0  0
  -21.3664   -5.6784   24.9203 C   0  0  0  0  0  0
  -21.6059   -4.3057   24.7244 C   0  0  0  0  0  0
  -21.8811   -3.8168   23.4359 C   0  0  0  0  0  0
  -21.9197   -4.6993   22.3419 C   0  0  0  0  0  0
  -22.7908  -13.5277   21.1891 C   0  0  0  0  0  0
  -22.1653   -4.2184   21.0989 F   0  0  0  0  0  0
  -21.5636   -3.4540   25.7741 F   0  0  0  0  0  0
  -29.9743  -13.5654   20.3469 N   0  0  0  0  0  0
  -26.2972  -12.9538   20.3506 N   0  0  0  0  0  0
  -25.9372  -11.6654   20.5918 N   0  0  0  0  0  0
  -22.0554  -12.8203   22.0357 N   0  0  0  0  0  0
  -25.4317  -15.2089   20.4448 N   0  0  0  0  0  0
  -31.8662  -14.7861   20.3630 O   0  0  0  0  0  0
  -21.6637   -6.8940   21.4275 O   0  0  0  0  0  0
  -22.3646  -14.5600   20.6713 O   0  0  0  0  0  0
  -24.6219  -31.8686   23.2072 C   0  0  0  0  0  0
  -25.9074  -32.4815   23.8408 C   0  0  1  0  0  0
  -27.2040  -27.3331   20.1062 C   0  0  0  0  0  0
  -25.5935  -33.8617   24.2338 N   0  0  0  0  0  0
  -23.4171  -30.4932   21.5457 C   0  0  2  0  0  0
  -24.8647  -28.9621   20.1013 C   0  0  0  0  0  0
  -22.7458  -29.4724   22.4948 C   0  0  0  0  0  0
  -18.0313  -28.1449   22.8523 C   0  0  0  0  0  0
  -24.1485  -36.7301   23.2648 C   0  0  0  0  0  0
  -25.9599  -30.7887   21.3963 C   0  0  0  0  0  0
  -26.0264  -29.4185   20.7387 C   0  0  0  0  0  0
  -27.1981  -28.6060   20.7502 C   0  0  0  0  0  0
  -26.0556  -26.9792   19.3726 C   0  0  0  0  0  0
  -24.8797  -27.7436   19.4087 C   0  0  0  0  0  0
  -23.6319  -29.8369   20.1569 C   0  0  0  0  0  0
  -25.4102  -36.3120   24.0359 C   0  0  1  0  0  0
  -20.5875  -28.3830   23.1386 C   0  0  2  0  0  0
  -20.6674  -26.9481   22.5787 C   0  0  0  0  0  0
  -19.5849  -26.6506   21.5348 C   0  0  0  0  0  0
  -18.2023  -26.7936   22.1786 C   0  0  0  0  0  0
  -19.1546  -28.9015   23.2868 C   0  0  0  0  0  0
  -18.9411  -30.1636   23.8815 C   0  0  0  0  0  0
  -17.6389  -30.6714   24.0481 C   0  0  0  0  0  0
  -25.9045  -34.9489   23.5137 C   0  0  0  0  0  0
  -16.5315  -29.9117   23.6322 C   0  0  0  0  0  0
  -16.7276  -28.6505   23.0416 C   0  0  0  0  0  0
  -26.4463  -31.6629   25.0802 C   0  0  0  0  0  0
  -25.3689  -31.3731   26.1511 C   0  0  0  0  0  0
  -27.0321  -30.3051   24.6282 C   0  0  0  0  0  0
  -27.6044  -32.4367   25.7551 C   0  0  0  0  0  0
  -27.5575  -37.1807   24.8468 C   0  0  0  0  0  0
  -21.4180  -29.2970   22.3543 N   0  0  0  0  0  0
  -26.4296  -37.3797   23.9420 N   0  0  0  0  0  0
  -24.6826  -31.0680   22.1040 N   0  0  0  0  0  0
  -23.4177  -28.8432   23.3156 O   0  0  0  0  0  0
  -28.2926  -26.4601   20.1002 O   0  0  0  0  0  0
  -26.5620  -34.8938   22.4708 O   0  0  0  0  0  0
  -23.5389  -32.1511   23.7377 O   0  0  0  0  0  0
  -30.0305  -19.6771   19.4571 C   0  0  0  0  0  0
  -30.4647  -18.3224   19.3936 C   0  0  0  0  0  0
  -28.9121  -20.0682   20.2339 C   0  0  0  0  0  0
  -29.8251  -17.2538   20.1026 C   0  0  0  0  0  0
  -28.3651  -19.0512   21.0865 C   0  0  0  0  0  0
  -28.8378  -17.6874   21.0368 C   0  0  0  0  0  0
  -26.7050  -23.6394   19.5870 C   0  0  0  0  0  0
  -27.0998  -21.3132   19.2344 C   0  0  0  0  0  0
  -27.8862  -23.8335   20.2144 C   0  0  0  0  0  0
  -26.3260  -22.3809   18.9985 C   0  0  0  0  0  0
  -28.7568  -22.6157   20.4391 C   0  0  0  0  0  0
  -30.2155  -15.6674   18.2343 C   0  0  0  0  0  0
  -28.1883  -25.2205   20.9047 C   0  0  0  0  0  0
  -28.2745  -21.3797   20.0198 N   0  0  0  0  0  0
  -27.3009  -19.3602   21.9449 N   0  0  0  0  0  0
  -30.0235  -15.8280   19.6972 N   0  0  0  0  0  0
  -29.8578  -22.6970   21.0006 O   0  0  0  0  0  0
  -25.2404  -22.2939   18.2207 O   0  0  0  0  0  0
  -28.2677  -16.7677   21.8537 F   0  0  0  0  0  0
  -31.4658  -12.5747   19.1928 H   0  0  0  0  0  0
  -30.3647  -11.5196   20.0452 H   0  0  0  0  0  0
  -29.7582  -11.5437   17.6320 H   0  0  0  0  0  0
  -29.6210  -13.2468   17.5816 H   0  0  0  0  0  0
  -27.8194  -11.2824   18.9158 H   0  0  0  0  0  0
  -27.3829  -12.5552   17.8011 H   0  0  0  0  0  0
  -27.6144  -14.2597   19.4483 H   0  0  0  0  0  0
  -28.7307  -12.2682   21.4710 H   0  0  0  0  0  0
  -28.4465  -13.9782   21.7381 H   0  0  0  0  0  0
  -25.2770   -9.5758   22.4758 H   0  0  0  0  0  0
  -24.0037   -7.4693   22.7466 H   0  0  0  0  0  0
  -21.0968   -8.8780   19.8797 H   0  0  0  0  0  0
  -22.3822  -10.9690   19.6074 H   0  0  0  0  0  0
  -21.2010   -7.6154   23.9778 H   0  0  0  0  0  0
  -21.1479   -6.0496   25.9099 H   0  0  0  0  0  0
  -22.0570   -2.7627   23.2836 H   0  0  0  0  0  0
  -22.4240  -11.9802   22.4606 H   0  0  0  0  0  0
  -21.1146  -13.1178   22.2466 H   0  0  0  0  0  0
  -24.6575  -15.8654   20.4044 H   0  0  0  0  0  0
  -26.3371  -15.6524   20.3507 H   0  0  0  0  0  0
  -26.7149  -32.5444   23.1174 H   0  0  0  0  0  0
  -25.0050  -33.9772   25.0447 H   0  0  0  0  0  0
  -22.7104  -31.3155   21.4062 H   0  0  0  0  0  0
  -23.3773  -35.9609   23.3311 H   0  0  0  0  0  0
  -24.3559  -36.8902   22.2061 H   0  0  0  0  0  0
  -23.7217  -37.6492   23.6648 H   0  0  0  0  0  0
  -26.1073  -31.5477   20.6246 H   0  0  0  0  0  0
  -26.8353  -30.8217   22.0306 H   0  0  0  0  0  0
  -28.0877  -28.9441   21.2613 H   0  0  0  0  0  0
  -26.0687  -26.1421   18.6965 H   0  0  0  0  0  0
  -24.0151  -27.4224   18.8419 H   0  0  0  0  0  0
  -23.7367  -30.6189   19.4022 H   0  0  0  0  0  0
  -22.7515  -29.2648   19.8637 H   0  0  0  0  0  0
  -25.1288  -36.1992   25.0864 H   0  0  0  0  0  0
  -20.9975  -28.3749   24.1538 H   0  0  0  0  0  0
  -20.5118  -26.2567   23.4090 H   0  0  0  0  0  0
  -21.6641  -26.7268   22.1971 H   0  0  0  0  0  0
  -19.7141  -25.6390   21.1506 H   0  0  0  0  0  0
  -19.6731  -27.3322   20.6858 H   0  0  0  0  0  0
  -17.4212  -26.6592   21.4291 H   0  0  0  0  0  0
  -18.0655  -26.0177   22.9344 H   0  0  0  0  0  0
  -19.7800  -30.7554   24.2198 H   0  0  0  0  0  0
  -17.4898  -31.6424   24.4998 H   0  0  0  0  0  0
  -15.5283  -30.2975   23.7613 H   0  0  0  0  0  0
  -15.8650  -28.0808   22.7250 H   0  0  0  0  0  0
  -24.5878  -30.7109   25.7775 H   0  0  0  0  0  0
  -24.8877  -32.2885   26.4967 H   0  0  0  0  0  0
  -25.7986  -30.8840   27.0262 H   0  0  0  0  0  0
  -26.2892  -29.6808   24.1306 H   0  0  0  0  0  0
  -27.4003  -29.7319   25.4804 H   0  0  0  0  0  0
  -27.8780  -30.4367   23.9527 H   0  0  0  0  0  0
  -27.2687  -33.3669   26.2124 H   0  0  0  0  0  0
  -28.3813  -32.6915   25.0354 H   0  0  0  0  0  0
  -28.0758  -31.8517   26.5442 H   0  0  0  0  0  0
  -28.2622  -38.0078   24.7522 H   0  0  0  0  0  0
  -28.1058  -36.2627   24.6304 H   0  0  0  0  0  0
  -27.2299  -37.1455   25.8869 H   0  0  0  0  0  0
  -20.9409  -29.8140   21.6305 H   0  0  0  0  0  0
  -26.0186  -38.2888   24.1371 H   0  0  0  0  0  0
  -30.5194  -20.4068   18.8250 H   0  0  0  0  0  0
  -31.2869  -18.1208   18.7219 H   0  0  0  0  0  0
  -25.9637  -24.4144   19.5941 H   0  0  0  0  0  0
  -26.8905  -20.3382   18.8118 H   0  0  0  0  0  0
  -30.8400  -14.8119   17.9771 H   0  0  0  0  0  0
  -30.7574  -16.4584   17.7291 H   0  0  0  0  0  0
  -29.2480  -15.5671   17.7388 H   0  0  0  0  0  0
  -27.4328  -25.3632   21.6804 H   0  0  0  0  0  0
  -29.1310  -25.1466   21.4444 H   0  0  0  0  0  0
  -26.8432  -18.5651   22.3783 H   0  0  0  0  0  0
  -26.6146  -20.0221   21.5981 H   0  0  0  0  0  0
  -25.2095  -21.4129   17.8610 H   0  0  0  0  0  0
  1 25  1  0  0  0
  1 30  2  0  0  0
  1 86  1  0  0  0
  2  3  1  0  0  0
  2 25  1  0  0  0
  2 90  1  0  0  0
  2 91  1  0  0  0
  3  4  1  0  0  0
  3 92  1  0  0  0
  3 93  1  0  0  0
  4  5  1  0  0  0
  4 94  1  0  0  0
  4 95  1  0  0  0
  5  6  1  0  0  0
  5 26  1  0  0  0
  5 96  1  0  0  0
  6 25  1  0  0  0
  6 97  1  0  0  0
  6 98  1  0  0  0
  7  8  2  0  0  0
  7 26  1  0  0  0
  7 29  1  0  0  0
  8  9  1  0  0  0
  8 22  1  0  0  0
  9 10  1  0  0  0
  9 27  2  0  0  0
 10 11  2  0  0  0
 10 15  1  0  0  0
 11 12  1  0  0  0
 11 99  1  0  0  0
 12 13  2  0  0  0
 12100  1  0  0  0
 13 14  1  0  0  0
 13 31  1  0  0  0
 14 15  2  0  0  0
 14101  1  0  0  0
 15102  1  0  0  0
 16 17  2  0  0  0
 16 21  1  0  0  0
 16 31  1  0  0  0
 17 18  1  0  0  0
 17103  1  0  0  0
 18 19  2  0  0  0
 18104  1  0  0  0
 19 20  1  0  0  0
 19 24  1  0  0  0
 20 21  2  0  0  0
 20105  1  0  0  0
 21 23  1  0  0  0
 22 28  1  0  0  0
 22 32  2  0  0  0
 26 27  1  0  0  0
 28106  1  0  0  0
 28107  1  0  0  0
 29108  1  0  0  0
 29109  1  0  0  0
 33 34  1  0  0  0
 33 66  1  0  0  0
 33 70  2  0  0  0
 34 36  1  0  0  0
 34 59  1  0  0  0
 34110  1  0  0  0
 35 44  2  0  0  0
 35 45  1  0  0  0
 35 68  1  0  0  0
 36 56  1  0  0  0
 36111  1  0  0  0
 37 39  1  0  0  0
 37 47  1  0  0  0
 37 66  1  0  0  0
 37112  1  0  0  0
 38 43  2  0  0  0
 38 46  1  0  0  0
 38 47  1  0  0  0
 39 64  1  0  0  0
 39 67  2  0  0  0
 40 52  1  0  0  0
 40 53  2  0  0  0
 40 58  1  0  0  0
 41113  1  0  0  0
 41114  1  0  0  0
 41115  1  0  0  0
 41 48  1  0  0  0
 42 43  1  0  0  0
 42 66  1  0  0  0
 42116  1  0  0  0
 42117  1  0  0  0
 43 44  1  0  0  0
 44118  1  0  0  0
 45 46  2  0  0  0
 45119  1  0  0  0
 46120  1  0  0  0
 47121  1  0  0  0
 47122  1  0  0  0
 48 56  1  0  0  0
 48 65  1  0  0  0
 48123  1  0  0  0
 49 50  1  0  0  0
 49 53  1  0  0  0
 49 64  1  0  0  0
 49124  1  0  0  0
 50 51  1  0  0  0
 50125  1  0  0  0
 50126  1  0  0  0
 51 52  1  0  0  0
 51127  1  0  0  0
 51128  1  0  0  0
 52129  1  0  0  0
 52130  1  0  0  0
 53 54  1  0  0  0
 54 55  2  0  0  0
 54131  1  0  0  0
 55 57  1  0  0  0
 55132  1  0  0  0
 56 69  2  0  0  0
 57 58  2  0  0  0
 57133  1  0  0  0
 58134  1  0  0  0
 59 60  1  0  0  0
 59 61  1  0  0  0
 59 62  1  0  0  0
 60135  1  0  0  0
 60136  1  0  0  0
 60137  1  0  0  0
 61138  1  0  0  0
 61139  1  0  0  0
 61140  1  0  0  0
 62141  1  0  0  0
 62142  1  0  0  0
 62143  1  0  0  0
 63 65  1  0  0  0
 63144  1  0  0  0
 63145  1  0  0  0
 63146  1  0  0  0
 64147  1  0  0  0
 65148  1  0  0  0
 68 83  1  0  0  0
 71 72  2  0  0  0
 71 73  1  0  0  0
 71149  1  0  0  0
 72 74  1  0  0  0
 72150  1  0  0  0
 73 75  2  0  0  0
 73 84  1  0  0  0
 74 76  2  0  0  0
 74 86  1  0  0  0
 75 76  1  0  0  0
 75 85  1  0  0  0
 76 89  1  0  0  0
 77 79  2  0  0  0
 77 80  1  0  0  0
 77151  1  0  0  0
 78 80  2  0  0  0
 78 84  1  0  0  0
 78152  1  0  0  0
 79 81  1  0  0  0
 79 83  1  0  0  0
 80 88  1  0  0  0
 81 84  1  0  0  0
 81 87  2  0  0  0
 82 86  1  0  0  0
 82153  1  0  0  0
 82154  1  0  0  0
 82155  1  0  0  0
 83156  1  0  0  0
 83157  1  0  0  0
 85158  1  0  0  0
 85159  1  0  0  0
 88160  1  0  0  0
M  ISO  4   1 100  68 101  83 101  86 100
M  END
> <chiral flag>
0

> <version>
0

> <s_m_source_file>
/data/baiqing/PycharmProjects/Reinvent-master-3.2/result/LINK_invent/BTK/process_docking_weight1_custom_product_contain_oxygen_bond_distance_aromatic_linkinvent_7_9_3/rearranged_h_0090.sdf

> <i_m_source_file_index>
73

> <r_mmod_Potential_Energy-OPLS-2005>
500.036163330078

> <r_mmod_Stretch_Energy-OPLS-2005>
107.615425109863

> <r_mmod_Bend_Energy-OPLS-2005>
163.103942871094

> <r_mmod_Torsional_Energy-OPLS-2005>
427.270141601562

> <r_mmod_Improper_Torsional_Energy-OPLS-2005>
39.6276664733887

> <r_mmod_Van_der_Waal_Energy-OPLS-2005>
180.806747436523

> <r_mmod_Electrostatic_Energy-OPLS-2005>
-293.691040039062

> <r_mmod_Solvation_Energy-OPLS-2005>
-222.268936157227

> <b_mmod_Minimization_Converged-OPLS-2005>
0

> <r_mmod_RMS_Derivative-OPLS-2005>
9.06984424591064

$$$$
73
                    3D
 Structure written by MMmdl.
137144  0  0  1  0            999 V2000
  -30.0227  -16.3666   20.2760 C   0  0  0  0  0  0
  -30.3488  -13.6403   19.5352 C   0  0  0  0  0  0
  -29.5710  -12.8739   18.3979 C   0  0  0  0  0  0
  -28.2140  -12.3534   18.8785 C   0  0  0  0  0  0
  -27.5778  -13.3942   19.8136 C   0  0  2  0  0  0
  -28.5368  -14.0247   20.8787 C   0  0  0  0  0  0
  -25.2211  -13.8418   20.5910 C   0  0  0  0  0  0
  -24.1682  -13.0452   20.9333 C   0  0  0  0  0  0
  -24.6503  -11.7001   20.8752 C   0  0  0  0  0  0
  -23.9214  -10.4310   21.0358 C   0  0  0  0  0  0
  -24.3713   -9.4219   21.9159 C   0  0  0  0  0  0
  -23.6348   -8.2271   22.0749 C   0  0  0  0  0  0
  -22.4325   -8.0311   21.3544 C   0  0  0  0  0  0
  -21.9992   -9.0291   20.4637 C   0  0  0  0  0  0
  -22.7362  -10.2150   20.3027 C   0  0  0  0  0  0
  -21.6872   -6.0757   22.5278 C   0  0  0  0  0  0
  -21.4028   -6.5652   23.8214 C   0  0  0  0  0  0
  -21.3664   -5.6799   24.9172 C   0  0  0  0  0  0
  -21.6043   -4.3062   24.7219 C   0  0  0  0  0  0
  -21.8817   -3.8159   23.4338 C   0  0  0  0  0  0
  -21.9198   -4.6981   22.3397 C   0  0  0  0  0  0
  -22.7669  -13.5110   21.1938 C   0  0  0  0  0  0
  -22.1663   -4.2165   21.0975 F   0  0  0  0  0  0
  -21.5625   -3.4542   25.7729 F   0  0  0  0  0  0
  -29.5815  -14.8737   20.1787 N   0  0  0  0  0  0
  -26.2784  -12.9928   20.3396 N   0  0  0  0  0  0
  -25.9492  -11.6896   20.5675 N   0  0  0  0  0  0
  -22.0358  -12.8067   22.0488 N   0  0  0  0  0  0
  -25.3661  -15.2175   20.4343 N   0  0  0  0  0  0
  -31.2701  -16.1710   20.2087 O   0  0  0  0  0  0
  -21.6668   -6.8916   21.4247 O   0  0  0  0  0  0
  -22.3317  -14.5398   20.6771 O   0  0  0  0  0  0
  -24.7311  -31.7396   23.1101 C   0  0  0  0  0  0
  -25.9648  -32.4173   23.7833 C   0  0  1  0  0  0
  -27.2524  -26.1953   20.2622 C   0  0  0  0  0  0
  -25.6017  -33.8028   24.1662 N   0  0  0  0  0  0
  -23.5802  -30.3172   21.4762 C   0  0  2  0  0  0
  -25.0426  -28.5485   20.1363 C   0  0  0  0  0  0
  -22.7976  -29.3990   22.4583 C   0  0  0  0  0  0
  -18.0368  -28.1447   22.8429 C   0  0  0  0  0  0
  -24.1497  -36.7028   23.2667 C   0  0  0  0  0  0
  -26.1771  -30.3026   21.4536 C   0  0  0  0  0  0
  -26.2364  -28.8091   20.8170 C   0  0  0  0  0  0
  -27.2972  -27.6780   20.8356 C   0  0  0  0  0  0
  -26.0251  -26.2777   19.5095 C   0  0  0  0  0  0
  -25.0058  -27.3121   19.4574 C   0  0  0  0  0  0
  -23.8622  -29.5648   20.1348 C   0  0  0  0  0  0
  -25.4166  -36.2725   24.0246 C   0  0  1  0  0  0
  -20.6024  -28.3825   23.1054 C   0  0  2  0  0  0
  -20.6807  -26.9439   22.5414 C   0  0  0  0  0  0
  -19.5793  -26.6353   21.5222 C   0  0  0  0  0  0
  -18.1975  -26.7964   22.1610 C   0  0  0  0  0  0
  -19.1646  -28.8972   23.2706 C   0  0  0  0  0  0
  -18.9544  -30.1543   23.8773 C   0  0  0  0  0  0
  -17.6528  -30.6616   24.0539 C   0  0  0  0  0  0
  -25.9175  -34.9128   23.4831 C   0  0  0  0  0  0
  -16.5414  -29.9089   23.6363 C   0  0  0  0  0  0
  -16.7345  -28.6515   23.0375 C   0  0  0  0  0  0
  -26.4671  -31.6428   25.0663 C   0  0  0  0  0  0
  -25.3607  -31.3884   26.1185 C   0  0  0  0  0  0
  -27.0687  -30.2718   24.6928 C   0  0  0  0  0  0
  -27.6022  -32.4414   25.7505 C   0  0  0  0  0  0
  -27.5547  -37.1668   24.8467 C   0  0  0  0  0  0
  -21.4580  -29.2970   22.3320 N   0  0  0  0  0  0
  -26.4250  -37.3541   23.9406 N   0  0  0  0  0  0
  -24.8593  -30.8326   22.0646 N   0  0  0  0  0  0
  -23.4182  -28.7679   23.3164 O   0  0  0  0  0  0
  -28.1793  -24.7645   20.2868 O   0  0  0  0  0  0
  -26.5891  -34.8805   22.4500 O   0  0  0  0  0  0
  -23.6225  -32.0710   23.5731 O   0  0  0  0  0  0
  -28.4183  -21.2750   20.2622 C   0  0  0  0  0  0
  -28.1200  -22.9583   20.2645 C   0  0  0  0  0  0
  -29.4202  -19.6475   20.2898 C   0  0  0  0  0  0
  -29.2729  -17.9285   20.2812 N   0  0  0  0  0  0
  -30.6255  -19.9070   20.3240 O   0  0  0  0  0  0
  -31.2729  -14.0033   19.0844 H   0  0  0  0  0  0
  -30.6912  -12.9418   20.3014 H   0  0  0  0  0  0
  -30.1734  -12.0532   18.0061 H   0  0  0  0  0  0
  -29.4122  -13.5598   17.5647 H   0  0  0  0  0  0
  -28.3726  -11.4241   19.4271 H   0  0  0  0  0  0
  -27.5612  -12.1175   18.0370 H   0  0  0  0  0  0
  -27.3476  -14.2141   19.1311 H   0  0  0  0  0  0
  -28.9549  -13.2718   21.5492 H   0  0  0  0  0  0
  -27.9692  -14.6952   21.5248 H   0  0  0  0  0  0
  -25.2847   -9.5685   22.4754 H   0  0  0  0  0  0
  -24.0036   -7.4668   22.7487 H   0  0  0  0  0  0
  -21.0917   -8.8832   19.8946 H   0  0  0  0  0  0
  -22.3821  -10.9690   19.6138 H   0  0  0  0  0  0
  -21.2028   -7.6161   23.9723 H   0  0  0  0  0  0
  -21.1485   -6.0527   25.9076 H   0  0  0  0  0  0
  -22.0590   -2.7621   23.2833 H   0  0  0  0  0  0
  -22.4031  -11.9760   22.4890 H   0  0  0  0  0  0
  -21.0949  -13.1023   22.2675 H   0  0  0  0  0  0
  -24.5885  -15.8594   20.5440 H   0  0  0  0  0  0
  -26.2104  -15.6668   20.1052 H   0  0  0  0  0  0
  -26.7789  -32.4539   23.0585 H   0  0  0  0  0  0
  -24.9987  -33.8980   24.9700 H   0  0  0  0  0  0
  -22.9352  -31.1666   21.2416 H   0  0  0  0  0  0
  -23.3788  -35.9324   23.3238 H   0  0  0  0  0  0
  -24.3546  -36.8813   22.2100 H   0  0  0  0  0  0
  -23.7235  -37.6152   23.6847 H   0  0  0  0  0  0
  -26.4303  -30.9900   20.6454 H   0  0  0  0  0  0
  -27.0112  -30.3895   22.1360 H   0  0  0  0  0  0
  -28.1879  -27.9087   21.4027 H   0  0  0  0  0  0
  -25.7857  -25.3841   18.9505 H   0  0  0  0  0  0
  -24.1237  -27.0933   18.8713 H   0  0  0  0  0  0
  -24.0783  -30.3019   19.3608 H   0  0  0  0  0  0
  -22.9574  -29.0554   19.7991 H   0  0  0  0  0  0
  -25.1401  -36.1415   25.0733 H   0  0  0  0  0  0
  -21.0086  -28.3487   24.1190 H   0  0  0  0  0  0
  -20.5623  -26.2463   23.3720 H   0  0  0  0  0  0
  -21.6664  -26.7302   22.1264 H   0  0  0  0  0  0
  -19.6939  -25.6231   21.1331 H   0  0  0  0  0  0
  -19.6753  -27.3096   20.6702 H   0  0  0  0  0  0
  -17.4248  -26.6711   21.4009 H   0  0  0  0  0  0
  -18.0343  -26.0136   22.9031 H   0  0  0  0  0  0
  -19.8021  -30.7387   24.2090 H   0  0  0  0  0  0
  -17.5078  -31.6283   24.5167 H   0  0  0  0  0  0
  -15.5410  -30.2953   23.7759 H   0  0  0  0  0  0
  -15.8745  -28.0794   22.7161 H   0  0  0  0  0  0
  -24.5847  -30.7185   25.7464 H   0  0  0  0  0  0
  -24.8745  -32.3148   26.4253 H   0  0  0  0  0  0
  -25.7668  -30.9273   27.0197 H   0  0  0  0  0  0
  -26.3492  -29.6166   24.2012 H   0  0  0  0  0  0
  -27.4005  -29.7379   25.5844 H   0  0  0  0  0  0
  -27.9510  -30.3737   24.0609 H   0  0  0  0  0  0
  -27.2498  -33.3847   26.1690 H   0  0  0  0  0  0
  -28.4023  -32.6766   25.0474 H   0  0  0  0  0  0
  -28.0481  -31.8819   26.5739 H   0  0  0  0  0  0
  -28.2504  -38.0016   24.7512 H   0  0  0  0  0  0
  -28.1101  -36.2530   24.6300 H   0  0  0  0  0  0
  -27.2259  -37.1297   25.8867 H   0  0  0  0  0  0
  -21.0006  -29.8544   21.6239 H   0  0  0  0  0  0
  -26.0032  -38.2566   24.1426 H   0  0  0  0  0  0
  -27.4139  -20.8821   20.2129 H   0  0  0  0  0  0
  -29.1992  -22.9982   20.3104 H   0  0  0  0  0  0
  -28.2804  -17.7454   20.2650 H   0  0  0  0  0  0
  1 25  1  0  0  0
  1 30  2  0  0  0
  1 74  1  0  0  0
  2  3  1  0  0  0
  2 25  1  0  0  0
  2 76  1  0  0  0
  2 77  1  0  0  0
  3  4  1  0  0  0
  3 78  1  0  0  0
  3 79  1  0  0  0
  4  5  1  0  0  0
  4 80  1  0  0  0
  4 81  1  0  0  0
  5  6  1  0  0  0
  5 26  1  0  0  0
  5 82  1  0  0  0
  6 25  1  0  0  0
  6 83  1  0  0  0
  6 84  1  0  0  0
  7  8  2  0  0  0
  7 26  1  0  0  0
  7 29  1  0  0  0
  8  9  1  0  0  0
  8 22  1  0  0  0
  9 10  1  0  0  0
  9 27  2  0  0  0
 10 11  2  0  0  0
 10 15  1  0  0  0
 11 12  1  0  0  0
 11 85  1  0  0  0
 12 13  2  0  0  0
 12 86  1  0  0  0
 13 14  1  0  0  0
 13 31  1  0  0  0
 14 15  2  0  0  0
 14 87  1  0  0  0
 15 88  1  0  0  0
 16 17  2  0  0  0
 16 21  1  0  0  0
 16 31  1  0  0  0
 17 18  1  0  0  0
 17 89  1  0  0  0
 18 19  2  0  0  0
 18 90  1  0  0  0
 19 20  1  0  0  0
 19 24  1  0  0  0
 20 21  2  0  0  0
 20 91  1  0  0  0
 21 23  1  0  0  0
 22 28  1  0  0  0
 22 32  2  0  0  0
 26 27  1  0  0  0
 28 92  1  0  0  0
 28 93  1  0  0  0
 29 94  1  0  0  0
 29 95  1  0  0  0
 33 34  1  0  0  0
 33 66  1  0  0  0
 33 70  2  0  0  0
 34 36  1  0  0  0
 34 59  1  0  0  0
 34 96  1  0  0  0
 35 44  2  0  0  0
 35 45  1  0  0  0
 35 68  1  0  0  0
 36 56  1  0  0  0
 36 97  1  0  0  0
 37 39  1  0  0  0
 37 47  1  0  0  0
 37 66  1  0  0  0
 37 98  1  0  0  0
 38 43  2  0  0  0
 38 46  1  0  0  0
 38 47  1  0  0  0
 39 64  1  0  0  0
 39 67  2  0  0  0
 40 52  1  0  0  0
 40 53  2  0  0  0
 40 58  1  0  0  0
 41 99  1  0  0  0
 41100  1  0  0  0
 41101  1  0  0  0
 41 48  1  0  0  0
 42 43  1  0  0  0
 42 66  1  0  0  0
 42102  1  0  0  0
 42103  1  0  0  0
 43 44  1  0  0  0
 44104  1  0  0  0
 45 46  2  0  0  0
 45105  1  0  0  0
 46106  1  0  0  0
 47107  1  0  0  0
 47108  1  0  0  0
 48 56  1  0  0  0
 48 65  1  0  0  0
 48109  1  0  0  0
 49 50  1  0  0  0
 49 53  1  0  0  0
 49 64  1  0  0  0
 49110  1  0  0  0
 50 51  1  0  0  0
 50111  1  0  0  0
 50112  1  0  0  0
 51 52  1  0  0  0
 51113  1  0  0  0
 51114  1  0  0  0
 52115  1  0  0  0
 52116  1  0  0  0
 53 54  1  0  0  0
 54 55  2  0  0  0
 54117  1  0  0  0
 55 57  1  0  0  0
 55118  1  0  0  0
 56 69  2  0  0  0
 57 58  2  0  0  0
 57119  1  0  0  0
 58120  1  0  0  0
 59 60  1  0  0  0
 59 61  1  0  0  0
 59 62  1  0  0  0
 60121  1  0  0  0
 60122  1  0  0  0
 60123  1  0  0  0
 61124  1  0  0  0
 61125  1  0  0  0
 61126  1  0  0  0
 62127  1  0  0  0
 62128  1  0  0  0
 62129  1  0  0  0
 63 65  1  0  0  0
 63130  1  0  0  0
 63131  1  0  0  0
 63132  1  0  0  0
 64133  1  0  0  0
 65134  1  0  0  0
 68 72  1  0  0  0
 71 72  2  0  0  0
 71 73  1  0  0  0
 71135  1  0  0  0
 72136  1  0  0  0
 73 74  1  0  0  0
 73 75  2  0  0  0
 74137  1  0  0  0
M  ISO  4   1 100  68 101  72 101  74 100
M  END
> <chiral flag>
0

> <version>
0

> <s_m_source_file>
/data/baiqing/PycharmProjects/Reinvent-master-3.2/result/LINK_invent/BTK/process_docking_weight1_custom_product_contain_oxygen_bond_distance_aromatic_linkinvent_7_9_3/rearranged_h_0090.sdf

> <i_m_source_file_index>
74

> <r_mmod_Potential_Energy-OPLS-2005>
5536.701171875

> <r_mmod_Stretch_Energy-OPLS-2005>
2247.86108398438

> <r_mmod_Bend_Energy-OPLS-2005>
1276.73291015625

> <r_mmod_Torsional_Energy-OPLS-2005>
208.950439453125

> <r_mmod_Improper_Torsional_Energy-OPLS-2005>
4.2933144569397

> <r_mmod_Van_der_Waal_Energy-OPLS-2005>
115.79280090332

> <r_mmod_Electrostatic_Energy-OPLS-2005>
-392.346527099609

> <r_mmod_Solvation_Energy-OPLS-2005>
-238.194381713867

> <b_mmod_Minimization_Converged-OPLS-2005>
1

> <r_mmod_RMS_Derivative-OPLS-2005>
0.049935445189476

$$$$
74
                    3D
 Structure written by MMmdl.
149157  0  0  1  0            999 V2000
  -30.7014  -14.6061   20.4986 C   0  0  0  0  0  0
  -30.4120  -12.3775   19.4453 C   0  0  0  0  0  0
  -29.4918  -12.4870   18.2141 C   0  0  0  0  0  0
  -28.0168  -12.3374   18.6329 C   0  0  0  0  0  0
  -27.6432  -13.2255   19.8508 C   0  0  2  0  0  0
  -28.6918  -13.1254   20.9798 C   0  0  0  0  0  0
  -25.2522  -13.8196   20.5704 C   0  0  0  0  0  0
  -24.1806  -13.0447   20.9213 C   0  0  0  0  0  0
  -24.6383  -11.6921   20.8752 C   0  0  0  0  0  0
  -23.9060  -10.4296   21.0411 C   0  0  0  0  0  0
  -24.3615   -9.4211   21.9184 C   0  0  0  0  0  0
  -23.6292   -8.2245   22.0752 C   0  0  0  0  0  0
  -22.4275   -8.0281   21.3542 C   0  0  0  0  0  0
  -21.9907   -9.0257   20.4648 C   0  0  0  0  0  0
  -22.7234  -10.2138   20.3059 C   0  0  0  0  0  0
  -21.6851   -6.0736   22.5279 C   0  0  0  0  0  0
  -21.4011   -6.5639   23.8213 C   0  0  0  0  0  0
  -21.3653   -5.6793   24.9174 C   0  0  0  0  0  0
  -21.6045   -4.3056   24.7226 C   0  0  0  0  0  0
  -21.8820   -3.8148   23.4345 C   0  0  0  0  0  0
  -21.9195   -4.6964   22.3403 C   0  0  0  0  0  0
  -22.7827  -13.5234   21.1863 C   0  0  0  0  0  0
  -22.1664   -4.2149   21.0979 F   0  0  0  0  0  0
  -21.5627   -3.4539   25.7736 F   0  0  0  0  0  0
  -29.9999  -13.4346   20.3911 N   0  0  0  0  0  0
  -26.2944  -12.9397   20.3303 N   0  0  0  0  0  0
  -25.9310  -11.6542   20.5764 N   0  0  0  0  0  0
  -22.0465  -12.8228   22.0417 N   0  0  0  0  0  0
  -25.4229  -15.1919   20.4118 N   0  0  0  0  0  0
  -31.8919  -14.6268   20.1746 O   0  0  0  0  0  0
  -21.6638   -6.8877   21.4241 O   0  0  0  0  0  0
  -22.3515  -14.5536   20.6702 O   0  0  0  0  0  0
  -24.6225  -31.8622   23.2053 C   0  0  0  0  0  0
  -25.9090  -32.4789   23.8368 C   0  0  1  0  0  0
  -27.2263  -27.3609   20.1160 C   0  0  0  0  0  0
  -25.5924  -33.8586   24.2300 N   0  0  0  0  0  0
  -23.4158  -30.4856   21.5450 C   0  0  2  0  0  0
  -24.8661  -28.9434   20.1127 C   0  0  0  0  0  0
  -22.7456  -29.4637   22.4933 C   0  0  0  0  0  0
  -18.0286  -28.1390   22.8484 C   0  0  0  0  0  0
  -24.1483  -36.7289   23.2636 C   0  0  0  0  0  0
  -25.9524  -30.8057   21.3720 C   0  0  0  0  0  0
  -26.0302  -29.4334   20.7214 C   0  0  0  0  0  0
  -27.2177  -28.6488   20.7238 C   0  0  0  0  0  0
  -26.0496  -26.9100   19.4901 C   0  0  0  0  0  0
  -24.8741  -27.6840   19.4903 C   0  0  0  0  0  0
  -23.6317  -29.8192   20.1595 C   0  0  0  0  0  0
  -25.4108  -36.3084   24.0330 C   0  0  1  0  0  0
  -20.5885  -28.3694   23.1284 C   0  0  2  0  0  0
  -20.6778  -26.9420   22.5409 C   0  0  0  0  0  0
  -19.5754  -26.6395   21.5209 C   0  0  0  0  0  0
  -18.1936  -26.7935   22.1625 C   0  0  0  0  0  0
  -19.1539  -28.8858   23.2885 C   0  0  0  0  0  0
  -18.9463  -30.1460   23.8901 C   0  0  0  0  0  0
  -17.6461  -30.6591   24.0567 C   0  0  0  0  0  0
  -25.9043  -34.9453   23.5113 C   0  0  0  0  0  0
  -16.5352  -29.9093   23.6324 C   0  0  0  0  0  0
  -16.7276  -28.6511   23.0342 C   0  0  0  0  0  0
  -26.4498  -31.6579   25.0716 C   0  0  0  0  0  0
  -25.3751  -31.3710   26.1453 C   0  0  0  0  0  0
  -27.0322  -30.3000   24.6141 C   0  0  0  0  0  0
  -27.6066  -32.4303   25.7486 C   0  0  0  0  0  0
  -27.5571  -37.1802   24.8469 C   0  0  0  0  0  0
  -21.4174  -29.3045   22.3671 N   0  0  0  0  0  0
  -26.4284  -37.3777   23.9411 N   0  0  0  0  0  0
  -24.6818  -31.0670   22.0985 N   0  0  0  0  0  0
  -23.4187  -28.8181   23.3010 O   0  0  0  0  0  0
  -28.3093  -26.4908   20.1001 O   0  0  0  0  0  0
  -26.5601  -34.8914   22.4670 O   0  0  0  0  0  0
  -23.5398  -32.1406   23.7399 O   0  0  0  0  0  0
  -28.6671  -18.6807   20.0194 C   0  0  0  0  0  0
  -28.3808  -20.1014   20.0530 C   0  0  0  0  0  0
  -29.7595  -18.2978   20.7669 C   0  0  0  0  0  0
  -29.2455  -20.8530   20.8240 C   0  0  0  0  0  0
  -28.5810  -25.8157   21.2786 C   0  0  0  0  0  0
  -30.5523  -17.0095   20.9455 C   0  0  0  0  0  0
  -28.7695  -24.4816   21.5493 C   0  0  0  0  0  0
  -28.6783  -23.3128   20.6279 C   0  0  0  0  0  0
  -29.2722  -22.1955   21.1530 N   0  0  0  0  0  0
  -30.0050  -15.7689   20.7284 N   0  0  0  0  0  0
  -31.7244  -17.1408   21.3201 O   0  0  0  0  0  0
  -28.1352  -23.3177   19.5222 O   0  0  0  0  0  0
  -29.0236  -24.1979   22.8385 O   0  0  0  0  0  0
  -30.4381  -19.7509   21.5151 S   0  0  0  0  0  0
  -31.4556  -12.4597   19.1376 H   0  0  0  0  0  0
  -30.3183  -11.3947   19.9100 H   0  0  0  0  0  0
  -29.7492  -11.7214   17.4807 H   0  0  0  0  0  0
  -29.6422  -13.4484   17.7203 H   0  0  0  0  0  0
  -27.8521  -11.2874   18.8773 H   0  0  0  0  0  0
  -27.3602  -12.5568   17.7901 H   0  0  0  0  0  0
  -27.6496  -14.2536   19.4880 H   0  0  0  0  0  0
  -28.6999  -12.1234   21.4113 H   0  0  0  0  0  0
  -28.4523  -13.8081   21.7964 H   0  0  0  0  0  0
  -25.2760   -9.5687   22.4759 H   0  0  0  0  0  0
  -24.0004   -7.4634   22.7467 H   0  0  0  0  0  0
  -21.0839   -8.8776   19.8953 H   0  0  0  0  0  0
  -22.3691  -10.9678   19.6171 H   0  0  0  0  0  0
  -21.2000   -7.6147   23.9715 H   0  0  0  0  0  0
  -21.1472   -6.0520   25.9075 H   0  0  0  0  0  0
  -22.0605   -2.7608   23.2847 H   0  0  0  0  0  0
  -22.4082  -11.9899   22.4823 H   0  0  0  0  0  0
  -21.1079  -13.1254   22.2606 H   0  0  0  0  0  0
  -24.6561  -15.8465   20.5235 H   0  0  0  0  0  0
  -26.2667  -15.6288   20.0653 H   0  0  0  0  0  0
  -26.7161  -32.5485   23.1127 H   0  0  0  0  0  0
  -25.0110  -33.9738   25.0468 H   0  0  0  0  0  0
  -22.7087  -31.3052   21.4013 H   0  0  0  0  0  0
  -23.3739  -35.9626   23.3316 H   0  0  0  0  0  0
  -24.3576  -36.8886   22.2045 H   0  0  0  0  0  0
  -23.7237  -37.6500   23.6638 H   0  0  0  0  0  0
  -26.0745  -31.5685   20.6015 H   0  0  0  0  0  0
  -26.8360  -30.8597   21.9963 H   0  0  0  0  0  0
  -28.1144  -29.0176   21.2020 H   0  0  0  0  0  0
  -26.0422  -25.9369   19.0193 H   0  0  0  0  0  0
  -23.9823  -27.3029   19.0120 H   0  0  0  0  0  0
  -23.7486  -30.5950   19.4017 H   0  0  0  0  0  0
  -22.7531  -29.2463   19.8563 H   0  0  0  0  0  0
  -25.1285  -36.1944   25.0821 H   0  0  0  0  0  0
  -20.9986  -28.3272   24.1400 H   0  0  0  0  0  0
  -20.5686  -26.2305   23.3608 H   0  0  0  0  0  0
  -21.6649  -26.7458   22.1201 H   0  0  0  0  0  0
  -19.6920  -25.6309   21.1232 H   0  0  0  0  0  0
  -19.6690  -27.3210   20.6740 H   0  0  0  0  0  0
  -17.4206  -26.6679   21.4026 H   0  0  0  0  0  0
  -18.0344  -26.0078   22.9022 H   0  0  0  0  0  0
  -19.7937  -30.7279   24.2269 H   0  0  0  0  0  0
  -17.5015  -31.6269   24.5176 H   0  0  0  0  0  0
  -15.5354  -30.2999   23.7644 H   0  0  0  0  0  0
  -15.8678  -28.0838   22.7046 H   0  0  0  0  0  0
  -24.5938  -30.7039   25.7795 H   0  0  0  0  0  0
  -24.8927  -32.2872   26.4867 H   0  0  0  0  0  0
  -25.8099  -30.8908   27.0228 H   0  0  0  0  0  0
  -26.2876  -29.6769   24.1172 H   0  0  0  0  0  0
  -27.4029  -29.7237   25.4632 H   0  0  0  0  0  0
  -27.8747  -30.4285   23.9341 H   0  0  0  0  0  0
  -27.2685  -33.3603   26.2069 H   0  0  0  0  0  0
  -28.3878  -32.6864   25.0316 H   0  0  0  0  0  0
  -28.0732  -31.8421   26.5400 H   0  0  0  0  0  0
  -28.2608  -38.0083   24.7496 H   0  0  0  0  0  0
  -28.1049  -36.2612   24.6321 H   0  0  0  0  0  0
  -27.2289  -37.1488   25.8874 H   0  0  0  0  0  0
  -20.9347  -29.8753   21.6873 H   0  0  0  0  0  0
  -26.0168  -38.2849   24.1417 H   0  0  0  0  0  0
  -28.0743  -18.0005   19.4246 H   0  0  0  0  0  0
  -27.5412  -20.5140   19.5103 H   0  0  0  0  0  0
  -28.6540  -26.5295   22.0880 H   0  0  0  0  0  0
  -29.8673  -22.4135   21.9403 H   0  0  0  0  0  0
  -29.0024  -15.7194   20.6804 H   0  0  0  0  0  0
  -28.7993  -23.2851   22.9723 H   0  0  0  0  0  0
  1 25  1  0  0  0
  1 30  2  0  0  0
  1 80  1  0  0  0
  2  3  1  0  0  0
  2 25  1  0  0  0
  2 85  1  0  0  0
  2 86  1  0  0  0
  3  4  1  0  0  0
  3 87  1  0  0  0
  3 88  1  0  0  0
  4  5  1  0  0  0
  4 89  1  0  0  0
  4 90  1  0  0  0
  5  6  1  0  0  0
  5 26  1  0  0  0
  5 91  1  0  0  0
  6 25  1  0  0  0
  6 92  1  0  0  0
  6 93  1  0  0  0
  7  8  2  0  0  0
  7 26  1  0  0  0
  7 29  1  0  0  0
  8  9  1  0  0  0
  8 22  1  0  0  0
  9 10  1  0  0  0
  9 27  2  0  0  0
 10 11  2  0  0  0
 10 15  1  0  0  0
 11 12  1  0  0  0
 11 94  1  0  0  0
 12 13  2  0  0  0
 12 95  1  0  0  0
 13 14  1  0  0  0
 13 31  1  0  0  0
 14 15  2  0  0  0
 14 96  1  0  0  0
 15 97  1  0  0  0
 16 17  2  0  0  0
 16 21  1  0  0  0
 16 31  1  0  0  0
 17 18  1  0  0  0
 17 98  1  0  0  0
 18 19  2  0  0  0
 18 99  1  0  0  0
 19 20  1  0  0  0
 19 24  1  0  0  0
 20 21  2  0  0  0
 20100  1  0  0  0
 21 23  1  0  0  0
 22 28  1  0  0  0
 22 32  2  0  0  0
 26 27  1  0  0  0
 28101  1  0  0  0
 28102  1  0  0  0
 29103  1  0  0  0
 29104  1  0  0  0
 33 34  1  0  0  0
 33 66  1  0  0  0
 33 70  2  0  0  0
 34 36  1  0  0  0
 34 59  1  0  0  0
 34105  1  0  0  0
 35 44  2  0  0  0
 35 45  1  0  0  0
 35 68  1  0  0  0
 36 56  1  0  0  0
 36106  1  0  0  0
 37 39  1  0  0  0
 37 47  1  0  0  0
 37 66  1  0  0  0
 37107  1  0  0  0
 38 43  2  0  0  0
 38 46  1  0  0  0
 38 47  1  0  0  0
 39 64  1  0  0  0
 39 67  2  0  0  0
 40 52  1  0  0  0
 40 53  2  0  0  0
 40 58  1  0  0  0
 41108  1  0  0  0
 41109  1  0  0  0
 41110  1  0  0  0
 41 48  1  0  0  0
 42 43  1  0  0  0
 42 66  1  0  0  0
 42111  1  0  0  0
 42112  1  0  0  0
 43 44  1  0  0  0
 44113  1  0  0  0
 45 46  2  0  0  0
 45114  1  0  0  0
 46115  1  0  0  0
 47116  1  0  0  0
 47117  1  0  0  0
 48 56  1  0  0  0
 48 65  1  0  0  0
 48118  1  0  0  0
 49 50  1  0  0  0
 49 53  1  0  0  0
 49 64  1  0  0  0
 49119  1  0  0  0
 50 51  1  0  0  0
 50120  1  0  0  0
 50121  1  0  0  0
 51 52  1  0  0  0
 51122  1  0  0  0
 51123  1  0  0  0
 52124  1  0  0  0
 52125  1  0  0  0
 53 54  1  0  0  0
 54 55  2  0  0  0
 54126  1  0  0  0
 55 57  1  0  0  0
 55127  1  0  0  0
 56 69  2  0  0  0
 57 58  2  0  0  0
 57128  1  0  0  0
 58129  1  0  0  0
 59 60  1  0  0  0
 59 61  1  0  0  0
 59 62  1  0  0  0
 60130  1  0  0  0
 60131  1  0  0  0
 60132  1  0  0  0
 61133  1  0  0  0
 61134  1  0  0  0
 61135  1  0  0  0
 62136  1  0  0  0
 62137  1  0  0  0
 62138  1  0  0  0
 63 65  1  0  0  0
 63139  1  0  0  0
 63140  1  0  0  0
 63141  1  0  0  0
 64142  1  0  0  0
 65143  1  0  0  0
 68 75  1  0  0  0
 71 72  1  0  0  0
 71 73  2  0  0  0
 71144  1  0  0  0
 72 74  2  0  0  0
 72145  1  0  0  0
 73 76  1  0  0  0
 73 84  1  0  0  0
 74 79  1  0  0  0
 74 84  1  0  0  0
 75 77  2  0  0  0
 75146  1  0  0  0
 76 80  1  0  0  0
 76 81  2  0  0  0
 77 78  1  0  0  0
 77 83  1  0  0  0
 78 79  1  0  0  0
 78 82  2  0  0  0
 79147  1  0  0  0
 80148  1  0  0  0
 83149  1  0  0  0
M  ISO  4   1 100  68 101  75 101  80 100
M  END
> <chiral flag>
0

> <version>
0

> <s_m_source_file>
/data/baiqing/PycharmProjects/Reinvent-master-3.2/result/LINK_invent/BTK/process_docking_weight1_custom_product_contain_oxygen_bond_distance_aromatic_linkinvent_7_9_3/rearranged_h_0090.sdf

> <i_m_source_file_index>
75

> <r_mmod_Potential_Energy-OPLS-2005>
-71.1071395874023

> <r_mmod_Stretch_Energy-OPLS-2005>
59.8602905273438

> <r_mmod_Bend_Energy-OPLS-2005>
155.348403930664

> <r_mmod_Torsional_Energy-OPLS-2005>
256.432006835938

> <r_mmod_Improper_Torsional_Energy-OPLS-2005>
6.11991453170776

> <r_mmod_Van_der_Waal_Energy-OPLS-2005>
133.315856933594

> <r_mmod_Electrostatic_Energy-OPLS-2005>
-465.170501708984

> <r_mmod_Solvation_Energy-OPLS-2005>
-259.822479248047

> <b_mmod_Minimization_Converged-OPLS-2005>
0

> <r_mmod_RMS_Derivative-OPLS-2005>
1.0414445400238

$$$$
75
                    3D
 Structure written by MMmdl.
156164  0  0  1  0            999 V2000
  -30.6445  -14.7141   20.4146 C   0  0  0  0  0  0
  -30.4284  -12.4266   19.4548 C   0  0  0  0  0  0
  -29.5006  -12.4677   18.2226 C   0  0  0  0  0  0
  -28.0279  -12.3026   18.6471 C   0  0  0  0  0  0
  -27.6356  -13.2081   19.8449 C   0  0  2  0  0  0
  -28.6929  -13.1821   20.9699 C   0  0  0  0  0  0
  -25.2535  -13.8119   20.5728 C   0  0  0  0  0  0
  -24.1798  -13.0407   20.9228 C   0  0  0  0  0  0
  -24.6360  -11.6876   20.8779 C   0  0  0  0  0  0
  -23.9033  -10.4272   21.0424 C   0  0  0  0  0  0
  -24.3598   -9.4190   21.9195 C   0  0  0  0  0  0
  -23.6282   -8.2223   22.0753 C   0  0  0  0  0  0
  -22.4266   -8.0264   21.3539 C   0  0  0  0  0  0
  -21.9894   -9.0239   20.4645 C   0  0  0  0  0  0
  -22.7213  -10.2124   20.3062 C   0  0  0  0  0  0
  -21.6845   -6.0729   22.5276 C   0  0  0  0  0  0
  -21.4008   -6.5636   23.8210 C   0  0  0  0  0  0
  -21.3660   -5.6790   24.9173 C   0  0  0  0  0  0
  -21.6047   -4.3053   24.7222 C   0  0  0  0  0  0
  -21.8821   -3.8141   23.4344 C   0  0  0  0  0  0
  -21.9194   -4.6958   22.3400 C   0  0  0  0  0  0
  -22.7832  -13.5223   21.1871 C   0  0  0  0  0  0
  -22.1660   -4.2142   21.0978 F   0  0  0  0  0  0
  -21.5635   -3.4537   25.7736 F   0  0  0  0  0  0
  -29.9876  -13.5061   20.3598 N   0  0  0  0  0  0
  -26.2922  -12.9268   20.3321 N   0  0  0  0  0  0
  -25.9281  -11.6442   20.5796 N   0  0  0  0  0  0
  -22.0465  -12.8222   22.0423 N   0  0  0  0  0  0
  -25.4286  -15.1829   20.4132 N   0  0  0  0  0  0
  -31.8652  -14.7518   20.2369 O   0  0  0  0  0  0
  -21.6632   -6.8863   21.4232 O   0  0  0  0  0  0
  -22.3534  -14.5533   20.6715 O   0  0  0  0  0  0
  -24.6270  -31.8581   23.2003 C   0  0  0  0  0  0
  -25.9113  -32.4764   23.8340 C   0  0  1  0  0  0
  -27.2288  -27.3054   20.1052 C   0  0  0  0  0  0
  -25.5923  -33.8567   24.2263 N   0  0  0  0  0  0
  -23.4211  -30.4805   21.5436 C   0  0  2  0  0  0
  -24.8666  -28.9310   20.1099 C   0  0  0  0  0  0
  -22.7475  -29.4616   22.4938 C   0  0  0  0  0  0
  -18.0282  -28.1382   22.8489 C   0  0  0  0  0  0
  -24.1492  -36.7292   23.2641 C   0  0  0  0  0  0
  -25.9631  -30.7826   21.3737 C   0  0  0  0  0  0
  -26.0351  -29.4084   20.7147 C   0  0  0  0  0  0
  -27.2137  -28.6053   20.7060 C   0  0  0  0  0  0
  -26.0281  -26.8742   19.4957 C   0  0  0  0  0  0
  -24.8650  -27.6691   19.4958 C   0  0  0  0  0  0
  -23.6354  -29.8125   20.1594 C   0  0  0  0  0  0
  -25.4120  -36.3080   24.0330 C   0  0  1  0  0  0
  -20.5884  -28.3689   23.1285 C   0  0  2  0  0  0
  -20.6773  -26.9411   22.5414 C   0  0  0  0  0  0
  -19.5748  -26.6379   21.5215 C   0  0  0  0  0  0
  -18.1928  -26.7927   22.1627 C   0  0  0  0  0  0
  -19.1536  -28.8853   23.2877 C   0  0  0  0  0  0
  -18.9460  -30.1453   23.8898 C   0  0  0  0  0  0
  -17.6462  -30.6588   24.0562 C   0  0  0  0  0  0
  -25.9054  -34.9447   23.5099 C   0  0  0  0  0  0
  -16.5350  -29.9087   23.6331 C   0  0  0  0  0  0
  -16.7269  -28.6502   23.0355 C   0  0  0  0  0  0
  -26.4489  -31.6586   25.0722 C   0  0  0  0  0  0
  -25.3721  -31.3735   26.1451 C   0  0  0  0  0  0
  -27.0327  -30.3003   24.6193 C   0  0  0  0  0  0
  -27.6049  -32.4323   25.7487 C   0  0  0  0  0  0
  -27.5579  -37.1802   24.8463 C   0  0  0  0  0  0
  -21.4190  -29.3040   22.3679 N   0  0  0  0  0  0
  -26.4294  -37.3775   23.9405 N   0  0  0  0  0  0
  -24.6893  -31.0582   22.0954 N   0  0  0  0  0  0
  -23.4195  -28.8163   23.3027 O   0  0  0  0  0  0
  -28.3685  -26.4836   20.1705 O   0  0  0  0  0  0
  -26.5631  -34.8919   22.4669 O   0  0  0  0  0  0
  -23.5430  -32.1391   23.7319 O   0  0  0  0  0  0
  -28.9839  -19.3195   21.5393 C   0  0  0  0  0  0
  -28.7465  -20.7026   21.2514 C   0  0  0  0  0  0
  -30.1916  -19.0725   19.4822 C   0  0  0  0  0  0
  -29.7038  -18.4516   20.6640 C   0  0  0  0  0  0
  -29.2338  -21.3134   20.0645 C   0  0  0  0  0  0
  -29.9627  -20.4532   19.1908 C   0  0  0  0  0  0
  -28.2028  -16.6554   18.6464 C   0  0  0  0  0  0
  -29.3708  -16.0552   18.9508 C   0  0  0  0  0  0
  -30.0502  -16.9871   21.0763 C   0  0  0  0  0  0
  -28.5869  -23.8520   20.2865 C   0  0  0  0  0  0
  -28.4998  -25.1951   19.4378 C   0  0  0  0  0  0
  -30.4956  -20.9809   18.0139 N   0  0  0  0  0  0
  -29.0191  -22.7096   19.6533 N   0  0  0  0  0  0
  -29.9034  -15.8811   20.2450 N   0  0  0  0  0  0
  -30.4386  -16.8463   22.2421 O   0  0  0  0  0  0
  -28.2725  -23.8644   21.4796 O   0  0  0  0  0  0
  -31.4686  -12.5423   19.1452 H   0  0  0  0  0  0
  -30.3680  -11.4590   19.9564 H   0  0  0  0  0  0
  -29.7748  -11.6795   17.5204 H   0  0  0  0  0  0
  -29.6283  -13.4072   17.6848 H   0  0  0  0  0  0
  -27.8838  -11.2559   18.9171 H   0  0  0  0  0  0
  -27.3672  -12.4898   17.7995 H   0  0  0  0  0  0
  -27.6011  -14.2132   19.4443 H   0  0  0  0  0  0
  -28.7301  -12.2052   21.4546 H   0  0  0  0  0  0
  -28.4425  -13.9084   21.7447 H   0  0  0  0  0  0
  -25.2743   -9.5671   22.4773 H   0  0  0  0  0  0
  -23.9993   -7.4615   22.7470 H   0  0  0  0  0  0
  -21.0827   -8.8760   19.8956 H   0  0  0  0  0  0
  -22.3670  -10.9671   19.6179 H   0  0  0  0  0  0
  -21.1989   -7.6142   23.9709 H   0  0  0  0  0  0
  -21.1484   -6.0519   25.9078 H   0  0  0  0  0  0
  -22.0602   -2.7603   23.2844 H   0  0  0  0  0  0
  -22.4070  -11.9876   22.4808 H   0  0  0  0  0  0
  -21.1091  -13.1269   22.2634 H   0  0  0  0  0  0
  -24.6681  -15.8452   20.5165 H   0  0  0  0  0  0
  -26.2843  -15.6053   20.0787 H   0  0  0  0  0  0
  -26.7183  -32.5423   23.1087 H   0  0  0  0  0  0
  -25.0055  -33.9708   25.0397 H   0  0  0  0  0  0
  -22.7150  -31.3013   21.3987 H   0  0  0  0  0  0
  -23.3747  -35.9628   23.3309 H   0  0  0  0  0  0
  -24.3581  -36.8906   22.2052 H   0  0  0  0  0  0
  -23.7248  -37.6498   23.6660 H   0  0  0  0  0  0
  -26.0999  -31.5454   20.6063 H   0  0  0  0  0  0
  -26.8413  -30.8280   22.0062 H   0  0  0  0  0  0
  -28.1111  -28.9695   21.1866 H   0  0  0  0  0  0
  -25.9388  -25.9018   19.0393 H   0  0  0  0  0  0
  -23.9646  -27.2912   19.0309 H   0  0  0  0  0  0
  -23.7546  -30.5874   19.4011 H   0  0  0  0  0  0
  -22.7547  -29.2419   19.8586 H   0  0  0  0  0  0
  -25.1298  -36.1929   25.0822 H   0  0  0  0  0  0
  -20.9974  -28.3265   24.1407 H   0  0  0  0  0  0
  -20.5672  -26.2304   23.3618 H   0  0  0  0  0  0
  -21.6640  -26.7445   22.1205 H   0  0  0  0  0  0
  -19.6911  -25.6289   21.1247 H   0  0  0  0  0  0
  -19.6682  -27.3189   20.6746 H   0  0  0  0  0  0
  -17.4200  -26.6675   21.4030 H   0  0  0  0  0  0
  -18.0326  -26.0066   22.9020 H   0  0  0  0  0  0
  -19.7935  -30.7264   24.2273 H   0  0  0  0  0  0
  -17.5016  -31.6269   24.5157 H   0  0  0  0  0  0
  -15.5350  -30.2990   23.7649 H   0  0  0  0  0  0
  -15.8670  -28.0813   22.7083 H   0  0  0  0  0  0
  -24.5880  -30.7106   25.7774 H   0  0  0  0  0  0
  -24.8939  -32.2910   26.4891 H   0  0  0  0  0  0
  -25.8043  -30.8889   27.0217 H   0  0  0  0  0  0
  -26.2905  -29.6754   24.1216 H   0  0  0  0  0  0
  -27.4004  -29.7259   25.4704 H   0  0  0  0  0  0
  -27.8785  -30.4267   23.9434 H   0  0  0  0  0  0
  -27.2658  -33.3617   26.2072 H   0  0  0  0  0  0
  -28.3855  -32.6894   25.0316 H   0  0  0  0  0  0
  -28.0730  -31.8452   26.5396 H   0  0  0  0  0  0
  -28.2599  -38.0095   24.7505 H   0  0  0  0  0  0
  -28.1072  -36.2628   24.6295 H   0  0  0  0  0  0
  -27.2302  -37.1458   25.8866 H   0  0  0  0  0  0
  -20.9372  -29.8761   21.6884 H   0  0  0  0  0  0
  -26.0174  -38.2850   24.1394 H   0  0  0  0  0  0
  -28.6073  -18.9170   22.4699 H   0  0  0  0  0  0
  -28.1806  -21.2910   21.9594 H   0  0  0  0  0  0
  -30.7771  -18.4770   18.7960 H   0  0  0  0  0  0
  -27.8819  -16.7469   17.6183 H   0  0  0  0  0  0
  -27.5493  -17.0641   19.4034 H   0  0  0  0  0  0
  -30.0081  -15.6637   18.1677 H   0  0  0  0  0  0
  -27.7729  -25.0681   18.6396 H   0  0  0  0  0  0
  -29.4497  -25.2704   18.9087 H   0  0  0  0  0  0
  -31.1500  -20.3888   17.5127 H   0  0  0  0  0  0
  -30.8466  -21.9302   18.0621 H   0  0  0  0  0  0
  -29.2619  -22.8583   18.6830 H   0  0  0  0  0  0
  1 25  1  0  0  0
  1 30  2  0  0  0
  1 84  1  0  0  0
  2  3  1  0  0  0
  2 25  1  0  0  0
  2 87  1  0  0  0
  2 88  1  0  0  0
  3  4  1  0  0  0
  3 89  1  0  0  0
  3 90  1  0  0  0
  4  5  1  0  0  0
  4 91  1  0  0  0
  4 92  1  0  0  0
  5  6  1  0  0  0
  5 26  1  0  0  0
  5 93  1  0  0  0
  6 25  1  0  0  0
  6 94  1  0  0  0
  6 95  1  0  0  0
  7  8  2  0  0  0
  7 26  1  0  0  0
  7 29  1  0  0  0
  8  9  1  0  0  0
  8 22  1  0  0  0
  9 10  1  0  0  0
  9 27  2  0  0  0
 10 11  2  0  0  0
 10 15  1  0  0  0
 11 12  1  0  0  0
 11 96  1  0  0  0
 12 13  2  0  0  0
 12 97  1  0  0  0
 13 14  1  0  0  0
 13 31  1  0  0  0
 14 15  2  0  0  0
 14 98  1  0  0  0
 15 99  1  0  0  0
 16 17  2  0  0  0
 16 21  1  0  0  0
 16 31  1  0  0  0
 17 18  1  0  0  0
 17100  1  0  0  0
 18 19  2  0  0  0
 18101  1  0  0  0
 19 20  1  0  0  0
 19 24  1  0  0  0
 20 21  2  0  0  0
 20102  1  0  0  0
 21 23  1  0  0  0
 22 28  1  0  0  0
 22 32  2  0  0  0
 26 27  1  0  0  0
 28103  1  0  0  0
 28104  1  0  0  0
 29105  1  0  0  0
 29106  1  0  0  0
 33 34  1  0  0  0
 33 66  1  0  0  0
 33 70  2  0  0  0
 34 36  1  0  0  0
 34 59  1  0  0  0
 34107  1  0  0  0
 35 44  2  0  0  0
 35 45  1  0  0  0
 35 68  1  0  0  0
 36 56  1  0  0  0
 36108  1  0  0  0
 37 39  1  0  0  0
 37 47  1  0  0  0
 37 66  1  0  0  0
 37109  1  0  0  0
 38 43  2  0  0  0
 38 46  1  0  0  0
 38 47  1  0  0  0
 39 64  1  0  0  0
 39 67  2  0  0  0
 40 52  1  0  0  0
 40 53  2  0  0  0
 40 58  1  0  0  0
 41110  1  0  0  0
 41111  1  0  0  0
 41112  1  0  0  0
 41 48  1  0  0  0
 42 43  1  0  0  0
 42 66  1  0  0  0
 42113  1  0  0  0
 42114  1  0  0  0
 43 44  1  0  0  0
 44115  1  0  0  0
 45 46  2  0  0  0
 45116  1  0  0  0
 46117  1  0  0  0
 47118  1  0  0  0
 47119  1  0  0  0
 48 56  1  0  0  0
 48 65  1  0  0  0
 48120  1  0  0  0
 49 50  1  0  0  0
 49 53  1  0  0  0
 49 64  1  0  0  0
 49121  1  0  0  0
 50 51  1  0  0  0
 50122  1  0  0  0
 50123  1  0  0  0
 51 52  1  0  0  0
 51124  1  0  0  0
 51125  1  0  0  0
 52126  1  0  0  0
 52127  1  0  0  0
 53 54  1  0  0  0
 54 55  2  0  0  0
 54128  1  0  0  0
 55 57  1  0  0  0
 55129  1  0  0  0
 56 69  2  0  0  0
 57 58  2  0  0  0
 57130  1  0  0  0
 58131  1  0  0  0
 59 60  1  0  0  0
 59 61  1  0  0  0
 59 62  1  0  0  0
 60132  1  0  0  0
 60133  1  0  0  0
 60134  1  0  0  0
 61135  1  0  0  0
 61136  1  0  0  0
 61137  1  0  0  0
 62138  1  0  0  0
 62139  1  0  0  0
 62140  1  0  0  0
 63 65  1  0  0  0
 63141  1  0  0  0
 63142  1  0  0  0
 63143  1  0  0  0
 64144  1  0  0  0
 65145  1  0  0  0
 68 81  1  0  0  0
 71 72  2  0  0  0
 71 74  1  0  0  0
 71146  1  0  0  0
 72 75  1  0  0  0
 72147  1  0  0  0
 73 74  2  0  0  0
 73 76  1  0  0  0
 73148  1  0  0  0
 74 79  1  0  0  0
 75 76  2  0  0  0
 75 83  1  0  0  0
 76 82  1  0  0  0
 77 78  2  0  0  0
 77149  1  0  0  0
 77150  1  0  0  0
 78 84  1  0  0  0
 78151  1  0  0  0
 79 84  1  0  0  0
 79 85  2  0  0  0
 80 81  1  0  0  0
 80 83  1  0  0  0
 80 86  2  0  0  0
 81152  1  0  0  0
 81153  1  0  0  0
 82154  1  0  0  0
 82155  1  0  0  0
 83156  1  0  0  0
M  ISO  4   1 100  68 101  81 101  84 100
M  END
> <chiral flag>
0

> <version>
0

> <s_m_source_file>
/data/baiqing/PycharmProjects/Reinvent-master-3.2/result/LINK_invent/BTK/process_docking_weight1_custom_product_contain_oxygen_bond_distance_aromatic_linkinvent_7_9_3/rearranged_h_0090.sdf

> <i_m_source_file_index>
76

> <r_mmod_Potential_Energy-OPLS-2005>
175.633514404297

> <r_mmod_Stretch_Energy-OPLS-2005>
94.8351745605469

> <r_mmod_Bend_Energy-OPLS-2005>
169.468032836914

> <r_mmod_Torsional_Energy-OPLS-2005>
347.03857421875

> <r_mmod_Improper_Torsional_Energy-OPLS-2005>
18.2644138336182

> <r_mmod_Van_der_Waal_Energy-OPLS-2005>
154.78662109375

> <r_mmod_Electrostatic_Energy-OPLS-2005>
-436.619445800781

> <r_mmod_Solvation_Energy-OPLS-2005>
-244.165740966797

> <b_mmod_Minimization_Converged-OPLS-2005>
0

> <r_mmod_RMS_Derivative-OPLS-2005>
1.00784778594971

$$$$
76
                    3D
 Structure written by MMmdl.
146154  0  0  1  0            999 V2000
  -29.7231  -14.4757   21.1868 C   0  0  0  0  0  0
  -30.5649  -12.5487   19.6316 C   0  0  0  0  0  0
  -29.7780  -12.4915   18.2519 C   0  0  0  0  0  0
  -28.2610  -12.2235   18.3741 C   0  0  0  0  0  0
  -27.8924  -13.0320   19.5653 C   0  0  2  0  0  0
  -28.5748  -12.4440   20.8034 C   0  0  0  0  0  0
  -26.0164  -14.5083   19.7650 C   0  0  0  0  0  0
  -24.9811  -14.4682   20.4421 C   0  0  0  0  0  0
  -24.7802  -12.6726   20.3628 C   0  0  0  0  0  0
  -23.9632  -11.1766   20.8269 C   0  0  0  0  0  0
  -24.4135  -10.0685   21.7256 C   0  0  0  0  0  0
  -23.7769   -8.7595   21.9817 C   0  0  0  0  0  0
  -22.5699   -8.3561   21.3423 C   0  0  0  0  0  0
  -22.1169   -9.3513   20.4358 C   0  0  0  0  0  0
  -22.7710  -10.6322   20.1986 C   0  0  0  0  0  0
  -21.8169   -6.2241   22.5035 C   0  0  0  0  0  0
  -21.4934   -6.6597   23.8097 C   0  0  0  0  0  0
  -21.3941   -5.7444   24.8848 C   0  0  0  0  0  0
  -21.6014   -4.3673   24.6780 C   0  0  0  0  0  0
  -21.8726   -3.9069   23.3793 C   0  0  0  0  0  0
  -21.9624   -4.8181   22.3036 C   0  0  0  0  0  0
  -23.4098  -16.0786   22.2375 C   0  0  0  0  0  0
  -22.1861   -4.3172   21.0646 F   0  0  0  0  0  0
  -21.5424   -3.4956   25.7169 F   0  0  0  0  0  0
  -29.7798  -13.1644   20.7743 N   0  0  0  0  0  0
  -26.5746  -13.2411   19.7812 N   0  0  0  0  0  0
  -25.9200  -12.1569   20.1342 N   0  0  0  0  0  0
  -22.4179  -15.4073   23.0523 N   0  0  0  0  0  0
  -26.5411  -15.6533   19.3668 N   0  0  0  0  0  0
  -30.7478  -15.1031   20.7791 O   0  0  0  0  0  0
  -21.8885   -7.1089   21.4164 O   0  0  0  0  0  0
  -22.4044  -16.7207   21.9069 O   0  0  0  0  0  0
  -24.7834  -31.6102   23.0627 C   0  0  0  0  0  0
  -25.9873  -32.3507   23.7479 C   0  0  1  0  0  0
  -26.0647  -24.9944   20.4468 C   0  0  0  0  0  0
  -25.5963  -33.7492   24.1124 N   0  0  0  0  0  0
  -23.5988  -30.2168   21.4522 C   0  0  2  0  0  0
  -24.8303  -28.2183   20.1075 C   0  0  0  0  0  0
  -22.7816  -29.3438   22.4416 C   0  0  0  0  0  0
  -18.0283  -28.1441   22.8401 C   0  0  0  0  0  0
  -24.1477  -36.6755   23.2672 C   0  0  0  0  0  0
  -26.1087  -29.6806   21.6074 C   0  0  0  0  0  0
  -25.9062  -28.1032   20.9688 C   0  0  0  0  0  0
  -26.4868  -26.5635   21.0786 C   0  0  0  0  0  0
  -25.3297  -25.7376   19.4027 C   0  0  0  0  0  0
  -24.7097  -27.0773   19.2769 C   0  0  0  0  0  0
  -23.8615  -29.4579   20.0946 C   0  0  0  0  0  0
  -25.4168  -36.2381   24.0187 C   0  0  1  0  0  0
  -20.5898  -28.3748   23.1037 C   0  0  2  0  0  0
  -20.6660  -26.9332   22.5474 C   0  0  0  0  0  0
  -19.5704  -26.6297   21.5223 C   0  0  0  0  0  0
  -18.1876  -26.7960   22.1569 C   0  0  0  0  0  0
  -19.1560  -28.8948   23.2686 C   0  0  0  0  0  0
  -18.9503  -30.1525   23.8759 C   0  0  0  0  0  0
  -17.6501  -30.6618   24.0537 C   0  0  0  0  0  0
  -25.9252  -34.8796   23.4628 C   0  0  0  0  0  0
  -16.5376  -29.9108   23.6362 C   0  0  0  0  0  0
  -16.7275  -28.6534   23.0362 C   0  0  0  0  0  0
  -26.4788  -31.6340   25.0680 C   0  0  0  0  0  0
  -25.3585  -31.3987   26.1106 C   0  0  0  0  0  0
  -27.0999  -30.2645   24.7561 C   0  0  0  0  0  0
  -27.5981  -32.4635   25.7426 C   0  0  0  0  0  0
  -27.5556  -37.1436   24.8404 C   0  0  0  0  0  0
  -21.4436  -29.2773   22.3180 N   0  0  0  0  0  0
  -26.4136  -37.3347   23.9514 N   0  0  0  0  0  0
  -24.8984  -30.5940   22.0795 N   0  0  0  0  0  0
  -23.3797  -28.7220   23.3226 O   0  0  0  0  0  0
  -26.2460  -23.0094   20.5229 O   0  0  0  0  0  0
  -26.6150  -34.8672   22.4428 O   0  0  0  0  0  0
  -23.6713  -32.0104   23.4745 O   0  0  0  0  0  0
  -24.0720  -13.8956   22.3247 C   0  0  0  0  0  0
  -25.7348  -16.8414   21.7332 C   0  0  0  0  0  0
  -23.7049  -16.5185   19.9121 C   0  0  0  0  0  0
  -25.6495  -15.1701   22.5124 C   0  0  0  0  0  0
  -22.8417  -14.6532   20.5785 C   0  0  0  0  0  0
  -24.8745  -17.9891   20.6623 C   0  0  0  0  0  0
  -27.2465  -14.6364   22.6139 C   0  0  0  0  0  0
  -21.8501  -13.9210   19.9185 N   0  0  0  0  0  0
  -28.4361  -15.0142   21.7789 N   0  0  0  0  0  0
  -27.4156  -13.8003   23.5021 O   0  0  0  0  0  0
  -25.1051  -20.1820   20.4307 O   0  0  0  0  0  0
  -31.5088  -13.0778   19.4925 H   0  0  0  0  0  0
  -30.8554  -11.5404   19.9278 H   0  0  0  0  0  0
  -30.2343  -11.7594   17.5849 H   0  0  0  0  0  0
  -29.9106  -13.4539   17.7543 H   0  0  0  0  0  0
  -28.0355  -11.1648   18.5163 H   0  0  0  0  0  0
  -27.7311  -12.5561   17.4801 H   0  0  0  0  0  0
  -28.2658  -14.0042   19.2514 H   0  0  0  0  0  0
  -28.7478  -11.3726   20.6795 H   0  0  0  0  0  0
  -28.0241  -12.4318   21.7274 H   0  0  0  0  0  0
  -25.3453  -10.2444   22.2447 H   0  0  0  0  0  0
  -24.2584   -8.0701   22.6612 H   0  0  0  0  0  0
  -21.2314   -9.1290   19.8574 H   0  0  0  0  0  0
  -22.3219  -11.2425   19.4304 H   0  0  0  0  0  0
  -21.3309   -7.7119   23.9917 H   0  0  0  0  0  0
  -21.1681   -6.1060   25.8767 H   0  0  0  0  0  0
  -22.0099   -2.8514   23.2007 H   0  0  0  0  0  0
  -22.5292  -14.4372   23.3041 H   0  0  0  0  0  0
  -21.5759  -15.9076   23.2828 H   0  0  0  0  0  0
  -25.8593  -16.3783   19.1840 H   0  0  0  0  0  0
  -27.2303  -15.5978   18.6282 H   0  0  0  0  0  0
  -26.8078  -32.3766   23.0284 H   0  0  0  0  0  0
  -24.9719  -33.8320   24.9009 H   0  0  0  0  0  0
  -23.0163  -31.1100   21.2160 H   0  0  0  0  0  0
  -23.3905  -35.8897   23.2873 H   0  0  0  0  0  0
  -24.3567  -36.8987   22.2197 H   0  0  0  0  0  0
  -23.7007  -37.5625   23.7171 H   0  0  0  0  0  0
  -26.5961  -30.2527   20.8170 H   0  0  0  0  0  0
  -26.8783  -29.5969   22.3557 H   0  0  0  0  0  0
  -27.2482  -26.4839   21.8411 H   0  0  0  0  0  0
  -24.9756  -25.0717   18.6285 H   0  0  0  0  0  0
  -24.0024  -27.1693   18.4642 H   0  0  0  0  0  0
  -24.2582  -30.1676   19.3678 H   0  0  0  0  0  0
  -22.9068  -29.1327   19.6795 H   0  0  0  0  0  0
  -25.1400  -36.0898   25.0650 H   0  0  0  0  0  0
  -20.9939  -28.3470   24.1187 H   0  0  0  0  0  0
  -20.5372  -26.2401   23.3801 H   0  0  0  0  0  0
  -21.6530  -26.7111   22.1401 H   0  0  0  0  0  0
  -19.6827  -25.6173   21.1342 H   0  0  0  0  0  0
  -19.6730  -27.3035   20.6709 H   0  0  0  0  0  0
  -17.4167  -26.6738   21.3946 H   0  0  0  0  0  0
  -18.0194  -26.0134   22.8980 H   0  0  0  0  0  0
  -19.8004  -30.7339   24.2070 H   0  0  0  0  0  0
  -17.5080  -31.6282   24.5171 H   0  0  0  0  0  0
  -15.5383  -30.2992   23.7780 H   0  0  0  0  0  0
  -15.8659  -28.0841   22.7148 H   0  0  0  0  0  0
  -24.5922  -30.7141   25.7443 H   0  0  0  0  0  0
  -24.8599  -32.3283   26.3862 H   0  0  0  0  0  0
  -25.7541  -30.9641   27.0295 H   0  0  0  0  0  0
  -26.3576  -29.5461   24.4086 H   0  0  0  0  0  0
  -27.5292  -29.8202   25.6554 H   0  0  0  0  0  0
  -27.9197  -30.3463   24.0421 H   0  0  0  0  0  0
  -27.2358  -33.4209   26.1180 H   0  0  0  0  0  0
  -28.4102  -32.6748   25.0457 H   0  0  0  0  0  0
  -28.0307  -31.9411   26.5966 H   0  0  0  0  0  0
  -28.2172  -38.0097   24.7911 H   0  0  0  0  0  0
  -28.1438  -36.2669   24.5641 H   0  0  0  0  0  0
  -27.2375  -37.0297   25.8783 H   0  0  0  0  0  0
  -20.9938  -29.8279   21.6003 H   0  0  0  0  0  0
  -25.9809  -38.2245   24.1852 H   0  0  0  0  0  0
  -24.0263  -12.9163   22.7839 H   0  0  0  0  0  0
  -26.6459  -17.3203   22.0585 H   0  0  0  0  0  0
  -23.1511  -16.8797   19.0600 H   0  0  0  0  0  0
  -21.9405  -12.9110   19.9715 H   0  0  0  0  0  0
  -21.5502  -14.2364   18.9976 H   0  0  0  0  0  0
  -28.2901  -15.9452   21.4224 H   0  0  0  0  0  0
  1 25  1  0  0  0
  1 30  2  0  0  0
  1 79  1  0  0  0
  2  3  1  0  0  0
  2 25  1  0  0  0
  2 82  1  0  0  0
  2 83  1  0  0  0
  3  4  1  0  0  0
  3 84  1  0  0  0
  3 85  1  0  0  0
  4  5  1  0  0  0
  4 86  1  0  0  0
  4 87  1  0  0  0
  5  6  1  0  0  0
  5 26  1  0  0  0
  5 88  1  0  0  0
  6 25  1  0  0  0
  6 89  1  0  0  0
  6 90  1  0  0  0
  7  8  2  0  0  0
  7 26  1  0  0  0
  7 29  1  0  0  0
  8  9  1  0  0  0
  8 22  1  0  0  0
  9 10  1  0  0  0
  9 27  2  0  0  0
 10 11  2  0  0  0
 10 15  1  0  0  0
 11 12  1  0  0  0
 11 91  1  0  0  0
 12 13  2  0  0  0
 12 92  1  0  0  0
 13 14  1  0  0  0
 13 31  1  0  0  0
 14 15  2  0  0  0
 14 93  1  0  0  0
 15 94  1  0  0  0
 16 17  2  0  0  0
 16 21  1  0  0  0
 16 31  1  0  0  0
 17 18  1  0  0  0
 17 95  1  0  0  0
 18 19  2  0  0  0
 18 96  1  0  0  0
 19 20  1  0  0  0
 19 24  1  0  0  0
 20 21  2  0  0  0
 20 97  1  0  0  0
 21 23  1  0  0  0
 22 28  1  0  0  0
 22 32  2  0  0  0
 26 27  1  0  0  0
 28 98  1  0  0  0
 28 99  1  0  0  0
 29100  1  0  0  0
 29101  1  0  0  0
 33 34  1  0  0  0
 33 66  1  0  0  0
 33 70  2  0  0  0
 34 36  1  0  0  0
 34 59  1  0  0  0
 34102  1  0  0  0
 35 44  2  0  0  0
 35 45  1  0  0  0
 35 68  1  0  0  0
 36 56  1  0  0  0
 36103  1  0  0  0
 37 39  1  0  0  0
 37 47  1  0  0  0
 37 66  1  0  0  0
 37104  1  0  0  0
 38 43  2  0  0  0
 38 46  1  0  0  0
 38 47  1  0  0  0
 39 64  1  0  0  0
 39 67  2  0  0  0
 40 52  1  0  0  0
 40 53  2  0  0  0
 40 58  1  0  0  0
 41105  1  0  0  0
 41106  1  0  0  0
 41107  1  0  0  0
 41 48  1  0  0  0
 42 43  1  0  0  0
 42 66  1  0  0  0
 42108  1  0  0  0
 42109  1  0  0  0
 43 44  1  0  0  0
 44110  1  0  0  0
 45 46  2  0  0  0
 45111  1  0  0  0
 46112  1  0  0  0
 47113  1  0  0  0
 47114  1  0  0  0
 48 56  1  0  0  0
 48 65  1  0  0  0
 48115  1  0  0  0
 49 50  1  0  0  0
 49 53  1  0  0  0
 49 64  1  0  0  0
 49116  1  0  0  0
 50 51  1  0  0  0
 50117  1  0  0  0
 50118  1  0  0  0
 51 52  1  0  0  0
 51119  1  0  0  0
 51120  1  0  0  0
 52121  1  0  0  0
 52122  1  0  0  0
 53 54  1  0  0  0
 54 55  2  0  0  0
 54123  1  0  0  0
 55 57  1  0  0  0
 55124  1  0  0  0
 56 69  2  0  0  0
 57 58  2  0  0  0
 57125  1  0  0  0
 58126  1  0  0  0
 59 60  1  0  0  0
 59 61  1  0  0  0
 59 62  1  0  0  0
 60127  1  0  0  0
 60128  1  0  0  0
 60129  1  0  0  0
 61130  1  0  0  0
 61131  1  0  0  0
 61132  1  0  0  0
 62133  1  0  0  0
 62134  1  0  0  0
 62135  1  0  0  0
 63 65  1  0  0  0
 63136  1  0  0  0
 63137  1  0  0  0
 63138  1  0  0  0
 64139  1  0  0  0
 65140  1  0  0  0
 68 81  1  0  0  0
 71 74  2  0  0  0
 71 75  1  0  0  0
 71141  1  0  0  0
 72 74  1  0  0  0
 72 76  2  0  0  0
 72142  1  0  0  0
 73 75  2  0  0  0
 73 76  1  0  0  0
 73143  1  0  0  0
 74 77  1  0  0  0
 75 78  1  0  0  0
 76 81  1  0  0  0
 77 79  1  0  0  0
 77 80  2  0  0  0
 78144  1  0  0  0
 78145  1  0  0  0
 79146  1  0  0  0
M  ISO  4   1 100  68 101  79 100  81 101
M  END
> <chiral flag>
0

> <version>
0

> <s_m_source_file>
/data/baiqing/PycharmProjects/Reinvent-master-3.2/result/LINK_invent/BTK/process_docking_weight1_custom_product_contain_oxygen_bond_distance_aromatic_linkinvent_7_9_3/rearranged_h_0090.sdf

> <i_m_source_file_index>
77

> <r_mmod_Potential_Energy-OPLS-2005>
26770.58203125

> <r_mmod_Stretch_Energy-OPLS-2005>
13984.08203125

> <r_mmod_Bend_Energy-OPLS-2005>
2028.27709960938

> <r_mmod_Torsional_Energy-OPLS-2005>
491.006744384766

> <r_mmod_Improper_Torsional_Energy-OPLS-2005>
98.5994644165039

> <r_mmod_Van_der_Waal_Energy-OPLS-2005>
3133.08178710938

> <r_mmod_Electrostatic_Energy-OPLS-2005>
-539.67431640625

> <r_mmod_Solvation_Energy-OPLS-2005>
-211.766784667969

> <b_mmod_Minimization_Converged-OPLS-2005>
0

> <r_mmod_RMS_Derivative-OPLS-2005>
5.82388973236084

$$$$
77
                    3D
 Structure written by MMmdl.
155164  0  0  1  0            999 V2000
  -30.6183  -14.6457   20.4987 C   0  0  0  0  0  0
  -30.4426  -12.3972   19.4480 C   0  0  0  0  0  0
  -29.5082  -12.5068   18.2220 C   0  0  0  0  0  0
  -28.0312  -12.3426   18.6356 C   0  0  0  0  0  0
  -27.6530  -13.2157   19.8614 C   0  0  2  0  0  0
  -28.7000  -13.0725   20.9896 C   0  0  0  0  0  0
  -25.2566  -13.8174   20.5684 C   0  0  0  0  0  0
  -24.1832  -13.0436   20.9183 C   0  0  0  0  0  0
  -24.6399  -11.6907   20.8734 C   0  0  0  0  0  0
  -23.9066  -10.4292   21.0403 C   0  0  0  0  0  0
  -24.3617   -9.4208   21.9182 C   0  0  0  0  0  0
  -23.6291   -8.2243   22.0754 C   0  0  0  0  0  0
  -22.4274   -8.0281   21.3544 C   0  0  0  0  0  0
  -21.9909   -9.0255   20.4646 C   0  0  0  0  0  0
  -22.7238  -10.2134   20.3054 C   0  0  0  0  0  0
  -21.6853   -6.0735   22.5279 C   0  0  0  0  0  0
  -21.4014   -6.5639   23.8212 C   0  0  0  0  0  0
  -21.3659   -5.6792   24.9174 C   0  0  0  0  0  0
  -21.6044   -4.3055   24.7225 C   0  0  0  0  0  0
  -21.8819   -3.8147   23.4346 C   0  0  0  0  0  0
  -21.9193   -4.6963   22.3402 C   0  0  0  0  0  0
  -22.7854  -13.5229   21.1850 C   0  0  0  0  0  0
  -22.1661   -4.2149   21.0980 F   0  0  0  0  0  0
  -21.5629   -3.4539   25.7738 F   0  0  0  0  0  0
  -30.0143  -13.4176   20.4237 N   0  0  0  0  0  0
  -26.2993  -12.9351   20.3315 N   0  0  0  0  0  0
  -25.9328  -11.6505   20.5752 N   0  0  0  0  0  0
  -22.0499  -12.8221   22.0410 N   0  0  0  0  0  0
  -25.4249  -15.1901   20.4125 N   0  0  0  0  0  0
  -31.7912  -14.8110   20.1504 O   0  0  0  0  0  0
  -21.6639   -6.8878   21.4240 O   0  0  0  0  0  0
  -22.3531  -14.5534   20.6701 O   0  0  0  0  0  0
  -24.6276  -31.8604   23.2039 C   0  0  0  0  0  0
  -25.9121  -32.4783   23.8365 C   0  0  1  0  0  0
  -27.2199  -27.3116   20.1112 C   0  0  0  0  0  0
  -25.5934  -33.8583   24.2288 N   0  0  0  0  0  0
  -23.4208  -30.4866   21.5476 C   0  0  2  0  0  0
  -24.8657  -28.9454   20.1132 C   0  0  0  0  0  0
  -22.7481  -29.4632   22.4939 C   0  0  0  0  0  0
  -18.0289  -28.1385   22.8487 C   0  0  0  0  0  0
  -24.1490  -36.7294   23.2638 C   0  0  0  0  0  0
  -25.9649  -30.7890   21.3772 C   0  0  0  0  0  0
  -26.0382  -29.4172   20.7166 C   0  0  0  0  0  0
  -27.2193  -28.6137   20.7048 C   0  0  0  0  0  0
  -26.0196  -26.9014   19.4820 C   0  0  0  0  0  0
  -24.8591  -27.6928   19.4874 C   0  0  0  0  0  0
  -23.6354  -29.8266   20.1621 C   0  0  0  0  0  0
  -25.4114  -36.3086   24.0329 C   0  0  1  0  0  0
  -20.5890  -28.3692   23.1280 C   0  0  2  0  0  0
  -20.6778  -26.9415   22.5407 C   0  0  0  0  0  0
  -19.5752  -26.6386   21.5211 C   0  0  0  0  0  0
  -18.1933  -26.7928   22.1626 C   0  0  0  0  0  0
  -19.1541  -28.8855   23.2879 C   0  0  0  0  0  0
  -18.9463  -30.1456   23.8897 C   0  0  0  0  0  0
  -17.6462  -30.6587   24.0563 C   0  0  0  0  0  0
  -25.9052  -34.9454   23.5107 C   0  0  0  0  0  0
  -16.5354  -29.9085   23.6330 C   0  0  0  0  0  0
  -16.7275  -28.6503   23.0353 C   0  0  0  0  0  0
  -26.4500  -31.6589   25.0734 C   0  0  0  0  0  0
  -25.3731  -31.3726   26.1458 C   0  0  0  0  0  0
  -27.0342  -30.3012   24.6191 C   0  0  0  0  0  0
  -27.6058  -32.4323   25.7507 C   0  0  0  0  0  0
  -27.5579  -37.1804   24.8465 C   0  0  0  0  0  0
  -21.4194  -29.3048   22.3677 N   0  0  0  0  0  0
  -26.4293  -37.3780   23.9408 N   0  0  0  0  0  0
  -24.6901  -31.0614   22.0996 N   0  0  0  0  0  0
  -23.4204  -28.8163   23.3013 O   0  0  0  0  0  0
  -28.3303  -26.4463   20.1488 O   0  0  0  0  0  0
  -26.5617  -34.8919   22.4671 O   0  0  0  0  0  0
  -23.5437  -32.1405   23.7363 O   0  0  0  0  0  0
  -31.0485  -19.3222   20.9190 C   0  0  0  0  0  0
  -31.0462  -17.8963   21.0026 C   0  0  0  0  0  0
  -28.8045  -19.3059   20.0777 C   0  0  0  0  0  0
  -29.9391  -20.0915   20.4362 C   0  0  0  0  0  0
  -29.9096  -17.1368   20.6337 C   0  0  0  0  0  0
  -28.7868  -17.8817   20.1867 C   0  0  0  0  0  0
  -30.4837  -24.3530   19.9726 C   0  0  0  0  0  0
  -31.2963  -22.0942   19.9948 C   0  0  0  0  0  0
  -29.2199  -23.9531   20.2115 C   0  0  0  0  0  0
  -31.5648  -23.4038   19.8619 C   0  0  0  0  0  0
  -28.9472  -22.4773   20.4096 C   0  0  0  0  0  0
  -28.0431  -24.9857   20.1984 C   0  0  0  0  0  0
  -30.0098  -21.5754   20.2788 N   0  0  0  0  0  0
  -29.7809  -15.6892   20.7824 N   0  0  0  0  0  0
  -27.8117  -22.0817   20.6946 O   0  0  0  0  0  0
  -32.8081  -23.8111   19.5846 O   0  0  0  0  0  0
  -27.6611  -17.2074   19.8456 F   0  0  0  0  0  0
  -31.4822  -12.5308   19.1436 H   0  0  0  0  0  0
  -30.3849  -11.4018   19.8911 H   0  0  0  0  0  0
  -29.7730  -11.7546   17.4777 H   0  0  0  0  0  0
  -29.6470  -13.4756   17.7393 H   0  0  0  0  0  0
  -27.8703  -11.2897   18.8699 H   0  0  0  0  0  0
  -27.3755  -12.5692   17.7941 H   0  0  0  0  0  0
  -27.6675  -14.2496   19.5162 H   0  0  0  0  0  0
  -28.7136  -12.0512   21.3730 H   0  0  0  0  0  0
  -28.4470  -13.7058   21.8415 H   0  0  0  0  0  0
  -25.2762   -9.5684   22.4755 H   0  0  0  0  0  0
  -24.0001   -7.4635   22.7473 H   0  0  0  0  0  0
  -21.0840   -8.8774   19.8953 H   0  0  0  0  0  0
  -22.3697  -10.9672   19.6162 H   0  0  0  0  0  0
  -21.2007   -7.6148   23.9715 H   0  0  0  0  0  0
  -21.1481   -6.0523   25.9077 H   0  0  0  0  0  0
  -22.0599   -2.7609   23.2847 H   0  0  0  0  0  0
  -22.4118  -11.9883   22.4796 H   0  0  0  0  0  0
  -21.1118  -13.1248   22.2620 H   0  0  0  0  0  0
  -24.6532  -15.8364   20.5314 H   0  0  0  0  0  0
  -26.2717  -15.6519   20.0993 H   0  0  0  0  0  0
  -26.7189  -32.5449   23.1113 H   0  0  0  0  0  0
  -25.0084  -33.9729   25.0435 H   0  0  0  0  0  0
  -22.7149  -31.3079   21.4068 H   0  0  0  0  0  0
  -23.3752  -35.9627   23.3304 H   0  0  0  0  0  0
  -24.3581  -36.8911   22.2052 H   0  0  0  0  0  0
  -23.7243  -37.6498   23.6656 H   0  0  0  0  0  0
  -26.0991  -31.5536   20.6108 H   0  0  0  0  0  0
  -26.8445  -30.8348   22.0076 H   0  0  0  0  0  0
  -28.1183  -28.9725   21.1862 H   0  0  0  0  0  0
  -25.9321  -25.9570   18.9708 H   0  0  0  0  0  0
  -23.9622  -27.3272   19.0064 H   0  0  0  0  0  0
  -23.7571  -30.6052   19.4082 H   0  0  0  0  0  0
  -22.7545  -29.2587   19.8570 H   0  0  0  0  0  0
  -25.1295  -36.1940   25.0822 H   0  0  0  0  0  0
  -20.9983  -28.3264   24.1400 H   0  0  0  0  0  0
  -20.5683  -26.2301   23.3607 H   0  0  0  0  0  0
  -21.6646  -26.7447   22.1197 H   0  0  0  0  0  0
  -19.6915  -25.6297   21.1240 H   0  0  0  0  0  0
  -19.6687  -27.3197   20.6741 H   0  0  0  0  0  0
  -17.4202  -26.6674   21.4030 H   0  0  0  0  0  0
  -18.0337  -26.0070   22.9023 H   0  0  0  0  0  0
  -19.7938  -30.7273   24.2267 H   0  0  0  0  0  0
  -17.5017  -31.6268   24.5165 H   0  0  0  0  0  0
  -15.5354  -30.2987   23.7655 H   0  0  0  0  0  0
  -15.8675  -28.0821   22.7069 H   0  0  0  0  0  0
  -24.5911  -30.7070   25.7787 H   0  0  0  0  0  0
  -24.8917  -32.2891   26.4879 H   0  0  0  0  0  0
  -25.8056  -30.8909   27.0236 H   0  0  0  0  0  0
  -26.2919  -29.6765   24.1210 H   0  0  0  0  0  0
  -27.4032  -29.7265   25.4697 H   0  0  0  0  0  0
  -27.8794  -30.4296   23.9424 H   0  0  0  0  0  0
  -27.2669  -33.3624   26.2082 H   0  0  0  0  0  0
  -28.3871  -32.6882   25.0338 H   0  0  0  0  0  0
  -28.0723  -31.8449   26.5426 H   0  0  0  0  0  0
  -28.2599  -38.0099   24.7510 H   0  0  0  0  0  0
  -28.1074  -36.2631   24.6295 H   0  0  0  0  0  0
  -27.2297  -37.1458   25.8869 H   0  0  0  0  0  0
  -20.9370  -29.8780   21.6896 H   0  0  0  0  0  0
  -26.0175  -38.2856   24.1405 H   0  0  0  0  0  0
  -31.9471  -19.8192   21.2547 H   0  0  0  0  0  0
  -31.9232  -17.3926   21.3837 H   0  0  0  0  0  0
  -27.9168  -19.7855   19.6942 H   0  0  0  0  0  0
  -30.6749  -25.4041   19.8055 H   0  0  0  0  0  0
  -32.0742  -21.3616   19.8514 H   0  0  0  0  0  0
  -27.4089  -24.7916   21.0650 H   0  0  0  0  0  0
  -27.4796  -24.6876   19.3171 H   0  0  0  0  0  0
  -28.8301  -15.3868   20.9270 H   0  0  0  0  0  0
  -32.7950  -24.7573   19.5001 H   0  0  0  0  0  0
  1 25  1  0  0  0
  1 30  2  0  0  0
  1 84  1  0  0  0
  2  3  1  0  0  0
  2 25  1  0  0  0
  2 88  1  0  0  0
  2 89  1  0  0  0
  3  4  1  0  0  0
  3 90  1  0  0  0
  3 91  1  0  0  0
  4  5  1  0  0  0
  4 92  1  0  0  0
  4 93  1  0  0  0
  5  6  1  0  0  0
  5 26  1  0  0  0
  5 94  1  0  0  0
  6 25  1  0  0  0
  6 95  1  0  0  0
  6 96  1  0  0  0
  7  8  2  0  0  0
  7 26  1  0  0  0
  7 29  1  0  0  0
  8  9  1  0  0  0
  8 22  1  0  0  0
  9 10  1  0  0  0
  9 27  2  0  0  0
 10 11  2  0  0  0
 10 15  1  0  0  0
 11 12  1  0  0  0
 11 97  1  0  0  0
 12 13  2  0  0  0
 12 98  1  0  0  0
 13 14  1  0  0  0
 13 31  1  0  0  0
 14 15  2  0  0  0
 14 99  1  0  0  0
 15100  1  0  0  0
 16 17  2  0  0  0
 16 21  1  0  0  0
 16 31  1  0  0  0
 17 18  1  0  0  0
 17101  1  0  0  0
 18 19  2  0  0  0
 18102  1  0  0  0
 19 20  1  0  0  0
 19 24  1  0  0  0
 20 21  2  0  0  0
 20103  1  0  0  0
 21 23  1  0  0  0
 22 28  1  0  0  0
 22 32  2  0  0  0
 26 27  1  0  0  0
 28104  1  0  0  0
 28105  1  0  0  0
 29106  1  0  0  0
 29107  1  0  0  0
 33 34  1  0  0  0
 33 66  1  0  0  0
 33 70  2  0  0  0
 34 36  1  0  0  0
 34 59  1  0  0  0
 34108  1  0  0  0
 35 44  2  0  0  0
 35 45  1  0  0  0
 35 68  1  0  0  0
 36 56  1  0  0  0
 36109  1  0  0  0
 37 39  1  0  0  0
 37 47  1  0  0  0
 37 66  1  0  0  0
 37110  1  0  0  0
 38 43  2  0  0  0
 38 46  1  0  0  0
 38 47  1  0  0  0
 39 64  1  0  0  0
 39 67  2  0  0  0
 40 52  1  0  0  0
 40 53  2  0  0  0
 40 58  1  0  0  0
 41111  1  0  0  0
 41112  1  0  0  0
 41113  1  0  0  0
 41 48  1  0  0  0
 42 43  1  0  0  0
 42 66  1  0  0  0
 42114  1  0  0  0
 42115  1  0  0  0
 43 44  1  0  0  0
 44116  1  0  0  0
 45 46  2  0  0  0
 45117  1  0  0  0
 46118  1  0  0  0
 47119  1  0  0  0
 47120  1  0  0  0
 48 56  1  0  0  0
 48 65  1  0  0  0
 48121  1  0  0  0
 49 50  1  0  0  0
 49 53  1  0  0  0
 49 64  1  0  0  0
 49122  1  0  0  0
 50 51  1  0  0  0
 50123  1  0  0  0
 50124  1  0  0  0
 51 52  1  0  0  0
 51125  1  0  0  0
 51126  1  0  0  0
 52127  1  0  0  0
 52128  1  0  0  0
 53 54  1  0  0  0
 54 55  2  0  0  0
 54129  1  0  0  0
 55 57  1  0  0  0
 55130  1  0  0  0
 56 69  2  0  0  0
 57 58  2  0  0  0
 57131  1  0  0  0
 58132  1  0  0  0
 59 60  1  0  0  0
 59 61  1  0  0  0
 59 62  1  0  0  0
 60133  1  0  0  0
 60134  1  0  0  0
 60135  1  0  0  0
 61136  1  0  0  0
 61137  1  0  0  0
 61138  1  0  0  0
 62139  1  0  0  0
 62140  1  0  0  0
 62141  1  0  0  0
 63 65  1  0  0  0
 63142  1  0  0  0
 63143  1  0  0  0
 63144  1  0  0  0
 64145  1  0  0  0
 65146  1  0  0  0
 68 82  1  0  0  0
 71 72  2  0  0  0
 71 74  1  0  0  0
 71147  1  0  0  0
 72 75  1  0  0  0
 72148  1  0  0  0
 73 74  2  0  0  0
 73 76  1  0  0  0
 73149  1  0  0  0
 74 83  1  0  0  0
 75 76  2  0  0  0
 75 84  1  0  0  0
 76 87  1  0  0  0
 77 79  2  0  0  0
 77 80  1  0  0  0
 77150  1  0  0  0
 78 80  2  0  0  0
 78 83  1  0  0  0
 78151  1  0  0  0
 79 81  1  0  0  0
 79 82  1  0  0  0
 80 86  1  0  0  0
 81 83  1  0  0  0
 81 85  2  0  0  0
 82152  1  0  0  0
 82153  1  0  0  0
 84154  1  0  0  0
 86155  1  0  0  0
M  ISO  4   1 100  68 101  82 101  84 100
M  END
> <chiral flag>
0

> <version>
0

> <s_m_source_file>
/data/baiqing/PycharmProjects/Reinvent-master-3.2/result/LINK_invent/BTK/process_docking_weight1_custom_product_contain_oxygen_bond_distance_aromatic_linkinvent_7_9_3/rearranged_h_0090.sdf

> <i_m_source_file_index>
78

> <r_mmod_Potential_Energy-OPLS-2005>
95.4790267944336

> <r_mmod_Stretch_Energy-OPLS-2005>
97.2312088012695

> <r_mmod_Bend_Energy-OPLS-2005>
140.33952331543

> <r_mmod_Torsional_Energy-OPLS-2005>
242.992645263672

> <r_mmod_Improper_Torsional_Energy-OPLS-2005>
5.53601169586182

> <r_mmod_Van_der_Waal_Energy-OPLS-2005>
178.354141235352

> <r_mmod_Electrostatic_Energy-OPLS-2005>
-403.184967041016

> <r_mmod_Solvation_Energy-OPLS-2005>
-217.814758300781

> <b_mmod_Minimization_Converged-OPLS-2005>
0

> <r_mmod_RMS_Derivative-OPLS-2005>
0.0751201957464218

$$$$
78
                    3D
 Structure written by MMmdl.
152161  0  0  1  0            999 V2000
  -30.6081  -14.8230   20.4970 C   0  0  0  0  0  0
  -30.4374  -12.5195   19.4825 C   0  0  0  0  0  0
  -29.5164  -12.5379   18.2421 C   0  0  0  0  0  0
  -28.0448  -12.3335   18.6484 C   0  0  0  0  0  0
  -27.6382  -13.2352   19.8422 C   0  0  2  0  0  0
  -28.6764  -13.1688   20.9766 C   0  0  0  0  0  0
  -25.2535  -13.8207   20.5682 C   0  0  0  0  0  0
  -24.1822  -13.0465   20.9176 C   0  0  0  0  0  0
  -24.6395  -11.6925   20.8706 C   0  0  0  0  0  0
  -23.9057  -10.4319   21.0405 C   0  0  0  0  0  0
  -24.3636   -9.4231   21.9161 C   0  0  0  0  0  0
  -23.6315   -8.2259   22.0735 C   0  0  0  0  0  0
  -22.4277   -8.0286   21.3535 C   0  0  0  0  0  0
  -21.9907   -9.0258   20.4634 C   0  0  0  0  0  0
  -22.7240  -10.2136   20.3044 C   0  0  0  0  0  0
  -21.6859   -6.0758   22.5290 C   0  0  0  0  0  0
  -21.4015   -6.5663   23.8225 C   0  0  0  0  0  0
  -21.3657   -5.6803   24.9176 C   0  0  0  0  0  0
  -21.6032   -4.3063   24.7217 C   0  0  0  0  0  0
  -21.8830   -3.8166   23.4338 C   0  0  0  0  0  0
  -21.9191   -4.6988   22.3402 C   0  0  0  0  0  0
  -22.7841  -13.5237   21.1854 C   0  0  0  0  0  0
  -22.1671   -4.2191   21.0979 F   0  0  0  0  0  0
  -21.5616   -3.4544   25.7723 F   0  0  0  0  0  0
  -29.9725  -13.5866   20.4123 N   0  0  0  0  0  0
  -26.2926  -12.9405   20.3195 N   0  0  0  0  0  0
  -25.9322  -11.6539   20.5670 N   0  0  0  0  0  0
  -22.0512  -12.8201   22.0404 N   0  0  0  0  0  0
  -25.4317  -15.1938   20.4193 N   0  0  0  0  0  0
  -31.7741  -14.8932   20.0894 O   0  0  0  0  0  0
  -21.6632   -6.8884   21.4240 O   0  0  0  0  0  0
  -22.3515  -14.5561   20.6716 O   0  0  0  0  0  0
  -24.6375  -31.8496   23.1913 C   0  0  0  0  0  0
  -25.9187  -32.4711   23.8291 C   0  0  1  0  0  0
  -27.2240  -27.2142   20.1222 C   0  0  0  0  0  0
  -25.5952  -33.8520   24.2219 N   0  0  0  0  0  0
  -23.4336  -30.4696   21.5396 C   0  0  2  0  0  0
  -24.8799  -28.9082   20.1049 C   0  0  0  0  0  0
  -22.7537  -29.4576   22.4934 C   0  0  0  0  0  0
  -18.0289  -28.1388   22.8490 C   0  0  0  0  0  0
  -24.1485  -36.7276   23.2644 C   0  0  0  0  0  0
  -25.9827  -30.7455   21.3774 C   0  0  0  0  0  0
  -26.0524  -29.3635   20.7183 C   0  0  0  0  0  0
  -27.2211  -28.5292   20.7175 C   0  0  0  0  0  0
  -26.0215  -26.8353   19.4832 C   0  0  0  0  0  0
  -24.8736  -27.6558   19.4723 C   0  0  0  0  0  0
  -23.6492  -29.7958   20.1571 C   0  0  0  0  0  0
  -25.4111  -36.3046   24.0330 C   0  0  1  0  0  0
  -20.5897  -28.3704   23.1278 C   0  0  2  0  0  0
  -20.6768  -26.9414   22.5426 C   0  0  0  0  0  0
  -19.5737  -26.6385   21.5228 C   0  0  0  0  0  0
  -18.1914  -26.7939   22.1624 C   0  0  0  0  0  0
  -19.1544  -28.8867   23.2876 C   0  0  0  0  0  0
  -18.9454  -30.1477   23.8888 C   0  0  0  0  0  0
  -17.6448  -30.6589   24.0570 C   0  0  0  0  0  0
  -25.9064  -34.9416   23.5080 C   0  0  0  0  0  0
  -16.5347  -29.9073   23.6341 C   0  0  0  0  0  0
  -16.7277  -28.6493   23.0357 C   0  0  0  0  0  0
  -26.4498  -31.6565   25.0720 C   0  0  0  0  0  0
  -25.3712  -31.3804   26.1466 C   0  0  0  0  0  0
  -27.0262  -30.2919   24.6281 C   0  0  0  0  0  0
  -27.6091  -32.4276   25.7464 C   0  0  0  0  0  0
  -27.5577  -37.1793   24.8460 C   0  0  0  0  0  0
  -21.4236  -29.3041   22.3681 N   0  0  0  0  0  0
  -26.4282  -37.3747   23.9406 N   0  0  0  0  0  0
  -24.7047  -31.0417   22.0918 N   0  0  0  0  0  0
  -23.4208  -28.8142   23.3082 O   0  0  0  0  0  0
  -28.3163  -26.3049   20.2266 O   0  0  0  0  0  0
  -26.5649  -34.8910   22.4661 O   0  0  0  0  0  0
  -23.5519  -32.1350   23.7187 O   0  0  0  0  0  0
  -29.1946  -22.3649   19.5894 C   0  0  0  0  0  0
  -28.2696  -21.5960   21.4267 C   0  0  0  0  0  0
  -30.5647  -17.6594   19.0887 C   0  0  0  0  0  0
  -28.5623  -23.5003   20.1356 C   0  0  0  0  0  0
  -27.9751  -22.9470   21.3226 C   0  0  0  0  0  0
  -29.9424  -17.3751   20.2820 C   0  0  0  0  0  0
  -29.5120  -19.7669   20.0713 C   0  0  0  0  0  0
  -29.4352  -16.0099   22.2841 C   0  0  0  0  0  0
  -28.4312  -24.9822   19.4814 C   0  0  0  0  0  0
  -29.3374  -18.6019   20.8052 N   0  0  0  0  0  0
  -29.0266  -21.1626   20.3469 N   0  0  0  0  0  0
  -29.9228  -15.9959   20.9018 N   0  0  0  0  0  0
  -27.2055  -23.6421   22.2056 O   0  0  0  0  0  0
  -30.4481  -19.3636   18.6249 S   0  0  0  0  0  0
  -31.4796  -12.6509   19.1812 H   0  0  0  0  0  0
  -30.4034  -11.5462   19.9723 H   0  0  0  0  0  0
  -29.8189  -11.7718   17.5263 H   0  0  0  0  0  0
  -29.6205  -13.4943   17.7258 H   0  0  0  0  0  0
  -27.9166  -11.2837   18.9153 H   0  0  0  0  0  0
  -27.3857  -12.5109   17.7973 H   0  0  0  0  0  0
  -27.6295  -14.2571   19.4646 H   0  0  0  0  0  0
  -28.7358  -12.1588   21.3806 H   0  0  0  0  0  0
  -28.3473  -13.7822   21.8099 H   0  0  0  0  0  0
  -25.2789   -9.5714   22.4712 H   0  0  0  0  0  0
  -24.0054   -7.4638   22.7444 H   0  0  0  0  0  0
  -21.0835   -8.8751   19.8944 H   0  0  0  0  0  0
  -22.3685  -10.9661   19.6147 H   0  0  0  0  0  0
  -21.2024   -7.6170   23.9748 H   0  0  0  0  0  0
  -21.1460   -6.0521   25.9081 H   0  0  0  0  0  0
  -22.0610   -2.7631   23.2818 H   0  0  0  0  0  0
  -22.4136  -11.9863   22.4796 H   0  0  0  0  0  0
  -21.1145  -13.1215   22.2648 H   0  0  0  0  0  0
  -24.6780  -15.8608   20.5398 H   0  0  0  0  0  0
  -26.3045  -15.6254   20.1423 H   0  0  0  0  0  0
  -26.7264  -32.5319   23.1042 H   0  0  0  0  0  0
  -25.0074  -33.9619   25.0341 H   0  0  0  0  0  0
  -22.7340  -31.2945   21.3909 H   0  0  0  0  0  0
  -23.3751  -35.9604   23.3263 H   0  0  0  0  0  0
  -24.3583  -36.8939   22.2066 H   0  0  0  0  0  0
  -23.7222  -37.6458   23.6695 H   0  0  0  0  0  0
  -26.1312  -31.5006   20.6040 H   0  0  0  0  0  0
  -26.8585  -30.7923   22.0145 H   0  0  0  0  0  0
  -28.1181  -28.8744   21.2140 H   0  0  0  0  0  0
  -25.9100  -25.8691   19.0201 H   0  0  0  0  0  0
  -23.9767  -27.2972   18.9876 H   0  0  0  0  0  0
  -23.7656  -30.5676   19.3956 H   0  0  0  0  0  0
  -22.7658  -29.2257   19.8621 H   0  0  0  0  0  0
  -25.1300  -36.1883   25.0825 H   0  0  0  0  0  0
  -20.9969  -28.3263   24.1411 H   0  0  0  0  0  0
  -20.5634  -26.2324   23.3637 H   0  0  0  0  0  0
  -21.6637  -26.7410   22.1241 H   0  0  0  0  0  0
  -19.6888  -25.6284   21.1279 H   0  0  0  0  0  0
  -19.6674  -27.3197   20.6754 H   0  0  0  0  0  0
  -17.4195  -26.6715   21.4013 H   0  0  0  0  0  0
  -18.0285  -26.0071   22.8997 H   0  0  0  0  0  0
  -19.7919  -30.7310   24.2240 H   0  0  0  0  0  0
  -17.4981  -31.6258   24.5173 H   0  0  0  0  0  0
  -15.5336  -30.2960   23.7663 H   0  0  0  0  0  0
  -15.8678  -28.0805   22.7077 H   0  0  0  0  0  0
  -24.5834  -30.7201   25.7824 H   0  0  0  0  0  0
  -24.8977  -32.3014   26.4881 H   0  0  0  0  0  0
  -25.8007  -30.8975   27.0252 H   0  0  0  0  0  0
  -26.2812  -29.6714   24.1284 H   0  0  0  0  0  0
  -27.3811  -29.7175   25.4849 H   0  0  0  0  0  0
  -27.8788  -30.4085   23.9589 H   0  0  0  0  0  0
  -27.2768  -33.3643   26.1956 H   0  0  0  0  0  0
  -28.3939  -32.6703   25.0285 H   0  0  0  0  0  0
  -28.0709  -31.8428   26.5430 H   0  0  0  0  0  0
  -28.2625  -38.0056   24.7448 H   0  0  0  0  0  0
  -28.1036  -36.2590   24.6335 H   0  0  0  0  0  0
  -27.2315  -37.1516   25.8870 H   0  0  0  0  0  0
  -20.9442  -29.8750   21.6851 H   0  0  0  0  0  0
  -26.0163  -38.2835   24.1353 H   0  0  0  0  0  0
  -29.7497  -22.3001   18.6633 H   0  0  0  0  0  0
  -27.9846  -20.8712   22.1776 H   0  0  0  0  0  0
  -31.1104  -16.9798   18.4469 H   0  0  0  0  0  0
  -29.7912  -16.8929   22.8130 H   0  0  0  0  0  0
  -29.7775  -15.1569   22.8756 H   0  0  0  0  0  0
  -28.3467  -16.0391   22.2890 H   0  0  0  0  0  0
  -27.6977  -24.9044   18.6856 H   0  0  0  0  0  0
  -29.3670  -25.0947   18.9341 H   0  0  0  0  0  0
  -26.8164  -23.0968   22.8833 H   0  0  0  0  0  0
  1 25  1  0  0  0
  1 30  2  0  0  0
  1 82  1  0  0  0
  2  3  1  0  0  0
  2 25  1  0  0  0
  2 85  1  0  0  0
  2 86  1  0  0  0
  3  4  1  0  0  0
  3 87  1  0  0  0
  3 88  1  0  0  0
  4  5  1  0  0  0
  4 89  1  0  0  0
  4 90  1  0  0  0
  5  6  1  0  0  0
  5 26  1  0  0  0
  5 91  1  0  0  0
  6 25  1  0  0  0
  6 92  1  0  0  0
  6 93  1  0  0  0
  7  8  2  0  0  0
  7 26  1  0  0  0
  7 29  1  0  0  0
  8  9  1  0  0  0
  8 22  1  0  0  0
  9 10  1  0  0  0
  9 27  2  0  0  0
 10 11  2  0  0  0
 10 15  1  0  0  0
 11 12  1  0  0  0
 11 94  1  0  0  0
 12 13  2  0  0  0
 12 95  1  0  0  0
 13 14  1  0  0  0
 13 31  1  0  0  0
 14 15  2  0  0  0
 14 96  1  0  0  0
 15 97  1  0  0  0
 16 17  2  0  0  0
 16 21  1  0  0  0
 16 31  1  0  0  0
 17 18  1  0  0  0
 17 98  1  0  0  0
 18 19  2  0  0  0
 18 99  1  0  0  0
 19 20  1  0  0  0
 19 24  1  0  0  0
 20 21  2  0  0  0
 20100  1  0  0  0
 21 23  1  0  0  0
 22 28  1  0  0  0
 22 32  2  0  0  0
 26 27  1  0  0  0
 28101  1  0  0  0
 28102  1  0  0  0
 29103  1  0  0  0
 29104  1  0  0  0
 33 34  1  0  0  0
 33 66  1  0  0  0
 33 70  2  0  0  0
 34 36  1  0  0  0
 34 59  1  0  0  0
 34105  1  0  0  0
 35 44  2  0  0  0
 35 45  1  0  0  0
 35 68  1  0  0  0
 36 56  1  0  0  0
 36106  1  0  0  0
 37 39  1  0  0  0
 37 47  1  0  0  0
 37 66  1  0  0  0
 37107  1  0  0  0
 38 43  2  0  0  0
 38 46  1  0  0  0
 38 47  1  0  0  0
 39 64  1  0  0  0
 39 67  2  0  0  0
 40 52  1  0  0  0
 40 53  2  0  0  0
 40 58  1  0  0  0
 41108  1  0  0  0
 41109  1  0  0  0
 41110  1  0  0  0
 41 48  1  0  0  0
 42 43  1  0  0  0
 42 66  1  0  0  0
 42111  1  0  0  0
 42112  1  0  0  0
 43 44  1  0  0  0
 44113  1  0  0  0
 45 46  2  0  0  0
 45114  1  0  0  0
 46115  1  0  0  0
 47116  1  0  0  0
 47117  1  0  0  0
 48 56  1  0  0  0
 48 65  1  0  0  0
 48118  1  0  0  0
 49 50  1  0  0  0
 49 53  1  0  0  0
 49 64  1  0  0  0
 49119  1  0  0  0
 50 51  1  0  0  0
 50120  1  0  0  0
 50121  1  0  0  0
 51 52  1  0  0  0
 51122  1  0  0  0
 51123  1  0  0  0
 52124  1  0  0  0
 52125  1  0  0  0
 53 54  1  0  0  0
 54 55  2  0  0  0
 54126  1  0  0  0
 55 57  1  0  0  0
 55127  1  0  0  0
 56 69  2  0  0  0
 57 58  2  0  0  0
 57128  1  0  0  0
 58129  1  0  0  0
 59 60  1  0  0  0
 59 61  1  0  0  0
 59 62  1  0  0  0
 60130  1  0  0  0
 60131  1  0  0  0
 60132  1  0  0  0
 61133  1  0  0  0
 61134  1  0  0  0
 61135  1  0  0  0
 62136  1  0  0  0
 62137  1  0  0  0
 62138  1  0  0  0
 63 65  1  0  0  0
 63139  1  0  0  0
 63140  1  0  0  0
 63141  1  0  0  0
 64142  1  0  0  0
 65143  1  0  0  0
 68 79  1  0  0  0
 71 74  2  0  0  0
 71 81  1  0  0  0
 71144  1  0  0  0
 72 75  2  0  0  0
 72 81  1  0  0  0
 72145  1  0  0  0
 73 76  2  0  0  0
 73 84  1  0  0  0
 73146  1  0  0  0
 74 75  1  0  0  0
 74 79  1  0  0  0
 75 83  1  0  0  0
 76 80  1  0  0  0
 76 82  1  0  0  0
 77 80  2  0  0  0
 77 81  1  0  0  0
 77 84  1  0  0  0
 78 82  1  0  0  0
 78147  1  0  0  0
 78148  1  0  0  0
 78149  1  0  0  0
 79150  1  0  0  0
 79151  1  0  0  0
 83152  1  0  0  0
M  ISO  4   1 100  68 101  79 101  82 100
M  END
> <chiral flag>
0

> <version>
0

> <s_m_source_file>
/data/baiqing/PycharmProjects/Reinvent-master-3.2/result/LINK_invent/BTK/process_docking_weight1_custom_product_contain_oxygen_bond_distance_aromatic_linkinvent_7_9_3/rearranged_h_0090.sdf

> <i_m_source_file_index>
79

> <r_mmod_Potential_Energy-OPLS-2005>
359.481109619141

> <r_mmod_Stretch_Energy-OPLS-2005>
160.306198120117

> <r_mmod_Bend_Energy-OPLS-2005>
209.372924804688

> <r_mmod_Torsional_Energy-OPLS-2005>
267.599060058594

> <r_mmod_Improper_Torsional_Energy-OPLS-2005>
4.2646017074585

> <r_mmod_Van_der_Waal_Energy-OPLS-2005>
118.028167724609

> <r_mmod_Electrostatic_Energy-OPLS-2005>
-288.389495849609

> <r_mmod_Solvation_Energy-OPLS-2005>
-226.7001953125

> <b_mmod_Minimization_Converged-OPLS-2005>
0

> <r_mmod_RMS_Derivative-OPLS-2005>
3.78669595718384

$$$$
79
                    3D
 Structure written by MMmdl.
151159  0  0  1  0            999 V2000
  -30.6995  -14.5285   20.5367 C   0  0  0  0  0  0
  -30.4200  -12.3311   19.4402 C   0  0  0  0  0  0
  -29.4966  -12.4950   18.2152 C   0  0  0  0  0  0
  -28.0192  -12.3507   18.6287 C   0  0  0  0  0  0
  -27.6558  -13.2139   19.8669 C   0  0  2  0  0  0
  -28.6995  -13.0471   20.9953 C   0  0  0  0  0  0
  -25.2567  -13.8172   20.5688 C   0  0  0  0  0  0
  -24.1829  -13.0441   20.9186 C   0  0  0  0  0  0
  -24.6389  -11.6909   20.8737 C   0  0  0  0  0  0
  -23.9058  -10.4292   21.0404 C   0  0  0  0  0  0
  -24.3611   -9.4209   21.9182 C   0  0  0  0  0  0
  -23.6289   -8.2243   22.0753 C   0  0  0  0  0  0
  -22.4274   -8.0277   21.3542 C   0  0  0  0  0  0
  -21.9906   -9.0252   20.4646 C   0  0  0  0  0  0
  -22.7231  -10.2133   20.3056 C   0  0  0  0  0  0
  -21.6853   -6.0734   22.5276 C   0  0  0  0  0  0
  -21.4014   -6.5638   23.8209 C   0  0  0  0  0  0
  -21.3659   -5.6792   24.9172 C   0  0  0  0  0  0
  -21.6043   -4.3055   24.7223 C   0  0  0  0  0  0
  -21.8820   -3.8147   23.4345 C   0  0  0  0  0  0
  -21.9192   -4.6962   22.3401 C   0  0  0  0  0  0
  -22.7853  -13.5233   21.1847 C   0  0  0  0  0  0
  -22.1662   -4.2148   21.0979 F   0  0  0  0  0  0
  -21.5628   -3.4539   25.7736 F   0  0  0  0  0  0
  -30.0244  -13.3478   20.4316 N   0  0  0  0  0  0
  -26.3000  -12.9353   20.3343 N   0  0  0  0  0  0
  -25.9319  -11.6507   20.5772 N   0  0  0  0  0  0
  -22.0495  -12.8226   22.0405 N   0  0  0  0  0  0
  -25.4285  -15.1891   20.4090 N   0  0  0  0  0  0
  -31.8482  -14.6506   20.1056 O   0  0  0  0  0  0
  -21.6638   -6.8877   21.4239 O   0  0  0  0  0  0
  -22.3537  -14.5538   20.6693 O   0  0  0  0  0  0
  -24.6185  -31.8656   23.2092 C   0  0  0  0  0  0
  -25.9067  -32.4811   23.8391 C   0  0  1  0  0  0
  -27.2247  -27.4012   20.1029 C   0  0  0  0  0  0
  -25.5906  -33.8611   24.2317 N   0  0  0  0  0  0
  -23.4085  -30.4904   21.5504 C   0  0  2  0  0  0
  -24.8561  -28.9612   20.1070 C   0  0  0  0  0  0
  -22.7438  -29.4644   22.4972 C   0  0  0  0  0  0
  -18.0269  -28.1383   22.8484 C   0  0  0  0  0  0
  -24.1486  -36.7311   23.2640 C   0  0  0  0  0  0
  -25.9426  -30.8220   21.3689 C   0  0  0  0  0  0
  -26.0206  -29.4574   20.7094 C   0  0  0  0  0  0
  -27.2116  -28.6855   20.7051 C   0  0  0  0  0  0
  -26.0473  -26.9420   19.4716 C   0  0  0  0  0  0
  -24.8664  -27.7042   19.4819 C   0  0  0  0  0  0
  -23.6185  -29.8293   20.1630 C   0  0  0  0  0  0
  -25.4108  -36.3105   24.0337 C   0  0  1  0  0  0
  -20.5866  -28.3674   23.1301 C   0  0  2  0  0  0
  -20.6759  -26.9404   22.5420 C   0  0  0  0  0  0
  -19.5740  -26.6386   21.5214 C   0  0  0  0  0  0
  -18.1917  -26.7926   22.1619 C   0  0  0  0  0  0
  -19.1523  -28.8846   23.2884 C   0  0  0  0  0  0
  -18.9454  -30.1448   23.8900 C   0  0  0  0  0  0
  -17.6460  -30.6586   24.0568 C   0  0  0  0  0  0
  -25.9039  -34.9470   23.5126 C   0  0  0  0  0  0
  -16.5347  -29.9093   23.6330 C   0  0  0  0  0  0
  -16.7260  -28.6511   23.0347 C   0  0  0  0  0  0
  -26.4478  -31.6598   25.0732 C   0  0  0  0  0  0
  -25.3740  -31.3725   26.1482 C   0  0  0  0  0  0
  -27.0309  -30.3030   24.6138 C   0  0  0  0  0  0
  -27.6049  -32.4326   25.7488 C   0  0  0  0  0  0
  -27.5580  -37.1804   24.8467 C   0  0  0  0  0  0
  -21.4161  -29.3037   22.3709 N   0  0  0  0  0  0
  -26.4292  -37.3791   23.9412 N   0  0  0  0  0  0
  -24.6748  -31.0736   22.1006 N   0  0  0  0  0  0
  -23.4191  -28.8172   23.3016 O   0  0  0  0  0  0
  -28.3203  -26.5526   20.1642 O   0  0  0  0  0  0
  -26.5607  -34.8925   22.4692 O   0  0  0  0  0  0
  -23.5367  -32.1428   23.7461 O   0  0  0  0  0  0
  -29.3686  -18.0185   20.9700 C   0  0  0  0  0  0
  -31.0567  -19.7668   21.1760 C   0  0  0  0  0  0
  -31.7121  -17.4103   21.1527 C   0  0  0  0  0  0
  -29.6964  -19.4093   21.0474 C   0  0  0  0  0  0
  -30.3638  -16.9983   21.0122 C   0  0  0  0  0  0
  -32.0520  -18.7748   21.2256 C   0  0  0  0  0  0
  -28.6835  -24.1201   20.4164 C   0  0  0  0  0  0
  -28.0358  -25.2893   20.6748 C   0  0  0  0  0  0
  -28.6078  -20.4688   21.1203 C   0  0  0  0  0  0
  -28.1541  -22.8682   20.9910 C   0  0  0  0  0  0
  -29.9805  -15.6012   20.9639 N   0  0  0  0  0  0
  -28.9184  -21.7573   20.7951 N   0  0  0  0  0  0
  -27.4781  -20.0948   21.4574 O   0  0  0  0  0  0
  -27.0801  -22.8400   21.6059 O   0  0  0  0  0  0
  -33.3494  -19.1369   21.3662 F   0  0  0  0  0  0
  -31.4654  -12.4192   19.1387 H   0  0  0  0  0  0
  -30.3187  -11.3323   19.8675 H   0  0  0  0  0  0
  -29.7446  -11.7532   17.4543 H   0  0  0  0  0  0
  -29.6581  -13.4713   17.7559 H   0  0  0  0  0  0
  -27.8409  -11.2974   18.8487 H   0  0  0  0  0  0
  -27.3664  -12.5990   17.7911 H   0  0  0  0  0  0
  -27.6842  -14.2530   19.5383 H   0  0  0  0  0  0
  -28.6868  -12.0267   21.3808 H   0  0  0  0  0  0
  -28.4614  -13.6876   21.8457 H   0  0  0  0  0  0
  -25.2759   -9.5686   22.4755 H   0  0  0  0  0  0
  -23.9998   -7.4637   22.7474 H   0  0  0  0  0  0
  -21.0835   -8.8766   19.8954 H   0  0  0  0  0  0
  -22.3684  -10.9669   19.6165 H   0  0  0  0  0  0
  -21.2009   -7.6147   23.9711 H   0  0  0  0  0  0
  -21.1481   -6.0524   25.9074 H   0  0  0  0  0  0
  -22.0601   -2.7608   23.2844 H   0  0  0  0  0  0
  -22.4111  -11.9886   22.4791 H   0  0  0  0  0  0
  -21.1115  -13.1256   22.2618 H   0  0  0  0  0  0
  -24.6611  -15.8437   20.5150 H   0  0  0  0  0  0
  -26.2748  -15.6257   20.0669 H   0  0  0  0  0  0
  -26.7136  -32.5510   23.1150 H   0  0  0  0  0  0
  -25.0057  -33.9772   25.0460 H   0  0  0  0  0  0
  -22.6984  -31.3085   21.4130 H   0  0  0  0  0  0
  -23.3742  -35.9650   23.3315 H   0  0  0  0  0  0
  -24.3585  -36.8918   22.2052 H   0  0  0  0  0  0
  -23.7241  -37.6520   23.6649 H   0  0  0  0  0  0
  -26.0650  -31.5901   20.6039 H   0  0  0  0  0  0
  -26.8262  -30.8697   21.9935 H   0  0  0  0  0  0
  -28.1038  -29.0537   21.1921 H   0  0  0  0  0  0
  -26.0338  -25.9716   18.9955 H   0  0  0  0  0  0
  -23.9733  -27.3164   19.0109 H   0  0  0  0  0  0
  -23.7268  -30.6085   19.4075 H   0  0  0  0  0  0
  -22.7410  -29.2529   19.8643 H   0  0  0  0  0  0
  -25.1280  -36.1972   25.0830 H   0  0  0  0  0  0
  -20.9949  -28.3248   24.1425 H   0  0  0  0  0  0
  -20.5663  -26.2286   23.3618 H   0  0  0  0  0  0
  -21.6627  -26.7447   22.1213 H   0  0  0  0  0  0
  -19.6909  -25.6302   21.1235 H   0  0  0  0  0  0
  -19.6677  -27.3202   20.6749 H   0  0  0  0  0  0
  -17.4189  -26.6672   21.4018 H   0  0  0  0  0  0
  -18.0310  -26.0069   22.9015 H   0  0  0  0  0  0
  -19.7936  -30.7253   24.2271 H   0  0  0  0  0  0
  -17.5022  -31.6267   24.5170 H   0  0  0  0  0  0
  -15.5350  -30.3000   23.7656 H   0  0  0  0  0  0
  -15.8656  -28.0837   22.7061 H   0  0  0  0  0  0
  -24.5915  -30.7061   25.7831 H   0  0  0  0  0  0
  -24.8929  -32.2890   26.4909 H   0  0  0  0  0  0
  -25.8093  -30.8917   27.0251 H   0  0  0  0  0  0
  -26.2863  -29.6789   24.1182 H   0  0  0  0  0  0
  -27.4048  -29.7269   25.4612 H   0  0  0  0  0  0
  -27.8713  -30.4328   23.9318 H   0  0  0  0  0  0
  -27.2660  -33.3614   26.2090 H   0  0  0  0  0  0
  -28.3838  -32.6912   25.0302 H   0  0  0  0  0  0
  -28.0745  -31.8446   26.5384 H   0  0  0  0  0  0
  -28.2605  -38.0091   24.7503 H   0  0  0  0  0  0
  -28.1062  -36.2622   24.6296 H   0  0  0  0  0  0
  -27.2306  -37.1471   25.8873 H   0  0  0  0  0  0
  -20.9330  -29.8785   21.6948 H   0  0  0  0  0  0
  -26.0181  -38.2871   24.1406 H   0  0  0  0  0  0
  -28.3282  -17.7328   20.8933 H   0  0  0  0  0  0
  -31.3564  -20.7997   21.2736 H   0  0  0  0  0  0
  -32.5157  -16.6944   21.2260 H   0  0  0  0  0  0
  -29.5541  -24.1127   19.7772 H   0  0  0  0  0  0
  -27.1738  -25.3172   21.3313 H   0  0  0  0  0  0
  -29.0174  -15.3957   21.1815 H   0  0  0  0  0  0
  -29.8257  -21.9001   20.3835 H   0  0  0  0  0  0
  1 25  1  0  0  0
  1 30  2  0  0  0
  1 81  1  0  0  0
  2  3  1  0  0  0
  2 25  1  0  0  0
  2 86  1  0  0  0
  2 87  1  0  0  0
  3  4  1  0  0  0
  3 88  1  0  0  0
  3 89  1  0  0  0
  4  5  1  0  0  0
  4 90  1  0  0  0
  4 91  1  0  0  0
  5  6  1  0  0  0
  5 26  1  0  0  0
  5 92  1  0  0  0
  6 25  1  0  0  0
  6 93  1  0  0  0
  6 94  1  0  0  0
  7  8  2  0  0  0
  7 26  1  0  0  0
  7 29  1  0  0  0
  8  9  1  0  0  0
  8 22  1  0  0  0
  9 10  1  0  0  0
  9 27  2  0  0  0
 10 11  2  0  0  0
 10 15  1  0  0  0
 11 12  1  0  0  0
 11 95  1  0  0  0
 12 13  2  0  0  0
 12 96  1  0  0  0
 13 14  1  0  0  0
 13 31  1  0  0  0
 14 15  2  0  0  0
 14 97  1  0  0  0
 15 98  1  0  0  0
 16 17  2  0  0  0
 16 21  1  0  0  0
 16 31  1  0  0  0
 17 18  1  0  0  0
 17 99  1  0  0  0
 18 19  2  0  0  0
 18100  1  0  0  0
 19 20  1  0  0  0
 19 24  1  0  0  0
 20 21  2  0  0  0
 20101  1  0  0  0
 21 23  1  0  0  0
 22 28  1  0  0  0
 22 32  2  0  0  0
 26 27  1  0  0  0
 28102  1  0  0  0
 28103  1  0  0  0
 29104  1  0  0  0
 29105  1  0  0  0
 33 34  1  0  0  0
 33 66  1  0  0  0
 33 70  2  0  0  0
 34 36  1  0  0  0
 34 59  1  0  0  0
 34106  1  0  0  0
 35 44  2  0  0  0
 35 45  1  0  0  0
 35 68  1  0  0  0
 36 56  1  0  0  0
 36107  1  0  0  0
 37 39  1  0  0  0
 37 47  1  0  0  0
 37 66  1  0  0  0
 37108  1  0  0  0
 38 43  2  0  0  0
 38 46  1  0  0  0
 38 47  1  0  0  0
 39 64  1  0  0  0
 39 67  2  0  0  0
 40 52  1  0  0  0
 40 53  2  0  0  0
 40 58  1  0  0  0
 41109  1  0  0  0
 41110  1  0  0  0
 41111  1  0  0  0
 41 48  1  0  0  0
 42 43  1  0  0  0
 42 66  1  0  0  0
 42112  1  0  0  0
 42113  1  0  0  0
 43 44  1  0  0  0
 44114  1  0  0  0
 45 46  2  0  0  0
 45115  1  0  0  0
 46116  1  0  0  0
 47117  1  0  0  0
 47118  1  0  0  0
 48 56  1  0  0  0
 48 65  1  0  0  0
 48119  1  0  0  0
 49 50  1  0  0  0
 49 53  1  0  0  0
 49 64  1  0  0  0
 49120  1  0  0  0
 50 51  1  0  0  0
 50121  1  0  0  0
 50122  1  0  0  0
 51 52  1  0  0  0
 51123  1  0  0  0
 51124  1  0  0  0
 52125  1  0  0  0
 52126  1  0  0  0
 53 54  1  0  0  0
 54 55  2  0  0  0
 54127  1  0  0  0
 55 57  1  0  0  0
 55128  1  0  0  0
 56 69  2  0  0  0
 57 58  2  0  0  0
 57129  1  0  0  0
 58130  1  0  0  0
 59 60  1  0  0  0
 59 61  1  0  0  0
 59 62  1  0  0  0
 60131  1  0  0  0
 60132  1  0  0  0
 60133  1  0  0  0
 61134  1  0  0  0
 61135  1  0  0  0
 61136  1  0  0  0
 62137  1  0  0  0
 62138  1  0  0  0
 62139  1  0  0  0
 63 65  1  0  0  0
 63140  1  0  0  0
 63141  1  0  0  0
 63142  1  0  0  0
 64143  1  0  0  0
 65144  1  0  0  0
 68 78  1  0  0  0
 71 74  2  0  0  0
 71 75  1  0  0  0
 71145  1  0  0  0
 72 74  1  0  0  0
 72 76  2  0  0  0
 72146  1  0  0  0
 73 75  2  0  0  0
 73 76  1  0  0  0
 73147  1  0  0  0
 74 79  1  0  0  0
 75 81  1  0  0  0
 76 85  1  0  0  0
 77 78  2  0  0  0
 77 80  1  0  0  0
 77148  1  0  0  0
 78149  1  0  0  0
 79 82  1  0  0  0
 79 83  2  0  0  0
 80 82  1  0  0  0
 80 84  2  0  0  0
 81150  1  0  0  0
 82151  1  0  0  0
M  ISO  4   1 100  68 101  78 101  81 100
M  END
> <chiral flag>
0

> <version>
0

> <s_m_source_file>
/data/baiqing/PycharmProjects/Reinvent-master-3.2/result/LINK_invent/BTK/process_docking_weight1_custom_product_contain_oxygen_bond_distance_aromatic_linkinvent_7_9_3/rearranged_h_0090.sdf

> <i_m_source_file_index>
80

> <r_mmod_Potential_Energy-OPLS-2005>
-182.134033203125

> <r_mmod_Stretch_Energy-OPLS-2005>
50.074047088623

> <r_mmod_Bend_Energy-OPLS-2005>
105.144813537598

> <r_mmod_Torsional_Energy-OPLS-2005>
225.586715698242

> <r_mmod_Improper_Torsional_Energy-OPLS-2005>
4.89380979537964

> <r_mmod_Van_der_Waal_Energy-OPLS-2005>
170.690338134766

> <r_mmod_Electrostatic_Energy-OPLS-2005>
-503.866851806641

> <r_mmod_Solvation_Energy-OPLS-2005>
-259.882659912109

> <b_mmod_Minimization_Converged-OPLS-2005>
0

> <r_mmod_RMS_Derivative-OPLS-2005>
0.725567996501923

$$$$
81
                    3D
 Structure written by MMmdl.
153161  0  0  1  0            999 V2000
  -30.6311  -14.5615   20.6331 C   0  0  0  0  0  0
  -30.4267  -12.3602   19.4507 C   0  0  0  0  0  0
  -29.5106  -12.5470   18.2230 C   0  0  0  0  0  0
  -28.0288  -12.3831   18.6122 C   0  0  0  0  0  0
  -27.6585  -13.2093   19.8714 C   0  0  2  0  0  0
  -28.6858  -13.0026   21.0056 C   0  0  0  0  0  0
  -25.2566  -13.8176   20.5617 C   0  0  0  0  0  0
  -24.1836  -13.0445   20.9137 C   0  0  0  0  0  0
  -24.6411  -11.6919   20.8738 C   0  0  0  0  0  0
  -23.9079  -10.4302   21.0407 C   0  0  0  0  0  0
  -24.3649   -9.4237   21.9196 C   0  0  0  0  0  0
  -23.6315   -8.2278   22.0765 C   0  0  0  0  0  0
  -22.4303   -8.0304   21.3538 C   0  0  0  0  0  0
  -21.9931   -9.0263   20.4633 C   0  0  0  0  0  0
  -22.7255  -10.2149   20.3054 C   0  0  0  0  0  0
  -21.6873   -6.0757   22.5270 C   0  0  0  0  0  0
  -21.4020   -6.5639   23.8202 C   0  0  0  0  0  0
  -21.3670   -5.6778   24.9149 C   0  0  0  0  0  0
  -21.6063   -4.3041   24.7203 C   0  0  0  0  0  0
  -21.8819   -3.8143   23.4325 C   0  0  0  0  0  0
  -21.9190   -4.6975   22.3393 C   0  0  0  0  0  0
  -22.7867  -13.5250   21.1756 C   0  0  0  0  0  0
  -22.1668   -4.2172   21.0954 F   0  0  0  0  0  0
  -21.5634   -3.4510   25.7714 F   0  0  0  0  0  0
  -30.0240  -13.3419   20.4809 N   0  0  0  0  0  0
  -26.2985  -12.9356   20.3268 N   0  0  0  0  0  0
  -25.9342  -11.6510   20.5741 N   0  0  0  0  0  0
  -22.0482  -12.8305   22.0332 N   0  0  0  0  0  0
  -25.4213  -15.1918   20.4143 N   0  0  0  0  0  0
  -31.7028  -14.8073   20.0669 O   0  0  0  0  0  0
  -21.6677   -6.8905   21.4231 O   0  0  0  0  0  0
  -22.3569  -14.5515   20.6491 O   0  0  0  0  0  0
  -24.6181  -31.8571   23.2013 C   0  0  0  0  0  0
  -25.9016  -32.4805   23.8342 C   0  0  1  0  0  0
  -27.2805  -27.3729   20.1268 C   0  0  0  0  0  0
  -25.5832  -33.8610   24.2253 N   0  0  0  0  0  0
  -23.4195  -30.4757   21.5328 C   0  0  2  0  0  0
  -24.8859  -28.9171   20.1272 C   0  0  0  0  0  0
  -22.7443  -29.4606   22.4857 C   0  0  0  0  0  0
  -18.0269  -28.1405   22.8434 C   0  0  0  0  0  0
  -24.1473  -36.7350   23.2635 C   0  0  0  0  0  0
  -25.9526  -30.8060   21.3651 C   0  0  0  0  0  0
  -26.0428  -29.4261   20.7314 C   0  0  0  0  0  0
  -27.2415  -28.6627   20.7261 C   0  0  0  0  0  0
  -26.1035  -26.8878   19.5195 C   0  0  0  0  0  0
  -24.9137  -27.6477   19.5210 C   0  0  0  0  0  0
  -23.6485  -29.7929   20.1556 C   0  0  0  0  0  0
  -25.4096  -36.3113   24.0315 C   0  0  1  0  0  0
  -20.5858  -28.3696   23.1253 C   0  0  2  0  0  0
  -20.6761  -26.9414   22.5399 C   0  0  0  0  0  0
  -19.5774  -26.6387   21.5172 C   0  0  0  0  0  0
  -18.1939  -26.7950   22.1576 C   0  0  0  0  0  0
  -19.1519  -28.8868   23.2847 C   0  0  0  0  0  0
  -18.9465  -30.1452   23.8901 C   0  0  0  0  0  0
  -17.6480  -30.6615   24.0552 C   0  0  0  0  0  0
  -25.9025  -34.9475   23.5103 C   0  0  0  0  0  0
  -16.5358  -29.9131   23.6298 C   0  0  0  0  0  0
  -16.7264  -28.6534   23.0312 C   0  0  0  0  0  0
  -26.4428  -31.6645   25.0729 C   0  0  0  0  0  0
  -25.3667  -31.3830   26.1472 C   0  0  0  0  0  0
  -27.0224  -30.3063   24.6145 C   0  0  0  0  0  0
  -27.5971  -32.4379   25.7519 C   0  0  0  0  0  0
  -27.5574  -37.1834   24.8434 C   0  0  0  0  0  0
  -21.4146  -29.3071   22.3650 N   0  0  0  0  0  0
  -26.4267  -37.3804   23.9414 N   0  0  0  0  0  0
  -24.6812  -31.0632   22.0918 N   0  0  0  0  0  0
  -23.4161  -28.8086   23.2901 O   0  0  0  0  0  0
  -28.4534  -26.6274   20.0289 O   0  0  0  0  0  0
  -26.5601  -34.8926   22.4681 O   0  0  0  0  0  0
  -23.5345  -32.1317   23.7369 O   0  0  0  0  0  0
  -31.9474  -19.1379   19.5720 C   0  0  0  0  0  0
  -31.5343  -17.9660   20.2387 C   0  0  0  0  0  0
  -31.2423  -20.3531   19.7138 C   0  0  0  0  0  0
  -29.6786  -19.2187   21.1756 C   0  0  0  0  0  0
  -30.3704  -17.9628   21.0279 C   0  0  0  0  0  0
  -30.0972  -20.4370   20.5423 C   0  0  0  0  0  0
  -29.9057  -16.7258   21.8137 C   0  0  0  0  0  0
  -29.6738  -22.9953   20.5218 C   0  0  0  0  0  0
  -28.5149  -24.0659   20.5813 C   0  0  0  0  0  0
  -28.7341  -25.5812   21.0114 C   0  0  0  0  0  0
  -29.3279  -21.6731   20.6755 N   0  0  0  0  0  0
  -29.9426  -15.4109   21.4445 N   0  0  0  0  0  0
  -29.3000  -16.9581   22.8611 O   0  0  0  0  0  0
  -30.8397  -23.3622   20.3437 O   0  0  0  0  0  0
  -31.4796  -12.4501   19.1705 H   0  0  0  0  0  0
  -30.3108  -11.3464   19.8404 H   0  0  0  0  0  0
  -29.7722  -11.8391   17.4390 H   0  0  0  0  0  0
  -29.6758  -13.5423   17.8045 H   0  0  0  0  0  0
  -27.8366  -11.3236   18.7819 H   0  0  0  0  0  0
  -27.3887  -12.6742   17.7781 H   0  0  0  0  0  0
  -27.7006  -14.2624   19.5812 H   0  0  0  0  0  0
  -28.6828  -11.9754   21.3637 H   0  0  0  0  0  0
  -28.3854  -13.5881   21.8739 H   0  0  0  0  0  0
  -25.2823   -9.5720   22.4747 H   0  0  0  0  0  0
  -24.0041   -7.4672   22.7501 H   0  0  0  0  0  0
  -21.0867   -8.8777   19.8940 H   0  0  0  0  0  0
  -22.3724  -10.9692   19.6153 H   0  0  0  0  0  0
  -21.2030   -7.6156   23.9711 H   0  0  0  0  0  0
  -21.1489   -6.0510   25.9062 H   0  0  0  0  0  0
  -22.0600   -2.7611   23.2799 H   0  0  0  0  0  0
  -22.4038  -12.0096   22.4957 H   0  0  0  0  0  0
  -21.1053  -13.1302   22.2312 H   0  0  0  0  0  0
  -24.6470  -15.8325   20.5412 H   0  0  0  0  0  0
  -26.2800  -15.6593   20.1452 H   0  0  0  0  0  0
  -26.7086  -32.5501   23.1090 H   0  0  0  0  0  0
  -24.9894  -33.9750   25.0335 H   0  0  0  0  0  0
  -22.7111  -31.2924   21.3750 H   0  0  0  0  0  0
  -23.3705  -35.9707   23.3274 H   0  0  0  0  0  0
  -24.3551  -36.9010   22.2054 H   0  0  0  0  0  0
  -23.7256  -37.6562   23.6670 H   0  0  0  0  0  0
  -26.0551  -31.5580   20.5817 H   0  0  0  0  0  0
  -26.8407  -30.8821   21.9793 H   0  0  0  0  0  0
  -28.1378  -29.0692   21.1754 H   0  0  0  0  0  0
  -26.1079  -25.9226   19.0325 H   0  0  0  0  0  0
  -24.0261  -27.2519   19.0469 H   0  0  0  0  0  0
  -23.7815  -30.5615   19.3942 H   0  0  0  0  0  0
  -22.7733  -29.2214   19.8434 H   0  0  0  0  0  0
  -25.1287  -36.1944   25.0803 H   0  0  0  0  0  0
  -20.9938  -28.3287   24.1374 H   0  0  0  0  0  0
  -20.5598  -26.2315   23.3587 H   0  0  0  0  0  0
  -21.6644  -26.7423   22.1244 H   0  0  0  0  0  0
  -19.6947  -25.6270   21.1261 H   0  0  0  0  0  0
  -19.6773  -27.3121   20.6635 H   0  0  0  0  0  0
  -17.4194  -26.6585   21.4001 H   0  0  0  0  0  0
  -18.0419  -26.0132   22.9031 H   0  0  0  0  0  0
  -19.7950  -30.7236   24.2292 H   0  0  0  0  0  0
  -17.5058  -31.6304   24.5148 H   0  0  0  0  0  0
  -15.5358  -30.3067   23.7674 H   0  0  0  0  0  0
  -15.8626  -28.0910   22.7024 H   0  0  0  0  0  0
  -24.5752  -30.7264   25.7840 H   0  0  0  0  0  0
  -24.8952  -32.3034   26.4942 H   0  0  0  0  0  0
  -25.7999  -30.8978   27.0225 H   0  0  0  0  0  0
  -26.2801  -29.6931   24.1012 H   0  0  0  0  0  0
  -27.3736  -29.7229   25.4672 H   0  0  0  0  0  0
  -27.8753  -30.4362   23.9467 H   0  0  0  0  0  0
  -27.2525  -33.3629   26.2149 H   0  0  0  0  0  0
  -28.3777  -32.7034   25.0382 H   0  0  0  0  0  0
  -28.0606  -31.8464   26.5417 H   0  0  0  0  0  0
  -28.2568  -38.0159   24.7502 H   0  0  0  0  0  0
  -28.1105  -36.2694   24.6217 H   0  0  0  0  0  0
  -27.2298  -37.1435   25.8836 H   0  0  0  0  0  0
  -20.9267  -29.8897   21.6973 H   0  0  0  0  0  0
  -26.0145  -38.2860   24.1477 H   0  0  0  0  0  0
  -32.8317  -19.0930   18.9493 H   0  0  0  0  0  0
  -32.1481  -17.0870   20.1449 H   0  0  0  0  0  0
  -31.5878  -21.2153   19.1626 H   0  0  0  0  0  0
  -28.8119  -19.2389   21.8225 H   0  0  0  0  0  0
  -27.8037  -23.6522   21.2957 H   0  0  0  0  0  0
  -28.0168  -24.0631   19.6141 H   0  0  0  0  0  0
  -29.7534  -25.7384   21.3684 H   0  0  0  0  0  0
  -28.1090  -25.7891   21.8811 H   0  0  0  0  0  0
  -28.3521  -21.5377   20.9070 H   0  0  0  0  0  0
  -29.2774  -14.9002   22.0038 H   0  0  0  0  0  0
  1 25  1  0  0  0
  1 30  2  0  0  0
  1 82  1  0  0  0
  2  3  1  0  0  0
  2 25  1  0  0  0
  2 85  1  0  0  0
  2 86  1  0  0  0
  3  4  1  0  0  0
  3 87  1  0  0  0
  3 88  1  0  0  0
  4  5  1  0  0  0
  4 89  1  0  0  0
  4 90  1  0  0  0
  5  6  1  0  0  0
  5 26  1  0  0  0
  5 91  1  0  0  0
  6 25  1  0  0  0
  6 92  1  0  0  0
  6 93  1  0  0  0
  7  8  2  0  0  0
  7 26  1  0  0  0
  7 29  1  0  0  0
  8  9  1  0  0  0
  8 22  1  0  0  0
  9 10  1  0  0  0
  9 27  2  0  0  0
 10 11  2  0  0  0
 10 15  1  0  0  0
 11 12  1  0  0  0
 11 94  1  0  0  0
 12 13  2  0  0  0
 12 95  1  0  0  0
 13 14  1  0  0  0
 13 31  1  0  0  0
 14 15  2  0  0  0
 14 96  1  0  0  0
 15 97  1  0  0  0
 16 17  2  0  0  0
 16 21  1  0  0  0
 16 31  1  0  0  0
 17 18  1  0  0  0
 17 98  1  0  0  0
 18 19  2  0  0  0
 18 99  1  0  0  0
 19 20  1  0  0  0
 19 24  1  0  0  0
 20 21  2  0  0  0
 20100  1  0  0  0
 21 23  1  0  0  0
 22 28  1  0  0  0
 22 32  2  0  0  0
 26 27  1  0  0  0
 28101  1  0  0  0
 28102  1  0  0  0
 29103  1  0  0  0
 29104  1  0  0  0
 33 34  1  0  0  0
 33 66  1  0  0  0
 33 70  2  0  0  0
 34 36  1  0  0  0
 34 59  1  0  0  0
 34105  1  0  0  0
 35 44  2  0  0  0
 35 45  1  0  0  0
 35 68  1  0  0  0
 36 56  1  0  0  0
 36106  1  0  0  0
 37 39  1  0  0  0
 37 47  1  0  0  0
 37 66  1  0  0  0
 37107  1  0  0  0
 38 43  2  0  0  0
 38 46  1  0  0  0
 38 47  1  0  0  0
 39 64  1  0  0  0
 39 67  2  0  0  0
 40 52  1  0  0  0
 40 53  2  0  0  0
 40 58  1  0  0  0
 41108  1  0  0  0
 41109  1  0  0  0
 41110  1  0  0  0
 41 48  1  0  0  0
 42 43  1  0  0  0
 42 66  1  0  0  0
 42111  1  0  0  0
 42112  1  0  0  0
 43 44  1  0  0  0
 44113  1  0  0  0
 45 46  2  0  0  0
 45114  1  0  0  0
 46115  1  0  0  0
 47116  1  0  0  0
 47117  1  0  0  0
 48 56  1  0  0  0
 48 65  1  0  0  0
 48118  1  0  0  0
 49 50  1  0  0  0
 49 53  1  0  0  0
 49 64  1  0  0  0
 49119  1  0  0  0
 50 51  1  0  0  0
 50120  1  0  0  0
 50121  1  0  0  0
 51 52  1  0  0  0
 51122  1  0  0  0
 51123  1  0  0  0
 52124  1  0  0  0
 52125  1  0  0  0
 53 54  1  0  0  0
 54 55  2  0  0  0
 54126  1  0  0  0
 55 57  1  0  0  0
 55127  1  0  0  0
 56 69  2  0  0  0
 57 58  2  0  0  0
 57128  1  0  0  0
 58129  1  0  0  0
 59 60  1  0  0  0
 59 61  1  0  0  0
 59 62  1  0  0  0
 60130  1  0  0  0
 60131  1  0  0  0
 60132  1  0  0  0
 61133  1  0  0  0
 61134  1  0  0  0
 61135  1  0  0  0
 62136  1  0  0  0
 62137  1  0  0  0
 62138  1  0  0  0
 63 65  1  0  0  0
 63139  1  0  0  0
 63140  1  0  0  0
 63141  1  0  0  0
 64142  1  0  0  0
 65143  1  0  0  0
 68 80  1  0  0  0
 71 72  2  0  0  0
 71 73  1  0  0  0
 71144  1  0  0  0
 72 75  1  0  0  0
 72145  1  0  0  0
 73 76  2  0  0  0
 73146  1  0  0  0
 74 75  2  0  0  0
 74 76  1  0  0  0
 74147  1  0  0  0
 75 77  1  0  0  0
 76 81  1  0  0  0
 77 82  1  0  0  0
 77 83  2  0  0  0
 78 79  1  0  0  0
 78 81  1  0  0  0
 78 84  2  0  0  0
 79 80  1  0  0  0
 79148  1  0  0  0
 79149  1  0  0  0
 80150  1  0  0  0
 80151  1  0  0  0
 81152  1  0  0  0
 82153  1  0  0  0
M  ISO  4   1 100  68 101  80 101  82 100
M  END
> <chiral flag>
0

> <version>
0

> <s_m_source_file>
/data/baiqing/PycharmProjects/Reinvent-master-3.2/result/LINK_invent/BTK/process_docking_weight1_custom_product_contain_oxygen_bond_distance_aromatic_linkinvent_7_9_3/rearranged_h_0090.sdf

> <i_m_source_file_index>
81

> <r_mmod_Potential_Energy-OPLS-2005>
-38.3283653259277

> <r_mmod_Stretch_Energy-OPLS-2005>
70.3183822631836

> <r_mmod_Bend_Energy-OPLS-2005>
199.25129699707

> <r_mmod_Torsional_Energy-OPLS-2005>
259.611541748047

> <r_mmod_Improper_Torsional_Energy-OPLS-2005>
4.50801706314087

> <r_mmod_Van_der_Waal_Energy-OPLS-2005>
145.551834106445

> <r_mmod_Electrostatic_Energy-OPLS-2005>
-511.565093994141

> <r_mmod_Solvation_Energy-OPLS-2005>
-232.178359985352

> <b_mmod_Minimization_Converged-OPLS-2005>
0

> <r_mmod_RMS_Derivative-OPLS-2005>
7.48136138916016

$$$$
82
                    3D
 Structure written by MMmdl.
154163  0  0  1  0            999 V2000
  -30.5428  -14.7890   20.4591 C   0  0  0  0  0  0
  -30.4588  -12.4931   19.4514 C   0  0  0  0  0  0
  -29.5182  -12.4858   18.2258 C   0  0  0  0  0  0
  -28.0400  -12.3179   18.6470 C   0  0  0  0  0  0
  -27.6413  -13.2209   19.8464 C   0  0  2  0  0  0
  -28.6929  -13.1461   20.9707 C   0  0  0  0  0  0
  -25.2524  -13.8155   20.5716 C   0  0  0  0  0  0
  -24.1816  -13.0403   20.9228 C   0  0  0  0  0  0
  -24.6410  -11.6901   20.8761 C   0  0  0  0  0  0
  -23.9083  -10.4277   21.0417 C   0  0  0  0  0  0
  -24.3630   -9.4193   21.9196 C   0  0  0  0  0  0
  -23.6304   -8.2228   22.0756 C   0  0  0  0  0  0
  -22.4284   -8.0275   21.3535 C   0  0  0  0  0  0
  -21.9913   -9.0256   20.4636 C   0  0  0  0  0  0
  -22.7254  -10.2133   20.3055 C   0  0  0  0  0  0
  -21.6846   -6.0729   22.5295 C   0  0  0  0  0  0
  -21.4004   -6.5632   23.8226 C   0  0  0  0  0  0
  -21.3659   -5.6786   24.9182 C   0  0  0  0  0  0
  -21.6046   -4.3049   24.7226 C   0  0  0  0  0  0
  -21.8835   -3.8145   23.4343 C   0  0  0  0  0  0
  -21.9199   -4.6961   22.3405 C   0  0  0  0  0  0
  -22.7845  -13.5194   21.1865 C   0  0  0  0  0  0
  -22.1671   -4.2145   21.0977 F   0  0  0  0  0  0
  -21.5634   -3.4540   25.7738 F   0  0  0  0  0  0
  -29.9699  -13.5427   20.3681 N   0  0  0  0  0  0
  -26.2959  -12.9344   20.3286 N   0  0  0  0  0  0
  -25.9331  -11.6502   20.5776 N   0  0  0  0  0  0
  -22.0453  -12.8187   22.0398 N   0  0  0  0  0  0
  -25.4153  -15.1891   20.4161 N   0  0  0  0  0  0
  -31.7586  -14.9179   20.2859 O   0  0  0  0  0  0
  -21.6642   -6.8880   21.4252 O   0  0  0  0  0  0
  -22.3544  -14.5504   20.6710 O   0  0  0  0  0  0
  -24.6332  -31.8484   23.1953 C   0  0  0  0  0  0
  -25.9132  -32.4715   23.8300 C   0  0  1  0  0  0
  -27.2211  -27.2250   20.1440 C   0  0  0  0  0  0
  -25.5876  -33.8525   24.2183 N   0  0  0  0  0  0
  -23.4323  -30.4701   21.5379 C   0  0  2  0  0  0
  -24.8815  -28.9026   20.1214 C   0  0  0  0  0  0
  -22.7514  -29.4560   22.4905 C   0  0  0  0  0  0
  -18.0315  -28.1342   22.8520 C   0  0  0  0  0  0
  -24.1484  -36.7318   23.2652 C   0  0  0  0  0  0
  -25.9835  -30.7495   21.3845 C   0  0  0  0  0  0
  -26.0583  -29.3704   20.7234 C   0  0  0  0  0  0
  -27.2354  -28.5477   20.7159 C   0  0  0  0  0  0
  -26.0221  -26.8286   19.5185 C   0  0  0  0  0  0
  -24.8690  -27.6385   19.5103 C   0  0  0  0  0  0
  -23.6539  -29.7936   20.1601 C   0  0  0  0  0  0
  -25.4110  -36.3058   24.0316 C   0  0  1  0  0  0
  -20.5906  -28.3699   23.1343 C   0  0  2  0  0  0
  -20.6783  -26.9400   22.5567 C   0  0  0  0  0  0
  -19.5829  -26.6456   21.5274 C   0  0  0  0  0  0
  -18.2002  -26.7871   22.1691 C   0  0  0  0  0  0
  -19.1551  -28.8847   23.2915 C   0  0  0  0  0  0
  -18.9445  -30.1487   23.8871 C   0  0  0  0  0  0
  -17.6429  -30.6618   24.0432 C   0  0  0  0  0  0
  -25.9052  -34.9421   23.5069 C   0  0  0  0  0  0
  -16.5346  -29.9084   23.6199 C   0  0  0  0  0  0
  -16.7292  -28.6456   23.0310 C   0  0  0  0  0  0
  -26.4473  -31.6610   25.0757 C   0  0  0  0  0  0
  -25.3697  -31.3810   26.1505 C   0  0  0  0  0  0
  -27.0339  -30.2988   24.6367 C   0  0  0  0  0  0
  -27.5958  -32.4431   25.7540 C   0  0  0  0  0  0
  -27.5572  -37.1820   24.8446 C   0  0  0  0  0  0
  -21.4209  -29.3017   22.3681 N   0  0  0  0  0  0
  -26.4281  -37.3754   23.9395 N   0  0  0  0  0  0
  -24.7009  -31.0430   22.0927 N   0  0  0  0  0  0
  -23.4216  -28.8089   23.2992 O   0  0  0  0  0  0
  -28.2907  -26.2918   20.1422 O   0  0  0  0  0  0
  -26.5669  -34.8897   22.4669 O   0  0  0  0  0  0
  -23.5478  -32.1319   23.7235 O   0  0  0  0  0  0
  -28.8715  -19.5763   22.4554 C   0  0  0  0  0  0
  -29.3884  -17.1749   22.3945 C   0  0  0  0  0  0
  -29.0908  -19.7584   21.0623 C   0  0  0  0  0  0
  -29.0200  -18.3323   23.1073 C   0  0  0  0  0  0
  -29.5850  -17.2044   21.0011 C   0  0  0  0  0  0
  -29.4306  -18.5129   20.3467 C   0  0  0  0  0  0
  -28.1791  -22.9180   19.2005 C   0  0  0  0  0  0
  -28.4931  -23.5104   20.3577 C   0  0  0  0  0  0
  -28.3952  -21.4702   19.2768 C   0  0  0  0  0  0
  -29.0025  -22.3775   21.1840 C   0  0  0  0  0  0
  -28.0989  -24.9868   20.8879 C   0  0  0  0  0  0
  -28.8791  -21.1668   20.5069 N   0  0  0  0  0  0
  -28.7603  -18.2366   24.4757 N   0  0  0  0  0  0
  -29.6787  -15.8732   20.3358 N   0  0  0  0  0  0
  -28.1159  -20.6604   18.3873 O   0  0  0  0  0  0
  -29.5091  -22.5009   22.3039 O   0  0  0  0  0  0
  -29.6090  -18.5497   19.0068 F   0  0  0  0  0  0
  -31.4885  -12.6787   19.1398 H   0  0  0  0  0  0
  -30.4631  -11.5234   19.9492 H   0  0  0  0  0  0
  -29.8057  -11.6780   17.5501 H   0  0  0  0  0  0
  -29.6409  -13.4130   17.6643 H   0  0  0  0  0  0
  -27.8974  -11.2712   18.9184 H   0  0  0  0  0  0
  -27.3822  -12.5035   17.7983 H   0  0  0  0  0  0
  -27.6303  -14.2398   19.4596 H   0  0  0  0  0  0
  -28.7605  -12.1329   21.3744 H   0  0  0  0  0  0
  -28.4346  -13.7948   21.8103 H   0  0  0  0  0  0
  -25.2771   -9.5673   22.4767 H   0  0  0  0  0  0
  -24.0015   -7.4612   22.7471 H   0  0  0  0  0  0
  -21.0843   -8.8781   19.8937 H   0  0  0  0  0  0
  -22.3725  -10.9674   19.6163 H   0  0  0  0  0  0
  -21.1992   -7.6142   23.9731 H   0  0  0  0  0  0
  -21.1462   -6.0502   25.9083 H   0  0  0  0  0  0
  -22.0616   -2.7602   23.2851 H   0  0  0  0  0  0
  -22.4012  -11.9838   22.4795 H   0  0  0  0  0  0
  -21.1044  -13.1205   22.2522 H   0  0  0  0  0  0
  -24.6343  -15.8260   20.5342 H   0  0  0  0  0  0
  -26.2598  -15.6571   20.1149 H   0  0  0  0  0  0
  -26.7188  -32.5324   23.1024 H   0  0  0  0  0  0
  -24.9843  -33.9615   25.0201 H   0  0  0  0  0  0
  -22.7343  -31.2973   21.3842 H   0  0  0  0  0  0
  -23.3705  -35.9698   23.3317 H   0  0  0  0  0  0
  -24.3566  -36.8964   22.2069 H   0  0  0  0  0  0
  -23.7291  -37.6534   23.6698 H   0  0  0  0  0  0
  -26.1414  -31.5136   20.6227 H   0  0  0  0  0  0
  -26.8505  -30.7853   22.0320 H   0  0  0  0  0  0
  -28.1392  -28.9069   21.1885 H   0  0  0  0  0  0
  -25.9689  -25.8536   19.0542 H   0  0  0  0  0  0
  -23.9652  -27.2669   19.0463 H   0  0  0  0  0  0
  -23.7811  -30.5588   19.3945 H   0  0  0  0  0  0
  -22.7695  -29.2296   19.8590 H   0  0  0  0  0  0
  -25.1307  -36.1887   25.0808 H   0  0  0  0  0  0
  -20.9956  -28.3353   24.1483 H   0  0  0  0  0  0
  -20.5565  -26.2354   23.3830 H   0  0  0  0  0  0
  -21.6685  -26.7296   22.1511 H   0  0  0  0  0  0
  -19.7040  -25.6429   21.1162 H   0  0  0  0  0  0
  -19.6784  -27.3413   20.6924 H   0  0  0  0  0  0
  -17.4289  -26.6586   21.4082 H   0  0  0  0  0  0
  -18.0468  -25.9968   22.9058 H   0  0  0  0  0  0
  -19.7914  -30.7351   24.2204 H   0  0  0  0  0  0
  -17.4967  -31.6363   24.4898 H   0  0  0  0  0  0
  -15.5352  -30.3041   23.7343 H   0  0  0  0  0  0
  -15.8715  -28.0765   22.6948 H   0  0  0  0  0  0
  -24.5790  -30.7235   25.7881 H   0  0  0  0  0  0
  -24.8990  -32.3012   26.4982 H   0  0  0  0  0  0
  -25.8028  -30.8945   27.0258 H   0  0  0  0  0  0
  -26.2984  -29.6747   24.1278 H   0  0  0  0  0  0
  -27.3811  -29.7269   25.4989 H   0  0  0  0  0  0
  -27.8944  -30.4208   23.9786 H   0  0  0  0  0  0
  -27.2441  -33.3683   26.2131 H   0  0  0  0  0  0
  -28.3741  -32.7130   25.0389 H   0  0  0  0  0  0
  -28.0673  -31.8607   26.5470 H   0  0  0  0  0  0
  -28.2580  -38.0119   24.7440 H   0  0  0  0  0  0
  -28.1068  -36.2639   24.6314 H   0  0  0  0  0  0
  -27.2286  -37.1525   25.8848 H   0  0  0  0  0  0
  -20.9380  -29.8748   21.6901 H   0  0  0  0  0  0
  -26.0155  -38.2834   24.1355 H   0  0  0  0  0  0
  -28.5463  -20.4099   23.0588 H   0  0  0  0  0  0
  -29.4529  -16.2323   22.9221 H   0  0  0  0  0  0
  -27.6953  -23.4089   18.3714 H   0  0  0  0  0  0
  -28.6589  -25.1235   21.8128 H   0  0  0  0  0  0
  -27.0594  -24.9172   21.2146 H   0  0  0  0  0  0
  -28.3201  -19.0169   24.9549 H   0  0  0  0  0  0
  -28.4910  -17.3390   24.8697 H   0  0  0  0  0  0
  -28.7819  -15.5632   19.9989 H   0  0  0  0  0  0
  1 25  1  0  0  0
  1 30  2  0  0  0
  1 84  1  0  0  0
  2  3  1  0  0  0
  2 25  1  0  0  0
  2 88  1  0  0  0
  2 89  1  0  0  0
  3  4  1  0  0  0
  3 90  1  0  0  0
  3 91  1  0  0  0
  4  5  1  0  0  0
  4 92  1  0  0  0
  4 93  1  0  0  0
  5  6  1  0  0  0
  5 26  1  0  0  0
  5 94  1  0  0  0
  6 25  1  0  0  0
  6 95  1  0  0  0
  6 96  1  0  0  0
  7  8  2  0  0  0
  7 26  1  0  0  0
  7 29  1  0  0  0
  8  9  1  0  0  0
  8 22  1  0  0  0
  9 10  1  0  0  0
  9 27  2  0  0  0
 10 11  2  0  0  0
 10 15  1  0  0  0
 11 12  1  0  0  0
 11 97  1  0  0  0
 12 13  2  0  0  0
 12 98  1  0  0  0
 13 14  1  0  0  0
 13 31  1  0  0  0
 14 15  2  0  0  0
 14 99  1  0  0  0
 15100  1  0  0  0
 16 17  2  0  0  0
 16 21  1  0  0  0
 16 31  1  0  0  0
 17 18  1  0  0  0
 17101  1  0  0  0
 18 19  2  0  0  0
 18102  1  0  0  0
 19 20  1  0  0  0
 19 24  1  0  0  0
 20 21  2  0  0  0
 20103  1  0  0  0
 21 23  1  0  0  0
 22 28  1  0  0  0
 22 32  2  0  0  0
 26 27  1  0  0  0
 28104  1  0  0  0
 28105  1  0  0  0
 29106  1  0  0  0
 29107  1  0  0  0
 33 34  1  0  0  0
 33 66  1  0  0  0
 33 70  2  0  0  0
 34 36  1  0  0  0
 34 59  1  0  0  0
 34108  1  0  0  0
 35 44  2  0  0  0
 35 45  1  0  0  0
 35 68  1  0  0  0
 36 56  1  0  0  0
 36109  1  0  0  0
 37 39  1  0  0  0
 37 47  1  0  0  0
 37 66  1  0  0  0
 37110  1  0  0  0
 38 43  2  0  0  0
 38 46  1  0  0  0
 38 47  1  0  0  0
 39 64  1  0  0  0
 39 67  2  0  0  0
 40 52  1  0  0  0
 40 53  2  0  0  0
 40 58  1  0  0  0
 41111  1  0  0  0
 41112  1  0  0  0
 41113  1  0  0  0
 41 48  1  0  0  0
 42 43  1  0  0  0
 42 66  1  0  0  0
 42114  1  0  0  0
 42115  1  0  0  0
 43 44  1  0  0  0
 44116  1  0  0  0
 45 46  2  0  0  0
 45117  1  0  0  0
 46118  1  0  0  0
 47119  1  0  0  0
 47120  1  0  0  0
 48 56  1  0  0  0
 48 65  1  0  0  0
 48121  1  0  0  0
 49 50  1  0  0  0
 49 53  1  0  0  0
 49 64  1  0  0  0
 49122  1  0  0  0
 50 51  1  0  0  0
 50123  1  0  0  0
 50124  1  0  0  0
 51 52  1  0  0  0
 51125  1  0  0  0
 51126  1  0  0  0
 52127  1  0  0  0
 52128  1  0  0  0
 53 54  1  0  0  0
 54 55  2  0  0  0
 54129  1  0  0  0
 55 57  1  0  0  0
 55130  1  0  0  0
 56 69  2  0  0  0
 57 58  2  0  0  0
 57131  1  0  0  0
 58132  1  0  0  0
 59 60  1  0  0  0
 59 61  1  0  0  0
 59 62  1  0  0  0
 60133  1  0  0  0
 60134  1  0  0  0
 60135  1  0  0  0
 61136  1  0  0  0
 61137  1  0  0  0
 61138  1  0  0  0
 62139  1  0  0  0
 62140  1  0  0  0
 62141  1  0  0  0
 63 65  1  0  0  0
 63142  1  0  0  0
 63143  1  0  0  0
 63144  1  0  0  0
 64145  1  0  0  0
 65146  1  0  0  0
 68 81  1  0  0  0
 71 73  2  0  0  0
 71 74  1  0  0  0
 71147  1  0  0  0
 72 74  2  0  0  0
 72 75  1  0  0  0
 72148  1  0  0  0
 73 76  1  0  0  0
 73 82  1  0  0  0
 74 83  1  0  0  0
 75 76  2  0  0  0
 75 84  1  0  0  0
 76 87  1  0  0  0
 77 78  2  0  0  0
 77 79  1  0  0  0
 77149  1  0  0  0
 78 80  1  0  0  0
 78 81  1  0  0  0
 79 82  1  0  0  0
 79 85  2  0  0  0
 80 82  1  0  0  0
 80 86  2  0  0  0
 81150  1  0  0  0
 81151  1  0  0  0
 83152  1  0  0  0
 83153  1  0  0  0
 84154  1  0  0  0
M  ISO  4   1 100  68 101  81 101  84 100
M  END
> <chiral flag>
0

> <version>
0

> <s_m_source_file>
/data/baiqing/PycharmProjects/Reinvent-master-3.2/result/LINK_invent/BTK/process_docking_weight1_custom_product_contain_oxygen_bond_distance_aromatic_linkinvent_7_9_3/rearranged_h_0090.sdf

> <i_m_source_file_index>
82

> <r_mmod_Potential_Energy-OPLS-2005>
261.968109130859

> <r_mmod_Stretch_Energy-OPLS-2005>
152.094085693359

> <r_mmod_Bend_Energy-OPLS-2005>
231.245101928711

> <r_mmod_Torsional_Energy-OPLS-2005>
316.629791259766

> <r_mmod_Improper_Torsional_Energy-OPLS-2005>
18.8061084747314

> <r_mmod_Van_der_Waal_Energy-OPLS-2005>
130.818923950195

> <r_mmod_Electrostatic_Energy-OPLS-2005>
-448.151214599609

> <r_mmod_Solvation_Energy-OPLS-2005>
-253.753295898438

> <b_mmod_Minimization_Converged-OPLS-2005>
0

> <r_mmod_RMS_Derivative-OPLS-2005>
3.86429190635681

$$$$
83
                    3D
 Structure written by MMmdl.
162171  0  0  1  0            999 V2000
  -30.6167  -14.7184   20.4577 C   0  0  0  0  0  0
  -30.4343  -12.4348   19.4723 C   0  0  0  0  0  0
  -29.5119  -12.5049   18.2361 C   0  0  0  0  0  0
  -28.0367  -12.3357   18.6487 C   0  0  0  0  0  0
  -27.6454  -13.2299   19.8558 C   0  0  2  0  0  0
  -28.6904  -13.1453   20.9903 C   0  0  0  0  0  0
  -25.2521  -13.8197   20.5697 C   0  0  0  0  0  0
  -24.1804  -13.0440   20.9202 C   0  0  0  0  0  0
  -24.6394  -11.6915   20.8747 C   0  0  0  0  0  0
  -23.9071  -10.4289   21.0407 C   0  0  0  0  0  0
  -24.3618   -9.4202   21.9182 C   0  0  0  0  0  0
  -23.6287   -8.2245   22.0752 C   0  0  0  0  0  0
  -22.4263   -8.0286   21.3549 C   0  0  0  0  0  0
  -21.9903   -9.0265   20.4652 C   0  0  0  0  0  0
  -22.7240  -10.2139   20.3057 C   0  0  0  0  0  0
  -21.6853   -6.0734   22.5284 C   0  0  0  0  0  0
  -21.4020   -6.5637   23.8214 C   0  0  0  0  0  0
  -21.3656   -5.6789   24.9179 C   0  0  0  0  0  0
  -21.6034   -4.3053   24.7226 C   0  0  0  0  0  0
  -21.8822   -3.8148   23.4346 C   0  0  0  0  0  0
  -21.9197   -4.6964   22.3400 C   0  0  0  0  0  0
  -22.7824  -13.5222   21.1862 C   0  0  0  0  0  0
  -22.1660   -4.2149   21.0977 F   0  0  0  0  0  0
  -21.5622   -3.4539   25.7745 F   0  0  0  0  0  0
  -29.9966  -13.4907   20.4140 N   0  0  0  0  0  0
  -26.2955  -12.9402   20.3302 N   0  0  0  0  0  0
  -25.9331  -11.6545   20.5761 N   0  0  0  0  0  0
  -22.0457  -12.8229   22.0419 N   0  0  0  0  0  0
  -25.4187  -15.1931   20.4128 N   0  0  0  0  0  0
  -31.8007  -14.8145   20.1224 O   0  0  0  0  0  0
  -21.6630   -6.8881   21.4244 O   0  0  0  0  0  0
  -22.3507  -14.5515   20.6685 O   0  0  0  0  0  0
  -24.6313  -31.8556   23.2009 C   0  0  0  0  0  0
  -25.9155  -32.4740   23.8338 C   0  0  1  0  0  0
  -27.2149  -27.2743   20.1300 C   0  0  0  0  0  0
  -25.5965  -33.8541   24.2269 N   0  0  0  0  0  0
  -23.4260  -30.4805   21.5433 C   0  0  2  0  0  0
  -24.8733  -28.9299   20.1106 C   0  0  0  0  0  0
  -22.7497  -29.4598   22.4904 C   0  0  0  0  0  0
  -18.0305  -28.1381   22.8469 C   0  0  0  0  0  0
  -24.1477  -36.7248   23.2631 C   0  0  0  0  0  0
  -25.9716  -30.7733   21.3792 C   0  0  0  0  0  0
  -26.0449  -29.3977   20.7202 C   0  0  0  0  0  0
  -27.2217  -28.5828   20.7183 C   0  0  0  0  0  0
  -26.0256  -26.8781   19.4807 C   0  0  0  0  0  0
  -24.8671  -27.6771   19.4806 C   0  0  0  0  0  0
  -23.6449  -29.8181   20.1577 C   0  0  0  0  0  0
  -25.4103  -36.3045   24.0328 C   0  0  1  0  0  0
  -20.5905  -28.3682   23.1262 C   0  0  2  0  0  0
  -20.6777  -26.9387   22.5414 C   0  0  0  0  0  0
  -19.5763  -26.6380   21.5199 C   0  0  0  0  0  0
  -18.1941  -26.7933   22.1598 C   0  0  0  0  0  0
  -19.1555  -28.8849   23.2864 C   0  0  0  0  0  0
  -18.9479  -30.1451   23.8886 C   0  0  0  0  0  0
  -17.6476  -30.6565   24.0571 C   0  0  0  0  0  0
  -25.9066  -34.9424   23.5094 C   0  0  0  0  0  0
  -16.5369  -29.9066   23.6327 C   0  0  0  0  0  0
  -16.7293  -28.6488   23.0334 C   0  0  0  0  0  0
  -26.4530  -31.6549   25.0714 C   0  0  0  0  0  0
  -25.3768  -31.3730   26.1453 C   0  0  0  0  0  0
  -27.0341  -30.2947   24.6191 C   0  0  0  0  0  0
  -27.6108  -32.4263   25.7471 C   0  0  0  0  0  0
  -27.5578  -37.1760   24.8447 C   0  0  0  0  0  0
  -21.4205  -29.3027   22.3640 N   0  0  0  0  0  0
  -26.4259  -37.3765   23.9439 N   0  0  0  0  0  0
  -24.6946  -31.0545   22.0972 N   0  0  0  0  0  0
  -23.4199  -28.8138   23.2998 O   0  0  0  0  0  0
  -28.2980  -26.3729   20.1645 O   0  0  0  0  0  0
  -26.5618  -34.8910   22.4652 O   0  0  0  0  0  0
  -23.5468  -32.1377   23.7315 O   0  0  0  0  0  0
  -31.1541  -17.7883   19.8087 C   0  0  0  0  0  0
  -31.0938  -19.2221   19.6145 C   0  0  0  0  0  0
  -30.0690  -17.2036   20.4301 C   0  0  0  0  0  0
  -29.9558  -19.8479   20.0878 C   0  0  0  0  0  0
  -35.0224  -19.7068   18.9094 C   0  0  0  0  0  0
  -28.9771  -23.7922   20.0905 C   0  0  0  0  0  0
  -34.1685  -18.7445   18.0848 C   0  0  0  0  0  0
  -34.3155  -20.4181   20.0637 C   0  0  0  0  0  0
  -32.7823  -19.3405   17.7690 C   0  0  0  0  0  0
  -32.9169  -20.9292   19.6612 C   0  0  0  0  0  0
  -28.7397  -22.2513   20.4855 C   0  0  0  0  0  0
  -27.9893  -24.9530   20.5600 C   0  0  0  0  0  0
  -32.1413  -19.9104   18.9532 N   0  0  0  0  0  0
  -29.8368  -15.8400   20.6998 N   0  0  0  0  0  0
  -29.7238  -21.2705   19.8989 N   0  0  0  0  0  0
  -36.2251  -19.8675   18.6818 O   0  0  0  0  0  0
  -29.9610  -24.0723   19.3952 O   0  0  0  0  0  0
  -28.9340  -18.5633   20.8033 S   0  0  0  0  0  0
  -31.4759  -12.5537   19.1684 H   0  0  0  0  0  0
  -30.3729  -11.4540   19.9475 H   0  0  0  0  0  0
  -29.7890  -11.7381   17.5108 H   0  0  0  0  0  0
  -29.6466  -13.4644   17.7334 H   0  0  0  0  0  0
  -27.8876  -11.2861   18.9041 H   0  0  0  0  0  0
  -27.3829  -12.5386   17.8005 H   0  0  0  0  0  0
  -27.6455  -14.2545   19.4859 H   0  0  0  0  0  0
  -28.7192  -12.1402   21.4145 H   0  0  0  0  0  0
  -28.4304  -13.8143   21.8121 H   0  0  0  0  0  0
  -25.2763   -9.5673   22.4756 H   0  0  0  0  0  0
  -24.0003   -7.4627   22.7456 H   0  0  0  0  0  0
  -21.0834   -8.8781   19.8957 H   0  0  0  0  0  0
  -22.3694  -10.9677   19.6164 H   0  0  0  0  0  0
  -21.2012   -7.6143   23.9718 H   0  0  0  0  0  0
  -21.1469   -6.0517   25.9077 H   0  0  0  0  0  0
  -22.0603   -2.7614   23.2856 H   0  0  0  0  0  0
  -22.4061  -11.9912   22.4856 H   0  0  0  0  0  0
  -21.1072  -13.1269   22.2589 H   0  0  0  0  0  0
  -24.6435  -15.8386   20.5142 H   0  0  0  0  0  0
  -26.2585  -15.6407   20.0697 H   0  0  0  0  0  0
  -26.7213  -32.5399   23.1071 H   0  0  0  0  0  0
  -25.0124  -33.9666   25.0424 H   0  0  0  0  0  0
  -22.7202  -31.3013   21.3992 H   0  0  0  0  0  0
  -23.3763  -35.9548   23.3235 H   0  0  0  0  0  0
  -24.3586  -36.8924   22.2057 H   0  0  0  0  0  0
  -23.7186  -37.6416   23.6689 H   0  0  0  0  0  0
  -26.1133  -31.5350   20.6114 H   0  0  0  0  0  0
  -26.8484  -30.8185   22.0127 H   0  0  0  0  0  0
  -28.1182  -28.9339   21.2102 H   0  0  0  0  0  0
  -25.9722  -25.9286   18.9685 H   0  0  0  0  0  0
  -23.9718  -27.3169   18.9920 H   0  0  0  0  0  0
  -23.7756  -30.5976   19.4060 H   0  0  0  0  0  0
  -22.7623  -29.2576   19.8459 H   0  0  0  0  0  0
  -25.1268  -36.1868   25.0814 H   0  0  0  0  0  0
  -21.0009  -28.3279   24.1379 H   0  0  0  0  0  0
  -20.5619  -26.2294   23.3622 H   0  0  0  0  0  0
  -21.6655  -26.7380   22.1245 H   0  0  0  0  0  0
  -19.6913  -25.6294   21.1210 H   0  0  0  0  0  0
  -19.6705  -27.3205   20.6739 H   0  0  0  0  0  0
  -17.4209  -26.6684   21.4000 H   0  0  0  0  0  0
  -18.0330  -26.0075   22.8988 H   0  0  0  0  0  0
  -19.7957  -30.7273   24.2237 H   0  0  0  0  0  0
  -17.5026  -31.6234   24.5193 H   0  0  0  0  0  0
  -15.5363  -30.2949   23.7668 H   0  0  0  0  0  0
  -15.8697  -28.0807   22.7038 H   0  0  0  0  0  0
  -24.5978  -30.7009   25.7838 H   0  0  0  0  0  0
  -24.8931  -32.2910   26.4799 H   0  0  0  0  0  0
  -25.8125  -30.9006   27.0265 H   0  0  0  0  0  0
  -26.2904  -29.6697   24.1237 H   0  0  0  0  0  0
  -27.4032  -29.7206   25.4699 H   0  0  0  0  0  0
  -27.8785  -30.4180   23.9407 H   0  0  0  0  0  0
  -27.2756  -33.3584   26.2023 H   0  0  0  0  0  0
  -28.3942  -32.6766   25.0307 H   0  0  0  0  0  0
  -28.0737  -31.8387   26.5407 H   0  0  0  0  0  0
  -28.2549  -38.0106   24.7575 H   0  0  0  0  0  0
  -28.1123  -36.2648   24.6143 H   0  0  0  0  0  0
  -27.2329  -37.1263   25.8857 H   0  0  0  0  0  0
  -20.9381  -29.8732   21.6832 H   0  0  0  0  0  0
  -26.0118  -38.2806   24.1544 H   0  0  0  0  0  0
  -32.0092  -17.2290   19.4620 H   0  0  0  0  0  0
  -34.0640  -17.8213   18.6530 H   0  0  0  0  0  0
  -34.6882  -18.4905   17.1611 H   0  0  0  0  0  0
  -34.9318  -21.2454   20.4174 H   0  0  0  0  0  0
  -34.2314  -19.7108   20.8894 H   0  0  0  0  0  0
  -32.1417  -18.5791   17.3199 H   0  0  0  0  0  0
  -32.8845  -20.1277   17.0195 H   0  0  0  0  0  0
  -33.0136  -21.8077   19.0207 H   0  0  0  0  0  0
  -32.3899  -21.2605   20.5567 H   0  0  0  0  0  0
  -27.7315  -21.9753   20.1743 H   0  0  0  0  0  0
  -28.7620  -22.1748   21.5731 H   0  0  0  0  0  0
  -27.9542  -24.9225   21.6490 H   0  0  0  0  0  0
  -26.9958  -24.6544   20.2344 H   0  0  0  0  0  0
  -28.9061  -15.6217   21.0226 H   0  0  0  0  0  0
  -30.4565  -21.7259   19.3574 H   0  0  0  0  0  0
  1 25  1  0  0  0
  1 30  2  0  0  0
  1 84  1  0  0  0
  2  3  1  0  0  0
  2 25  1  0  0  0
  2 89  1  0  0  0
  2 90  1  0  0  0
  3  4  1  0  0  0
  3 91  1  0  0  0
  3 92  1  0  0  0
  4  5  1  0  0  0
  4 93  1  0  0  0
  4 94  1  0  0  0
  5  6  1  0  0  0
  5 26  1  0  0  0
  5 95  1  0  0  0
  6 25  1  0  0  0
  6 96  1  0  0  0
  6 97  1  0  0  0
  7  8  2  0  0  0
  7 26  1  0  0  0
  7 29  1  0  0  0
  8  9  1  0  0  0
  8 22  1  0  0  0
  9 10  1  0  0  0
  9 27  2  0  0  0
 10 11  2  0  0  0
 10 15  1  0  0  0
 11 12  1  0  0  0
 11 98  1  0  0  0
 12 13  2  0  0  0
 12 99  1  0  0  0
 13 14  1  0  0  0
 13 31  1  0  0  0
 14 15  2  0  0  0
 14100  1  0  0  0
 15101  1  0  0  0
 16 17  2  0  0  0
 16 21  1  0  0  0
 16 31  1  0  0  0
 17 18  1  0  0  0
 17102  1  0  0  0
 18 19  2  0  0  0
 18103  1  0  0  0
 19 20  1  0  0  0
 19 24  1  0  0  0
 20 21  2  0  0  0
 20104  1  0  0  0
 21 23  1  0  0  0
 22 28  1  0  0  0
 22 32  2  0  0  0
 26 27  1  0  0  0
 28105  1  0  0  0
 28106  1  0  0  0
 29107  1  0  0  0
 29108  1  0  0  0
 33 34  1  0  0  0
 33 66  1  0  0  0
 33 70  2  0  0  0
 34 36  1  0  0  0
 34 59  1  0  0  0
 34109  1  0  0  0
 35 44  2  0  0  0
 35 45  1  0  0  0
 35 68  1  0  0  0
 36 56  1  0  0  0
 36110  1  0  0  0
 37 39  1  0  0  0
 37 47  1  0  0  0
 37 66  1  0  0  0
 37111  1  0  0  0
 38 43  2  0  0  0
 38 46  1  0  0  0
 38 47  1  0  0  0
 39 64  1  0  0  0
 39 67  2  0  0  0
 40 52  1  0  0  0
 40 53  2  0  0  0
 40 58  1  0  0  0
 41112  1  0  0  0
 41113  1  0  0  0
 41114  1  0  0  0
 41 48  1  0  0  0
 42 43  1  0  0  0
 42 66  1  0  0  0
 42115  1  0  0  0
 42116  1  0  0  0
 43 44  1  0  0  0
 44117  1  0  0  0
 45 46  2  0  0  0
 45118  1  0  0  0
 46119  1  0  0  0
 47120  1  0  0  0
 47121  1  0  0  0
 48 56  1  0  0  0
 48 65  1  0  0  0
 48122  1  0  0  0
 49 50  1  0  0  0
 49 53  1  0  0  0
 49 64  1  0  0  0
 49123  1  0  0  0
 50 51  1  0  0  0
 50124  1  0  0  0
 50125  1  0  0  0
 51 52  1  0  0  0
 51126  1  0  0  0
 51127  1  0  0  0
 52128  1  0  0  0
 52129  1  0  0  0
 53 54  1  0  0  0
 54 55  2  0  0  0
 54130  1  0  0  0
 55 57  1  0  0  0
 55131  1  0  0  0
 56 69  2  0  0  0
 57 58  2  0  0  0
 57132  1  0  0  0
 58133  1  0  0  0
 59 60  1  0  0  0
 59 61  1  0  0  0
 59 62  1  0  0  0
 60134  1  0  0  0
 60135  1  0  0  0
 60136  1  0  0  0
 61137  1  0  0  0
 61138  1  0  0  0
 61139  1  0  0  0
 62140  1  0  0  0
 62141  1  0  0  0
 62142  1  0  0  0
 63 65  1  0  0  0
 63143  1  0  0  0
 63144  1  0  0  0
 63145  1  0  0  0
 64146  1  0  0  0
 65147  1  0  0  0
 68 82  1  0  0  0
 71 72  1  0  0  0
 71 73  2  0  0  0
 71148  1  0  0  0
 72 74  2  0  0  0
 72 83  1  0  0  0
 73 84  1  0  0  0
 73 88  1  0  0  0
 74 85  1  0  0  0
 74 88  1  0  0  0
 75 77  1  0  0  0
 75 78  1  0  0  0
 75 86  2  0  0  0
 76 81  1  0  0  0
 76 82  1  0  0  0
 76 87  2  0  0  0
 77 79  1  0  0  0
 77149  1  0  0  0
 77150  1  0  0  0
 78 80  1  0  0  0
 78151  1  0  0  0
 78152  1  0  0  0
 79 83  1  0  0  0
 79153  1  0  0  0
 79154  1  0  0  0
 80 83  1  0  0  0
 80155  1  0  0  0
 80156  1  0  0  0
 81 85  1  0  0  0
 81157  1  0  0  0
 81158  1  0  0  0
 82159  1  0  0  0
 82160  1  0  0  0
 84161  1  0  0  0
 85162  1  0  0  0
M  ISO  4   1 100  68 101  82 101  84 100
M  END
> <chiral flag>
0

> <version>
0

> <s_m_source_file>
/data/baiqing/PycharmProjects/Reinvent-master-3.2/result/LINK_invent/BTK/process_docking_weight1_custom_product_contain_oxygen_bond_distance_aromatic_linkinvent_7_9_3/rearranged_h_0090.sdf

> <i_m_source_file_index>
83

> <r_mmod_Potential_Energy-OPLS-2005>
155.408477783203

> <r_mmod_Stretch_Energy-OPLS-2005>
108.275177001953

> <r_mmod_Bend_Energy-OPLS-2005>
184.634857177734

> <r_mmod_Torsional_Energy-OPLS-2005>
226.637191772461

> <r_mmod_Improper_Torsional_Energy-OPLS-2005>
5.96090412139893

> <r_mmod_Van_der_Waal_Energy-OPLS-2005>
129.485733032227

> <r_mmod_Electrostatic_Energy-OPLS-2005>
-315.247222900391

> <r_mmod_Solvation_Energy-OPLS-2005>
-260.680114746094

> <b_mmod_Minimization_Converged-OPLS-2005>
0

> <r_mmod_RMS_Derivative-OPLS-2005>
1.71307408809662

$$$$
84
                    3D
 Structure written by MMmdl.
156165  0  0  1  0            999 V2000
  -30.6274  -14.6477   20.5203 C   0  0  0  0  0  0
  -30.4436  -12.4023   19.4553 C   0  0  0  0  0  0
  -29.5108  -12.5129   18.2282 C   0  0  0  0  0  0
  -28.0336  -12.3504   18.6392 C   0  0  0  0  0  0
  -27.6564  -13.2193   19.8685 C   0  0  2  0  0  0
  -28.7016  -13.0687   20.9974 C   0  0  0  0  0  0
  -25.2546  -13.8161   20.5643 C   0  0  0  0  0  0
  -24.1829  -13.0432   20.9194 C   0  0  0  0  0  0
  -24.6409  -11.6909   20.8759 C   0  0  0  0  0  0
  -23.9075  -10.4292   21.0417 C   0  0  0  0  0  0
  -24.3622   -9.4203   21.9192 C   0  0  0  0  0  0
  -23.6294   -8.2242   22.0754 C   0  0  0  0  0  0
  -22.4275   -8.0287   21.3546 C   0  0  0  0  0  0
  -21.9911   -9.0265   20.4651 C   0  0  0  0  0  0
  -22.7247  -10.2141   20.3065 C   0  0  0  0  0  0
  -21.6852   -6.0740   22.5282 C   0  0  0  0  0  0
  -21.4015   -6.5643   23.8217 C   0  0  0  0  0  0
  -21.3656   -5.6793   24.9176 C   0  0  0  0  0  0
  -21.6043   -4.3056   24.7225 C   0  0  0  0  0  0
  -21.8820   -3.8150   23.4345 C   0  0  0  0  0  0
  -21.9192   -4.6967   22.3402 C   0  0  0  0  0  0
  -22.7850  -13.5228   21.1854 C   0  0  0  0  0  0
  -22.1663   -4.2156   21.0978 F   0  0  0  0  0  0
  -21.5620   -3.4539   25.7736 F   0  0  0  0  0  0
  -30.0195  -13.4195   20.4399 N   0  0  0  0  0  0
  -26.3004  -12.9363   20.3339 N   0  0  0  0  0  0
  -25.9345  -11.6514   20.5788 N   0  0  0  0  0  0
  -22.0485  -12.8233   22.0415 N   0  0  0  0  0  0
  -25.4193  -15.1867   20.3938 N   0  0  0  0  0  0
  -31.7749  -14.8210   20.0985 O   0  0  0  0  0  0
  -21.6637   -6.8887   21.4245 O   0  0  0  0  0  0
  -22.3537  -14.5533   20.6699 O   0  0  0  0  0  0
  -24.6283  -31.8607   23.2047 C   0  0  0  0  0  0
  -25.9128  -32.4782   23.8372 C   0  0  1  0  0  0
  -27.2151  -27.3026   20.1113 C   0  0  0  0  0  0
  -25.5941  -33.8583   24.2295 N   0  0  0  0  0  0
  -23.4221  -30.4887   21.5477 C   0  0  2  0  0  0
  -24.8675  -28.9524   20.1097 C   0  0  0  0  0  0
  -22.7488  -29.4633   22.4919 C   0  0  0  0  0  0
  -18.0293  -28.1381   22.8479 C   0  0  0  0  0  0
  -24.1490  -36.7290   23.2632 C   0  0  0  0  0  0
  -25.9683  -30.7865   21.3812 C   0  0  0  0  0  0
  -26.0409  -29.4152   20.7186 C   0  0  0  0  0  0
  -27.2186  -28.6029   20.7121 C   0  0  0  0  0  0
  -26.0135  -26.9122   19.4668 C   0  0  0  0  0  0
  -24.8573  -27.7061   19.4752 C   0  0  0  0  0  0
  -23.6379  -29.8340   20.1604 C   0  0  0  0  0  0
  -25.4109  -36.3081   24.0330 C   0  0  1  0  0  0
  -20.5895  -28.3693   23.1265 C   0  0  2  0  0  0
  -20.6778  -26.9412   22.5400 C   0  0  0  0  0  0
  -19.5754  -26.6383   21.5201 C   0  0  0  0  0  0
  -18.1937  -26.7923   22.1619 C   0  0  0  0  0  0
  -19.1545  -28.8851   23.2872 C   0  0  0  0  0  0
  -18.9469  -30.1448   23.8898 C   0  0  0  0  0  0
  -17.6468  -30.6579   24.0561 C   0  0  0  0  0  0
  -25.9054  -34.9452   23.5109 C   0  0  0  0  0  0
  -16.5360  -29.9081   23.6323 C   0  0  0  0  0  0
  -16.7278  -28.6497   23.0347 C   0  0  0  0  0  0
  -26.4507  -31.6584   25.0738 C   0  0  0  0  0  0
  -25.3742  -31.3726   26.1465 C   0  0  0  0  0  0
  -27.0345  -30.3003   24.6200 C   0  0  0  0  0  0
  -27.6074  -32.4310   25.7504 C   0  0  0  0  0  0
  -27.5585  -37.1787   24.8452 C   0  0  0  0  0  0
  -21.4200  -29.3053   22.3662 N   0  0  0  0  0  0
  -26.4280  -37.3783   23.9424 N   0  0  0  0  0  0
  -24.6918  -31.0612   22.1009 N   0  0  0  0  0  0
  -23.4209  -28.8153   23.2985 O   0  0  0  0  0  0
  -28.3039  -26.4040   20.1723 O   0  0  0  0  0  0
  -26.5619  -34.8918   22.4673 O   0  0  0  0  0  0
  -23.5443  -32.1412   23.7362 O   0  0  0  0  0  0
  -30.7489  -19.3102   19.9913 C   0  0  0  0  0  0
  -30.8217  -17.8844   20.0987 C   0  0  0  0  0  0
  -28.7940  -19.3282   21.3781 C   0  0  0  0  0  0
  -28.8751  -17.9074   21.5136 C   0  0  0  0  0  0
  -29.7204  -20.0817   20.6091 C   0  0  0  0  0  0
  -29.8802  -17.1368   20.8580 C   0  0  0  0  0  0
  -30.2900  -23.7865   20.1894 C   0  0  0  0  0  0
  -28.9601  -23.7902   20.2749 C   0  0  0  0  0  0
  -28.5512  -22.3790   20.4743 C   0  0  0  0  0  0
  -30.8541  -22.3851   20.3022 C   0  0  0  0  0  0
  -27.8595  -17.2132   22.4058 C   0  0  0  0  0  0
  -27.9460  -24.9632   20.0390 C   0  0  0  0  0  0
  -29.6556  -21.5561   20.4892 N   0  0  0  0  0  0
  -29.8423  -15.6727   20.9809 N   0  0  0  0  0  0
  -27.3865  -21.9860   20.5913 O   0  0  0  0  0  0
  -31.4835  -12.5330   19.1496 H   0  0  0  0  0  0
  -30.3873  -11.4058   19.8950 H   0  0  0  0  0  0
  -29.7754  -11.7602   17.4841 H   0  0  0  0  0  0
  -29.6532  -13.4816   17.7459 H   0  0  0  0  0  0
  -27.8686  -11.2969   18.8680 H   0  0  0  0  0  0
  -27.3807  -12.5836   17.7980 H   0  0  0  0  0  0
  -27.6765  -14.2564   19.5330 H   0  0  0  0  0  0
  -28.7151  -12.0430   21.3683 H   0  0  0  0  0  0
  -28.4409  -13.6885   21.8570 H   0  0  0  0  0  0
  -25.2765   -9.5673   22.4770 H   0  0  0  0  0  0
  -24.0001   -7.4626   22.7467 H   0  0  0  0  0  0
  -21.0842   -8.8792   19.8955 H   0  0  0  0  0  0
  -22.3712  -10.9685   19.6177 H   0  0  0  0  0  0
  -21.2013   -7.6153   23.9723 H   0  0  0  0  0  0
  -21.1473   -6.0522   25.9080 H   0  0  0  0  0  0
  -22.0600   -2.7611   23.2846 H   0  0  0  0  0  0
  -22.4092  -11.9899   22.4817 H   0  0  0  0  0  0
  -21.1105  -13.1272   22.2612 H   0  0  0  0  0  0
  -24.6444  -15.8343   20.4877 H   0  0  0  0  0  0
  -26.2527  -15.6196   20.0178 H   0  0  0  0  0  0
  -26.7193  -32.5450   23.1117 H   0  0  0  0  0  0
  -25.0090  -33.9731   25.0442 H   0  0  0  0  0  0
  -22.7163  -31.3103   21.4088 H   0  0  0  0  0  0
  -23.3761  -35.9610   23.3263 H   0  0  0  0  0  0
  -24.3594  -36.8941   22.2053 H   0  0  0  0  0  0
  -23.7226  -37.6475   23.6675 H   0  0  0  0  0  0
  -26.1059  -31.5517   20.6159 H   0  0  0  0  0  0
  -26.8463  -30.8312   22.0136 H   0  0  0  0  0  0
  -28.1138  -28.9506   21.2086 H   0  0  0  0  0  0
  -25.9119  -25.9708   18.9516 H   0  0  0  0  0  0
  -23.9606  -27.3480   18.9881 H   0  0  0  0  0  0
  -23.7612  -30.6156   19.4098 H   0  0  0  0  0  0
  -22.7569  -29.2686   19.8514 H   0  0  0  0  0  0
  -25.1280  -36.1927   25.0820 H   0  0  0  0  0  0
  -20.9992  -28.3271   24.1383 H   0  0  0  0  0  0
  -20.5664  -26.2306   23.3604 H   0  0  0  0  0  0
  -21.6650  -26.7429   22.1205 H   0  0  0  0  0  0
  -19.6918  -25.6296   21.1227 H   0  0  0  0  0  0
  -19.6685  -27.3193   20.6731 H   0  0  0  0  0  0
  -17.4201  -26.6656   21.4030 H   0  0  0  0  0  0
  -18.0352  -26.0066   22.9020 H   0  0  0  0  0  0
  -19.7946  -30.7259   24.2274 H   0  0  0  0  0  0
  -17.5024  -31.6257   24.5165 H   0  0  0  0  0  0
  -15.5361  -30.2983   23.7647 H   0  0  0  0  0  0
  -15.8679  -28.0813   22.7070 H   0  0  0  0  0  0
  -24.5915  -30.7076   25.7797 H   0  0  0  0  0  0
  -24.8939  -32.2894   26.4894 H   0  0  0  0  0  0
  -25.8066  -30.8899   27.0238 H   0  0  0  0  0  0
  -26.2921  -29.6753   24.1223 H   0  0  0  0  0  0
  -27.4036  -29.7259   25.4706 H   0  0  0  0  0  0
  -27.8799  -30.4281   23.9435 H   0  0  0  0  0  0
  -27.2698  -33.3611   26.2087 H   0  0  0  0  0  0
  -28.3883  -32.6861   25.0329 H   0  0  0  0  0  0
  -28.0743  -31.8428   26.5415 H   0  0  0  0  0  0
  -28.2560  -38.0129   24.7564 H   0  0  0  0  0  0
  -28.1127  -36.2665   24.6184 H   0  0  0  0  0  0
  -27.2319  -37.1318   25.8856 H   0  0  0  0  0  0
  -20.9373  -29.8804   21.6900 H   0  0  0  0  0  0
  -26.0155  -38.2845   24.1473 H   0  0  0  0  0  0
  -31.4998  -19.8082   19.3948 H   0  0  0  0  0  0
  -31.6151  -17.3708   19.5747 H   0  0  0  0  0  0
  -28.0079  -19.8508   21.9042 H   0  0  0  0  0  0
  -30.9081  -24.6505   19.9913 H   0  0  0  0  0  0
  -31.5317  -22.3007   21.1526 H   0  0  0  0  0  0
  -31.3854  -22.1204   19.3877 H   0  0  0  0  0  0
  -27.1505  -17.9197   22.8378 H   0  0  0  0  0  0
  -28.3630  -16.7049   23.2287 H   0  0  0  0  0  0
  -27.2908  -16.4753   21.8443 H   0  0  0  0  0  0
  -27.0940  -24.7628   20.6918 H   0  0  0  0  0  0
  -27.6157  -24.7907   19.0148 H   0  0  0  0  0  0
  -28.9879  -15.3270   21.3880 H   0  0  0  0  0  0
  1 25  1  0  0  0
  1 30  2  0  0  0
  1 84  1  0  0  0
  2  3  1  0  0  0
  2 25  1  0  0  0
  2 86  1  0  0  0
  2 87  1  0  0  0
  3  4  1  0  0  0
  3 88  1  0  0  0
  3 89  1  0  0  0
  4  5  1  0  0  0
  4 90  1  0  0  0
  4 91  1  0  0  0
  5  6  1  0  0  0
  5 26  1  0  0  0
  5 92  1  0  0  0
  6 25  1  0  0  0
  6 93  1  0  0  0
  6 94  1  0  0  0
  7  8  2  0  0  0
  7 26  1  0  0  0
  7 29  1  0  0  0
  8  9  1  0  0  0
  8 22  1  0  0  0
  9 10  1  0  0  0
  9 27  2  0  0  0
 10 11  2  0  0  0
 10 15  1  0  0  0
 11 12  1  0  0  0
 11 95  1  0  0  0
 12 13  2  0  0  0
 12 96  1  0  0  0
 13 14  1  0  0  0
 13 31  1  0  0  0
 14 15  2  0  0  0
 14 97  1  0  0  0
 15 98  1  0  0  0
 16 17  2  0  0  0
 16 21  1  0  0  0
 16 31  1  0  0  0
 17 18  1  0  0  0
 17 99  1  0  0  0
 18 19  2  0  0  0
 18100  1  0  0  0
 19 20  1  0  0  0
 19 24  1  0  0  0
 20 21  2  0  0  0
 20101  1  0  0  0
 21 23  1  0  0  0
 22 28  1  0  0  0
 22 32  2  0  0  0
 26 27  1  0  0  0
 28102  1  0  0  0
 28103  1  0  0  0
 29104  1  0  0  0
 29105  1  0  0  0
 33 34  1  0  0  0
 33 66  1  0  0  0
 33 70  2  0  0  0
 34 36  1  0  0  0
 34 59  1  0  0  0
 34106  1  0  0  0
 35 44  2  0  0  0
 35 45  1  0  0  0
 35 68  1  0  0  0
 36 56  1  0  0  0
 36107  1  0  0  0
 37 39  1  0  0  0
 37 47  1  0  0  0
 37 66  1  0  0  0
 37108  1  0  0  0
 38 43  2  0  0  0
 38 46  1  0  0  0
 38 47  1  0  0  0
 39 64  1  0  0  0
 39 67  2  0  0  0
 40 52  1  0  0  0
 40 53  2  0  0  0
 40 58  1  0  0  0
 41109  1  0  0  0
 41110  1  0  0  0
 41111  1  0  0  0
 41 48  1  0  0  0
 42 43  1  0  0  0
 42 66  1  0  0  0
 42112  1  0  0  0
 42113  1  0  0  0
 43 44  1  0  0  0
 44114  1  0  0  0
 45 46  2  0  0  0
 45115  1  0  0  0
 46116  1  0  0  0
 47117  1  0  0  0
 47118  1  0  0  0
 48 56  1  0  0  0
 48 65  1  0  0  0
 48119  1  0  0  0
 49 50  1  0  0  0
 49 53  1  0  0  0
 49 64  1  0  0  0
 49120  1  0  0  0
 50 51  1  0  0  0
 50121  1  0  0  0
 50122  1  0  0  0
 51 52  1  0  0  0
 51123  1  0  0  0
 51124  1  0  0  0
 52125  1  0  0  0
 52126  1  0  0  0
 53 54  1  0  0  0
 54 55  2  0  0  0
 54127  1  0  0  0
 55 57  1  0  0  0
 55128  1  0  0  0
 56 69  2  0  0  0
 57 58  2  0  0  0
 57129  1  0  0  0
 58130  1  0  0  0
 59 60  1  0  0  0
 59 61  1  0  0  0
 59 62  1  0  0  0
 60131  1  0  0  0
 60132  1  0  0  0
 60133  1  0  0  0
 61134  1  0  0  0
 61135  1  0  0  0
 61136  1  0  0  0
 62137  1  0  0  0
 62138  1  0  0  0
 62139  1  0  0  0
 63 65  1  0  0  0
 63140  1  0  0  0
 63141  1  0  0  0
 63142  1  0  0  0
 64143  1  0  0  0
 65144  1  0  0  0
 68 82  1  0  0  0
 71 72  2  0  0  0
 71 75  1  0  0  0
 71145  1  0  0  0
 72 76  1  0  0  0
 72146  1  0  0  0
 73 74  1  0  0  0
 73 75  2  0  0  0
 73147  1  0  0  0
 74 76  2  0  0  0
 74 81  1  0  0  0
 75 83  1  0  0  0
 76 84  1  0  0  0
 77 78  2  0  0  0
 77 80  1  0  0  0
 77148  1  0  0  0
 78 79  1  0  0  0
 78 82  1  0  0  0
 79 83  1  0  0  0
 79 85  2  0  0  0
 80 83  1  0  0  0
 80149  1  0  0  0
 80150  1  0  0  0
 81151  1  0  0  0
 81152  1  0  0  0
 81153  1  0  0  0
 82154  1  0  0  0
 82155  1  0  0  0
 84156  1  0  0  0
M  ISO  4   1 100  68 101  82 101  84 100
M  END
> <chiral flag>
0

> <version>
0

> <s_m_source_file>
/data/baiqing/PycharmProjects/Reinvent-master-3.2/result/LINK_invent/BTK/process_docking_weight1_custom_product_contain_oxygen_bond_distance_aromatic_linkinvent_7_9_3/rearranged_h_0090.sdf

> <i_m_source_file_index>
84

> <r_mmod_Potential_Energy-OPLS-2005>
152.33186340332

> <r_mmod_Stretch_Energy-OPLS-2005>
87.0431442260742

> <r_mmod_Bend_Energy-OPLS-2005>
191.634124755859

> <r_mmod_Torsional_Energy-OPLS-2005>
244.917327880859

> <r_mmod_Improper_Torsional_Energy-OPLS-2005>
3.77115654945374

> <r_mmod_Van_der_Waal_Energy-OPLS-2005>
147.889205932617

> <r_mmod_Electrostatic_Energy-OPLS-2005>
-366.437225341797

> <r_mmod_Solvation_Energy-OPLS-2005>
-212.355117797852

> <b_mmod_Minimization_Converged-OPLS-2005>
0

> <r_mmod_RMS_Derivative-OPLS-2005>
0.875370919704437

$$$$
85
                    3D
 Structure written by MMmdl.
160169  0  0  1  0            999 V2000
  -30.6283  -14.8117   20.4360 C   0  0  0  0  0  0
  -30.4599  -12.4711   19.4962 C   0  0  0  0  0  0
  -29.5293  -12.3582   18.2599 C   0  0  0  0  0  0
  -28.0454  -12.2664   18.6774 C   0  0  0  0  0  0
  -27.6482  -13.2186   19.8373 C   0  0  2  0  0  0
  -28.7032  -13.2183   20.9650 C   0  0  0  0  0  0
  -25.2612  -13.8171   20.5694 C   0  0  0  0  0  0
  -24.1861  -13.0439   20.9171 C   0  0  0  0  0  0
  -24.6416  -11.6893   20.8778 C   0  0  0  0  0  0
  -23.9078  -10.4266   21.0448 C   0  0  0  0  0  0
  -24.3589   -9.4146   21.9221 C   0  0  0  0  0  0
  -23.6224   -8.2201   22.0783 C   0  0  0  0  0  0
  -22.4208   -8.0253   21.3569 C   0  0  0  0  0  0
  -21.9885   -9.0259   20.4671 C   0  0  0  0  0  0
  -22.7256  -10.2124   20.3089 C   0  0  0  0  0  0
  -21.6837   -6.0682   22.5278 C   0  0  0  0  0  0
  -21.3990   -6.5598   23.8209 C   0  0  0  0  0  0
  -21.3680   -5.6785   24.9201 C   0  0  0  0  0  0
  -21.6065   -4.3038   24.7263 C   0  0  0  0  0  0
  -21.8806   -3.8102   23.4388 C   0  0  0  0  0  0
  -21.9164   -4.6907   22.3428 C   0  0  0  0  0  0
  -22.7895  -13.5243   21.1867 C   0  0  0  0  0  0
  -22.1620   -4.2053   21.1017 F   0  0  0  0  0  0
  -21.5663   -3.4551   25.7798 F   0  0  0  0  0  0
  -29.9853  -13.5843   20.3554 N   0  0  0  0  0  0
  -26.3006  -12.9322   20.3307 N   0  0  0  0  0  0
  -25.9348  -11.6483   20.5820 N   0  0  0  0  0  0
  -22.0602  -12.8203   22.0427 N   0  0  0  0  0  0
  -25.4514  -15.1856   20.4092 N   0  0  0  0  0  0
  -31.8540  -14.8435   20.2876 O   0  0  0  0  0  0
  -21.6583   -6.8832   21.4241 O   0  0  0  0  0  0
  -22.3570  -14.5578   20.6782 O   0  0  0  0  0  0
  -24.6330  -31.8521   23.1937 C   0  0  0  0  0  0
  -25.9168  -32.4735   23.8276 C   0  0  1  0  0  0
  -27.2150  -27.2423   20.1615 C   0  0  0  0  0  0
  -25.5998  -33.8550   24.2248 N   0  0  0  0  0  0
  -23.4299  -30.4727   21.5364 C   0  0  2  0  0  0
  -24.8768  -28.9085   20.1168 C   0  0  0  0  0  0
  -22.7505  -29.4592   22.4904 C   0  0  0  0  0  0
  -18.0284  -28.1376   22.8484 C   0  0  0  0  0  0
  -24.1476  -36.7282   23.2635 C   0  0  0  0  0  0
  -25.9736  -30.7668   21.3659 C   0  0  0  0  0  0
  -26.0474  -29.3824   20.7208 C   0  0  0  0  0  0
  -27.2280  -28.5658   20.7203 C   0  0  0  0  0  0
  -26.0193  -26.8259   19.5444 C   0  0  0  0  0  0
  -24.8685  -27.6389   19.5124 C   0  0  0  0  0  0
  -23.6509  -29.8017   20.1531 C   0  0  0  0  0  0
  -25.4095  -36.3063   24.0337 C   0  0  1  0  0  0
  -20.5889  -28.3693   23.1274 C   0  0  2  0  0  0
  -20.6770  -26.9418   22.5404 C   0  0  0  0  0  0
  -19.5738  -26.6372   21.5213 C   0  0  0  0  0  0
  -18.1917  -26.7926   22.1606 C   0  0  0  0  0  0
  -19.1541  -28.8853   23.2858 C   0  0  0  0  0  0
  -18.9456  -30.1463   23.8863 C   0  0  0  0  0  0
  -17.6466  -30.6591   24.0561 C   0  0  0  0  0  0
  -25.9029  -34.9446   23.5078 C   0  0  0  0  0  0
  -16.5352  -29.9083   23.6335 C   0  0  0  0  0  0
  -16.7266  -28.6506   23.0355 C   0  0  0  0  0  0
  -26.4534  -31.6563   25.0673 C   0  0  0  0  0  0
  -25.3778  -31.3789   26.1419 C   0  0  0  0  0  0
  -27.0338  -30.2967   24.6152 C   0  0  0  0  0  0
  -27.6060  -32.4318   25.7482 C   0  0  0  0  0  0
  -27.5575  -37.1771   24.8460 C   0  0  0  0  0  0
  -21.4208  -29.3052   22.3674 N   0  0  0  0  0  0
  -26.4256  -37.3782   23.9447 N   0  0  0  0  0  0
  -24.6989  -31.0499   22.0887 N   0  0  0  0  0  0
  -23.4211  -28.8100   23.2985 O   0  0  0  0  0  0
  -28.3091  -26.3508   20.1428 O   0  0  0  0  0  0
  -26.5560  -34.8957   22.4610 O   0  0  0  0  0  0
  -23.5493  -32.1331   23.7247 O   0  0  0  0  0  0
  -29.3360  -18.5559   19.9802 C   0  0  0  0  0  0
  -29.8450  -17.3601   20.7033 C   0  0  0  0  0  0
  -30.2048  -17.7428   21.9795 C   0  0  0  0  0  0
  -29.2808  -19.8131   20.6267 C   0  0  0  0  0  0
  -27.8963  -23.5119   18.8418 C   0  0  0  0  0  0
  -28.3163  -23.6106   20.1145 C   0  0  0  0  0  0
  -28.7228  -22.3162   20.8339 C   0  0  0  0  0  0
  -30.4769  -17.0319   24.3650 C   0  0  0  0  0  0
  -30.7440  -16.9544   23.0511 C   0  0  0  0  0  0
  -27.7861  -22.2025   18.1084 C   0  0  0  0  0  0
  -28.8026  -21.1874   18.6431 C   0  0  0  0  0  0
  -29.6181  -16.0180   18.6619 C   0  0  0  0  0  0
  -28.2212  -25.0270   20.8633 C   0  0  0  0  0  0
  -28.8937  -21.1024   20.1211 N   0  0  0  0  0  0
  -29.8954  -15.9694   20.1035 N   0  0  0  0  0  0
  -28.8711  -22.3334   22.0588 O   0  0  0  0  0  0
  -29.8379  -19.4618   22.2709 S   0  0  0  0  0  0
  -31.4969  -12.6026   19.1828 H   0  0  0  0  0  0
  -30.4437  -11.5372   20.0614 H   0  0  0  0  0  0
  -29.7956  -11.4601   17.7003 H   0  0  0  0  0  0
  -29.6843  -13.1546   17.5410 H   0  0  0  0  0  0
  -27.8905  -11.2362   19.0041 H   0  0  0  0  0  0
  -27.3898  -12.4114   17.8188 H   0  0  0  0  0  0
  -27.6241  -14.2192   19.4088 H   0  0  0  0  0  0
  -28.7718  -12.2377   21.4361 H   0  0  0  0  0  0
  -28.4412  -13.9271   21.7511 H   0  0  0  0  0  0
  -25.2757   -9.5567   22.4776 H   0  0  0  0  0  0
  -23.9941   -7.4572   22.7474 H   0  0  0  0  0  0
  -21.0844   -8.8788   19.8939 H   0  0  0  0  0  0
  -22.3763  -10.9656   19.6157 H   0  0  0  0  0  0
  -21.1944   -7.6100   23.9679 H   0  0  0  0  0  0
  -21.1530   -6.0525   25.9105 H   0  0  0  0  0  0
  -22.0551   -2.7545   23.2933 H   0  0  0  0  0  0
  -22.4200  -11.9717   22.4547 H   0  0  0  0  0  0
  -21.1312  -13.1288   22.2915 H   0  0  0  0  0  0
  -24.7205  -15.8821   20.5071 H   0  0  0  0  0  0
  -26.3417  -15.5830   20.1375 H   0  0  0  0  0  0
  -26.7222  -32.5393   23.1006 H   0  0  0  0  0  0
  -25.0370  -33.9683   25.0551 H   0  0  0  0  0  0
  -22.7265  -31.2939   21.3849 H   0  0  0  0  0  0
  -23.3768  -35.9582   23.3258 H   0  0  0  0  0  0
  -24.3593  -36.8914   22.2053 H   0  0  0  0  0  0
  -23.7181  -37.6469   23.6649 H   0  0  0  0  0  0
  -26.1065  -31.5197   20.5864 H   0  0  0  0  0  0
  -26.8547  -30.8245   21.9930 H   0  0  0  0  0  0
  -28.1346  -28.9409   21.1752 H   0  0  0  0  0  0
  -25.9687  -25.8455   19.0962 H   0  0  0  0  0  0
  -23.9748  -27.2649   19.0345 H   0  0  0  0  0  0
  -23.7863  -30.5737   19.3943 H   0  0  0  0  0  0
  -22.7684  -29.2400   19.8420 H   0  0  0  0  0  0
  -25.1257  -36.1884   25.0823 H   0  0  0  0  0  0
  -20.9946  -28.3223   24.1400 H   0  0  0  0  0  0
  -20.5658  -26.2302   23.3593 H   0  0  0  0  0  0
  -21.6626  -26.7405   22.1188 H   0  0  0  0  0  0
  -19.6891  -25.6270   21.1248 H   0  0  0  0  0  0
  -19.6683  -27.3164   20.6723 H   0  0  0  0  0  0
  -17.4187  -26.6694   21.4006 H   0  0  0  0  0  0
  -18.0299  -26.0079   22.8988 H   0  0  0  0  0  0
  -19.7950  -30.7293   24.2197 H   0  0  0  0  0  0
  -17.5033  -31.6270   24.5149 H   0  0  0  0  0  0
  -15.5358  -30.2979   23.7716 H   0  0  0  0  0  0
  -15.8655  -28.0826   22.7071 H   0  0  0  0  0  0
  -24.5986  -30.7048   25.7859 H   0  0  0  0  0  0
  -24.8952  -32.2993   26.4706 H   0  0  0  0  0  0
  -25.8151  -30.9135   27.0258 H   0  0  0  0  0  0
  -26.2879  -29.6766   24.1171 H   0  0  0  0  0  0
  -27.4006  -29.7190   25.4646 H   0  0  0  0  0  0
  -27.8781  -30.4249   23.9383 H   0  0  0  0  0  0
  -27.2615  -33.3658   26.1960 H   0  0  0  0  0  0
  -28.3952  -32.6805   25.0366 H   0  0  0  0  0  0
  -28.0632  -31.8495   26.5492 H   0  0  0  0  0  0
  -28.2509  -38.0147   24.7576 H   0  0  0  0  0  0
  -28.1121  -36.2669   24.6131 H   0  0  0  0  0  0
  -27.2334  -37.1243   25.8871 H   0  0  0  0  0  0
  -20.9369  -29.8892   21.6997 H   0  0  0  0  0  0
  -26.0124  -38.2835   24.1512 H   0  0  0  0  0  0
  -29.0175  -18.4468   18.9592 H   0  0  0  0  0  0
  -27.5409  -24.3827   18.3069 H   0  0  0  0  0  0
  -30.9761  -16.3852   25.0773 H   0  0  0  0  0  0
  -29.7533  -17.7288   24.7607 H   0  0  0  0  0  0
  -31.4968  -16.2362   22.7634 H   0  0  0  0  0  0
  -27.9166  -22.3471   17.0333 H   0  0  0  0  0  0
  -26.7675  -21.8324   18.2362 H   0  0  0  0  0  0
  -29.7996  -21.4467   18.2834 H   0  0  0  0  0  0
  -28.5446  -20.2472   18.1668 H   0  0  0  0  0  0
  -28.6179  -16.3959   18.4616 H   0  0  0  0  0  0
  -29.6665  -15.0649   18.1584 H   0  0  0  0  0  0
  -30.3583  -16.6513   18.1658 H   0  0  0  0  0  0
  -29.0462  -25.0402   21.5753 H   0  0  0  0  0  0
  -27.3207  -25.0155   21.4795 H   0  0  0  0  0  0
  1 25  1  0  0  0
  1 30  2  0  0  0
  1 85  1  0  0  0
  2  3  1  0  0  0
  2 25  1  0  0  0
  2 88  1  0  0  0
  2 89  1  0  0  0
  3  4  1  0  0  0
  3 90  1  0  0  0
  3 91  1  0  0  0
  4  5  1  0  0  0
  4 92  1  0  0  0
  4 93  1  0  0  0
  5  6  1  0  0  0
  5 26  1  0  0  0
  5 94  1  0  0  0
  6 25  1  0  0  0
  6 95  1  0  0  0
  6 96  1  0  0  0
  7  8  2  0  0  0
  7 26  1  0  0  0
  7 29  1  0  0  0
  8  9  1  0  0  0
  8 22  1  0  0  0
  9 10  1  0  0  0
  9 27  2  0  0  0
 10 11  2  0  0  0
 10 15  1  0  0  0
 11 12  1  0  0  0
 11 97  1  0  0  0
 12 13  2  0  0  0
 12 98  1  0  0  0
 13 14  1  0  0  0
 13 31  1  0  0  0
 14 15  2  0  0  0
 14 99  1  0  0  0
 15100  1  0  0  0
 16 17  2  0  0  0
 16 21  1  0  0  0
 16 31  1  0  0  0
 17 18  1  0  0  0
 17101  1  0  0  0
 18 19  2  0  0  0
 18102  1  0  0  0
 19 20  1  0  0  0
 19 24  1  0  0  0
 20 21  2  0  0  0
 20103  1  0  0  0
 21 23  1  0  0  0
 22 28  1  0  0  0
 22 32  2  0  0  0
 26 27  1  0  0  0
 28104  1  0  0  0
 28105  1  0  0  0
 29106  1  0  0  0
 29107  1  0  0  0
 33 34  1  0  0  0
 33 66  1  0  0  0
 33 70  2  0  0  0
 34 36  1  0  0  0
 34 59  1  0  0  0
 34108  1  0  0  0
 35 44  2  0  0  0
 35 45  1  0  0  0
 35 68  1  0  0  0
 36 56  1  0  0  0
 36109  1  0  0  0
 37 39  1  0  0  0
 37 47  1  0  0  0
 37 66  1  0  0  0
 37110  1  0  0  0
 38 43  2  0  0  0
 38 46  1  0  0  0
 38 47  1  0  0  0
 39 64  1  0  0  0
 39 67  2  0  0  0
 40 52  1  0  0  0
 40 53  2  0  0  0
 40 58  1  0  0  0
 41111  1  0  0  0
 41112  1  0  0  0
 41113  1  0  0  0
 41 48  1  0  0  0
 42 43  1  0  0  0
 42 66  1  0  0  0
 42114  1  0  0  0
 42115  1  0  0  0
 43 44  1  0  0  0
 44116  1  0  0  0
 45 46  2  0  0  0
 45117  1  0  0  0
 46118  1  0  0  0
 47119  1  0  0  0
 47120  1  0  0  0
 48 56  1  0  0  0
 48 65  1  0  0  0
 48121  1  0  0  0
 49 50  1  0  0  0
 49 53  1  0  0  0
 49 64  1  0  0  0
 49122  1  0  0  0
 50 51  1  0  0  0
 50123  1  0  0  0
 50124  1  0  0  0
 51 52  1  0  0  0
 51125  1  0  0  0
 51126  1  0  0  0
 52127  1  0  0  0
 52128  1  0  0  0
 53 54  1  0  0  0
 54 55  2  0  0  0
 54129  1  0  0  0
 55 57  1  0  0  0
 55130  1  0  0  0
 56 69  2  0  0  0
 57 58  2  0  0  0
 57131  1  0  0  0
 58132  1  0  0  0
 59 60  1  0  0  0
 59 61  1  0  0  0
 59 62  1  0  0  0
 60133  1  0  0  0
 60134  1  0  0  0
 60135  1  0  0  0
 61136  1  0  0  0
 61137  1  0  0  0
 61138  1  0  0  0
 62139  1  0  0  0
 62140  1  0  0  0
 62141  1  0  0  0
 63 65  1  0  0  0
 63142  1  0  0  0
 63143  1  0  0  0
 63144  1  0  0  0
 64145  1  0  0  0
 65146  1  0  0  0
 68 83  1  0  0  0
 71 72  1  0  0  0
 71 74  2  0  0  0
 71147  1  0  0  0
 72 73  2  0  0  0
 72 85  1  0  0  0
 73 79  1  0  0  0
 73 87  1  0  0  0
 74 84  1  0  0  0
 74 87  1  0  0  0
 75 76  2  0  0  0
 75 80  1  0  0  0
 75148  1  0  0  0
 76 77  1  0  0  0
 76 83  1  0  0  0
 77 84  1  0  0  0
 77 86  2  0  0  0
 78 79  2  0  0  0
 78149  1  0  0  0
 78150  1  0  0  0
 79151  1  0  0  0
 80 81  1  0  0  0
 80152  1  0  0  0
 80153  1  0  0  0
 81 84  1  0  0  0
 81154  1  0  0  0
 81155  1  0  0  0
 82 85  1  0  0  0
 82156  1  0  0  0
 82157  1  0  0  0
 82158  1  0  0  0
 83159  1  0  0  0
 83160  1  0  0  0
M  ISO  4   1 100  68 101  83 101  85 100
M  END
> <chiral flag>
0

> <version>
0

> <s_m_source_file>
/data/baiqing/PycharmProjects/Reinvent-master-3.2/result/LINK_invent/BTK/process_docking_weight1_custom_product_contain_oxygen_bond_distance_aromatic_linkinvent_7_9_3/rearranged_h_0090.sdf

> <i_m_source_file_index>
85

> <r_mmod_Potential_Energy-OPLS-2005>
522.852844238281

> <r_mmod_Stretch_Energy-OPLS-2005>
164.041229248047

> <r_mmod_Bend_Energy-OPLS-2005>
212.731948852539

> <r_mmod_Torsional_Energy-OPLS-2005>
343.29150390625

> <r_mmod_Improper_Torsional_Energy-OPLS-2005>
22.2245216369629

> <r_mmod_Van_der_Waal_Energy-OPLS-2005>
145.637893676758

> <r_mmod_Electrostatic_Energy-OPLS-2005>
-277.559967041016

> <r_mmod_Solvation_Energy-OPLS-2005>
-202.226669311523

> <b_mmod_Minimization_Converged-OPLS-2005>
0

> <r_mmod_RMS_Derivative-OPLS-2005>
5.57172727584839

$$$$
86
                    3D
 Structure written by MMmdl.
152160  0  0  1  0            999 V2000
  -30.6264  -14.6239   20.5044 C   0  0  0  0  0  0
  -30.4430  -12.3829   19.4457 C   0  0  0  0  0  0
  -29.5085  -12.5066   18.2209 C   0  0  0  0  0  0
  -28.0306  -12.3476   18.6339 C   0  0  0  0  0  0
  -27.6569  -13.2132   19.8668 C   0  0  2  0  0  0
  -28.7038  -13.0521   20.9928 C   0  0  0  0  0  0
  -25.2569  -13.8152   20.5676 C   0  0  0  0  0  0
  -24.1826  -13.0423   20.9155 C   0  0  0  0  0  0
  -24.6393  -11.6895   20.8719 C   0  0  0  0  0  0
  -23.9060  -10.4284   21.0394 C   0  0  0  0  0  0
  -24.3611   -9.4206   21.9176 C   0  0  0  0  0  0
  -23.6283   -8.2245   22.0755 C   0  0  0  0  0  0
  -22.4266   -8.0280   21.3550 C   0  0  0  0  0  0
  -21.9897   -9.0254   20.4653 C   0  0  0  0  0  0
  -22.7229  -10.2130   20.3051 C   0  0  0  0  0  0
  -21.6854   -6.0730   22.5278 C   0  0  0  0  0  0
  -21.4014   -6.5633   23.8210 C   0  0  0  0  0  0
  -21.3659   -5.6787   24.9174 C   0  0  0  0  0  0
  -21.6044   -4.3051   24.7226 C   0  0  0  0  0  0
  -21.8820   -3.8142   23.4347 C   0  0  0  0  0  0
  -21.9193   -4.6960   22.3402 C   0  0  0  0  0  0
  -22.7852  -13.5231   21.1829 C   0  0  0  0  0  0
  -22.1662   -4.2144   21.0980 F   0  0  0  0  0  0
  -21.5631   -3.4532   25.7739 F   0  0  0  0  0  0
  -30.0223  -13.3961   20.4327 N   0  0  0  0  0  0
  -26.3011  -12.9335   20.3346 N   0  0  0  0  0  0
  -25.9328  -11.6491   20.5756 N   0  0  0  0  0  0
  -22.0497  -12.8234   22.0397 N   0  0  0  0  0  0
  -25.4253  -15.1872   20.4128 N   0  0  0  0  0  0
  -31.7811  -14.8016   20.1044 O   0  0  0  0  0  0
  -21.6640   -6.8872   21.4240 O   0  0  0  0  0  0
  -22.3530  -14.5538   20.6685 O   0  0  0  0  0  0
  -24.6264  -31.8616   23.2052 C   0  0  0  0  0  0
  -25.9116  -32.4785   23.8379 C   0  0  1  0  0  0
  -27.2223  -27.3279   20.1061 C   0  0  0  0  0  0
  -25.5937  -33.8586   24.2302 N   0  0  0  0  0  0
  -23.4194  -30.4879   21.5478 C   0  0  2  0  0  0
  -24.8652  -28.9506   20.1090 C   0  0  0  0  0  0
  -22.7483  -29.4635   22.4939 C   0  0  0  0  0  0
  -18.0290  -28.1387   22.8482 C   0  0  0  0  0  0
  -24.1487  -36.7294   23.2638 C   0  0  0  0  0  0
  -25.9617  -30.7941   21.3775 C   0  0  0  0  0  0
  -26.0356  -29.4243   20.7157 C   0  0  0  0  0  0
  -27.2172  -28.6242   20.7071 C   0  0  0  0  0  0
  -26.0266  -26.9137   19.4689 C   0  0  0  0  0  0
  -24.8629  -27.7007   19.4770 C   0  0  0  0  0  0
  -23.6341  -29.8300   20.1607 C   0  0  0  0  0  0
  -25.4109  -36.3086   24.0333 C   0  0  1  0  0  0
  -20.5891  -28.3690   23.1281 C   0  0  2  0  0  0
  -20.6775  -26.9414   22.5408 C   0  0  0  0  0  0
  -19.5750  -26.6386   21.5208 C   0  0  0  0  0  0
  -18.1932  -26.7930   22.1623 C   0  0  0  0  0  0
  -19.1541  -28.8857   23.2877 C   0  0  0  0  0  0
  -18.9465  -30.1455   23.8897 C   0  0  0  0  0  0
  -17.6464  -30.6585   24.0565 C   0  0  0  0  0  0
  -25.9049  -34.9454   23.5114 C   0  0  0  0  0  0
  -16.5355  -29.9083   23.6329 C   0  0  0  0  0  0
  -16.7278  -28.6504   23.0345 C   0  0  0  0  0  0
  -26.4496  -31.6587   25.0742 C   0  0  0  0  0  0
  -25.3734  -31.3724   26.1476 C   0  0  0  0  0  0
  -27.0338  -30.3011   24.6191 C   0  0  0  0  0  0
  -27.6066  -32.4315   25.7505 C   0  0  0  0  0  0
  -27.5581  -37.1800   24.8464 C   0  0  0  0  0  0
  -21.4197  -29.3049   22.3682 N   0  0  0  0  0  0
  -26.4286  -37.3783   23.9418 N   0  0  0  0  0  0
  -24.6878  -31.0636   22.1003 N   0  0  0  0  0  0
  -23.4210  -28.8166   23.3010 O   0  0  0  0  0  0
  -28.3305  -26.4654   20.1606 O   0  0  0  0  0  0
  -26.5611  -34.8916   22.4676 O   0  0  0  0  0  0
  -23.5428  -32.1419   23.7377 O   0  0  0  0  0  0
  -30.8492  -19.3014   20.1765 C   0  0  0  0  0  0
  -30.9392  -17.8772   20.2628 C   0  0  0  0  0  0
  -29.6842  -20.0292   20.5541 C   0  0  0  0  0  0
  -29.8558  -17.0994   20.7498 C   0  0  0  0  0  0
  -28.6019  -19.2426   21.0491 C   0  0  0  0  0  0
  -28.6942  -17.8192   21.1304 C   0  0  0  0  0  0
  -29.1298  -23.9643   20.3395 C   0  0  0  0  0  0
  -28.7418  -22.4122   20.1739 C   0  0  0  0  0  0
  -28.0399  -25.0274   19.9413 C   0  0  0  0  0  0
  -27.4275  -19.8479   21.4983 N   0  0  0  0  0  0
  -29.7018  -21.4988   20.5219 N   0  0  0  0  0  0
  -29.8149  -15.6466   20.9013 N   0  0  0  0  0  0
  -30.2408  -24.3136   20.7601 O   0  0  0  0  0  0
  -27.6346  -22.0858   19.7315 O   0  0  0  0  0  0
  -27.6283  -17.1192   21.5947 F   0  0  0  0  0  0
  -31.4836  -12.5101   19.1418 H   0  0  0  0  0  0
  -30.3792  -11.3836   19.8791 H   0  0  0  0  0  0
  -29.7685  -11.7572   17.4724 H   0  0  0  0  0  0
  -29.6535  -13.4758   17.7418 H   0  0  0  0  0  0
  -27.8628  -11.2935   18.8589 H   0  0  0  0  0  0
  -27.3772  -12.5848   17.7936 H   0  0  0  0  0  0
  -27.6789  -14.2506   19.5335 H   0  0  0  0  0  0
  -28.7117  -12.0248   21.3600 H   0  0  0  0  0  0
  -28.4509  -13.6703   21.8556 H   0  0  0  0  0  0
  -25.2757   -9.5687   22.4746 H   0  0  0  0  0  0
  -23.9995   -7.4638   22.7471 H   0  0  0  0  0  0
  -21.0830   -8.8773   19.8958 H   0  0  0  0  0  0
  -22.3685  -10.9669   19.6160 H   0  0  0  0  0  0
  -21.2005   -7.6141   23.9709 H   0  0  0  0  0  0
  -21.1479   -6.0519   25.9074 H   0  0  0  0  0  0
  -22.0598   -2.7603   23.2849 H   0  0  0  0  0  0
  -22.4109  -11.9901   22.4803 H   0  0  0  0  0  0
  -21.1123  -13.1280   22.2613 H   0  0  0  0  0  0
  -24.6658  -15.8411   20.5641 H   0  0  0  0  0  0
  -26.3011  -15.6467   20.1987 H   0  0  0  0  0  0
  -26.7189  -32.5460   23.1135 H   0  0  0  0  0  0
  -25.0098  -33.9738   25.0457 H   0  0  0  0  0  0
  -22.7126  -31.3084   21.4085 H   0  0  0  0  0  0
  -23.3750  -35.9625   23.3295 H   0  0  0  0  0  0
  -24.3589  -36.8918   22.2055 H   0  0  0  0  0  0
  -23.7233  -37.6493   23.6659 H   0  0  0  0  0  0
  -26.0969  -31.5608   20.6130 H   0  0  0  0  0  0
  -26.8404  -30.8385   22.0094 H   0  0  0  0  0  0
  -28.1125  -28.9824   21.1957 H   0  0  0  0  0  0
  -25.9516  -25.9648   18.9594 H   0  0  0  0  0  0
  -23.9681  -27.3358   18.9914 H   0  0  0  0  0  0
  -23.7568  -30.6106   19.4088 H   0  0  0  0  0  0
  -22.7534  -29.2631   19.8537 H   0  0  0  0  0  0
  -25.1282  -36.1942   25.0824 H   0  0  0  0  0  0
  -20.9985  -28.3259   24.1401 H   0  0  0  0  0  0
  -20.5674  -26.2300   23.3607 H   0  0  0  0  0  0
  -21.6644  -26.7442   22.1205 H   0  0  0  0  0  0
  -19.6908  -25.6297   21.1240 H   0  0  0  0  0  0
  -19.6680  -27.3193   20.6734 H   0  0  0  0  0  0
  -17.4200  -26.6677   21.4027 H   0  0  0  0  0  0
  -18.0335  -26.0072   22.9021 H   0  0  0  0  0  0
  -19.7938  -30.7271   24.2270 H   0  0  0  0  0  0
  -17.5017  -31.6263   24.5168 H   0  0  0  0  0  0
  -15.5355  -30.2983   23.7652 H   0  0  0  0  0  0
  -15.8681  -28.0823   22.7055 H   0  0  0  0  0  0
  -24.5908  -30.7068   25.7813 H   0  0  0  0  0  0
  -24.8922  -32.2887   26.4908 H   0  0  0  0  0  0
  -25.8068  -30.8906   27.0250 H   0  0  0  0  0  0
  -26.2912  -29.6764   24.1212 H   0  0  0  0  0  0
  -27.4035  -29.7265   25.4694 H   0  0  0  0  0  0
  -27.8785  -30.4302   23.9420 H   0  0  0  0  0  0
  -27.2688  -33.3615   26.2091 H   0  0  0  0  0  0
  -28.3867  -32.6874   25.0322 H   0  0  0  0  0  0
  -28.0744  -31.8433   26.5411 H   0  0  0  0  0  0
  -28.2590  -38.0105   24.7526 H   0  0  0  0  0  0
  -28.1082  -36.2639   24.6263 H   0  0  0  0  0  0
  -27.2311  -37.1424   25.8869 H   0  0  0  0  0  0
  -20.9372  -29.8798   21.6917 H   0  0  0  0  0  0
  -26.0165  -38.2857   24.1424 H   0  0  0  0  0  0
  -31.7093  -19.8435   19.8096 H   0  0  0  0  0  0
  -31.8561  -17.3956   19.9562 H   0  0  0  0  0  0
  -27.1415  -24.7638   20.5004 H   0  0  0  0  0  0
  -27.8168  -24.8705   18.8855 H   0  0  0  0  0  0
  -27.1820  -20.6829   20.9688 H   0  0  0  0  0  0
  -26.6416  -19.2126   21.5886 H   0  0  0  0  0  0
  -30.5845  -21.9348   20.7540 H   0  0  0  0  0  0
  -28.9274  -15.3191   21.2523 H   0  0  0  0  0  0
  1 25  1  0  0  0
  1 30  2  0  0  0
  1 82  1  0  0  0
  2  3  1  0  0  0
  2 25  1  0  0  0
  2 86  1  0  0  0
  2 87  1  0  0  0
  3  4  1  0  0  0
  3 88  1  0  0  0
  3 89  1  0  0  0
  4  5  1  0  0  0
  4 90  1  0  0  0
  4 91  1  0  0  0
  5  6  1  0  0  0
  5 26  1  0  0  0
  5 92  1  0  0  0
  6 25  1  0  0  0
  6 93  1  0  0  0
  6 94  1  0  0  0
  7  8  2  0  0  0
  7 26  1  0  0  0
  7 29  1  0  0  0
  8  9  1  0  0  0
  8 22  1  0  0  0
  9 10  1  0  0  0
  9 27  2  0  0  0
 10 11  2  0  0  0
 10 15  1  0  0  0
 11 12  1  0  0  0
 11 95  1  0  0  0
 12 13  2  0  0  0
 12 96  1  0  0  0
 13 14  1  0  0  0
 13 31  1  0  0  0
 14 15  2  0  0  0
 14 97  1  0  0  0
 15 98  1  0  0  0
 16 17  2  0  0  0
 16 21  1  0  0  0
 16 31  1  0  0  0
 17 18  1  0  0  0
 17 99  1  0  0  0
 18 19  2  0  0  0
 18100  1  0  0  0
 19 20  1  0  0  0
 19 24  1  0  0  0
 20 21  2  0  0  0
 20101  1  0  0  0
 21 23  1  0  0  0
 22 28  1  0  0  0
 22 32  2  0  0  0
 26 27  1  0  0  0
 28102  1  0  0  0
 28103  1  0  0  0
 29104  1  0  0  0
 29105  1  0  0  0
 33 34  1  0  0  0
 33 66  1  0  0  0
 33 70  2  0  0  0
 34 36  1  0  0  0
 34 59  1  0  0  0
 34106  1  0  0  0
 35 44  2  0  0  0
 35 45  1  0  0  0
 35 68  1  0  0  0
 36 56  1  0  0  0
 36107  1  0  0  0
 37 39  1  0  0  0
 37 47  1  0  0  0
 37 66  1  0  0  0
 37108  1  0  0  0
 38 43  2  0  0  0
 38 46  1  0  0  0
 38 47  1  0  0  0
 39 64  1  0  0  0
 39 67  2  0  0  0
 40 52  1  0  0  0
 40 53  2  0  0  0
 40 58  1  0  0  0
 41109  1  0  0  0
 41110  1  0  0  0
 41111  1  0  0  0
 41 48  1  0  0  0
 42 43  1  0  0  0
 42 66  1  0  0  0
 42112  1  0  0  0
 42113  1  0  0  0
 43 44  1  0  0  0
 44114  1  0  0  0
 45 46  2  0  0  0
 45115  1  0  0  0
 46116  1  0  0  0
 47117  1  0  0  0
 47118  1  0  0  0
 48 56  1  0  0  0
 48 65  1  0  0  0
 48119  1  0  0  0
 49 50  1  0  0  0
 49 53  1  0  0  0
 49 64  1  0  0  0
 49120  1  0  0  0
 50 51  1  0  0  0
 50121  1  0  0  0
 50122  1  0  0  0
 51 52  1  0  0  0
 51123  1  0  0  0
 51124  1  0  0  0
 52125  1  0  0  0
 52126  1  0  0  0
 53 54  1  0  0  0
 54 55  2  0  0  0
 54127  1  0  0  0
 55 57  1  0  0  0
 55128  1  0  0  0
 56 69  2  0  0  0
 57 58  2  0  0  0
 57129  1  0  0  0
 58130  1  0  0  0
 59 60  1  0  0  0
 59 61  1  0  0  0
 59 62  1  0  0  0
 60131  1  0  0  0
 60132  1  0  0  0
 60133  1  0  0  0
 61134  1  0  0  0
 61135  1  0  0  0
 61136  1  0  0  0
 62137  1  0  0  0
 62138  1  0  0  0
 62139  1  0  0  0
 63 65  1  0  0  0
 63140  1  0  0  0
 63141  1  0  0  0
 63142  1  0  0  0
 64143  1  0  0  0
 65144  1  0  0  0
 68 79  1  0  0  0
 71 72  2  0  0  0
 71 73  1  0  0  0
 71145  1  0  0  0
 72 74  1  0  0  0
 72146  1  0  0  0
 73 75  2  0  0  0
 73 81  1  0  0  0
 74 76  2  0  0  0
 74 82  1  0  0  0
 75 76  1  0  0  0
 75 80  1  0  0  0
 76 85  1  0  0  0
 77 78  1  0  0  0
 77 79  1  0  0  0
 77 83  2  0  0  0
 78 81  1  0  0  0
 78 84  2  0  0  0
 79147  1  0  0  0
 79148  1  0  0  0
 80149  1  0  0  0
 80150  1  0  0  0
 81151  1  0  0  0
 82152  1  0  0  0
M  ISO  4   1 100  68 101  79 101  82 100
M  END
> <chiral flag>
0

> <version>
0

> <s_m_source_file>
/data/baiqing/PycharmProjects/Reinvent-master-3.2/result/LINK_invent/BTK/process_docking_weight1_custom_product_contain_oxygen_bond_distance_aromatic_linkinvent_7_9_3/rearranged_h_0090.sdf

> <i_m_source_file_index>
86

> <r_mmod_Potential_Energy-OPLS-2005>
28.2472267150879

> <r_mmod_Stretch_Energy-OPLS-2005>
79.348014831543

> <r_mmod_Bend_Energy-OPLS-2005>
140.940307617188

> <r_mmod_Torsional_Energy-OPLS-2005>
233.824081420898

> <r_mmod_Improper_Torsional_Energy-OPLS-2005>
9.05193519592285

> <r_mmod_Van_der_Waal_Energy-OPLS-2005>
154.906387329102

> <r_mmod_Electrostatic_Energy-OPLS-2005>
-406.680969238281

> <r_mmod_Solvation_Energy-OPLS-2005>
-228.663360595703

> <b_mmod_Minimization_Converged-OPLS-2005>
0

> <r_mmod_RMS_Derivative-OPLS-2005>
0.893071174621582

$$$$
87
                    3D
 Structure written by MMmdl.
150158  0  0  1  0            999 V2000
  -30.6133  -14.6585   20.4950 C   0  0  0  0  0  0
  -30.4412  -12.4025   19.4579 C   0  0  0  0  0  0
  -29.5102  -12.5087   18.2286 C   0  0  0  0  0  0
  -28.0327  -12.3447   18.6399 C   0  0  0  0  0  0
  -27.6537  -13.2178   19.8657 C   0  0  2  0  0  0
  -28.6985  -13.0772   20.9958 C   0  0  0  0  0  0
  -25.2555  -13.8167   20.5689 C   0  0  0  0  0  0
  -24.1820  -13.0429   20.9174 C   0  0  0  0  0  0
  -24.6395  -11.6905   20.8733 C   0  0  0  0  0  0
  -23.9065  -10.4288   21.0400 C   0  0  0  0  0  0
  -24.3616   -9.4206   21.9180 C   0  0  0  0  0  0
  -23.6291   -8.2243   22.0753 C   0  0  0  0  0  0
  -22.4273   -8.0279   21.3545 C   0  0  0  0  0  0
  -21.9907   -9.0252   20.4647 C   0  0  0  0  0  0
  -22.7237  -10.2130   20.3053 C   0  0  0  0  0  0
  -21.6851   -6.0735   22.5279 C   0  0  0  0  0  0
  -21.4013   -6.5640   23.8211 C   0  0  0  0  0  0
  -21.3659   -5.6793   24.9175 C   0  0  0  0  0  0
  -21.6043   -4.3055   24.7225 C   0  0  0  0  0  0
  -21.8819   -3.8147   23.4346 C   0  0  0  0  0  0
  -21.9193   -4.6963   22.3401 C   0  0  0  0  0  0
  -22.7843  -13.5223   21.1843 C   0  0  0  0  0  0
  -22.1660   -4.2149   21.0979 F   0  0  0  0  0  0
  -21.5630   -3.4537   25.7737 F   0  0  0  0  0  0
  -30.0136  -13.4255   20.4341 N   0  0  0  0  0  0
  -26.2992  -12.9356   20.3337 N   0  0  0  0  0  0
  -25.9327  -11.6508   20.5765 N   0  0  0  0  0  0
  -22.0492  -12.8220   22.0409 N   0  0  0  0  0  0
  -25.4256  -15.1889   20.4133 N   0  0  0  0  0  0
  -31.7709  -14.8241   20.0990 O   0  0  0  0  0  0
  -21.6638   -6.8876   21.4240 O   0  0  0  0  0  0
  -22.3524  -14.5530   20.6697 O   0  0  0  0  0  0
  -24.6261  -31.8595   23.2020 C   0  0  0  0  0  0
  -25.9107  -32.4776   23.8353 C   0  0  1  0  0  0
  -27.2265  -27.3171   20.1230 C   0  0  0  0  0  0
  -25.5923  -33.8578   24.2280 N   0  0  0  0  0  0
  -23.4210  -30.4823   21.5441 C   0  0  2  0  0  0
  -24.8699  -28.9352   20.1116 C   0  0  0  0  0  0
  -22.7478  -29.4621   22.4930 C   0  0  0  0  0  0
  -18.0285  -28.1387   22.8492 C   0  0  0  0  0  0
  -24.1489  -36.7292   23.2637 C   0  0  0  0  0  0
  -25.9621  -30.7884   21.3753 C   0  0  0  0  0  0
  -26.0373  -29.4142   20.7210 C   0  0  0  0  0  0
  -27.2198  -28.6151   20.7202 C   0  0  0  0  0  0
  -26.0413  -26.8936   19.4827 C   0  0  0  0  0  0
  -24.8728  -27.6794   19.4841 C   0  0  0  0  0  0
  -23.6376  -29.8159   20.1597 C   0  0  0  0  0  0
  -25.4113  -36.3083   24.0328 C   0  0  1  0  0  0
  -20.5887  -28.3690   23.1281 C   0  0  2  0  0  0
  -20.6779  -26.9414   22.5407 C   0  0  0  0  0  0
  -19.5751  -26.6384   21.5215 C   0  0  0  0  0  0
  -18.1932  -26.7927   22.1631 C   0  0  0  0  0  0
  -19.1538  -28.8855   23.2883 C   0  0  0  0  0  0
  -18.9463  -30.1460   23.8897 C   0  0  0  0  0  0
  -17.6462  -30.6592   24.0565 C   0  0  0  0  0  0
  -25.9050  -34.9453   23.5107 C   0  0  0  0  0  0
  -16.5354  -29.9091   23.6329 C   0  0  0  0  0  0
  -16.7272  -28.6508   23.0351 C   0  0  0  0  0  0
  -26.4489  -31.6585   25.0724 C   0  0  0  0  0  0
  -25.3730  -31.3741   26.1463 C   0  0  0  0  0  0
  -27.0313  -30.3002   24.6180 C   0  0  0  0  0  0
  -27.6065  -32.4305   25.7483 C   0  0  0  0  0  0
  -27.5579  -37.1797   24.8463 C   0  0  0  0  0  0
  -21.4190  -29.3046   22.3675 N   0  0  0  0  0  0
  -26.4288  -37.3779   23.9411 N   0  0  0  0  0  0
  -24.6882  -31.0604   22.0972 N   0  0  0  0  0  0
  -23.4199  -28.8163   23.3014 O   0  0  0  0  0  0
  -28.3316  -26.4519   20.1431 O   0  0  0  0  0  0
  -26.5623  -34.8922   22.4676 O   0  0  0  0  0  0
  -23.5424  -32.1394   23.7348 O   0  0  0  0  0  0
  -30.8791  -17.8833   20.0113 C   0  0  0  0  0  0
  -28.6999  -19.3549   21.0016 C   0  0  0  0  0  0
  -29.8576  -17.1563   20.6793 C   0  0  0  0  0  0
  -29.7125  -20.0823   20.3234 C   0  0  0  0  0  0
  -28.7723  -17.9362   21.1675 C   0  0  0  0  0  0
  -30.8032  -19.3006   19.8394 C   0  0  0  0  0  0
  -28.9923  -24.0392   20.2549 C   0  0  0  0  0  0
  -28.1214  -25.0859   20.4453 C   0  0  0  0  0  0
  -28.7498  -22.5276   20.6274 C   0  0  0  0  0  0
  -29.8074  -15.7004   20.8772 N   0  0  0  0  0  0
  -29.7021  -21.5061   20.0894 N   0  0  0  0  0  0
  -27.7618  -17.2984   21.8065 F   0  0  0  0  0  0
  -31.8089  -19.9306   19.1832 F   0  0  0  0  0  0
  -31.4818  -12.5315   19.1554 H   0  0  0  0  0  0
  -30.3813  -11.4079   19.9027 H   0  0  0  0  0  0
  -29.7774  -11.7538   17.4878 H   0  0  0  0  0  0
  -29.6499  -13.4758   17.7427 H   0  0  0  0  0  0
  -27.8722  -11.2918   18.8745 H   0  0  0  0  0  0
  -27.3779  -12.5702   17.7975 H   0  0  0  0  0  0
  -27.6699  -14.2525   19.5228 H   0  0  0  0  0  0
  -28.7133  -12.0558   21.3787 H   0  0  0  0  0  0
  -28.4398  -13.7079   21.8477 H   0  0  0  0  0  0
  -25.2762   -9.5679   22.4753 H   0  0  0  0  0  0
  -23.9999   -7.4632   22.7472 H   0  0  0  0  0  0
  -21.0838   -8.8769   19.8954 H   0  0  0  0  0  0
  -22.3693  -10.9668   19.6160 H   0  0  0  0  0  0
  -21.2005   -7.6148   23.9715 H   0  0  0  0  0  0
  -21.1481   -6.0523   25.9077 H   0  0  0  0  0  0
  -22.0599   -2.7609   23.2844 H   0  0  0  0  0  0
  -22.4109  -11.9880   22.4793 H   0  0  0  0  0  0
  -21.1112  -13.1249   22.2624 H   0  0  0  0  0  0
  -24.6661  -15.8454   20.5551 H   0  0  0  0  0  0
  -26.2926  -15.6412   20.1543 H   0  0  0  0  0  0
  -26.7178  -32.5447   23.1106 H   0  0  0  0  0  0
  -25.0063  -33.9723   25.0420 H   0  0  0  0  0  0
  -22.7156  -31.3034   21.3999 H   0  0  0  0  0  0
  -23.3755  -35.9619   23.3286 H   0  0  0  0  0  0
  -24.3588  -36.8926   22.2054 H   0  0  0  0  0  0
  -23.7236  -37.6488   23.6667 H   0  0  0  0  0  0
  -26.0941  -31.5500   20.6055 H   0  0  0  0  0  0
  -26.8427  -30.8389   22.0041 H   0  0  0  0  0  0
  -28.1161  -28.9760   21.2049 H   0  0  0  0  0  0
  -26.0108  -25.9312   18.9920 H   0  0  0  0  0  0
  -23.9800  -27.3074   19.0007 H   0  0  0  0  0  0
  -23.7587  -30.5925   19.4034 H   0  0  0  0  0  0
  -22.7578  -29.2457   19.8556 H   0  0  0  0  0  0
  -25.1294  -36.1928   25.0819 H   0  0  0  0  0  0
  -20.9982  -28.3262   24.1399 H   0  0  0  0  0  0
  -20.5687  -26.2302   23.3606 H   0  0  0  0  0  0
  -21.6645  -26.7449   22.1192 H   0  0  0  0  0  0
  -19.6914  -25.6296   21.1240 H   0  0  0  0  0  0
  -19.6681  -27.3201   20.6750 H   0  0  0  0  0  0
  -17.4199  -26.6666   21.4039 H   0  0  0  0  0  0
  -18.0341  -26.0075   22.9034 H   0  0  0  0  0  0
  -19.7940  -30.7278   24.2258 H   0  0  0  0  0  0
  -17.5019  -31.6270   24.5171 H   0  0  0  0  0  0
  -15.5355  -30.2996   23.7657 H   0  0  0  0  0  0
  -15.8670  -28.0833   22.7060 H   0  0  0  0  0  0
  -24.5857  -30.7150   25.7789 H   0  0  0  0  0  0
  -24.8984  -32.2925   26.4934 H   0  0  0  0  0  0
  -25.8048  -30.8862   27.0211 H   0  0  0  0  0  0
  -26.2876  -29.6760   24.1214 H   0  0  0  0  0  0
  -27.4010  -29.7251   25.4680 H   0  0  0  0  0  0
  -27.8753  -30.4270   23.9398 H   0  0  0  0  0  0
  -27.2703  -33.3629   26.2030 H   0  0  0  0  0  0
  -28.3891  -32.6817   25.0312 H   0  0  0  0  0  0
  -28.0710  -31.8438   26.5419 H   0  0  0  0  0  0
  -28.2588  -38.0103   24.7525 H   0  0  0  0  0  0
  -28.1084  -36.2636   24.6267 H   0  0  0  0  0  0
  -27.2304  -37.1419   25.8868 H   0  0  0  0  0  0
  -20.9366  -29.8770   21.6886 H   0  0  0  0  0  0
  -26.0167  -38.2849   24.1427 H   0  0  0  0  0  0
  -31.7357  -17.3660   19.6072 H   0  0  0  0  0  0
  -27.8410  -19.8749   21.3967 H   0  0  0  0  0  0
  -29.9568  -24.2656   19.8226 H   0  0  0  0  0  0
  -27.1487  -24.9167   20.8880 H   0  0  0  0  0  0
  -27.7346  -22.2621   20.3278 H   0  0  0  0  0  0
  -28.7707  -22.4570   21.7162 H   0  0  0  0  0  0
  -28.9307  -15.3901   21.2695 H   0  0  0  0  0  0
  -30.5224  -21.8583   19.6002 H   0  0  0  0  0  0
  1 25  1  0  0  0
  1 30  2  0  0  0
  1 80  1  0  0  0
  2  3  1  0  0  0
  2 25  1  0  0  0
  2 84  1  0  0  0
  2 85  1  0  0  0
  3  4  1  0  0  0
  3 86  1  0  0  0
  3 87  1  0  0  0
  4  5  1  0  0  0
  4 88  1  0  0  0
  4 89  1  0  0  0
  5  6  1  0  0  0
  5 26  1  0  0  0
  5 90  1  0  0  0
  6 25  1  0  0  0
  6 91  1  0  0  0
  6 92  1  0  0  0
  7  8  2  0  0  0
  7 26  1  0  0  0
  7 29  1  0  0  0
  8  9  1  0  0  0
  8 22  1  0  0  0
  9 10  1  0  0  0
  9 27  2  0  0  0
 10 11  2  0  0  0
 10 15  1  0  0  0
 11 12  1  0  0  0
 11 93  1  0  0  0
 12 13  2  0  0  0
 12 94  1  0  0  0
 13 14  1  0  0  0
 13 31  1  0  0  0
 14 15  2  0  0  0
 14 95  1  0  0  0
 15 96  1  0  0  0
 16 17  2  0  0  0
 16 21  1  0  0  0
 16 31  1  0  0  0
 17 18  1  0  0  0
 17 97  1  0  0  0
 18 19  2  0  0  0
 18 98  1  0  0  0
 19 20  1  0  0  0
 19 24  1  0  0  0
 20 21  2  0  0  0
 20 99  1  0  0  0
 21 23  1  0  0  0
 22 28  1  0  0  0
 22 32  2  0  0  0
 26 27  1  0  0  0
 28100  1  0  0  0
 28101  1  0  0  0
 29102  1  0  0  0
 29103  1  0  0  0
 33 34  1  0  0  0
 33 66  1  0  0  0
 33 70  2  0  0  0
 34 36  1  0  0  0
 34 59  1  0  0  0
 34104  1  0  0  0
 35 44  2  0  0  0
 35 45  1  0  0  0
 35 68  1  0  0  0
 36 56  1  0  0  0
 36105  1  0  0  0
 37 39  1  0  0  0
 37 47  1  0  0  0
 37 66  1  0  0  0
 37106  1  0  0  0
 38 43  2  0  0  0
 38 46  1  0  0  0
 38 47  1  0  0  0
 39 64  1  0  0  0
 39 67  2  0  0  0
 40 52  1  0  0  0
 40 53  2  0  0  0
 40 58  1  0  0  0
 41107  1  0  0  0
 41108  1  0  0  0
 41109  1  0  0  0
 41 48  1  0  0  0
 42 43  1  0  0  0
 42 66  1  0  0  0
 42110  1  0  0  0
 42111  1  0  0  0
 43 44  1  0  0  0
 44112  1  0  0  0
 45 46  2  0  0  0
 45113  1  0  0  0
 46114  1  0  0  0
 47115  1  0  0  0
 47116  1  0  0  0
 48 56  1  0  0  0
 48 65  1  0  0  0
 48117  1  0  0  0
 49 50  1  0  0  0
 49 53  1  0  0  0
 49 64  1  0  0  0
 49118  1  0  0  0
 50 51  1  0  0  0
 50119  1  0  0  0
 50120  1  0  0  0
 51 52  1  0  0  0
 51121  1  0  0  0
 51122  1  0  0  0
 52123  1  0  0  0
 52124  1  0  0  0
 53 54  1  0  0  0
 54 55  2  0  0  0
 54125  1  0  0  0
 55 57  1  0  0  0
 55126  1  0  0  0
 56 69  2  0  0  0
 57 58  2  0  0  0
 57127  1  0  0  0
 58128  1  0  0  0
 59 60  1  0  0  0
 59 61  1  0  0  0
 59 62  1  0  0  0
 60129  1  0  0  0
 60130  1  0  0  0
 60131  1  0  0  0
 61132  1  0  0  0
 61133  1  0  0  0
 61134  1  0  0  0
 62135  1  0  0  0
 62136  1  0  0  0
 62137  1  0  0  0
 63 65  1  0  0  0
 63138  1  0  0  0
 63139  1  0  0  0
 63140  1  0  0  0
 64141  1  0  0  0
 65142  1  0  0  0
 68 78  1  0  0  0
 71 73  2  0  0  0
 71 76  1  0  0  0
 71143  1  0  0  0
 72 74  1  0  0  0
 72 75  2  0  0  0
 72144  1  0  0  0
 73 75  1  0  0  0
 73 80  1  0  0  0
 74 76  2  0  0  0
 74 81  1  0  0  0
 75 82  1  0  0  0
 76 83  1  0  0  0
 77 78  2  0  0  0
 77 79  1  0  0  0
 77145  1  0  0  0
 78146  1  0  0  0
 79 81  1  0  0  0
 79147  1  0  0  0
 79148  1  0  0  0
 80149  1  0  0  0
 81150  1  0  0  0
M  ISO  4   1 100  68 101  78 101  80 100
M  END
> <chiral flag>
0

> <version>
0

> <s_m_source_file>
/data/baiqing/PycharmProjects/Reinvent-master-3.2/result/LINK_invent/BTK/process_docking_weight1_custom_product_contain_oxygen_bond_distance_aromatic_linkinvent_7_9_3/rearranged_h_0090.sdf

> <i_m_source_file_index>
87

> <r_mmod_Potential_Energy-OPLS-2005>
38.6636047363281

> <r_mmod_Stretch_Energy-OPLS-2005>
77.402961730957

> <r_mmod_Bend_Energy-OPLS-2005>
145.885559082031

> <r_mmod_Torsional_Energy-OPLS-2005>
203.549591064453

> <r_mmod_Improper_Torsional_Energy-OPLS-2005>
3.76606321334839

> <r_mmod_Van_der_Waal_Energy-OPLS-2005>
140.694869995117

> <r_mmod_Electrostatic_Energy-OPLS-2005>
-383.549713134766

> <r_mmod_Solvation_Energy-OPLS-2005>
-201.560791015625

> <b_mmod_Minimization_Converged-OPLS-2005>
0

> <r_mmod_RMS_Derivative-OPLS-2005>
0.518186151981354

$$$$
88
                    3D
 Structure written by MMmdl.
158167  0  0  1  0            999 V2000
  -30.6496  -14.7152   20.3557 C   0  0  0  0  0  0
  -30.4432  -12.4157   19.4401 C   0  0  0  0  0  0
  -29.4963  -12.4077   18.2216 C   0  0  0  0  0  0
  -28.0209  -12.2959   18.6567 C   0  0  0  0  0  0
  -27.6385  -13.2128   19.8526 C   0  0  2  0  0  0
  -28.7126  -13.1757   20.9606 C   0  0  0  0  0  0
  -25.2531  -13.8167   20.5781 C   0  0  0  0  0  0
  -24.1787  -13.0442   20.9252 C   0  0  0  0  0  0
  -24.6354  -11.6909   20.8805 C   0  0  0  0  0  0
  -23.9027  -10.4295   21.0419 C   0  0  0  0  0  0
  -24.3589   -9.4205   21.9183 C   0  0  0  0  0  0
  -23.6270   -8.2241   22.0740 C   0  0  0  0  0  0
  -22.4261   -8.0278   21.3519 C   0  0  0  0  0  0
  -21.9881   -9.0261   20.4641 C   0  0  0  0  0  0
  -22.7209  -10.2138   20.3050 C   0  0  0  0  0  0
  -21.6866   -6.0722   22.5251 C   0  0  0  0  0  0
  -21.4050   -6.5638   23.8179 C   0  0  0  0  0  0
  -21.3645   -5.6787   24.9136 C   0  0  0  0  0  0
  -21.6038   -4.3047   24.7199 C   0  0  0  0  0  0
  -21.8835   -3.8139   23.4322 C   0  0  0  0  0  0
  -21.9203   -4.6952   22.3376 C   0  0  0  0  0  0
  -22.7799  -13.5216   21.1869 C   0  0  0  0  0  0
  -22.1657   -4.2134   21.0949 F   0  0  0  0  0  0
  -21.5599   -3.4529   25.7708 F   0  0  0  0  0  0
  -29.9998  -13.5038   20.3337 N   0  0  0  0  0  0
  -26.2953  -12.9317   20.3445 N   0  0  0  0  0  0
  -25.9290  -11.6494   20.5900 N   0  0  0  0  0  0
  -22.0436  -12.8202   22.0408 N   0  0  0  0  0  0
  -25.4300  -15.1891   20.4145 N   0  0  0  0  0  0
  -31.8780  -14.7471   20.2545 O   0  0  0  0  0  0
  -21.6637   -6.8865   21.4211 O   0  0  0  0  0  0
  -22.3488  -14.5524   20.6716 O   0  0  0  0  0  0
  -24.6268  -31.8604   23.2039 C   0  0  0  0  0  0
  -25.9108  -32.4783   23.8361 C   0  0  1  0  0  0
  -27.2268  -27.3103   20.1191 C   0  0  0  0  0  0
  -25.5926  -33.8586   24.2280 N   0  0  0  0  0  0
  -23.4227  -30.4845   21.5465 C   0  0  2  0  0  0
  -24.8718  -28.9486   20.1105 C   0  0  0  0  0  0
  -22.7486  -29.4626   22.4934 C   0  0  0  0  0  0
  -18.0292  -28.1391   22.8500 C   0  0  0  0  0  0
  -24.1486  -36.7281   23.2635 C   0  0  0  0  0  0
  -25.9665  -30.7916   21.3779 C   0  0  0  0  0  0
  -26.0429  -29.4198   20.7176 C   0  0  0  0  0  0
  -27.2225  -28.6133   20.7150 C   0  0  0  0  0  0
  -26.0302  -26.9112   19.4709 C   0  0  0  0  0  0
  -24.8683  -27.6989   19.4807 C   0  0  0  0  0  0
  -23.6385  -29.8239   20.1612 C   0  0  0  0  0  0
  -25.4115  -36.3082   24.0323 C   0  0  1  0  0  0
  -20.5891  -28.3694   23.1291 C   0  0  2  0  0  0
  -20.6777  -26.9414   22.5415 C   0  0  0  0  0  0
  -19.5752  -26.6387   21.5218 C   0  0  0  0  0  0
  -18.1933  -26.7935   22.1632 C   0  0  0  0  0  0
  -19.1547  -28.8869   23.2887 C   0  0  0  0  0  0
  -18.9455  -30.1464   23.8905 C   0  0  0  0  0  0
  -17.6455  -30.6591   24.0566 C   0  0  0  0  0  0
  -25.9056  -34.9452   23.5101 C   0  0  0  0  0  0
  -16.5348  -29.9085   23.6328 C   0  0  0  0  0  0
  -16.7276  -28.6503   23.0357 C   0  0  0  0  0  0
  -26.4491  -31.6603   25.0732 C   0  0  0  0  0  0
  -25.3707  -31.3755   26.1439 C   0  0  0  0  0  0
  -27.0335  -30.3024   24.6204 C   0  0  0  0  0  0
  -27.6059  -32.4338   25.7490 C   0  0  0  0  0  0
  -27.5582  -37.1792   24.8468 C   0  0  0  0  0  0
  -21.4203  -29.3037   22.3684 N   0  0  0  0  0  0
  -26.4298  -37.3775   23.9411 N   0  0  0  0  0  0
  -24.6905  -31.0613   22.0992 N   0  0  0  0  0  0
  -23.4207  -28.8149   23.3002 O   0  0  0  0  0  0
  -28.3230  -26.4230   20.2009 O   0  0  0  0  0  0
  -26.5617  -34.8923   22.4661 O   0  0  0  0  0  0
  -23.5428  -32.1403   23.7352 O   0  0  0  0  0  0
  -28.7162  -19.3276   20.8281 C   0  0  0  0  0  0
  -28.7911  -17.9026   20.7278 C   0  0  0  0  0  0
  -30.2785  -23.8411   20.9082 C   0  0  0  0  0  0
  -31.0525  -19.4706   20.2922 C   0  0  0  0  0  0
  -28.7053  -22.4539   20.1732 C   0  0  0  0  0  0
  -28.9794  -23.8139   20.3222 C   0  0  0  0  0  0
  -29.8428  -20.1619   20.5892 C   0  0  0  0  0  0
  -29.9928  -17.2137   20.3917 C   0  0  0  0  0  0
  -31.1333  -18.0475   20.1817 C   0  0  0  0  0  0
  -30.7162  -22.5464   21.0630 C   0  0  0  0  0  0
  -29.6663  -15.8314   18.4663 C   0  0  0  0  0  0
  -28.0385  -24.9951   19.9037 C   0  0  0  0  0  0
  -29.7612  -21.6311   20.6134 N   0  0  0  0  0  0
  -32.3448  -17.4936   19.7656 N   0  0  0  0  0  0
  -29.9227  -15.8198   19.9200 N   0  0  0  0  0  0
  -31.9013  -22.1310   21.5864 O   0  0  0  0  0  0
  -31.4716  -12.5497   19.0979 H   0  0  0  0  0  0
  -30.4190  -11.4581   19.9629 H   0  0  0  0  0  0
  -29.7467  -11.5693   17.5700 H   0  0  0  0  0  0
  -29.6470  -13.2941   17.6112 H   0  0  0  0  0  0
  -27.8663  -11.2547   18.9428 H   0  0  0  0  0  0
  -27.3587  -12.4783   17.8098 H   0  0  0  0  0  0
  -27.5934  -14.2275   19.4790 H   0  0  0  0  0  0
  -28.7543  -12.1887   21.4239 H   0  0  0  0  0  0
  -28.4813  -13.8937   21.7496 H   0  0  0  0  0  0
  -25.2743   -9.5682   22.4747 H   0  0  0  0  0  0
  -23.9982   -7.4642   22.7466 H   0  0  0  0  0  0
  -21.0796   -8.8794   19.8968 H   0  0  0  0  0  0
  -22.3677  -10.9675   19.6151 H   0  0  0  0  0  0
  -21.2092   -7.6158   23.9668 H   0  0  0  0  0  0
  -21.1426   -6.0515   25.9024 H   0  0  0  0  0  0
  -22.0640   -2.7606   23.2815 H   0  0  0  0  0  0
  -22.4024  -11.9849   22.4799 H   0  0  0  0  0  0
  -21.1053  -13.1226   22.2611 H   0  0  0  0  0  0
  -24.6791  -15.8631   20.5171 H   0  0  0  0  0  0
  -26.2917  -15.6068   20.0923 H   0  0  0  0  0  0
  -26.7183  -32.5464   23.1121 H   0  0  0  0  0  0
  -25.0074  -33.9757   25.0425 H   0  0  0  0  0  0
  -22.7157  -31.3033   21.4028 H   0  0  0  0  0  0
  -23.3758  -35.9607   23.3307 H   0  0  0  0  0  0
  -24.3578  -36.8886   22.2050 H   0  0  0  0  0  0
  -23.7235  -37.6481   23.6654 H   0  0  0  0  0  0
  -26.1016  -31.5609   20.6154 H   0  0  0  0  0  0
  -26.8440  -30.8387   22.0105 H   0  0  0  0  0  0
  -28.1157  -28.9688   21.2109 H   0  0  0  0  0  0
  -25.9427  -25.9651   18.9586 H   0  0  0  0  0  0
  -23.9707  -27.3327   19.0018 H   0  0  0  0  0  0
  -23.7581  -30.6005   19.4046 H   0  0  0  0  0  0
  -22.7614  -29.2490   19.8579 H   0  0  0  0  0  0
  -25.1297  -36.1928   25.0817 H   0  0  0  0  0  0
  -20.9990  -28.3251   24.1408 H   0  0  0  0  0  0
  -20.5689  -26.2286   23.3608 H   0  0  0  0  0  0
  -21.6641  -26.7440   22.1195 H   0  0  0  0  0  0
  -19.6903  -25.6297   21.1249 H   0  0  0  0  0  0
  -19.6690  -27.3201   20.6756 H   0  0  0  0  0  0
  -17.4195  -26.6691   21.4035 H   0  0  0  0  0  0
  -18.0325  -26.0082   22.9040 H   0  0  0  0  0  0
  -19.7927  -30.7287   24.2265 H   0  0  0  0  0  0
  -17.5003  -31.6274   24.5163 H   0  0  0  0  0  0
  -15.5347  -30.2985   23.7660 H   0  0  0  0  0  0
  -15.8674  -28.0823   22.7065 H   0  0  0  0  0  0
  -24.5901  -30.7088   25.7757 H   0  0  0  0  0  0
  -24.8874  -32.2929   26.4815 H   0  0  0  0  0  0
  -25.8006  -30.8964   27.0241 H   0  0  0  0  0  0
  -26.2922  -29.6776   24.1206 H   0  0  0  0  0  0
  -27.3999  -29.7287   25.4727 H   0  0  0  0  0  0
  -27.8808  -30.4303   23.9461 H   0  0  0  0  0  0
  -27.2684  -33.3655   26.2043 H   0  0  0  0  0  0
  -28.3869  -32.6863   25.0306 H   0  0  0  0  0  0
  -28.0721  -31.8470   26.5415 H   0  0  0  0  0  0
  -28.2593  -38.0093   24.7517 H   0  0  0  0  0  0
  -28.1078  -36.2623   24.6289 H   0  0  0  0  0  0
  -27.2298  -37.1427   25.8869 H   0  0  0  0  0  0
  -20.9379  -29.8765   21.6905 H   0  0  0  0  0  0
  -26.0170  -38.2842   24.1432 H   0  0  0  0  0  0
  -27.7638  -19.7847   21.0598 H   0  0  0  0  0  0
  -27.8769  -17.3379   20.8379 H   0  0  0  0  0  0
  -30.8346  -24.7275   21.1821 H   0  0  0  0  0  0
  -31.9343  -20.0577   20.0865 H   0  0  0  0  0  0
  -27.8211  -21.9862   19.7595 H   0  0  0  0  0  0
  -29.4844  -16.8377   18.0834 H   0  0  0  0  0  0
  -28.7837  -15.2686   18.1867 H   0  0  0  0  0  0
  -30.5111  -15.4403   17.8957 H   0  0  0  0  0  0
  -27.0852  -24.7224   20.3573 H   0  0  0  0  0  0
  -27.9189  -24.9082   18.8238 H   0  0  0  0  0  0
  -32.4530  -16.4831   19.8852 H   0  0  0  0  0  0
  -33.2013  -18.0129   19.9237 H   0  0  0  0  0  0
  -32.3900  -22.9058   21.8472 H   0  0  0  0  0  0
  1 25  1  0  0  0
  1 30  2  0  0  0
  1 85  1  0  0  0
  2  3  1  0  0  0
  2 25  1  0  0  0
  2 87  1  0  0  0
  2 88  1  0  0  0
  3  4  1  0  0  0
  3 89  1  0  0  0
  3 90  1  0  0  0
  4  5  1  0  0  0
  4 91  1  0  0  0
  4 92  1  0  0  0
  5  6  1  0  0  0
  5 26  1  0  0  0
  5 93  1  0  0  0
  6 25  1  0  0  0
  6 94  1  0  0  0
  6 95  1  0  0  0
  7  8  2  0  0  0
  7 26  1  0  0  0
  7 29  1  0  0  0
  8  9  1  0  0  0
  8 22  1  0  0  0
  9 10  1  0  0  0
  9 27  2  0  0  0
 10 11  2  0  0  0
 10 15  1  0  0  0
 11 12  1  0  0  0
 11 96  1  0  0  0
 12 13  2  0  0  0
 12 97  1  0  0  0
 13 14  1  0  0  0
 13 31  1  0  0  0
 14 15  2  0  0  0
 14 98  1  0  0  0
 15 99  1  0  0  0
 16 17  2  0  0  0
 16 21  1  0  0  0
 16 31  1  0  0  0
 17 18  1  0  0  0
 17100  1  0  0  0
 18 19  2  0  0  0
 18101  1  0  0  0
 19 20  1  0  0  0
 19 24  1  0  0  0
 20 21  2  0  0  0
 20102  1  0  0  0
 21 23  1  0  0  0
 22 28  1  0  0  0
 22 32  2  0  0  0
 26 27  1  0  0  0
 28103  1  0  0  0
 28104  1  0  0  0
 29105  1  0  0  0
 29106  1  0  0  0
 33 34  1  0  0  0
 33 66  1  0  0  0
 33 70  2  0  0  0
 34 36  1  0  0  0
 34 59  1  0  0  0
 34107  1  0  0  0
 35 44  2  0  0  0
 35 45  1  0  0  0
 35 68  1  0  0  0
 36 56  1  0  0  0
 36108  1  0  0  0
 37 39  1  0  0  0
 37 47  1  0  0  0
 37 66  1  0  0  0
 37109  1  0  0  0
 38 43  2  0  0  0
 38 46  1  0  0  0
 38 47  1  0  0  0
 39 64  1  0  0  0
 39 67  2  0  0  0
 40 52  1  0  0  0
 40 53  2  0  0  0
 40 58  1  0  0  0
 41110  1  0  0  0
 41111  1  0  0  0
 41112  1  0  0  0
 41 48  1  0  0  0
 42 43  1  0  0  0
 42 66  1  0  0  0
 42113  1  0  0  0
 42114  1  0  0  0
 43 44  1  0  0  0
 44115  1  0  0  0
 45 46  2  0  0  0
 45116  1  0  0  0
 46117  1  0  0  0
 47118  1  0  0  0
 47119  1  0  0  0
 48 56  1  0  0  0
 48 65  1  0  0  0
 48120  1  0  0  0
 49 50  1  0  0  0
 49 53  1  0  0  0
 49 64  1  0  0  0
 49121  1  0  0  0
 50 51  1  0  0  0
 50122  1  0  0  0
 50123  1  0  0  0
 51 52  1  0  0  0
 51124  1  0  0  0
 51125  1  0  0  0
 52126  1  0  0  0
 52127  1  0  0  0
 53 54  1  0  0  0
 54 55  2  0  0  0
 54128  1  0  0  0
 55 57  1  0  0  0
 55129  1  0  0  0
 56 69  2  0  0  0
 57 58  2  0  0  0
 57130  1  0  0  0
 58131  1  0  0  0
 59 60  1  0  0  0
 59 61  1  0  0  0
 59 62  1  0  0  0
 60132  1  0  0  0
 60133  1  0  0  0
 60134  1  0  0  0
 61135  1  0  0  0
 61136  1  0  0  0
 61137  1  0  0  0
 62138  1  0  0  0
 62139  1  0  0  0
 62140  1  0  0  0
 63 65  1  0  0  0
 63141  1  0  0  0
 63142  1  0  0  0
 63143  1  0  0  0
 64144  1  0  0  0
 65145  1  0  0  0
 68 82  1  0  0  0
 71 72  2  0  0  0
 71 77  1  0  0  0
 71146  1  0  0  0
 72 78  1  0  0  0
 72147  1  0  0  0
 73 76  1  0  0  0
 73 80  2  0  0  0
 73148  1  0  0  0
 74 77  2  0  0  0
 74 79  1  0  0  0
 74149  1  0  0  0
 75 76  2  0  0  0
 75 83  1  0  0  0
 75150  1  0  0  0
 76 82  1  0  0  0
 77 83  1  0  0  0
 78 79  2  0  0  0
 78 85  1  0  0  0
 79 84  1  0  0  0
 80 83  1  0  0  0
 80 86  1  0  0  0
 81 85  1  0  0  0
 81151  1  0  0  0
 81152  1  0  0  0
 81153  1  0  0  0
 82154  1  0  0  0
 82155  1  0  0  0
 84156  1  0  0  0
 84157  1  0  0  0
 86158  1  0  0  0
M  ISO  4   1 100  68 101  82 101  85 100
M  END
> <chiral flag>
0

> <version>
0

> <s_m_source_file>
/data/baiqing/PycharmProjects/Reinvent-master-3.2/result/LINK_invent/BTK/process_docking_weight1_custom_product_contain_oxygen_bond_distance_aromatic_linkinvent_7_9_3/rearranged_h_0090.sdf

> <i_m_source_file_index>
88

> <r_mmod_Potential_Energy-OPLS-2005>
269.494812011719

> <r_mmod_Stretch_Energy-OPLS-2005>
88.306999206543

> <r_mmod_Bend_Energy-OPLS-2005>
156.626281738281

> <r_mmod_Torsional_Energy-OPLS-2005>
346.691772460938

> <r_mmod_Improper_Torsional_Energy-OPLS-2005>
29.131275177002

> <r_mmod_Van_der_Waal_Energy-OPLS-2005>
157.869812011719

> <r_mmod_Electrostatic_Energy-OPLS-2005>
-379.176666259766

> <r_mmod_Solvation_Energy-OPLS-2005>
-210.770263671875

> <b_mmod_Minimization_Converged-OPLS-2005>
0

> <r_mmod_RMS_Derivative-OPLS-2005>
2.77268052101135

$$$$
