0
                    3D
 Structure written by MMmdl.
163171  0  0  1  0            999 V2000
  -30.6847  -14.5424   20.5259 C   0  0  0  0  0  0
  -30.4197  -12.3371   19.4377 C   0  0  0  0  0  0
  -29.4967  -12.4902   18.2110 C   0  0  0  0  0  0
  -28.0180  -12.3505   18.6220 C   0  0  0  0  0  0
  -27.6519  -13.2158   19.8582 C   0  0  2  0  0  0
  -28.6946  -13.0520   20.9867 C   0  0  0  0  0  0
  -25.2567  -13.8181   20.5686 C   0  0  0  0  0  0
  -24.1835  -13.0443   20.9194 C   0  0  0  0  0  0
  -24.6399  -11.6914   20.8733 C   0  0  0  0  0  0
  -23.9076  -10.4292   21.0404 C   0  0  0  0  0  0
  -24.3624   -9.4206   21.9184 C   0  0  0  0  0  0
  -23.6295   -8.2243   22.0756 C   0  0  0  0  0  0
  -22.4275   -8.0284   21.3548 C   0  0  0  0  0  0
  -21.9913   -9.0261   20.4650 C   0  0  0  0  0  0
  -22.7249  -10.2137   20.3055 C   0  0  0  0  0  0
  -21.6852   -6.0742   22.5286 C   0  0  0  0  0  0
  -21.4012   -6.5643   23.8221 C   0  0  0  0  0  0
  -21.3656   -5.6794   24.9181 C   0  0  0  0  0  0
  -21.6042   -4.3056   24.7227 C   0  0  0  0  0  0
  -21.8821   -3.8152   23.4347 C   0  0  0  0  0  0
  -21.9191   -4.6971   22.3407 C   0  0  0  0  0  0
  -22.7854  -13.5233   21.1854 C   0  0  0  0  0  0
  -22.1662   -4.2158   21.0984 F   0  0  0  0  0  0
  -21.5622   -3.4541   25.7737 F   0  0  0  0  0  0
  -30.0169  -13.3573   20.4221 N   0  0  0  0  0  0
  -26.2981  -12.9362   20.3293 N   0  0  0  0  0  0
  -25.9323  -11.6512   20.5739 N   0  0  0  0  0  0
  -22.0489  -12.8231   22.0406 N   0  0  0  0  0  0
  -25.4285  -15.1906   20.4117 N   0  0  0  0  0  0
  -31.8437  -14.6643   20.1218 O   0  0  0  0  0  0
  -21.6636   -6.8886   21.4247 O   0  0  0  0  0  0
  -22.3539  -14.5535   20.6695 O   0  0  0  0  0  0
  -24.6174  -31.8643   23.2068 C   0  0  0  0  0  0
  -25.9051  -32.4800   23.8372 C   0  0  1  0  0  0
  -27.2329  -27.3928   20.1008 C   0  0  0  0  0  0
  -25.5906  -33.8604   24.2304 N   0  0  0  0  0  0
  -23.4065  -30.4871   21.5466 C   0  0  2  0  0  0
  -24.8526  -28.9467   20.1110 C   0  0  0  0  0  0
  -22.7423  -29.4626   22.4955 C   0  0  0  0  0  0
  -18.0269  -28.1373   22.8476 C   0  0  0  0  0  0
  -24.1485  -36.7309   23.2640 C   0  0  0  0  0  0
  -25.9380  -30.8171   21.3640 C   0  0  0  0  0  0
  -26.0135  -29.4470   20.7131 C   0  0  0  0  0  0
  -27.2003  -28.6756   20.7078 C   0  0  0  0  0  0
  -26.0497  -26.9153   19.4918 C   0  0  0  0  0  0
  -24.8679  -27.6815   19.5004 C   0  0  0  0  0  0
  -23.6168  -29.8189   20.1609 C   0  0  0  0  0  0
  -25.4103  -36.3104   24.0336 C   0  0  1  0  0  0
  -20.5861  -28.3656   23.1309 C   0  0  2  0  0  0
  -20.6760  -26.9385   22.5432 C   0  0  0  0  0  0
  -19.5744  -26.6382   21.5217 C   0  0  0  0  0  0
  -18.1918  -26.7914   22.1623 C   0  0  0  0  0  0
  -19.1523  -28.8826   23.2885 C   0  0  0  0  0  0
  -18.9454  -30.1427   23.8899 C   0  0  0  0  0  0
  -17.6461  -30.6575   24.0555 C   0  0  0  0  0  0
  -25.9037  -34.9470   23.5118 C   0  0  0  0  0  0
  -16.5347  -29.9079   23.6333 C   0  0  0  0  0  0
  -16.7263  -28.6502   23.0343 C   0  0  0  0  0  0
  -26.4468  -31.6587   25.0707 C   0  0  0  0  0  0
  -25.3742  -31.3700   26.1470 C   0  0  0  0  0  0
  -27.0297  -30.3031   24.6073 C   0  0  0  0  0  0
  -27.6031  -32.4315   25.7474 C   0  0  0  0  0  0
  -27.5571  -37.1802   24.8461 C   0  0  0  0  0  0
  -21.4138  -29.3027   22.3707 N   0  0  0  0  0  0
  -26.4282  -37.3791   23.9409 N   0  0  0  0  0  0
  -24.6721  -31.0716   22.0978 N   0  0  0  0  0  0
  -23.4185  -28.8160   23.3002 O   0  0  0  0  0  0
  -28.4106  -26.6620   20.1443 O   0  0  0  0  0  0
  -26.5606  -34.8927   22.4686 O   0  0  0  0  0  0
  -23.5364  -32.1415   23.7453 O   0  0  0  0  0  0
  -29.4100  -18.0771   20.7663 C   0  0  0  0  0  0
  -31.6743  -17.3736   21.3181 C   0  0  0  0  0  0
  -31.1315  -19.7504   21.1600 C   0  0  0  0  0  0
  -30.3473  -17.0156   20.9790 C   0  0  0  0  0  0
  -29.7848  -19.4608   20.8441 C   0  0  0  0  0  0
  -32.0600  -18.7226   21.4049 C   0  0  0  0  0  0
  -28.1438  -24.1696   20.4439 C   0  0  0  0  0  0
  -29.4937  -24.1552   23.2474 C   0  0  0  0  0  0
  -27.4383  -20.2697   20.7794 C   0  0  0  0  0  0
  -28.5348  -25.3564   19.5187 C   0  0  0  0  0  0
  -29.2598  -22.8941   22.3958 C   0  0  0  0  0  0
  -29.2934  -21.8141   20.0086 C   0  0  0  0  0  0
  -29.2400  -23.1398   20.8636 C   0  0  1  0  0  0
  -29.9438  -15.6240   20.8963 N   0  0  0  0  0  0
  -28.8671  -20.5393   20.6481 N   0  0  0  0  0  0
  -26.9795  -24.0392   20.8351 O   0  0  0  0  0  0
  -33.3365  -19.0336   21.7362 F   0  0  0  0  0  0
  -31.4649  -12.4292   19.1376 H   0  0  0  0  0  0
  -30.3215  -11.3396   19.8688 H   0  0  0  0  0  0
  -29.7449  -11.7409   17.4582 H   0  0  0  0  0  0
  -29.6606  -13.4616   17.7419 H   0  0  0  0  0  0
  -27.8375  -11.2976   18.8423 H   0  0  0  0  0  0
  -27.3692  -12.5976   17.7808 H   0  0  0  0  0  0
  -27.6770  -14.2543   19.5270 H   0  0  0  0  0  0
  -28.6843  -12.0311   21.3711 H   0  0  0  0  0  0
  -28.4567  -13.6937   21.8360 H   0  0  0  0  0  0
  -25.2771   -9.5673   22.4760 H   0  0  0  0  0  0
  -24.0007   -7.4624   22.7465 H   0  0  0  0  0  0
  -21.0850   -8.8780   19.8947 H   0  0  0  0  0  0
  -22.3716  -10.9675   19.6160 H   0  0  0  0  0  0
  -21.2010   -7.6150   23.9732 H   0  0  0  0  0  0
  -21.1471   -6.0520   25.9086 H   0  0  0  0  0  0
  -22.0602   -2.7614   23.2847 H   0  0  0  0  0  0
  -22.4096  -11.9899   22.4809 H   0  0  0  0  0  0
  -21.1096  -13.1255   22.2578 H   0  0  0  0  0  0
  -24.6620  -15.8448   20.5264 H   0  0  0  0  0  0
  -26.2748  -15.6283   20.0720 H   0  0  0  0  0  0
  -26.7107  -32.5489   23.1118 H   0  0  0  0  0  0
  -25.0067  -33.9751   25.0458 H   0  0  0  0  0  0
  -22.6977  -31.3052   21.4059 H   0  0  0  0  0  0
  -23.3742  -35.9647   23.3313 H   0  0  0  0  0  0
  -24.3586  -36.8924   22.2056 H   0  0  0  0  0  0
  -23.7245  -37.6516   23.6652 H   0  0  0  0  0  0
  -26.0539  -31.5781   20.5911 H   0  0  0  0  0  0
  -26.8253  -30.8738   21.9818 H   0  0  0  0  0  0
  -28.0951  -29.0544   21.1824 H   0  0  0  0  0  0
  -26.0092  -25.9444   19.0208 H   0  0  0  0  0  0
  -23.9733  -27.2876   19.0371 H   0  0  0  0  0  0
  -23.7294  -30.5947   19.4027 H   0  0  0  0  0  0
  -22.7383  -29.2433   19.8618 H   0  0  0  0  0  0
  -25.1281  -36.1962   25.0828 H   0  0  0  0  0  0
  -20.9953  -28.3234   24.1431 H   0  0  0  0  0  0
  -20.5671  -26.2244   23.3614 H   0  0  0  0  0  0
  -21.6628  -26.7433   22.1208 H   0  0  0  0  0  0
  -19.6909  -25.6305   21.1231 H   0  0  0  0  0  0
  -19.6699  -27.3199   20.6754 H   0  0  0  0  0  0
  -17.4197  -26.6665   21.4016 H   0  0  0  0  0  0
  -18.0296  -26.0053   22.9012 H   0  0  0  0  0  0
  -19.7938  -30.7230   24.2276 H   0  0  0  0  0  0
  -17.5030  -31.6262   24.5149 H   0  0  0  0  0  0
  -15.5344  -30.2991   23.7651 H   0  0  0  0  0  0
  -15.8660  -28.0834   22.7046 H   0  0  0  0  0  0
  -24.5912  -30.7035   25.7825 H   0  0  0  0  0  0
  -24.8937  -32.2860   26.4926 H   0  0  0  0  0  0
  -25.8128  -30.8880   27.0218 H   0  0  0  0  0  0
  -26.2837  -29.6799   24.1127 H   0  0  0  0  0  0
  -27.4057  -29.7244   25.4517 H   0  0  0  0  0  0
  -27.8669  -30.4345   23.9214 H   0  0  0  0  0  0
  -27.2627  -33.3597   26.2072 H   0  0  0  0  0  0
  -28.3828  -32.6910   25.0301 H   0  0  0  0  0  0
  -28.0700  -31.8431   26.5382 H   0  0  0  0  0  0
  -28.2578  -38.0105   24.7523 H   0  0  0  0  0  0
  -28.1080  -36.2645   24.6271 H   0  0  0  0  0  0
  -27.2302  -37.1433   25.8865 H   0  0  0  0  0  0
  -20.9289  -29.8794   21.6969 H   0  0  0  0  0  0
  -26.0175  -38.2861   24.1445 H   0  0  0  0  0  0
  -28.3904  -17.8176   20.5203 H   0  0  0  0  0  0
  -32.4218  -16.6234   21.5284 H   0  0  0  0  0  0
  -31.4727  -20.7707   21.2531 H   0  0  0  0  0  0
  -29.5627  -23.8979   24.3052 H   0  0  0  0  0  0
  -28.6838  -24.8791   23.1411 H   0  0  0  0  0  0
  -30.4251  -24.6487   22.9719 H   0  0  0  0  0  0
  -27.0335  -19.8620   19.8521 H   0  0  0  0  0  0
  -26.8925  -21.1863   21.0041 H   0  0  0  0  0  0
  -27.2338  -19.5662   21.5882 H   0  0  0  0  0  0
  -27.9731  -25.3054   18.5864 H   0  0  0  0  0  0
  -29.5794  -25.2330   19.2332 H   0  0  0  0  0  0
  -28.3311  -22.4159   22.7104 H   0  0  0  0  0  0
  -30.0528  -22.1846   22.6291 H   0  0  0  0  0  0
  -30.3031  -21.7025   19.6110 H   0  0  0  0  0  0
  -28.6782  -21.9507   19.1184 H   0  0  0  0  0  0
  -30.1751  -23.6532   20.6352 H   0  0  0  0  0  0
  -28.9665  -15.4296   21.0516 H   0  0  0  0  0  0
  1 25  1  0  0  0
  1 30  2  0  0  0
  1 84  1  0  0  0
  2  3  1  0  0  0
  2 25  1  0  0  0
  2 88  1  0  0  0
  2 89  1  0  0  0
  3  4  1  0  0  0
  3 90  1  0  0  0
  3 91  1  0  0  0
  4  5  1  0  0  0
  4 92  1  0  0  0
  4 93  1  0  0  0
  5  6  1  0  0  0
  5 26  1  0  0  0
  5 94  1  0  0  0
  6 25  1  0  0  0
  6 95  1  0  0  0
  6 96  1  0  0  0
  7  8  2  0  0  0
  7 26  1  0  0  0
  7 29  1  0  0  0
  8  9  1  0  0  0
  8 22  1  0  0  0
  9 10  1  0  0  0
  9 27  2  0  0  0
 10 11  2  0  0  0
 10 15  1  0  0  0
 11 12  1  0  0  0
 11 97  1  0  0  0
 12 13  2  0  0  0
 12 98  1  0  0  0
 13 14  1  0  0  0
 13 31  1  0  0  0
 14 15  2  0  0  0
 14 99  1  0  0  0
 15100  1  0  0  0
 16 17  2  0  0  0
 16 21  1  0  0  0
 16 31  1  0  0  0
 17 18  1  0  0  0
 17101  1  0  0  0
 18 19  2  0  0  0
 18102  1  0  0  0
 19 20  1  0  0  0
 19 24  1  0  0  0
 20 21  2  0  0  0
 20103  1  0  0  0
 21 23  1  0  0  0
 22 28  1  0  0  0
 22 32  2  0  0  0
 26 27  1  0  0  0
 28104  1  0  0  0
 28105  1  0  0  0
 29106  1  0  0  0
 29107  1  0  0  0
 33 34  1  0  0  0
 33 66  1  0  0  0
 33 70  2  0  0  0
 34 36  1  0  0  0
 34 59  1  0  0  0
 34108  1  0  0  0
 35 44  2  0  0  0
 35 45  1  0  0  0
 35 68  1  0  0  0
 36 56  1  0  0  0
 36109  1  0  0  0
 37 39  1  0  0  0
 37 47  1  0  0  0
 37 66  1  0  0  0
 37110  1  0  0  0
 38 43  2  0  0  0
 38 46  1  0  0  0
 38 47  1  0  0  0
 39 64  1  0  0  0
 39 67  2  0  0  0
 40 52  1  0  0  0
 40 53  2  0  0  0
 40 58  1  0  0  0
 41111  1  0  0  0
 41112  1  0  0  0
 41113  1  0  0  0
 41 48  1  0  0  0
 42 43  1  0  0  0
 42 66  1  0  0  0
 42114  1  0  0  0
 42115  1  0  0  0
 43 44  1  0  0  0
 44116  1  0  0  0
 45 46  2  0  0  0
 45117  1  0  0  0
 46118  1  0  0  0
 47119  1  0  0  0
 47120  1  0  0  0
 48 56  1  0  0  0
 48 65  1  0  0  0
 48121  1  0  0  0
 49 50  1  0  0  0
 49 53  1  0  0  0
 49 64  1  0  0  0
 49122  1  0  0  0
 50 51  1  0  0  0
 50123  1  0  0  0
 50124  1  0  0  0
 51 52  1  0  0  0
 51125  1  0  0  0
 51126  1  0  0  0
 52127  1  0  0  0
 52128  1  0  0  0
 53 54  1  0  0  0
 54 55  2  0  0  0
 54129  1  0  0  0
 55 57  1  0  0  0
 55130  1  0  0  0
 56 69  2  0  0  0
 57 58  2  0  0  0
 57131  1  0  0  0
 58132  1  0  0  0
 59 60  1  0  0  0
 59 61  1  0  0  0
 59 62  1  0  0  0
 60133  1  0  0  0
 60134  1  0  0  0
 60135  1  0  0  0
 61136  1  0  0  0
 61137  1  0  0  0
 61138  1  0  0  0
 62139  1  0  0  0
 62140  1  0  0  0
 62141  1  0  0  0
 63 65  1  0  0  0
 63142  1  0  0  0
 63143  1  0  0  0
 63144  1  0  0  0
 64145  1  0  0  0
 65146  1  0  0  0
 68 80  1  0  0  0
 71 74  2  0  0  0
 71 75  1  0  0  0
 71147  1  0  0  0
 72 74  1  0  0  0
 72 76  2  0  0  0
 72148  1  0  0  0
 73 75  2  0  0  0
 73 76  1  0  0  0
 73149  1  0  0  0
 74 84  1  0  0  0
 75 85  1  0  0  0
 76 87  1  0  0  0
 77 80  1  0  0  0
 77 83  1  0  0  0
 77 86  2  0  0  0
 78 81  1  0  0  0
 78150  1  0  0  0
 78151  1  0  0  0
 78152  1  0  0  0
 79 85  1  0  0  0
 79153  1  0  0  0
 79154  1  0  0  0
 79155  1  0  0  0
 80156  1  0  0  0
 80157  1  0  0  0
 81158  1  0  0  0
 81159  1  0  0  0
 81 83  1  0  0  0
 82 83  1  0  0  0
 82 85  1  0  0  0
 82160  1  0  0  0
 82161  1  0  0  0
 83162  1  0  0  0
 84163  1  0  0  0
M  ISO  4   1 100  68 101  80 101  84 100
M  END
> <chiral flag>
0

> <version>
0

> <s_m_source_file>
/data/baiqing/PycharmProjects/Reinvent-master-3.2/result/LINK_invent/BTK/process_docking_weight1_custom_product_contain_oxygen_bond_distance_aromatic_linkinvent_7_9_3/rearranged_h_0173.sdf

> <i_m_source_file_index>
1

> <r_mmod_Potential_Energy-OPLS-2005>
103.608512878418

> <r_mmod_Stretch_Energy-OPLS-2005>
56.8950538635254

> <r_mmod_Bend_Energy-OPLS-2005>
133.415969848633

> <r_mmod_Torsional_Energy-OPLS-2005>
222.119857788086

> <r_mmod_Improper_Torsional_Energy-OPLS-2005>
5.24379014968872

> <r_mmod_Van_der_Waal_Energy-OPLS-2005>
150.902786254883

> <r_mmod_Electrostatic_Energy-OPLS-2005>
-260.380218505859

> <r_mmod_Solvation_Energy-OPLS-2005>
-227.764785766602

> <b_mmod_Minimization_Converged-OPLS-2005>
0

> <r_mmod_RMS_Derivative-OPLS-2005>
1.77325057983398

$$$$
1
                    3D
 Structure written by MMmdl.
158166  0  0  1  0            999 V2000
  -30.6719  -14.5692   20.5002 C   0  0  0  0  0  0
  -30.4356  -12.3506   19.4450 C   0  0  0  0  0  0
  -29.5059  -12.5073   18.2225 C   0  0  0  0  0  0
  -28.0315  -12.3448   18.6387 C   0  0  0  0  0  0
  -27.6604  -13.2122   19.8701 C   0  0  2  0  0  0
  -28.7093  -13.0448   20.9955 C   0  0  0  0  0  0
  -25.2590  -13.8160   20.5731 C   0  0  0  0  0  0
  -24.1855  -13.0422   20.9229 C   0  0  0  0  0  0
  -24.6428  -11.6901   20.8781 C   0  0  0  0  0  0
  -23.9086  -10.4304   21.0409 C   0  0  0  0  0  0
  -24.3642   -9.4216   21.9160 C   0  0  0  0  0  0
  -23.6319   -8.2254   22.0724 C   0  0  0  0  0  0
  -22.4279   -8.0305   21.3545 C   0  0  0  0  0  0
  -21.9924   -9.0284   20.4643 C   0  0  0  0  0  0
  -22.7271  -10.2152   20.3048 C   0  0  0  0  0  0
  -21.6851   -6.0769   22.5318 C   0  0  0  0  0  0
  -21.4014   -6.5660   23.8263 C   0  0  0  0  0  0
  -21.3654   -5.6790   24.9208 C   0  0  0  0  0  0
  -21.6031   -4.3055   24.7230 C   0  0  0  0  0  0
  -21.8818   -3.8167   23.4346 C   0  0  0  0  0  0
  -21.9205   -4.7004   22.3422 C   0  0  0  0  0  0
  -22.7869  -13.5217   21.1856 C   0  0  0  0  0  0
  -22.1677   -4.2213   21.0997 F   0  0  0  0  0  0
  -21.5608   -3.4512   25.7718 F   0  0  0  0  0  0
  -30.0322  -13.3609   20.4381 N   0  0  0  0  0  0
  -26.3042  -12.9353   20.3379 N   0  0  0  0  0  0
  -25.9360  -11.6511   20.5802 N   0  0  0  0  0  0
  -22.0486  -12.8265   22.0445 N   0  0  0  0  0  0
  -25.4218  -15.1891   20.4149 N   0  0  0  0  0  0
  -31.8216  -14.7214   20.0851 O   0  0  0  0  0  0
  -21.6615   -6.8918   21.4280 O   0  0  0  0  0  0
  -22.3586  -14.5515   20.6667 O   0  0  0  0  0  0
  -24.6217  -31.8633   23.2047 C   0  0  0  0  0  0
  -25.9094  -32.4780   23.8373 C   0  0  1  0  0  0
  -27.2312  -27.3705   20.0810 C   0  0  0  0  0  0
  -25.5931  -33.8588   24.2270 N   0  0  0  0  0  0
  -23.4113  -30.4887   21.5450 C   0  0  2  0  0  0
  -24.8562  -28.9447   20.1082 C   0  0  0  0  0  0
  -22.7443  -29.4652   22.4931 C   0  0  0  0  0  0
  -18.0295  -28.1364   22.8499 C   0  0  0  0  0  0
  -24.1485  -36.7297   23.2636 C   0  0  0  0  0  0
  -25.9506  -30.8033   21.3739 C   0  0  0  0  0  0
  -26.0223  -29.4385   20.7051 C   0  0  0  0  0  0
  -27.2097  -28.6594   20.6837 C   0  0  0  0  0  0
  -26.0370  -26.9011   19.4892 C   0  0  0  0  0  0
  -24.8610  -27.6783   19.4986 C   0  0  0  0  0  0
  -23.6227  -29.8214   20.1607 C   0  0  0  0  0  0
  -25.4112  -36.3071   24.0316 C   0  0  1  0  0  0
  -20.5886  -28.3671   23.1277 C   0  0  2  0  0  0
  -20.6762  -26.9396   22.5395 C   0  0  0  0  0  0
  -19.5751  -26.6367   21.5190 C   0  0  0  0  0  0
  -18.1939  -26.7913   22.1620 C   0  0  0  0  0  0
  -19.1545  -28.8837   23.2890 C   0  0  0  0  0  0
  -18.9469  -30.1440   23.8910 C   0  0  0  0  0  0
  -17.6467  -30.6574   24.0571 C   0  0  0  0  0  0
  -25.9048  -34.9447   23.5083 C   0  0  0  0  0  0
  -16.5358  -29.9073   23.6321 C   0  0  0  0  0  0
  -16.7280  -28.6480   23.0356 C   0  0  0  0  0  0
  -26.4476  -31.6618   25.0768 C   0  0  0  0  0  0
  -25.3723  -31.3836   26.1521 C   0  0  0  0  0  0
  -27.0301  -30.3015   24.6280 C   0  0  0  0  0  0
  -27.6018  -32.4386   25.7546 C   0  0  0  0  0  0
  -27.5569  -37.1809   24.8456 C   0  0  0  0  0  0
  -21.4169  -29.3036   22.3673 N   0  0  0  0  0  0
  -26.4287  -37.3761   23.9393 N   0  0  0  0  0  0
  -24.6788  -31.0677   22.0977 N   0  0  0  0  0  0
  -23.4180  -28.8202   23.3006 O   0  0  0  0  0  0
  -28.3926  -26.6028   20.1227 O   0  0  0  0  0  0
  -26.5610  -34.8902   22.4647 O   0  0  0  0  0  0
  -23.5394  -32.1431   23.7397 O   0  0  0  0  0  0
  -30.0323  -18.1598   20.7023 C   0  0  0  0  0  0
  -29.2737  -16.7931   18.8284 C   0  0  0  0  0  0
  -29.7455  -19.3575   19.9649 C   0  0  0  0  0  0
  -29.7859  -16.8653   20.1445 C   0  0  0  0  0  0
  -29.0021  -17.9620   18.0946 C   0  0  0  0  0  0
  -29.2266  -19.2310   18.6550 C   0  0  0  0  0  0
  -30.0827  -20.7465   20.4813 C   0  0  0  0  0  0
  -29.4714  -23.5435   22.0762 C   0  0  0  0  0  0
  -28.2364  -24.0440   19.9153 C   0  0  0  0  0  0
  -30.7880  -24.1485   22.5521 C   0  0  0  0  0  0
  -28.5727  -25.4293   19.2712 C   0  0  0  0  0  0
  -29.3628  -23.1817   20.5889 C   0  0  2  0  0  0
  -29.9289  -15.6347   20.8909 N   0  0  0  0  0  0
  -29.1277  -21.7119   20.4630 N   0  0  0  0  0  0
  -31.2146  -20.9738   20.9095 O   0  0  0  0  0  0
  -28.5784  -23.3217   22.9001 O   0  0  0  0  0  0
  -27.0754  -23.6231   19.8387 O   0  0  0  0  0  0
  -28.5188  -17.8620   16.8325 F   0  0  0  0  0  0
  -28.9709  -20.3353   17.9104 F   0  0  0  0  0  0
  -31.4807  -12.4567   19.1450 H   0  0  0  0  0  0
  -30.3479  -11.3488   19.8722 H   0  0  0  0  0  0
  -29.7546  -11.7688   17.4589 H   0  0  0  0  0  0
  -29.6549  -13.4854   17.7610 H   0  0  0  0  0  0
  -27.8769  -11.2889   18.8720 H   0  0  0  0  0  0
  -27.3711  -12.5703   17.7999 H   0  0  0  0  0  0
  -27.6792  -14.2495   19.5371 H   0  0  0  0  0  0
  -28.7027  -12.0176   21.3599 H   0  0  0  0  0  0
  -28.4712  -13.6694   21.8560 H   0  0  0  0  0  0
  -25.2814   -9.5651   22.4702 H   0  0  0  0  0  0
  -24.0034   -7.4620   22.7420 H   0  0  0  0  0  0
  -21.0846   -8.8811   19.8955 H   0  0  0  0  0  0
  -22.3748  -10.9677   19.6138 H   0  0  0  0  0  0
  -21.1986   -7.6165   23.9798 H   0  0  0  0  0  0
  -21.1466   -6.0495   25.9114 H   0  0  0  0  0  0
  -22.0582   -2.7630   23.2824 H   0  0  0  0  0  0
  -22.4053  -11.9969   22.4959 H   0  0  0  0  0  0
  -21.1069  -13.1296   22.2492 H   0  0  0  0  0  0
  -24.6322  -15.8198   20.5001 H   0  0  0  0  0  0
  -26.2595  -15.6507   20.0869 H   0  0  0  0  0  0
  -26.7172  -32.5435   23.1130 H   0  0  0  0  0  0
  -25.0110  -33.9765   25.0428 H   0  0  0  0  0  0
  -22.7034  -31.3081   21.4014 H   0  0  0  0  0  0
  -23.3716  -35.9667   23.3343 H   0  0  0  0  0  0
  -24.3546  -36.8876   22.2039 H   0  0  0  0  0  0
  -23.7272  -37.6527   23.6635 H   0  0  0  0  0  0
  -26.0956  -31.5820   20.6232 H   0  0  0  0  0  0
  -26.8258  -30.8309   22.0124 H   0  0  0  0  0  0
  -28.1144  -29.0375   21.1390 H   0  0  0  0  0  0
  -25.9835  -25.9218   19.0371 H   0  0  0  0  0  0
  -23.9571  -27.2895   19.0492 H   0  0  0  0  0  0
  -23.7345  -30.5978   19.4024 H   0  0  0  0  0  0
  -22.7433  -29.2498   19.8577 H   0  0  0  0  0  0
  -25.1287  -36.1935   25.0808 H   0  0  0  0  0  0
  -20.9980  -28.3227   24.1396 H   0  0  0  0  0  0
  -20.5600  -26.2290   23.3585 H   0  0  0  0  0  0
  -21.6641  -26.7379   22.1231 H   0  0  0  0  0  0
  -19.6898  -25.6270   21.1235 H   0  0  0  0  0  0
  -19.6682  -27.3152   20.6702 H   0  0  0  0  0  0
  -17.4183  -26.6651   21.4044 H   0  0  0  0  0  0
  -18.0364  -26.0038   22.9005 H   0  0  0  0  0  0
  -19.7949  -30.7256   24.2263 H   0  0  0  0  0  0
  -17.5022  -31.6247   24.5191 H   0  0  0  0  0  0
  -15.5357  -30.2989   23.7626 H   0  0  0  0  0  0
  -15.8682  -28.0797   22.7069 H   0  0  0  0  0  0
  -24.5829  -30.7239   25.7889 H   0  0  0  0  0  0
  -24.9020  -32.3063   26.4952 H   0  0  0  0  0  0
  -25.8061  -30.9014   27.0295 H   0  0  0  0  0  0
  -26.2901  -29.6810   24.1206 H   0  0  0  0  0  0
  -27.3824  -29.7243   25.4841 H   0  0  0  0  0  0
  -27.8847  -30.4247   23.9622 H   0  0  0  0  0  0
  -27.2567  -33.3644   26.2174 H   0  0  0  0  0  0
  -28.3817  -32.7049   25.0397 H   0  0  0  0  0  0
  -28.0710  -31.8518   26.5456 H   0  0  0  0  0  0
  -28.2607  -38.0081   24.7433 H   0  0  0  0  0  0
  -28.1043  -36.2608   24.6359 H   0  0  0  0  0  0
  -27.2286  -37.1537   25.8859 H   0  0  0  0  0  0
  -20.9320  -29.8790   21.6937 H   0  0  0  0  0  0
  -26.0171  -38.2842   24.1375 H   0  0  0  0  0  0
  -30.4397  -18.2422   21.7010 H   0  0  0  0  0  0
  -29.0723  -15.8398   18.3606 H   0  0  0  0  0  0
  -31.1641  -23.5830   23.4036 H   0  0  0  0  0  0
  -30.6339  -25.1813   22.8604 H   0  0  0  0  0  0
  -31.5475  -24.1266   21.7695 H   0  0  0  0  0  0
  -28.0094  -25.5376   18.3427 H   0  0  0  0  0  0
  -29.6171  -25.3970   18.9665 H   0  0  0  0  0  0
  -30.3011  -23.4182   20.0858 H   0  0  0  0  0  0
  -29.0958  -15.3659   21.3910 H   0  0  0  0  0  0
  -28.2012  -21.4540   20.1552 H   0  0  0  0  0  0
  1 25  1  0  0  0
  1 30  2  0  0  0
  1 83  1  0  0  0
  2  3  1  0  0  0
  2 25  1  0  0  0
  2 90  1  0  0  0
  2 91  1  0  0  0
  3  4  1  0  0  0
  3 92  1  0  0  0
  3 93  1  0  0  0
  4  5  1  0  0  0
  4 94  1  0  0  0
  4 95  1  0  0  0
  5  6  1  0  0  0
  5 26  1  0  0  0
  5 96  1  0  0  0
  6 25  1  0  0  0
  6 97  1  0  0  0
  6 98  1  0  0  0
  7  8  2  0  0  0
  7 26  1  0  0  0
  7 29  1  0  0  0
  8  9  1  0  0  0
  8 22  1  0  0  0
  9 10  1  0  0  0
  9 27  2  0  0  0
 10 11  2  0  0  0
 10 15  1  0  0  0
 11 12  1  0  0  0
 11 99  1  0  0  0
 12 13  2  0  0  0
 12100  1  0  0  0
 13 14  1  0  0  0
 13 31  1  0  0  0
 14 15  2  0  0  0
 14101  1  0  0  0
 15102  1  0  0  0
 16 17  2  0  0  0
 16 21  1  0  0  0
 16 31  1  0  0  0
 17 18  1  0  0  0
 17103  1  0  0  0
 18 19  2  0  0  0
 18104  1  0  0  0
 19 20  1  0  0  0
 19 24  1  0  0  0
 20 21  2  0  0  0
 20105  1  0  0  0
 21 23  1  0  0  0
 22 28  1  0  0  0
 22 32  2  0  0  0
 26 27  1  0  0  0
 28106  1  0  0  0
 28107  1  0  0  0
 29108  1  0  0  0
 29109  1  0  0  0
 33 34  1  0  0  0
 33 66  1  0  0  0
 33 70  2  0  0  0
 34 36  1  0  0  0
 34 59  1  0  0  0
 34110  1  0  0  0
 35 44  2  0  0  0
 35 45  1  0  0  0
 35 68  1  0  0  0
 36 56  1  0  0  0
 36111  1  0  0  0
 37 39  1  0  0  0
 37 47  1  0  0  0
 37 66  1  0  0  0
 37112  1  0  0  0
 38 43  2  0  0  0
 38 46  1  0  0  0
 38 47  1  0  0  0
 39 64  1  0  0  0
 39 67  2  0  0  0
 40 52  1  0  0  0
 40 53  2  0  0  0
 40 58  1  0  0  0
 41113  1  0  0  0
 41114  1  0  0  0
 41115  1  0  0  0
 41 48  1  0  0  0
 42 43  1  0  0  0
 42 66  1  0  0  0
 42116  1  0  0  0
 42117  1  0  0  0
 43 44  1  0  0  0
 44118  1  0  0  0
 45 46  2  0  0  0
 45119  1  0  0  0
 46120  1  0  0  0
 47121  1  0  0  0
 47122  1  0  0  0
 48 56  1  0  0  0
 48 65  1  0  0  0
 48123  1  0  0  0
 49 50  1  0  0  0
 49 53  1  0  0  0
 49 64  1  0  0  0
 49124  1  0  0  0
 50 51  1  0  0  0
 50125  1  0  0  0
 50126  1  0  0  0
 51 52  1  0  0  0
 51127  1  0  0  0
 51128  1  0  0  0
 52129  1  0  0  0
 52130  1  0  0  0
 53 54  1  0  0  0
 54 55  2  0  0  0
 54131  1  0  0  0
 55 57  1  0  0  0
 55132  1  0  0  0
 56 69  2  0  0  0
 57 58  2  0  0  0
 57133  1  0  0  0
 58134  1  0  0  0
 59 60  1  0  0  0
 59 61  1  0  0  0
 59 62  1  0  0  0
 60135  1  0  0  0
 60136  1  0  0  0
 60137  1  0  0  0
 61138  1  0  0  0
 61139  1  0  0  0
 61140  1  0  0  0
 62141  1  0  0  0
 62142  1  0  0  0
 62143  1  0  0  0
 63 65  1  0  0  0
 63144  1  0  0  0
 63145  1  0  0  0
 63146  1  0  0  0
 64147  1  0  0  0
 65148  1  0  0  0
 68 81  1  0  0  0
 71 73  2  0  0  0
 71 74  1  0  0  0
 71149  1  0  0  0
 72 74  2  0  0  0
 72 75  1  0  0  0
 72150  1  0  0  0
 73 76  1  0  0  0
 73 77  1  0  0  0
 74 83  1  0  0  0
 75 76  2  0  0  0
 75 88  1  0  0  0
 76 89  1  0  0  0
 77 84  1  0  0  0
 77 85  2  0  0  0
 78 80  1  0  0  0
 78 82  1  0  0  0
 78 86  2  0  0  0
 79 81  1  0  0  0
 79 82  1  0  0  0
 79 87  2  0  0  0
 80151  1  0  0  0
 80152  1  0  0  0
 80153  1  0  0  0
 81154  1  0  0  0
 81155  1  0  0  0
 82 84  1  0  0  0
 82156  1  0  0  0
 83157  1  0  0  0
 84158  1  0  0  0
M  ISO  4   1 100  68 101  81 101  83 100
M  END
> <chiral flag>
0

> <version>
0

> <s_m_source_file>
/data/baiqing/PycharmProjects/Reinvent-master-3.2/result/LINK_invent/BTK/process_docking_weight1_custom_product_contain_oxygen_bond_distance_aromatic_linkinvent_7_9_3/rearranged_h_0173.sdf

> <i_m_source_file_index>
2

> <r_mmod_Potential_Energy-OPLS-2005>
-150.396743774414

> <r_mmod_Stretch_Energy-OPLS-2005>
56.714038848877

> <r_mmod_Bend_Energy-OPLS-2005>
116.638519287109

> <r_mmod_Torsional_Energy-OPLS-2005>
279.338714599609

> <r_mmod_Improper_Torsional_Energy-OPLS-2005>
7.97197866439819

> <r_mmod_Van_der_Waal_Energy-OPLS-2005>
135.082580566406

> <r_mmod_Electrostatic_Energy-OPLS-2005>
-524.1748046875

> <r_mmod_Solvation_Energy-OPLS-2005>
-250.526870727539

> <b_mmod_Minimization_Converged-OPLS-2005>
0

> <r_mmod_RMS_Derivative-OPLS-2005>
4.68601036071777

$$$$
2
                    3D
 Structure written by MMmdl.
162171  0  0  1  0            999 V2000
  -30.7709  -14.4579   20.6211 C   0  0  0  0  0  0
  -30.4016  -12.3071   19.4470 C   0  0  0  0  0  0
  -29.4929  -12.4972   18.2168 C   0  0  0  0  0  0
  -28.0167  -12.3361   18.6202 C   0  0  0  0  0  0
  -27.6531  -13.1980   19.8541 C   0  0  2  0  0  0
  -28.6889  -13.0252   20.9884 C   0  0  0  0  0  0
  -25.2564  -13.8133   20.5627 C   0  0  0  0  0  0
  -24.1826  -13.0425   20.9177 C   0  0  0  0  0  0
  -24.6375  -11.6891   20.8734 C   0  0  0  0  0  0
  -23.9044  -10.4284   21.0416 C   0  0  0  0  0  0
  -24.3601   -9.4200   21.9197 C   0  0  0  0  0  0
  -23.6281   -8.2233   22.0759 C   0  0  0  0  0  0
  -22.4269   -8.0270   21.3539 C   0  0  0  0  0  0
  -21.9899   -9.0243   20.4644 C   0  0  0  0  0  0
  -22.7221  -10.2125   20.3059 C   0  0  0  0  0  0
  -21.6848   -6.0731   22.5280 C   0  0  0  0  0  0
  -21.4011   -6.5639   23.8211 C   0  0  0  0  0  0
  -21.3656   -5.6791   24.9174 C   0  0  0  0  0  0
  -21.6039   -4.3053   24.7227 C   0  0  0  0  0  0
  -21.8822   -3.8146   23.4347 C   0  0  0  0  0  0
  -21.9190   -4.6960   22.3402 C   0  0  0  0  0  0
  -22.7855  -13.5230   21.1856 C   0  0  0  0  0  0
  -22.1662   -4.2147   21.0979 F   0  0  0  0  0  0
  -21.5627   -3.4535   25.7743 F   0  0  0  0  0  0
  -30.0268  -13.3203   20.4570 N   0  0  0  0  0  0
  -26.2972  -12.9284   20.3245 N   0  0  0  0  0  0
  -25.9287  -11.6458   20.5720 N   0  0  0  0  0  0
  -22.0496  -12.8217   22.0408 N   0  0  0  0  0  0
  -25.4274  -15.1848   20.3996 N   0  0  0  0  0  0
  -31.8560  -14.5344   20.0405 O   0  0  0  0  0  0
  -21.6630   -6.8871   21.4240 O   0  0  0  0  0  0
  -22.3540  -14.5544   20.6717 O   0  0  0  0  0  0
  -24.6130  -31.8700   23.2121 C   0  0  0  0  0  0
  -25.9041  -32.4827   23.8397 C   0  0  1  0  0  0
  -27.2283  -27.4459   20.0884 C   0  0  0  0  0  0
  -25.5906  -33.8621   24.2325 N   0  0  0  0  0  0
  -23.3980  -30.4960   21.5537 C   0  0  2  0  0  0
  -24.8414  -28.9668   20.1135 C   0  0  0  0  0  0
  -22.7397  -29.4671   22.5007 C   0  0  0  0  0  0
  -18.0268  -28.1367   22.8498 C   0  0  0  0  0  0
  -24.1487  -36.7315   23.2639 C   0  0  0  0  0  0
  -25.9261  -30.8397   21.3629 C   0  0  0  0  0  0
  -26.0029  -29.4766   20.7066 C   0  0  0  0  0  0
  -27.1988  -28.7242   20.6902 C   0  0  0  0  0  0
  -26.0456  -26.9529   19.4846 C   0  0  0  0  0  0
  -24.8577  -27.7039   19.5004 C   0  0  0  0  0  0
  -23.6036  -29.8321   20.1667 C   0  0  0  0  0  0
  -25.4107  -36.3106   24.0334 C   0  0  1  0  0  0
  -20.5858  -28.3651   23.1327 C   0  0  2  0  0  0
  -20.6757  -26.9391   22.5418 C   0  0  0  0  0  0
  -19.5737  -26.6385   21.5208 C   0  0  0  0  0  0
  -18.1912  -26.7916   22.1619 C   0  0  0  0  0  0
  -19.1518  -28.8823   23.2910 C   0  0  0  0  0  0
  -18.9450  -30.1432   23.8919 C   0  0  0  0  0  0
  -17.6452  -30.6579   24.0564 C   0  0  0  0  0  0
  -25.9037  -34.9474   23.5119 C   0  0  0  0  0  0
  -16.5344  -29.9084   23.6322 C   0  0  0  0  0  0
  -16.7259  -28.6497   23.0353 C   0  0  0  0  0  0
  -26.4476  -31.6601   25.0717 C   0  0  0  0  0  0
  -25.3751  -31.3701   26.1469 C   0  0  0  0  0  0
  -27.0308  -30.3047   24.6082 C   0  0  0  0  0  0
  -27.6040  -32.4323   25.7488 C   0  0  0  0  0  0
  -27.5577  -37.1814   24.8464 C   0  0  0  0  0  0
  -21.4126  -29.3031   22.3744 N   0  0  0  0  0  0
  -26.4293  -37.3791   23.9401 N   0  0  0  0  0  0
  -24.6639  -31.0819   22.1015 N   0  0  0  0  0  0
  -23.4182  -28.8202   23.3029 O   0  0  0  0  0  0
  -28.3994  -26.7175   20.1112 O   0  0  0  0  0  0
  -26.5603  -34.8926   22.4684 O   0  0  0  0  0  0
  -23.5332  -32.1442   23.7541 O   0  0  0  0  0  0
  -29.5675  -20.1302   21.4507 C   0  0  0  0  0  0
  -31.9475  -20.5920   21.6162 C   0  0  0  0  0  0
  -29.8331  -18.7392   21.4665 C   0  0  0  0  0  0
  -31.1650  -18.2719   21.5340 C   0  0  0  0  0  0
  -30.6262  -21.0663   21.5179 C   0  0  0  0  0  0
  -32.2211  -19.2116   21.6177 C   0  0  0  0  0  0
  -29.4610  -24.5468   20.5515 C   0  0  0  0  0  0
  -28.6837  -17.7518   21.4223 C   0  0  0  0  0  0
  -31.5016  -16.7828   21.4398 C   0  0  0  0  0  0
  -29.0716  -16.3895   20.8236 C   0  0  0  0  0  0
  -30.3265  -15.7287   21.4535 C   0  0  1  0  0  0
  -30.0853  -15.3618   22.9425 C   0  0  0  0  0  0
  -29.2979  -23.0310   20.7704 C   0  0  0  0  0  0
  -28.2593  -25.2965   19.9645 C   0  0  0  0  0  0
  -30.4228  -22.4551   21.5090 N   0  0  0  0  0  0
  -30.5206  -25.1224   20.8335 O   0  0  0  0  0  0
  -33.8713  -18.6994   21.7004 Cl  0  0  0  0  0  0
  -31.4493  -12.3546   19.1482 H   0  0  0  0  0  0
  -30.2731  -11.3062   19.8616 H   0  0  0  0  0  0
  -29.7498  -11.7714   17.4437 H   0  0  0  0  0  0
  -29.6571  -13.4844   17.7819 H   0  0  0  0  0  0
  -27.8456  -11.2818   18.8415 H   0  0  0  0  0  0
  -27.3648  -12.5800   17.7806 H   0  0  0  0  0  0
  -27.6804  -14.2276   19.5041 H   0  0  0  0  0  0
  -28.6662  -12.0027   21.3677 H   0  0  0  0  0  0
  -28.4146  -13.6440   21.8329 H   0  0  0  0  0  0
  -25.2746   -9.5677   22.4772 H   0  0  0  0  0  0
  -23.9989   -7.4625   22.7479 H   0  0  0  0  0  0
  -21.0835   -8.8755   19.8948 H   0  0  0  0  0  0
  -22.3683  -10.9662   19.6165 H   0  0  0  0  0  0
  -21.2007   -7.6149   23.9715 H   0  0  0  0  0  0
  -21.1475   -6.0523   25.9077 H   0  0  0  0  0  0
  -22.0604   -2.7608   23.2850 H   0  0  0  0  0  0
  -22.4089  -11.9853   22.4767 H   0  0  0  0  0  0
  -21.1122  -13.1248   22.2632 H   0  0  0  0  0  0
  -24.6578  -15.8377   20.5010 H   0  0  0  0  0  0
  -26.2723  -15.6204   20.0544 H   0  0  0  0  0  0
  -26.7110  -32.5542   23.1159 H   0  0  0  0  0  0
  -25.0053  -33.9783   25.0467 H   0  0  0  0  0  0
  -22.6847  -31.3118   21.4179 H   0  0  0  0  0  0
  -23.3745  -35.9654   23.3305 H   0  0  0  0  0  0
  -24.3581  -36.8932   22.2054 H   0  0  0  0  0  0
  -23.7242  -37.6520   23.6658 H   0  0  0  0  0  0
  -26.0360  -31.6087   20.5972 H   0  0  0  0  0  0
  -26.8147  -30.8905   21.9801 H   0  0  0  0  0  0
  -28.0951  -29.1148   21.1527 H   0  0  0  0  0  0
  -26.0183  -25.9929   18.9911 H   0  0  0  0  0  0
  -23.9650  -27.3068   19.0364 H   0  0  0  0  0  0
  -23.7076  -30.6085   19.4075 H   0  0  0  0  0  0
  -22.7276  -29.2514   19.8735 H   0  0  0  0  0  0
  -25.1281  -36.1973   25.0829 H   0  0  0  0  0  0
  -20.9943  -28.3214   24.1452 H   0  0  0  0  0  0
  -20.5658  -26.2259   23.3604 H   0  0  0  0  0  0
  -21.6628  -26.7441   22.1211 H   0  0  0  0  0  0
  -19.6903  -25.6304   21.1219 H   0  0  0  0  0  0
  -19.6674  -27.3215   20.6752 H   0  0  0  0  0  0
  -17.4185  -26.6683   21.4018 H   0  0  0  0  0  0
  -18.0301  -26.0041   22.8997 H   0  0  0  0  0  0
  -19.7932  -30.7230   24.2312 H   0  0  0  0  0  0
  -17.5016  -31.6265   24.5161 H   0  0  0  0  0  0
  -15.5350  -30.2993   23.7634 H   0  0  0  0  0  0
  -15.8658  -28.0822   22.7063 H   0  0  0  0  0  0
  -24.5917  -30.7055   25.7799 H   0  0  0  0  0  0
  -24.8959  -32.2864   26.4929 H   0  0  0  0  0  0
  -25.8111  -30.8854   27.0215 H   0  0  0  0  0  0
  -26.2847  -29.6805   24.1150 H   0  0  0  0  0  0
  -27.4099  -29.7279   25.4528 H   0  0  0  0  0  0
  -27.8670  -30.4357   23.9208 H   0  0  0  0  0  0
  -27.2646  -33.3615   26.2074 H   0  0  0  0  0  0
  -28.3858  -32.6900   25.0330 H   0  0  0  0  0  0
  -28.0699  -31.8448   26.5408 H   0  0  0  0  0  0
  -28.2596  -38.0109   24.7501 H   0  0  0  0  0  0
  -28.1068  -36.2638   24.6298 H   0  0  0  0  0  0
  -27.2293  -37.1475   25.8868 H   0  0  0  0  0  0
  -20.9275  -29.8770   21.6991 H   0  0  0  0  0  0
  -26.0182  -38.2870   24.1404 H   0  0  0  0  0  0
  -28.5425  -20.4699   21.3972 H   0  0  0  0  0  0
  -32.7733  -21.2862   21.6751 H   0  0  0  0  0  0
  -27.8584  -18.1772   20.8496 H   0  0  0  0  0  0
  -28.3109  -17.6181   22.4386 H   0  0  0  0  0  0
  -32.2358  -16.5255   22.2045 H   0  0  0  0  0  0
  -32.0485  -16.7692   20.4975 H   0  0  0  0  0  0
  -29.2329  -16.5137   19.7515 H   0  0  0  0  0  0
  -28.2060  -15.7457   20.9347 H   0  0  0  0  0  0
  -30.3395  -16.1918   23.6026 H   0  0  0  0  0  0
  -30.6893  -14.5103   23.2587 H   0  0  0  0  0  0
  -29.0438  -15.1355   23.1627 H   0  0  0  0  0  0
  -29.2019  -22.5474   19.7968 H   0  0  0  0  0  0
  -28.3683  -22.8555   21.3124 H   0  0  0  0  0  0
  -27.3707  -24.9420   20.4882 H   0  0  0  0  0  0
  -28.1557  -25.0397   18.9103 H   0  0  0  0  0  0
  -31.2481  -23.0520   21.4936 H   0  0  0  0  0  0
  1 25  1  0  0  0
  1 30  2  0  0  0
  1 81  1  0  0  0
  2  3  1  0  0  0
  2 25  1  0  0  0
  2 88  1  0  0  0
  2 89  1  0  0  0
  3  4  1  0  0  0
  3 90  1  0  0  0
  3 91  1  0  0  0
  4  5  1  0  0  0
  4 92  1  0  0  0
  4 93  1  0  0  0
  5  6  1  0  0  0
  5 26  1  0  0  0
  5 94  1  0  0  0
  6 25  1  0  0  0
  6 95  1  0  0  0
  6 96  1  0  0  0
  7  8  2  0  0  0
  7 26  1  0  0  0
  7 29  1  0  0  0
  8  9  1  0  0  0
  8 22  1  0  0  0
  9 10  1  0  0  0
  9 27  2  0  0  0
 10 11  2  0  0  0
 10 15  1  0  0  0
 11 12  1  0  0  0
 11 97  1  0  0  0
 12 13  2  0  0  0
 12 98  1  0  0  0
 13 14  1  0  0  0
 13 31  1  0  0  0
 14 15  2  0  0  0
 14 99  1  0  0  0
 15100  1  0  0  0
 16 17  2  0  0  0
 16 21  1  0  0  0
 16 31  1  0  0  0
 17 18  1  0  0  0
 17101  1  0  0  0
 18 19  2  0  0  0
 18102  1  0  0  0
 19 20  1  0  0  0
 19 24  1  0  0  0
 20 21  2  0  0  0
 20103  1  0  0  0
 21 23  1  0  0  0
 22 28  1  0  0  0
 22 32  2  0  0  0
 26 27  1  0  0  0
 28104  1  0  0  0
 28105  1  0  0  0
 29106  1  0  0  0
 29107  1  0  0  0
 33 34  1  0  0  0
 33 66  1  0  0  0
 33 70  2  0  0  0
 34 36  1  0  0  0
 34 59  1  0  0  0
 34108  1  0  0  0
 35 44  2  0  0  0
 35 45  1  0  0  0
 35 68  1  0  0  0
 36 56  1  0  0  0
 36109  1  0  0  0
 37 39  1  0  0  0
 37 47  1  0  0  0
 37 66  1  0  0  0
 37110  1  0  0  0
 38 43  2  0  0  0
 38 46  1  0  0  0
 38 47  1  0  0  0
 39 64  1  0  0  0
 39 67  2  0  0  0
 40 52  1  0  0  0
 40 53  2  0  0  0
 40 58  1  0  0  0
 41111  1  0  0  0
 41112  1  0  0  0
 41113  1  0  0  0
 41 48  1  0  0  0
 42 43  1  0  0  0
 42 66  1  0  0  0
 42114  1  0  0  0
 42115  1  0  0  0
 43 44  1  0  0  0
 44116  1  0  0  0
 45 46  2  0  0  0
 45117  1  0  0  0
 46118  1  0  0  0
 47119  1  0  0  0
 47120  1  0  0  0
 48 56  1  0  0  0
 48 65  1  0  0  0
 48121  1  0  0  0
 49 50  1  0  0  0
 49 53  1  0  0  0
 49 64  1  0  0  0
 49122  1  0  0  0
 50 51  1  0  0  0
 50123  1  0  0  0
 50124  1  0  0  0
 51 52  1  0  0  0
 51125  1  0  0  0
 51126  1  0  0  0
 52127  1  0  0  0
 52128  1  0  0  0
 53 54  1  0  0  0
 54 55  2  0  0  0
 54129  1  0  0  0
 55 57  1  0  0  0
 55130  1  0  0  0
 56 69  2  0  0  0
 57 58  2  0  0  0
 57131  1  0  0  0
 58132  1  0  0  0
 59 60  1  0  0  0
 59 61  1  0  0  0
 59 62  1  0  0  0
 60133  1  0  0  0
 60134  1  0  0  0
 60135  1  0  0  0
 61136  1  0  0  0
 61137  1  0  0  0
 61138  1  0  0  0
 62139  1  0  0  0
 62140  1  0  0  0
 62141  1  0  0  0
 63 65  1  0  0  0
 63142  1  0  0  0
 63143  1  0  0  0
 63144  1  0  0  0
 64145  1  0  0  0
 65146  1  0  0  0
 68 84  1  0  0  0
 71 73  2  0  0  0
 71 75  1  0  0  0
 71147  1  0  0  0
 72 75  2  0  0  0
 72 76  1  0  0  0
 72148  1  0  0  0
 73 74  1  0  0  0
 73 78  1  0  0  0
 74 76  2  0  0  0
 74 79  1  0  0  0
 75 85  1  0  0  0
 76 87  1  0  0  0
 77 83  1  0  0  0
 77 84  1  0  0  0
 77 86  2  0  0  0
 78 80  1  0  0  0
 78149  1  0  0  0
 78150  1  0  0  0
 79 81  1  0  0  0
 79151  1  0  0  0
 79152  1  0  0  0
 80 81  1  0  0  0
 80153  1  0  0  0
 80154  1  0  0  0
 81 82  1  0  0  0
 82155  1  0  0  0
 82156  1  0  0  0
 82157  1  0  0  0
 83 85  1  0  0  0
 83158  1  0  0  0
 83159  1  0  0  0
 84160  1  0  0  0
 84161  1  0  0  0
 85162  1  0  0  0
M  ISO  4   1 100  68 101  81 100  84 101
M  END
> <chiral flag>
0

> <version>
0

> <s_m_source_file>
/data/baiqing/PycharmProjects/Reinvent-master-3.2/result/LINK_invent/BTK/process_docking_weight1_custom_product_contain_oxygen_bond_distance_aromatic_linkinvent_7_9_3/rearranged_h_0173.sdf

> <i_m_source_file_index>
3

> <r_mmod_Potential_Energy-OPLS-2005>
70.9961318969727

> <r_mmod_Stretch_Energy-OPLS-2005>
44.424243927002

> <r_mmod_Bend_Energy-OPLS-2005>
119.102760314941

> <r_mmod_Torsional_Energy-OPLS-2005>
194.518707275391

> <r_mmod_Improper_Torsional_Energy-OPLS-2005>
4.9878191947937

> <r_mmod_Van_der_Waal_Energy-OPLS-2005>
175.37907409668

> <r_mmod_Electrostatic_Energy-OPLS-2005>
-260.188232421875

> <r_mmod_Solvation_Energy-OPLS-2005>
-222.150573730469

> <b_mmod_Minimization_Converged-OPLS-2005>
0

> <r_mmod_RMS_Derivative-OPLS-2005>
1.01517164707184

$$$$
3
                    3D
 Structure written by MMmdl.
162170  0  0  1  0            999 V2000
  -30.7300  -14.4860   20.5849 C   0  0  0  0  0  0
  -30.4132  -12.3192   19.4357 C   0  0  0  0  0  0
  -29.4921  -12.5045   18.2136 C   0  0  0  0  0  0
  -28.0153  -12.3625   18.6263 C   0  0  0  0  0  0
  -27.6581  -13.2153   19.8734 C   0  0  2  0  0  0
  -28.6997  -13.0294   21.0008 C   0  0  0  0  0  0
  -25.2566  -13.8182   20.5688 C   0  0  0  0  0  0
  -24.1825  -13.0447   20.9172 C   0  0  0  0  0  0
  -24.6392  -11.6916   20.8735 C   0  0  0  0  0  0
  -23.9065  -10.4298   21.0402 C   0  0  0  0  0  0
  -24.3616   -9.4212   21.9182 C   0  0  0  0  0  0
  -23.6292   -8.2247   22.0755 C   0  0  0  0  0  0
  -22.4275   -8.0282   21.3545 C   0  0  0  0  0  0
  -21.9910   -9.0256   20.4647 C   0  0  0  0  0  0
  -22.7238  -10.2135   20.3054 C   0  0  0  0  0  0
  -21.6855   -6.0737   22.5279 C   0  0  0  0  0  0
  -21.4014   -6.5639   23.8213 C   0  0  0  0  0  0
  -21.3659   -5.6792   24.9174 C   0  0  0  0  0  0
  -21.6045   -4.3056   24.7224 C   0  0  0  0  0  0
  -21.8819   -3.8148   23.4346 C   0  0  0  0  0  0
  -21.9192   -4.6965   22.3404 C   0  0  0  0  0  0
  -22.7845  -13.5236   21.1838 C   0  0  0  0  0  0
  -22.1660   -4.2151   21.0982 F   0  0  0  0  0  0
  -21.5629   -3.4542   25.7736 F   0  0  0  0  0  0
  -30.0293  -13.3242   20.4442 N   0  0  0  0  0  0
  -26.3009  -12.9367   20.3374 N   0  0  0  0  0  0
  -25.9325  -11.6519   20.5781 N   0  0  0  0  0  0
  -22.0493  -12.8228   22.0398 N   0  0  0  0  0  0
  -25.4280  -15.1902   20.4112 N   0  0  0  0  0  0
  -31.8412  -14.6278   20.0695 O   0  0  0  0  0  0
  -21.6639   -6.8879   21.4240 O   0  0  0  0  0  0
  -22.3526  -14.5543   20.6692 O   0  0  0  0  0  0
  -24.6167  -31.8682   23.2139 C   0  0  0  0  0  0
  -25.9063  -32.4824   23.8423 C   0  0  1  0  0  0
  -27.2121  -27.3940   20.1178 C   0  0  0  0  0  0
  -25.5921  -33.8624   24.2349 N   0  0  0  0  0  0
  -23.4065  -30.4943   21.5530 C   0  0  2  0  0  0
  -24.8535  -28.9625   20.1161 C   0  0  0  0  0  0
  -22.7429  -29.4659   22.4980 C   0  0  0  0  0  0
  -18.0281  -28.1380   22.8486 C   0  0  0  0  0  0
  -24.1489  -36.7311   23.2638 C   0  0  0  0  0  0
  -25.9406  -30.8142   21.3845 C   0  0  0  0  0  0
  -26.0121  -29.4431   20.7418 C   0  0  0  0  0  0
  -27.1936  -28.6577   20.7598 C   0  0  0  0  0  0
  -26.0666  -26.9878   19.4089 C   0  0  0  0  0  0
  -24.8760  -27.7309   19.4461 C   0  0  0  0  0  0
  -23.6195  -29.8340   20.1656 C   0  0  0  0  0  0
  -25.4108  -36.3113   24.0346 C   0  0  1  0  0  0
  -20.5874  -28.3671   23.1310 C   0  0  2  0  0  0
  -20.6773  -26.9404   22.5414 C   0  0  0  0  0  0
  -19.5749  -26.6380   21.5216 C   0  0  0  0  0  0
  -18.1926  -26.7924   22.1622 C   0  0  0  0  0  0
  -19.1531  -28.8842   23.2895 C   0  0  0  0  0  0
  -18.9457  -30.1443   23.8908 C   0  0  0  0  0  0
  -17.6461  -30.6582   24.0564 C   0  0  0  0  0  0
  -25.9042  -34.9475   23.5140 C   0  0  0  0  0  0
  -16.5351  -29.9084   23.6329 C   0  0  0  0  0  0
  -16.7270  -28.6506   23.0340 C   0  0  0  0  0  0
  -26.4482  -31.6597   25.0750 C   0  0  0  0  0  0
  -25.3746  -31.3711   26.1492 C   0  0  0  0  0  0
  -27.0303  -30.3029   24.6145 C   0  0  0  0  0  0
  -27.6060  -32.4312   25.7508 C   0  0  0  0  0  0
  -27.5583  -37.1809   24.8469 C   0  0  0  0  0  0
  -21.4155  -29.3038   22.3715 N   0  0  0  0  0  0
  -26.4298  -37.3793   23.9411 N   0  0  0  0  0  0
  -24.6720  -31.0748   22.1074 N   0  0  0  0  0  0
  -23.4188  -28.8194   23.3027 O   0  0  0  0  0  0
  -28.3313  -26.5879   20.0614 O   0  0  0  0  0  0
  -26.5583  -34.8923   22.4689 O   0  0  0  0  0  0
  -23.5352  -32.1460   23.7503 O   0  0  0  0  0  0
  -32.3960  -18.4673   21.7882 C   0  0  0  0  0  0
  -31.4658  -19.5058   21.9591 C   0  0  0  0  0  0
  -31.9603  -17.1547   21.5363 C   0  0  0  0  0  0
  -30.0810  -19.2525   21.8633 C   0  0  0  0  0  0
  -30.5799  -16.8555   21.4238 C   0  0  0  0  0  0
  -29.6488  -17.9196   21.5959 C   0  0  0  0  0  0
  -26.8721  -23.8293   19.9092 C   0  0  0  0  0  0
  -26.3021  -24.8779   22.1179 C   0  0  0  0  0  0
  -29.0725  -20.3792   22.1718 C   0  0  0  0  0  0
  -28.5120  -25.5226   21.0386 C   0  0  0  0  0  0
  -28.0481  -23.1275   22.0391 C   0  0  0  0  0  0
  -27.4632  -24.3530   21.2368 C   0  0  0  0  0  0
  -30.0985  -15.5136   21.2012 N   0  0  0  0  0  0
  -28.9908  -21.7639   19.8355 O   0  0  0  0  0  0
  -30.6414  -22.5478   21.5710 O   0  0  0  0  0  0
  -28.3232  -17.6453   21.5300 F   0  0  0  0  0  0
  -29.3140  -21.9948   21.2531 S   0  0  0  0  0  0
  -31.4593  -12.3979   19.1348 H   0  0  0  0  0  0
  -30.3028  -11.3155   19.8492 H   0  0  0  0  0  0
  -29.7358  -11.7720   17.4429 H   0  0  0  0  0  0
  -29.6583  -13.4863   17.7675 H   0  0  0  0  0  0
  -27.8316  -11.3078   18.8345 H   0  0  0  0  0  0
  -27.3637  -12.6238   17.7917 H   0  0  0  0  0  0
  -27.6936  -14.2588   19.5596 H   0  0  0  0  0  0
  -28.6783  -12.0043   21.3734 H   0  0  0  0  0  0
  -28.4582  -13.6582   21.8588 H   0  0  0  0  0  0
  -25.2764   -9.5689   22.4754 H   0  0  0  0  0  0
  -24.0005   -7.4638   22.7474 H   0  0  0  0  0  0
  -21.0842   -8.8773   19.8951 H   0  0  0  0  0  0
  -22.3698  -10.9672   19.6160 H   0  0  0  0  0  0
  -21.2006   -7.6147   23.9716 H   0  0  0  0  0  0
  -21.1482   -6.0523   25.9077 H   0  0  0  0  0  0
  -22.0598   -2.7610   23.2846 H   0  0  0  0  0  0
  -22.4110  -11.9886   22.4779 H   0  0  0  0  0  0
  -21.1113  -13.1252   22.2613 H   0  0  0  0  0  0
  -24.6656  -15.8482   20.5307 H   0  0  0  0  0  0
  -26.2917  -15.6352   20.1263 H   0  0  0  0  0  0
  -26.7128  -32.5531   23.1181 H   0  0  0  0  0  0
  -25.0106  -33.9797   25.0517 H   0  0  0  0  0  0
  -22.6964  -31.3123   21.4151 H   0  0  0  0  0  0
  -23.3754  -35.9642   23.3313 H   0  0  0  0  0  0
  -24.3595  -36.8906   22.2052 H   0  0  0  0  0  0
  -23.7232  -37.6520   23.6635 H   0  0  0  0  0  0
  -26.0616  -31.5727   20.6101 H   0  0  0  0  0  0
  -26.8271  -30.8684   22.0043 H   0  0  0  0  0  0
  -28.0833  -29.0158   21.2587 H   0  0  0  0  0  0
  -26.0958  -26.1033   18.7968 H   0  0  0  0  0  0
  -24.0026  -27.3753   18.9177 H   0  0  0  0  0  0
  -23.7337  -30.6118   19.4101 H   0  0  0  0  0  0
  -22.7425  -29.2587   19.8635 H   0  0  0  0  0  0
  -25.1281  -36.1987   25.0841 H   0  0  0  0  0  0
  -20.9960  -28.3230   24.1433 H   0  0  0  0  0  0
  -20.5693  -26.2274   23.3602 H   0  0  0  0  0  0
  -21.6642  -26.7449   22.1193 H   0  0  0  0  0  0
  -19.6917  -25.6298   21.1233 H   0  0  0  0  0  0
  -19.6691  -27.3203   20.6761 H   0  0  0  0  0  0
  -17.4197  -26.6683   21.4021 H   0  0  0  0  0  0
  -18.0317  -26.0065   22.9018 H   0  0  0  0  0  0
  -19.7936  -30.7252   24.2277 H   0  0  0  0  0  0
  -17.5018  -31.6264   24.5155 H   0  0  0  0  0  0
  -15.5351  -30.2982   23.7653 H   0  0  0  0  0  0
  -15.8671  -28.0830   22.7036 H   0  0  0  0  0  0
  -24.5927  -30.7051   25.7831 H   0  0  0  0  0  0
  -24.8935  -32.2871   26.4936 H   0  0  0  0  0  0
  -25.8103  -30.8885   27.0250 H   0  0  0  0  0  0
  -26.2850  -29.6802   24.1184 H   0  0  0  0  0  0
  -27.4038  -29.7258   25.4613 H   0  0  0  0  0  0
  -27.8712  -30.4334   23.9329 H   0  0  0  0  0  0
  -27.2685  -33.3608   26.2104 H   0  0  0  0  0  0
  -28.3861  -32.6873   25.0327 H   0  0  0  0  0  0
  -28.0734  -31.8423   26.5409 H   0  0  0  0  0  0
  -28.2597  -38.0105   24.7508 H   0  0  0  0  0  0
  -28.1075  -36.2636   24.6296 H   0  0  0  0  0  0
  -27.2306  -37.1462   25.8873 H   0  0  0  0  0  0
  -20.9319  -29.8769   21.6942 H   0  0  0  0  0  0
  -26.0192  -38.2878   24.1403 H   0  0  0  0  0  0
  -33.4536  -18.6744   21.8753 H   0  0  0  0  0  0
  -31.8358  -20.4928   22.1956 H   0  0  0  0  0  0
  -32.7146  -16.3875   21.4513 H   0  0  0  0  0  0
  -25.9112  -24.2800   19.6780 H   0  0  0  0  0  0
  -26.6481  -22.7638   19.9569 H   0  0  0  0  0  0
  -27.5479  -23.9901   19.0686 H   0  0  0  0  0  0
  -25.7747  -25.7183   21.6747 H   0  0  0  0  0  0
  -26.6604  -25.2125   23.0922 H   0  0  0  0  0  0
  -25.5528  -24.1067   22.2966 H   0  0  0  0  0  0
  -29.1062  -20.6018   23.2361 H   0  0  0  0  0  0
  -28.0598  -20.0417   21.9571 H   0  0  0  0  0  0
  -29.4579  -25.0600   20.7563 H   0  0  0  0  0  0
  -28.7141  -25.9923   22.0023 H   0  0  0  0  0  0
  -27.2294  -22.4690   22.3249 H   0  0  0  0  0  0
  -28.4862  -23.4638   22.9782 H   0  0  0  0  0  0
  -29.1385  -15.3469   21.4626 H   0  0  0  0  0  0
  1 25  1  0  0  0
  1 30  2  0  0  0
  1 83  1  0  0  0
  2  3  1  0  0  0
  2 25  1  0  0  0
  2 88  1  0  0  0
  2 89  1  0  0  0
  3  4  1  0  0  0
  3 90  1  0  0  0
  3 91  1  0  0  0
  4  5  1  0  0  0
  4 92  1  0  0  0
  4 93  1  0  0  0
  5  6  1  0  0  0
  5 26  1  0  0  0
  5 94  1  0  0  0
  6 25  1  0  0  0
  6 95  1  0  0  0
  6 96  1  0  0  0
  7  8  2  0  0  0
  7 26  1  0  0  0
  7 29  1  0  0  0
  8  9  1  0  0  0
  8 22  1  0  0  0
  9 10  1  0  0  0
  9 27  2  0  0  0
 10 11  2  0  0  0
 10 15  1  0  0  0
 11 12  1  0  0  0
 11 97  1  0  0  0
 12 13  2  0  0  0
 12 98  1  0  0  0
 13 14  1  0  0  0
 13 31  1  0  0  0
 14 15  2  0  0  0
 14 99  1  0  0  0
 15100  1  0  0  0
 16 17  2  0  0  0
 16 21  1  0  0  0
 16 31  1  0  0  0
 17 18  1  0  0  0
 17101  1  0  0  0
 18 19  2  0  0  0
 18102  1  0  0  0
 19 20  1  0  0  0
 19 24  1  0  0  0
 20 21  2  0  0  0
 20103  1  0  0  0
 21 23  1  0  0  0
 22 28  1  0  0  0
 22 32  2  0  0  0
 26 27  1  0  0  0
 28104  1  0  0  0
 28105  1  0  0  0
 29106  1  0  0  0
 29107  1  0  0  0
 33 34  1  0  0  0
 33 66  1  0  0  0
 33 70  2  0  0  0
 34 36  1  0  0  0
 34 59  1  0  0  0
 34108  1  0  0  0
 35 44  2  0  0  0
 35 45  1  0  0  0
 35 68  1  0  0  0
 36 56  1  0  0  0
 36109  1  0  0  0
 37 39  1  0  0  0
 37 47  1  0  0  0
 37 66  1  0  0  0
 37110  1  0  0  0
 38 43  2  0  0  0
 38 46  1  0  0  0
 38 47  1  0  0  0
 39 64  1  0  0  0
 39 67  2  0  0  0
 40 52  1  0  0  0
 40 53  2  0  0  0
 40 58  1  0  0  0
 41111  1  0  0  0
 41112  1  0  0  0
 41113  1  0  0  0
 41 48  1  0  0  0
 42 43  1  0  0  0
 42 66  1  0  0  0
 42114  1  0  0  0
 42115  1  0  0  0
 43 44  1  0  0  0
 44116  1  0  0  0
 45 46  2  0  0  0
 45117  1  0  0  0
 46118  1  0  0  0
 47119  1  0  0  0
 47120  1  0  0  0
 48 56  1  0  0  0
 48 65  1  0  0  0
 48121  1  0  0  0
 49 50  1  0  0  0
 49 53  1  0  0  0
 49 64  1  0  0  0
 49122  1  0  0  0
 50 51  1  0  0  0
 50123  1  0  0  0
 50124  1  0  0  0
 51 52  1  0  0  0
 51125  1  0  0  0
 51126  1  0  0  0
 52127  1  0  0  0
 52128  1  0  0  0
 53 54  1  0  0  0
 54 55  2  0  0  0
 54129  1  0  0  0
 55 57  1  0  0  0
 55130  1  0  0  0
 56 69  2  0  0  0
 57 58  2  0  0  0
 57131  1  0  0  0
 58132  1  0  0  0
 59 60  1  0  0  0
 59 61  1  0  0  0
 59 62  1  0  0  0
 60133  1  0  0  0
 60134  1  0  0  0
 60135  1  0  0  0
 61136  1  0  0  0
 61137  1  0  0  0
 61138  1  0  0  0
 62139  1  0  0  0
 62140  1  0  0  0
 62141  1  0  0  0
 63 65  1  0  0  0
 63142  1  0  0  0
 63143  1  0  0  0
 63144  1  0  0  0
 64145  1  0  0  0
 65146  1  0  0  0
 68 80  1  0  0  0
 71 72  2  0  0  0
 71 73  1  0  0  0
 71147  1  0  0  0
 72 74  1  0  0  0
 72148  1  0  0  0
 73 75  2  0  0  0
 73149  1  0  0  0
 74 76  2  0  0  0
 74 79  1  0  0  0
 75 76  1  0  0  0
 75 83  1  0  0  0
 76 86  1  0  0  0
 77150  1  0  0  0
 77151  1  0  0  0
 77152  1  0  0  0
 77 82  1  0  0  0
 78 82  1  0  0  0
 78153  1  0  0  0
 78154  1  0  0  0
 78155  1  0  0  0
 79156  1  0  0  0
 79157  1  0  0  0
 79 87  1  0  0  0
 80 82  1  0  0  0
 80158  1  0  0  0
 80159  1  0  0  0
 81 82  1  0  0  0
 81 87  1  0  0  0
 81160  1  0  0  0
 81161  1  0  0  0
 83162  1  0  0  0
 84 87  2  0  0  0
 85 87  2  0  0  0
M  ISO  4   1 100  68 101  80 101  83 100
M  END
> <chiral flag>
0

> <version>
0

> <s_m_source_file>
/data/baiqing/PycharmProjects/Reinvent-master-3.2/result/LINK_invent/BTK/process_docking_weight1_custom_product_contain_oxygen_bond_distance_aromatic_linkinvent_7_9_3/rearranged_h_0173.sdf

> <i_m_source_file_index>
4

> <r_mmod_Potential_Energy-OPLS-2005>
-198.209976196289

> <r_mmod_Stretch_Energy-OPLS-2005>
49.6498756408691

> <r_mmod_Bend_Energy-OPLS-2005>
138.305252075195

> <r_mmod_Torsional_Energy-OPLS-2005>
234.532531738281

> <r_mmod_Improper_Torsional_Energy-OPLS-2005>
3.50978899002075

> <r_mmod_Van_der_Waal_Energy-OPLS-2005>
151.764221191406

> <r_mmod_Electrostatic_Energy-OPLS-2005>
-546.895568847656

> <r_mmod_Solvation_Energy-OPLS-2005>
-248.838012695312

> <b_mmod_Minimization_Converged-OPLS-2005>
0

> <r_mmod_RMS_Derivative-OPLS-2005>
0.791041374206543

$$$$
4
                    3D
 Structure written by MMmdl.
160168  0  0  1  0            999 V2000
  -30.7170  -14.4227   20.5812 C   0  0  0  0  0  0
  -30.4151  -12.2790   19.4168 C   0  0  0  0  0  0
  -29.4917  -12.5109   18.2031 C   0  0  0  0  0  0
  -28.0092  -12.3891   18.6088 C   0  0  0  0  0  0
  -27.6636  -13.2088   19.8810 C   0  0  2  0  0  0
  -28.7034  -12.9615   20.9974 C   0  0  0  0  0  0
  -25.2574  -13.8171   20.5673 C   0  0  0  0  0  0
  -24.1834  -13.0444   20.9166 C   0  0  0  0  0  0
  -24.6395  -11.6908   20.8729 C   0  0  0  0  0  0
  -23.9071  -10.4293   21.0405 C   0  0  0  0  0  0
  -24.3622   -9.4205   21.9183 C   0  0  0  0  0  0
  -23.6291   -8.2243   22.0754 C   0  0  0  0  0  0
  -22.4277   -8.0282   21.3540 C   0  0  0  0  0  0
  -21.9915   -9.0259   20.4646 C   0  0  0  0  0  0
  -22.7245  -10.2137   20.3055 C   0  0  0  0  0  0
  -21.6850   -6.0739   22.5281 C   0  0  0  0  0  0
  -21.4014   -6.5643   23.8215 C   0  0  0  0  0  0
  -21.3659   -5.6793   24.9176 C   0  0  0  0  0  0
  -21.6047   -4.3057   24.7225 C   0  0  0  0  0  0
  -21.8817   -3.8151   23.4344 C   0  0  0  0  0  0
  -21.9188   -4.6967   22.3401 C   0  0  0  0  0  0
  -22.7851  -13.5229   21.1837 C   0  0  0  0  0  0
  -22.1656   -4.2153   21.0976 F   0  0  0  0  0  0
  -21.5630   -3.4539   25.7736 F   0  0  0  0  0  0
  -30.0406  -13.2517   20.4528 N   0  0  0  0  0  0
  -26.3028  -12.9352   20.3389 N   0  0  0  0  0  0
  -25.9324  -11.6506   20.5764 N   0  0  0  0  0  0
  -22.0495  -12.8222   22.0392 N   0  0  0  0  0  0
  -25.4301  -15.1897   20.4083 N   0  0  0  0  0  0
  -31.8396  -14.5986   20.0987 O   0  0  0  0  0  0
  -21.6637   -6.8886   21.4245 O   0  0  0  0  0  0
  -22.3530  -14.5538   20.6685 O   0  0  0  0  0  0
  -24.6152  -31.8684   23.2107 C   0  0  0  0  0  0
  -25.9059  -32.4819   23.8391 C   0  0  1  0  0  0
  -27.2328  -27.4482   20.0875 C   0  0  0  0  0  0
  -25.5901  -33.8615   24.2316 N   0  0  0  0  0  0
  -23.3985  -30.4945   21.5501 C   0  0  2  0  0  0
  -24.8410  -28.9604   20.1145 C   0  0  0  0  0  0
  -22.7399  -29.4677   22.4987 C   0  0  0  0  0  0
  -18.0262  -28.1387   22.8458 C   0  0  0  0  0  0
  -24.1487  -36.7333   23.2641 C   0  0  0  0  0  0
  -25.9261  -30.8388   21.3600 C   0  0  0  0  0  0
  -26.0009  -29.4747   20.7065 C   0  0  0  0  0  0
  -27.1973  -28.7266   20.6871 C   0  0  0  0  0  0
  -26.0511  -26.9434   19.4942 C   0  0  0  0  0  0
  -24.8616  -27.6932   19.5071 C   0  0  0  0  0  0
  -23.6033  -29.8275   20.1648 C   0  0  0  0  0  0
  -25.4098  -36.3102   24.0339 C   0  0  1  0  0  0
  -20.5849  -28.3678   23.1298 C   0  0  2  0  0  0
  -20.6744  -26.9408   22.5419 C   0  0  0  0  0  0
  -19.5732  -26.6389   21.5199 C   0  0  0  0  0  0
  -18.1907  -26.7933   22.1594 C   0  0  0  0  0  0
  -19.1509  -28.8840   23.2876 C   0  0  0  0  0  0
  -18.9457  -30.1443   23.8887 C   0  0  0  0  0  0
  -17.6464  -30.6583   24.0571 C   0  0  0  0  0  0
  -25.9033  -34.9474   23.5122 C   0  0  0  0  0  0
  -16.5349  -29.9095   23.6329 C   0  0  0  0  0  0
  -16.7255  -28.6525   23.0314 C   0  0  0  0  0  0
  -26.4485  -31.6598   25.0718 C   0  0  0  0  0  0
  -25.3779  -31.3723   26.1496 C   0  0  0  0  0  0
  -27.0336  -30.3039   24.6113 C   0  0  0  0  0  0
  -27.6044  -32.4337   25.7478 C   0  0  0  0  0  0
  -27.5580  -37.1796   24.8448 C   0  0  0  0  0  0
  -21.4131  -29.3050   22.3720 N   0  0  0  0  0  0
  -26.4282  -37.3788   23.9417 N   0  0  0  0  0  0
  -24.6643  -31.0805   22.0987 N   0  0  0  0  0  0
  -23.4174  -28.8223   23.3030 O   0  0  0  0  0  0
  -28.4309  -26.7658   20.0970 O   0  0  0  0  0  0
  -26.5617  -34.8934   22.4696 O   0  0  0  0  0  0
  -23.5357  -32.1431   23.7529 O   0  0  0  0  0  0
  -29.6276  -17.6707   22.0334 C   0  0  0  0  0  0
  -30.9870  -17.4114   20.0277 C   0  0  0  0  0  0
  -30.2413  -16.8230   21.0802 C   0  0  0  0  0  0
  -29.7936  -19.0736   21.9762 C   0  0  0  0  0  0
  -31.1591  -18.8043   19.9625 C   0  0  0  0  0  0
  -30.5839  -19.6325   20.9423 C   0  0  0  0  0  0
  -28.7101  -22.2725   22.4948 C   0  0  0  0  0  0
  -26.9240  -24.8624   22.0310 C   0  0  0  0  0  0
  -28.6024  -23.1159   21.2145 C   0  0  0  0  0  0
  -28.1974  -20.8274   22.4270 C   0  0  0  0  0  0
  -28.4560  -25.3349   20.0091 C   0  0  0  0  0  0
  -28.3027  -24.6272   21.3816 C   0  0  1  0  0  0
  -30.0369  -15.4116   21.1907 N   0  0  0  0  0  0
  -29.1781  -19.8748   22.9538 N   0  0  0  0  0  0
  -29.2691  -22.6779   23.5186 O   0  0  0  0  0  0
  -31.8808  -19.3490   18.9532 F   0  0  0  0  0  0
  -30.8000  -20.9669   20.8783 F   0  0  0  0  0  0
  -29.2277  -25.1593   22.1840 F   0  0  0  0  0  0
  -31.4622  -12.3606   19.1203 H   0  0  0  0  0  0
  -30.2958  -11.2641   19.7996 H   0  0  0  0  0  0
  -29.7216  -11.7970   17.4111 H   0  0  0  0  0  0
  -29.6764  -13.5014   17.7831 H   0  0  0  0  0  0
  -27.7943  -11.3334   18.7752 H   0  0  0  0  0  0
  -27.3708  -12.7001   17.7812 H   0  0  0  0  0  0
  -27.7163  -14.2625   19.6049 H   0  0  0  0  0  0
  -28.6651  -11.9206   21.3211 H   0  0  0  0  0  0
  -28.4713  -13.5466   21.8878 H   0  0  0  0  0  0
  -25.2772   -9.5673   22.4750 H   0  0  0  0  0  0
  -24.0001   -7.4633   22.7471 H   0  0  0  0  0  0
  -21.0849   -8.8781   19.8946 H   0  0  0  0  0  0
  -22.3714  -10.9675   19.6160 H   0  0  0  0  0  0
  -21.2011   -7.6154   23.9719 H   0  0  0  0  0  0
  -21.1485   -6.0526   25.9079 H   0  0  0  0  0  0
  -22.0598   -2.7613   23.2841 H   0  0  0  0  0  0
  -22.4112  -11.9883   22.4784 H   0  0  0  0  0  0
  -21.1107  -13.1246   22.2601 H   0  0  0  0  0  0
  -24.6660  -15.8478   20.5140 H   0  0  0  0  0  0
  -26.2885  -15.6264   20.0960 H   0  0  0  0  0  0
  -26.7138  -32.5522   23.1162 H   0  0  0  0  0  0
  -25.0030  -33.9777   25.0446 H   0  0  0  0  0  0
  -22.6859  -31.3109   21.4148 H   0  0  0  0  0  0
  -23.3740  -35.9678   23.3288 H   0  0  0  0  0  0
  -24.3567  -36.8957   22.2052 H   0  0  0  0  0  0
  -23.7265  -37.6543   23.6671 H   0  0  0  0  0  0
  -26.0387  -31.6076   20.5942 H   0  0  0  0  0  0
  -26.8140  -30.8891   21.9779 H   0  0  0  0  0  0
  -28.0954  -29.1218   21.1417 H   0  0  0  0  0  0
  -26.0166  -25.9831   19.0035 H   0  0  0  0  0  0
  -23.9712  -27.2904   19.0436 H   0  0  0  0  0  0
  -23.7129  -30.6034   19.4069 H   0  0  0  0  0  0
  -22.7245  -29.2522   19.8660 H   0  0  0  0  0  0
  -25.1264  -36.1959   25.0830 H   0  0  0  0  0  0
  -20.9916  -28.3276   24.1426 H   0  0  0  0  0  0
  -20.5626  -26.2302   23.3624 H   0  0  0  0  0  0
  -21.6621  -26.7451   22.1225 H   0  0  0  0  0  0
  -19.6913  -25.6309   21.1212 H   0  0  0  0  0  0
  -19.6674  -27.3211   20.6744 H   0  0  0  0  0  0
  -17.4177  -26.6669   21.4000 H   0  0  0  0  0  0
  -18.0303  -26.0080   22.8991 H   0  0  0  0  0  0
  -19.7948  -30.7234   24.2239 H   0  0  0  0  0  0
  -17.5044  -31.6246   24.5212 H   0  0  0  0  0  0
  -15.5354  -30.2999   23.7674 H   0  0  0  0  0  0
  -15.8650  -28.0872   22.6995 H   0  0  0  0  0  0
  -24.5889  -30.7130   25.7852 H   0  0  0  0  0  0
  -24.9070  -32.2903   26.5017 H   0  0  0  0  0  0
  -25.8155  -30.8830   27.0209 H   0  0  0  0  0  0
  -26.2886  -29.6743   24.1235 H   0  0  0  0  0  0
  -27.4171  -29.7316   25.4566 H   0  0  0  0  0  0
  -27.8679  -30.4327   23.9220 H   0  0  0  0  0  0
  -27.2632  -33.3621   26.2074 H   0  0  0  0  0  0
  -28.3844  -32.6932   25.0303 H   0  0  0  0  0  0
  -28.0741  -31.8476   26.5383 H   0  0  0  0  0  0
  -28.2565  -38.0125   24.7517 H   0  0  0  0  0  0
  -28.1106  -36.2656   24.6222 H   0  0  0  0  0  0
  -27.2306  -37.1352   25.8852 H   0  0  0  0  0  0
  -20.9310  -29.8821   21.6973 H   0  0  0  0  0  0
  -26.0175  -38.2862   24.1453 H   0  0  0  0  0  0
  -29.0353  -17.2420   22.8293 H   0  0  0  0  0  0
  -31.4382  -16.8199   19.2459 H   0  0  0  0  0  0
  -26.1163  -24.5398   21.3725 H   0  0  0  0  0  0
  -26.7635  -25.9150   22.2621 H   0  0  0  0  0  0
  -26.8209  -24.3194   22.9703 H   0  0  0  0  0  0
  -27.8538  -22.6589   20.5689 H   0  0  0  0  0  0
  -29.5533  -23.0052   20.6947 H   0  0  0  0  0  0
  -27.9107  -20.5835   21.4029 H   0  0  0  0  0  0
  -27.2884  -20.7676   23.0269 H   0  0  0  0  0  0
  -27.7717  -24.9245   19.2684 H   0  0  0  0  0  0
  -29.4428  -25.0916   19.6160 H   0  0  0  0  0  0
  -29.2068  -15.1154   21.6818 H   0  0  0  0  0  0
  -29.8554  -20.4135   23.4907 H   0  0  0  0  0  0
  1 25  1  0  0  0
  1 30  2  0  0  0
  1 83  1  0  0  0
  2  3  1  0  0  0
  2 25  1  0  0  0
  2 89  1  0  0  0
  2 90  1  0  0  0
  3  4  1  0  0  0
  3 91  1  0  0  0
  3 92  1  0  0  0
  4  5  1  0  0  0
  4 93  1  0  0  0
  4 94  1  0  0  0
  5  6  1  0  0  0
  5 26  1  0  0  0
  5 95  1  0  0  0
  6 25  1  0  0  0
  6 96  1  0  0  0
  6 97  1  0  0  0
  7  8  2  0  0  0
  7 26  1  0  0  0
  7 29  1  0  0  0
  8  9  1  0  0  0
  8 22  1  0  0  0
  9 10  1  0  0  0
  9 27  2  0  0  0
 10 11  2  0  0  0
 10 15  1  0  0  0
 11 12  1  0  0  0
 11 98  1  0  0  0
 12 13  2  0  0  0
 12 99  1  0  0  0
 13 14  1  0  0  0
 13 31  1  0  0  0
 14 15  2  0  0  0
 14100  1  0  0  0
 15101  1  0  0  0
 16 17  2  0  0  0
 16 21  1  0  0  0
 16 31  1  0  0  0
 17 18  1  0  0  0
 17102  1  0  0  0
 18 19  2  0  0  0
 18103  1  0  0  0
 19 20  1  0  0  0
 19 24  1  0  0  0
 20 21  2  0  0  0
 20104  1  0  0  0
 21 23  1  0  0  0
 22 28  1  0  0  0
 22 32  2  0  0  0
 26 27  1  0  0  0
 28105  1  0  0  0
 28106  1  0  0  0
 29107  1  0  0  0
 29108  1  0  0  0
 33 34  1  0  0  0
 33 66  1  0  0  0
 33 70  2  0  0  0
 34 36  1  0  0  0
 34 59  1  0  0  0
 34109  1  0  0  0
 35 44  2  0  0  0
 35 45  1  0  0  0
 35 68  1  0  0  0
 36 56  1  0  0  0
 36110  1  0  0  0
 37 39  1  0  0  0
 37 47  1  0  0  0
 37 66  1  0  0  0
 37111  1  0  0  0
 38 43  2  0  0  0
 38 46  1  0  0  0
 38 47  1  0  0  0
 39 64  1  0  0  0
 39 67  2  0  0  0
 40 52  1  0  0  0
 40 53  2  0  0  0
 40 58  1  0  0  0
 41112  1  0  0  0
 41113  1  0  0  0
 41114  1  0  0  0
 41 48  1  0  0  0
 42 43  1  0  0  0
 42 66  1  0  0  0
 42115  1  0  0  0
 42116  1  0  0  0
 43 44  1  0  0  0
 44117  1  0  0  0
 45 46  2  0  0  0
 45118  1  0  0  0
 46119  1  0  0  0
 47120  1  0  0  0
 47121  1  0  0  0
 48 56  1  0  0  0
 48 65  1  0  0  0
 48122  1  0  0  0
 49 50  1  0  0  0
 49 53  1  0  0  0
 49 64  1  0  0  0
 49123  1  0  0  0
 50 51  1  0  0  0
 50124  1  0  0  0
 50125  1  0  0  0
 51 52  1  0  0  0
 51126  1  0  0  0
 51127  1  0  0  0
 52128  1  0  0  0
 52129  1  0  0  0
 53 54  1  0  0  0
 54 55  2  0  0  0
 54130  1  0  0  0
 55 57  1  0  0  0
 55131  1  0  0  0
 56 69  2  0  0  0
 57 58  2  0  0  0
 57132  1  0  0  0
 58133  1  0  0  0
 59 60  1  0  0  0
 59 61  1  0  0  0
 59 62  1  0  0  0
 60134  1  0  0  0
 60135  1  0  0  0
 60136  1  0  0  0
 61137  1  0  0  0
 61138  1  0  0  0
 61139  1  0  0  0
 62140  1  0  0  0
 62141  1  0  0  0
 62142  1  0  0  0
 63 65  1  0  0  0
 63143  1  0  0  0
 63144  1  0  0  0
 63145  1  0  0  0
 64146  1  0  0  0
 65147  1  0  0  0
 68 81  1  0  0  0
 71 73  2  0  0  0
 71 74  1  0  0  0
 71148  1  0  0  0
 72 73  1  0  0  0
 72 75  2  0  0  0
 72149  1  0  0  0
 73 83  1  0  0  0
 74 76  2  0  0  0
 74 84  1  0  0  0
 75 76  1  0  0  0
 75 86  1  0  0  0
 76 87  1  0  0  0
 77 79  1  0  0  0
 77 80  1  0  0  0
 77 85  2  0  0  0
 78150  1  0  0  0
 78151  1  0  0  0
 78152  1  0  0  0
 78 82  1  0  0  0
 79 82  1  0  0  0
 79153  1  0  0  0
 79154  1  0  0  0
 80 84  1  0  0  0
 80155  1  0  0  0
 80156  1  0  0  0
 81 82  1  0  0  0
 81157  1  0  0  0
 81158  1  0  0  0
 82 88  1  0  0  0
 83159  1  0  0  0
 84160  1  0  0  0
M  ISO  4   1 100  68 101  81 101  83 100
M  END
> <chiral flag>
0

> <version>
0

> <s_m_source_file>
/data/baiqing/PycharmProjects/Reinvent-master-3.2/result/LINK_invent/BTK/process_docking_weight1_custom_product_contain_oxygen_bond_distance_aromatic_linkinvent_7_9_3/rearranged_h_0173.sdf

> <i_m_source_file_index>
5

> <r_mmod_Potential_Energy-OPLS-2005>
13.6913280487061

> <r_mmod_Stretch_Energy-OPLS-2005>
35.877571105957

> <r_mmod_Bend_Energy-OPLS-2005>
107.989387512207

> <r_mmod_Torsional_Energy-OPLS-2005>
217.888473510742

> <r_mmod_Improper_Torsional_Energy-OPLS-2005>
9.52810001373291

> <r_mmod_Van_der_Waal_Energy-OPLS-2005>
162.614532470703

> <r_mmod_Electrostatic_Energy-OPLS-2005>
-302.517120361328

> <r_mmod_Solvation_Energy-OPLS-2005>
-228.111770629883

> <b_mmod_Minimization_Converged-OPLS-2005>
0

> <r_mmod_RMS_Derivative-OPLS-2005>
2.10974764823914

$$$$
5
                    3D
 Structure written by MMmdl.
150158  0  0  1  0            999 V2000
  -30.6099  -14.8266   20.4451 C   0  0  0  0  0  0
  -30.4319  -12.5072   19.4848 C   0  0  0  0  0  0
  -29.5129  -12.5098   18.2440 C   0  0  0  0  0  0
  -28.0436  -12.3189   18.6636 C   0  0  0  0  0  0
  -27.6366  -13.2407   19.8438 C   0  0  2  0  0  0
  -28.6823  -13.2292   20.9805 C   0  0  0  0  0  0
  -25.2493  -13.8209   20.5708 C   0  0  0  0  0  0
  -24.1799  -13.0440   20.9221 C   0  0  0  0  0  0
  -24.6400  -11.6921   20.8752 C   0  0  0  0  0  0
  -23.9083  -10.4291   21.0408 C   0  0  0  0  0  0
  -24.3630   -9.4207   21.9188 C   0  0  0  0  0  0
  -23.6300   -8.2246   22.0758 C   0  0  0  0  0  0
  -22.4284   -8.0284   21.3549 C   0  0  0  0  0  0
  -21.9923   -9.0257   20.4653 C   0  0  0  0  0  0
  -22.7253  -10.2133   20.3060 C   0  0  0  0  0  0
  -21.6855   -6.0740   22.5280 C   0  0  0  0  0  0
  -21.4016   -6.5644   23.8213 C   0  0  0  0  0  0
  -21.3659   -5.6796   24.9177 C   0  0  0  0  0  0
  -21.6039   -4.3057   24.7225 C   0  0  0  0  0  0
  -21.8821   -3.8150   23.4345 C   0  0  0  0  0  0
  -21.9193   -4.6970   22.3402 C   0  0  0  0  0  0
  -22.7817  -13.5215   21.1869 C   0  0  0  0  0  0
  -22.1662   -4.2153   21.0981 F   0  0  0  0  0  0
  -21.5625   -3.4541   25.7737 F   0  0  0  0  0  0
  -29.9725  -13.5976   20.3859 N   0  0  0  0  0  0
  -26.2924  -12.9432   20.3274 N   0  0  0  0  0  0
  -25.9336  -11.6566   20.5762 N   0  0  0  0  0  0
  -22.0467  -12.8203   22.0422 N   0  0  0  0  0  0
  -25.4159  -15.1937   20.4128 N   0  0  0  0  0  0
  -31.8062  -14.8615   20.1458 O   0  0  0  0  0  0
  -21.6642   -6.8882   21.4242 O   0  0  0  0  0  0
  -22.3503  -14.5514   20.6704 O   0  0  0  0  0  0
  -24.6366  -31.8512   23.1940 C   0  0  0  0  0  0
  -25.9164  -32.4735   23.8313 C   0  0  1  0  0  0
  -27.2169  -27.2121   20.1440 C   0  0  0  0  0  0
  -25.5931  -33.8538   24.2233 N   0  0  0  0  0  0
  -23.4383  -30.4727   21.5385 C   0  0  2  0  0  0
  -24.8901  -28.9154   20.1061 C   0  0  0  0  0  0
  -22.7545  -29.4578   22.4886 C   0  0  0  0  0  0
  -18.0300  -28.1382   22.8496 C   0  0  0  0  0  0
  -24.1485  -36.7266   23.2644 C   0  0  0  0  0  0
  -25.9898  -30.7477   21.3843 C   0  0  0  0  0  0
  -26.0644  -29.3669   20.7251 C   0  0  0  0  0  0
  -27.2349  -28.5287   20.7333 C   0  0  0  0  0  0
  -26.0254  -26.8482   19.4826 C   0  0  0  0  0  0
  -24.8783  -27.6655   19.4701 C   0  0  0  0  0  0
  -23.6614  -29.8076   20.1549 C   0  0  0  0  0  0
  -25.4117  -36.3059   24.0329 C   0  0  1  0  0  0
  -20.5916  -28.3705   23.1250 C   0  0  2  0  0  0
  -20.6783  -26.9414   22.5406 C   0  0  0  0  0  0
  -19.5750  -26.6379   21.5215 C   0  0  0  0  0  0
  -18.1934  -26.7927   22.1634 C   0  0  0  0  0  0
  -19.1558  -28.8864   23.2864 C   0  0  0  0  0  0
  -18.9475  -30.1466   23.8884 C   0  0  0  0  0  0
  -17.6471  -30.6585   24.0561 C   0  0  0  0  0  0
  -25.9060  -34.9429   23.5089 C   0  0  0  0  0  0
  -16.5363  -29.9081   23.6332 C   0  0  0  0  0  0
  -16.7287  -28.6496   23.0362 C   0  0  0  0  0  0
  -26.4505  -31.6581   25.0724 C   0  0  0  0  0  0
  -25.3704  -31.3753   26.1427 C   0  0  0  0  0  0
  -27.0368  -30.2993   24.6259 C   0  0  0  0  0  0
  -27.6047  -32.4337   25.7498 C   0  0  0  0  0  0
  -27.5581  -37.1792   24.8470 C   0  0  0  0  0  0
  -21.4245  -29.3042   22.3634 N   0  0  0  0  0  0
  -26.4288  -37.3766   23.9415 N   0  0  0  0  0  0
  -24.7073  -31.0435   22.0941 N   0  0  0  0  0  0
  -23.4215  -28.8131   23.3018 O   0  0  0  0  0  0
  -28.2183  -26.1995   20.2280 O   0  0  0  0  0  0
  -26.5645  -34.8916   22.4666 O   0  0  0  0  0  0
  -23.5500  -32.1353   23.7197 O   0  0  0  0  0  0
  -29.3554  -18.6485   20.5379 C   0  0  0  0  0  0
  -31.6219  -17.8204   20.7469 C   0  0  0  0  0  0
  -30.2557  -17.4795   20.6148 C   0  0  0  0  0  0
  -29.7846  -20.0634   20.5737 C   0  0  0  0  0  0
  -32.0680  -19.1555   20.7999 C   0  0  0  0  0  0
  -31.1818  -20.2495   20.7249 C   0  0  0  0  0  0
  -27.8123  -24.9984   20.9070 C   0  0  0  0  0  0
  -28.0913  -23.6152   20.9862 C   0  0  0  0  0  0
  -29.0728  -22.6556   20.3264 C   0  0  0  0  0  0
  -28.8807  -21.2781   20.5931 N   0  0  0  0  0  0
  -29.8635  -16.0122   20.6121 N   0  0  0  0  0  0
  -29.9649  -23.0381   19.5701 O   0  0  0  0  0  0
  -27.3319  -23.0023   21.9098 O   0  0  0  0  0  0
  -33.3923  -19.3934   20.9577 F   0  0  0  0  0  0
  -31.7077  -21.4892   20.8656 F   0  0  0  0  0  0
  -31.4714  -12.6292   19.1763 H   0  0  0  0  0  0
  -30.3878  -11.5441   19.9957 H   0  0  0  0  0  0
  -29.8089  -11.7211   17.5510 H   0  0  0  0  0  0
  -29.6246  -13.4515   17.7042 H   0  0  0  0  0  0
  -27.9218  -11.2747   18.9547 H   0  0  0  0  0  0
  -27.3807  -12.4754   17.8116 H   0  0  0  0  0  0
  -27.6143  -14.2510   19.4342 H   0  0  0  0  0  0
  -28.7396  -12.2470   21.4520 H   0  0  0  0  0  0
  -28.4054  -13.9335   21.7666 H   0  0  0  0  0  0
  -25.2777   -9.5677   22.4766 H   0  0  0  0  0  0
  -24.0003   -7.4636   22.7481 H   0  0  0  0  0  0
  -21.0854   -8.8782   19.8960 H   0  0  0  0  0  0
  -22.3717  -10.9674   19.6169 H   0  0  0  0  0  0
  -21.2012   -7.6154   23.9717 H   0  0  0  0  0  0
  -21.1477   -6.0527   25.9076 H   0  0  0  0  0  0
  -22.0599   -2.7614   23.2846 H   0  0  0  0  0  0
  -22.4088  -11.9866   22.4808 H   0  0  0  0  0  0
  -21.1083  -13.1225   22.2629 H   0  0  0  0  0  0
  -24.6432  -15.8422   20.5213 H   0  0  0  0  0  0
  -26.2545  -15.6364   20.0604 H   0  0  0  0  0  0
  -26.7233  -32.5379   23.1054 H   0  0  0  0  0  0
  -25.0064  -33.9665   25.0371 H   0  0  0  0  0  0
  -22.7373  -31.2967   21.3904 H   0  0  0  0  0  0
  -23.3752  -35.9591   23.3303 H   0  0  0  0  0  0
  -24.3573  -36.8889   22.2058 H   0  0  0  0  0  0
  -23.7225  -37.6465   23.6664 H   0  0  0  0  0  0
  -26.1396  -31.5057   20.6139 H   0  0  0  0  0  0
  -26.8617  -30.7951   22.0246 H   0  0  0  0  0  0
  -28.1277  -28.8615   21.2448 H   0  0  0  0  0  0
  -25.9643  -25.8761   19.0131 H   0  0  0  0  0  0
  -23.9818  -27.3125   18.9787 H   0  0  0  0  0  0
  -23.7882  -30.5843   19.4002 H   0  0  0  0  0  0
  -22.7784  -29.2443   19.8480 H   0  0  0  0  0  0
  -25.1298  -36.1903   25.0821 H   0  0  0  0  0  0
  -21.0019  -28.3277   24.1365 H   0  0  0  0  0  0
  -20.5671  -26.2319   23.3620 H   0  0  0  0  0  0
  -21.6651  -26.7412   22.1207 H   0  0  0  0  0  0
  -19.6894  -25.6286   21.1245 H   0  0  0  0  0  0
  -19.6670  -27.3193   20.6746 H   0  0  0  0  0  0
  -17.4206  -26.6689   21.4031 H   0  0  0  0  0  0
  -18.0320  -26.0066   22.9027 H   0  0  0  0  0  0
  -19.7949  -30.7292   24.2240 H   0  0  0  0  0  0
  -17.5019  -31.6261   24.5167 H   0  0  0  0  0  0
  -15.5361  -30.2973   23.7652 H   0  0  0  0  0  0
  -15.8693  -28.0796   22.7087 H   0  0  0  0  0  0
  -24.5879  -30.7102   25.7749 H   0  0  0  0  0  0
  -24.8894  -32.2935   26.4816 H   0  0  0  0  0  0
  -25.7996  -30.8949   27.0231 H   0  0  0  0  0  0
  -26.2978  -29.6728   24.1250 H   0  0  0  0  0  0
  -27.3998  -29.7264   25.4803 H   0  0  0  0  0  0
  -27.8873  -30.4255   23.9554 H   0  0  0  0  0  0
  -27.2641  -33.3642   26.2051 H   0  0  0  0  0  0
  -28.3862  -32.6899   25.0330 H   0  0  0  0  0  0
  -28.0709  -31.8485   26.5436 H   0  0  0  0  0  0
  -28.2601  -38.0088   24.7533 H   0  0  0  0  0  0
  -28.1073  -36.2629   24.6273 H   0  0  0  0  0  0
  -27.2305  -37.1413   25.8872 H   0  0  0  0  0  0
  -20.9434  -29.8772   21.6841 H   0  0  0  0  0  0
  -26.0161  -38.2837   24.1417 H   0  0  0  0  0  0
  -28.2953  -18.4550   20.4563 H   0  0  0  0  0  0
  -32.3819  -17.0620   20.8442 H   0  0  0  0  0  0
  -27.0301  -25.3039   21.5916 H   0  0  0  0  0  0
  -27.9423  -21.0735   20.9037 H   0  0  0  0  0  0
  -28.8766  -15.8391   20.7311 H   0  0  0  0  0  0
  -27.7907  -22.2116   22.1658 H   0  0  0  0  0  0
  1 25  1  0  0  0
  1 30  2  0  0  0
  1 81  1  0  0  0
  2  3  1  0  0  0
  2 25  1  0  0  0
  2 86  1  0  0  0
  2 87  1  0  0  0
  3  4  1  0  0  0
  3 88  1  0  0  0
  3 89  1  0  0  0
  4  5  1  0  0  0
  4 90  1  0  0  0
  4 91  1  0  0  0
  5  6  1  0  0  0
  5 26  1  0  0  0
  5 92  1  0  0  0
  6 25  1  0  0  0
  6 93  1  0  0  0
  6 94  1  0  0  0
  7  8  2  0  0  0
  7 26  1  0  0  0
  7 29  1  0  0  0
  8  9  1  0  0  0
  8 22  1  0  0  0
  9 10  1  0  0  0
  9 27  2  0  0  0
 10 11  2  0  0  0
 10 15  1  0  0  0
 11 12  1  0  0  0
 11 95  1  0  0  0
 12 13  2  0  0  0
 12 96  1  0  0  0
 13 14  1  0  0  0
 13 31  1  0  0  0
 14 15  2  0  0  0
 14 97  1  0  0  0
 15 98  1  0  0  0
 16 17  2  0  0  0
 16 21  1  0  0  0
 16 31  1  0  0  0
 17 18  1  0  0  0
 17 99  1  0  0  0
 18 19  2  0  0  0
 18100  1  0  0  0
 19 20  1  0  0  0
 19 24  1  0  0  0
 20 21  2  0  0  0
 20101  1  0  0  0
 21 23  1  0  0  0
 22 28  1  0  0  0
 22 32  2  0  0  0
 26 27  1  0  0  0
 28102  1  0  0  0
 28103  1  0  0  0
 29104  1  0  0  0
 29105  1  0  0  0
 33 34  1  0  0  0
 33 66  1  0  0  0
 33 70  2  0  0  0
 34 36  1  0  0  0
 34 59  1  0  0  0
 34106  1  0  0  0
 35 44  2  0  0  0
 35 45  1  0  0  0
 35 68  1  0  0  0
 36 56  1  0  0  0
 36107  1  0  0  0
 37 39  1  0  0  0
 37 47  1  0  0  0
 37 66  1  0  0  0
 37108  1  0  0  0
 38 43  2  0  0  0
 38 46  1  0  0  0
 38 47  1  0  0  0
 39 64  1  0  0  0
 39 67  2  0  0  0
 40 52  1  0  0  0
 40 53  2  0  0  0
 40 58  1  0  0  0
 41109  1  0  0  0
 41110  1  0  0  0
 41111  1  0  0  0
 41 48  1  0  0  0
 42 43  1  0  0  0
 42 66  1  0  0  0
 42112  1  0  0  0
 42113  1  0  0  0
 43 44  1  0  0  0
 44114  1  0  0  0
 45 46  2  0  0  0
 45115  1  0  0  0
 46116  1  0  0  0
 47117  1  0  0  0
 47118  1  0  0  0
 48 56  1  0  0  0
 48 65  1  0  0  0
 48119  1  0  0  0
 49 50  1  0  0  0
 49 53  1  0  0  0
 49 64  1  0  0  0
 49120  1  0  0  0
 50 51  1  0  0  0
 50121  1  0  0  0
 50122  1  0  0  0
 51 52  1  0  0  0
 51123  1  0  0  0
 51124  1  0  0  0
 52125  1  0  0  0
 52126  1  0  0  0
 53 54  1  0  0  0
 54 55  2  0  0  0
 54127  1  0  0  0
 55 57  1  0  0  0
 55128  1  0  0  0
 56 69  2  0  0  0
 57 58  2  0  0  0
 57129  1  0  0  0
 58130  1  0  0  0
 59 60  1  0  0  0
 59 61  1  0  0  0
 59 62  1  0  0  0
 60131  1  0  0  0
 60132  1  0  0  0
 60133  1  0  0  0
 61134  1  0  0  0
 61135  1  0  0  0
 61136  1  0  0  0
 62137  1  0  0  0
 62138  1  0  0  0
 62139  1  0  0  0
 63 65  1  0  0  0
 63140  1  0  0  0
 63141  1  0  0  0
 63142  1  0  0  0
 64143  1  0  0  0
 65144  1  0  0  0
 68 77  1  0  0  0
 71 73  2  0  0  0
 71 74  1  0  0  0
 71145  1  0  0  0
 72 73  1  0  0  0
 72 75  2  0  0  0
 72146  1  0  0  0
 73 81  1  0  0  0
 74 76  2  0  0  0
 74 80  1  0  0  0
 75 76  1  0  0  0
 75 84  1  0  0  0
 76 85  1  0  0  0
 77 78  2  0  0  0
 77147  1  0  0  0
 78 79  1  0  0  0
 78 83  1  0  0  0
 79 80  1  0  0  0
 79 82  2  0  0  0
 80148  1  0  0  0
 81149  1  0  0  0
 83150  1  0  0  0
M  ISO  4   1 100  68 101  77 101  81 100
M  END
> <chiral flag>
0

> <version>
0

> <s_m_source_file>
/data/baiqing/PycharmProjects/Reinvent-master-3.2/result/LINK_invent/BTK/process_docking_weight1_custom_product_contain_oxygen_bond_distance_aromatic_linkinvent_7_9_3/rearranged_h_0173.sdf

> <i_m_source_file_index>
6

> <r_mmod_Potential_Energy-OPLS-2005>
349.869445800781

> <r_mmod_Stretch_Energy-OPLS-2005>
173.438293457031

> <r_mmod_Bend_Energy-OPLS-2005>
247.895523071289

> <r_mmod_Torsional_Energy-OPLS-2005>
244.695755004883

> <r_mmod_Improper_Torsional_Energy-OPLS-2005>
6.08270025253296

> <r_mmod_Van_der_Waal_Energy-OPLS-2005>
151.575820922852

> <r_mmod_Electrostatic_Energy-OPLS-2005>
-355.570648193359

> <r_mmod_Solvation_Energy-OPLS-2005>
-251.545516967773

> <b_mmod_Minimization_Converged-OPLS-2005>
0

> <r_mmod_RMS_Derivative-OPLS-2005>
1.13750243186951

$$$$
6
                    3D
 Structure written by MMmdl.
156164  0  0  1  0            999 V2000
  -30.6874  -14.4629   20.5176 C   0  0  0  0  0  0
  -30.4267  -12.2785   19.4272 C   0  0  0  0  0  0
  -29.4972  -12.4541   18.2074 C   0  0  0  0  0  0
  -28.0130  -12.3542   18.6200 C   0  0  0  0  0  0
  -27.6621  -13.1992   19.8751 C   0  0  2  0  0  0
  -28.7053  -12.9805   20.9936 C   0  0  0  0  0  0
  -25.2587  -13.8141   20.5653 C   0  0  0  0  0  0
  -24.1829  -13.0436   20.9176 C   0  0  0  0  0  0
  -24.6374  -11.6895   20.8729 C   0  0  0  0  0  0
  -23.9043  -10.4283   21.0388 C   0  0  0  0  0  0
  -24.3590   -9.4205   21.9172 C   0  0  0  0  0  0
  -23.6274   -8.2234   22.0741 C   0  0  0  0  0  0
  -22.4258   -8.0276   21.3525 C   0  0  0  0  0  0
  -21.9885   -9.0263   20.4641 C   0  0  0  0  0  0
  -22.7214  -10.2139   20.3050 C   0  0  0  0  0  0
  -21.6858   -6.0729   22.5255 C   0  0  0  0  0  0
  -21.4024   -6.5638   23.8188 C   0  0  0  0  0  0
  -21.3662   -5.6791   24.9146 C   0  0  0  0  0  0
  -21.6042   -4.3056   24.7200 C   0  0  0  0  0  0
  -21.8827   -3.8147   23.4322 C   0  0  0  0  0  0
  -21.9201   -4.6959   22.3376 C   0  0  0  0  0  0
  -22.7852  -13.5243   21.1851 C   0  0  0  0  0  0
  -22.1661   -4.2142   21.0953 F   0  0  0  0  0  0
  -21.5631   -3.4553   25.7719 F   0  0  0  0  0  0
  -30.0368  -13.2737   20.4378 N   0  0  0  0  0  0
  -26.3023  -12.9299   20.3371 N   0  0  0  0  0  0
  -25.9302  -11.6467   20.5783 N   0  0  0  0  0  0
  -22.0494  -12.8226   22.0409 N   0  0  0  0  0  0
  -25.4313  -15.1850   20.4024 N   0  0  0  0  0  0
  -31.8400  -14.6336   20.1095 O   0  0  0  0  0  0
  -21.6632   -6.8869   21.4217 O   0  0  0  0  0  0
  -22.3544  -14.5568   20.6722 O   0  0  0  0  0  0
  -24.6127  -31.8693   23.2124 C   0  0  0  0  0  0
  -25.9016  -32.4831   23.8437 C   0  0  1  0  0  0
  -27.2509  -27.4575   20.0773 C   0  0  0  0  0  0
  -25.5864  -33.8637   24.2362 N   0  0  0  0  0  0
  -23.4028  -30.4915   21.5508 C   0  0  2  0  0  0
  -24.8520  -28.9618   20.1149 C   0  0  0  0  0  0
  -22.7415  -29.4650   22.4985 C   0  0  0  0  0  0
  -18.0258  -28.1380   22.8492 C   0  0  0  0  0  0
  -24.1480  -36.7328   23.2648 C   0  0  0  0  0  0
  -25.9300  -30.8373   21.3667 C   0  0  0  0  0  0
  -26.0069  -29.4725   20.7156 C   0  0  0  0  0  0
  -27.2026  -28.7208   20.7070 C   0  0  0  0  0  0
  -26.0691  -26.9502   19.4860 C   0  0  0  0  0  0
  -24.8756  -27.6961   19.5033 C   0  0  0  0  0  0
  -23.6127  -29.8244   20.1653 C   0  0  0  0  0  0
  -25.4089  -36.3128   24.0364 C   0  0  1  0  0  0
  -20.5851  -28.3667   23.1319 C   0  0  2  0  0  0
  -20.6735  -26.9401   22.5423 C   0  0  0  0  0  0
  -19.5715  -26.6386   21.5215 C   0  0  0  0  0  0
  -18.1893  -26.7928   22.1631 C   0  0  0  0  0  0
  -19.1508  -28.8844   23.2902 C   0  0  0  0  0  0
  -18.9437  -30.1444   23.8921 C   0  0  0  0  0  0
  -17.6439  -30.6583   24.0565 C   0  0  0  0  0  0
  -25.9017  -34.9484   23.5167 C   0  0  0  0  0  0
  -16.5328  -29.9086   23.6318 C   0  0  0  0  0  0
  -16.7250  -28.6503   23.0342 C   0  0  0  0  0  0
  -26.4449  -31.6605   25.0763 C   0  0  0  0  0  0
  -25.3725  -31.3703   26.1527 C   0  0  0  0  0  0
  -27.0269  -30.3045   24.6131 C   0  0  0  0  0  0
  -27.6052  -32.4315   25.7488 C   0  0  0  0  0  0
  -27.5586  -37.1808   24.8460 C   0  0  0  0  0  0
  -21.4144  -29.3032   22.3738 N   0  0  0  0  0  0
  -26.4283  -37.3802   23.9423 N   0  0  0  0  0  0
  -24.6663  -31.0807   22.1012 N   0  0  0  0  0  0
  -23.4189  -28.8185   23.3021 O   0  0  0  0  0  0
  -28.4453  -26.7675   20.1110 O   0  0  0  0  0  0
  -26.5591  -34.8925   22.4734 O   0  0  0  0  0  0
  -23.5314  -32.1432   23.7508 O   0  0  0  0  0  0
  -29.9318  -19.1563   18.7207 C   0  0  0  0  0  0
  -29.5472  -17.9563   18.1035 C   0  0  0  0  0  0
  -30.2948  -17.9576   20.8285 C   0  0  0  0  0  0
  -30.2780  -19.1668   20.0878 C   0  0  0  0  0  0
  -29.9400  -16.7398   20.1967 C   0  0  0  0  0  0
  -29.5371  -16.7598   18.8382 C   0  0  0  0  0  0
  -30.2762  -22.7577   21.0135 C   0  0  0  0  0  0
  -29.7199  -21.3121   21.0680 C   0  0  0  0  0  0
  -29.2783  -23.8517   20.6153 C   0  0  0  0  0  0
  -29.8405  -24.8628   19.5936 C   0  0  0  0  0  0
  -28.7583  -25.8281   19.0830 C   0  0  0  0  0  0
  -30.6259  -20.4081   20.6660 N   0  0  0  0  0  0
  -29.9373  -15.5053   20.9117 N   0  0  0  0  0  0
  -31.4645  -23.0209   21.2375 O   0  0  0  0  0  0
  -28.5730  -21.0415   21.4440 O   0  0  0  0  0  0
  -29.1264  -15.6303   18.2240 F   0  0  0  0  0  0
  -31.4714  -12.3732   19.1223 H   0  0  0  0  0  0
  -30.3297  -11.2722   19.8365 H   0  0  0  0  0  0
  -29.7180  -11.6927   17.4584 H   0  0  0  0  0  0
  -29.6938  -13.4073   17.7206 H   0  0  0  0  0  0
  -27.8009  -11.3025   18.8161 H   0  0  0  0  0  0
  -27.3719  -12.6419   17.7868 H   0  0  0  0  0  0
  -27.7012  -14.2446   19.5778 H   0  0  0  0  0  0
  -28.6760  -11.9452   21.3360 H   0  0  0  0  0  0
  -28.4797  -13.5894   21.8695 H   0  0  0  0  0  0
  -25.2734   -9.5721   22.4745 H   0  0  0  0  0  0
  -23.9998   -7.4632   22.7465 H   0  0  0  0  0  0
  -21.0805   -8.8807   19.8951 H   0  0  0  0  0  0
  -22.3667  -10.9684   19.6170 H   0  0  0  0  0  0
  -21.2021   -7.6146   23.9690 H   0  0  0  0  0  0
  -21.1473   -6.0507   25.9044 H   0  0  0  0  0  0
  -22.0604   -2.7612   23.2812 H   0  0  0  0  0  0
  -22.4105  -11.9873   22.4779 H   0  0  0  0  0  0
  -21.1137  -13.1276   22.2683 H   0  0  0  0  0  0
  -24.6639  -15.8407   20.5005 H   0  0  0  0  0  0
  -26.2814  -15.6185   20.0654 H   0  0  0  0  0  0
  -26.7098  -32.5550   23.1221 H   0  0  0  0  0  0
  -24.9991  -33.9790   25.0492 H   0  0  0  0  0  0
  -22.6915  -31.3079   21.4112 H   0  0  0  0  0  0
  -23.3745  -35.9656   23.3295 H   0  0  0  0  0  0
  -24.3591  -36.8941   22.2066 H   0  0  0  0  0  0
  -23.7228  -37.6536   23.6652 H   0  0  0  0  0  0
  -26.0433  -31.6022   20.5975 H   0  0  0  0  0  0
  -26.8177  -30.8906   21.9856 H   0  0  0  0  0  0
  -28.0945  -29.1111   21.1767 H   0  0  0  0  0  0
  -26.0299  -25.9763   19.0240 H   0  0  0  0  0  0
  -23.9843  -27.2891   19.0457 H   0  0  0  0  0  0
  -23.7213  -30.5967   19.4033 H   0  0  0  0  0  0
  -22.7401  -29.2394   19.8711 H   0  0  0  0  0  0
  -25.1253  -36.2011   25.0858 H   0  0  0  0  0  0
  -20.9941  -28.3229   24.1444 H   0  0  0  0  0  0
  -20.5609  -26.2290   23.3615 H   0  0  0  0  0  0
  -21.6611  -26.7420   22.1245 H   0  0  0  0  0  0
  -19.6869  -25.6297   21.1240 H   0  0  0  0  0  0
  -19.6649  -27.3201   20.6742 H   0  0  0  0  0  0
  -17.4169  -26.6688   21.4021 H   0  0  0  0  0  0
  -18.0283  -26.0063   22.9022 H   0  0  0  0  0  0
  -19.7909  -30.7243   24.2317 H   0  0  0  0  0  0
  -17.4994  -31.6264   24.5165 H   0  0  0  0  0  0
  -15.5327  -30.3000   23.7625 H   0  0  0  0  0  0
  -15.8648  -28.0827   22.7047 H   0  0  0  0  0  0
  -24.5888  -30.7056   25.7861 H   0  0  0  0  0  0
  -24.8926  -32.2854   26.5016 H   0  0  0  0  0  0
  -25.8096  -30.8849   27.0267 H   0  0  0  0  0  0
  -26.2808  -29.6827   24.1170 H   0  0  0  0  0  0
  -27.4008  -29.7262   25.4591 H   0  0  0  0  0  0
  -27.8665  -30.4344   23.9297 H   0  0  0  0  0  0
  -27.2698  -33.3608   26.2101 H   0  0  0  0  0  0
  -28.3826  -32.6883   25.0280 H   0  0  0  0  0  0
  -28.0774  -31.8428   26.5361 H   0  0  0  0  0  0
  -28.2597  -38.0109   24.7528 H   0  0  0  0  0  0
  -28.1087  -36.2654   24.6243 H   0  0  0  0  0  0
  -27.2329  -37.1423   25.8867 H   0  0  0  0  0  0
  -20.9310  -29.8812   21.7008 H   0  0  0  0  0  0
  -26.0191  -38.2892   24.1400 H   0  0  0  0  0  0
  -29.9322  -20.0697   18.1422 H   0  0  0  0  0  0
  -29.2510  -17.9521   17.0653 H   0  0  0  0  0  0
  -30.5808  -17.9672   21.8705 H   0  0  0  0  0  0
  -28.9535  -24.3669   21.5178 H   0  0  0  0  0  0
  -28.3917  -23.3751   20.1954 H   0  0  0  0  0  0
  -30.2492  -24.3190   18.7400 H   0  0  0  0  0  0
  -30.6723  -25.4227   20.0227 H   0  0  0  0  0  0
  -27.9162  -25.2324   18.7415 H   0  0  0  0  0  0
  -29.1276  -26.3818   18.2187 H   0  0  0  0  0  0
  -31.5254  -20.8060   20.4230 H   0  0  0  0  0  0
  -29.0462  -15.2402   21.3027 H   0  0  0  0  0  0
  1 25  1  0  0  0
  1 30  2  0  0  0
  1 83  1  0  0  0
  2  3  1  0  0  0
  2 25  1  0  0  0
  2 87  1  0  0  0
  2 88  1  0  0  0
  3  4  1  0  0  0
  3 89  1  0  0  0
  3 90  1  0  0  0
  4  5  1  0  0  0
  4 91  1  0  0  0
  4 92  1  0  0  0
  5  6  1  0  0  0
  5 26  1  0  0  0
  5 93  1  0  0  0
  6 25  1  0  0  0
  6 94  1  0  0  0
  6 95  1  0  0  0
  7  8  2  0  0  0
  7 26  1  0  0  0
  7 29  1  0  0  0
  8  9  1  0  0  0
  8 22  1  0  0  0
  9 10  1  0  0  0
  9 27  2  0  0  0
 10 11  2  0  0  0
 10 15  1  0  0  0
 11 12  1  0  0  0
 11 96  1  0  0  0
 12 13  2  0  0  0
 12 97  1  0  0  0
 13 14  1  0  0  0
 13 31  1  0  0  0
 14 15  2  0  0  0
 14 98  1  0  0  0
 15 99  1  0  0  0
 16 17  2  0  0  0
 16 21  1  0  0  0
 16 31  1  0  0  0
 17 18  1  0  0  0
 17100  1  0  0  0
 18 19  2  0  0  0
 18101  1  0  0  0
 19 20  1  0  0  0
 19 24  1  0  0  0
 20 21  2  0  0  0
 20102  1  0  0  0
 21 23  1  0  0  0
 22 28  1  0  0  0
 22 32  2  0  0  0
 26 27  1  0  0  0
 28103  1  0  0  0
 28104  1  0  0  0
 29105  1  0  0  0
 29106  1  0  0  0
 33 34  1  0  0  0
 33 66  1  0  0  0
 33 70  2  0  0  0
 34 36  1  0  0  0
 34 59  1  0  0  0
 34107  1  0  0  0
 35 44  2  0  0  0
 35 45  1  0  0  0
 35 68  1  0  0  0
 36 56  1  0  0  0
 36108  1  0  0  0
 37 39  1  0  0  0
 37 47  1  0  0  0
 37 66  1  0  0  0
 37109  1  0  0  0
 38 43  2  0  0  0
 38 46  1  0  0  0
 38 47  1  0  0  0
 39 64  1  0  0  0
 39 67  2  0  0  0
 40 52  1  0  0  0
 40 53  2  0  0  0
 40 58  1  0  0  0
 41110  1  0  0  0
 41111  1  0  0  0
 41112  1  0  0  0
 41 48  1  0  0  0
 42 43  1  0  0  0
 42 66  1  0  0  0
 42113  1  0  0  0
 42114  1  0  0  0
 43 44  1  0  0  0
 44115  1  0  0  0
 45 46  2  0  0  0
 45116  1  0  0  0
 46117  1  0  0  0
 47118  1  0  0  0
 47119  1  0  0  0
 48 56  1  0  0  0
 48 65  1  0  0  0
 48120  1  0  0  0
 49 50  1  0  0  0
 49 53  1  0  0  0
 49 64  1  0  0  0
 49121  1  0  0  0
 50 51  1  0  0  0
 50122  1  0  0  0
 50123  1  0  0  0
 51 52  1  0  0  0
 51124  1  0  0  0
 51125  1  0  0  0
 52126  1  0  0  0
 52127  1  0  0  0
 53 54  1  0  0  0
 54 55  2  0  0  0
 54128  1  0  0  0
 55 57  1  0  0  0
 55129  1  0  0  0
 56 69  2  0  0  0
 57 58  2  0  0  0
 57130  1  0  0  0
 58131  1  0  0  0
 59 60  1  0  0  0
 59 61  1  0  0  0
 59 62  1  0  0  0
 60132  1  0  0  0
 60133  1  0  0  0
 60134  1  0  0  0
 61135  1  0  0  0
 61136  1  0  0  0
 61137  1  0  0  0
 62138  1  0  0  0
 62139  1  0  0  0
 62140  1  0  0  0
 63 65  1  0  0  0
 63141  1  0  0  0
 63142  1  0  0  0
 63143  1  0  0  0
 64144  1  0  0  0
 65145  1  0  0  0
 68 81  1  0  0  0
 71 72  2  0  0  0
 71 74  1  0  0  0
 71146  1  0  0  0
 72 76  1  0  0  0
 72147  1  0  0  0
 73 74  2  0  0  0
 73 75  1  0  0  0
 73148  1  0  0  0
 74 82  1  0  0  0
 75 76  2  0  0  0
 75 83  1  0  0  0
 76 86  1  0  0  0
 77 78  1  0  0  0
 77 79  1  0  0  0
 77 84  2  0  0  0
 78 82  1  0  0  0
 78 85  2  0  0  0
 79 80  1  0  0  0
 79149  1  0  0  0
 79150  1  0  0  0
 80 81  1  0  0  0
 80151  1  0  0  0
 80152  1  0  0  0
 81153  1  0  0  0
 81154  1  0  0  0
 82155  1  0  0  0
 83156  1  0  0  0
M  ISO  4   1 100  68 101  81 101  83 100
M  END
> <chiral flag>
0

> <version>
0

> <s_m_source_file>
/data/baiqing/PycharmProjects/Reinvent-master-3.2/result/LINK_invent/BTK/process_docking_weight1_custom_product_contain_oxygen_bond_distance_aromatic_linkinvent_7_9_3/rearranged_h_0173.sdf

> <i_m_source_file_index>
7

> <r_mmod_Potential_Energy-OPLS-2005>
-35.0294036865234

> <r_mmod_Stretch_Energy-OPLS-2005>
34.4961280822754

> <r_mmod_Bend_Energy-OPLS-2005>
97.1926727294922

> <r_mmod_Torsional_Energy-OPLS-2005>
297.504943847656

> <r_mmod_Improper_Torsional_Energy-OPLS-2005>
8.58913421630859

> <r_mmod_Van_der_Waal_Energy-OPLS-2005>
152.737075805664

> <r_mmod_Electrostatic_Energy-OPLS-2005>
-405.193603515625

> <r_mmod_Solvation_Energy-OPLS-2005>
-234.452392578125

> <b_mmod_Minimization_Converged-OPLS-2005>
0

> <r_mmod_RMS_Derivative-OPLS-2005>
2.11888957023621

$$$$
7
                    3D
 Structure written by MMmdl.
153161  0  0  1  0            999 V2000
  -30.6274  -14.5663   20.3724 C   0  0  0  0  0  0
  -30.4072  -12.3160   19.4306 C   0  0  0  0  0  0
  -29.4951  -12.4880   18.1988 C   0  0  0  0  0  0
  -28.0140  -12.3462   18.6083 C   0  0  0  0  0  0
  -27.6480  -13.2032   19.8506 C   0  0  2  0  0  0
  -28.6923  -13.0383   20.9728 C   0  0  0  0  0  0
  -25.2509  -13.8116   20.5622 C   0  0  0  0  0  0
  -24.1757  -13.0413   20.9139 C   0  0  0  0  0  0
  -24.6288  -11.6878   20.8638 C   0  0  0  0  0  0
  -23.8951  -10.4295   21.0342 C   0  0  0  0  0  0
  -24.3514   -9.4232   21.9124 C   0  0  0  0  0  0
  -23.6222   -8.2243   22.0739 C   0  0  0  0  0  0
  -22.4196   -8.0267   21.3547 C   0  0  0  0  0  0
  -21.9792   -9.0214   20.4674 C   0  0  0  0  0  0
  -22.7091  -10.2106   20.3050 C   0  0  0  0  0  0
  -21.6865   -6.0667   22.5268 C   0  0  0  0  0  0
  -21.4053   -6.5569   23.8191 C   0  0  0  0  0  0
  -21.3681   -5.6736   24.9166 C   0  0  0  0  0  0
  -21.6026   -4.3005   24.7236 C   0  0  0  0  0  0
  -21.8814   -3.8113   23.4368 C   0  0  0  0  0  0
  -21.9210   -4.6900   22.3406 C   0  0  0  0  0  0
  -22.7800  -13.5268   21.1841 C   0  0  0  0  0  0
  -22.1664   -4.2083   21.0987 F   0  0  0  0  0  0
  -21.5620   -3.4507   25.7764 F   0  0  0  0  0  0
  -30.0144  -13.3465   20.4068 N   0  0  0  0  0  0
  -26.2925  -12.9279   20.3230 N   0  0  0  0  0  0
  -25.9202  -11.6436   20.5610 N   0  0  0  0  0  0
  -22.0432  -12.8328   22.0430 N   0  0  0  0  0  0
  -25.4197  -15.1822   20.3962 N   0  0  0  0  0  0
  -31.8086  -14.7008   20.0532 O   0  0  0  0  0  0
  -21.6640   -6.8807   21.4228 O   0  0  0  0  0  0
  -22.3503  -14.5581   20.6686 O   0  0  0  0  0  0
  -24.6247  -31.8614   23.1990 C   0  0  0  0  0  0
  -25.9130  -32.4763   23.8320 C   0  0  1  0  0  0
  -27.2242  -27.3544   20.0838 C   0  0  0  0  0  0
  -25.5948  -33.8562   24.2284 N   0  0  0  0  0  0
  -23.4160  -30.4880   21.5451 C   0  0  2  0  0  0
  -24.8623  -28.9531   20.0963 C   0  0  0  0  0  0
  -22.7466  -29.4660   22.4933 C   0  0  0  0  0  0
  -18.0302  -28.1399   22.8482 C   0  0  0  0  0  0
  -24.1501  -36.7312   23.2623 C   0  0  0  0  0  0
  -25.9572  -30.7994   21.3692 C   0  0  0  0  0  0
  -26.0305  -29.4327   20.7057 C   0  0  0  0  0  0
  -27.2187  -28.6413   20.6966 C   0  0  0  0  0  0
  -26.0410  -26.9286   19.4388 C   0  0  0  0  0  0
  -24.8692  -27.7065   19.4493 C   0  0  0  0  0  0
  -23.6266  -29.8282   20.1576 C   0  0  0  0  0  0
  -25.4097  -36.3068   24.0320 C   0  0  1  0  0  0
  -20.5895  -28.3709   23.1286 C   0  0  2  0  0  0
  -20.6801  -26.9411   22.5457 C   0  0  0  0  0  0
  -19.5799  -26.6407   21.5223 C   0  0  0  0  0  0
  -18.1951  -26.7944   22.1589 C   0  0  0  0  0  0
  -19.1558  -28.8861   23.2893 C   0  0  0  0  0  0
  -18.9480  -30.1464   23.8901 C   0  0  0  0  0  0
  -17.6477  -30.6574   24.0560 C   0  0  0  0  0  0
  -25.9044  -34.9446   23.5093 C   0  0  0  0  0  0
  -16.5371  -29.9082   23.6308 C   0  0  0  0  0  0
  -16.7280  -28.6521   23.0296 C   0  0  0  0  0  0
  -26.4477  -31.6538   25.0692 C   0  0  0  0  0  0
  -25.3733  -31.3747   26.1457 C   0  0  0  0  0  0
  -27.0220  -30.2919   24.6145 C   0  0  0  0  0  0
  -27.6092  -32.4206   25.7427 C   0  0  0  0  0  0
  -27.5588  -37.1790   24.8428 C   0  0  0  0  0  0
  -21.4184  -29.3047   22.3667 N   0  0  0  0  0  0
  -26.4272  -37.3773   23.9412 N   0  0  0  0  0  0
  -24.6843  -31.0655   22.0965 N   0  0  0  0  0  0
  -23.4203  -28.8188   23.3000 O   0  0  0  0  0  0
  -28.2610  -26.4197   20.1869 O   0  0  0  0  0  0
  -26.5623  -34.8902   22.4671 O   0  0  0  0  0  0
  -23.5429  -32.1421   23.7367 O   0  0  0  0  0  0
  -29.9493  -19.3154   18.2197 C   0  0  0  0  0  0
  -30.0488  -16.8647   18.2995 C   0  0  0  0  0  0
  -29.8459  -19.3838   19.6319 C   0  0  0  0  0  0
  -29.9125  -16.8804   19.7129 C   0  0  0  0  0  0
  -30.0483  -18.0691   17.5626 C   0  0  0  0  0  0
  -29.7915  -18.1504   20.3606 C   0  0  0  0  0  0
  -27.8743  -25.2970   20.9260 C   0  0  0  0  0  0
  -28.1536  -23.9477   20.9043 C   0  0  0  0  0  0
  -29.1240  -23.1728   20.0881 C   0  0  0  0  0  0
  -29.9925  -20.7622   20.3505 C   0  0  0  0  0  0
  -29.8061  -15.6436   20.4675 N   0  0  0  0  0  0
  -28.9449  -21.8191   20.2045 N   0  0  0  0  0  0
  -30.0728  -23.6572   19.4708 O   0  0  0  0  0  0
  -27.4377  -23.2181   21.7801 O   0  0  0  0  0  0
  -30.1699  -18.0239   16.2078 F   0  0  0  0  0  0
  -29.6489  -18.1764   21.7098 F   0  0  0  0  0  0
  -31.4593  -12.3724   19.1506 H   0  0  0  0  0  0
  -30.2751  -11.3218   19.8631 H   0  0  0  0  0  0
  -29.7494  -11.7527   17.4338 H   0  0  0  0  0  0
  -29.6601  -13.4630   17.7355 H   0  0  0  0  0  0
  -27.8245  -11.2937   18.8215 H   0  0  0  0  0  0
  -27.3635  -12.5969   17.7724 H   0  0  0  0  0  0
  -27.6728  -14.2369   19.5116 H   0  0  0  0  0  0
  -28.6724  -12.0113   21.3477 H   0  0  0  0  0  0
  -28.4621  -13.6756   21.8277 H   0  0  0  0  0  0
  -25.2663   -9.5705   22.4687 H   0  0  0  0  0  0
  -23.9975   -7.4619   22.7434 H   0  0  0  0  0  0
  -21.0741   -8.8682   19.8999 H   0  0  0  0  0  0
  -22.3490  -10.9613   19.6168 H   0  0  0  0  0  0
  -21.2053   -7.6095   23.9663 H   0  0  0  0  0  0
  -21.1498   -6.0481   25.9029 H   0  0  0  0  0  0
  -22.0586   -2.7565   23.2900 H   0  0  0  0  0  0
  -22.4089  -12.0070   22.4945 H   0  0  0  0  0  0
  -21.1079  -13.1424   22.2669 H   0  0  0  0  0  0
  -24.6310  -15.8186   20.4339 H   0  0  0  0  0  0
  -26.2445  -15.6048   19.9941 H   0  0  0  0  0  0
  -26.7202  -32.5426   23.1057 H   0  0  0  0  0  0
  -25.0053  -33.9686   25.0402 H   0  0  0  0  0  0
  -22.7090  -31.3102   21.4065 H   0  0  0  0  0  0
  -23.3758  -35.9651   23.3228 H   0  0  0  0  0  0
  -24.3652  -36.8972   22.2057 H   0  0  0  0  0  0
  -23.7260  -37.6502   23.6678 H   0  0  0  0  0  0
  -26.0909  -31.5646   20.6035 H   0  0  0  0  0  0
  -26.8378  -30.8483   21.9971 H   0  0  0  0  0  0
  -28.1075  -28.9883   21.2042 H   0  0  0  0  0  0
  -26.0159  -25.9559   18.9641 H   0  0  0  0  0  0
  -23.9762  -27.3395   18.9586 H   0  0  0  0  0  0
  -23.7378  -30.6093   19.4037 H   0  0  0  0  0  0
  -22.7437  -29.2568   19.8632 H   0  0  0  0  0  0
  -25.1263  -36.1879   25.0806 H   0  0  0  0  0  0
  -21.0002  -28.3310   24.1396 H   0  0  0  0  0  0
  -20.5656  -26.2318   23.3666 H   0  0  0  0  0  0
  -21.6679  -26.7439   22.1276 H   0  0  0  0  0  0
  -19.6961  -25.6318   21.1265 H   0  0  0  0  0  0
  -19.6723  -27.3209   20.6729 H   0  0  0  0  0  0
  -17.4228  -26.6705   21.3969 H   0  0  0  0  0  0
  -18.0315  -26.0095   22.8981 H   0  0  0  0  0  0
  -19.7938  -30.7319   24.2236 H   0  0  0  0  0  0
  -17.5005  -31.6223   24.5204 H   0  0  0  0  0  0
  -15.5361  -30.2968   23.7642 H   0  0  0  0  0  0
  -15.8693  -28.0851   22.6968 H   0  0  0  0  0  0
  -24.5903  -30.7040   25.7869 H   0  0  0  0  0  0
  -24.8922  -32.2944   26.4800 H   0  0  0  0  0  0
  -25.8096  -30.9035   27.0277 H   0  0  0  0  0  0
  -26.2745  -29.6752   24.1137 H   0  0  0  0  0  0
  -27.3815  -29.7071   25.4625 H   0  0  0  0  0  0
  -27.8672  -30.4089   23.9359 H   0  0  0  0  0  0
  -27.2742  -33.3478   26.2052 H   0  0  0  0  0  0
  -28.3857  -32.6780   25.0225 H   0  0  0  0  0  0
  -28.0802  -31.8305   26.5286 H   0  0  0  0  0  0
  -28.2563  -38.0132   24.7531 H   0  0  0  0  0  0
  -28.1124  -36.2686   24.6117 H   0  0  0  0  0  0
  -27.2382  -37.1276   25.8849 H   0  0  0  0  0  0
  -20.9335  -29.8739   21.6866 H   0  0  0  0  0  0
  -26.0142  -38.2828   24.1466 H   0  0  0  0  0  0
  -30.0198  -20.2186   17.6291 H   0  0  0  0  0  0
  -30.1349  -15.9367   17.7493 H   0  0  0  0  0  0
  -27.1536  -25.6184   21.6721 H   0  0  0  0  0  0
  -30.9727  -21.1570   20.0714 H   0  0  0  0  0  0
  -30.0667  -20.5750   21.4262 H   0  0  0  0  0  0
  -28.9142  -15.4785   20.9077 H   0  0  0  0  0  0
  -28.0736  -21.5956   20.6710 H   0  0  0  0  0  0
  -26.8684  -23.8173   22.2447 H   0  0  0  0  0  0
  1 25  1  0  0  0
  1 30  2  0  0  0
  1 81  1  0  0  0
  2  3  1  0  0  0
  2 25  1  0  0  0
  2 87  1  0  0  0
  2 88  1  0  0  0
  3  4  1  0  0  0
  3 89  1  0  0  0
  3 90  1  0  0  0
  4  5  1  0  0  0
  4 91  1  0  0  0
  4 92  1  0  0  0
  5  6  1  0  0  0
  5 26  1  0  0  0
  5 93  1  0  0  0
  6 25  1  0  0  0
  6 94  1  0  0  0
  6 95  1  0  0  0
  7  8  2  0  0  0
  7 26  1  0  0  0
  7 29  1  0  0  0
  8  9  1  0  0  0
  8 22  1  0  0  0
  9 10  1  0  0  0
  9 27  2  0  0  0
 10 11  2  0  0  0
 10 15  1  0  0  0
 11 12  1  0  0  0
 11 96  1  0  0  0
 12 13  2  0  0  0
 12 97  1  0  0  0
 13 14  1  0  0  0
 13 31  1  0  0  0
 14 15  2  0  0  0
 14 98  1  0  0  0
 15 99  1  0  0  0
 16 17  2  0  0  0
 16 21  1  0  0  0
 16 31  1  0  0  0
 17 18  1  0  0  0
 17100  1  0  0  0
 18 19  2  0  0  0
 18101  1  0  0  0
 19 20  1  0  0  0
 19 24  1  0  0  0
 20 21  2  0  0  0
 20102  1  0  0  0
 21 23  1  0  0  0
 22 28  1  0  0  0
 22 32  2  0  0  0
 26 27  1  0  0  0
 28103  1  0  0  0
 28104  1  0  0  0
 29105  1  0  0  0
 29106  1  0  0  0
 33 34  1  0  0  0
 33 66  1  0  0  0
 33 70  2  0  0  0
 34 36  1  0  0  0
 34 59  1  0  0  0
 34107  1  0  0  0
 35 44  2  0  0  0
 35 45  1  0  0  0
 35 68  1  0  0  0
 36 56  1  0  0  0
 36108  1  0  0  0
 37 39  1  0  0  0
 37 47  1  0  0  0
 37 66  1  0  0  0
 37109  1  0  0  0
 38 43  2  0  0  0
 38 46  1  0  0  0
 38 47  1  0  0  0
 39 64  1  0  0  0
 39 67  2  0  0  0
 40 52  1  0  0  0
 40 53  2  0  0  0
 40 58  1  0  0  0
 41110  1  0  0  0
 41111  1  0  0  0
 41112  1  0  0  0
 41 48  1  0  0  0
 42 43  1  0  0  0
 42 66  1  0  0  0
 42113  1  0  0  0
 42114  1  0  0  0
 43 44  1  0  0  0
 44115  1  0  0  0
 45 46  2  0  0  0
 45116  1  0  0  0
 46117  1  0  0  0
 47118  1  0  0  0
 47119  1  0  0  0
 48 56  1  0  0  0
 48 65  1  0  0  0
 48120  1  0  0  0
 49 50  1  0  0  0
 49 53  1  0  0  0
 49 64  1  0  0  0
 49121  1  0  0  0
 50 51  1  0  0  0
 50122  1  0  0  0
 50123  1  0  0  0
 51 52  1  0  0  0
 51124  1  0  0  0
 51125  1  0  0  0
 52126  1  0  0  0
 52127  1  0  0  0
 53 54  1  0  0  0
 54 55  2  0  0  0
 54128  1  0  0  0
 55 57  1  0  0  0
 55129  1  0  0  0
 56 69  2  0  0  0
 57 58  2  0  0  0
 57130  1  0  0  0
 58131  1  0  0  0
 59 60  1  0  0  0
 59 61  1  0  0  0
 59 62  1  0  0  0
 60132  1  0  0  0
 60133  1  0  0  0
 60134  1  0  0  0
 61135  1  0  0  0
 61136  1  0  0  0
 61137  1  0  0  0
 62138  1  0  0  0
 62139  1  0  0  0
 62140  1  0  0  0
 63 65  1  0  0  0
 63141  1  0  0  0
 63142  1  0  0  0
 63143  1  0  0  0
 64144  1  0  0  0
 65145  1  0  0  0
 68 77  1  0  0  0
 71 73  2  0  0  0
 71 75  1  0  0  0
 71146  1  0  0  0
 72 74  1  0  0  0
 72 75  2  0  0  0
 72147  1  0  0  0
 73 76  1  0  0  0
 73 80  1  0  0  0
 74 76  2  0  0  0
 74 81  1  0  0  0
 75 85  1  0  0  0
 76 86  1  0  0  0
 77 78  2  0  0  0
 77148  1  0  0  0
 78 79  1  0  0  0
 78 84  1  0  0  0
 79 82  1  0  0  0
 79 83  2  0  0  0
 80 82  1  0  0  0
 80149  1  0  0  0
 80150  1  0  0  0
 81151  1  0  0  0
 82152  1  0  0  0
 84153  1  0  0  0
M  ISO  4   1 100  68 101  77 101  81 100
M  END
> <chiral flag>
0

> <version>
0

> <s_m_source_file>
/data/baiqing/PycharmProjects/Reinvent-master-3.2/result/LINK_invent/BTK/process_docking_weight1_custom_product_contain_oxygen_bond_distance_aromatic_linkinvent_7_9_3/rearranged_h_0173.sdf

> <i_m_source_file_index>
8

> <r_mmod_Potential_Energy-OPLS-2005>
-11.2783222198486

> <r_mmod_Stretch_Energy-OPLS-2005>
64.095573425293

> <r_mmod_Bend_Energy-OPLS-2005>
151.312362670898

> <r_mmod_Torsional_Energy-OPLS-2005>
274.089324951172

> <r_mmod_Improper_Torsional_Energy-OPLS-2005>
12.4683609008789

> <r_mmod_Van_der_Waal_Energy-OPLS-2005>
150.280380249023

> <r_mmod_Electrostatic_Energy-OPLS-2005>
-475.297088623047

> <r_mmod_Solvation_Energy-OPLS-2005>
-236.634002685547

> <b_mmod_Minimization_Converged-OPLS-2005>
0

> <r_mmod_RMS_Derivative-OPLS-2005>
7.87671709060669

$$$$
8
                    3D
 Structure written by MMmdl.
156164  0  0  1  0            999 V2000
  -30.7269  -14.4298   20.6359 C   0  0  0  0  0  0
  -30.4205  -12.3024   19.4101 C   0  0  0  0  0  0
  -29.4879  -12.5154   18.2017 C   0  0  0  0  0  0
  -28.0120  -12.3724   18.6209 C   0  0  0  0  0  0
  -27.6661  -13.2049   19.8851 C   0  0  2  0  0  0
  -28.7101  -12.9659   21.0012 C   0  0  0  0  0  0
  -25.2599  -13.8159   20.5701 C   0  0  0  0  0  0
  -24.1842  -13.0442   20.9177 C   0  0  0  0  0  0
  -24.6389  -11.6907   20.8734 C   0  0  0  0  0  0
  -23.9050  -10.4295   21.0404 C   0  0  0  0  0  0
  -24.3600   -9.4214   21.9186 C   0  0  0  0  0  0
  -23.6279   -8.2249   22.0756 C   0  0  0  0  0  0
  -22.4264   -8.0280   21.3544 C   0  0  0  0  0  0
  -21.9898   -9.0255   20.4648 C   0  0  0  0  0  0
  -22.7220  -10.2139   20.3056 C   0  0  0  0  0  0
  -21.6847   -6.0730   22.5276 C   0  0  0  0  0  0
  -21.4016   -6.5638   23.8213 C   0  0  0  0  0  0
  -21.3665   -5.6791   24.9178 C   0  0  0  0  0  0
  -21.6044   -4.3052   24.7227 C   0  0  0  0  0  0
  -21.8816   -3.8143   23.4350 C   0  0  0  0  0  0
  -21.9190   -4.6957   22.3405 C   0  0  0  0  0  0
  -22.7866  -13.5240   21.1841 C   0  0  0  0  0  0
  -22.1653   -4.2143   21.0979 F   0  0  0  0  0  0
  -21.5635   -3.4535   25.7742 F   0  0  0  0  0  0
  -30.0394  -13.2703   20.4504 N   0  0  0  0  0  0
  -26.3052  -12.9332   20.3430 N   0  0  0  0  0  0
  -25.9325  -11.6490   20.5792 N   0  0  0  0  0  0
  -22.0506  -12.8244   22.0405 N   0  0  0  0  0  0
  -25.4336  -15.1878   20.4109 N   0  0  0  0  0  0
  -31.7983  -14.6426   20.0588 O   0  0  0  0  0  0
  -21.6632   -6.8874   21.4238 O   0  0  0  0  0  0
  -22.3555  -14.5551   20.6689 O   0  0  0  0  0  0
  -24.6111  -31.8684   23.2122 C   0  0  0  0  0  0
  -25.9017  -32.4828   23.8414 C   0  0  1  0  0  0
  -27.2443  -27.4576   20.0942 C   0  0  0  0  0  0
  -25.5888  -33.8628   24.2340 N   0  0  0  0  0  0
  -23.3997  -30.4885   21.5522 C   0  0  2  0  0  0
  -24.8517  -28.9533   20.1188 C   0  0  0  0  0  0
  -22.7395  -29.4637   22.5015 C   0  0  0  0  0  0
  -18.0258  -28.1362   22.8490 C   0  0  0  0  0  0
  -24.1490  -36.7331   23.2641 C   0  0  0  0  0  0
  -25.9253  -30.8385   21.3648 C   0  0  0  0  0  0
  -26.0076  -29.4721   20.7176 C   0  0  0  0  0  0
  -27.2080  -28.7286   20.7087 C   0  0  0  0  0  0
  -26.0781  -26.9454   19.4922 C   0  0  0  0  0  0
  -24.8798  -27.6865   19.5067 C   0  0  0  0  0  0
  -23.6093  -29.8151   20.1681 C   0  0  0  0  0  0
  -25.4110  -36.3120   24.0335 C   0  0  1  0  0  0
  -20.5842  -28.3646   23.1326 C   0  0  2  0  0  0
  -20.6744  -26.9384   22.5420 C   0  0  0  0  0  0
  -19.5734  -26.6366   21.5209 C   0  0  0  0  0  0
  -18.1908  -26.7913   22.1611 C   0  0  0  0  0  0
  -19.1507  -28.8819   23.2902 C   0  0  0  0  0  0
  -18.9445  -30.1432   23.8906 C   0  0  0  0  0  0
  -17.6453  -30.6583   24.0545 C   0  0  0  0  0  0
  -25.9030  -34.9478   23.5135 C   0  0  0  0  0  0
  -16.5339  -29.9084   23.6320 C   0  0  0  0  0  0
  -16.7251  -28.6487   23.0355 C   0  0  0  0  0  0
  -26.4468  -31.6610   25.0736 C   0  0  0  0  0  0
  -25.3739  -31.3695   26.1479 C   0  0  0  0  0  0
  -27.0333  -30.3063   24.6110 C   0  0  0  0  0  0
  -27.6038  -32.4338   25.7498 C   0  0  0  0  0  0
  -27.5590  -37.1811   24.8463 C   0  0  0  0  0  0
  -21.4122  -29.3023   22.3756 N   0  0  0  0  0  0
  -26.4302  -37.3798   23.9404 N   0  0  0  0  0  0
  -24.6633  -31.0789   22.1020 N   0  0  0  0  0  0
  -23.4173  -28.8162   23.3037 O   0  0  0  0  0  0
  -28.4055  -26.7255   20.0495 O   0  0  0  0  0  0
  -26.5588  -34.8917   22.4696 O   0  0  0  0  0  0
  -23.5307  -32.1429   23.7519 O   0  0  0  0  0  0
  -30.8465  -18.6141   24.7325 C   0  0  0  0  0  0
  -31.0201  -17.6930   23.6867 C   0  0  0  0  0  0
  -30.1721  -19.8242   24.4977 C   0  0  0  0  0  0
  -30.5160  -17.9703   22.3986 C   0  0  0  0  0  0
  -29.6708  -20.1409   23.2182 C   0  0  0  0  0  0
  -29.8449  -19.2009   22.1607 C   0  0  0  0  0  0
  -29.0888  -22.1776   22.1567 C   0  0  0  0  0  0
  -28.3789  -23.5203   22.1111 C   0  0  0  0  0  0
  -30.7643  -16.9493   21.2880 C   0  0  0  0  0  0
  -28.5515  -24.4129   20.8704 C   0  0  0  0  0  0
  -30.1650  -15.5383   21.5573 C   0  0  0  0  0  0
  -28.6454  -25.9210   21.2070 C   0  0  0  0  0  0
  -28.9667  -21.3521   23.1254 N   0  0  0  0  0  0
  -27.6541  -23.8990   23.0412 O   0  0  0  0  0  0
  -29.3579  -19.4720   20.9247 F   0  0  0  0  0  0
  -31.4636  -12.3984   19.1044 H   0  0  0  0  0  0
  -30.3209  -11.2862   19.7952 H   0  0  0  0  0  0
  -29.7245  -11.7991   17.4137 H   0  0  0  0  0  0
  -29.6554  -13.5061   17.7765 H   0  0  0  0  0  0
  -27.8241  -11.3152   18.8128 H   0  0  0  0  0  0
  -27.3571  -12.6525   17.7949 H   0  0  0  0  0  0
  -27.7182  -14.2562   19.6000 H   0  0  0  0  0  0
  -28.6843  -11.9244   21.3251 H   0  0  0  0  0  0
  -28.4755  -13.5464   21.8934 H   0  0  0  0  0  0
  -25.2745   -9.5701   22.4764 H   0  0  0  0  0  0
  -23.9991   -7.4647   22.7480 H   0  0  0  0  0  0
  -21.0831   -8.8771   19.8956 H   0  0  0  0  0  0
  -22.3670  -10.9677   19.6169 H   0  0  0  0  0  0
  -21.2006   -7.6146   23.9715 H   0  0  0  0  0  0
  -21.1493   -6.0522   25.9082 H   0  0  0  0  0  0
  -22.0590   -2.7604   23.2848 H   0  0  0  0  0  0
  -22.4102  -11.9888   22.4784 H   0  0  0  0  0  0
  -21.1146  -13.1309   22.2643 H   0  0  0  0  0  0
  -24.6733  -15.8489   20.5266 H   0  0  0  0  0  0
  -26.2957  -15.6254   20.1116 H   0  0  0  0  0  0
  -26.7087  -32.5554   23.1182 H   0  0  0  0  0  0
  -25.0053  -33.9794   25.0495 H   0  0  0  0  0  0
  -22.6870  -31.3038   21.4107 H   0  0  0  0  0  0
  -23.3748  -35.9670   23.3304 H   0  0  0  0  0  0
  -24.3583  -36.8958   22.2059 H   0  0  0  0  0  0
  -23.7249  -37.6533   23.6667 H   0  0  0  0  0  0
  -26.0333  -31.6030   20.5940 H   0  0  0  0  0  0
  -26.8125  -30.8958   21.9830 H   0  0  0  0  0  0
  -28.1036  -29.1259   21.1662 H   0  0  0  0  0  0
  -26.0999  -25.9770   19.0122 H   0  0  0  0  0  0
  -23.9910  -27.2822   19.0410 H   0  0  0  0  0  0
  -23.7098  -30.5864   19.4037 H   0  0  0  0  0  0
  -22.7363  -29.2279   19.8785 H   0  0  0  0  0  0
  -25.1284  -36.1998   25.0827 H   0  0  0  0  0  0
  -20.9912  -28.3203   24.1453 H   0  0  0  0  0  0
  -20.5647  -26.2247   23.3600 H   0  0  0  0  0  0
  -21.6623  -26.7428   22.1221 H   0  0  0  0  0  0
  -19.6894  -25.6275   21.1249 H   0  0  0  0  0  0
  -19.6677  -27.3158   20.6724 H   0  0  0  0  0  0
  -17.4180  -26.6659   21.4012 H   0  0  0  0  0  0
  -18.0295  -26.0048   22.8995 H   0  0  0  0  0  0
  -19.7927  -30.7233   24.2284 H   0  0  0  0  0  0
  -17.5019  -31.6271   24.5140 H   0  0  0  0  0  0
  -15.5343  -30.2995   23.7642 H   0  0  0  0  0  0
  -15.8639  -28.0812   22.7080 H   0  0  0  0  0  0
  -24.5909  -30.7057   25.7801 H   0  0  0  0  0  0
  -24.8929  -32.2849   26.4939 H   0  0  0  0  0  0
  -25.8089  -30.8852   27.0228 H   0  0  0  0  0  0
  -26.2891  -29.6788   24.1191 H   0  0  0  0  0  0
  -27.4156  -29.7335   25.4567 H   0  0  0  0  0  0
  -27.8695  -30.4415   23.9243 H   0  0  0  0  0  0
  -27.2655  -33.3625   26.2107 H   0  0  0  0  0  0
  -28.3825  -32.6919   25.0313 H   0  0  0  0  0  0
  -28.0734  -31.8453   26.5388 H   0  0  0  0  0  0
  -28.2591  -38.0123   24.7539 H   0  0  0  0  0  0
  -28.1100  -36.2656   24.6263 H   0  0  0  0  0  0
  -27.2306  -37.1432   25.8862 H   0  0  0  0  0  0
  -20.9276  -29.8798   21.7026 H   0  0  0  0  0  0
  -26.0200  -38.2881   24.1401 H   0  0  0  0  0  0
  -31.2290  -18.3933   25.7192 H   0  0  0  0  0  0
  -31.5506  -16.7708   23.8814 H   0  0  0  0  0  0
  -30.0405  -20.5176   25.3173 H   0  0  0  0  0  0
  -29.7463  -21.9505   21.3129 H   0  0  0  0  0  0
  -31.8461  -16.8913   21.1642 H   0  0  0  0  0  0
  -30.3775  -17.3273   20.3412 H   0  0  0  0  0  0
  -27.6808  -24.2396   20.2390 H   0  0  0  0  0  0
  -29.4213  -24.0999   20.2942 H   0  0  0  0  0  0
  -29.0830  -15.6109   21.4589 H   0  0  0  0  0  0
  -30.3706  -15.2210   22.5788 H   0  0  0  0  0  0
  -29.6499  -26.1452   21.5686 H   0  0  0  0  0  0
  -27.9677  -26.1955   22.0185 H   0  0  0  0  0  0
  1 25  1  0  0  0
  1 30  2  0  0  0
  1 81  1  0  0  0
  2  3  1  0  0  0
  2 25  1  0  0  0
  2 86  1  0  0  0
  2 87  1  0  0  0
  3  4  1  0  0  0
  3 88  1  0  0  0
  3 89  1  0  0  0
  4  5  1  0  0  0
  4 90  1  0  0  0
  4 91  1  0  0  0
  5  6  1  0  0  0
  5 26  1  0  0  0
  5 92  1  0  0  0
  6 25  1  0  0  0
  6 93  1  0  0  0
  6 94  1  0  0  0
  7  8  2  0  0  0
  7 26  1  0  0  0
  7 29  1  0  0  0
  8  9  1  0  0  0
  8 22  1  0  0  0
  9 10  1  0  0  0
  9 27  2  0  0  0
 10 11  2  0  0  0
 10 15  1  0  0  0
 11 12  1  0  0  0
 11 95  1  0  0  0
 12 13  2  0  0  0
 12 96  1  0  0  0
 13 14  1  0  0  0
 13 31  1  0  0  0
 14 15  2  0  0  0
 14 97  1  0  0  0
 15 98  1  0  0  0
 16 17  2  0  0  0
 16 21  1  0  0  0
 16 31  1  0  0  0
 17 18  1  0  0  0
 17 99  1  0  0  0
 18 19  2  0  0  0
 18100  1  0  0  0
 19 20  1  0  0  0
 19 24  1  0  0  0
 20 21  2  0  0  0
 20101  1  0  0  0
 21 23  1  0  0  0
 22 28  1  0  0  0
 22 32  2  0  0  0
 26 27  1  0  0  0
 28102  1  0  0  0
 28103  1  0  0  0
 29104  1  0  0  0
 29105  1  0  0  0
 33 34  1  0  0  0
 33 66  1  0  0  0
 33 70  2  0  0  0
 34 36  1  0  0  0
 34 59  1  0  0  0
 34106  1  0  0  0
 35 44  2  0  0  0
 35 45  1  0  0  0
 35 68  1  0  0  0
 36 56  1  0  0  0
 36107  1  0  0  0
 37 39  1  0  0  0
 37 47  1  0  0  0
 37 66  1  0  0  0
 37108  1  0  0  0
 38 43  2  0  0  0
 38 46  1  0  0  0
 38 47  1  0  0  0
 39 64  1  0  0  0
 39 67  2  0  0  0
 40 52  1  0  0  0
 40 53  2  0  0  0
 40 58  1  0  0  0
 41109  1  0  0  0
 41110  1  0  0  0
 41111  1  0  0  0
 41 48  1  0  0  0
 42 43  1  0  0  0
 42 66  1  0  0  0
 42112  1  0  0  0
 42113  1  0  0  0
 43 44  1  0  0  0
 44114  1  0  0  0
 45 46  2  0  0  0
 45115  1  0  0  0
 46116  1  0  0  0
 47117  1  0  0  0
 47118  1  0  0  0
 48 56  1  0  0  0
 48 65  1  0  0  0
 48119  1  0  0  0
 49 50  1  0  0  0
 49 53  1  0  0  0
 49 64  1  0  0  0
 49120  1  0  0  0
 50 51  1  0  0  0
 50121  1  0  0  0
 50122  1  0  0  0
 51 52  1  0  0  0
 51123  1  0  0  0
 51124  1  0  0  0
 52125  1  0  0  0
 52126  1  0  0  0
 53 54  1  0  0  0
 54 55  2  0  0  0
 54127  1  0  0  0
 55 57  1  0  0  0
 55128  1  0  0  0
 56 69  2  0  0  0
 57 58  2  0  0  0
 57129  1  0  0  0
 58130  1  0  0  0
 59 60  1  0  0  0
 59 61  1  0  0  0
 59 62  1  0  0  0
 60131  1  0  0  0
 60132  1  0  0  0
 60133  1  0  0  0
 61134  1  0  0  0
 61135  1  0  0  0
 61136  1  0  0  0
 62137  1  0  0  0
 62138  1  0  0  0
 62139  1  0  0  0
 63 65  1  0  0  0
 63140  1  0  0  0
 63141  1  0  0  0
 63142  1  0  0  0
 64143  1  0  0  0
 65144  1  0  0  0
 68 82  1  0  0  0
 71 72  2  0  0  0
 71 73  1  0  0  0
 71145  1  0  0  0
 72 74  1  0  0  0
 72146  1  0  0  0
 73 75  2  0  0  0
 73147  1  0  0  0
 74 76  2  0  0  0
 74 79  1  0  0  0
 75 76  1  0  0  0
 75 83  1  0  0  0
 76 85  1  0  0  0
 77 78  1  0  0  0
 77 83  2  0  0  0
 77148  1  0  0  0
 78 80  1  0  0  0
 78 84  2  0  0  0
 79 81  1  0  0  0
 79149  1  0  0  0
 79150  1  0  0  0
 80 82  1  0  0  0
 80151  1  0  0  0
 80152  1  0  0  0
 81153  1  0  0  0
 81154  1  0  0  0
 82155  1  0  0  0
 82156  1  0  0  0
M  ISO  4   1 100  68 101  81 100  82 101
M  END
> <chiral flag>
0

> <version>
0

> <s_m_source_file>
/data/baiqing/PycharmProjects/Reinvent-master-3.2/result/LINK_invent/BTK/process_docking_weight1_custom_product_contain_oxygen_bond_distance_aromatic_linkinvent_7_9_3/rearranged_h_0173.sdf

> <i_m_source_file_index>
9

> <r_mmod_Potential_Energy-OPLS-2005>
-16.1020774841309

> <r_mmod_Stretch_Energy-OPLS-2005>
37.31494140625

> <r_mmod_Bend_Energy-OPLS-2005>
98.9859924316406

> <r_mmod_Torsional_Energy-OPLS-2005>
206.060928344727

> <r_mmod_Improper_Torsional_Energy-OPLS-2005>
2.00523447990417

> <r_mmod_Van_der_Waal_Energy-OPLS-2005>
153.702423095703

> <r_mmod_Electrostatic_Energy-OPLS-2005>
-308.221038818359

> <r_mmod_Solvation_Energy-OPLS-2005>
-213.789810180664

> <b_mmod_Minimization_Converged-OPLS-2005>
0

> <r_mmod_RMS_Derivative-OPLS-2005>
1.21228528022766

$$$$
9
                    3D
 Structure written by MMmdl.
158166  0  0  1  0            999 V2000
  -30.6954  -14.5463   20.5499 C   0  0  0  0  0  0
  -30.4330  -12.3448   19.4743 C   0  0  0  0  0  0
  -29.5176  -12.5106   18.2432 C   0  0  0  0  0  0
  -28.0355  -12.3575   18.6512 C   0  0  0  0  0  0
  -27.6572  -13.2214   19.8829 C   0  0  2  0  0  0
  -28.6999  -13.0473   21.0154 C   0  0  0  0  0  0
  -25.2512  -13.8218   20.5752 C   0  0  0  0  0  0
  -24.1810  -13.0430   20.9267 C   0  0  0  0  0  0
  -24.6374  -11.6895   20.8741 C   0  0  0  0  0  0
  -23.9026  -10.4283   21.0373 C   0  0  0  0  0  0
  -24.3567   -9.4208   21.9179 C   0  0  0  0  0  0
  -23.6259   -8.2231   22.0742 C   0  0  0  0  0  0
  -22.4270   -8.0255   21.3499 C   0  0  0  0  0  0
  -21.9871   -9.0227   20.4626 C   0  0  0  0  0  0
  -22.7179  -10.2127   20.3036 C   0  0  0  0  0  0
  -21.6857   -6.0711   22.5280 C   0  0  0  0  0  0
  -21.4006   -6.5611   23.8216 C   0  0  0  0  0  0
  -21.3661   -5.6771   24.9178 C   0  0  0  0  0  0
  -21.6055   -4.3035   24.7239 C   0  0  0  0  0  0
  -21.8816   -3.8117   23.4366 C   0  0  0  0  0  0
  -21.9184   -4.6935   22.3409 C   0  0  0  0  0  0
  -22.7810  -13.5182   21.1929 C   0  0  0  0  0  0
  -22.1648   -4.2101   21.0993 F   0  0  0  0  0  0
  -21.5639   -3.4530   25.7760 F   0  0  0  0  0  0
  -30.0248  -13.3627   20.4580 N   0  0  0  0  0  0
  -26.2974  -12.9393   20.3393 N   0  0  0  0  0  0
  -25.9298  -11.6532   20.5795 N   0  0  0  0  0  0
  -22.0407  -12.8194   22.0490 N   0  0  0  0  0  0
  -25.4168  -15.1950   20.4147 N   0  0  0  0  0  0
  -31.8624  -14.6394   20.1656 O   0  0  0  0  0  0
  -21.6623   -6.8857   21.4234 O   0  0  0  0  0  0
  -22.3480  -14.5460   20.6760 O   0  0  0  0  0  0
  -24.6154  -31.8709   23.2187 C   0  0  0  0  0  0
  -25.9060  -32.4822   23.8475 C   0  0  1  0  0  0
  -27.2183  -27.4059   20.1031 C   0  0  0  0  0  0
  -25.5970  -33.8628   24.2381 N   0  0  0  0  0  0
  -23.4041  -30.4994   21.5591 C   0  0  2  0  0  0
  -24.8402  -28.9775   20.1071 C   0  0  0  0  0  0
  -22.7476  -29.4670   22.4986 C   0  0  0  0  0  0
  -18.0283  -28.1379   22.8682 C   0  0  0  0  0  0
  -24.1512  -36.7308   23.2630 C   0  0  0  0  0  0
  -25.9354  -30.8299   21.3777 C   0  0  0  0  0  0
  -26.0058  -29.4697   20.7063 C   0  0  0  0  0  0
  -27.1926  -28.6959   20.6922 C   0  0  0  0  0  0
  -26.0188  -26.9257   19.5211 C   0  0  0  0  0  0
  -24.8449  -27.7055   19.5118 C   0  0  0  0  0  0
  -23.6118  -29.8582   20.1618 C   0  0  0  0  0  0
  -25.4128  -36.3100   24.0315 C   0  0  1  0  0  0
  -20.5893  -28.3692   23.1354 C   0  0  2  0  0  0
  -20.6811  -26.9520   22.5216 C   0  0  0  0  0  0
  -19.5585  -26.6378   21.5260 C   0  0  0  0  0  0
  -18.1920  -26.7814   22.2091 C   0  0  0  0  0  0
  -19.1575  -28.8853   23.2958 C   0  0  0  0  0  0
  -18.9584  -30.1544   23.8801 C   0  0  0  0  0  0
  -17.6626  -30.6777   24.0442 C   0  0  0  0  0  0
  -25.9047  -34.9466   23.5121 C   0  0  0  0  0  0
  -16.5470  -29.9232   23.6383 C   0  0  0  0  0  0
  -16.7309  -28.6558   23.0557 C   0  0  0  0  0  0
  -26.4535  -31.6588   25.0789 C   0  0  0  0  0  0
  -25.3816  -31.3654   26.1528 C   0  0  0  0  0  0
  -27.0369  -30.3018   24.6184 C   0  0  0  0  0  0
  -27.6124  -32.4303   25.7551 C   0  0  0  0  0  0
  -27.5595  -37.1812   24.8466 C   0  0  0  0  0  0
  -21.4167  -29.3267   22.3979 N   0  0  0  0  0  0
  -26.4322  -37.3774   23.9372 N   0  0  0  0  0  0
  -24.6689  -31.0806   22.1090 N   0  0  0  0  0  0
  -23.4321  -28.7999   23.2816 O   0  0  0  0  0  0
  -28.4062  -26.6789   20.1375 O   0  0  0  0  0  0
  -26.5586  -34.8916   22.4661 O   0  0  0  0  0  0
  -23.5341  -32.1475   23.7589 O   0  0  0  0  0  0
  -28.2493  -17.7295   19.6650 C   0  0  0  0  0  0
  -27.3237  -18.7151   19.2942 C   0  0  0  0  0  0
  -29.2603  -18.0012   20.6138 C   0  0  0  0  0  0
  -29.3239  -19.3228   21.1844 C   0  0  0  0  0  0
  -28.4447  -20.3582   20.7115 C   0  0  0  0  0  0
  -27.4183  -20.0200   19.7974 C   0  0  0  0  0  0
  -30.3353  -16.9391   20.8384 C   0  0  0  0  0  0
  -28.7260  -22.7672   20.1359 C   0  0  0  0  0  0
  -28.4816  -25.3101   19.6609 C   0  0  0  0  0  0
  -30.3443  -19.6572   22.2801 C   0  0  0  0  0  0
  -28.5507  -24.1865   20.7453 C   0  0  1  0  0  0
  -28.5783  -21.6997   21.1519 N   0  0  0  0  0  0
  -29.9407  -15.6378   20.8617 N   0  0  0  0  0  0
  -31.5078  -17.3058   20.9486 O   0  0  0  0  0  0
  -27.3454  -24.0479   21.4689 O   0  0  0  0  0  0
  -26.4886  -20.9340   19.4223 F   0  0  0  0  0  0
  -29.7799  -20.3899   23.2460 F   0  0  0  0  0  0
  -31.3663  -20.3404   21.7637 F   0  0  0  0  0  0
  -31.4827  -12.4405   19.1876 H   0  0  0  0  0  0
  -30.3463  -11.3452   19.9088 H   0  0  0  0  0  0
  -29.7826  -11.7809   17.4771 H   0  0  0  0  0  0
  -29.6802  -13.4918   17.7969 H   0  0  0  0  0  0
  -27.8774  -11.3060   18.8908 H   0  0  0  0  0  0
  -27.3798  -12.5857   17.8097 H   0  0  0  0  0  0
  -27.6866  -14.2628   19.5577 H   0  0  0  0  0  0
  -28.6992  -12.0164   21.3788 H   0  0  0  0  0  0
  -28.4620  -13.6702   21.8808 H   0  0  0  0  0  0
  -25.2694   -9.5712   22.4777 H   0  0  0  0  0  0
  -23.9964   -7.4636   22.7451 H   0  0  0  0  0  0
  -21.0809   -8.8732   19.8943 H   0  0  0  0  0  0
  -22.3605  -10.9657   19.6158 H   0  0  0  0  0  0
  -21.1995   -7.6115   23.9710 H   0  0  0  0  0  0
  -21.1489   -6.0498   25.9083 H   0  0  0  0  0  0
  -22.0600   -2.7573   23.2888 H   0  0  0  0  0  0
  -22.3920  -11.9829   22.4912 H   0  0  0  0  0  0
  -21.1031  -13.1248   22.2623 H   0  0  0  0  0  0
  -24.6322  -15.8345   20.5043 H   0  0  0  0  0  0
  -26.2438  -15.6464   20.0483 H   0  0  0  0  0  0
  -26.7138  -32.5504   23.1253 H   0  0  0  0  0  0
  -25.0183  -33.9827   25.0565 H   0  0  0  0  0  0
  -22.6935  -31.3181   21.4358 H   0  0  0  0  0  0
  -23.3770  -35.9654   23.3295 H   0  0  0  0  0  0
  -24.3618  -36.8909   22.2053 H   0  0  0  0  0  0
  -23.7295  -37.6515   23.6647 H   0  0  0  0  0  0
  -26.0711  -31.6175   20.6352 H   0  0  0  0  0  0
  -26.8101  -30.8579   22.0111 H   0  0  0  0  0  0
  -28.0919  -29.0861   21.1496 H   0  0  0  0  0  0
  -25.9487  -25.9458   19.0783 H   0  0  0  0  0  0
  -23.9406  -27.3223   19.0578 H   0  0  0  0  0  0
  -23.7383  -30.6542   19.4288 H   0  0  0  0  0  0
  -22.7316  -29.3025   19.8428 H   0  0  0  0  0  0
  -25.1321  -36.1968   25.0813 H   0  0  0  0  0  0
  -20.9984  -28.3027   24.1467 H   0  0  0  0  0  0
  -20.6099  -26.2244   23.3340 H   0  0  0  0  0  0
  -21.6565  -26.7787   22.0717 H   0  0  0  0  0  0
  -19.6756  -25.6330   21.1182 H   0  0  0  0  0  0
  -19.6292  -27.3235   20.6809 H   0  0  0  0  0  0
  -17.3899  -26.6188   21.4885 H   0  0  0  0  0  0
  -18.0765  -26.0208   22.9835 H   0  0  0  0  0  0
  -19.8073  -30.7431   24.2055 H   0  0  0  0  0  0
  -17.5325  -31.6567   24.4847 H   0  0  0  0  0  0
  -15.5529  -30.3242   23.7777 H   0  0  0  0  0  0
  -15.8675  -28.0849   22.7431 H   0  0  0  0  0  0
  -24.6023  -30.6994   25.7828 H   0  0  0  0  0  0
  -24.9023  -32.2792   26.5030 H   0  0  0  0  0  0
  -25.8193  -30.8777   27.0242 H   0  0  0  0  0  0
  -26.2894  -29.6752   24.1320 H   0  0  0  0  0  0
  -27.4191  -29.7301   25.4656 H   0  0  0  0  0  0
  -27.8725  -30.4309   23.9304 H   0  0  0  0  0  0
  -27.2755  -33.3579   26.2180 H   0  0  0  0  0  0
  -28.3913  -32.6867   25.0364 H   0  0  0  0  0  0
  -28.0822  -31.8400   26.5426 H   0  0  0  0  0  0
  -28.2605  -38.0125   24.7503 H   0  0  0  0  0  0
  -28.1110  -36.2641   24.6317 H   0  0  0  0  0  0
  -27.2293  -37.1461   25.8872 H   0  0  0  0  0  0
  -20.9201  -29.9700   21.7980 H   0  0  0  0  0  0
  -26.0203  -38.2842   24.1378 H   0  0  0  0  0  0
  -28.1771  -16.7734   19.1651 H   0  0  0  0  0  0
  -26.5478  -18.4769   18.5848 H   0  0  0  0  0  0
  -29.7200  -22.6897   19.6852 H   0  0  0  0  0  0
  -28.0066  -22.6502   19.3229 H   0  0  0  0  0  0
  -29.4311  -25.2623   19.1232 H   0  0  0  0  0  0
  -27.7608  -25.0599   18.8883 H   0  0  0  0  0  0
  -30.7562  -18.7923   22.8029 H   0  0  0  0  0  0
  -29.3733  -24.3686   21.4405 H   0  0  0  0  0  0
  -29.2551  -21.7817   21.9042 H   0  0  0  0  0  0
  -28.9596  -15.4795   20.9936 H   0  0  0  0  0  0
  -27.3498  -23.1200   21.7121 H   0  0  0  0  0  0
  1 25  1  0  0  0
  1 30  2  0  0  0
  1 83  1  0  0  0
  2  3  1  0  0  0
  2 25  1  0  0  0
  2 89  1  0  0  0
  2 90  1  0  0  0
  3  4  1  0  0  0
  3 91  1  0  0  0
  3 92  1  0  0  0
  4  5  1  0  0  0
  4 93  1  0  0  0
  4 94  1  0  0  0
  5  6  1  0  0  0
  5 26  1  0  0  0
  5 95  1  0  0  0
  6 25  1  0  0  0
  6 96  1  0  0  0
  6 97  1  0  0  0
  7  8  2  0  0  0
  7 26  1  0  0  0
  7 29  1  0  0  0
  8  9  1  0  0  0
  8 22  1  0  0  0
  9 10  1  0  0  0
  9 27  2  0  0  0
 10 11  2  0  0  0
 10 15  1  0  0  0
 11 12  1  0  0  0
 11 98  1  0  0  0
 12 13  2  0  0  0
 12 99  1  0  0  0
 13 14  1  0  0  0
 13 31  1  0  0  0
 14 15  2  0  0  0
 14100  1  0  0  0
 15101  1  0  0  0
 16 17  2  0  0  0
 16 21  1  0  0  0
 16 31  1  0  0  0
 17 18  1  0  0  0
 17102  1  0  0  0
 18 19  2  0  0  0
 18103  1  0  0  0
 19 20  1  0  0  0
 19 24  1  0  0  0
 20 21  2  0  0  0
 20104  1  0  0  0
 21 23  1  0  0  0
 22 28  1  0  0  0
 22 32  2  0  0  0
 26 27  1  0  0  0
 28105  1  0  0  0
 28106  1  0  0  0
 29107  1  0  0  0
 29108  1  0  0  0
 33 34  1  0  0  0
 33 66  1  0  0  0
 33 70  2  0  0  0
 34 36  1  0  0  0
 34 59  1  0  0  0
 34109  1  0  0  0
 35 44  2  0  0  0
 35 45  1  0  0  0
 35 68  1  0  0  0
 36 56  1  0  0  0
 36110  1  0  0  0
 37 39  1  0  0  0
 37 47  1  0  0  0
 37 66  1  0  0  0
 37111  1  0  0  0
 38 43  2  0  0  0
 38 46  1  0  0  0
 38 47  1  0  0  0
 39 64  1  0  0  0
 39 67  2  0  0  0
 40 52  1  0  0  0
 40 53  2  0  0  0
 40 58  1  0  0  0
 41112  1  0  0  0
 41113  1  0  0  0
 41114  1  0  0  0
 41 48  1  0  0  0
 42 43  1  0  0  0
 42 66  1  0  0  0
 42115  1  0  0  0
 42116  1  0  0  0
 43 44  1  0  0  0
 44117  1  0  0  0
 45 46  2  0  0  0
 45118  1  0  0  0
 46119  1  0  0  0
 47120  1  0  0  0
 47121  1  0  0  0
 48 56  1  0  0  0
 48 65  1  0  0  0
 48122  1  0  0  0
 49 50  1  0  0  0
 49 53  1  0  0  0
 49 64  1  0  0  0
 49123  1  0  0  0
 50 51  1  0  0  0
 50124  1  0  0  0
 50125  1  0  0  0
 51 52  1  0  0  0
 51126  1  0  0  0
 51127  1  0  0  0
 52128  1  0  0  0
 52129  1  0  0  0
 53 54  1  0  0  0
 54 55  2  0  0  0
 54130  1  0  0  0
 55 57  1  0  0  0
 55131  1  0  0  0
 56 69  2  0  0  0
 57 58  2  0  0  0
 57132  1  0  0  0
 58133  1  0  0  0
 59 60  1  0  0  0
 59 61  1  0  0  0
 59 62  1  0  0  0
 60134  1  0  0  0
 60135  1  0  0  0
 60136  1  0  0  0
 61137  1  0  0  0
 61138  1  0  0  0
 61139  1  0  0  0
 62140  1  0  0  0
 62141  1  0  0  0
 62142  1  0  0  0
 63 65  1  0  0  0
 63143  1  0  0  0
 63144  1  0  0  0
 63145  1  0  0  0
 64146  1  0  0  0
 65147  1  0  0  0
 68 79  1  0  0  0
 71 72  2  0  0  0
 71 73  1  0  0  0
 71148  1  0  0  0
 72 76  1  0  0  0
 72149  1  0  0  0
 73 74  2  0  0  0
 73 77  1  0  0  0
 74 75  1  0  0  0
 74 80  1  0  0  0
 75 76  2  0  0  0
 75 82  1  0  0  0
 76 86  1  0  0  0
 77 83  1  0  0  0
 77 84  2  0  0  0
 78 81  1  0  0  0
 78 82  1  0  0  0
 78150  1  0  0  0
 78151  1  0  0  0
 79 81  1  0  0  0
 79152  1  0  0  0
 79153  1  0  0  0
 80 87  1  0  0  0
 80 88  1  0  0  0
 80154  1  0  0  0
 81 85  1  0  0  0
 81155  1  0  0  0
 82156  1  0  0  0
 83157  1  0  0  0
 85158  1  0  0  0
M  ISO  4   1 100  68 101  79 101  83 100
M  END
> <chiral flag>
0

> <version>
0

> <s_m_source_file>
/data/baiqing/PycharmProjects/Reinvent-master-3.2/result/LINK_invent/BTK/process_docking_weight1_custom_product_contain_oxygen_bond_distance_aromatic_linkinvent_7_9_3/rearranged_h_0173.sdf

> <i_m_source_file_index>
10

> <r_mmod_Potential_Energy-OPLS-2005>
-70.7913589477539

> <r_mmod_Stretch_Energy-OPLS-2005>
53.275707244873

> <r_mmod_Bend_Energy-OPLS-2005>
124.991683959961

> <r_mmod_Torsional_Energy-OPLS-2005>
262.706329345703

> <r_mmod_Improper_Torsional_Energy-OPLS-2005>
10.9577035903931

> <r_mmod_Van_der_Waal_Energy-OPLS-2005>
168.630065917969

> <r_mmod_Electrostatic_Energy-OPLS-2005>
-473.430786132812

> <r_mmod_Solvation_Energy-OPLS-2005>
-242.62434387207

> <b_mmod_Minimization_Converged-OPLS-2005>
0

> <r_mmod_RMS_Derivative-OPLS-2005>
7.94345092773438

$$$$
10
                    3D
 Structure written by MMmdl.
153161  0  0  1  0            999 V2000
  -30.6922  -14.5236   20.4570 C   0  0  0  0  0  0
  -30.4189  -12.3037   19.4364 C   0  0  0  0  0  0
  -29.4953  -12.4667   18.2103 C   0  0  0  0  0  0
  -28.0189  -12.3292   18.6320 C   0  0  0  0  0  0
  -27.6570  -13.2079   19.8592 C   0  0  2  0  0  0
  -28.7033  -13.0558   20.9879 C   0  0  0  0  0  0
  -25.2595  -13.8166   20.5685 C   0  0  0  0  0  0
  -24.1836  -13.0445   20.9168 C   0  0  0  0  0  0
  -24.6401  -11.6909   20.8749 C   0  0  0  0  0  0
  -23.9069  -10.4299   21.0410 C   0  0  0  0  0  0
  -24.3622   -9.4208   21.9182 C   0  0  0  0  0  0
  -23.6289   -8.2242   22.0760 C   0  0  0  0  0  0
  -22.4272   -8.0285   21.3556 C   0  0  0  0  0  0
  -21.9907   -9.0256   20.4646 C   0  0  0  0  0  0
  -22.7248  -10.2133   20.3053 C   0  0  0  0  0  0
  -21.6854   -6.0732   22.5278 C   0  0  0  0  0  0
  -21.4022   -6.5637   23.8210 C   0  0  0  0  0  0
  -21.3661   -5.6789   24.9170 C   0  0  0  0  0  0
  -21.6042   -4.3049   24.7218 C   0  0  0  0  0  0
  -21.8820   -3.8146   23.4342 C   0  0  0  0  0  0
  -21.9201   -4.6957   22.3397 C   0  0  0  0  0  0
  -22.7869  -13.5234   21.1831 C   0  0  0  0  0  0
  -22.1669   -4.2149   21.0974 F   0  0  0  0  0  0
  -21.5623   -3.4533   25.7732 F   0  0  0  0  0  0
  -30.0289  -13.3324   20.4140 N   0  0  0  0  0  0
  -26.3025  -12.9341   20.3336 N   0  0  0  0  0  0
  -25.9330  -11.6508   20.5778 N   0  0  0  0  0  0
  -22.0511  -12.8235   22.0389 N   0  0  0  0  0  0
  -25.4302  -15.1881   20.4072 N   0  0  0  0  0  0
  -31.8693  -14.6220   20.1134 O   0  0  0  0  0  0
  -21.6646   -6.8873   21.4239 O   0  0  0  0  0  0
  -22.3564  -14.5546   20.6672 O   0  0  0  0  0  0
  -24.6176  -31.8711   23.2075 C   0  0  0  0  0  0
  -25.9065  -32.4845   23.8407 C   0  0  1  0  0  0
  -27.2116  -27.4136   20.1033 C   0  0  0  0  0  0
  -25.5933  -33.8652   24.2341 N   0  0  0  0  0  0
  -23.4057  -30.4934   21.5451 C   0  0  2  0  0  0
  -24.8534  -28.9710   20.0947 C   0  0  0  0  0  0
  -22.7419  -29.4699   22.4927 C   0  0  0  0  0  0
  -18.0289  -28.1428   22.8519 C   0  0  0  0  0  0
  -24.1492  -36.7317   23.2627 C   0  0  0  0  0  0
  -25.9376  -30.8288   21.3671 C   0  0  0  0  0  0
  -26.0148  -29.4698   20.7005 C   0  0  0  0  0  0
  -27.2018  -28.6962   20.7024 C   0  0  0  0  0  0
  -26.0482  -26.9538   19.4497 C   0  0  0  0  0  0
  -24.8652  -27.7164   19.4596 C   0  0  0  0  0  0
  -23.6139  -29.8375   20.1565 C   0  0  0  0  0  0
  -25.4125  -36.3153   24.0334 C   0  0  1  0  0  0
  -20.5877  -28.3746   23.1301 C   0  0  2  0  0  0
  -20.6775  -26.9487   22.5428 C   0  0  0  0  0  0
  -19.5740  -26.6458   21.5221 C   0  0  0  0  0  0
  -18.1928  -26.8007   22.1636 C   0  0  0  0  0  0
  -19.1532  -28.8901   23.2915 C   0  0  0  0  0  0
  -18.9468  -30.1491   23.8965 C   0  0  0  0  0  0
  -17.6470  -30.6630   24.0600 C   0  0  0  0  0  0
  -25.9047  -34.9498   23.5133 C   0  0  0  0  0  0
  -16.5358  -29.9146   23.6332 C   0  0  0  0  0  0
  -16.7280  -28.6544   23.0389 C   0  0  0  0  0  0
  -26.4481  -31.6600   25.0740 C   0  0  0  0  0  0
  -25.3746  -31.3706   26.1488 C   0  0  0  0  0  0
  -27.0302  -30.3028   24.6147 C   0  0  0  0  0  0
  -27.6091  -32.4272   25.7501 C   0  0  0  0  0  0
  -27.5577  -37.1825   24.8470 C   0  0  0  0  0  0
  -21.4144  -29.3080   22.3666 N   0  0  0  0  0  0
  -26.4325  -37.3805   23.9378 N   0  0  0  0  0  0
  -24.6713  -31.0794   22.0966 N   0  0  0  0  0  0
  -23.4181  -28.8223   23.2972 O   0  0  0  0  0  0
  -28.2820  -26.5493   20.2584 O   0  0  0  0  0  0
  -26.5579  -34.8929   22.4687 O   0  0  0  0  0  0
  -23.5361  -32.1541   23.7422 O   0  0  0  0  0  0
  -31.1237  -19.2795   20.1988 C   0  0  0  0  0  0
  -29.7539  -19.2501   20.3610 C   0  0  0  0  0  0
  -30.2429  -16.9855   20.4765 C   0  0  0  0  0  0
  -29.1884  -21.8621   20.2999 C   0  0  0  0  0  0
  -28.0439  -25.2773   20.8086 C   0  0  0  0  0  0
  -27.1635  -25.1194   21.8592 C   0  0  0  0  0  0
  -28.8311  -24.1650   20.2133 C   0  0  0  0  0  0
  -26.6893  -23.8564   22.5690 C   0  0  0  0  0  0
  -28.7302  -20.3895   20.3945 C   0  0  0  0  0  0
  -29.2845  -17.9258   20.5274 N   0  0  0  0  0  0
  -28.3780  -22.8570   20.4465 N   0  0  0  0  0  0
  -29.9145  -15.6072   20.6779 N   0  0  0  0  0  0
  -29.8334  -24.4197   19.5397 O   0  0  0  0  0  0
  -26.5624  -26.1490   22.4779 O   0  0  0  0  0  0
  -31.8361  -17.6806   20.1651 S   0  0  0  0  0  0
  -31.4687  -12.3717   19.1423 H   0  0  0  0  0  0
  -30.2997  -11.3119   19.8718 H   0  0  0  0  0  0
  -29.7325  -11.7142   17.4573 H   0  0  0  0  0  0
  -29.6607  -13.4356   17.7361 H   0  0  0  0  0  0
  -27.8444  -11.2792   18.8674 H   0  0  0  0  0  0
  -27.3559  -12.5622   17.7983 H   0  0  0  0  0  0
  -27.6784  -14.2415   19.5135 H   0  0  0  0  0  0
  -28.6812  -12.0464   21.3992 H   0  0  0  0  0  0
  -28.4749  -13.7198   21.8242 H   0  0  0  0  0  0
  -25.2760   -9.5678   22.4759 H   0  0  0  0  0  0
  -23.9998   -7.4639   22.7485 H   0  0  0  0  0  0
  -21.0840   -8.8773   19.8952 H   0  0  0  0  0  0
  -22.3708  -10.9668   19.6159 H   0  0  0  0  0  0
  -21.2029   -7.6150   23.9713 H   0  0  0  0  0  0
  -21.1473   -6.0517   25.9070 H   0  0  0  0  0  0
  -22.0605   -2.7604   23.2837 H   0  0  0  0  0  0
  -22.4138  -11.9887   22.4760 H   0  0  0  0  0  0
  -21.1128  -13.1262   22.2613 H   0  0  0  0  0  0
  -24.6571  -15.8362   20.5039 H   0  0  0  0  0  0
  -26.2784  -15.6332   20.0792 H   0  0  0  0  0  0
  -26.7173  -32.5530   23.1196 H   0  0  0  0  0  0
  -25.0123  -33.9818   25.0522 H   0  0  0  0  0  0
  -22.6954  -31.3109   21.4092 H   0  0  0  0  0  0
  -23.3748  -35.9645   23.3361 H   0  0  0  0  0  0
  -24.3548  -36.8873   22.2017 H   0  0  0  0  0  0
  -23.7270  -37.6559   23.6593 H   0  0  0  0  0  0
  -26.0617  -31.6085   20.6128 H   0  0  0  0  0  0
  -26.8201  -30.8721   21.9936 H   0  0  0  0  0  0
  -28.0870  -29.0465   21.2128 H   0  0  0  0  0  0
  -26.0363  -25.9784   18.9876 H   0  0  0  0  0  0
  -23.9752  -27.3294   18.9866 H   0  0  0  0  0  0
  -23.7162  -30.6217   19.4076 H   0  0  0  0  0  0
  -22.7422  -29.2563   19.8561 H   0  0  0  0  0  0
  -25.1296  -36.2055   25.0822 H   0  0  0  0  0  0
  -20.9960  -28.3393   24.1424 H   0  0  0  0  0  0
  -20.5732  -26.2373   23.3640 H   0  0  0  0  0  0
  -21.6640  -26.7564   22.1196 H   0  0  0  0  0  0
  -19.6906  -25.6372   21.1258 H   0  0  0  0  0  0
  -19.6686  -27.3263   20.6750 H   0  0  0  0  0  0
  -17.4197  -26.6810   21.4051 H   0  0  0  0  0  0
  -18.0317  -26.0134   22.9013 H   0  0  0  0  0  0
  -19.7937  -30.7269   24.2399 H   0  0  0  0  0  0
  -17.5030  -31.6306   24.5212 H   0  0  0  0  0  0
  -15.5350  -30.3071   23.7624 H   0  0  0  0  0  0
  -15.8677  -28.0841   22.7130 H   0  0  0  0  0  0
  -24.5946  -30.7026   25.7827 H   0  0  0  0  0  0
  -24.8894  -32.2837   26.4930 H   0  0  0  0  0  0
  -25.8098  -30.8904   27.0259 H   0  0  0  0  0  0
  -26.2889  -29.6828   24.1105 H   0  0  0  0  0  0
  -27.3961  -29.7229   25.4630 H   0  0  0  0  0  0
  -27.8753  -30.4282   23.9378 H   0  0  0  0  0  0
  -27.2774  -33.3582   26.2078 H   0  0  0  0  0  0
  -28.3892  -32.6817   25.0322 H   0  0  0  0  0  0
  -28.0748  -31.8392   26.5407 H   0  0  0  0  0  0
  -28.2667  -38.0053   24.7451 H   0  0  0  0  0  0
  -28.1023  -36.2600   24.6416 H   0  0  0  0  0  0
  -27.2263  -37.1602   25.8865 H   0  0  0  0  0  0
  -20.9323  -29.8766   21.6865 H   0  0  0  0  0  0
  -26.0262  -38.2917   24.1321 H   0  0  0  0  0  0
  -31.7783  -20.1330   20.0857 H   0  0  0  0  0  0
  -30.2580  -21.9891   20.1067 H   0  0  0  0  0  0
  -27.5194  -23.3529   23.0611 H   0  0  0  0  0  0
  -26.2285  -23.1677   21.8597 H   0  0  0  0  0  0
  -25.9296  -24.0537   23.3297 H   0  0  0  0  0  0
  -28.1409  -20.2945   21.3056 H   0  0  0  0  0  0
  -28.0217  -20.2347   19.5779 H   0  0  0  0  0  0
  -28.9502  -15.4177   20.9010 H   0  0  0  0  0  0
  -25.9476  -25.7973   23.1089 H   0  0  0  0  0  0
  1 25  1  0  0  0
  1 30  2  0  0  0
  1 82  1  0  0  0
  2  3  1  0  0  0
  2 25  1  0  0  0
  2 86  1  0  0  0
  2 87  1  0  0  0
  3  4  1  0  0  0
  3 88  1  0  0  0
  3 89  1  0  0  0
  4  5  1  0  0  0
  4 90  1  0  0  0
  4 91  1  0  0  0
  5  6  1  0  0  0
  5 26  1  0  0  0
  5 92  1  0  0  0
  6 25  1  0  0  0
  6 93  1  0  0  0
  6 94  1  0  0  0
  7  8  2  0  0  0
  7 26  1  0  0  0
  7 29  1  0  0  0
  8  9  1  0  0  0
  8 22  1  0  0  0
  9 10  1  0  0  0
  9 27  2  0  0  0
 10 11  2  0  0  0
 10 15  1  0  0  0
 11 12  1  0  0  0
 11 95  1  0  0  0
 12 13  2  0  0  0
 12 96  1  0  0  0
 13 14  1  0  0  0
 13 31  1  0  0  0
 14 15  2  0  0  0
 14 97  1  0  0  0
 15 98  1  0  0  0
 16 17  2  0  0  0
 16 21  1  0  0  0
 16 31  1  0  0  0
 17 18  1  0  0  0
 17 99  1  0  0  0
 18 19  2  0  0  0
 18100  1  0  0  0
 19 20  1  0  0  0
 19 24  1  0  0  0
 20 21  2  0  0  0
 20101  1  0  0  0
 21 23  1  0  0  0
 22 28  1  0  0  0
 22 32  2  0  0  0
 26 27  1  0  0  0
 28102  1  0  0  0
 28103  1  0  0  0
 29104  1  0  0  0
 29105  1  0  0  0
 33 34  1  0  0  0
 33 66  1  0  0  0
 33 70  2  0  0  0
 34 36  1  0  0  0
 34 59  1  0  0  0
 34106  1  0  0  0
 35 44  2  0  0  0
 35 45  1  0  0  0
 35 68  1  0  0  0
 36 56  1  0  0  0
 36107  1  0  0  0
 37 39  1  0  0  0
 37 47  1  0  0  0
 37 66  1  0  0  0
 37108  1  0  0  0
 38 43  2  0  0  0
 38 46  1  0  0  0
 38 47  1  0  0  0
 39 64  1  0  0  0
 39 67  2  0  0  0
 40 52  1  0  0  0
 40 53  2  0  0  0
 40 58  1  0  0  0
 41109  1  0  0  0
 41110  1  0  0  0
 41111  1  0  0  0
 41 48  1  0  0  0
 42 43  1  0  0  0
 42 66  1  0  0  0
 42112  1  0  0  0
 42113  1  0  0  0
 43 44  1  0  0  0
 44114  1  0  0  0
 45 46  2  0  0  0
 45115  1  0  0  0
 46116  1  0  0  0
 47117  1  0  0  0
 47118  1  0  0  0
 48 56  1  0  0  0
 48 65  1  0  0  0
 48119  1  0  0  0
 49 50  1  0  0  0
 49 53  1  0  0  0
 49 64  1  0  0  0
 49120  1  0  0  0
 50 51  1  0  0  0
 50121  1  0  0  0
 50122  1  0  0  0
 51 52  1  0  0  0
 51123  1  0  0  0
 51124  1  0  0  0
 52125  1  0  0  0
 52126  1  0  0  0
 53 54  1  0  0  0
 54 55  2  0  0  0
 54127  1  0  0  0
 55 57  1  0  0  0
 55128  1  0  0  0
 56 69  2  0  0  0
 57 58  2  0  0  0
 57129  1  0  0  0
 58130  1  0  0  0
 59 60  1  0  0  0
 59 61  1  0  0  0
 59 62  1  0  0  0
 60131  1  0  0  0
 60132  1  0  0  0
 60133  1  0  0  0
 61134  1  0  0  0
 61135  1  0  0  0
 61136  1  0  0  0
 62137  1  0  0  0
 62138  1  0  0  0
 62139  1  0  0  0
 63 65  1  0  0  0
 63140  1  0  0  0
 63141  1  0  0  0
 63142  1  0  0  0
 64143  1  0  0  0
 65144  1  0  0  0
 68 75  1  0  0  0
 71 72  2  0  0  0
 71 85  1  0  0  0
 71145  1  0  0  0
 72 79  1  0  0  0
 72 80  1  0  0  0
 73 80  2  0  0  0
 73 82  1  0  0  0
 73 85  1  0  0  0
 74 79  1  0  0  0
 74 81  2  0  0  0
 74146  1  0  0  0
 75 76  2  0  0  0
 75 77  1  0  0  0
 76 78  1  0  0  0
 76 84  1  0  0  0
 77 81  1  0  0  0
 77 83  2  0  0  0
 78147  1  0  0  0
 78148  1  0  0  0
 78149  1  0  0  0
 79150  1  0  0  0
 79151  1  0  0  0
 82152  1  0  0  0
 84153  1  0  0  0
M  ISO  4   1 100  68 101  75 101  82 100
M  END
> <chiral flag>
0

> <version>
0

> <s_m_source_file>
/data/baiqing/PycharmProjects/Reinvent-master-3.2/result/LINK_invent/BTK/process_docking_weight1_custom_product_contain_oxygen_bond_distance_aromatic_linkinvent_7_9_3/rearranged_h_0173.sdf

> <i_m_source_file_index>
11

> <r_mmod_Potential_Energy-OPLS-2005>
7.32249116897583

> <r_mmod_Stretch_Energy-OPLS-2005>
52.2199096679688

> <r_mmod_Bend_Energy-OPLS-2005>
122.200508117676

> <r_mmod_Torsional_Energy-OPLS-2005>
226.494674682617

> <r_mmod_Improper_Torsional_Energy-OPLS-2005>
6.1520791053772

> <r_mmod_Van_der_Waal_Energy-OPLS-2005>
157.907440185547

> <r_mmod_Electrostatic_Energy-OPLS-2005>
-373.140502929688

> <r_mmod_Solvation_Energy-OPLS-2005>
-217.767990112305

> <b_mmod_Minimization_Converged-OPLS-2005>
0

> <r_mmod_RMS_Derivative-OPLS-2005>
5.62468671798706

$$$$
11
                    3D
 Structure written by MMmdl.
154162  0  0  1  0            999 V2000
  -30.6137  -14.7359   20.4815 C   0  0  0  0  0  0
  -30.4346  -12.4575   19.4615 C   0  0  0  0  0  0
  -29.5086  -12.5151   18.2272 C   0  0  0  0  0  0
  -28.0342  -12.3378   18.6414 C   0  0  0  0  0  0
  -27.6406  -13.2317   19.8482 C   0  0  2  0  0  0
  -28.6869  -13.1582   20.9807 C   0  0  0  0  0  0
  -25.2503  -13.8194   20.5668 C   0  0  0  0  0  0
  -24.1802  -13.0440   20.9190 C   0  0  0  0  0  0
  -24.6395  -11.6916   20.8737 C   0  0  0  0  0  0
  -23.9078  -10.4289   21.0398 C   0  0  0  0  0  0
  -24.3624   -9.4202   21.9180 C   0  0  0  0  0  0
  -23.6291   -8.2244   22.0756 C   0  0  0  0  0  0
  -22.4276   -8.0276   21.3546 C   0  0  0  0  0  0
  -21.9916   -9.0249   20.4648 C   0  0  0  0  0  0
  -22.7248  -10.2125   20.3047 C   0  0  0  0  0  0
  -21.6856   -6.0731   22.5273 C   0  0  0  0  0  0
  -21.4021   -6.5635   23.8206 C   0  0  0  0  0  0
  -21.3656   -5.6789   24.9170 C   0  0  0  0  0  0
  -21.6040   -4.3051   24.7224 C   0  0  0  0  0  0
  -21.8822   -3.8143   23.4345 C   0  0  0  0  0  0
  -21.9193   -4.6958   22.3400 C   0  0  0  0  0  0
  -22.7818  -13.5209   21.1854 C   0  0  0  0  0  0
  -22.1661   -4.2145   21.0977 F   0  0  0  0  0  0
  -21.5628   -3.4535   25.7735 F   0  0  0  0  0  0
  -29.9845  -13.5146   20.3948 N   0  0  0  0  0  0
  -26.2934  -12.9401   20.3259 N   0  0  0  0  0  0
  -25.9326  -11.6540   20.5737 N   0  0  0  0  0  0
  -22.0467  -12.8198   22.0406 N   0  0  0  0  0  0
  -25.4168  -15.1922   20.4066 N   0  0  0  0  0  0
  -31.8114  -14.8272   20.1951 O   0  0  0  0  0  0
  -21.6634   -6.8874   21.4234 O   0  0  0  0  0  0
  -22.3505  -14.5517   20.6694 O   0  0  0  0  0  0
  -24.6298  -31.8554   23.1987 C   0  0  0  0  0  0
  -25.9130  -32.4754   23.8324 C   0  0  1  0  0  0
  -27.2187  -27.2742   20.1323 C   0  0  0  0  0  0
  -25.5937  -33.8547   24.2252 N   0  0  0  0  0  0
  -23.4261  -30.4765   21.5429 C   0  0  2  0  0  0
  -24.8738  -28.9200   20.1152 C   0  0  0  0  0  0
  -22.7495  -29.4582   22.4918 C   0  0  0  0  0  0
  -18.0289  -28.1366   22.8465 C   0  0  0  0  0  0
  -24.1491  -36.7263   23.2634 C   0  0  0  0  0  0
  -25.9708  -30.7750   21.3726 C   0  0  0  0  0  0
  -26.0459  -29.3956   20.7187 C   0  0  0  0  0  0
  -27.2265  -28.5858   20.7121 C   0  0  0  0  0  0
  -26.0259  -26.8556   19.5098 C   0  0  0  0  0  0
  -24.8665  -27.6566   19.5016 C   0  0  0  0  0  0
  -23.6444  -29.8080   20.1589 C   0  0  0  0  0  0
  -25.4113  -36.3053   24.0330 C   0  0  1  0  0  0
  -20.5892  -28.3651   23.1271 C   0  0  2  0  0  0
  -20.6766  -26.9361   22.5413 C   0  0  0  0  0  0
  -19.5753  -26.6370   21.5198 C   0  0  0  0  0  0
  -18.1925  -26.7910   22.1599 C   0  0  0  0  0  0
  -19.1545  -28.8819   23.2862 C   0  0  0  0  0  0
  -18.9477  -30.1419   23.8883 C   0  0  0  0  0  0
  -17.6477  -30.6558   24.0555 C   0  0  0  0  0  0
  -25.9054  -34.9429   23.5085 C   0  0  0  0  0  0
  -16.5357  -29.9059   23.6329 C   0  0  0  0  0  0
  -16.7279  -28.6480   23.0337 C   0  0  0  0  0  0
  -26.4504  -31.6564   25.0694 C   0  0  0  0  0  0
  -25.3736  -31.3743   26.1422 C   0  0  0  0  0  0
  -27.0317  -30.2979   24.6145 C   0  0  0  0  0  0
  -27.6069  -32.4285   25.7475 C   0  0  0  0  0  0
  -27.5578  -37.1778   24.8466 C   0  0  0  0  0  0
  -21.4205  -29.3012   22.3674 N   0  0  0  0  0  0
  -26.4281  -37.3763   23.9423 N   0  0  0  0  0  0
  -24.6952  -31.0528   22.0958 N   0  0  0  0  0  0
  -23.4202  -28.8104   23.3002 O   0  0  0  0  0  0
  -28.3097  -26.3852   20.1298 O   0  0  0  0  0  0
  -26.5631  -34.8919   22.4655 O   0  0  0  0  0  0
  -23.5459  -32.1351   23.7311 O   0  0  0  0  0  0
  -31.3738  -17.6116   21.5508 C   0  0  0  0  0  0
  -30.9356  -20.0285   21.4106 C   0  0  0  0  0  0
  -30.1951  -17.2996   20.8355 C   0  0  0  0  0  0
  -29.7369  -19.8318   20.6866 C   0  0  0  0  0  0
  -31.7344  -18.9449   21.8305 C   0  0  0  0  0  0
  -29.3835  -18.4386   20.4186 C   0  0  0  0  0  0
  -28.5738  -23.7018   20.0704 C   0  0  0  0  0  0
  -28.0014  -22.2464   22.1466 C   0  0  0  0  0  0
  -28.1200  -25.0577   20.8020 C   0  0  0  0  0  0
  -28.9342  -22.3546   20.9263 C   0  0  2  0  0  0
  -29.8271  -15.8708   20.6319 N   0  0  0  0  0  0
  -28.9810  -20.9939   20.2382 N   0  0  0  0  0  0
  -28.6430  -23.6920   18.8381 O   0  0  0  0  0  0
  -32.8736  -19.1923   22.5222 F   0  0  0  0  0  0
  -28.2365  -18.1904   19.7412 F   0  0  0  0  0  0
  -31.4733  -12.5927   19.1553 H   0  0  0  0  0  0
  -30.3863  -11.4775   19.9375 H   0  0  0  0  0  0
  -29.7903  -11.7514   17.5008 H   0  0  0  0  0  0
  -29.6336  -13.4745   17.7230 H   0  0  0  0  0  0
  -27.8880  -11.2876   18.8964 H   0  0  0  0  0  0
  -27.3790  -12.5369   17.7936 H   0  0  0  0  0  0
  -27.6346  -14.2541   19.4704 H   0  0  0  0  0  0
  -28.7235  -12.1577   21.4134 H   0  0  0  0  0  0
  -28.4249  -13.8356   21.7950 H   0  0  0  0  0  0
  -25.2766   -9.5675   22.4754 H   0  0  0  0  0  0
  -23.9988   -7.4641   22.7484 H   0  0  0  0  0  0
  -21.0842   -8.8774   19.8955 H   0  0  0  0  0  0
  -22.3708  -10.9664   19.6150 H   0  0  0  0  0  0
  -21.2020   -7.6145   23.9710 H   0  0  0  0  0  0
  -21.1476   -6.0520   25.9073 H   0  0  0  0  0  0
  -22.0604   -2.7605   23.2845 H   0  0  0  0  0  0
  -22.4076  -11.9849   22.4778 H   0  0  0  0  0  0
  -21.1085  -13.1221   22.2603 H   0  0  0  0  0  0
  -24.6423  -15.8391   20.5067 H   0  0  0  0  0  0
  -26.2525  -15.6372   20.0510 H   0  0  0  0  0  0
  -26.7188  -32.5441   23.1069 H   0  0  0  0  0  0
  -25.0098  -33.9699   25.0406 H   0  0  0  0  0  0
  -22.7205  -31.2963   21.3970 H   0  0  0  0  0  0
  -23.3764  -35.9579   23.3264 H   0  0  0  0  0  0
  -24.3592  -36.8927   22.2056 H   0  0  0  0  0  0
  -23.7236  -37.6448   23.6682 H   0  0  0  0  0  0
  -26.1030  -31.5351   20.6010 H   0  0  0  0  0  0
  -26.8505  -30.8300   22.0031 H   0  0  0  0  0  0
  -28.1295  -28.9478   21.1842 H   0  0  0  0  0  0
  -25.9863  -25.8836   19.0383 H   0  0  0  0  0  0
  -23.9679  -27.2867   19.0264 H   0  0  0  0  0  0
  -23.7731  -30.5848   19.4041 H   0  0  0  0  0  0
  -22.7625  -29.2427   19.8506 H   0  0  0  0  0  0
  -25.1293  -36.1899   25.0827 H   0  0  0  0  0  0
  -20.9983  -28.3240   24.1392 H   0  0  0  0  0  0
  -20.5655  -26.2252   23.3615 H   0  0  0  0  0  0
  -21.6635  -26.7376   22.1224 H   0  0  0  0  0  0
  -19.6920  -25.6301   21.1191 H   0  0  0  0  0  0
  -19.6723  -27.3209   20.6756 H   0  0  0  0  0  0
  -17.4210  -26.6659   21.3987 H   0  0  0  0  0  0
  -18.0298  -26.0060   22.9000 H   0  0  0  0  0  0
  -19.7962  -30.7215   24.2263 H   0  0  0  0  0  0
  -17.5041  -31.6257   24.5123 H   0  0  0  0  0  0
  -15.5353  -30.2950   23.7675 H   0  0  0  0  0  0
  -15.8679  -28.0807   22.7046 H   0  0  0  0  0  0
  -24.5935  -30.7054   25.7770 H   0  0  0  0  0  0
  -24.8895  -32.2926   26.4754 H   0  0  0  0  0  0
  -25.8058  -30.9009   27.0246 H   0  0  0  0  0  0
  -26.2854  -29.6750   24.1198 H   0  0  0  0  0  0
  -27.4027  -29.7234   25.4640 H   0  0  0  0  0  0
  -27.8740  -30.4238   23.9333 H   0  0  0  0  0  0
  -27.2709  -33.3681   26.1877 H   0  0  0  0  0  0
  -28.3976  -32.6663   25.0341 H   0  0  0  0  0  0
  -28.0584  -31.8484   26.5538 H   0  0  0  0  0  0
  -28.2555  -38.0107   24.7525 H   0  0  0  0  0  0
  -28.1113  -36.2640   24.6261 H   0  0  0  0  0  0
  -27.2305  -37.1375   25.8869 H   0  0  0  0  0  0
  -20.9363  -29.8777   21.6934 H   0  0  0  0  0  0
  -26.0156  -38.2828   24.1466 H   0  0  0  0  0  0
  -32.0145  -16.8247   21.9196 H   0  0  0  0  0  0
  -31.2853  -21.0223   21.6423 H   0  0  0  0  0  0
  -28.2971  -21.4256   22.7994 H   0  0  0  0  0  0
  -26.9648  -22.0756   21.8510 H   0  0  0  0  0  0
  -28.0249  -23.1473   22.7591 H   0  0  0  0  0  0
  -28.6603  -25.1073   21.7471 H   0  0  0  0  0  0
  -27.0704  -24.9368   21.0695 H   0  0  0  0  0  0
  -29.9310  -22.5448   21.3187 H   0  0  0  0  0  0
  -28.8348  -15.6960   20.5980 H   0  0  0  0  0  0
  -28.1968  -20.7909   19.6222 H   0  0  0  0  0  0
  1 25  1  0  0  0
  1 30  2  0  0  0
  1 81  1  0  0  0
  2  3  1  0  0  0
  2 25  1  0  0  0
  2 86  1  0  0  0
  2 87  1  0  0  0
  3  4  1  0  0  0
  3 88  1  0  0  0
  3 89  1  0  0  0
  4  5  1  0  0  0
  4 90  1  0  0  0
  4 91  1  0  0  0
  5  6  1  0  0  0
  5 26  1  0  0  0
  5 92  1  0  0  0
  6 25  1  0  0  0
  6 93  1  0  0  0
  6 94  1  0  0  0
  7  8  2  0  0  0
  7 26  1  0  0  0
  7 29  1  0  0  0
  8  9  1  0  0  0
  8 22  1  0  0  0
  9 10  1  0  0  0
  9 27  2  0  0  0
 10 11  2  0  0  0
 10 15  1  0  0  0
 11 12  1  0  0  0
 11 95  1  0  0  0
 12 13  2  0  0  0
 12 96  1  0  0  0
 13 14  1  0  0  0
 13 31  1  0  0  0
 14 15  2  0  0  0
 14 97  1  0  0  0
 15 98  1  0  0  0
 16 17  2  0  0  0
 16 21  1  0  0  0
 16 31  1  0  0  0
 17 18  1  0  0  0
 17 99  1  0  0  0
 18 19  2  0  0  0
 18100  1  0  0  0
 19 20  1  0  0  0
 19 24  1  0  0  0
 20 21  2  0  0  0
 20101  1  0  0  0
 21 23  1  0  0  0
 22 28  1  0  0  0
 22 32  2  0  0  0
 26 27  1  0  0  0
 28102  1  0  0  0
 28103  1  0  0  0
 29104  1  0  0  0
 29105  1  0  0  0
 33 34  1  0  0  0
 33 66  1  0  0  0
 33 70  2  0  0  0
 34 36  1  0  0  0
 34 59  1  0  0  0
 34106  1  0  0  0
 35 44  2  0  0  0
 35 45  1  0  0  0
 35 68  1  0  0  0
 36 56  1  0  0  0
 36107  1  0  0  0
 37 39  1  0  0  0
 37 47  1  0  0  0
 37 66  1  0  0  0
 37108  1  0  0  0
 38 43  2  0  0  0
 38 46  1  0  0  0
 38 47  1  0  0  0
 39 64  1  0  0  0
 39 67  2  0  0  0
 40 52  1  0  0  0
 40 53  2  0  0  0
 40 58  1  0  0  0
 41109  1  0  0  0
 41110  1  0  0  0
 41111  1  0  0  0
 41 48  1  0  0  0
 42 43  1  0  0  0
 42 66  1  0  0  0
 42112  1  0  0  0
 42113  1  0  0  0
 43 44  1  0  0  0
 44114  1  0  0  0
 45 46  2  0  0  0
 45115  1  0  0  0
 46116  1  0  0  0
 47117  1  0  0  0
 47118  1  0  0  0
 48 56  1  0  0  0
 48 65  1  0  0  0
 48119  1  0  0  0
 49 50  1  0  0  0
 49 53  1  0  0  0
 49 64  1  0  0  0
 49120  1  0  0  0
 50 51  1  0  0  0
 50121  1  0  0  0
 50122  1  0  0  0
 51 52  1  0  0  0
 51123  1  0  0  0
 51124  1  0  0  0
 52125  1  0  0  0
 52126  1  0  0  0
 53 54  1  0  0  0
 54 55  2  0  0  0
 54127  1  0  0  0
 55 57  1  0  0  0
 55128  1  0  0  0
 56 69  2  0  0  0
 57 58  2  0  0  0
 57129  1  0  0  0
 58130  1  0  0  0
 59 60  1  0  0  0
 59 61  1  0  0  0
 59 62  1  0  0  0
 60131  1  0  0  0
 60132  1  0  0  0
 60133  1  0  0  0
 61134  1  0  0  0
 61135  1  0  0  0
 61136  1  0  0  0
 62137  1  0  0  0
 62138  1  0  0  0
 62139  1  0  0  0
 63 65  1  0  0  0
 63140  1  0  0  0
 63141  1  0  0  0
 63142  1  0  0  0
 64143  1  0  0  0
 65144  1  0  0  0
 68 79  1  0  0  0
 71 73  2  0  0  0
 71 75  1  0  0  0
 71145  1  0  0  0
 72 74  1  0  0  0
 72 75  2  0  0  0
 72146  1  0  0  0
 73 76  1  0  0  0
 73 81  1  0  0  0
 74 76  2  0  0  0
 74 82  1  0  0  0
 75 84  1  0  0  0
 76 85  1  0  0  0
 77 79  1  0  0  0
 77 80  1  0  0  0
 77 83  2  0  0  0
 78147  1  0  0  0
 78148  1  0  0  0
 78149  1  0  0  0
 78 80  1  0  0  0
 79150  1  0  0  0
 79151  1  0  0  0
 80 82  1  0  0  0
 80152  1  0  0  0
 81153  1  0  0  0
 82154  1  0  0  0
M  ISO  4   1 100  68 101  79 101  81 100
M  END
> <chiral flag>
0

> <version>
0

> <s_m_source_file>
/data/baiqing/PycharmProjects/Reinvent-master-3.2/result/LINK_invent/BTK/process_docking_weight1_custom_product_contain_oxygen_bond_distance_aromatic_linkinvent_7_9_3/rearranged_h_0173.sdf

> <i_m_source_file_index>
12

> <r_mmod_Potential_Energy-OPLS-2005>
227.210311889648

> <r_mmod_Stretch_Energy-OPLS-2005>
125.615478515625

> <r_mmod_Bend_Energy-OPLS-2005>
159.843887329102

> <r_mmod_Torsional_Energy-OPLS-2005>
239.767807006836

> <r_mmod_Improper_Torsional_Energy-OPLS-2005>
7.31657838821411

> <r_mmod_Van_der_Waal_Energy-OPLS-2005>
134.42561340332

> <r_mmod_Electrostatic_Energy-OPLS-2005>
-293.404937744141

> <r_mmod_Solvation_Energy-OPLS-2005>
-226.014572143555

> <b_mmod_Minimization_Converged-OPLS-2005>
0

> <r_mmod_RMS_Derivative-OPLS-2005>
2.24249410629272

$$$$
12
                    3D
 Structure written by MMmdl.
161169  0  0  1  0            999 V2000
  -30.6181  -14.6215   20.5448 C   0  0  0  0  0  0
  -30.4400  -12.3891   19.4604 C   0  0  0  0  0  0
  -29.5094  -12.5183   18.2328 C   0  0  0  0  0  0
  -28.0313  -12.3538   18.6394 C   0  0  0  0  0  0
  -27.6564  -13.2131   19.8759 C   0  0  2  0  0  0
  -28.6966  -13.0429   21.0069 C   0  0  0  0  0  0
  -25.2560  -13.8176   20.5687 C   0  0  0  0  0  0
  -24.1812  -13.0445   20.9172 C   0  0  0  0  0  0
  -24.6370  -11.6913   20.8734 C   0  0  0  0  0  0
  -23.9036  -10.4300   21.0397 C   0  0  0  0  0  0
  -24.3597   -9.4221   21.9175 C   0  0  0  0  0  0
  -23.6286   -8.2248   22.0749 C   0  0  0  0  0  0
  -22.4269   -8.0275   21.3541 C   0  0  0  0  0  0
  -21.9893   -9.0243   20.4641 C   0  0  0  0  0  0
  -22.7208  -10.2130   20.3047 C   0  0  0  0  0  0
  -21.6852   -6.0729   22.5274 C   0  0  0  0  0  0
  -21.4015   -6.5637   23.8209 C   0  0  0  0  0  0
  -21.3660   -5.6792   24.9173 C   0  0  0  0  0  0
  -21.6048   -4.3052   24.7224 C   0  0  0  0  0  0
  -21.8820   -3.8143   23.4345 C   0  0  0  0  0  0
  -21.9197   -4.6958   22.3402 C   0  0  0  0  0  0
  -22.7838  -13.5244   21.1849 C   0  0  0  0  0  0
  -22.1663   -4.2146   21.0979 F   0  0  0  0  0  0
  -21.5631   -3.4535   25.7737 F   0  0  0  0  0  0
  -30.0173  -13.3927   20.4583 N   0  0  0  0  0  0
  -26.2987  -12.9344   20.3365 N   0  0  0  0  0  0
  -25.9302  -11.6501   20.5775 N   0  0  0  0  0  0
  -22.0477  -12.8235   22.0402 N   0  0  0  0  0  0
  -25.4304  -15.1895   20.4091 N   0  0  0  0  0  0
  -31.7510  -14.8143   20.0900 O   0  0  0  0  0  0
  -21.6642   -6.8866   21.4233 O   0  0  0  0  0  0
  -22.3529  -14.5559   20.6712 O   0  0  0  0  0  0
  -24.6234  -31.8606   23.2022 C   0  0  0  0  0  0
  -25.9088  -32.4783   23.8345 C   0  0  1  0  0  0
  -27.2224  -27.3269   20.1142 C   0  0  0  0  0  0
  -25.5918  -33.8590   24.2278 N   0  0  0  0  0  0
  -23.4173  -30.4876   21.5427 C   0  0  2  0  0  0
  -24.8626  -28.9438   20.1097 C   0  0  0  0  0  0
  -22.7451  -29.4654   22.4906 C   0  0  0  0  0  0
  -18.0291  -28.1403   22.8511 C   0  0  0  0  0  0
  -24.1487  -36.7280   23.2640 C   0  0  0  0  0  0
  -25.9568  -30.7954   21.3702 C   0  0  0  0  0  0
  -26.0314  -29.4238   20.7114 C   0  0  0  0  0  0
  -27.2151  -28.6277   20.7048 C   0  0  0  0  0  0
  -26.0283  -26.8995   19.4871 C   0  0  0  0  0  0
  -24.8613  -27.6847   19.4902 C   0  0  0  0  0  0
  -23.6312  -29.8258   20.1571 C   0  0  0  0  0  0
  -25.4118  -36.3093   24.0330 C   0  0  1  0  0  0
  -20.5890  -28.3706   23.1273 C   0  0  2  0  0  0
  -20.6785  -26.9427   22.5407 C   0  0  0  0  0  0
  -19.5762  -26.6395   21.5212 C   0  0  0  0  0  0
  -18.1938  -26.7957   22.1618 C   0  0  0  0  0  0
  -19.1545  -28.8860   23.2903 C   0  0  0  0  0  0
  -18.9475  -30.1459   23.8927 C   0  0  0  0  0  0
  -17.6489  -30.6617   24.0573 C   0  0  0  0  0  0
  -25.9054  -34.9461   23.5102 C   0  0  0  0  0  0
  -16.5373  -29.9127   23.6338 C   0  0  0  0  0  0
  -16.7278  -28.6531   23.0380 C   0  0  0  0  0  0
  -26.4472  -31.6600   25.0708 C   0  0  0  0  0  0
  -25.3721  -31.3743   26.1446 C   0  0  0  0  0  0
  -27.0292  -30.3026   24.6146 C   0  0  0  0  0  0
  -27.6031  -32.4321   25.7491 C   0  0  0  0  0  0
  -27.5585  -37.1796   24.8473 C   0  0  0  0  0  0
  -21.4162  -29.3071   22.3651 N   0  0  0  0  0  0
  -26.4295  -37.3787   23.9424 N   0  0  0  0  0  0
  -24.6848  -31.0635   22.0962 N   0  0  0  0  0  0
  -23.4178  -28.8179   23.2968 O   0  0  0  0  0  0
  -28.3403  -26.4797   20.1691 O   0  0  0  0  0  0
  -26.5616  -34.8924   22.4673 O   0  0  0  0  0  0
  -23.5404  -32.1382   23.7374 O   0  0  0  0  0  0
  -28.9583  -17.8786   21.6757 C   0  0  0  0  0  0
  -30.6641  -17.7992   19.9855 C   0  0  0  0  0  0
  -29.8513  -17.0841   20.9028 C   0  0  0  0  0  0
  -29.6714  -20.0075   20.6098 C   0  0  0  0  0  0
  -28.8681  -19.3049   21.5546 C   0  0  0  0  0  0
  -30.5793  -19.2163   19.8504 C   0  0  0  0  0  0
  -28.7724  -22.4561   20.5980 C   0  0  0  0  0  0
  -30.9388  -23.6005   22.4756 C   0  0  0  0  0  0
  -26.7087  -19.6348   22.4752 C   0  0  0  0  0  0
  -29.7917  -24.4496   21.8934 C   0  0  0  0  0  0
  -28.1095  -25.0176   20.0549 C   0  0  0  0  0  0
  -29.2312  -23.9812   20.5250 C   0  0  2  0  0  0
  -29.7064  -21.4643   20.4348 N   0  0  0  0  0  0
  -29.8531  -15.6266   21.0761 N   0  0  0  0  0  0
  -27.5776  -22.2018   20.7659 O   0  0  0  0  0  0
  -28.0745  -20.0260   22.4145 O   0  0  0  0  0  0
  -31.4013  -19.8372   18.9708 F   0  0  0  0  0  0
  -30.2334  -24.0543   19.6431 F   0  0  0  0  0  0
  -31.4808  -12.5217   19.1596 H   0  0  0  0  0  0
  -30.3800  -11.3865   19.8861 H   0  0  0  0  0  0
  -29.7748  -11.7763   17.4784 H   0  0  0  0  0  0
  -29.6514  -13.4949   17.7657 H   0  0  0  0  0  0
  -27.8629  -11.2989   18.8576 H   0  0  0  0  0  0
  -27.3790  -12.5970   17.7996 H   0  0  0  0  0  0
  -27.6858  -14.2540   19.5530 H   0  0  0  0  0  0
  -28.7023  -12.0139   21.3692 H   0  0  0  0  0  0
  -28.4311  -13.6525   21.8716 H   0  0  0  0  0  0
  -25.2738   -9.5714   22.4748 H   0  0  0  0  0  0
  -24.0008   -7.4643   22.7461 H   0  0  0  0  0  0
  -21.0831   -8.8743   19.8942 H   0  0  0  0  0  0
  -22.3651  -10.9662   19.6159 H   0  0  0  0  0  0
  -21.1998   -7.6145   23.9711 H   0  0  0  0  0  0
  -21.1484   -6.0521   25.9079 H   0  0  0  0  0  0
  -22.0599   -2.7604   23.2844 H   0  0  0  0  0  0
  -22.4079  -11.9884   22.4780 H   0  0  0  0  0  0
  -21.1101  -13.1273   22.2629 H   0  0  0  0  0  0
  -24.6608  -15.8440   20.4927 H   0  0  0  0  0  0
  -26.2853  -15.6223   20.0849 H   0  0  0  0  0  0
  -26.7151  -32.5437   23.1085 H   0  0  0  0  0  0
  -25.0083  -33.9743   25.0432 H   0  0  0  0  0  0
  -22.7129  -31.3092   21.4016 H   0  0  0  0  0  0
  -23.3765  -35.9597   23.3305 H   0  0  0  0  0  0
  -24.3591  -36.8893   22.2060 H   0  0  0  0  0  0
  -23.7214  -37.6476   23.6646 H   0  0  0  0  0  0
  -26.0876  -31.5619   20.6055 H   0  0  0  0  0  0
  -26.8360  -30.8415   21.9991 H   0  0  0  0  0  0
  -28.1113  -28.9951   21.1857 H   0  0  0  0  0  0
  -25.9643  -25.9422   18.9931 H   0  0  0  0  0  0
  -23.9641  -27.3098   19.0179 H   0  0  0  0  0  0
  -23.7535  -30.6043   19.4018 H   0  0  0  0  0  0
  -22.7496  -29.2585   19.8533 H   0  0  0  0  0  0
  -25.1303  -36.1939   25.0821 H   0  0  0  0  0  0
  -21.0001  -28.3285   24.1384 H   0  0  0  0  0  0
  -20.5679  -26.2317   23.3611 H   0  0  0  0  0  0
  -21.6646  -26.7467   22.1195 H   0  0  0  0  0  0
  -19.6923  -25.6294   21.1261 H   0  0  0  0  0  0
  -19.6708  -27.3181   20.6725 H   0  0  0  0  0  0
  -17.4207  -26.6711   21.4020 H   0  0  0  0  0  0
  -18.0339  -26.0104   22.9017 H   0  0  0  0  0  0
  -19.7956  -30.7264   24.2299 H   0  0  0  0  0  0
  -17.5060  -31.6308   24.5165 H   0  0  0  0  0  0
  -15.5378  -30.3062   23.7642 H   0  0  0  0  0  0
  -15.8671  -28.0854   22.7104 H   0  0  0  0  0  0
  -24.5930  -30.7034   25.7800 H   0  0  0  0  0  0
  -24.8862  -32.2908   26.4807 H   0  0  0  0  0  0
  -25.8075  -30.9002   27.0248 H   0  0  0  0  0  0
  -26.2843  -29.6807   24.1160 H   0  0  0  0  0  0
  -27.3991  -29.7253   25.4625 H   0  0  0  0  0  0
  -27.8718  -30.4321   23.9348 H   0  0  0  0  0  0
  -27.2647  -33.3645   26.2020 H   0  0  0  0  0  0
  -28.3873  -32.6835   25.0337 H   0  0  0  0  0  0
  -28.0642  -31.8464   26.5450 H   0  0  0  0  0  0
  -28.2584  -38.0108   24.7538 H   0  0  0  0  0  0
  -28.1090  -36.2640   24.6265 H   0  0  0  0  0  0
  -27.2310  -37.1405   25.8875 H   0  0  0  0  0  0
  -20.9298  -29.8838   21.6925 H   0  0  0  0  0  0
  -26.0172  -38.2850   24.1464 H   0  0  0  0  0  0
  -28.3486  -17.3794   22.4164 H   0  0  0  0  0  0
  -31.3692  -17.2688   19.3640 H   0  0  0  0  0  0
  -31.3955  -24.0938   23.3341 H   0  0  0  0  0  0
  -31.7218  -23.4319   21.7355 H   0  0  0  0  0  0
  -30.5851  -22.6273   22.8184 H   0  0  0  0  0  0
  -26.1680  -20.3316   23.1180 H   0  0  0  0  0  0
  -26.5702  -18.6347   22.8851 H   0  0  0  0  0  0
  -26.2515  -19.6794   21.4851 H   0  0  0  0  0  0
  -30.1526  -25.4732   21.7815 H   0  0  0  0  0  0
  -28.9804  -24.5100   22.6212 H   0  0  0  0  0  0
  -27.2083  -24.7881   20.6254 H   0  0  0  0  0  0
  -27.8749  -24.7946   19.0136 H   0  0  0  0  0  0
  -30.5948  -21.8172   20.1047 H   0  0  0  0  0  0
  -29.0561  -15.2647   21.5776 H   0  0  0  0  0  0
  1 25  1  0  0  0
  1 30  2  0  0  0
  1 84  1  0  0  0
  2  3  1  0  0  0
  2 25  1  0  0  0
  2 89  1  0  0  0
  2 90  1  0  0  0
  3  4  1  0  0  0
  3 91  1  0  0  0
  3 92  1  0  0  0
  4  5  1  0  0  0
  4 93  1  0  0  0
  4 94  1  0  0  0
  5  6  1  0  0  0
  5 26  1  0  0  0
  5 95  1  0  0  0
  6 25  1  0  0  0
  6 96  1  0  0  0
  6 97  1  0  0  0
  7  8  2  0  0  0
  7 26  1  0  0  0
  7 29  1  0  0  0
  8  9  1  0  0  0
  8 22  1  0  0  0
  9 10  1  0  0  0
  9 27  2  0  0  0
 10 11  2  0  0  0
 10 15  1  0  0  0
 11 12  1  0  0  0
 11 98  1  0  0  0
 12 13  2  0  0  0
 12 99  1  0  0  0
 13 14  1  0  0  0
 13 31  1  0  0  0
 14 15  2  0  0  0
 14100  1  0  0  0
 15101  1  0  0  0
 16 17  2  0  0  0
 16 21  1  0  0  0
 16 31  1  0  0  0
 17 18  1  0  0  0
 17102  1  0  0  0
 18 19  2  0  0  0
 18103  1  0  0  0
 19 20  1  0  0  0
 19 24  1  0  0  0
 20 21  2  0  0  0
 20104  1  0  0  0
 21 23  1  0  0  0
 22 28  1  0  0  0
 22 32  2  0  0  0
 26 27  1  0  0  0
 28105  1  0  0  0
 28106  1  0  0  0
 29107  1  0  0  0
 29108  1  0  0  0
 33 34  1  0  0  0
 33 66  1  0  0  0
 33 70  2  0  0  0
 34 36  1  0  0  0
 34 59  1  0  0  0
 34109  1  0  0  0
 35 44  2  0  0  0
 35 45  1  0  0  0
 35 68  1  0  0  0
 36 56  1  0  0  0
 36110  1  0  0  0
 37 39  1  0  0  0
 37 47  1  0  0  0
 37 66  1  0  0  0
 37111  1  0  0  0
 38 43  2  0  0  0
 38 46  1  0  0  0
 38 47  1  0  0  0
 39 64  1  0  0  0
 39 67  2  0  0  0
 40 52  1  0  0  0
 40 53  2  0  0  0
 40 58  1  0  0  0
 41112  1  0  0  0
 41113  1  0  0  0
 41114  1  0  0  0
 41 48  1  0  0  0
 42 43  1  0  0  0
 42 66  1  0  0  0
 42115  1  0  0  0
 42116  1  0  0  0
 43 44  1  0  0  0
 44117  1  0  0  0
 45 46  2  0  0  0
 45118  1  0  0  0
 46119  1  0  0  0
 47120  1  0  0  0
 47121  1  0  0  0
 48 56  1  0  0  0
 48 65  1  0  0  0
 48122  1  0  0  0
 49 50  1  0  0  0
 49 53  1  0  0  0
 49 64  1  0  0  0
 49123  1  0  0  0
 50 51  1  0  0  0
 50124  1  0  0  0
 50125  1  0  0  0
 51 52  1  0  0  0
 51126  1  0  0  0
 51127  1  0  0  0
 52128  1  0  0  0
 52129  1  0  0  0
 53 54  1  0  0  0
 54 55  2  0  0  0
 54130  1  0  0  0
 55 57  1  0  0  0
 55131  1  0  0  0
 56 69  2  0  0  0
 57 58  2  0  0  0
 57132  1  0  0  0
 58133  1  0  0  0
 59 60  1  0  0  0
 59 61  1  0  0  0
 59 62  1  0  0  0
 60134  1  0  0  0
 60135  1  0  0  0
 60136  1  0  0  0
 61137  1  0  0  0
 61138  1  0  0  0
 61139  1  0  0  0
 62140  1  0  0  0
 62141  1  0  0  0
 62142  1  0  0  0
 63 65  1  0  0  0
 63143  1  0  0  0
 63144  1  0  0  0
 63145  1  0  0  0
 64146  1  0  0  0
 65147  1  0  0  0
 68 81  1  0  0  0
 71 73  2  0  0  0
 71 75  1  0  0  0
 71148  1  0  0  0
 72 73  1  0  0  0
 72 76  2  0  0  0
 72149  1  0  0  0
 73 84  1  0  0  0
 74 75  2  0  0  0
 74 76  1  0  0  0
 74 83  1  0  0  0
 75 86  1  0  0  0
 76 87  1  0  0  0
 77 82  1  0  0  0
 77 83  1  0  0  0
 77 85  2  0  0  0
 78 80  1  0  0  0
 78150  1  0  0  0
 78151  1  0  0  0
 78152  1  0  0  0
 79 86  1  0  0  0
 79153  1  0  0  0
 79154  1  0  0  0
 79155  1  0  0  0
 80 82  1  0  0  0
 80156  1  0  0  0
 80157  1  0  0  0
 81 82  1  0  0  0
 81158  1  0  0  0
 81159  1  0  0  0
 82 88  1  0  0  0
 83160  1  0  0  0
 84161  1  0  0  0
M  ISO  4   1 100  68 101  81 101  84 100
M  END
> <chiral flag>
0

> <version>
0

> <s_m_source_file>
/data/baiqing/PycharmProjects/Reinvent-master-3.2/result/LINK_invent/BTK/process_docking_weight1_custom_product_contain_oxygen_bond_distance_aromatic_linkinvent_7_9_3/rearranged_h_0173.sdf

> <i_m_source_file_index>
13

> <r_mmod_Potential_Energy-OPLS-2005>
84.1204528808594

> <r_mmod_Stretch_Energy-OPLS-2005>
83.3810348510742

> <r_mmod_Bend_Energy-OPLS-2005>
143.414901733398

> <r_mmod_Torsional_Energy-OPLS-2005>
253.045928955078

> <r_mmod_Improper_Torsional_Energy-OPLS-2005>
3.52598237991333

> <r_mmod_Van_der_Waal_Energy-OPLS-2005>
150.15217590332

> <r_mmod_Electrostatic_Energy-OPLS-2005>
-375.082489013672

> <r_mmod_Solvation_Energy-OPLS-2005>
-218.217895507812

> <b_mmod_Minimization_Converged-OPLS-2005>
0

> <r_mmod_RMS_Derivative-OPLS-2005>
2.44332504272461

$$$$
13
                    3D
 Structure written by MMmdl.
154162  0  0  1  0            999 V2000
  -30.6632  -14.5451   20.5187 C   0  0  0  0  0  0
  -30.4272  -12.3344   19.4362 C   0  0  0  0  0  0
  -29.5048  -12.5044   18.2104 C   0  0  0  0  0  0
  -28.0246  -12.3585   18.6195 C   0  0  0  0  0  0
  -27.6566  -13.2100   19.8664 C   0  0  2  0  0  0
  -28.7007  -13.0329   20.9942 C   0  0  0  0  0  0
  -25.2577  -13.8130   20.5689 C   0  0  0  0  0  0
  -24.1839  -13.0406   20.9198 C   0  0  0  0  0  0
  -24.6388  -11.6870   20.8722 C   0  0  0  0  0  0
  -23.9044  -10.4264   21.0393 C   0  0  0  0  0  0
  -24.3595   -9.4187   21.9178 C   0  0  0  0  0  0
  -23.6279   -8.2220   22.0754 C   0  0  0  0  0  0
  -22.4266   -8.0255   21.3551 C   0  0  0  0  0  0
  -21.9890   -9.0223   20.4649 C   0  0  0  0  0  0
  -22.7213  -10.2103   20.3044 C   0  0  0  0  0  0
  -21.6846   -6.0723   22.5293 C   0  0  0  0  0  0
  -21.4005   -6.5638   23.8225 C   0  0  0  0  0  0
  -21.3668   -5.6789   24.9189 C   0  0  0  0  0  0
  -21.6058   -4.3051   24.7240 C   0  0  0  0  0  0
  -21.8812   -3.8134   23.4357 C   0  0  0  0  0  0
  -21.9191   -4.6951   22.3409 C   0  0  0  0  0  0
  -22.7867  -13.5221   21.1872 C   0  0  0  0  0  0
  -22.1662   -4.2131   21.0988 F   0  0  0  0  0  0
  -21.5642   -3.4541   25.7759 F   0  0  0  0  0  0
  -30.0224  -13.3443   20.4281 N   0  0  0  0  0  0
  -26.3007  -12.9307   20.3308 N   0  0  0  0  0  0
  -25.9316  -11.6463   20.5723 N   0  0  0  0  0  0
  -22.0488  -12.8210   22.0411 N   0  0  0  0  0  0
  -25.4264  -15.1864   20.4146 N   0  0  0  0  0  0
  -31.8300  -14.6929   20.1447 O   0  0  0  0  0  0
  -21.6620   -6.8861   21.4258 O   0  0  0  0  0  0
  -22.3581  -14.5551   20.6747 O   0  0  0  0  0  0
  -24.6189  -31.8655   23.2069 C   0  0  0  0  0  0
  -25.9075  -32.4806   23.8374 C   0  0  1  0  0  0
  -27.2303  -27.3963   20.0856 C   0  0  0  0  0  0
  -25.5914  -33.8606   24.2311 N   0  0  0  0  0  0
  -23.4068  -30.4915   21.5483 C   0  0  2  0  0  0
  -24.8493  -28.9553   20.1092 C   0  0  0  0  0  0
  -22.7431  -29.4659   22.4953 C   0  0  0  0  0  0
  -18.0279  -28.1386   22.8484 C   0  0  0  0  0  0
  -24.1494  -36.7321   23.2635 C   0  0  0  0  0  0
  -25.9398  -30.8218   21.3615 C   0  0  0  0  0  0
  -26.0126  -29.4538   20.7062 C   0  0  0  0  0  0
  -27.2014  -28.6811   20.6915 C   0  0  0  0  0  0
  -26.0335  -26.9160   19.5006 C   0  0  0  0  0  0
  -24.8567  -27.6881   19.5053 C   0  0  0  0  0  0
  -23.6136  -29.8266   20.1616 C   0  0  0  0  0  0
  -25.4112  -36.3107   24.0334 C   0  0  1  0  0  0
  -20.5877  -28.3681   23.1301 C   0  0  2  0  0  0
  -20.6770  -26.9412   22.5412 C   0  0  0  0  0  0
  -19.5750  -26.6391   21.5207 C   0  0  0  0  0  0
  -18.1927  -26.7933   22.1616 C   0  0  0  0  0  0
  -19.1532  -28.8847   23.2892 C   0  0  0  0  0  0
  -18.9451  -30.1451   23.8902 C   0  0  0  0  0  0
  -17.6456  -30.6584   24.0567 C   0  0  0  0  0  0
  -25.9043  -34.9469   23.5120 C   0  0  0  0  0  0
  -16.5348  -29.9088   23.6323 C   0  0  0  0  0  0
  -16.7274  -28.6511   23.0338 C   0  0  0  0  0  0
  -26.4480  -31.6592   25.0714 C   0  0  0  0  0  0
  -25.3721  -31.3723   26.1443 C   0  0  0  0  0  0
  -27.0289  -30.3022   24.6103 C   0  0  0  0  0  0
  -27.6058  -32.4297   25.7485 C   0  0  0  0  0  0
  -27.5590  -37.1810   24.8454 C   0  0  0  0  0  0
  -21.4157  -29.3043   22.3700 N   0  0  0  0  0  0
  -26.4297  -37.3795   23.9407 N   0  0  0  0  0  0
  -24.6745  -31.0738   22.0975 N   0  0  0  0  0  0
  -23.4196  -28.8195   23.2995 O   0  0  0  0  0  0
  -28.4086  -26.6592   20.1183 O   0  0  0  0  0  0
  -26.5602  -34.8930   22.4683 O   0  0  0  0  0  0
  -23.5375  -32.1415   23.7447 O   0  0  0  0  0  0
  -29.7903  -19.2697   20.5505 C   0  0  0  0  0  0
  -31.0946  -19.2653   20.9928 C   0  0  0  0  0  0
  -30.2012  -16.9976   20.8176 C   0  0  0  0  0  0
  -28.9939  -20.4936   20.1126 C   0  0  0  0  0  0
  -30.5347  -23.1374   18.4467 C   0  0  0  0  0  0
  -28.9146  -24.1790   20.1305 C   0  0  0  0  0  0
  -30.3140  -23.5730   17.0036 C   0  0  0  0  0  0
  -28.5766  -25.4633   19.3090 C   0  0  0  0  0  0
  -29.2997  -22.8848   19.3292 C   0  0  2  0  0  0
  -29.2893  -17.9390   20.4891 N   0  0  0  0  0  0
  -29.8657  -15.6026   20.8114 N   0  0  0  0  0  0
  -29.6157  -21.6910   20.1617 N   0  0  0  0  0  0
  -27.8543  -20.3855   19.6504 O   0  0  0  0  0  0
  -31.6901  -22.9822   18.8542 O   0  0  0  0  0  0
  -28.8565  -24.2043   21.3664 O   0  0  0  0  0  0
  -31.8528  -20.3778   21.1677 F   0  0  0  0  0  0
  -31.7588  -17.6795   21.2919 S   0  0  0  0  0  0
  -31.4744  -12.4335   19.1441 H   0  0  0  0  0  0
  -30.3256  -11.3297   19.8527 H   0  0  0  0  0  0
  -29.7552  -11.7697   17.4439 H   0  0  0  0  0  0
  -29.6687  -13.4834   17.7568 H   0  0  0  0  0  0
  -27.8400  -11.3034   18.8249 H   0  0  0  0  0  0
  -27.3751  -12.6229   17.7842 H   0  0  0  0  0  0
  -27.6842  -14.2515   19.5456 H   0  0  0  0  0  0
  -28.6923  -12.0104   21.3756 H   0  0  0  0  0  0
  -28.4623  -13.6667   21.8505 H   0  0  0  0  0  0
  -25.2735   -9.5675   22.4752 H   0  0  0  0  0  0
  -23.9996   -7.4607   22.7459 H   0  0  0  0  0  0
  -21.0831   -8.8722   19.8955 H   0  0  0  0  0  0
  -22.3662  -10.9630   19.6145 H   0  0  0  0  0  0
  -21.1968   -7.6141   23.9727 H   0  0  0  0  0  0
  -21.1536   -6.0515   25.9097 H   0  0  0  0  0  0
  -22.0580   -2.7595   23.2851 H   0  0  0  0  0  0
  -22.4076  -11.9867   22.4824 H   0  0  0  0  0  0
  -21.1109  -13.1262   22.2595 H   0  0  0  0  0  0
  -24.6514  -15.8291   20.5273 H   0  0  0  0  0  0
  -26.2692  -15.6388   20.0846 H   0  0  0  0  0  0
  -26.7144  -32.5503   23.1132 H   0  0  0  0  0  0
  -25.0061  -33.9759   25.0454 H   0  0  0  0  0  0
  -22.6971  -31.3099   21.4119 H   0  0  0  0  0  0
  -23.3753  -35.9656   23.3278 H   0  0  0  0  0  0
  -24.3604  -36.8955   22.2056 H   0  0  0  0  0  0
  -23.7246  -37.6523   23.6659 H   0  0  0  0  0  0
  -26.0527  -31.5873   20.5916 H   0  0  0  0  0  0
  -26.8292  -30.8750   21.9791 H   0  0  0  0  0  0
  -28.1004  -29.0671   21.1517 H   0  0  0  0  0  0
  -25.9563  -25.9362   19.0559 H   0  0  0  0  0  0
  -23.9561  -27.2948   19.0537 H   0  0  0  0  0  0
  -23.7238  -30.6033   19.4039 H   0  0  0  0  0  0
  -22.7354  -29.2499   19.8661 H   0  0  0  0  0  0
  -25.1288  -36.1967   25.0826 H   0  0  0  0  0  0
  -20.9980  -28.3255   24.1420 H   0  0  0  0  0  0
  -20.5676  -26.2291   23.3605 H   0  0  0  0  0  0
  -21.6642  -26.7451   22.1205 H   0  0  0  0  0  0
  -19.6912  -25.6304   21.1231 H   0  0  0  0  0  0
  -19.6697  -27.3205   20.6741 H   0  0  0  0  0  0
  -17.4206  -26.6690   21.4009 H   0  0  0  0  0  0
  -18.0323  -26.0078   22.9014 H   0  0  0  0  0  0
  -19.7928  -30.7260   24.2278 H   0  0  0  0  0  0
  -17.5012  -31.6258   24.5185 H   0  0  0  0  0  0
  -15.5350  -30.2991   23.7644 H   0  0  0  0  0  0
  -15.8677  -28.0839   22.7033 H   0  0  0  0  0  0
  -24.5914  -30.7046   25.7787 H   0  0  0  0  0  0
  -24.8876  -32.2877   26.4846 H   0  0  0  0  0  0
  -25.8045  -30.8933   27.0231 H   0  0  0  0  0  0
  -26.2828  -29.6801   24.1141 H   0  0  0  0  0  0
  -27.4024  -29.7252   25.4572 H   0  0  0  0  0  0
  -27.8687  -30.4325   23.9271 H   0  0  0  0  0  0
  -27.2696  -33.3601   26.2074 H   0  0  0  0  0  0
  -28.3874  -32.6837   25.0314 H   0  0  0  0  0  0
  -28.0715  -31.8398   26.5388 H   0  0  0  0  0  0
  -28.2589  -38.0127   24.7518 H   0  0  0  0  0  0
  -28.1099  -36.2653   24.6242 H   0  0  0  0  0  0
  -27.2307  -37.1419   25.8857 H   0  0  0  0  0  0
  -20.9320  -29.8774   21.6927 H   0  0  0  0  0  0
  -26.0179  -38.2873   24.1406 H   0  0  0  0  0  0
  -29.2538  -23.6679   16.7728 H   0  0  0  0  0  0
  -30.7464  -22.8374   16.3271 H   0  0  0  0  0  0
  -30.7975  -24.5316   16.8199 H   0  0  0  0  0  0
  -27.7460  -25.2495   18.6429 H   0  0  0  0  0  0
  -29.4151  -25.6704   18.6458 H   0  0  0  0  0  0
  -28.4579  -22.6523   18.6763 H   0  0  0  0  0  0
  -28.8946  -15.3850   20.9517 H   0  0  0  0  0  0
  -30.5417  -21.6888   20.5729 H   0  0  0  0  0  0
  1 25  1  0  0  0
  1 30  2  0  0  0
  1 81  1  0  0  0
  2  3  1  0  0  0
  2 25  1  0  0  0
  2 88  1  0  0  0
  2 89  1  0  0  0
  3  4  1  0  0  0
  3 90  1  0  0  0
  3 91  1  0  0  0
  4  5  1  0  0  0
  4 92  1  0  0  0
  4 93  1  0  0  0
  5  6  1  0  0  0
  5 26  1  0  0  0
  5 94  1  0  0  0
  6 25  1  0  0  0
  6 95  1  0  0  0
  6 96  1  0  0  0
  7  8  2  0  0  0
  7 26  1  0  0  0
  7 29  1  0  0  0
  8  9  1  0  0  0
  8 22  1  0  0  0
  9 10  1  0  0  0
  9 27  2  0  0  0
 10 11  2  0  0  0
 10 15  1  0  0  0
 11 12  1  0  0  0
 11 97  1  0  0  0
 12 13  2  0  0  0
 12 98  1  0  0  0
 13 14  1  0  0  0
 13 31  1  0  0  0
 14 15  2  0  0  0
 14 99  1  0  0  0
 15100  1  0  0  0
 16 17  2  0  0  0
 16 21  1  0  0  0
 16 31  1  0  0  0
 17 18  1  0  0  0
 17101  1  0  0  0
 18 19  2  0  0  0
 18102  1  0  0  0
 19 20  1  0  0  0
 19 24  1  0  0  0
 20 21  2  0  0  0
 20103  1  0  0  0
 21 23  1  0  0  0
 22 28  1  0  0  0
 22 32  2  0  0  0
 26 27  1  0  0  0
 28104  1  0  0  0
 28105  1  0  0  0
 29106  1  0  0  0
 29107  1  0  0  0
 33 34  1  0  0  0
 33 66  1  0  0  0
 33 70  2  0  0  0
 34 36  1  0  0  0
 34 59  1  0  0  0
 34108  1  0  0  0
 35 44  2  0  0  0
 35 45  1  0  0  0
 35 68  1  0  0  0
 36 56  1  0  0  0
 36109  1  0  0  0
 37 39  1  0  0  0
 37 47  1  0  0  0
 37 66  1  0  0  0
 37110  1  0  0  0
 38 43  2  0  0  0
 38 46  1  0  0  0
 38 47  1  0  0  0
 39 64  1  0  0  0
 39 67  2  0  0  0
 40 52  1  0  0  0
 40 53  2  0  0  0
 40 58  1  0  0  0
 41111  1  0  0  0
 41112  1  0  0  0
 41113  1  0  0  0
 41 48  1  0  0  0
 42 43  1  0  0  0
 42 66  1  0  0  0
 42114  1  0  0  0
 42115  1  0  0  0
 43 44  1  0  0  0
 44116  1  0  0  0
 45 46  2  0  0  0
 45117  1  0  0  0
 46118  1  0  0  0
 47119  1  0  0  0
 47120  1  0  0  0
 48 56  1  0  0  0
 48 65  1  0  0  0
 48121  1  0  0  0
 49 50  1  0  0  0
 49 53  1  0  0  0
 49 64  1  0  0  0
 49122  1  0  0  0
 50 51  1  0  0  0
 50123  1  0  0  0
 50124  1  0  0  0
 51 52  1  0  0  0
 51125  1  0  0  0
 51126  1  0  0  0
 52127  1  0  0  0
 52128  1  0  0  0
 53 54  1  0  0  0
 54 55  2  0  0  0
 54129  1  0  0  0
 55 57  1  0  0  0
 55130  1  0  0  0
 56 69  2  0  0  0
 57 58  2  0  0  0
 57131  1  0  0  0
 58132  1  0  0  0
 59 60  1  0  0  0
 59 61  1  0  0  0
 59 62  1  0  0  0
 60133  1  0  0  0
 60134  1  0  0  0
 60135  1  0  0  0
 61136  1  0  0  0
 61137  1  0  0  0
 61138  1  0  0  0
 62139  1  0  0  0
 62140  1  0  0  0
 62141  1  0  0  0
 63 65  1  0  0  0
 63142  1  0  0  0
 63143  1  0  0  0
 63144  1  0  0  0
 64145  1  0  0  0
 65146  1  0  0  0
 68 78  1  0  0  0
 71 72  2  0  0  0
 71 74  1  0  0  0
 71 80  1  0  0  0
 72 86  1  0  0  0
 72 87  1  0  0  0
 73 80  2  0  0  0
 73 81  1  0  0  0
 73 87  1  0  0  0
 74 82  1  0  0  0
 74 83  2  0  0  0
 75 77  1  0  0  0
 75 79  1  0  0  0
 75 84  2  0  0  0
 76 78  1  0  0  0
 76 79  1  0  0  0
 76 85  2  0  0  0
 77147  1  0  0  0
 77148  1  0  0  0
 77149  1  0  0  0
 78150  1  0  0  0
 78151  1  0  0  0
 79 82  1  0  0  0
 79152  1  0  0  0
 81153  1  0  0  0
 82154  1  0  0  0
M  ISO  4   1 100  68 101  78 101  81 100
M  END
> <chiral flag>
0

> <version>
0

> <s_m_source_file>
/data/baiqing/PycharmProjects/Reinvent-master-3.2/result/LINK_invent/BTK/process_docking_weight1_custom_product_contain_oxygen_bond_distance_aromatic_linkinvent_7_9_3/rearranged_h_0173.sdf

> <i_m_source_file_index>
14

> <r_mmod_Potential_Energy-OPLS-2005>
-241.184051513672

> <r_mmod_Stretch_Energy-OPLS-2005>
50.2761535644531

> <r_mmod_Bend_Energy-OPLS-2005>
116.195991516113

> <r_mmod_Torsional_Energy-OPLS-2005>
192.001892089844

> <r_mmod_Improper_Torsional_Energy-OPLS-2005>
7.40889263153076

> <r_mmod_Van_der_Waal_Energy-OPLS-2005>
131.456726074219

> <r_mmod_Electrostatic_Energy-OPLS-2005>
-499.579864501953

> <r_mmod_Solvation_Energy-OPLS-2005>
-261.643676757812

> <b_mmod_Minimization_Converged-OPLS-2005>
0

> <r_mmod_RMS_Derivative-OPLS-2005>
2.11151266098022

$$$$
14
                    3D
 Structure written by MMmdl.
153161  0  0  1  0            999 V2000
  -30.6189  -14.6518   20.4970 C   0  0  0  0  0  0
  -30.4392  -12.3994   19.4575 C   0  0  0  0  0  0
  -29.5096  -12.5072   18.2277 C   0  0  0  0  0  0
  -28.0327  -12.3428   18.6386 C   0  0  0  0  0  0
  -27.6533  -13.2166   19.8636 C   0  0  2  0  0  0
  -28.6972  -13.0785   20.9949 C   0  0  0  0  0  0
  -25.2564  -13.8170   20.5686 C   0  0  0  0  0  0
  -24.1830  -13.0439   20.9195 C   0  0  0  0  0  0
  -24.6395  -11.6908   20.8742 C   0  0  0  0  0  0
  -23.9061  -10.4293   21.0407 C   0  0  0  0  0  0
  -24.3614   -9.4208   21.9183 C   0  0  0  0  0  0
  -23.6290   -8.2245   22.0752 C   0  0  0  0  0  0
  -22.4272   -8.0282   21.3542 C   0  0  0  0  0  0
  -21.9904   -9.0256   20.4646 C   0  0  0  0  0  0
  -22.7232  -10.2136   20.3057 C   0  0  0  0  0  0
  -21.6854   -6.0734   22.5277 C   0  0  0  0  0  0
  -21.4015   -6.5638   23.8210 C   0  0  0  0  0  0
  -21.3659   -5.6790   24.9171 C   0  0  0  0  0  0
  -21.6044   -4.3053   24.7223 C   0  0  0  0  0  0
  -21.8820   -3.8144   23.4345 C   0  0  0  0  0  0
  -21.9193   -4.6961   22.3401 C   0  0  0  0  0  0
  -22.7852  -13.5236   21.1853 C   0  0  0  0  0  0
  -22.1662   -4.2146   21.0978 F   0  0  0  0  0  0
  -21.5628   -3.4537   25.7737 F   0  0  0  0  0  0
  -30.0123  -13.4237   20.4325 N   0  0  0  0  0  0
  -26.2987  -12.9349   20.3313 N   0  0  0  0  0  0
  -25.9323  -11.6506   20.5758 N   0  0  0  0  0  0
  -22.0490  -12.8233   22.0410 N   0  0  0  0  0  0
  -25.4285  -15.1891   20.4092 N   0  0  0  0  0  0
  -31.7789  -14.8114   20.1081 O   0  0  0  0  0  0
  -21.6639   -6.8877   21.4238 O   0  0  0  0  0  0
  -22.3542  -14.5543   20.6698 O   0  0  0  0  0  0
  -24.6262  -31.8598   23.2029 C   0  0  0  0  0  0
  -25.9108  -32.4778   23.8358 C   0  0  1  0  0  0
  -27.2225  -27.3158   20.1213 C   0  0  0  0  0  0
  -25.5925  -33.8579   24.2284 N   0  0  0  0  0  0
  -23.4206  -30.4832   21.5456 C   0  0  2  0  0  0
  -24.8684  -28.9393   20.1117 C   0  0  0  0  0  0
  -22.7478  -29.4620   22.4936 C   0  0  0  0  0  0
  -18.0289  -28.1382   22.8485 C   0  0  0  0  0  0
  -24.1490  -36.7296   23.2638 C   0  0  0  0  0  0
  -25.9625  -30.7894   21.3760 C   0  0  0  0  0  0
  -26.0377  -29.4165   20.7184 C   0  0  0  0  0  0
  -27.2202  -28.6170   20.7131 C   0  0  0  0  0  0
  -26.0358  -26.9001   19.4770 C   0  0  0  0  0  0
  -24.8698  -27.6868   19.4808 C   0  0  0  0  0  0
  -23.6361  -29.8189   20.1608 C   0  0  0  0  0  0
  -25.4113  -36.3083   24.0330 C   0  0  1  0  0  0
  -20.5888  -28.3688   23.1281 C   0  0  2  0  0  0
  -20.6776  -26.9410   22.5409 C   0  0  0  0  0  0
  -19.5753  -26.6382   21.5210 C   0  0  0  0  0  0
  -18.1934  -26.7925   22.1624 C   0  0  0  0  0  0
  -19.1540  -28.8852   23.2878 C   0  0  0  0  0  0
  -18.9462  -30.1453   23.8897 C   0  0  0  0  0  0
  -17.6461  -30.6584   24.0562 C   0  0  0  0  0  0
  -25.9049  -34.9451   23.5107 C   0  0  0  0  0  0
  -16.5353  -29.9082   23.6327 C   0  0  0  0  0  0
  -16.7275  -28.6499   23.0349 C   0  0  0  0  0  0
  -26.4493  -31.6586   25.0727 C   0  0  0  0  0  0
  -25.3728  -31.3730   26.1457 C   0  0  0  0  0  0
  -27.0332  -30.3007   24.6185 C   0  0  0  0  0  0
  -27.6058  -32.4318   25.7492 C   0  0  0  0  0  0
  -27.5582  -37.1799   24.8461 C   0  0  0  0  0  0
  -21.4191  -29.3041   22.3676 N   0  0  0  0  0  0
  -26.4292  -37.3777   23.9408 N   0  0  0  0  0  0
  -24.6884  -31.0605   22.0984 N   0  0  0  0  0  0
  -23.4198  -28.8158   23.3016 O   0  0  0  0  0  0
  -28.3232  -26.4463   20.1562 O   0  0  0  0  0  0
  -26.5617  -34.8917   22.4673 O   0  0  0  0  0  0
  -23.5424  -32.1398   23.7353 O   0  0  0  0  0  0
  -30.9910  -17.8187   20.0034 C   0  0  0  0  0  0
  -28.8918  -18.0236   21.1131 C   0  0  0  0  0  0
  -30.9660  -19.2357   19.8314 C   0  0  0  0  0  0
  -29.9262  -17.1571   20.6619 C   0  0  0  0  0  0
  -29.8792  -20.0096   20.3191 C   0  0  0  0  0  0
  -29.0900  -23.9308   20.1850 C   0  0  0  0  0  0
  -32.1255  -19.9039   19.1080 C   0  0  0  0  0  0
  -28.8062  -22.4120   20.5429 C   0  0  0  0  0  0
  -28.0270  -25.0415   20.5513 C   0  0  0  0  0  0
  -28.8617  -19.3856   20.9540 N   0  0  0  0  0  0
  -29.8182  -15.7041   20.8641 N   0  0  0  0  0  0
  -29.8605  -21.4294   20.1419 N   0  0  0  0  0  0
  -30.1458  -24.2322   19.6157 O   0  0  0  0  0  0
  -31.4803  -12.5258   19.1554 H   0  0  0  0  0  0
  -30.3770  -11.4053   19.9030 H   0  0  0  0  0  0
  -29.7765  -11.7535   17.4858 H   0  0  0  0  0  0
  -29.6498  -13.4753   17.7439 H   0  0  0  0  0  0
  -27.8719  -11.2899   18.8738 H   0  0  0  0  0  0
  -27.3781  -12.5682   17.7958 H   0  0  0  0  0  0
  -27.6700  -14.2506   19.5187 H   0  0  0  0  0  0
  -28.7113  -12.0585   21.3818 H   0  0  0  0  0  0
  -28.4402  -13.7135   21.8441 H   0  0  0  0  0  0
  -25.2761   -9.5683   22.4756 H   0  0  0  0  0  0
  -23.9998   -7.4637   22.7472 H   0  0  0  0  0  0
  -21.0833   -8.8778   19.8955 H   0  0  0  0  0  0
  -22.3691  -10.9677   19.6168 H   0  0  0  0  0  0
  -21.2010   -7.6147   23.9713 H   0  0  0  0  0  0
  -21.1478   -6.0519   25.9073 H   0  0  0  0  0  0
  -22.0600   -2.7605   23.2847 H   0  0  0  0  0  0
  -22.4101  -11.9898   22.4808 H   0  0  0  0  0  0
  -21.1109  -13.1266   22.2612 H   0  0  0  0  0  0
  -24.6578  -15.8412   20.5097 H   0  0  0  0  0  0
  -26.2658  -15.6211   20.0408 H   0  0  0  0  0  0
  -26.7176  -32.5450   23.1107 H   0  0  0  0  0  0
  -25.0070  -33.9724   25.0427 H   0  0  0  0  0  0
  -22.7144  -31.3037   21.4025 H   0  0  0  0  0  0
  -23.3748  -35.9632   23.3300 H   0  0  0  0  0  0
  -24.3584  -36.8915   22.2053 H   0  0  0  0  0  0
  -23.7246  -37.6500   23.6658 H   0  0  0  0  0  0
  -26.0950  -31.5531   20.6083 H   0  0  0  0  0  0
  -26.8422  -30.8378   22.0060 H   0  0  0  0  0  0
  -28.1167  -28.9773   21.1981 H   0  0  0  0  0  0
  -25.9906  -25.9536   18.9591 H   0  0  0  0  0  0
  -23.9776  -27.3207   18.9912 H   0  0  0  0  0  0
  -23.7544  -30.5957   19.4046 H   0  0  0  0  0  0
  -22.7565  -29.2478   19.8583 H   0  0  0  0  0  0
  -25.1292  -36.1938   25.0823 H   0  0  0  0  0  0
  -20.9980  -28.3262   24.1401 H   0  0  0  0  0  0
  -20.5675  -26.2297   23.3609 H   0  0  0  0  0  0
  -21.6645  -26.7438   22.1204 H   0  0  0  0  0  0
  -19.6915  -25.6293   21.1239 H   0  0  0  0  0  0
  -19.6690  -27.3191   20.6740 H   0  0  0  0  0  0
  -17.4202  -26.6668   21.4029 H   0  0  0  0  0  0
  -18.0340  -26.0068   22.9022 H   0  0  0  0  0  0
  -19.7938  -30.7268   24.2268 H   0  0  0  0  0  0
  -17.5015  -31.6263   24.5164 H   0  0  0  0  0  0
  -15.5354  -30.2983   23.7649 H   0  0  0  0  0  0
  -15.8676  -28.0817   22.7065 H   0  0  0  0  0  0
  -24.5899  -30.7081   25.7789 H   0  0  0  0  0  0
  -24.8924  -32.2899   26.4881 H   0  0  0  0  0  0
  -25.8052  -30.8907   27.0232 H   0  0  0  0  0  0
  -26.2905  -29.6758   24.1211 H   0  0  0  0  0  0
  -27.4028  -29.7264   25.4691 H   0  0  0  0  0  0
  -27.8778  -30.4289   23.9411 H   0  0  0  0  0  0
  -27.2675  -33.3619   26.2071 H   0  0  0  0  0  0
  -28.3863  -32.6875   25.0314 H   0  0  0  0  0  0
  -28.0729  -31.8441   26.5404 H   0  0  0  0  0  0
  -28.2595  -38.0101   24.7514 H   0  0  0  0  0  0
  -28.1083  -36.2633   24.6277 H   0  0  0  0  0  0
  -27.2303  -37.1436   25.8865 H   0  0  0  0  0  0
  -20.9369  -29.8766   21.6889 H   0  0  0  0  0  0
  -26.0175  -38.2852   24.1411 H   0  0  0  0  0  0
  -31.8265  -17.2568   19.6145 H   0  0  0  0  0  0
  -28.0355  -17.6063   21.6226 H   0  0  0  0  0  0
  -32.8599  -19.1751   18.7634 H   0  0  0  0  0  0
  -32.6369  -20.6043   19.7690 H   0  0  0  0  0  0
  -31.7684  -20.4507   18.2347 H   0  0  0  0  0  0
  -27.8648  -22.1233   20.0754 H   0  0  0  0  0  0
  -28.6526  -22.3401   21.6197 H   0  0  0  0  0  0
  -27.8995  -25.0251   21.6337 H   0  0  0  0  0  0
  -27.0822  -24.6952   20.1394 H   0  0  0  0  0  0
  -28.9305  -15.3990   21.2363 H   0  0  0  0  0  0
  -30.6483  -21.8560   19.6654 H   0  0  0  0  0  0
  1 25  1  0  0  0
  1 30  2  0  0  0
  1 81  1  0  0  0
  2  3  1  0  0  0
  2 25  1  0  0  0
  2 84  1  0  0  0
  2 85  1  0  0  0
  3  4  1  0  0  0
  3 86  1  0  0  0
  3 87  1  0  0  0
  4  5  1  0  0  0
  4 88  1  0  0  0
  4 89  1  0  0  0
  5  6  1  0  0  0
  5 26  1  0  0  0
  5 90  1  0  0  0
  6 25  1  0  0  0
  6 91  1  0  0  0
  6 92  1  0  0  0
  7  8  2  0  0  0
  7 26  1  0  0  0
  7 29  1  0  0  0
  8  9  1  0  0  0
  8 22  1  0  0  0
  9 10  1  0  0  0
  9 27  2  0  0  0
 10 11  2  0  0  0
 10 15  1  0  0  0
 11 12  1  0  0  0
 11 93  1  0  0  0
 12 13  2  0  0  0
 12 94  1  0  0  0
 13 14  1  0  0  0
 13 31  1  0  0  0
 14 15  2  0  0  0
 14 95  1  0  0  0
 15 96  1  0  0  0
 16 17  2  0  0  0
 16 21  1  0  0  0
 16 31  1  0  0  0
 17 18  1  0  0  0
 17 97  1  0  0  0
 18 19  2  0  0  0
 18 98  1  0  0  0
 19 20  1  0  0  0
 19 24  1  0  0  0
 20 21  2  0  0  0
 20 99  1  0  0  0
 21 23  1  0  0  0
 22 28  1  0  0  0
 22 32  2  0  0  0
 26 27  1  0  0  0
 28100  1  0  0  0
 28101  1  0  0  0
 29102  1  0  0  0
 29103  1  0  0  0
 33 34  1  0  0  0
 33 66  1  0  0  0
 33 70  2  0  0  0
 34 36  1  0  0  0
 34 59  1  0  0  0
 34104  1  0  0  0
 35 44  2  0  0  0
 35 45  1  0  0  0
 35 68  1  0  0  0
 36 56  1  0  0  0
 36105  1  0  0  0
 37 39  1  0  0  0
 37 47  1  0  0  0
 37 66  1  0  0  0
 37106  1  0  0  0
 38 43  2  0  0  0
 38 46  1  0  0  0
 38 47  1  0  0  0
 39 64  1  0  0  0
 39 67  2  0  0  0
 40 52  1  0  0  0
 40 53  2  0  0  0
 40 58  1  0  0  0
 41107  1  0  0  0
 41108  1  0  0  0
 41109  1  0  0  0
 41 48  1  0  0  0
 42 43  1  0  0  0
 42 66  1  0  0  0
 42110  1  0  0  0
 42111  1  0  0  0
 43 44  1  0  0  0
 44112  1  0  0  0
 45 46  2  0  0  0
 45113  1  0  0  0
 46114  1  0  0  0
 47115  1  0  0  0
 47116  1  0  0  0
 48 56  1  0  0  0
 48 65  1  0  0  0
 48117  1  0  0  0
 49 50  1  0  0  0
 49 53  1  0  0  0
 49 64  1  0  0  0
 49118  1  0  0  0
 50 51  1  0  0  0
 50119  1  0  0  0
 50120  1  0  0  0
 51 52  1  0  0  0
 51121  1  0  0  0
 51122  1  0  0  0
 52123  1  0  0  0
 52124  1  0  0  0
 53 54  1  0  0  0
 54 55  2  0  0  0
 54125  1  0  0  0
 55 57  1  0  0  0
 55126  1  0  0  0
 56 69  2  0  0  0
 57 58  2  0  0  0
 57127  1  0  0  0
 58128  1  0  0  0
 59 60  1  0  0  0
 59 61  1  0  0  0
 59 62  1  0  0  0
 60129  1  0  0  0
 60130  1  0  0  0
 60131  1  0  0  0
 61132  1  0  0  0
 61133  1  0  0  0
 61134  1  0  0  0
 62135  1  0  0  0
 62136  1  0  0  0
 62137  1  0  0  0
 63 65  1  0  0  0
 63138  1  0  0  0
 63139  1  0  0  0
 63140  1  0  0  0
 64141  1  0  0  0
 65142  1  0  0  0
 68 79  1  0  0  0
 71 73  2  0  0  0
 71 74  1  0  0  0
 71143  1  0  0  0
 72 74  2  0  0  0
 72 80  1  0  0  0
 72144  1  0  0  0
 73 75  1  0  0  0
 73 77  1  0  0  0
 74 81  1  0  0  0
 75 80  2  0  0  0
 75 82  1  0  0  0
 76 78  1  0  0  0
 76 79  1  0  0  0
 76 83  2  0  0  0
 77145  1  0  0  0
 77146  1  0  0  0
 77147  1  0  0  0
 78 82  1  0  0  0
 78148  1  0  0  0
 78149  1  0  0  0
 79150  1  0  0  0
 79151  1  0  0  0
 81152  1  0  0  0
 82153  1  0  0  0
M  ISO  4   1 100  68 101  79 101  81 100
M  END
> <chiral flag>
0

> <version>
0

> <s_m_source_file>
/data/baiqing/PycharmProjects/Reinvent-master-3.2/result/LINK_invent/BTK/process_docking_weight1_custom_product_contain_oxygen_bond_distance_aromatic_linkinvent_7_9_3/rearranged_h_0173.sdf

> <i_m_source_file_index>
15

> <r_mmod_Potential_Energy-OPLS-2005>
-251.987854003906

> <r_mmod_Stretch_Energy-OPLS-2005>
78.5452728271484

> <r_mmod_Bend_Energy-OPLS-2005>
144.943984985352

> <r_mmod_Torsional_Energy-OPLS-2005>
211.239028930664

> <r_mmod_Improper_Torsional_Energy-OPLS-2005>
3.91239023208618

> <r_mmod_Van_der_Waal_Energy-OPLS-2005>
147.967010498047

> <r_mmod_Electrostatic_Energy-OPLS-2005>
-642.750122070312

> <r_mmod_Solvation_Energy-OPLS-2005>
-248.043167114258

> <b_mmod_Minimization_Converged-OPLS-2005>
0

> <r_mmod_RMS_Derivative-OPLS-2005>
0.345034241676331

$$$$
15
                    3D
 Structure written by MMmdl.
161169  0  0  1  0            999 V2000
  -30.6576  -14.6442   20.4983 C   0  0  0  0  0  0
  -30.4339  -12.3961   19.4724 C   0  0  0  0  0  0
  -29.5061  -12.4831   18.2418 C   0  0  0  0  0  0
  -28.0350  -12.3139   18.6590 C   0  0  0  0  0  0
  -27.6525  -13.2157   19.8627 C   0  0  2  0  0  0
  -28.6947  -13.1095   21.0012 C   0  0  0  0  0  0
  -25.2547  -13.8188   20.5658 C   0  0  0  0  0  0
  -24.1813  -13.0467   20.9169 C   0  0  0  0  0  0
  -24.6358  -11.6926   20.8751 C   0  0  0  0  0  0
  -23.9012  -10.4310   21.0390 C   0  0  0  0  0  0
  -24.3589   -9.4235   21.9160 C   0  0  0  0  0  0
  -23.6287   -8.2253   22.0725 C   0  0  0  0  0  0
  -22.4277   -8.0260   21.3504 C   0  0  0  0  0  0
  -21.9872   -9.0233   20.4624 C   0  0  0  0  0  0
  -22.7174  -10.2126   20.3047 C   0  0  0  0  0  0
  -21.6851   -6.0698   22.5265 C   0  0  0  0  0  0
  -21.4014   -6.5616   23.8185 C   0  0  0  0  0  0
  -21.3682   -5.6777   24.9156 C   0  0  0  0  0  0
  -21.6056   -4.3033   24.7224 C   0  0  0  0  0  0
  -21.8832   -3.8110   23.4346 C   0  0  0  0  0  0
  -21.9195   -4.6922   22.3394 C   0  0  0  0  0  0
  -22.7830  -13.5240   21.1834 C   0  0  0  0  0  0
  -22.1668   -4.2101   21.0977 F   0  0  0  0  0  0
  -21.5645   -3.4535   25.7739 F   0  0  0  0  0  0
  -30.0128  -13.4335   20.4383 N   0  0  0  0  0  0
  -26.2973  -12.9352   20.3316 N   0  0  0  0  0  0
  -25.9296  -11.6518   20.5807 N   0  0  0  0  0  0
  -22.0498  -12.8246   22.0422 N   0  0  0  0  0  0
  -25.4362  -15.1901   20.4045 N   0  0  0  0  0  0
  -31.8110  -14.7649   20.0746 O   0  0  0  0  0  0
  -21.6658   -6.8846   21.4219 O   0  0  0  0  0  0
  -22.3506  -14.5530   20.6655 O   0  0  0  0  0  0
  -24.6305  -31.8631   23.2000 C   0  0  0  0  0  0
  -25.9172  -32.4775   23.8315 C   0  0  1  0  0  0
  -27.2215  -27.3149   20.1462 C   0  0  0  0  0  0
  -25.5975  -33.8570   24.2252 N   0  0  0  0  0  0
  -23.4229  -30.4872   21.5440 C   0  0  2  0  0  0
  -24.8708  -28.9333   20.1198 C   0  0  0  0  0  0
  -22.7475  -29.4703   22.4963 C   0  0  0  0  0  0
  -18.0304  -28.1390   22.8486 C   0  0  0  0  0  0
  -24.1489  -36.7282   23.2630 C   0  0  0  0  0  0
  -25.9639  -30.7898   21.3742 C   0  0  0  0  0  0
  -26.0386  -29.4115   20.7327 C   0  0  0  0  0  0
  -27.2225  -28.6102   20.7465 C   0  0  0  0  0  0
  -26.0383  -26.8904   19.5114 C   0  0  0  0  0  0
  -24.8703  -27.6733   19.5024 C   0  0  0  0  0  0
  -23.6376  -29.8143   20.1626 C   0  0  0  0  0  0
  -25.4108  -36.3056   24.0315 C   0  0  1  0  0  0
  -20.5912  -28.3714   23.1258 C   0  0  2  0  0  0
  -20.6803  -26.9447   22.5387 C   0  0  0  0  0  0
  -19.5777  -26.6399   21.5195 C   0  0  0  0  0  0
  -18.1959  -26.7942   22.1611 C   0  0  0  0  0  0
  -19.1562  -28.8867   23.2862 C   0  0  0  0  0  0
  -18.9488  -30.1476   23.8864 C   0  0  0  0  0  0
  -17.6488  -30.6589   24.0582 C   0  0  0  0  0  0
  -25.9059  -34.9443   23.5073 C   0  0  0  0  0  0
  -16.5379  -29.9080   23.6356 C   0  0  0  0  0  0
  -16.7290  -28.6505   23.0359 C   0  0  0  0  0  0
  -26.4535  -31.6575   25.0693 C   0  0  0  0  0  0
  -25.3778  -31.3729   26.1434 C   0  0  0  0  0  0
  -27.0353  -30.2981   24.6154 C   0  0  0  0  0  0
  -27.6074  -32.4325   25.7467 C   0  0  0  0  0  0
  -27.5573  -37.1777   24.8469 C   0  0  0  0  0  0
  -21.4194  -29.3055   22.3628 N   0  0  0  0  0  0
  -26.4280  -37.3756   23.9414 N   0  0  0  0  0  0
  -24.6907  -31.0654   22.0949 N   0  0  0  0  0  0
  -23.4179  -28.8320   23.3119 O   0  0  0  0  0  0
  -28.2807  -26.4056   20.0642 O   0  0  0  0  0  0
  -26.5625  -34.8931   22.4639 O   0  0  0  0  0  0
  -23.5478  -32.1438   23.7319 O   0  0  0  0  0  0
  -29.8083  -18.2859   21.2564 C   0  0  0  0  0  0
  -30.3765  -17.3821   19.0807 C   0  0  0  0  0  0
  -29.9040  -19.6514   20.7819 C   0  0  0  0  0  0
  -30.0693  -17.1301   20.4364 C   0  0  0  0  0  0
  -30.4474  -18.6983   18.5801 C   0  0  0  0  0  0
  -30.2283  -19.8180   19.4137 C   0  0  0  0  0  0
  -28.9651  -25.9454   21.1811 C   0  0  0  0  0  0
  -29.3209  -24.6743   21.5938 C   0  0  0  0  0  0
  -28.9086  -23.3268   21.0748 C   0  0  0  0  0  0
  -30.8328  -21.7507   24.0115 C   0  0  0  0  0  0
  -32.2148  -21.9813   24.6131 C   0  0  0  0  0  0
  -30.7165  -20.6661   22.9343 C   0  0  0  0  0  0
  -29.7130  -20.8910   21.7553 C   0  0  1  0  0  0
  -29.9481  -15.7446   20.9117 N   0  0  0  0  0  0
  -29.8428  -22.3338   21.2771 N   0  0  0  0  0  0
  -27.7841  -23.0634   20.6530 O   0  0  0  0  0  0
  -29.8682  -22.4373   24.3565 O   0  0  0  0  0  0
  -30.1126  -24.6557   22.6765 O   0  0  0  0  0  0
  -30.7332  -18.8873   17.2683 F   0  0  0  0  0  0
  -30.3392  -21.0552   18.8748 F   0  0  0  0  0  0
  -31.4747  -12.5091   19.1624 H   0  0  0  0  0  0
  -30.3722  -11.4117   19.9404 H   0  0  0  0  0  0
  -29.7743  -11.7166   17.5150 H   0  0  0  0  0  0
  -29.6365  -13.4417   17.7413 H   0  0  0  0  0  0
  -27.8941  -11.2664   18.9291 H   0  0  0  0  0  0
  -27.3703  -12.4979   17.8145 H   0  0  0  0  0  0
  -27.6635  -14.2415   19.4914 H   0  0  0  0  0  0
  -28.7094  -12.1039   21.4223 H   0  0  0  0  0  0
  -28.4362  -13.7790   21.8229 H   0  0  0  0  0  0
  -25.2746   -9.5722   22.4701 H   0  0  0  0  0  0
  -24.0004   -7.4656   22.7448 H   0  0  0  0  0  0
  -21.0789   -8.8727   19.8956 H   0  0  0  0  0  0
  -22.3602  -10.9644   19.6154 H   0  0  0  0  0  0
  -21.2005   -7.6123   23.9659 H   0  0  0  0  0  0
  -21.1504   -6.0520   25.9051 H   0  0  0  0  0  0
  -22.0593   -2.7562   23.2867 H   0  0  0  0  0  0
  -22.4153  -11.9938   22.4853 H   0  0  0  0  0  0
  -21.1113  -13.1217   22.2628 H   0  0  0  0  0  0
  -24.6908  -15.8652   20.5257 H   0  0  0  0  0  0
  -26.2949  -15.6048   20.0639 H   0  0  0  0  0  0
  -26.7266  -32.5445   23.1084 H   0  0  0  0  0  0
  -25.0100  -33.9692   25.0381 H   0  0  0  0  0  0
  -22.7197  -31.3096   21.3953 H   0  0  0  0  0  0
  -23.3732  -35.9640   23.3299 H   0  0  0  0  0  0
  -24.3570  -36.8891   22.2046 H   0  0  0  0  0  0
  -23.7284  -37.6499   23.6650 H   0  0  0  0  0  0
  -26.0993  -31.5445   20.5979 H   0  0  0  0  0  0
  -26.8458  -30.8413   22.0008 H   0  0  0  0  0  0
  -28.1216  -28.9783   21.2185 H   0  0  0  0  0  0
  -26.0196  -25.9199   19.0362 H   0  0  0  0  0  0
  -23.9816  -27.2974   19.0159 H   0  0  0  0  0  0
  -23.7466  -30.5831   19.3965 H   0  0  0  0  0  0
  -22.7576  -29.2378   19.8732 H   0  0  0  0  0  0
  -25.1294  -36.1866   25.0806 H   0  0  0  0  0  0
  -21.0013  -28.3299   24.1379 H   0  0  0  0  0  0
  -20.5720  -26.2339   23.3593 H   0  0  0  0  0  0
  -21.6673  -26.7484   22.1194 H   0  0  0  0  0  0
  -19.6957  -25.6308   21.1225 H   0  0  0  0  0  0
  -19.6711  -27.3204   20.6730 H   0  0  0  0  0  0
  -17.4243  -26.6705   21.4003 H   0  0  0  0  0  0
  -18.0359  -26.0063   22.8983 H   0  0  0  0  0  0
  -19.7964  -30.7317   24.2188 H   0  0  0  0  0  0
  -17.5040  -31.6261   24.5201 H   0  0  0  0  0  0
  -15.5382  -30.2981   23.7678 H   0  0  0  0  0  0
  -15.8693  -28.0812   22.7084 H   0  0  0  0  0  0
  -24.5957  -30.7067   25.7788 H   0  0  0  0  0  0
  -24.8992  -32.2908   26.4854 H   0  0  0  0  0  0
  -25.8142  -30.8928   27.0202 H   0  0  0  0  0  0
  -26.2905  -29.6723   24.1237 H   0  0  0  0  0  0
  -27.4087  -29.7256   25.4653 H   0  0  0  0  0  0
  -27.8763  -30.4217   23.9329 H   0  0  0  0  0  0
  -27.2645  -33.3609   26.2043 H   0  0  0  0  0  0
  -28.3877  -32.6926   25.0303 H   0  0  0  0  0  0
  -28.0756  -31.8470   26.5385 H   0  0  0  0  0  0
  -28.2601  -38.0061   24.7498 H   0  0  0  0  0  0
  -28.1051  -36.2600   24.6295 H   0  0  0  0  0  0
  -27.2301  -37.1435   25.8872 H   0  0  0  0  0  0
  -20.9403  -29.8653   21.6703 H   0  0  0  0  0  0
  -26.0146  -38.2821   24.1417 H   0  0  0  0  0  0
  -29.5489  -18.1134   22.2889 H   0  0  0  0  0  0
  -30.5429  -16.5658   18.3922 H   0  0  0  0  0  0
  -29.3017  -26.7967   21.7579 H   0  0  0  0  0  0
  -32.9556  -22.1095   23.8216 H   0  0  0  0  0  0
  -32.5078  -21.1236   25.2181 H   0  0  0  0  0  0
  -32.2316  -22.8747   25.2405 H   0  0  0  0  0  0
  -30.4817  -19.7421   23.4606 H   0  0  0  0  0  0
  -31.7127  -20.5216   22.5163 H   0  0  0  0  0  0
  -28.7041  -20.7832   22.1570 H   0  0  0  0  0  0
  -29.1352  -15.5368   21.4730 H   0  0  0  0  0  0
  -30.7637  -22.7194   21.4329 H   0  0  0  0  0  0
  -29.9467  -23.8410   23.1461 H   0  0  0  0  0  0
  1 25  1  0  0  0
  1 30  2  0  0  0
  1 84  1  0  0  0
  2  3  1  0  0  0
  2 25  1  0  0  0
  2 91  1  0  0  0
  2 92  1  0  0  0
  3  4  1  0  0  0
  3 93  1  0  0  0
  3 94  1  0  0  0
  4  5  1  0  0  0
  4 95  1  0  0  0
  4 96  1  0  0  0
  5  6  1  0  0  0
  5 26  1  0  0  0
  5 97  1  0  0  0
  6 25  1  0  0  0
  6 98  1  0  0  0
  6 99  1  0  0  0
  7  8  2  0  0  0
  7 26  1  0  0  0
  7 29  1  0  0  0
  8  9  1  0  0  0
  8 22  1  0  0  0
  9 10  1  0  0  0
  9 27  2  0  0  0
 10 11  2  0  0  0
 10 15  1  0  0  0
 11 12  1  0  0  0
 11100  1  0  0  0
 12 13  2  0  0  0
 12101  1  0  0  0
 13 14  1  0  0  0
 13 31  1  0  0  0
 14 15  2  0  0  0
 14102  1  0  0  0
 15103  1  0  0  0
 16 17  2  0  0  0
 16 21  1  0  0  0
 16 31  1  0  0  0
 17 18  1  0  0  0
 17104  1  0  0  0
 18 19  2  0  0  0
 18105  1  0  0  0
 19 20  1  0  0  0
 19 24  1  0  0  0
 20 21  2  0  0  0
 20106  1  0  0  0
 21 23  1  0  0  0
 22 28  1  0  0  0
 22 32  2  0  0  0
 26 27  1  0  0  0
 28107  1  0  0  0
 28108  1  0  0  0
 29109  1  0  0  0
 29110  1  0  0  0
 33 34  1  0  0  0
 33 66  1  0  0  0
 33 70  2  0  0  0
 34 36  1  0  0  0
 34 59  1  0  0  0
 34111  1  0  0  0
 35 44  2  0  0  0
 35 45  1  0  0  0
 35 68  1  0  0  0
 36 56  1  0  0  0
 36112  1  0  0  0
 37 39  1  0  0  0
 37 47  1  0  0  0
 37 66  1  0  0  0
 37113  1  0  0  0
 38 43  2  0  0  0
 38 46  1  0  0  0
 38 47  1  0  0  0
 39 64  1  0  0  0
 39 67  2  0  0  0
 40 52  1  0  0  0
 40 53  2  0  0  0
 40 58  1  0  0  0
 41114  1  0  0  0
 41115  1  0  0  0
 41116  1  0  0  0
 41 48  1  0  0  0
 42 43  1  0  0  0
 42 66  1  0  0  0
 42117  1  0  0  0
 42118  1  0  0  0
 43 44  1  0  0  0
 44119  1  0  0  0
 45 46  2  0  0  0
 45120  1  0  0  0
 46121  1  0  0  0
 47122  1  0  0  0
 47123  1  0  0  0
 48 56  1  0  0  0
 48 65  1  0  0  0
 48124  1  0  0  0
 49 50  1  0  0  0
 49 53  1  0  0  0
 49 64  1  0  0  0
 49125  1  0  0  0
 50 51  1  0  0  0
 50126  1  0  0  0
 50127  1  0  0  0
 51 52  1  0  0  0
 51128  1  0  0  0
 51129  1  0  0  0
 52130  1  0  0  0
 52131  1  0  0  0
 53 54  1  0  0  0
 54 55  2  0  0  0
 54132  1  0  0  0
 55 57  1  0  0  0
 55133  1  0  0  0
 56 69  2  0  0  0
 57 58  2  0  0  0
 57134  1  0  0  0
 58135  1  0  0  0
 59 60  1  0  0  0
 59 61  1  0  0  0
 59 62  1  0  0  0
 60136  1  0  0  0
 60137  1  0  0  0
 60138  1  0  0  0
 61139  1  0  0  0
 61140  1  0  0  0
 61141  1  0  0  0
 62142  1  0  0  0
 62143  1  0  0  0
 62144  1  0  0  0
 63 65  1  0  0  0
 63145  1  0  0  0
 63146  1  0  0  0
 63147  1  0  0  0
 64148  1  0  0  0
 65149  1  0  0  0
 68 77  1  0  0  0
 71 73  2  0  0  0
 71 74  1  0  0  0
 71150  1  0  0  0
 72 74  2  0  0  0
 72 75  1  0  0  0
 72151  1  0  0  0
 73 76  1  0  0  0
 73 83  1  0  0  0
 74 84  1  0  0  0
 75 76  2  0  0  0
 75 89  1  0  0  0
 76 90  1  0  0  0
 77 78  2  0  0  0
 77152  1  0  0  0
 78 79  1  0  0  0
 78 88  1  0  0  0
 79 85  1  0  0  0
 79 86  2  0  0  0
 80 81  1  0  0  0
 80 82  1  0  0  0
 80 87  2  0  0  0
 81153  1  0  0  0
 81154  1  0  0  0
 81155  1  0  0  0
 82156  1  0  0  0
 82157  1  0  0  0
 82 83  1  0  0  0
 83 85  1  0  0  0
 83158  1  0  0  0
 84159  1  0  0  0
 85160  1  0  0  0
 88161  1  0  0  0
M  ISO  4   1 100  68 101  77 101  84 100
M  END
> <chiral flag>
0

> <version>
0

> <s_m_source_file>
/data/baiqing/PycharmProjects/Reinvent-master-3.2/result/LINK_invent/BTK/process_docking_weight1_custom_product_contain_oxygen_bond_distance_aromatic_linkinvent_7_9_3/rearranged_h_0173.sdf

> <i_m_source_file_index>
16

> <r_mmod_Potential_Energy-OPLS-2005>
39.669189453125

> <r_mmod_Stretch_Energy-OPLS-2005>
88.8887176513672

> <r_mmod_Bend_Energy-OPLS-2005>
180.071792602539

> <r_mmod_Torsional_Energy-OPLS-2005>
254.721099853516

> <r_mmod_Improper_Torsional_Energy-OPLS-2005>
7.80332231521606

> <r_mmod_Van_der_Waal_Energy-OPLS-2005>
140.184509277344

> <r_mmod_Electrostatic_Energy-OPLS-2005>
-436.853057861328

> <r_mmod_Solvation_Energy-OPLS-2005>
-249.019638061523

> <b_mmod_Minimization_Converged-OPLS-2005>
0

> <r_mmod_RMS_Derivative-OPLS-2005>
4.33673667907715

$$$$
16
                    3D
 Structure written by MMmdl.
166174  0  0  1  0            999 V2000
  -30.7195  -14.4234   20.6326 C   0  0  0  0  0  0
  -30.4204  -12.2986   19.4078 C   0  0  0  0  0  0
  -29.4903  -12.5173   18.1980 C   0  0  0  0  0  0
  -28.0122  -12.3762   18.6111 C   0  0  0  0  0  0
  -27.6648  -13.2016   19.8785 C   0  0  2  0  0  0
  -28.7019  -12.9493   20.9952 C   0  0  0  0  0  0
  -25.2608  -13.8143   20.5622 C   0  0  0  0  0  0
  -24.1851  -13.0447   20.9172 C   0  0  0  0  0  0
  -24.6387  -11.6910   20.8735 C   0  0  0  0  0  0
  -23.9044  -10.4298   21.0409 C   0  0  0  0  0  0
  -24.3601   -9.4212   21.9186 C   0  0  0  0  0  0
  -23.6284   -8.2244   22.0754 C   0  0  0  0  0  0
  -22.4269   -8.0276   21.3543 C   0  0  0  0  0  0
  -21.9896   -9.0251   20.4646 C   0  0  0  0  0  0
  -22.7218  -10.2136   20.3058 C   0  0  0  0  0  0
  -21.6849   -6.0733   22.5276 C   0  0  0  0  0  0
  -21.4012   -6.5637   23.8211 C   0  0  0  0  0  0
  -21.3663   -5.6792   24.9173 C   0  0  0  0  0  0
  -21.6046   -4.3056   24.7226 C   0  0  0  0  0  0
  -21.8819   -3.8145   23.4347 C   0  0  0  0  0  0
  -21.9193   -4.6960   22.3401 C   0  0  0  0  0  0
  -22.7879  -13.5255   21.1856 C   0  0  0  0  0  0
  -22.1662   -4.2143   21.0981 F   0  0  0  0  0  0
  -21.5633   -3.4541   25.7741 F   0  0  0  0  0  0
  -30.0388  -13.2592   20.4550 N   0  0  0  0  0  0
  -26.3036  -12.9299   20.3349 N   0  0  0  0  0  0
  -25.9307  -11.6465   20.5749 N   0  0  0  0  0  0
  -22.0525  -12.8240   22.0413 N   0  0  0  0  0  0
  -25.4373  -15.1832   20.3922 N   0  0  0  0  0  0
  -31.7985  -14.6463   20.0759 O   0  0  0  0  0  0
  -21.6640   -6.8872   21.4237 O   0  0  0  0  0  0
  -22.3532  -14.5541   20.6692 O   0  0  0  0  0  0
  -24.6110  -31.8701   23.2119 C   0  0  0  0  0  0
  -25.9017  -32.4830   23.8404 C   0  0  1  0  0  0
  -27.2362  -27.4560   20.0971 C   0  0  0  0  0  0
  -25.5885  -33.8631   24.2340 N   0  0  0  0  0  0
  -23.3990  -30.4908   21.5519 C   0  0  2  0  0  0
  -24.8484  -28.9572   20.1176 C   0  0  0  0  0  0
  -22.7394  -29.4648   22.5011 C   0  0  0  0  0  0
  -18.0261  -28.1352   22.8491 C   0  0  0  0  0  0
  -24.1485  -36.7331   23.2639 C   0  0  0  0  0  0
  -25.9240  -30.8386   21.3653 C   0  0  0  0  0  0
  -26.0036  -29.4722   20.7195 C   0  0  0  0  0  0
  -27.2013  -28.7244   20.7176 C   0  0  0  0  0  0
  -26.0726  -26.9516   19.4851 C   0  0  0  0  0  0
  -24.8751  -27.6927   19.5016 C   0  0  0  0  0  0
  -23.6084  -29.8218   20.1664 C   0  0  0  0  0  0
  -25.4099  -36.3118   24.0342 C   0  0  1  0  0  0
  -20.5846  -28.3631   23.1329 C   0  0  2  0  0  0
  -20.6752  -26.9373   22.5416 C   0  0  0  0  0  0
  -19.5739  -26.6375   21.5204 C   0  0  0  0  0  0
  -18.1915  -26.7900   22.1613 C   0  0  0  0  0  0
  -19.1513  -28.8810   23.2901 C   0  0  0  0  0  0
  -18.9448  -30.1420   23.8899 C   0  0  0  0  0  0
  -17.6458  -30.6571   24.0556 C   0  0  0  0  0  0
  -25.9025  -34.9483   23.5139 C   0  0  0  0  0  0
  -16.5345  -29.9068   23.6325 C   0  0  0  0  0  0
  -16.7254  -28.6483   23.0348 C   0  0  0  0  0  0
  -26.4448  -31.6599   25.0717 C   0  0  0  0  0  0
  -25.3721  -31.3715   26.1477 C   0  0  0  0  0  0
  -27.0280  -30.3046   24.6075 C   0  0  0  0  0  0
  -27.6024  -32.4315   25.7479 C   0  0  0  0  0  0
  -27.5583  -37.1815   24.8454 C   0  0  0  0  0  0
  -21.4121  -29.3007   22.3753 N   0  0  0  0  0  0
  -26.4290  -37.3800   23.9407 N   0  0  0  0  0  0
  -24.6623  -31.0802   22.1023 N   0  0  0  0  0  0
  -23.4179  -28.8196   23.3044 O   0  0  0  0  0  0
  -28.3835  -26.7059   20.0430 O   0  0  0  0  0  0
  -26.5598  -34.8933   22.4704 O   0  0  0  0  0  0
  -23.5310  -32.1460   23.7518 O   0  0  0  0  0  0
  -31.8817  -18.6443   21.7435 C   0  0  0  0  0  0
  -31.6547  -17.2931   21.4220 C   0  0  0  0  0  0
  -29.5939  -18.8474   22.5416 C   0  0  0  0  0  0
  -30.8524  -19.4361   22.2934 C   0  0  0  0  0  0
  -30.3929  -16.6986   21.6664 C   0  0  0  0  0  0
  -29.3642  -17.4762   22.2513 C   0  0  0  0  0  0
  -31.1465  -20.8488   22.7108 C   0  0  0  0  0  0
  -28.6383  -24.6503   21.3537 C   0  0  0  0  0  0
  -31.5233  -23.9442   21.9928 C   0  0  0  0  0  0
  -29.0095  -23.9602   22.6746 C   0  0  0  0  0  0
  -28.8084  -26.1805   21.3023 C   0  0  0  0  0  0
  -27.4385  -17.3251   23.6612 C   0  0  0  0  0  0
  -30.3744  -23.2173   22.7275 C   0  0  1  0  0  0
  -26.3510  -16.3254   24.0909 C   0  0  0  0  0  0
  -30.0949  -15.3265   21.4109 N   0  0  0  0  0  0
  -30.2818  -21.8035   22.3252 N   0  0  0  0  0  0
  -32.1613  -21.0882   23.3691 O   0  0  0  0  0  0
  -28.2190  -24.0006   20.3900 O   0  0  0  0  0  0
  -28.1691  -16.8462   22.5278 O   0  0  0  0  0  0
  -25.3644  -16.2920   23.1941 F   0  0  0  0  0  0
  -26.8671  -15.0989   24.2177 F   0  0  0  0  0  0
  -25.6651  -16.8202   25.6593 Cl  0  0  0  0  0  0
  -31.4648  -12.3983   19.1062 H   0  0  0  0  0  0
  -30.3207  -11.2801   19.7858 H   0  0  0  0  0  0
  -29.7266  -11.8032   17.4078 H   0  0  0  0  0  0
  -29.6612  -13.5087   17.7757 H   0  0  0  0  0  0
  -27.8190  -11.3183   18.7937 H   0  0  0  0  0  0
  -27.3617  -12.6644   17.7844 H   0  0  0  0  0  0
  -27.7197  -14.2548   19.6015 H   0  0  0  0  0  0
  -28.6736  -11.9029   21.3031 H   0  0  0  0  0  0
  -28.4507  -13.5158   21.8927 H   0  0  0  0  0  0
  -25.2746   -9.5698   22.4756 H   0  0  0  0  0  0
  -24.0001   -7.4636   22.7469 H   0  0  0  0  0  0
  -21.0829   -8.8759   19.8949 H   0  0  0  0  0  0
  -22.3668  -10.9675   19.6167 H   0  0  0  0  0  0
  -21.1998   -7.6144   23.9708 H   0  0  0  0  0  0
  -21.1489   -6.0526   25.9077 H   0  0  0  0  0  0
  -22.0595   -2.7604   23.2850 H   0  0  0  0  0  0
  -22.4155  -11.9920   22.4822 H   0  0  0  0  0  0
  -21.1140  -13.1257   22.2616 H   0  0  0  0  0  0
  -24.7320  -15.8446   20.6969 H   0  0  0  0  0  0
  -26.3325  -15.6178   20.2114 H   0  0  0  0  0  0
  -26.7103  -32.5551   23.1189 H   0  0  0  0  0  0
  -25.0010  -33.9794   25.0468 H   0  0  0  0  0  0
  -22.6860  -31.3059   21.4133 H   0  0  0  0  0  0
  -23.3742  -35.9670   23.3292 H   0  0  0  0  0  0
  -24.3592  -36.8944   22.2055 H   0  0  0  0  0  0
  -23.7246  -37.6537   23.6658 H   0  0  0  0  0  0
  -26.0306  -31.6028   20.5942 H   0  0  0  0  0  0
  -26.8136  -30.8959   21.9801 H   0  0  0  0  0  0
  -28.0941  -29.1216   21.1805 H   0  0  0  0  0  0
  -26.0967  -25.9849   19.0011 H   0  0  0  0  0  0
  -23.9877  -27.2909   19.0322 H   0  0  0  0  0  0
  -23.7132  -30.5965   19.4056 H   0  0  0  0  0  0
  -22.7329  -29.2397   19.8735 H   0  0  0  0  0  0
  -25.1274  -36.1988   25.0837 H   0  0  0  0  0  0
  -20.9931  -28.3189   24.1455 H   0  0  0  0  0  0
  -20.5657  -26.2237   23.3593 H   0  0  0  0  0  0
  -21.6624  -26.7427   22.1213 H   0  0  0  0  0  0
  -19.6909  -25.6296   21.1210 H   0  0  0  0  0  0
  -19.6679  -27.3203   20.6746 H   0  0  0  0  0  0
  -17.4189  -26.6648   21.4012 H   0  0  0  0  0  0
  -18.0301  -26.0030   22.8994 H   0  0  0  0  0  0
  -19.7938  -30.7216   24.2274 H   0  0  0  0  0  0
  -17.5025  -31.6257   24.5145 H   0  0  0  0  0  0
  -15.5346  -30.2976   23.7656 H   0  0  0  0  0  0
  -15.8646  -28.0816   22.7054 H   0  0  0  0  0  0
  -24.5863  -30.7088   25.7828 H   0  0  0  0  0  0
  -24.8951  -32.2880   26.4959 H   0  0  0  0  0  0
  -25.8076  -30.8864   27.0224 H   0  0  0  0  0  0
  -26.2827  -29.6814   24.1114 H   0  0  0  0  0  0
  -27.4036  -29.7261   25.4525 H   0  0  0  0  0  0
  -27.8669  -30.4361   23.9233 H   0  0  0  0  0  0
  -27.2628  -33.3597   26.2092 H   0  0  0  0  0  0
  -28.3817  -32.6906   25.0297 H   0  0  0  0  0  0
  -28.0710  -31.8417   26.5366 H   0  0  0  0  0  0
  -28.2584  -38.0131   24.7527 H   0  0  0  0  0  0
  -28.1095  -36.2663   24.6242 H   0  0  0  0  0  0
  -27.2311  -37.1413   25.8859 H   0  0  0  0  0  0
  -20.9271  -29.8743   21.6997 H   0  0  0  0  0  0
  -26.0183  -38.2877   24.1425 H   0  0  0  0  0  0
  -32.8608  -19.0731   21.5767 H   0  0  0  0  0  0
  -32.4813  -16.7314   21.0147 H   0  0  0  0  0  0
  -28.8228  -19.4581   22.9882 H   0  0  0  0  0  0
  -31.6171  -24.9752   22.3348 H   0  0  0  0  0  0
  -31.3740  -23.9617   20.9128 H   0  0  0  0  0  0
  -32.4851  -23.4650   22.1775 H   0  0  0  0  0  0
  -28.2001  -23.2875   22.9611 H   0  0  0  0  0  0
  -29.0185  -24.7407   23.4355 H   0  0  0  0  0  0
  -29.8609  -26.4216   21.4453 H   0  0  0  0  0  0
  -28.2597  -26.6278   22.1323 H   0  0  0  0  0  0
  -28.1270  -17.4705   24.4952 H   0  0  0  0  0  0
  -26.9734  -18.2872   23.4442 H   0  0  0  0  0  0
  -30.6416  -23.2124   23.7863 H   0  0  0  0  0  0
  -29.2045  -15.0208   21.7749 H   0  0  0  0  0  0
  -29.4995  -21.5187   21.7514 H   0  0  0  0  0  0
  1 25  1  0  0  0
  1 30  2  0  0  0
  1 85  1  0  0  0
  2  3  1  0  0  0
  2 25  1  0  0  0
  2 93  1  0  0  0
  2 94  1  0  0  0
  3  4  1  0  0  0
  3 95  1  0  0  0
  3 96  1  0  0  0
  4  5  1  0  0  0
  4 97  1  0  0  0
  4 98  1  0  0  0
  5  6  1  0  0  0
  5 26  1  0  0  0
  5 99  1  0  0  0
  6 25  1  0  0  0
  6100  1  0  0  0
  6101  1  0  0  0
  7  8  2  0  0  0
  7 26  1  0  0  0
  7 29  1  0  0  0
  8  9  1  0  0  0
  8 22  1  0  0  0
  9 10  1  0  0  0
  9 27  2  0  0  0
 10 11  2  0  0  0
 10 15  1  0  0  0
 11 12  1  0  0  0
 11102  1  0  0  0
 12 13  2  0  0  0
 12103  1  0  0  0
 13 14  1  0  0  0
 13 31  1  0  0  0
 14 15  2  0  0  0
 14104  1  0  0  0
 15105  1  0  0  0
 16 17  2  0  0  0
 16 21  1  0  0  0
 16 31  1  0  0  0
 17 18  1  0  0  0
 17106  1  0  0  0
 18 19  2  0  0  0
 18107  1  0  0  0
 19 20  1  0  0  0
 19 24  1  0  0  0
 20 21  2  0  0  0
 20108  1  0  0  0
 21 23  1  0  0  0
 22 28  1  0  0  0
 22 32  2  0  0  0
 26 27  1  0  0  0
 28109  1  0  0  0
 28110  1  0  0  0
 29111  1  0  0  0
 29112  1  0  0  0
 33 34  1  0  0  0
 33 66  1  0  0  0
 33 70  2  0  0  0
 34 36  1  0  0  0
 34 59  1  0  0  0
 34113  1  0  0  0
 35 44  2  0  0  0
 35 45  1  0  0  0
 35 68  1  0  0  0
 36 56  1  0  0  0
 36114  1  0  0  0
 37 39  1  0  0  0
 37 47  1  0  0  0
 37 66  1  0  0  0
 37115  1  0  0  0
 38 43  2  0  0  0
 38 46  1  0  0  0
 38 47  1  0  0  0
 39 64  1  0  0  0
 39 67  2  0  0  0
 40 52  1  0  0  0
 40 53  2  0  0  0
 40 58  1  0  0  0
 41116  1  0  0  0
 41117  1  0  0  0
 41118  1  0  0  0
 41 48  1  0  0  0
 42 43  1  0  0  0
 42 66  1  0  0  0
 42119  1  0  0  0
 42120  1  0  0  0
 43 44  1  0  0  0
 44121  1  0  0  0
 45 46  2  0  0  0
 45122  1  0  0  0
 46123  1  0  0  0
 47124  1  0  0  0
 47125  1  0  0  0
 48 56  1  0  0  0
 48 65  1  0  0  0
 48126  1  0  0  0
 49 50  1  0  0  0
 49 53  1  0  0  0
 49 64  1  0  0  0
 49127  1  0  0  0
 50 51  1  0  0  0
 50128  1  0  0  0
 50129  1  0  0  0
 51 52  1  0  0  0
 51130  1  0  0  0
 51131  1  0  0  0
 52132  1  0  0  0
 52133  1  0  0  0
 53 54  1  0  0  0
 54 55  2  0  0  0
 54134  1  0  0  0
 55 57  1  0  0  0
 55135  1  0  0  0
 56 69  2  0  0  0
 57 58  2  0  0  0
 57136  1  0  0  0
 58137  1  0  0  0
 59 60  1  0  0  0
 59 61  1  0  0  0
 59 62  1  0  0  0
 60138  1  0  0  0
 60139  1  0  0  0
 60140  1  0  0  0
 61141  1  0  0  0
 61142  1  0  0  0
 61143  1  0  0  0
 62144  1  0  0  0
 62145  1  0  0  0
 62146  1  0  0  0
 63 65  1  0  0  0
 63147  1  0  0  0
 63148  1  0  0  0
 63149  1  0  0  0
 64150  1  0  0  0
 65151  1  0  0  0
 68 81  1  0  0  0
 71 72  2  0  0  0
 71 74  1  0  0  0
 71152  1  0  0  0
 72 75  1  0  0  0
 72153  1  0  0  0
 73 74  2  0  0  0
 73 76  1  0  0  0
 73154  1  0  0  0
 74 77  1  0  0  0
 75 76  2  0  0  0
 75 85  1  0  0  0
 76 89  1  0  0  0
 77 86  1  0  0  0
 77 87  2  0  0  0
 78 80  1  0  0  0
 78 81  1  0  0  0
 78 88  2  0  0  0
 79155  1  0  0  0
 79156  1  0  0  0
 79157  1  0  0  0
 79 83  1  0  0  0
 80 83  1  0  0  0
 80158  1  0  0  0
 80159  1  0  0  0
 81160  1  0  0  0
 81161  1  0  0  0
 82 84  1  0  0  0
 82 89  1  0  0  0
 82162  1  0  0  0
 82163  1  0  0  0
 83 86  1  0  0  0
 83164  1  0  0  0
 84 90  1  0  0  0
 84 91  1  0  0  0
 84 92  1  0  0  0
 85165  1  0  0  0
 86166  1  0  0  0
M  ISO  4   1 100  68 101  81 101  85 100
M  END
> <chiral flag>
0

> <version>
0

> <s_m_source_file>
/data/baiqing/PycharmProjects/Reinvent-master-3.2/result/LINK_invent/BTK/process_docking_weight1_custom_product_contain_oxygen_bond_distance_aromatic_linkinvent_7_9_3/rearranged_h_0173.sdf

> <i_m_source_file_index>
17

> <r_mmod_Potential_Energy-OPLS-2005>
-108.526634216309

> <r_mmod_Stretch_Energy-OPLS-2005>
36.8061561584473

> <r_mmod_Bend_Energy-OPLS-2005>
105.070991516113

> <r_mmod_Torsional_Energy-OPLS-2005>
235.886108398438

> <r_mmod_Improper_Torsional_Energy-OPLS-2005>
3.35938048362732

> <r_mmod_Van_der_Waal_Energy-OPLS-2005>
152.529418945312

> <r_mmod_Electrostatic_Energy-OPLS-2005>
-402.035980224609

> <r_mmod_Solvation_Energy-OPLS-2005>
-248.012832641602

> <b_mmod_Minimization_Converged-OPLS-2005>
0

> <r_mmod_RMS_Derivative-OPLS-2005>
1.24999797344208

$$$$
17
                    3D
 Structure written by MMmdl.
158166  0  0  1  0            999 V2000
  -29.9116  -16.1105   20.6494 C   0  0  0  0  0  0
  -30.3341  -13.4896   19.6913 C   0  0  0  0  0  0
  -29.5749  -12.8571   18.4613 C   0  0  0  0  0  0
  -28.1849  -12.3524   18.8585 C   0  0  0  0  0  0
  -27.5626  -13.3470   19.8563 C   0  0  2  0  0  0
  -28.4808  -13.7889   21.0260 C   0  0  0  0  0  0
  -25.2077  -13.8302   20.5805 C   0  0  0  0  0  0
  -24.1534  -13.0399   20.9263 C   0  0  0  0  0  0
  -24.6300  -11.6922   20.8719 C   0  0  0  0  0  0
  -23.9057  -10.4265   21.0368 C   0  0  0  0  0  0
  -24.3617   -9.4203   21.9166 C   0  0  0  0  0  0
  -23.6295   -8.2237   22.0755 C   0  0  0  0  0  0
  -22.4279   -8.0264   21.3542 C   0  0  0  0  0  0
  -21.9904   -9.0223   20.4635 C   0  0  0  0  0  0
  -22.7220  -10.2103   20.3034 C   0  0  0  0  0  0
  -21.6853   -6.0720   22.5287 C   0  0  0  0  0  0
  -21.4011   -6.5631   23.8216 C   0  0  0  0  0  0
  -21.3667   -5.6787   24.9180 C   0  0  0  0  0  0
  -21.6045   -4.3050   24.7237 C   0  0  0  0  0  0
  -21.8812   -3.8135   23.4362 C   0  0  0  0  0  0
  -21.9192   -4.6946   22.3414 C   0  0  0  0  0  0
  -22.7571  -13.5125   21.1930 C   0  0  0  0  0  0
  -22.1656   -4.2131   21.0989 F   0  0  0  0  0  0
  -21.5644   -3.4544   25.7753 F   0  0  0  0  0  0
  -29.5537  -14.6388   20.4534 N   0  0  0  0  0  0
  -26.2507  -12.9661   20.3254 N   0  0  0  0  0  0
  -25.9243  -11.6695   20.5637 N   0  0  0  0  0  0
  -22.0258  -12.8110   22.0497 N   0  0  0  0  0  0
  -25.3675  -15.2061   20.4357 N   0  0  0  0  0  0
  -31.1486  -16.0472   20.3971 O   0  0  0  0  0  0
  -21.6647   -6.8859   21.4247 O   0  0  0  0  0  0
  -22.3265  -14.5439   20.6782 O   0  0  0  0  0  0
  -24.7450  -31.4804   23.3655 C   0  0  0  0  0  0
  -25.9400  -32.3413   23.8842 C   0  0  1  0  0  0
  -27.5043  -27.2437   19.3599 C   0  0  0  0  0  0
  -25.5447  -33.7535   24.1723 N   0  0  0  0  0  0
  -23.5290  -29.7614   21.8977 C   0  0  2  0  0  0
  -25.2688  -28.5914   19.5517 C   0  0  0  0  0  0
  -22.6238  -29.1417   22.8210 C   0  0  0  0  0  0
  -17.9532  -28.1292   22.8402 C   0  0  0  0  0  0
  -24.1464  -36.6815   23.2654 C   0  0  0  0  0  0
  -26.5168  -29.8268   22.0531 C   0  0  0  0  0  0
  -26.6536  -29.0103   20.4023 C   0  0  0  0  0  0
  -27.7770  -28.3035   20.2122 C   0  0  0  0  0  0
  -26.6011  -27.3139   18.2854 C   0  0  0  0  0  0
  -25.3393  -27.8654   18.4370 C   0  0  0  0  0  0
  -23.6199  -28.8876   20.2679 C   0  0  0  0  0  0
  -25.4104  -36.2409   24.0231 C   0  0  1  0  0  0
  -20.4628  -28.2610   23.2096 C   0  0  2  0  0  0
  -20.5621  -26.8521   22.5884 C   0  0  0  0  0  0
  -19.5023  -26.6142   21.5210 C   0  0  0  0  0  0
  -18.1122  -26.7886   22.1399 C   0  0  0  0  0  0
  -19.0749  -28.8493   23.3051 C   0  0  0  0  0  0
  -18.9057  -30.1183   23.9000 C   0  0  0  0  0  0
  -17.6188  -30.6610   24.0529 C   0  0  0  0  0  0
  -25.9018  -34.8655   23.4957 C   0  0  0  0  0  0
  -16.4982  -29.9282   23.6221 C   0  0  0  0  0  0
  -16.6659  -28.6670   23.0199 C   0  0  0  0  0  0
  -26.5032  -31.6756   25.1913 C   0  0  0  0  0  0
  -25.4047  -31.4317   26.2571 C   0  0  0  0  0  0
  -27.1755  -30.3157   24.9317 C   0  0  0  0  0  0
  -27.6135  -32.5601   25.7907 C   0  0  0  0  0  0
  -27.5483  -37.1502   24.8453 C   0  0  0  0  0  0
  -21.3435  -29.1417   22.5036 N   0  0  0  0  0  0
  -26.4213  -37.3225   23.9327 N   0  0  0  0  0  0
  -24.9460  -30.2462   22.7120 N   0  0  0  0  0  0
  -23.1197  -28.6167   23.8034 O   0  0  0  0  0  0
  -27.4094  -26.0254   19.9147 O   0  0  0  0  0  0
  -26.6032  -34.8276   22.4814 O   0  0  0  0  0  0
  -23.6175  -31.9439   23.6221 O   0  0  0  0  0  0
  -29.2937  -20.5196   20.8163 C   0  0  0  0  0  0
  -28.7767  -22.0341   21.0674 C   0  0  0  0  0  0
  -27.5675  -22.5397   21.7249 C   0  0  0  0  0  0
  -28.7095  -19.2170   21.1672 C   0  0  0  0  0  0
  -24.8718  -26.3167   20.9121 C   0  0  0  0  0  0
  -26.5519  -24.1402   23.8108 C   0  0  0  0  0  0
  -25.1022  -30.6759   20.4368 C   0  0  0  0  0  0
  -25.9385  -25.5269   19.9094 C   0  0  0  0  0  0
  -26.6390  -24.3327   22.2922 C   0  0  1  0  0  0
  -25.2608  -27.7498   21.7479 C   0  0  1  0  0  0
  -29.0909  -17.5519   20.9904 N   0  0  0  0  0  0
  -26.4889  -26.2981   22.1695 N   0  3  0  0  0  0
  -23.7779  -25.7751   21.0854 O   0  0  0  0  0  0
  -29.5806  -22.9608   20.5981 F   0  0  0  0  0  0
  -27.2500  -20.4886   21.9323 S   0  0  0  0  0  0
  -31.2797  -13.8792   19.3149 H   0  0  0  0  0  0
  -30.6355  -12.7034   20.3870 H   0  0  0  0  0  0
  -30.1614  -12.0503   18.0199 H   0  0  0  0  0  0
  -29.4691  -13.6171   17.6866 H   0  0  0  0  0  0
  -28.2930  -11.3767   19.3320 H   0  0  0  0  0  0
  -27.5487  -12.2149   17.9834 H   0  0  0  0  0  0
  -27.3995  -14.2393   19.2493 H   0  0  0  0  0  0
  -28.8479  -12.9397   21.6071 H   0  0  0  0  0  0
  -27.9173  -14.4066   21.7266 H   0  0  0  0  0  0
  -25.2753   -9.5713   22.4750 H   0  0  0  0  0  0
  -24.0000   -7.4647   22.7501 H   0  0  0  0  0  0
  -21.0825   -8.8719   19.8958 H   0  0  0  0  0  0
  -22.3644  -10.9631   19.6153 H   0  0  0  0  0  0
  -21.1985   -7.6139   23.9712 H   0  0  0  0  0  0
  -21.1508   -6.0525   25.9084 H   0  0  0  0  0  0
  -22.0581   -2.7599   23.2871 H   0  0  0  0  0  0
  -22.3917  -11.9790   22.4878 H   0  0  0  0  0  0
  -21.0880  -13.1124   22.2723 H   0  0  0  0  0  0
  -24.6015  -15.8567   20.5692 H   0  0  0  0  0  0
  -26.2244  -15.6589   20.1450 H   0  0  0  0  0  0
  -26.7244  -32.3745   23.1324 H   0  0  0  0  0  0
  -24.9028  -33.8718   24.9437 H   0  0  0  0  0  0
  -22.9540  -30.6691   21.6917 H   0  0  0  0  0  0
  -23.3680  -35.9182   23.3229 H   0  0  0  0  0  0
  -24.3510  -36.8576   22.2082 H   0  0  0  0  0  0
  -23.7300  -37.5987   23.6832 H   0  0  0  0  0  0
  -27.1935  -30.6798   22.0194 H   0  0  0  0  0  0
  -27.0288  -29.1396   22.7197 H   0  0  0  0  0  0
  -28.5323  -28.2628   20.9852 H   0  0  0  0  0  0
  -26.6729  -26.5602   17.5109 H   0  0  0  0  0  0
  -24.4962  -27.6318   17.8002 H   0  0  0  0  0  0
  -23.0567  -29.4591   19.5258 H   0  0  0  0  0  0
  -23.0007  -27.9925   20.2830 H   0  0  0  0  0  0
  -25.1319  -36.1187   25.0725 H   0  0  0  0  0  0
  -20.7744  -28.1737   24.2543 H   0  0  0  0  0  0
  -20.3988  -26.1206   23.3812 H   0  0  0  0  0  0
  -21.5573  -26.6322   22.2052 H   0  0  0  0  0  0
  -19.6008  -25.6127   21.1015 H   0  0  0  0  0  0
  -19.6415  -27.3166   20.6978 H   0  0  0  0  0  0
  -17.3525  -26.6912   21.3629 H   0  0  0  0  0  0
  -17.9175  -25.9955   22.8637 H   0  0  0  0  0  0
  -19.7647  -30.6716   24.2557 H   0  0  0  0  0  0
  -17.4886  -31.6324   24.5099 H   0  0  0  0  0  0
  -15.5050  -30.3384   23.7457 H   0  0  0  0  0  0
  -15.7965  -28.1202   22.6805 H   0  0  0  0  0  0
  -24.6734  -30.6801   25.9553 H   0  0  0  0  0  0
  -24.8570  -32.3462   26.4855 H   0  0  0  0  0  0
  -25.8346  -31.0811   27.1951 H   0  0  0  0  0  0
  -26.4625  -29.5231   24.7098 H   0  0  0  0  0  0
  -27.6793  -29.9664   25.8340 H   0  0  0  0  0  0
  -27.9640  -30.3884   24.1847 H   0  0  0  0  0  0
  -27.2318  -33.5217   26.1358 H   0  0  0  0  0  0
  -28.3924  -32.7666   25.0554 H   0  0  0  0  0  0
  -28.0951  -32.0960   26.6522 H   0  0  0  0  0  0
  -28.2451  -37.9833   24.7391 H   0  0  0  0  0  0
  -28.1040  -36.2326   24.6436 H   0  0  0  0  0  0
  -27.2172  -37.1293   25.8855 H   0  0  0  0  0  0
  -21.0015  -29.6193   21.6823 H   0  0  0  0  0  0
  -25.9985  -38.2267   24.1218 H   0  0  0  0  0  0
  -30.2340  -20.4866   20.2868 H   0  0  0  0  0  0
  -27.5229  -24.2847   24.2804 H   0  0  0  0  0  0
  -26.2066  -23.1327   24.0487 H   0  0  0  0  0  0
  -25.8432  -24.8317   24.2707 H   0  0  0  0  0  0
  -24.1629  -31.1643   20.1495 H   0  0  0  0  0  0
  -25.5663  -30.8569   19.4510 H   0  0  0  0  0  0
  -25.5882  -31.5593   20.8730 H   0  0  0  0  0  0
  -25.4790  -25.4397   18.9257 H   0  0  0  0  0  0
  -25.9516  -24.4600   20.1000 H   0  0  0  0  0  0
  -25.6157  -24.0542   22.0422 H   0  0  0  0  0  0
  -24.7619  -27.7378   22.6975 H   0  0  0  0  0  0
  -30.0619  -17.8188   20.8928 H   0  0  0  0  0  0
  -27.0905  -26.3904   21.3532 H   0  0  0  0  0  0
  -27.0438  -26.6316   22.9412 H   0  0  0  0  0  0
  1 25  1  0  0  0
  1 30  2  0  0  0
  1 81  1  0  0  0
  2  3  1  0  0  0
  2 25  1  0  0  0
  2 86  1  0  0  0
  2 87  1  0  0  0
  3  4  1  0  0  0
  3 88  1  0  0  0
  3 89  1  0  0  0
  4  5  1  0  0  0
  4 90  1  0  0  0
  4 91  1  0  0  0
  5  6  1  0  0  0
  5 26  1  0  0  0
  5 92  1  0  0  0
  6 25  1  0  0  0
  6 93  1  0  0  0
  6 94  1  0  0  0
  7  8  2  0  0  0
  7 26  1  0  0  0
  7 29  1  0  0  0
  8  9  1  0  0  0
  8 22  1  0  0  0
  9 10  1  0  0  0
  9 27  2  0  0  0
 10 11  2  0  0  0
 10 15  1  0  0  0
 11 12  1  0  0  0
 11 95  1  0  0  0
 12 13  2  0  0  0
 12 96  1  0  0  0
 13 14  1  0  0  0
 13 31  1  0  0  0
 14 15  2  0  0  0
 14 97  1  0  0  0
 15 98  1  0  0  0
 16 17  2  0  0  0
 16 21  1  0  0  0
 16 31  1  0  0  0
 17 18  1  0  0  0
 17 99  1  0  0  0
 18 19  2  0  0  0
 18100  1  0  0  0
 19 20  1  0  0  0
 19 24  1  0  0  0
 20 21  2  0  0  0
 20101  1  0  0  0
 21 23  1  0  0  0
 22 28  1  0  0  0
 22 32  2  0  0  0
 26 27  1  0  0  0
 28102  1  0  0  0
 28103  1  0  0  0
 29104  1  0  0  0
 29105  1  0  0  0
 33 34  1  0  0  0
 33 66  1  0  0  0
 33 70  2  0  0  0
 34 36  1  0  0  0
 34 59  1  0  0  0
 34106  1  0  0  0
 35 44  2  0  0  0
 35 45  1  0  0  0
 35 68  1  0  0  0
 36 56  1  0  0  0
 36107  1  0  0  0
 37 39  1  0  0  0
 37 47  1  0  0  0
 37 66  1  0  0  0
 37108  1  0  0  0
 38 43  2  0  0  0
 38 46  1  0  0  0
 38 47  1  0  0  0
 39 64  1  0  0  0
 39 67  2  0  0  0
 40 52  1  0  0  0
 40 53  2  0  0  0
 40 58  1  0  0  0
 41109  1  0  0  0
 41110  1  0  0  0
 41111  1  0  0  0
 41 48  1  0  0  0
 42 43  1  0  0  0
 42 66  1  0  0  0
 42112  1  0  0  0
 42113  1  0  0  0
 43 44  1  0  0  0
 44114  1  0  0  0
 45 46  2  0  0  0
 45115  1  0  0  0
 46116  1  0  0  0
 47117  1  0  0  0
 47118  1  0  0  0
 48 56  1  0  0  0
 48 65  1  0  0  0
 48119  1  0  0  0
 49 50  1  0  0  0
 49 53  1  0  0  0
 49 64  1  0  0  0
 49120  1  0  0  0
 50 51  1  0  0  0
 50121  1  0  0  0
 50122  1  0  0  0
 51 52  1  0  0  0
 51123  1  0  0  0
 51124  1  0  0  0
 52125  1  0  0  0
 52126  1  0  0  0
 53 54  1  0  0  0
 54 55  2  0  0  0
 54127  1  0  0  0
 55 57  1  0  0  0
 55128  1  0  0  0
 56 69  2  0  0  0
 57 58  2  0  0  0
 57129  1  0  0  0
 58130  1  0  0  0
 59 60  1  0  0  0
 59 61  1  0  0  0
 59 62  1  0  0  0
 60131  1  0  0  0
 60132  1  0  0  0
 60133  1  0  0  0
 61134  1  0  0  0
 61135  1  0  0  0
 61136  1  0  0  0
 62137  1  0  0  0
 62138  1  0  0  0
 62139  1  0  0  0
 63 65  1  0  0  0
 63140  1  0  0  0
 63141  1  0  0  0
 63142  1  0  0  0
 64143  1  0  0  0
 65144  1  0  0  0
 68 78  1  0  0  0
 71 72  1  0  0  0
 71 74  2  0  0  0
 71145  1  0  0  0
 72 73  2  0  0  0
 72 84  1  0  0  0
 73 79  1  0  0  0
 73 85  1  0  0  0
 74 81  1  0  0  0
 74 85  1  0  0  0
 75 78  1  0  0  0
 75 80  1  0  0  0
 75 83  2  0  0  0
 76146  1  0  0  0
 76147  1  0  0  0
 76148  1  0  0  0
 76 79  1  0  0  0
 77149  1  0  0  0
 77150  1  0  0  0
 77151  1  0  0  0
 77 80  1  0  0  0
 78152  1  0  0  0
 78153  1  0  0  0
 79 82  1  0  0  0
 79154  1  0  0  0
 80 82  1  0  0  0
 80155  1  0  0  0
 81156  1  0  0  0
 82157  1  0  0  0
 82158  1  0  0  0
M  CHG  1  82   1
M  ISO  4   1 100  68 101  78 101  81 100
M  END
> <chiral flag>
0

> <version>
0

> <s_m_source_file>
/data/baiqing/PycharmProjects/Reinvent-master-3.2/result/LINK_invent/BTK/process_docking_weight1_custom_product_contain_oxygen_bond_distance_aromatic_linkinvent_7_9_3/rearranged_h_0173.sdf

> <i_m_source_file_index>
18

> <r_mmod_Potential_Energy-OPLS-2005>
12067.984375

> <r_mmod_Stretch_Energy-OPLS-2005>
6300.5205078125

> <r_mmod_Bend_Energy-OPLS-2005>
1716.79211425781

> <r_mmod_Torsional_Energy-OPLS-2005>
435.305816650391

> <r_mmod_Improper_Torsional_Energy-OPLS-2005>
28.8866081237793

> <r_mmod_Van_der_Waal_Energy-OPLS-2005>
1916.69116210938

> <r_mmod_Electrostatic_Energy-OPLS-2005>
-406.197570800781

> <r_mmod_Solvation_Energy-OPLS-2005>
-409.342407226562

> <b_mmod_Minimization_Converged-OPLS-2005>
0

> <r_mmod_RMS_Derivative-OPLS-2005>
3.36479902267456

$$$$
18
                    3D
 Structure written by MMmdl.
159167  0  0  1  0            999 V2000
  -30.7078  -14.5039   20.5527 C   0  0  0  0  0  0
  -30.4164  -12.3206   19.4390 C   0  0  0  0  0  0
  -29.4956  -12.5018   18.2150 C   0  0  0  0  0  0
  -28.0177  -12.3606   18.6241 C   0  0  0  0  0  0
  -27.6578  -13.2137   19.8700 C   0  0  2  0  0  0
  -28.6983  -13.0306   20.9983 C   0  0  0  0  0  0
  -25.2566  -13.8193   20.5690 C   0  0  0  0  0  0
  -24.1826  -13.0452   20.9180 C   0  0  0  0  0  0
  -24.6390  -11.6922   20.8742 C   0  0  0  0  0  0
  -23.9063  -10.4303   21.0414 C   0  0  0  0  0  0
  -24.3616   -9.4211   21.9182 C   0  0  0  0  0  0
  -23.6288   -8.2249   22.0757 C   0  0  0  0  0  0
  -22.4269   -8.0292   21.3551 C   0  0  0  0  0  0
  -21.9908   -9.0265   20.4653 C   0  0  0  0  0  0
  -22.7240  -10.2139   20.3058 C   0  0  0  0  0  0
  -21.6852   -6.0736   22.5280 C   0  0  0  0  0  0
  -21.4018   -6.5638   23.8213 C   0  0  0  0  0  0
  -21.3661   -5.6789   24.9174 C   0  0  0  0  0  0
  -21.6044   -4.3052   24.7222 C   0  0  0  0  0  0
  -21.8820   -3.8147   23.4344 C   0  0  0  0  0  0
  -21.9191   -4.6964   22.3400 C   0  0  0  0  0  0
  -22.7851  -13.5252   21.1835 C   0  0  0  0  0  0
  -22.1657   -4.2154   21.0975 F   0  0  0  0  0  0
  -21.5628   -3.4532   25.7731 F   0  0  0  0  0  0
  -30.0281  -13.3282   20.4419 N   0  0  0  0  0  0
  -26.3002  -12.9368   20.3343 N   0  0  0  0  0  0
  -25.9315  -11.6521   20.5761 N   0  0  0  0  0  0
  -22.0475  -12.8259   22.0398 N   0  0  0  0  0  0
  -25.4275  -15.1914   20.4111 N   0  0  0  0  0  0
  -31.8410  -14.6366   20.0881 O   0  0  0  0  0  0
  -21.6634   -6.8887   21.4249 O   0  0  0  0  0  0
  -22.3533  -14.5544   20.6667 O   0  0  0  0  0  0
  -24.6165  -31.8669   23.2112 C   0  0  0  0  0  0
  -25.9063  -32.4812   23.8402 C   0  0  1  0  0  0
  -27.2218  -27.4004   20.1106 C   0  0  0  0  0  0
  -25.5917  -33.8612   24.2330 N   0  0  0  0  0  0
  -23.4064  -30.4922   21.5512 C   0  0  2  0  0  0
  -24.8541  -28.9561   20.1178 C   0  0  0  0  0  0
  -22.7413  -29.4656   22.4971 C   0  0  0  0  0  0
  -18.0279  -28.1342   22.8470 C   0  0  0  0  0  0
  -24.1487  -36.7308   23.2634 C   0  0  0  0  0  0
  -25.9399  -30.8184   21.3772 C   0  0  0  0  0  0
  -26.0139  -29.4491   20.7293 C   0  0  0  0  0  0
  -27.2021  -28.6748   20.7310 C   0  0  0  0  0  0
  -26.0627  -26.9590   19.4471 C   0  0  0  0  0  0
  -24.8740  -27.7094   19.4715 C   0  0  0  0  0  0
  -23.6202  -29.8285   20.1647 C   0  0  0  0  0  0
  -25.4115  -36.3104   24.0327 C   0  0  1  0  0  0
  -20.5865  -28.3660   23.1302 C   0  0  2  0  0  0
  -20.6780  -26.9391   22.5422 C   0  0  0  0  0  0
  -19.5783  -26.6350   21.5206 C   0  0  0  0  0  0
  -18.1948  -26.7887   22.1594 C   0  0  0  0  0  0
  -19.1520  -28.8811   23.2879 C   0  0  0  0  0  0
  -18.9443  -30.1412   23.8892 C   0  0  0  0  0  0
  -17.6441  -30.6551   24.0538 C   0  0  0  0  0  0
  -25.9046  -34.9468   23.5129 C   0  0  0  0  0  0
  -16.5336  -29.9053   23.6290 C   0  0  0  0  0  0
  -16.7264  -28.6466   23.0324 C   0  0  0  0  0  0
  -26.4497  -31.6589   25.0727 C   0  0  0  0  0  0
  -25.3759  -31.3700   26.1470 C   0  0  0  0  0  0
  -27.0334  -30.3022   24.6122 C   0  0  0  0  0  0
  -27.6065  -32.4314   25.7497 C   0  0  0  0  0  0
  -27.5583  -37.1817   24.8463 C   0  0  0  0  0  0
  -21.4133  -29.3042   22.3713 N   0  0  0  0  0  0
  -26.4297  -37.3789   23.9404 N   0  0  0  0  0  0
  -24.6721  -31.0739   22.1046 N   0  0  0  0  0  0
  -23.4170  -28.8183   23.3013 O   0  0  0  0  0  0
  -28.3604  -26.6212   20.0629 O   0  0  0  0  0  0
  -26.5592  -34.8918   22.4680 O   0  0  0  0  0  0
  -23.5352  -32.1441   23.7490 O   0  0  0  0  0  0
  -29.3816  -17.9487   21.3025 C   0  0  0  0  0  0
  -31.6772  -17.4400   20.7843 C   0  0  0  0  0  0
  -29.7201  -19.3297   21.2924 C   0  0  0  0  0  0
  -30.3684  -16.9622   21.0385 C   0  0  0  0  0  0
  -31.0593  -19.6646   21.0184 C   0  0  0  0  0  0
  -28.6416  -22.9155   21.3636 C   0  0  0  0  0  0
  -26.4626  -23.8714   20.7115 C   0  0  0  0  0  0
  -28.3718  -23.8626   19.0208 C   0  0  0  0  0  0
  -28.6884  -20.4046   21.6934 C   0  0  0  0  0  0
  -28.4511  -25.4983   20.9803 C   0  0  0  0  0  0
  -27.9896  -24.0563   20.5069 C   0  0  0  0  0  0
  -32.0105  -18.7450   20.7667 N   0  0  0  0  0  0
  -30.0172  -15.5569   21.0575 N   0  0  0  0  0  0
  -28.6026  -21.6454   20.8891 N   0  0  0  0  0  0
  -29.0773  -23.1681   22.4885 O   0  0  0  0  0  0
  -31.4459  -20.9616   21.0347 F   0  0  0  0  0  0
  -31.4633  -12.4014   19.1416 H   0  0  0  0  0  0
  -30.3075  -11.3188   19.8563 H   0  0  0  0  0  0
  -29.7425  -11.7690   17.4453 H   0  0  0  0  0  0
  -29.6618  -13.4828   17.7665 H   0  0  0  0  0  0
  -27.8326  -11.3059   18.8294 H   0  0  0  0  0  0
  -27.3694  -12.6238   17.7874 H   0  0  0  0  0  0
  -27.6942  -14.2560   19.5535 H   0  0  0  0  0  0
  -28.6762  -12.0068   21.3755 H   0  0  0  0  0  0
  -28.4563  -13.6642   21.8523 H   0  0  0  0  0  0
  -25.2758   -9.5676   22.4756 H   0  0  0  0  0  0
  -23.9991   -7.4638   22.7476 H   0  0  0  0  0  0
  -21.0840   -8.8794   19.8957 H   0  0  0  0  0  0
  -22.3711  -10.9681   19.6164 H   0  0  0  0  0  0
  -21.2022   -7.6146   23.9722 H   0  0  0  0  0  0
  -21.1476   -6.0513   25.9075 H   0  0  0  0  0  0
  -22.0596   -2.7612   23.2838 H   0  0  0  0  0  0
  -22.4074  -11.9918   22.4802 H   0  0  0  0  0  0
  -21.1094  -13.1303   22.2593 H   0  0  0  0  0  0
  -24.6597  -15.8456   20.5181 H   0  0  0  0  0  0
  -26.2725  -15.6286   20.0659 H   0  0  0  0  0  0
  -26.7129  -32.5528   23.1159 H   0  0  0  0  0  0
  -25.0091  -33.9771   25.0492 H   0  0  0  0  0  0
  -22.6970  -31.3109   21.4123 H   0  0  0  0  0  0
  -23.3741  -35.9647   23.3314 H   0  0  0  0  0  0
  -24.3575  -36.8906   22.2042 H   0  0  0  0  0  0
  -23.7256  -37.6522   23.6644 H   0  0  0  0  0  0
  -26.0603  -31.5826   20.6077 H   0  0  0  0  0  0
  -26.8240  -30.8693   21.9995 H   0  0  0  0  0  0
  -28.0986  -29.0500   21.2034 H   0  0  0  0  0  0
  -26.0845  -26.0482   18.8725 H   0  0  0  0  0  0
  -23.9943  -27.3407   18.9630 H   0  0  0  0  0  0
  -23.7391  -30.6063   19.4091 H   0  0  0  0  0  0
  -22.7439  -29.2532   19.8607 H   0  0  0  0  0  0
  -25.1303  -36.1967   25.0819 H   0  0  0  0  0  0
  -20.9959  -28.3220   24.1419 H   0  0  0  0  0  0
  -20.5652  -26.2292   23.3626 H   0  0  0  0  0  0
  -21.6665  -26.7420   22.1253 H   0  0  0  0  0  0
  -19.6971  -25.6263   21.1229 H   0  0  0  0  0  0
  -19.6738  -27.3158   20.6735 H   0  0  0  0  0  0
  -17.4241  -26.6636   21.3973 H   0  0  0  0  0  0
  -18.0342  -26.0014   22.8968 H   0  0  0  0  0  0
  -19.7923  -30.7211   24.2279 H   0  0  0  0  0  0
  -17.4987  -31.6239   24.5126 H   0  0  0  0  0  0
  -15.5329  -30.2953   23.7582 H   0  0  0  0  0  0
  -15.8670  -28.0785   22.7034 H   0  0  0  0  0  0
  -24.5930  -30.7053   25.7808 H   0  0  0  0  0  0
  -24.8956  -32.2851   26.4929 H   0  0  0  0  0  0
  -25.8103  -30.8863   27.0225 H   0  0  0  0  0  0
  -26.2888  -29.6778   24.1163 H   0  0  0  0  0  0
  -27.4077  -29.7265   25.4598 H   0  0  0  0  0  0
  -27.8739  -30.4324   23.9300 H   0  0  0  0  0  0
  -27.2673  -33.3595   26.2111 H   0  0  0  0  0  0
  -28.3858  -32.6902   25.0318 H   0  0  0  0  0  0
  -28.0749  -31.8417   26.5385 H   0  0  0  0  0  0
  -28.2617  -38.0102   24.7507 H   0  0  0  0  0  0
  -28.1068  -36.2634   24.6308 H   0  0  0  0  0  0
  -27.2290  -37.1491   25.8863 H   0  0  0  0  0  0
  -20.9284  -29.8783   21.6957 H   0  0  0  0  0  0
  -26.0184  -38.2862   24.1416 H   0  0  0  0  0  0
  -28.3687  -17.6471   21.5310 H   0  0  0  0  0  0
  -32.5203  -16.7923   20.6135 H   0  0  0  0  0  0
  -26.1680  -22.8206   20.7225 H   0  0  0  0  0  0
  -25.8624  -24.3154   19.9278 H   0  0  0  0  0  0
  -26.1352  -24.2976   21.6605 H   0  0  0  0  0  0
  -28.0379  -22.9045   18.6206 H   0  0  0  0  0  0
  -29.4514  -23.9238   18.8816 H   0  0  0  0  0  0
  -27.9256  -24.6337   18.3938 H   0  0  0  0  0  0
  -28.8719  -20.6468   22.7419 H   0  0  0  0  0  0
  -27.6961  -19.9516   21.6760 H   0  0  0  0  0  0
  -29.5137  -25.4496   21.2224 H   0  0  0  0  0  0
  -27.9647  -25.7559   21.9231 H   0  0  0  0  0  0
  -29.0872  -15.3303   21.3772 H   0  0  0  0  0  0
  -28.2344  -21.5421   19.9536 H   0  0  0  0  0  0
  1 25  1  0  0  0
  1 30  2  0  0  0
  1 83  1  0  0  0
  2  3  1  0  0  0
  2 25  1  0  0  0
  2 87  1  0  0  0
  2 88  1  0  0  0
  3  4  1  0  0  0
  3 89  1  0  0  0
  3 90  1  0  0  0
  4  5  1  0  0  0
  4 91  1  0  0  0
  4 92  1  0  0  0
  5  6  1  0  0  0
  5 26  1  0  0  0
  5 93  1  0  0  0
  6 25  1  0  0  0
  6 94  1  0  0  0
  6 95  1  0  0  0
  7  8  2  0  0  0
  7 26  1  0  0  0
  7 29  1  0  0  0
  8  9  1  0  0  0
  8 22  1  0  0  0
  9 10  1  0  0  0
  9 27  2  0  0  0
 10 11  2  0  0  0
 10 15  1  0  0  0
 11 12  1  0  0  0
 11 96  1  0  0  0
 12 13  2  0  0  0
 12 97  1  0  0  0
 13 14  1  0  0  0
 13 31  1  0  0  0
 14 15  2  0  0  0
 14 98  1  0  0  0
 15 99  1  0  0  0
 16 17  2  0  0  0
 16 21  1  0  0  0
 16 31  1  0  0  0
 17 18  1  0  0  0
 17100  1  0  0  0
 18 19  2  0  0  0
 18101  1  0  0  0
 19 20  1  0  0  0
 19 24  1  0  0  0
 20 21  2  0  0  0
 20102  1  0  0  0
 21 23  1  0  0  0
 22 28  1  0  0  0
 22 32  2  0  0  0
 26 27  1  0  0  0
 28103  1  0  0  0
 28104  1  0  0  0
 29105  1  0  0  0
 29106  1  0  0  0
 33 34  1  0  0  0
 33 66  1  0  0  0
 33 70  2  0  0  0
 34 36  1  0  0  0
 34 59  1  0  0  0
 34107  1  0  0  0
 35 44  2  0  0  0
 35 45  1  0  0  0
 35 68  1  0  0  0
 36 56  1  0  0  0
 36108  1  0  0  0
 37 39  1  0  0  0
 37 47  1  0  0  0
 37 66  1  0  0  0
 37109  1  0  0  0
 38 43  2  0  0  0
 38 46  1  0  0  0
 38 47  1  0  0  0
 39 64  1  0  0  0
 39 67  2  0  0  0
 40 52  1  0  0  0
 40 53  2  0  0  0
 40 58  1  0  0  0
 41110  1  0  0  0
 41111  1  0  0  0
 41112  1  0  0  0
 41 48  1  0  0  0
 42 43  1  0  0  0
 42 66  1  0  0  0
 42113  1  0  0  0
 42114  1  0  0  0
 43 44  1  0  0  0
 44115  1  0  0  0
 45 46  2  0  0  0
 45116  1  0  0  0
 46117  1  0  0  0
 47118  1  0  0  0
 47119  1  0  0  0
 48 56  1  0  0  0
 48 65  1  0  0  0
 48120  1  0  0  0
 49 50  1  0  0  0
 49 53  1  0  0  0
 49 64  1  0  0  0
 49121  1  0  0  0
 50 51  1  0  0  0
 50122  1  0  0  0
 50123  1  0  0  0
 51 52  1  0  0  0
 51124  1  0  0  0
 51125  1  0  0  0
 52126  1  0  0  0
 52127  1  0  0  0
 53 54  1  0  0  0
 54 55  2  0  0  0
 54128  1  0  0  0
 55 57  1  0  0  0
 55129  1  0  0  0
 56 69  2  0  0  0
 57 58  2  0  0  0
 57130  1  0  0  0
 58131  1  0  0  0
 59 60  1  0  0  0
 59 61  1  0  0  0
 59 62  1  0  0  0
 60132  1  0  0  0
 60133  1  0  0  0
 60134  1  0  0  0
 61135  1  0  0  0
 61136  1  0  0  0
 61137  1  0  0  0
 62138  1  0  0  0
 62139  1  0  0  0
 62140  1  0  0  0
 63 65  1  0  0  0
 63141  1  0  0  0
 63142  1  0  0  0
 63143  1  0  0  0
 64144  1  0  0  0
 65145  1  0  0  0
 68 80  1  0  0  0
 71 73  2  0  0  0
 71 74  1  0  0  0
 71146  1  0  0  0
 72 74  2  0  0  0
 72 82  1  0  0  0
 72147  1  0  0  0
 73 75  1  0  0  0
 73 79  1  0  0  0
 74 83  1  0  0  0
 75 82  2  0  0  0
 75 86  1  0  0  0
 76 81  1  0  0  0
 76 84  1  0  0  0
 76 85  2  0  0  0
 77148  1  0  0  0
 77149  1  0  0  0
 77150  1  0  0  0
 77 81  1  0  0  0
 78 81  1  0  0  0
 78151  1  0  0  0
 78152  1  0  0  0
 78153  1  0  0  0
 79 84  1  0  0  0
 79154  1  0  0  0
 79155  1  0  0  0
 80 81  1  0  0  0
 80156  1  0  0  0
 80157  1  0  0  0
 83158  1  0  0  0
 84159  1  0  0  0
M  ISO  4   1 100  68 101  80 101  83 100
M  END
> <chiral flag>
0

> <version>
0

> <s_m_source_file>
/data/baiqing/PycharmProjects/Reinvent-master-3.2/result/LINK_invent/BTK/process_docking_weight1_custom_product_contain_oxygen_bond_distance_aromatic_linkinvent_7_9_3/rearranged_h_0173.sdf

> <i_m_source_file_index>
19

> <r_mmod_Potential_Energy-OPLS-2005>
-225.237976074219

> <r_mmod_Stretch_Energy-OPLS-2005>
50.6276702880859

> <r_mmod_Bend_Energy-OPLS-2005>
117.929695129395

> <r_mmod_Torsional_Energy-OPLS-2005>
261.007110595703

> <r_mmod_Improper_Torsional_Energy-OPLS-2005>
5.84307432174683

> <r_mmod_Van_der_Waal_Energy-OPLS-2005>
164.739166259766

> <r_mmod_Electrostatic_Energy-OPLS-2005>
-601.608581542969

> <r_mmod_Solvation_Energy-OPLS-2005>
-241.980575561523

> <b_mmod_Minimization_Converged-OPLS-2005>
0

> <r_mmod_RMS_Derivative-OPLS-2005>
1.4729471206665

$$$$
19
                    3D
 Structure written by MMmdl.
155163  0  0  1  0            999 V2000
  -30.6690  -14.4542   20.5622 C   0  0  0  0  0  0
  -30.4306  -12.2870   19.4247 C   0  0  0  0  0  0
  -29.5013  -12.5038   18.2101 C   0  0  0  0  0  0
  -28.0174  -12.3744   18.6145 C   0  0  0  0  0  0
  -27.6653  -13.1967   19.8842 C   0  0  2  0  0  0
  -28.7046  -12.9389   21.0004 C   0  0  0  0  0  0
  -25.2599  -13.8127   20.5675 C   0  0  0  0  0  0
  -24.1838  -13.0422   20.9181 C   0  0  0  0  0  0
  -24.6370  -11.6887   20.8719 C   0  0  0  0  0  0
  -23.9027  -10.4284   21.0391 C   0  0  0  0  0  0
  -24.3600   -9.4208   21.9171 C   0  0  0  0  0  0
  -23.6293   -8.2231   22.0737 C   0  0  0  0  0  0
  -22.4271   -8.0262   21.3532 C   0  0  0  0  0  0
  -21.9897   -9.0226   20.4629 C   0  0  0  0  0  0
  -22.7206  -10.2113   20.3035 C   0  0  0  0  0  0
  -21.6841   -6.0733   22.5292 C   0  0  0  0  0  0
  -21.3999   -6.5638   23.8220 C   0  0  0  0  0  0
  -21.3661   -5.6790   24.9188 C   0  0  0  0  0  0
  -21.6052   -4.3054   24.7229 C   0  0  0  0  0  0
  -21.8820   -3.8146   23.4349 C   0  0  0  0  0  0
  -21.9183   -4.6965   22.3407 C   0  0  0  0  0  0
  -22.7865  -13.5221   21.1872 C   0  0  0  0  0  0
  -22.1657   -4.2152   21.0982 F   0  0  0  0  0  0
  -21.5642   -3.4536   25.7736 F   0  0  0  0  0  0
  -30.0403  -13.2527   20.4622 N   0  0  0  0  0  0
  -26.3028  -12.9275   20.3382 N   0  0  0  0  0  0
  -25.9291  -11.6450   20.5757 N   0  0  0  0  0  0
  -22.0489  -12.8204   22.0415 N   0  0  0  0  0  0
  -25.4348  -15.1840   20.4091 N   0  0  0  0  0  0
  -31.7975  -14.6650   20.0990 O   0  0  0  0  0  0
  -21.6631   -6.8865   21.4243 O   0  0  0  0  0  0
  -22.3555  -14.5538   20.6740 O   0  0  0  0  0  0
  -24.6139  -31.8671   23.2094 C   0  0  0  0  0  0
  -25.9039  -32.4811   23.8404 C   0  0  1  0  0  0
  -27.2411  -27.4529   20.0960 C   0  0  0  0  0  0
  -25.5898  -33.8612   24.2345 N   0  0  0  0  0  0
  -23.4015  -30.4889   21.5494 C   0  0  2  0  0  0
  -24.8502  -28.9541   20.1147 C   0  0  0  0  0  0
  -22.7406  -29.4655   22.5001 C   0  0  0  0  0  0
  -18.0273  -28.1367   22.8488 C   0  0  0  0  0  0
  -24.1489  -36.7316   23.2643 C   0  0  0  0  0  0
  -25.9280  -30.8402   21.3573 C   0  0  0  0  0  0
  -26.0088  -29.4765   20.7037 C   0  0  0  0  0  0
  -27.2097  -28.7346   20.6856 C   0  0  0  0  0  0
  -26.0689  -26.9388   19.5010 C   0  0  0  0  0  0
  -24.8744  -27.6846   19.5086 C   0  0  0  0  0  0
  -23.6093  -29.8160   20.1650 C   0  0  0  0  0  0
  -25.4107  -36.3111   24.0353 C   0  0  1  0  0  0
  -20.5861  -28.3652   23.1323 C   0  0  2  0  0  0
  -20.6761  -26.9389   22.5422 C   0  0  0  0  0  0
  -19.5745  -26.6377   21.5212 C   0  0  0  0  0  0
  -18.1919  -26.7918   22.1610 C   0  0  0  0  0  0
  -19.1520  -28.8834   23.2898 C   0  0  0  0  0  0
  -18.9442  -30.1442   23.8903 C   0  0  0  0  0  0
  -17.6442  -30.6573   24.0558 C   0  0  0  0  0  0
  -25.9034  -34.9470   23.5150 C   0  0  0  0  0  0
  -16.5336  -29.9066   23.6321 C   0  0  0  0  0  0
  -16.7264  -28.6487   23.0341 C   0  0  0  0  0  0
  -26.4475  -31.6568   25.0717 C   0  0  0  0  0  0
  -25.3760  -31.3639   26.1475 C   0  0  0  0  0  0
  -27.0297  -30.3024   24.6054 C   0  0  0  0  0  0
  -27.6068  -32.4267   25.7468 C   0  0  0  0  0  0
  -27.5586  -37.1814   24.8466 C   0  0  0  0  0  0
  -21.4137  -29.3019   22.3739 N   0  0  0  0  0  0
  -26.4297  -37.3789   23.9412 N   0  0  0  0  0  0
  -24.6663  -31.0794   22.0976 N   0  0  0  0  0  0
  -23.4179  -28.8203   23.3051 O   0  0  0  0  0  0
  -28.4097  -26.7255   20.1045 O   0  0  0  0  0  0
  -26.5577  -34.8917   22.4699 O   0  0  0  0  0  0
  -23.5338  -32.1406   23.7506 O   0  0  0  0  0  0
  -29.4103  -16.7327   19.0696 C   0  0  0  0  0  0
  -29.1641  -17.9583   18.4348 C   0  0  0  0  0  0
  -29.1908  -19.1442   19.1846 C   0  0  0  0  0  0
  -29.7099  -16.7097   20.4489 C   0  0  0  0  0  0
  -29.4653  -19.0484   20.5709 C   0  0  0  0  0  0
  -30.0321  -23.7353   19.7726 C   0  0  0  0  0  0
  -30.2951  -22.3141   20.3725 C   0  0  0  0  0  0
  -28.6024  -24.2930   19.6760 C   0  0  0  0  0  0
  -29.1417  -21.5200   21.0227 C   0  0  0  0  0  0
  -28.3113  -25.4189   20.6891 C   0  0  0  0  0  0
  -29.7125  -17.8601   21.1758 N   0  0  0  0  0  0
  -29.9131  -15.4457   21.0716 N   0  0  0  0  0  0
  -29.4970  -20.1531   21.4399 N   0  0  0  0  0  0
  -30.9817  -24.4217   19.3730 O   0  0  0  0  0  0
  -31.4354  -21.8311   20.3346 O   0  0  0  0  0  0
  -28.9010  -17.9889   17.1045 F   0  0  0  0  0  0
  -28.9636  -20.3270   18.5611 F   0  0  0  0  0  0
  -31.4762  -12.3928   19.1287 H   0  0  0  0  0  0
  -30.3354  -11.2698   19.8057 H   0  0  0  0  0  0
  -29.7399  -11.7876   17.4232 H   0  0  0  0  0  0
  -29.6811  -13.4913   17.7839 H   0  0  0  0  0  0
  -27.8095  -11.3179   18.7871 H   0  0  0  0  0  0
  -27.3764  -12.6747   17.7842 H   0  0  0  0  0  0
  -27.7189  -14.2494   19.6091 H   0  0  0  0  0  0
  -28.6751  -11.8894   21.2990 H   0  0  0  0  0  0
  -28.4675  -13.5023   21.9047 H   0  0  0  0  0  0
  -25.2745   -9.5708   22.4736 H   0  0  0  0  0  0
  -24.0024   -7.4614   22.7445 H   0  0  0  0  0  0
  -21.0832   -8.8713   19.8930 H   0  0  0  0  0  0
  -22.3649  -10.9638   19.6136 H   0  0  0  0  0  0
  -21.1977   -7.6141   23.9733 H   0  0  0  0  0  0
  -21.1488   -6.0511   25.9091 H   0  0  0  0  0  0
  -22.0592   -2.7607   23.2833 H   0  0  0  0  0  0
  -22.4087  -11.9850   22.4794 H   0  0  0  0  0  0
  -21.1110  -13.1230   22.2628 H   0  0  0  0  0  0
  -24.6703  -15.8399   20.5234 H   0  0  0  0  0  0
  -26.2832  -15.6198   20.0718 H   0  0  0  0  0  0
  -26.7115  -32.5529   23.1176 H   0  0  0  0  0  0
  -25.0100  -33.9765   25.0524 H   0  0  0  0  0  0
  -22.6905  -31.3053   21.4076 H   0  0  0  0  0  0
  -23.3740  -35.9658   23.3314 H   0  0  0  0  0  0
  -24.3595  -36.8905   22.2055 H   0  0  0  0  0  0
  -23.7247  -37.6534   23.6641 H   0  0  0  0  0  0
  -26.0381  -31.6071   20.5892 H   0  0  0  0  0  0
  -26.8168  -30.8933   21.9749 H   0  0  0  0  0  0
  -28.1073  -29.1353   21.1361 H   0  0  0  0  0  0
  -26.0791  -25.9658   19.0286 H   0  0  0  0  0  0
  -23.9840  -27.2782   19.0482 H   0  0  0  0  0  0
  -23.7104  -30.5872   19.4003 H   0  0  0  0  0  0
  -22.7353  -29.2292   19.8756 H   0  0  0  0  0  0
  -25.1279  -36.1986   25.0848 H   0  0  0  0  0  0
  -20.9949  -28.3202   24.1443 H   0  0  0  0  0  0
  -20.5653  -26.2252   23.3602 H   0  0  0  0  0  0
  -21.6627  -26.7431   22.1210 H   0  0  0  0  0  0
  -19.6898  -25.6289   21.1230 H   0  0  0  0  0  0
  -19.6693  -27.3196   20.6751 H   0  0  0  0  0  0
  -17.4199  -26.6685   21.3999 H   0  0  0  0  0  0
  -18.0305  -26.0052   22.8995 H   0  0  0  0  0  0
  -19.7923  -30.7260   24.2255 H   0  0  0  0  0  0
  -17.4998  -31.6255   24.5150 H   0  0  0  0  0  0
  -15.5332  -30.2965   23.7656 H   0  0  0  0  0  0
  -15.8661  -28.0814   22.7038 H   0  0  0  0  0  0
  -24.5974  -30.6930   25.7820 H   0  0  0  0  0  0
  -24.8896  -32.2761   26.4942 H   0  0  0  0  0  0
  -25.8148  -30.8823   27.0221 H   0  0  0  0  0  0
  -26.2816  -29.6781   24.1157 H   0  0  0  0  0  0
  -27.4131  -29.7267   25.4482 H   0  0  0  0  0  0
  -27.8624  -30.4357   23.9146 H   0  0  0  0  0  0
  -27.2726  -33.3576   26.2068 H   0  0  0  0  0  0
  -28.3876  -32.6799   25.0280 H   0  0  0  0  0  0
  -28.0743  -31.8362   26.5359 H   0  0  0  0  0  0
  -28.2609  -38.0104   24.7505 H   0  0  0  0  0  0
  -28.1074  -36.2637   24.6302 H   0  0  0  0  0  0
  -27.2311  -37.1470   25.8869 H   0  0  0  0  0  0
  -20.9306  -29.8725   21.6941 H   0  0  0  0  0  0
  -26.0192  -38.2876   24.1374 H   0  0  0  0  0  0
  -29.3645  -15.8307   18.4797 H   0  0  0  0  0  0
  -27.8809  -23.4890   19.8094 H   0  0  0  0  0  0
  -28.4449  -24.6619   18.6630 H   0  0  0  0  0  0
  -28.2758  -21.4921   20.3647 H   0  0  0  0  0  0
  -28.8227  -22.0739   21.9059 H   0  0  0  0  0  0
  -29.0217  -25.3804   21.5162 H   0  0  0  0  0  0
  -27.3375  -25.2447   21.1513 H   0  0  0  0  0  0
  -29.1349  -15.1287   21.6285 H   0  0  0  0  0  0
  -29.9491  -20.0369   22.3393 H   0  0  0  0  0  0
  1 25  1  0  0  0
  1 30  2  0  0  0
  1 82  1  0  0  0
  2  3  1  0  0  0
  2 25  1  0  0  0
  2 88  1  0  0  0
  2 89  1  0  0  0
  3  4  1  0  0  0
  3 90  1  0  0  0
  3 91  1  0  0  0
  4  5  1  0  0  0
  4 92  1  0  0  0
  4 93  1  0  0  0
  5  6  1  0  0  0
  5 26  1  0  0  0
  5 94  1  0  0  0
  6 25  1  0  0  0
  6 95  1  0  0  0
  6 96  1  0  0  0
  7  8  2  0  0  0
  7 26  1  0  0  0
  7 29  1  0  0  0
  8  9  1  0  0  0
  8 22  1  0  0  0
  9 10  1  0  0  0
  9 27  2  0  0  0
 10 11  2  0  0  0
 10 15  1  0  0  0
 11 12  1  0  0  0
 11 97  1  0  0  0
 12 13  2  0  0  0
 12 98  1  0  0  0
 13 14  1  0  0  0
 13 31  1  0  0  0
 14 15  2  0  0  0
 14 99  1  0  0  0
 15100  1  0  0  0
 16 17  2  0  0  0
 16 21  1  0  0  0
 16 31  1  0  0  0
 17 18  1  0  0  0
 17101  1  0  0  0
 18 19  2  0  0  0
 18102  1  0  0  0
 19 20  1  0  0  0
 19 24  1  0  0  0
 20 21  2  0  0  0
 20103  1  0  0  0
 21 23  1  0  0  0
 22 28  1  0  0  0
 22 32  2  0  0  0
 26 27  1  0  0  0
 28104  1  0  0  0
 28105  1  0  0  0
 29106  1  0  0  0
 29107  1  0  0  0
 33 34  1  0  0  0
 33 66  1  0  0  0
 33 70  2  0  0  0
 34 36  1  0  0  0
 34 59  1  0  0  0
 34108  1  0  0  0
 35 44  2  0  0  0
 35 45  1  0  0  0
 35 68  1  0  0  0
 36 56  1  0  0  0
 36109  1  0  0  0
 37 39  1  0  0  0
 37 47  1  0  0  0
 37 66  1  0  0  0
 37110  1  0  0  0
 38 43  2  0  0  0
 38 46  1  0  0  0
 38 47  1  0  0  0
 39 64  1  0  0  0
 39 67  2  0  0  0
 40 52  1  0  0  0
 40 53  2  0  0  0
 40 58  1  0  0  0
 41111  1  0  0  0
 41112  1  0  0  0
 41113  1  0  0  0
 41 48  1  0  0  0
 42 43  1  0  0  0
 42 66  1  0  0  0
 42114  1  0  0  0
 42115  1  0  0  0
 43 44  1  0  0  0
 44116  1  0  0  0
 45 46  2  0  0  0
 45117  1  0  0  0
 46118  1  0  0  0
 47119  1  0  0  0
 47120  1  0  0  0
 48 56  1  0  0  0
 48 65  1  0  0  0
 48121  1  0  0  0
 49 50  1  0  0  0
 49 53  1  0  0  0
 49 64  1  0  0  0
 49122  1  0  0  0
 50 51  1  0  0  0
 50123  1  0  0  0
 50124  1  0  0  0
 51 52  1  0  0  0
 51125  1  0  0  0
 51126  1  0  0  0
 52127  1  0  0  0
 52128  1  0  0  0
 53 54  1  0  0  0
 54 55  2  0  0  0
 54129  1  0  0  0
 55 57  1  0  0  0
 55130  1  0  0  0
 56 69  2  0  0  0
 57 58  2  0  0  0
 57131  1  0  0  0
 58132  1  0  0  0
 59 60  1  0  0  0
 59 61  1  0  0  0
 59 62  1  0  0  0
 60133  1  0  0  0
 60134  1  0  0  0
 60135  1  0  0  0
 61136  1  0  0  0
 61137  1  0  0  0
 61138  1  0  0  0
 62139  1  0  0  0
 62140  1  0  0  0
 62141  1  0  0  0
 63 65  1  0  0  0
 63142  1  0  0  0
 63143  1  0  0  0
 63144  1  0  0  0
 64145  1  0  0  0
 65146  1  0  0  0
 68 80  1  0  0  0
 71 72  2  0  0  0
 71 74  1  0  0  0
 71147  1  0  0  0
 72 73  1  0  0  0
 72 86  1  0  0  0
 73 75  2  0  0  0
 73 87  1  0  0  0
 74 81  2  0  0  0
 74 82  1  0  0  0
 75 81  1  0  0  0
 75 83  1  0  0  0
 76 77  1  0  0  0
 76 78  1  0  0  0
 76 84  2  0  0  0
 77 79  1  0  0  0
 77 85  2  0  0  0
 78 80  1  0  0  0
 78148  1  0  0  0
 78149  1  0  0  0
 79 83  1  0  0  0
 79150  1  0  0  0
 79151  1  0  0  0
 80152  1  0  0  0
 80153  1  0  0  0
 82154  1  0  0  0
 83155  1  0  0  0
M  ISO  4   1 100  68 101  80 101  82 100
M  END
> <chiral flag>
0

> <version>
0

> <s_m_source_file>
/data/baiqing/PycharmProjects/Reinvent-master-3.2/result/LINK_invent/BTK/process_docking_weight1_custom_product_contain_oxygen_bond_distance_aromatic_linkinvent_7_9_3/rearranged_h_0173.sdf

> <i_m_source_file_index>
20

> <r_mmod_Potential_Energy-OPLS-2005>
-144.963623046875

> <r_mmod_Stretch_Energy-OPLS-2005>
38.4072875976562

> <r_mmod_Bend_Energy-OPLS-2005>
108.172569274902

> <r_mmod_Torsional_Energy-OPLS-2005>
259.235290527344

> <r_mmod_Improper_Torsional_Energy-OPLS-2005>
6.33981943130493

> <r_mmod_Van_der_Waal_Energy-OPLS-2005>
156.948028564453

> <r_mmod_Electrostatic_Energy-OPLS-2005>
-450.630401611328

> <r_mmod_Solvation_Energy-OPLS-2005>
-274.430206298828

> <b_mmod_Minimization_Converged-OPLS-2005>
0

> <r_mmod_RMS_Derivative-OPLS-2005>
2.28447914123535

$$$$
20
                    3D
 Structure written by MMmdl.
153161  0  0  1  0            999 V2000
  -30.6789  -14.6132   20.4814 C   0  0  0  0  0  0
  -30.4198  -12.3697   19.4672 C   0  0  0  0  0  0
  -29.5015  -12.5000   18.2330 C   0  0  0  0  0  0
  -28.0224  -12.3480   18.6390 C   0  0  0  0  0  0
  -27.6456  -13.2266   19.8610 C   0  0  2  0  0  0
  -28.6921  -13.1064   20.9919 C   0  0  0  0  0  0
  -25.2466  -13.8124   20.5738 C   0  0  0  0  0  0
  -24.1765  -13.0369   20.9223 C   0  0  0  0  0  0
  -24.6369  -11.6870   20.8740 C   0  0  0  0  0  0
  -23.9046  -10.4254   21.0385 C   0  0  0  0  0  0
  -24.3595   -9.4184   21.9167 C   0  0  0  0  0  0
  -23.6279   -8.2216   22.0740 C   0  0  0  0  0  0
  -22.4260   -8.0259   21.3538 C   0  0  0  0  0  0
  -21.9899   -9.0222   20.4623 C   0  0  0  0  0  0
  -22.7227  -10.2097   20.3029 C   0  0  0  0  0  0
  -21.6846   -6.0717   22.5275 C   0  0  0  0  0  0
  -21.4012   -6.5629   23.8208 C   0  0  0  0  0  0
  -21.3664   -5.6785   24.9170 C   0  0  0  0  0  0
  -21.6045   -4.3042   24.7219 C   0  0  0  0  0  0
  -21.8828   -3.8129   23.4341 C   0  0  0  0  0  0
  -21.9188   -4.6946   22.3396 C   0  0  0  0  0  0
  -22.7787  -13.5161   21.1892 C   0  0  0  0  0  0
  -22.1637   -4.2132   21.0974 F   0  0  0  0  0  0
  -21.5638   -3.4532   25.7733 F   0  0  0  0  0  0
  -30.0141  -13.4149   20.4296 N   0  0  0  0  0  0
  -26.2934  -12.9375   20.3342 N   0  0  0  0  0  0
  -25.9302  -11.6507   20.5754 N   0  0  0  0  0  0
  -22.0440  -12.8142   22.0438 N   0  0  0  0  0  0
  -25.3972  -15.1839   20.4239 N   0  0  0  0  0  0
  -31.8668  -14.6713   20.1557 O   0  0  0  0  0  0
  -21.6617   -6.8870   21.4245 O   0  0  0  0  0  0
  -22.3475  -14.5482   20.6760 O   0  0  0  0  0  0
  -24.6259  -31.8642   23.2095 C   0  0  0  0  0  0
  -25.9127  -32.4802   23.8402 C   0  0  1  0  0  0
  -27.2071  -27.3381   20.1051 C   0  0  0  0  0  0
  -25.5949  -33.8599   24.2328 N   0  0  0  0  0  0
  -23.4165  -30.4951   21.5523 C   0  0  2  0  0  0
  -24.8591  -28.9669   20.1079 C   0  0  0  0  0  0
  -22.7474  -29.4650   22.4941 C   0  0  0  0  0  0
  -18.0287  -28.1385   22.8485 C   0  0  0  0  0  0
  -24.1486  -36.7286   23.2629 C   0  0  0  0  0  0
  -25.9598  -30.8007   21.3805 C   0  0  0  0  0  0
  -26.0297  -29.4327   20.7197 C   0  0  0  0  0  0
  -27.2067  -28.6272   20.7177 C   0  0  0  0  0  0
  -26.0174  -26.9477   19.4369 C   0  0  0  0  0  0
  -24.8543  -27.7295   19.4571 C   0  0  0  0  0  0
  -23.6296  -29.8461   20.1620 C   0  0  0  0  0  0
  -25.4110  -36.3091   24.0332 C   0  0  1  0  0  0
  -20.5887  -28.3683   23.1279 C   0  0  2  0  0  0
  -20.6775  -26.9409   22.5398 C   0  0  0  0  0  0
  -19.5754  -26.6387   21.5202 C   0  0  0  0  0  0
  -18.1937  -26.7927   22.1616 C   0  0  0  0  0  0
  -19.1538  -28.8851   23.2885 C   0  0  0  0  0  0
  -18.9460  -30.1455   23.8894 C   0  0  0  0  0  0
  -17.6460  -30.6585   24.0559 C   0  0  0  0  0  0
  -25.9056  -34.9458   23.5123 C   0  0  0  0  0  0
  -16.5349  -29.9084   23.6326 C   0  0  0  0  0  0
  -16.7276  -28.6505   23.0343 C   0  0  0  0  0  0
  -26.4516  -31.6583   25.0740 C   0  0  0  0  0  0
  -25.3753  -31.3706   26.1464 C   0  0  0  0  0  0
  -27.0346  -30.3012   24.6158 C   0  0  0  0  0  0
  -27.6087  -32.4288   25.7516 C   0  0  0  0  0  0
  -27.5582  -37.1810   24.8465 C   0  0  0  0  0  0
  -21.4190  -29.3042   22.3684 N   0  0  0  0  0  0
  -26.4289  -37.3786   23.9414 N   0  0  0  0  0  0
  -24.6867  -31.0681   22.1044 N   0  0  0  0  0  0
  -23.4216  -28.8158   23.2980 O   0  0  0  0  0  0
  -28.2983  -26.4557   20.1851 O   0  0  0  0  0  0
  -26.5595  -34.8915   22.4670 O   0  0  0  0  0  0
  -23.5424  -32.1416   23.7446 O   0  0  0  0  0  0
  -30.4840  -19.5525   21.2055 C   0  0  0  0  0  0
  -30.0771  -20.9160   21.1117 C   0  0  0  0  0  0
  -28.2894  -20.2349   19.6522 C   0  0  0  0  0  0
  -29.8289  -18.4959   20.5083 C   0  0  0  0  0  0
  -28.7000  -18.8701   19.7182 C   0  0  0  0  0  0
  -28.9719  -21.2883   20.3092 C   0  0  0  0  0  0
  -30.4335  -17.1022   20.5411 C   0  0  0  0  0  0
  -29.8787  -15.8543   20.6857 C   0  0  0  0  0  0
  -28.9098  -23.8955   20.4098 C   0  0  0  0  0  0
  -27.9851  -25.0446   19.8761 C   0  0  0  0  0  0
  -27.9457  -17.8478   18.8657 C   0  0  0  0  0  0
  -28.4787  -22.6382   20.0915 N   0  0  0  0  0  0
  -29.9236  -24.1341   21.0711 O   0  0  0  0  0  0
  -27.0396  -18.4217   18.0711 F   0  0  0  0  0  0
  -28.7822  -17.1636   18.0848 F   0  0  0  0  0  0
  -27.2990  -16.9957   19.6515 F   0  0  0  0  0  0
  -31.4662  -12.4511   19.1687 H   0  0  0  0  0  0
  -30.3148  -11.3815   19.9182 H   0  0  0  0  0  0
  -29.7620  -11.7464   17.4890 H   0  0  0  0  0  0
  -29.6576  -13.4695   17.7582 H   0  0  0  0  0  0
  -27.8529  -11.2972   18.8755 H   0  0  0  0  0  0
  -27.3695  -12.5750   17.7959 H   0  0  0  0  0  0
  -27.6524  -14.2578   19.5095 H   0  0  0  0  0  0
  -28.6930  -12.0979   21.4085 H   0  0  0  0  0  0
  -28.4483  -13.7683   21.8241 H   0  0  0  0  0  0
  -25.2737   -9.5665   22.4741 H   0  0  0  0  0  0
  -24.0000   -7.4602   22.7453 H   0  0  0  0  0  0
  -21.0836   -8.8724   19.8917 H   0  0  0  0  0  0
  -22.3681  -10.9625   19.6127 H   0  0  0  0  0  0
  -21.1992   -7.6138   23.9705 H   0  0  0  0  0  0
  -21.1494   -6.0507   25.9076 H   0  0  0  0  0  0
  -22.0608   -2.7588   23.2834 H   0  0  0  0  0  0
  -22.4072  -11.9789   22.4787 H   0  0  0  0  0  0
  -21.1044  -13.1134   22.2641 H   0  0  0  0  0  0
  -24.6173  -15.8190   20.5465 H   0  0  0  0  0  0
  -26.2415  -15.6585   20.1180 H   0  0  0  0  0  0
  -26.7192  -32.5490   23.1151 H   0  0  0  0  0  0
  -25.0161  -33.9767   25.0518 H   0  0  0  0  0  0
  -22.7097  -31.3166   21.4187 H   0  0  0  0  0  0
  -23.3757  -35.9610   23.3289 H   0  0  0  0  0  0
  -24.3586  -36.8898   22.2046 H   0  0  0  0  0  0
  -23.7221  -37.6483   23.6643 H   0  0  0  0  0  0
  -26.0892  -31.5671   20.6150 H   0  0  0  0  0  0
  -26.8417  -30.8446   22.0075 H   0  0  0  0  0  0
  -28.0982  -28.9748   21.2209 H   0  0  0  0  0  0
  -25.9353  -26.0206   18.8900 H   0  0  0  0  0  0
  -23.9618  -27.3765   18.9576 H   0  0  0  0  0  0
  -23.7529  -30.6295   19.4128 H   0  0  0  0  0  0
  -22.7490  -29.2808   19.8538 H   0  0  0  0  0  0
  -25.1287  -36.1949   25.0826 H   0  0  0  0  0  0
  -20.9989  -28.3244   24.1396 H   0  0  0  0  0  0
  -20.5667  -26.2294   23.3595 H   0  0  0  0  0  0
  -21.6648  -26.7453   22.1193 H   0  0  0  0  0  0
  -19.6915  -25.6304   21.1223 H   0  0  0  0  0  0
  -19.6687  -27.3197   20.6733 H   0  0  0  0  0  0
  -17.4211  -26.6678   21.4013 H   0  0  0  0  0  0
  -18.0333  -26.0067   22.9009 H   0  0  0  0  0  0
  -19.7941  -30.7267   24.2257 H   0  0  0  0  0  0
  -17.5020  -31.6264   24.5169 H   0  0  0  0  0  0
  -15.5345  -30.2985   23.7660 H   0  0  0  0  0  0
  -15.8678  -28.0830   22.7044 H   0  0  0  0  0  0
  -24.5934  -30.7049   25.7792 H   0  0  0  0  0  0
  -24.8936  -32.2864   26.4902 H   0  0  0  0  0  0
  -25.8076  -30.8877   27.0236 H   0  0  0  0  0  0
  -26.2910  -29.6772   24.1185 H   0  0  0  0  0  0
  -27.4067  -29.7249   25.4641 H   0  0  0  0  0  0
  -27.8777  -30.4313   23.9365 H   0  0  0  0  0  0
  -27.2735  -33.3608   26.2085 H   0  0  0  0  0  0
  -28.3923  -32.6803   25.0353 H   0  0  0  0  0  0
  -28.0723  -31.8396   26.5442 H   0  0  0  0  0  0
  -28.2591  -38.0119   24.7530 H   0  0  0  0  0  0
  -28.1080  -36.2648   24.6262 H   0  0  0  0  0  0
  -27.2305  -37.1433   25.8868 H   0  0  0  0  0  0
  -20.9350  -29.8802   21.6940 H   0  0  0  0  0  0
  -26.0163  -38.2858   24.1409 H   0  0  0  0  0  0
  -31.3507  -19.3232   21.8085 H   0  0  0  0  0  0
  -30.6365  -21.6691   21.6485 H   0  0  0  0  0  0
  -27.4364  -20.4846   19.0401 H   0  0  0  0  0  0
  -31.4971  -17.1285   20.3445 H   0  0  0  0  0  0
  -28.8297  -15.7745   20.9136 H   0  0  0  0  0  0
  -27.0139  -24.7871   20.3009 H   0  0  0  0  0  0
  -27.9152  -24.9340   18.7930 H   0  0  0  0  0  0
  -27.6312  -22.6721   19.5406 H   0  0  0  0  0  0
  1 25  1  0  0  0
  1 30  2  0  0  0
  1 78  1  0  0  0
  2  3  1  0  0  0
  2 25  1  0  0  0
  2 87  1  0  0  0
  2 88  1  0  0  0
  3  4  1  0  0  0
  3 89  1  0  0  0
  3 90  1  0  0  0
  4  5  1  0  0  0
  4 91  1  0  0  0
  4 92  1  0  0  0
  5  6  1  0  0  0
  5 26  1  0  0  0
  5 93  1  0  0  0
  6 25  1  0  0  0
  6 94  1  0  0  0
  6 95  1  0  0  0
  7  8  2  0  0  0
  7 26  1  0  0  0
  7 29  1  0  0  0
  8  9  1  0  0  0
  8 22  1  0  0  0
  9 10  1  0  0  0
  9 27  2  0  0  0
 10 11  2  0  0  0
 10 15  1  0  0  0
 11 12  1  0  0  0
 11 96  1  0  0  0
 12 13  2  0  0  0
 12 97  1  0  0  0
 13 14  1  0  0  0
 13 31  1  0  0  0
 14 15  2  0  0  0
 14 98  1  0  0  0
 15 99  1  0  0  0
 16 17  2  0  0  0
 16 21  1  0  0  0
 16 31  1  0  0  0
 17 18  1  0  0  0
 17100  1  0  0  0
 18 19  2  0  0  0
 18101  1  0  0  0
 19 20  1  0  0  0
 19 24  1  0  0  0
 20 21  2  0  0  0
 20102  1  0  0  0
 21 23  1  0  0  0
 22 28  1  0  0  0
 22 32  2  0  0  0
 26 27  1  0  0  0
 28103  1  0  0  0
 28104  1  0  0  0
 29105  1  0  0  0
 29106  1  0  0  0
 33 34  1  0  0  0
 33 66  1  0  0  0
 33 70  2  0  0  0
 34 36  1  0  0  0
 34 59  1  0  0  0
 34107  1  0  0  0
 35 44  2  0  0  0
 35 45  1  0  0  0
 35 68  1  0  0  0
 36 56  1  0  0  0
 36108  1  0  0  0
 37 39  1  0  0  0
 37 47  1  0  0  0
 37 66  1  0  0  0
 37109  1  0  0  0
 38 43  2  0  0  0
 38 46  1  0  0  0
 38 47  1  0  0  0
 39 64  1  0  0  0
 39 67  2  0  0  0
 40 52  1  0  0  0
 40 53  2  0  0  0
 40 58  1  0  0  0
 41110  1  0  0  0
 41111  1  0  0  0
 41112  1  0  0  0
 41 48  1  0  0  0
 42 43  1  0  0  0
 42 66  1  0  0  0
 42113  1  0  0  0
 42114  1  0  0  0
 43 44  1  0  0  0
 44115  1  0  0  0
 45 46  2  0  0  0
 45116  1  0  0  0
 46117  1  0  0  0
 47118  1  0  0  0
 47119  1  0  0  0
 48 56  1  0  0  0
 48 65  1  0  0  0
 48120  1  0  0  0
 49 50  1  0  0  0
 49 53  1  0  0  0
 49 64  1  0  0  0
 49121  1  0  0  0
 50 51  1  0  0  0
 50122  1  0  0  0
 50123  1  0  0  0
 51 52  1  0  0  0
 51124  1  0  0  0
 51125  1  0  0  0
 52126  1  0  0  0
 52127  1  0  0  0
 53 54  1  0  0  0
 54 55  2  0  0  0
 54128  1  0  0  0
 55 57  1  0  0  0
 55129  1  0  0  0
 56 69  2  0  0  0
 57 58  2  0  0  0
 57130  1  0  0  0
 58131  1  0  0  0
 59 60  1  0  0  0
 59 61  1  0  0  0
 59 62  1  0  0  0
 60132  1  0  0  0
 60133  1  0  0  0
 60134  1  0  0  0
 61135  1  0  0  0
 61136  1  0  0  0
 61137  1  0  0  0
 62138  1  0  0  0
 62139  1  0  0  0
 62140  1  0  0  0
 63 65  1  0  0  0
 63141  1  0  0  0
 63142  1  0  0  0
 63143  1  0  0  0
 64144  1  0  0  0
 65145  1  0  0  0
 68 80  1  0  0  0
 71 72  2  0  0  0
 71 74  1  0  0  0
 71146  1  0  0  0
 72 76  1  0  0  0
 72147  1  0  0  0
 73 75  1  0  0  0
 73 76  2  0  0  0
 73148  1  0  0  0
 74 75  2  0  0  0
 74 77  1  0  0  0
 75 81  1  0  0  0
 76 82  1  0  0  0
 77 78  2  0  0  0
 77149  1  0  0  0
 78150  1  0  0  0
 79 80  1  0  0  0
 79 82  1  0  0  0
 79 83  2  0  0  0
 80151  1  0  0  0
 80152  1  0  0  0
 81 84  1  0  0  0
 81 85  1  0  0  0
 81 86  1  0  0  0
 82153  1  0  0  0
M  ISO  4   1 100  68 101  78 100  80 101
M  END
> <chiral flag>
0

> <version>
0

> <s_m_source_file>
/data/baiqing/PycharmProjects/Reinvent-master-3.2/result/LINK_invent/BTK/process_docking_weight1_custom_product_contain_oxygen_bond_distance_aromatic_linkinvent_7_9_3/rearranged_h_0173.sdf

> <i_m_source_file_index>
21

> <r_mmod_Potential_Energy-OPLS-2005>
111.638069152832

> <r_mmod_Stretch_Energy-OPLS-2005>
69.9960327148438

> <r_mmod_Bend_Energy-OPLS-2005>
149.229904174805

> <r_mmod_Torsional_Energy-OPLS-2005>
206.537170410156

> <r_mmod_Improper_Torsional_Energy-OPLS-2005>
6.69890642166138

> <r_mmod_Van_der_Waal_Energy-OPLS-2005>
164.655639648438

> <r_mmod_Electrostatic_Energy-OPLS-2005>
-311.221008300781

> <r_mmod_Solvation_Energy-OPLS-2005>
-222.674514770508

> <b_mmod_Minimization_Converged-OPLS-2005>
0

> <r_mmod_RMS_Derivative-OPLS-2005>
1.89918720722198

$$$$
21
                    3D
 Structure written by MMmdl.
153161  0  0  1  0            999 V2000
  -30.7527  -14.3849   20.6772 C   0  0  0  0  0  0
  -30.4210  -12.2961   19.3961 C   0  0  0  0  0  0
  -29.4854  -12.5313   18.1945 C   0  0  0  0  0  0
  -28.0105  -12.3803   18.6113 C   0  0  0  0  0  0
  -27.6680  -13.2020   19.8815 C   0  0  2  0  0  0
  -28.7063  -12.9423   20.9959 C   0  0  0  0  0  0
  -25.2605  -13.8155   20.5676 C   0  0  0  0  0  0
  -24.1846  -13.0439   20.9164 C   0  0  0  0  0  0
  -24.6398  -11.6904   20.8730 C   0  0  0  0  0  0
  -23.9061  -10.4292   21.0401 C   0  0  0  0  0  0
  -24.3615   -9.4210   21.9179 C   0  0  0  0  0  0
  -23.6290   -8.2247   22.0756 C   0  0  0  0  0  0
  -22.4273   -8.0282   21.3547 C   0  0  0  0  0  0
  -21.9905   -9.0252   20.4647 C   0  0  0  0  0  0
  -22.7234  -10.2133   20.3051 C   0  0  0  0  0  0
  -21.6853   -6.0737   22.5280 C   0  0  0  0  0  0
  -21.4011   -6.5640   23.8213 C   0  0  0  0  0  0
  -21.3661   -5.6792   24.9175 C   0  0  0  0  0  0
  -21.6047   -4.3056   24.7227 C   0  0  0  0  0  0
  -21.8819   -3.8149   23.4346 C   0  0  0  0  0  0
  -21.9192   -4.6964   22.3404 C   0  0  0  0  0  0
  -22.7867  -13.5239   21.1833 C   0  0  0  0  0  0
  -22.1656   -4.2151   21.0980 F   0  0  0  0  0  0
  -21.5634   -3.4539   25.7738 F   0  0  0  0  0  0
  -30.0527  -13.2374   20.4649 N   0  0  0  0  0  0
  -26.3052  -12.9321   20.3389 N   0  0  0  0  0  0
  -25.9325  -11.6486   20.5771 N   0  0  0  0  0  0
  -22.0506  -12.8230   22.0393 N   0  0  0  0  0  0
  -25.4336  -15.1872   20.4092 N   0  0  0  0  0  0
  -31.7604  -14.6860   20.0256 O   0  0  0  0  0  0
  -21.6640   -6.8879   21.4242 O   0  0  0  0  0  0
  -22.3554  -14.5550   20.6692 O   0  0  0  0  0  0
  -24.6129  -31.8685   23.2122 C   0  0  0  0  0  0
  -25.9033  -32.4822   23.8409 C   0  0  1  0  0  0
  -27.2357  -27.4541   20.0915 C   0  0  0  0  0  0
  -25.5903  -33.8619   24.2346 N   0  0  0  0  0  0
  -23.4004  -30.4927   21.5510 C   0  0  2  0  0  0
  -24.8481  -28.9608   20.1151 C   0  0  0  0  0  0
  -22.7401  -29.4659   22.4990 C   0  0  0  0  0  0
  -18.0273  -28.1370   22.8487 C   0  0  0  0  0  0
  -24.1489  -36.7313   23.2637 C   0  0  0  0  0  0
  -25.9276  -30.8399   21.3630 C   0  0  0  0  0  0
  -26.0074  -29.4755   20.7109 C   0  0  0  0  0  0
  -27.2065  -28.7283   20.6979 C   0  0  0  0  0  0
  -26.0627  -26.9505   19.4889 C   0  0  0  0  0  0
  -24.8690  -27.6955   19.5024 C   0  0  0  0  0  0
  -23.6087  -29.8248   20.1654 C   0  0  0  0  0  0
  -25.4108  -36.3108   24.0340 C   0  0  1  0  0  0
  -20.5862  -28.3653   23.1318 C   0  0  2  0  0  0
  -20.6764  -26.9390   22.5413 C   0  0  0  0  0  0
  -19.5745  -26.6381   21.5203 C   0  0  0  0  0  0
  -18.1924  -26.7921   22.1613 C   0  0  0  0  0  0
  -19.1522  -28.8827   23.2903 C   0  0  0  0  0  0
  -18.9450  -30.1437   23.8908 C   0  0  0  0  0  0
  -17.6451  -30.6576   24.0560 C   0  0  0  0  0  0
  -25.9028  -34.9470   23.5136 C   0  0  0  0  0  0
  -16.5343  -29.9075   23.6323 C   0  0  0  0  0  0
  -16.7262  -28.6493   23.0343 C   0  0  0  0  0  0
  -26.4475  -31.6589   25.0722 C   0  0  0  0  0  0
  -25.3756  -31.3678   26.1479 C   0  0  0  0  0  0
  -27.0302  -30.3040   24.6067 C   0  0  0  0  0  0
  -27.6062  -32.4293   25.7482 C   0  0  0  0  0  0
  -27.5582  -37.1815   24.8466 C   0  0  0  0  0  0
  -21.4131  -29.3028   22.3729 N   0  0  0  0  0  0
  -26.4297  -37.3788   23.9406 N   0  0  0  0  0  0
  -24.6650  -31.0806   22.1010 N   0  0  0  0  0  0
  -23.4179  -28.8197   23.3024 O   0  0  0  0  0  0
  -28.3887  -26.7042   20.0849 O   0  0  0  0  0  0
  -26.5575  -34.8917   22.4691 O   0  0  0  0  0  0
  -23.5328  -32.1427   23.7532 O   0  0  0  0  0  0
  -30.9578  -16.6960   23.3943 C   0  0  0  0  0  0
  -31.2498  -18.0041   23.8113 C   0  0  0  0  0  0
  -31.1892  -19.0520   22.8780 C   0  0  0  0  0  0
  -30.8244  -18.7418   21.5514 C   0  0  0  0  0  0
  -30.6435  -16.4520   22.0446 C   0  0  0  0  0  0
  -28.2802  -25.4343   20.5999 C   0  0  0  0  0  0
  -29.7430  -20.9604   20.8560 C   0  0  0  0  0  0
  -29.1040  -24.4218   20.2611 C   0  0  0  0  0  0
  -28.8971  -23.0928   20.8535 C   0  0  0  0  0  0
  -30.7145  -19.8428   20.4959 C   0  0  0  0  0  0
  -30.5700  -17.4686   21.1457 N   0  0  0  0  0  0
  -29.8358  -22.1591   20.4114 N   0  0  0  0  0  0
  -30.3245  -15.1132   21.7191 N   0  0  0  0  0  0
  -27.9793  -22.8693   21.6518 O   0  0  0  0  0  0
  -30.0964  -24.6430   19.3840 O   0  0  0  0  0  0
  -31.5789  -18.2502   25.1037 F   0  0  0  0  0  0
  -31.4672  -20.3255   23.2520 F   0  0  0  0  0  0
  -31.4638  -12.4000   19.0909 H   0  0  0  0  0  0
  -30.3234  -11.2714   19.7581 H   0  0  0  0  0  0
  -29.7192  -11.8316   17.3908 H   0  0  0  0  0  0
  -29.6512  -13.5303   17.7884 H   0  0  0  0  0  0
  -27.8208  -11.3216   18.7925 H   0  0  0  0  0  0
  -27.3552  -12.6684   17.7885 H   0  0  0  0  0  0
  -27.7260  -14.2564   19.6109 H   0  0  0  0  0  0
  -28.6689  -11.8980   21.3092 H   0  0  0  0  0  0
  -28.4463  -13.5152   21.8858 H   0  0  0  0  0  0
  -25.2764   -9.5688   22.4748 H   0  0  0  0  0  0
  -24.0005   -7.4640   22.7472 H   0  0  0  0  0  0
  -21.0841   -8.8769   19.8948 H   0  0  0  0  0  0
  -22.3697  -10.9668   19.6156 H   0  0  0  0  0  0
  -21.2002   -7.6146   23.9718 H   0  0  0  0  0  0
  -21.1481   -6.0521   25.9078 H   0  0  0  0  0  0
  -22.0600   -2.7610   23.2847 H   0  0  0  0  0  0
  -22.4111  -11.9881   22.4769 H   0  0  0  0  0  0
  -21.1127  -13.1262   22.2606 H   0  0  0  0  0  0
  -24.6714  -15.8469   20.5221 H   0  0  0  0  0  0
  -26.2961  -15.6260   20.1105 H   0  0  0  0  0  0
  -26.7104  -32.5543   23.1177 H   0  0  0  0  0  0
  -25.0105  -33.9786   25.0527 H   0  0  0  0  0  0
  -22.6884  -31.3091   21.4126 H   0  0  0  0  0  0
  -23.3739  -35.9659   23.3314 H   0  0  0  0  0  0
  -24.3587  -36.8903   22.2047 H   0  0  0  0  0  0
  -23.7252  -37.6531   23.6634 H   0  0  0  0  0  0
  -26.0366  -31.6065   20.5947 H   0  0  0  0  0  0
  -26.8164  -30.8941   21.9794 H   0  0  0  0  0  0
  -28.1032  -29.1183   21.1592 H   0  0  0  0  0  0
  -26.0735  -25.9810   19.0110 H   0  0  0  0  0  0
  -23.9783  -27.2933   19.0392 H   0  0  0  0  0  0
  -23.7149  -30.5989   19.4047 H   0  0  0  0  0  0
  -22.7341  -29.2426   19.8698 H   0  0  0  0  0  0
  -25.1286  -36.1977   25.0833 H   0  0  0  0  0  0
  -20.9957  -28.3208   24.1435 H   0  0  0  0  0  0
  -20.5656  -26.2257   23.3594 H   0  0  0  0  0  0
  -21.6637  -26.7429   22.1209 H   0  0  0  0  0  0
  -19.6905  -25.6294   21.1222 H   0  0  0  0  0  0
  -19.6691  -27.3199   20.6738 H   0  0  0  0  0  0
  -17.4198  -26.6667   21.4011 H   0  0  0  0  0  0
  -18.0326  -26.0055   22.9000 H   0  0  0  0  0  0
  -19.7927  -30.7252   24.2275 H   0  0  0  0  0  0
  -17.5007  -31.6259   24.5159 H   0  0  0  0  0  0
  -15.5344  -30.2980   23.7644 H   0  0  0  0  0  0
  -15.8662  -28.0818   22.7049 H   0  0  0  0  0  0
  -24.5943  -30.7004   25.7824 H   0  0  0  0  0  0
  -24.8933  -32.2823   26.4938 H   0  0  0  0  0  0
  -25.8132  -30.8852   27.0226 H   0  0  0  0  0  0
  -26.2832  -29.6800   24.1145 H   0  0  0  0  0  0
  -27.4118  -29.7271   25.4501 H   0  0  0  0  0  0
  -27.8647  -30.4376   23.9179 H   0  0  0  0  0  0
  -27.2699  -33.3586   26.2090 H   0  0  0  0  0  0
  -28.3864  -32.6852   25.0300 H   0  0  0  0  0  0
  -28.0735  -31.8386   26.5372 H   0  0  0  0  0  0
  -28.2611  -38.0102   24.7500 H   0  0  0  0  0  0
  -28.1068  -36.2634   24.6310 H   0  0  0  0  0  0
  -27.2299  -37.1483   25.8870 H   0  0  0  0  0  0
  -20.9283  -29.8765   21.6970 H   0  0  0  0  0  0
  -26.0185  -38.2869   24.1396 H   0  0  0  0  0  0
  -30.9964  -15.8922   24.1145 H   0  0  0  0  0  0
  -27.4618  -25.3364   21.3042 H   0  0  0  0  0  0
  -28.9543  -20.6300   21.5406 H   0  0  0  0  0  0
  -30.4087  -19.4140   19.5416 H   0  0  0  0  0  0
  -31.7065  -20.2675   20.3429 H   0  0  0  0  0  0
  -29.6514  -14.6582   22.3146 H   0  0  0  0  0  0
  -30.0429  -25.5580   19.1378 H   0  0  0  0  0  0
  1 25  1  0  0  0
  1 30  2  0  0  0
  1 83  1  0  0  0
  2  3  1  0  0  0
  2 25  1  0  0  0
  2 88  1  0  0  0
  2 89  1  0  0  0
  3  4  1  0  0  0
  3 90  1  0  0  0
  3 91  1  0  0  0
  4  5  1  0  0  0
  4 92  1  0  0  0
  4 93  1  0  0  0
  5  6  1  0  0  0
  5 26  1  0  0  0
  5 94  1  0  0  0
  6 25  1  0  0  0
  6 95  1  0  0  0
  6 96  1  0  0  0
  7  8  2  0  0  0
  7 26  1  0  0  0
  7 29  1  0  0  0
  8  9  1  0  0  0
  8 22  1  0  0  0
  9 10  1  0  0  0
  9 27  2  0  0  0
 10 11  2  0  0  0
 10 15  1  0  0  0
 11 12  1  0  0  0
 11 97  1  0  0  0
 12 13  2  0  0  0
 12 98  1  0  0  0
 13 14  1  0  0  0
 13 31  1  0  0  0
 14 15  2  0  0  0
 14 99  1  0  0  0
 15100  1  0  0  0
 16 17  2  0  0  0
 16 21  1  0  0  0
 16 31  1  0  0  0
 17 18  1  0  0  0
 17101  1  0  0  0
 18 19  2  0  0  0
 18102  1  0  0  0
 19 20  1  0  0  0
 19 24  1  0  0  0
 20 21  2  0  0  0
 20103  1  0  0  0
 21 23  1  0  0  0
 22 28  1  0  0  0
 22 32  2  0  0  0
 26 27  1  0  0  0
 28104  1  0  0  0
 28105  1  0  0  0
 29106  1  0  0  0
 29107  1  0  0  0
 33 34  1  0  0  0
 33 66  1  0  0  0
 33 70  2  0  0  0
 34 36  1  0  0  0
 34 59  1  0  0  0
 34108  1  0  0  0
 35 44  2  0  0  0
 35 45  1  0  0  0
 35 68  1  0  0  0
 36 56  1  0  0  0
 36109  1  0  0  0
 37 39  1  0  0  0
 37 47  1  0  0  0
 37 66  1  0  0  0
 37110  1  0  0  0
 38 43  2  0  0  0
 38 46  1  0  0  0
 38 47  1  0  0  0
 39 64  1  0  0  0
 39 67  2  0  0  0
 40 52  1  0  0  0
 40 53  2  0  0  0
 40 58  1  0  0  0
 41111  1  0  0  0
 41112  1  0  0  0
 41113  1  0  0  0
 41 48  1  0  0  0
 42 43  1  0  0  0
 42 66  1  0  0  0
 42114  1  0  0  0
 42115  1  0  0  0
 43 44  1  0  0  0
 44116  1  0  0  0
 45 46  2  0  0  0
 45117  1  0  0  0
 46118  1  0  0  0
 47119  1  0  0  0
 47120  1  0  0  0
 48 56  1  0  0  0
 48 65  1  0  0  0
 48121  1  0  0  0
 49 50  1  0  0  0
 49 53  1  0  0  0
 49 64  1  0  0  0
 49122  1  0  0  0
 50 51  1  0  0  0
 50123  1  0  0  0
 50124  1  0  0  0
 51 52  1  0  0  0
 51125  1  0  0  0
 51126  1  0  0  0
 52127  1  0  0  0
 52128  1  0  0  0
 53 54  1  0  0  0
 54 55  2  0  0  0
 54129  1  0  0  0
 55 57  1  0  0  0
 55130  1  0  0  0
 56 69  2  0  0  0
 57 58  2  0  0  0
 57131  1  0  0  0
 58132  1  0  0  0
 59 60  1  0  0  0
 59 61  1  0  0  0
 59 62  1  0  0  0
 60133  1  0  0  0
 60134  1  0  0  0
 60135  1  0  0  0
 61136  1  0  0  0
 61137  1  0  0  0
 61138  1  0  0  0
 62139  1  0  0  0
 62140  1  0  0  0
 62141  1  0  0  0
 63 65  1  0  0  0
 63142  1  0  0  0
 63143  1  0  0  0
 63144  1  0  0  0
 64145  1  0  0  0
 65146  1  0  0  0
 68 76  1  0  0  0
 71 72  2  0  0  0
 71 75  1  0  0  0
 71147  1  0  0  0
 72 73  1  0  0  0
 72 86  1  0  0  0
 73 74  2  0  0  0
 73 87  1  0  0  0
 74 80  1  0  0  0
 74 81  1  0  0  0
 75 81  2  0  0  0
 75 83  1  0  0  0
 76 78  2  0  0  0
 76148  1  0  0  0
 77 80  1  0  0  0
 77 82  2  0  0  0
 77149  1  0  0  0
 78 79  1  0  0  0
 78 85  1  0  0  0
 79 82  1  0  0  0
 79 84  2  0  0  0
 80150  1  0  0  0
 80151  1  0  0  0
 83152  1  0  0  0
 85153  1  0  0  0
M  ISO  4   1 100  68 101  76 101  83 100
M  END
> <chiral flag>
0

> <version>
0

> <s_m_source_file>
/data/baiqing/PycharmProjects/Reinvent-master-3.2/result/LINK_invent/BTK/process_docking_weight1_custom_product_contain_oxygen_bond_distance_aromatic_linkinvent_7_9_3/rearranged_h_0173.sdf

> <i_m_source_file_index>
22

> <r_mmod_Potential_Energy-OPLS-2005>
-209.166015625

> <r_mmod_Stretch_Energy-OPLS-2005>
36.7098808288574

> <r_mmod_Bend_Energy-OPLS-2005>
93.9358901977539

> <r_mmod_Torsional_Energy-OPLS-2005>
206.002243041992

> <r_mmod_Improper_Torsional_Energy-OPLS-2005>
2.63059282302856

> <r_mmod_Van_der_Waal_Energy-OPLS-2005>
175.788635253906

> <r_mmod_Electrostatic_Energy-OPLS-2005>
-502.588562011719

> <r_mmod_Solvation_Energy-OPLS-2005>
-229.196304321289

> <b_mmod_Minimization_Converged-OPLS-2005>
0

> <r_mmod_RMS_Derivative-OPLS-2005>
0.656233608722687

$$$$
22
                    3D
 Structure written by MMmdl.
156164  0  0  1  0            999 V2000
  -30.6481  -14.5259   20.5121 C   0  0  0  0  0  0
  -30.4348  -12.3201   19.4198 C   0  0  0  0  0  0
  -29.5008  -12.4767   18.1987 C   0  0  0  0  0  0
  -28.0220  -12.3268   18.6161 C   0  0  0  0  0  0
  -27.6546  -13.1939   19.8494 C   0  0  2  0  0  0
  -28.6977  -13.0096   20.9749 C   0  0  0  0  0  0
  -25.2581  -13.8125   20.5621 C   0  0  0  0  0  0
  -24.1836  -13.0426   20.9164 C   0  0  0  0  0  0
  -24.6357  -11.6887   20.8706 C   0  0  0  0  0  0
  -23.9018  -10.4286   21.0400 C   0  0  0  0  0  0
  -24.3583   -9.4207   21.9171 C   0  0  0  0  0  0
  -23.6272   -8.2229   22.0742 C   0  0  0  0  0  0
  -22.4257   -8.0267   21.3538 C   0  0  0  0  0  0
  -21.9873   -9.0235   20.4641 C   0  0  0  0  0  0
  -22.7183  -10.2123   20.3044 C   0  0  0  0  0  0
  -21.6845   -6.0722   22.5272 C   0  0  0  0  0  0
  -21.4014   -6.5625   23.8205 C   0  0  0  0  0  0
  -21.3656   -5.6775   24.9161 C   0  0  0  0  0  0
  -21.6044   -4.3034   24.7219 C   0  0  0  0  0  0
  -21.8816   -3.8133   23.4338 C   0  0  0  0  0  0
  -21.9191   -4.6950   22.3392 C   0  0  0  0  0  0
  -22.7855  -13.5248   21.1835 C   0  0  0  0  0  0
  -22.1657   -4.2133   21.0972 F   0  0  0  0  0  0
  -21.5647   -3.4523   25.7732 F   0  0  0  0  0  0
  -30.0206  -13.3236   20.4132 N   0  0  0  0  0  0
  -26.2977  -12.9264   20.3203 N   0  0  0  0  0  0
  -25.9280  -11.6444   20.5683 N   0  0  0  0  0  0
  -22.0462  -12.8273   22.0395 N   0  0  0  0  0  0
  -25.4310  -15.1842   20.4017 N   0  0  0  0  0  0
  -31.8215  -14.7022   20.1762 O   0  0  0  0  0  0
  -21.6628   -6.8863   21.4228 O   0  0  0  0  0  0
  -22.3533  -14.5539   20.6664 O   0  0  0  0  0  0
  -24.6223  -31.8642   23.2025 C   0  0  0  0  0  0
  -25.9081  -32.4786   23.8360 C   0  0  1  0  0  0
  -27.2296  -27.3779   20.0955 C   0  0  0  0  0  0
  -25.5894  -33.8586   24.2298 N   0  0  0  0  0  0
  -23.4112  -30.4858   21.5473 C   0  0  2  0  0  0
  -24.8502  -28.9421   20.1159 C   0  0  0  0  0  0
  -22.7447  -29.4637   22.4983 C   0  0  0  0  0  0
  -18.0283  -28.1365   22.8495 C   0  0  0  0  0  0
  -24.1483  -36.7322   23.2646 C   0  0  0  0  0  0
  -25.9475  -30.8076   21.3663 C   0  0  0  0  0  0
  -26.0157  -29.4389   20.7123 C   0  0  0  0  0  0
  -27.2044  -28.6674   20.6934 C   0  0  0  0  0  0
  -26.0343  -26.9025   19.5071 C   0  0  0  0  0  0
  -24.8585  -27.6745   19.5112 C   0  0  0  0  0  0
  -23.6177  -29.8183   20.1630 C   0  0  0  0  0  0
  -25.4099  -36.3102   24.0346 C   0  0  1  0  0  0
  -20.5875  -28.3665   23.1302 C   0  0  2  0  0  0
  -20.6764  -26.9399   22.5409 C   0  0  0  0  0  0
  -19.5736  -26.6384   21.5205 C   0  0  0  0  0  0
  -18.1918  -26.7913   22.1620 C   0  0  0  0  0  0
  -19.1534  -28.8832   23.2885 C   0  0  0  0  0  0
  -18.9459  -30.1435   23.8903 C   0  0  0  0  0  0
  -17.6459  -30.6571   24.0570 C   0  0  0  0  0  0
  -25.9041  -34.9463   23.5136 C   0  0  0  0  0  0
  -16.5349  -29.9077   23.6320 C   0  0  0  0  0  0
  -16.7273  -28.6484   23.0362 C   0  0  0  0  0  0
  -26.4468  -31.6580   25.0724 C   0  0  0  0  0  0
  -25.3692  -31.3756   26.1465 C   0  0  0  0  0  0
  -27.0325  -30.3008   24.6165 C   0  0  0  0  0  0
  -27.6046  -32.4312   25.7467 C   0  0  0  0  0  0
  -27.5587  -37.1802   24.8460 C   0  0  0  0  0  0
  -21.4168  -29.3024   22.3710 N   0  0  0  0  0  0
  -26.4293  -37.3783   23.9409 N   0  0  0  0  0  0
  -24.6789  -31.0702   22.0943 N   0  0  0  0  0  0
  -23.4211  -28.8182   23.3038 O   0  0  0  0  0  0
  -28.4187  -26.6574   20.0919 O   0  0  0  0  0  0
  -26.5640  -34.8921   22.4722 O   0  0  0  0  0  0
  -23.5401  -32.1435   23.7362 O   0  0  0  0  0  0
  -29.2817  -17.9619   20.2910 C   0  0  0  0  0  0
  -30.8058  -19.6414   21.1024 C   0  0  0  0  0  0
  -31.3033  -17.4075   21.4975 C   0  0  0  0  0  0
  -29.6241  -19.3397   20.4004 C   0  0  0  0  0  0
  -30.1404  -16.9673   20.8340 C   0  0  0  0  0  0
  -27.9040  -22.7891   19.8744 C   0  0  0  0  0  0
  -29.4575  -20.6084   18.2510 C   0  0  0  0  0  0
  -27.9790  -24.2088   20.5166 C   0  0  0  0  0  0
  -28.8249  -20.4369   19.6474 C   0  0  2  0  0  0
  -28.5408  -25.3653   19.6110 C   0  0  0  0  0  0
  -31.6236  -18.7104   21.6416 N   0  0  0  0  0  0
  -29.8157  -15.5702   20.7457 N   0  0  0  0  0  0
  -28.7264  -21.7832   20.2851 N   0  0  0  0  0  0
  -27.0425  -22.5806   19.0166 O   0  0  0  0  0  0
  -29.8674  -25.1048   19.5025 F   0  0  0  0  0  0
  -28.0828  -25.2990   18.3352 F   0  0  0  0  0  0
  -31.4788  -12.4389   19.1210 H   0  0  0  0  0  0
  -30.3581  -11.3172   19.8411 H   0  0  0  0  0  0
  -29.7493  -11.7324   17.4399 H   0  0  0  0  0  0
  -29.6545  -13.4521   17.7327 H   0  0  0  0  0  0
  -27.8533  -11.2746   18.8487 H   0  0  0  0  0  0
  -27.3643  -12.5598   17.7770 H   0  0  0  0  0  0
  -27.6837  -14.2299   19.5093 H   0  0  0  0  0  0
  -28.6867  -11.9820   21.3415 H   0  0  0  0  0  0
  -28.4626  -13.6327   21.8394 H   0  0  0  0  0  0
  -25.2738   -9.5712   22.4722 H   0  0  0  0  0  0
  -24.0004   -7.4630   22.7463 H   0  0  0  0  0  0
  -21.0803   -8.8739   19.8951 H   0  0  0  0  0  0
  -22.3634  -10.9655   19.6148 H   0  0  0  0  0  0
  -21.2000   -7.6133   23.9705 H   0  0  0  0  0  0
  -21.1484   -6.0502   25.9066 H   0  0  0  0  0  0
  -22.0605   -2.7599   23.2824 H   0  0  0  0  0  0
  -22.4066  -11.9987   22.4896 H   0  0  0  0  0  0
  -21.1068  -13.1335   22.2530 H   0  0  0  0  0  0
  -24.6596  -15.8344   20.5102 H   0  0  0  0  0  0
  -26.2622  -15.6190   20.0246 H   0  0  0  0  0  0
  -26.7156  -32.5448   23.1114 H   0  0  0  0  0  0
  -24.9967  -33.9722   25.0392 H   0  0  0  0  0  0
  -22.7016  -31.3035   21.4074 H   0  0  0  0  0  0
  -23.3724  -35.9677   23.3321 H   0  0  0  0  0  0
  -24.3584  -36.8925   22.2058 H   0  0  0  0  0  0
  -23.7245  -37.6534   23.6659 H   0  0  0  0  0  0
  -26.0853  -31.5687   20.5972 H   0  0  0  0  0  0
  -26.8279  -30.8497   21.9964 H   0  0  0  0  0  0
  -28.1088  -29.0560   21.1392 H   0  0  0  0  0  0
  -25.9831  -25.9319   19.0377 H   0  0  0  0  0  0
  -23.9643  -27.2805   19.0474 H   0  0  0  0  0  0
  -23.7315  -30.5941   19.4047 H   0  0  0  0  0  0
  -22.7370  -29.2442   19.8672 H   0  0  0  0  0  0
  -25.1261  -36.1988   25.0842 H   0  0  0  0  0  0
  -20.9978  -28.3239   24.1416 H   0  0  0  0  0  0
  -20.5672  -26.2278   23.3604 H   0  0  0  0  0  0
  -21.6639  -26.7434   22.1201 H   0  0  0  0  0  0
  -19.6902  -25.6304   21.1215 H   0  0  0  0  0  0
  -19.6657  -27.3214   20.6747 H   0  0  0  0  0  0
  -17.4191  -26.6687   21.4014 H   0  0  0  0  0  0
  -18.0302  -26.0048   22.9007 H   0  0  0  0  0  0
  -19.7939  -30.7247   24.2282 H   0  0  0  0  0  0
  -17.5011  -31.6249   24.5177 H   0  0  0  0  0  0
  -15.5346  -30.2981   23.7612 H   0  0  0  0  0  0
  -15.8678  -28.0785   22.7092 H   0  0  0  0  0  0
  -24.5794  -30.7195   25.7788 H   0  0  0  0  0  0
  -24.8963  -32.2959   26.4913 H   0  0  0  0  0  0
  -25.7982  -30.8886   27.0231 H   0  0  0  0  0  0
  -26.2929  -29.6737   24.1181 H   0  0  0  0  0  0
  -27.4040  -29.7274   25.4662 H   0  0  0  0  0  0
  -27.8779  -30.4307   23.9406 H   0  0  0  0  0  0
  -27.2662  -33.3575   26.2126 H   0  0  0  0  0  0
  -28.3794  -32.6941   25.0253 H   0  0  0  0  0  0
  -28.0808  -31.8402   26.5297 H   0  0  0  0  0  0
  -28.2611  -38.0089   24.7498 H   0  0  0  0  0  0
  -28.1076  -36.2625   24.6288 H   0  0  0  0  0  0
  -27.2336  -37.1470   25.8871 H   0  0  0  0  0  0
  -20.9352  -29.8749   21.6912 H   0  0  0  0  0  0
  -26.0197  -38.2886   24.1339 H   0  0  0  0  0  0
  -28.3906  -17.6686   19.7537 H   0  0  0  0  0  0
  -31.1324  -20.6651   21.1998 H   0  0  0  0  0  0
  -31.9846  -16.7042   21.9542 H   0  0  0  0  0  0
  -29.5716  -19.6548   17.7352 H   0  0  0  0  0  0
  -30.4481  -21.0595   18.3239 H   0  0  0  0  0  0
  -28.8559  -21.2460   17.6044 H   0  0  0  0  0  0
  -28.5562  -24.1603   21.4395 H   0  0  0  0  0  0
  -26.9622  -24.4571   20.8196 H   0  0  0  0  0  0
  -27.8107  -20.0500   19.5185 H   0  0  0  0  0  0
  -28.8383  -15.3289   20.7791 H   0  0  0  0  0  0
  -29.3701  -21.9926   21.0356 H   0  0  0  0  0  0
  1 25  1  0  0  0
  1 30  2  0  0  0
  1 82  1  0  0  0
  2  3  1  0  0  0
  2 25  1  0  0  0
  2 87  1  0  0  0
  2 88  1  0  0  0
  3  4  1  0  0  0
  3 89  1  0  0  0
  3 90  1  0  0  0
  4  5  1  0  0  0
  4 91  1  0  0  0
  4 92  1  0  0  0
  5  6  1  0  0  0
  5 26  1  0  0  0
  5 93  1  0  0  0
  6 25  1  0  0  0
  6 94  1  0  0  0
  6 95  1  0  0  0
  7  8  2  0  0  0
  7 26  1  0  0  0
  7 29  1  0  0  0
  8  9  1  0  0  0
  8 22  1  0  0  0
  9 10  1  0  0  0
  9 27  2  0  0  0
 10 11  2  0  0  0
 10 15  1  0  0  0
 11 12  1  0  0  0
 11 96  1  0  0  0
 12 13  2  0  0  0
 12 97  1  0  0  0
 13 14  1  0  0  0
 13 31  1  0  0  0
 14 15  2  0  0  0
 14 98  1  0  0  0
 15 99  1  0  0  0
 16 17  2  0  0  0
 16 21  1  0  0  0
 16 31  1  0  0  0
 17 18  1  0  0  0
 17100  1  0  0  0
 18 19  2  0  0  0
 18101  1  0  0  0
 19 20  1  0  0  0
 19 24  1  0  0  0
 20 21  2  0  0  0
 20102  1  0  0  0
 21 23  1  0  0  0
 22 28  1  0  0  0
 22 32  2  0  0  0
 26 27  1  0  0  0
 28103  1  0  0  0
 28104  1  0  0  0
 29105  1  0  0  0
 29106  1  0  0  0
 33 34  1  0  0  0
 33 66  1  0  0  0
 33 70  2  0  0  0
 34 36  1  0  0  0
 34 59  1  0  0  0
 34107  1  0  0  0
 35 44  2  0  0  0
 35 45  1  0  0  0
 35 68  1  0  0  0
 36 56  1  0  0  0
 36108  1  0  0  0
 37 39  1  0  0  0
 37 47  1  0  0  0
 37 66  1  0  0  0
 37109  1  0  0  0
 38 43  2  0  0  0
 38 46  1  0  0  0
 38 47  1  0  0  0
 39 64  1  0  0  0
 39 67  2  0  0  0
 40 52  1  0  0  0
 40 53  2  0  0  0
 40 58  1  0  0  0
 41110  1  0  0  0
 41111  1  0  0  0
 41112  1  0  0  0
 41 48  1  0  0  0
 42 43  1  0  0  0
 42 66  1  0  0  0
 42113  1  0  0  0
 42114  1  0  0  0
 43 44  1  0  0  0
 44115  1  0  0  0
 45 46  2  0  0  0
 45116  1  0  0  0
 46117  1  0  0  0
 47118  1  0  0  0
 47119  1  0  0  0
 48 56  1  0  0  0
 48 65  1  0  0  0
 48120  1  0  0  0
 49 50  1  0  0  0
 49 53  1  0  0  0
 49 64  1  0  0  0
 49121  1  0  0  0
 50 51  1  0  0  0
 50122  1  0  0  0
 50123  1  0  0  0
 51 52  1  0  0  0
 51124  1  0  0  0
 51125  1  0  0  0
 52126  1  0  0  0
 52127  1  0  0  0
 53 54  1  0  0  0
 54 55  2  0  0  0
 54128  1  0  0  0
 55 57  1  0  0  0
 55129  1  0  0  0
 56 69  2  0  0  0
 57 58  2  0  0  0
 57130  1  0  0  0
 58131  1  0  0  0
 59 60  1  0  0  0
 59 61  1  0  0  0
 59 62  1  0  0  0
 60132  1  0  0  0
 60133  1  0  0  0
 60134  1  0  0  0
 61135  1  0  0  0
 61136  1  0  0  0
 61137  1  0  0  0
 62138  1  0  0  0
 62139  1  0  0  0
 62140  1  0  0  0
 63 65  1  0  0  0
 63141  1  0  0  0
 63142  1  0  0  0
 63143  1  0  0  0
 64144  1  0  0  0
 65145  1  0  0  0
 68 80  1  0  0  0
 71 74  2  0  0  0
 71 75  1  0  0  0
 71146  1  0  0  0
 72 74  1  0  0  0
 72 81  2  0  0  0
 72147  1  0  0  0
 73 75  2  0  0  0
 73 81  1  0  0  0
 73148  1  0  0  0
 74 79  1  0  0  0
 75 82  1  0  0  0
 76 78  1  0  0  0
 76 83  1  0  0  0
 76 84  2  0  0  0
 77149  1  0  0  0
 77150  1  0  0  0
 77151  1  0  0  0
 77 79  1  0  0  0
 78 80  1  0  0  0
 78152  1  0  0  0
 78153  1  0  0  0
 79 83  1  0  0  0
 79154  1  0  0  0
 80 85  1  0  0  0
 80 86  1  0  0  0
 82155  1  0  0  0
 83156  1  0  0  0
M  ISO  4   1 100  68 101  80 101  82 100
M  END
> <chiral flag>
0

> <version>
0

> <s_m_source_file>
/data/baiqing/PycharmProjects/Reinvent-master-3.2/result/LINK_invent/BTK/process_docking_weight1_custom_product_contain_oxygen_bond_distance_aromatic_linkinvent_7_9_3/rearranged_h_0173.sdf

> <i_m_source_file_index>
23

> <r_mmod_Potential_Energy-OPLS-2005>
-224.956939697266

> <r_mmod_Stretch_Energy-OPLS-2005>
50.4297103881836

> <r_mmod_Bend_Energy-OPLS-2005>
118.983169555664

> <r_mmod_Torsional_Energy-OPLS-2005>
187.063980102539

> <r_mmod_Improper_Torsional_Energy-OPLS-2005>
7.33109855651855

> <r_mmod_Van_der_Waal_Energy-OPLS-2005>
154.276702880859

> <r_mmod_Electrostatic_Energy-OPLS-2005>
-527.923400878906

> <r_mmod_Solvation_Energy-OPLS-2005>
-239.115600585938

> <b_mmod_Minimization_Converged-OPLS-2005>
0

> <r_mmod_RMS_Derivative-OPLS-2005>
3.14184617996216

$$$$
23
                    3D
 Structure written by MMmdl.
154162  0  0  1  0            999 V2000
  -30.7137  -14.5091   20.5471 C   0  0  0  0  0  0
  -30.4161  -12.3240   19.4368 C   0  0  0  0  0  0
  -29.4943  -12.4990   18.2133 C   0  0  0  0  0  0
  -28.0170  -12.3572   18.6266 C   0  0  0  0  0  0
  -27.6564  -13.2156   19.8692 C   0  0  2  0  0  0
  -28.7001  -13.0422   20.9968 C   0  0  0  0  0  0
  -25.2567  -13.8182   20.5696 C   0  0  0  0  0  0
  -24.1826  -13.0444   20.9179 C   0  0  0  0  0  0
  -24.6392  -11.6915   20.8733 C   0  0  0  0  0  0
  -23.9062  -10.4296   21.0400 C   0  0  0  0  0  0
  -24.3616   -9.4213   21.9178 C   0  0  0  0  0  0
  -23.6293   -8.2247   22.0751 C   0  0  0  0  0  0
  -22.4275   -8.0282   21.3543 C   0  0  0  0  0  0
  -21.9908   -9.0255   20.4646 C   0  0  0  0  0  0
  -22.7234  -10.2135   20.3052 C   0  0  0  0  0  0
  -21.6854   -6.0735   22.5279 C   0  0  0  0  0  0
  -21.4014   -6.5638   23.8212 C   0  0  0  0  0  0
  -21.3660   -5.6791   24.9174 C   0  0  0  0  0  0
  -21.6044   -4.3054   24.7225 C   0  0  0  0  0  0
  -21.8820   -3.8146   23.4347 C   0  0  0  0  0  0
  -21.9195   -4.6962   22.3403 C   0  0  0  0  0  0
  -22.7848  -13.5236   21.1844 C   0  0  0  0  0  0
  -22.1664   -4.2148   21.0981 F   0  0  0  0  0  0
  -21.5629   -3.4538   25.7739 F   0  0  0  0  0  0
  -30.0269  -13.3369   20.4342 N   0  0  0  0  0  0
  -26.3004  -12.9366   20.3358 N   0  0  0  0  0  0
  -25.9323  -11.6517   20.5767 N   0  0  0  0  0  0
  -22.0494  -12.8226   22.0403 N   0  0  0  0  0  0
  -25.4285  -15.1905   20.4136 N   0  0  0  0  0  0
  -31.8524  -14.6335   20.0920 O   0  0  0  0  0  0
  -21.6641   -6.8878   21.4240 O   0  0  0  0  0  0
  -22.3531  -14.5543   20.6696 O   0  0  0  0  0  0
  -24.6179  -31.8665   23.2092 C   0  0  0  0  0  0
  -25.9060  -32.4817   23.8395 C   0  0  1  0  0  0
  -27.2255  -27.4087   20.1006 C   0  0  0  0  0  0
  -25.5906  -33.8615   24.2324 N   0  0  0  0  0  0
  -23.4079  -30.4914   21.5495 C   0  0  2  0  0  0
  -24.8559  -28.9617   20.1072 C   0  0  0  0  0  0
  -22.7434  -29.4651   22.4965 C   0  0  0  0  0  0
  -18.0278  -28.1379   22.8491 C   0  0  0  0  0  0
  -24.1487  -36.7310   23.2637 C   0  0  0  0  0  0
  -25.9411  -30.8248   21.3682 C   0  0  0  0  0  0
  -26.0194  -29.4600   20.7097 C   0  0  0  0  0  0
  -27.2114  -28.6910   20.7042 C   0  0  0  0  0  0
  -26.0494  -26.9433   19.4728 C   0  0  0  0  0  0
  -24.8673  -27.7042   19.4824 C   0  0  0  0  0  0
  -23.6182  -29.8294   20.1622 C   0  0  0  0  0  0
  -25.4107  -36.3109   24.0338 C   0  0  1  0  0  0
  -20.5873  -28.3673   23.1304 C   0  0  2  0  0  0
  -20.6767  -26.9405   22.5415 C   0  0  0  0  0  0
  -19.5747  -26.6386   21.5211 C   0  0  0  0  0  0
  -18.1925  -26.7925   22.1623 C   0  0  0  0  0  0
  -19.1529  -28.8841   23.2895 C   0  0  0  0  0  0
  -18.9455  -30.1446   23.8908 C   0  0  0  0  0  0
  -17.6458  -30.6585   24.0565 C   0  0  0  0  0  0
  -25.9037  -34.9474   23.5129 C   0  0  0  0  0  0
  -16.5348  -29.9087   23.6326 C   0  0  0  0  0  0
  -16.7267  -28.6503   23.0349 C   0  0  0  0  0  0
  -26.4477  -31.6599   25.0729 C   0  0  0  0  0  0
  -25.3738  -31.3713   26.1475 C   0  0  0  0  0  0
  -27.0305  -30.3034   24.6121 C   0  0  0  0  0  0
  -27.6055  -32.4316   25.7489 C   0  0  0  0  0  0
  -27.5583  -37.1805   24.8461 C   0  0  0  0  0  0
  -21.4156  -29.3038   22.3707 N   0  0  0  0  0  0
  -26.4292  -37.3796   23.9414 N   0  0  0  0  0  0
  -24.6738  -31.0748   22.1004 N   0  0  0  0  0  0
  -23.4193  -28.8186   23.3012 O   0  0  0  0  0  0
  -28.3245  -26.5683   20.1579 O   0  0  0  0  0  0
  -26.5599  -34.8925   22.4691 O   0  0  0  0  0  0
  -23.5362  -32.1426   23.7469 O   0  0  0  0  0  0
  -31.1814  -19.7067   21.2685 C   0  0  0  0  0  0
  -31.8057  -17.3481   21.1610 C   0  0  0  0  0  0
  -29.8115  -19.3701   21.2081 C   0  0  0  0  0  0
  -30.4447  -16.9597   21.0824 C   0  0  0  0  0  0
  -32.1668  -18.7053   21.2433 C   0  0  0  0  0  0
  -29.4566  -17.9848   21.1110 C   0  0  0  0  0  0
  -28.0583  -25.3250   20.7186 C   0  0  0  0  0  0
  -28.8104  -20.4631   21.3552 C   0  0  0  0  0  0
  -28.7150  -24.1606   20.4803 C   0  0  0  0  0  0
  -28.2362  -22.9283   21.1327 C   0  0  0  0  0  0
  -30.0271  -15.5751   21.0253 N   0  0  0  0  0  0
  -29.0357  -21.7363   20.8995 N   0  0  0  0  0  0
  -27.6839  -20.1721   22.0177 N   0  3  0  0  0  0
  -27.2234  -22.8668   21.8421 O   0  0  0  0  0  0
  -29.7732  -24.1153   19.6574 O   0  0  0  0  0  0
  -33.4741  -19.0515   21.3220 F   0  0  0  0  0  0
  -28.1526  -17.6101   21.0788 F   0  0  0  0  0  0
  -31.4618  -12.4059   19.1352 H   0  0  0  0  0  0
  -30.3085  -11.3231   19.8580 H   0  0  0  0  0  0
  -29.7397  -11.7619   17.4475 H   0  0  0  0  0  0
  -29.6599  -13.4780   17.7605 H   0  0  0  0  0  0
  -27.8354  -11.3032   18.8404 H   0  0  0  0  0  0
  -27.3652  -12.6129   17.7902 H   0  0  0  0  0  0
  -27.6868  -14.2565   19.5466 H   0  0  0  0  0  0
  -28.6818  -12.0209   21.3803 H   0  0  0  0  0  0
  -28.4624  -13.6813   21.8485 H   0  0  0  0  0  0
  -25.2763   -9.5691   22.4749 H   0  0  0  0  0  0
  -24.0007   -7.4640   22.7468 H   0  0  0  0  0  0
  -21.0839   -8.8773   19.8953 H   0  0  0  0  0  0
  -22.3691  -10.9672   19.6160 H   0  0  0  0  0  0
  -21.2004   -7.6145   23.9714 H   0  0  0  0  0  0
  -21.1481   -6.0521   25.9077 H   0  0  0  0  0  0
  -22.0598   -2.7608   23.2848 H   0  0  0  0  0  0
  -22.4107  -11.9884   22.4788 H   0  0  0  0  0  0
  -21.1113  -13.1252   22.2611 H   0  0  0  0  0  0
  -24.6639  -15.8456   20.5337 H   0  0  0  0  0  0
  -26.2876  -15.6384   20.1208 H   0  0  0  0  0  0
  -26.7132  -32.5523   23.1157 H   0  0  0  0  0  0
  -25.0062  -33.9776   25.0474 H   0  0  0  0  0  0
  -22.6975  -31.3092   21.4117 H   0  0  0  0  0  0
  -23.3750  -35.9642   23.3302 H   0  0  0  0  0  0
  -24.3586  -36.8921   22.2051 H   0  0  0  0  0  0
  -23.7235  -37.6515   23.6647 H   0  0  0  0  0  0
  -26.0600  -31.5928   20.6026 H   0  0  0  0  0  0
  -26.8261  -30.8745   21.9907 H   0  0  0  0  0  0
  -28.1045  -29.0603   21.1886 H   0  0  0  0  0  0
  -26.0397  -25.9727   18.9970 H   0  0  0  0  0  0
  -23.9750  -27.3164   19.0106 H   0  0  0  0  0  0
  -23.7268  -30.6076   19.4058 H   0  0  0  0  0  0
  -22.7416  -29.2515   19.8640 H   0  0  0  0  0  0
  -25.1280  -36.1975   25.0830 H   0  0  0  0  0  0
  -20.9965  -28.3243   24.1425 H   0  0  0  0  0  0
  -20.5673  -26.2279   23.3606 H   0  0  0  0  0  0
  -21.6639  -26.7448   22.1207 H   0  0  0  0  0  0
  -19.6909  -25.6301   21.1233 H   0  0  0  0  0  0
  -19.6684  -27.3203   20.6746 H   0  0  0  0  0  0
  -17.4196  -26.6675   21.4025 H   0  0  0  0  0  0
  -18.0327  -26.0064   22.9017 H   0  0  0  0  0  0
  -19.7932  -30.7258   24.2284 H   0  0  0  0  0  0
  -17.5015  -31.6266   24.5166 H   0  0  0  0  0  0
  -15.5349  -30.2994   23.7643 H   0  0  0  0  0  0
  -15.8666  -28.0826   22.7061 H   0  0  0  0  0  0
  -24.5905  -30.7066   25.7812 H   0  0  0  0  0  0
  -24.8936  -32.2873   26.4928 H   0  0  0  0  0  0
  -25.8088  -30.8877   27.0230 H   0  0  0  0  0  0
  -26.2852  -29.6801   24.1166 H   0  0  0  0  0  0
  -27.4052  -29.7268   25.4588 H   0  0  0  0  0  0
  -27.8700  -30.4342   23.9289 H   0  0  0  0  0  0
  -27.2678  -33.3608   26.2091 H   0  0  0  0  0  0
  -28.3849  -32.6889   25.0304 H   0  0  0  0  0  0
  -28.0739  -31.8424   26.5383 H   0  0  0  0  0  0
  -28.2595  -38.0110   24.7530 H   0  0  0  0  0  0
  -28.1084  -36.2644   24.6255 H   0  0  0  0  0  0
  -27.2308  -37.1422   25.8866 H   0  0  0  0  0  0
  -20.9316  -29.8766   21.6935 H   0  0  0  0  0  0
  -26.0180  -38.2872   24.1426 H   0  0  0  0  0  0
  -31.5006  -20.7331   21.3746 H   0  0  0  0  0  0
  -32.6040  -16.6244   21.1810 H   0  0  0  0  0  0
  -27.2144  -25.3670   21.3986 H   0  0  0  0  0  0
  -29.0617  -15.4025   21.2604 H   0  0  0  0  0  0
  -29.8547  -21.8188   20.3177 H   0  0  0  0  0  0
  -27.4643  -19.2133   22.2476 H   0  0  0  0  0  0
  -27.0198  -20.9116   22.2119 H   0  0  0  0  0  0
  -29.9106  -24.9995   19.3408 H   0  0  0  0  0  0
  1 25  1  0  0  0
  1 30  2  0  0  0
  1 81  1  0  0  0
  2  3  1  0  0  0
  2 25  1  0  0  0
  2 88  1  0  0  0
  2 89  1  0  0  0
  3  4  1  0  0  0
  3 90  1  0  0  0
  3 91  1  0  0  0
  4  5  1  0  0  0
  4 92  1  0  0  0
  4 93  1  0  0  0
  5  6  1  0  0  0
  5 26  1  0  0  0
  5 94  1  0  0  0
  6 25  1  0  0  0
  6 95  1  0  0  0
  6 96  1  0  0  0
  7  8  2  0  0  0
  7 26  1  0  0  0
  7 29  1  0  0  0
  8  9  1  0  0  0
  8 22  1  0  0  0
  9 10  1  0  0  0
  9 27  2  0  0  0
 10 11  2  0  0  0
 10 15  1  0  0  0
 11 12  1  0  0  0
 11 97  1  0  0  0
 12 13  2  0  0  0
 12 98  1  0  0  0
 13 14  1  0  0  0
 13 31  1  0  0  0
 14 15  2  0  0  0
 14 99  1  0  0  0
 15100  1  0  0  0
 16 17  2  0  0  0
 16 21  1  0  0  0
 16 31  1  0  0  0
 17 18  1  0  0  0
 17101  1  0  0  0
 18 19  2  0  0  0
 18102  1  0  0  0
 19 20  1  0  0  0
 19 24  1  0  0  0
 20 21  2  0  0  0
 20103  1  0  0  0
 21 23  1  0  0  0
 22 28  1  0  0  0
 22 32  2  0  0  0
 26 27  1  0  0  0
 28104  1  0  0  0
 28105  1  0  0  0
 29106  1  0  0  0
 29107  1  0  0  0
 33 34  1  0  0  0
 33 66  1  0  0  0
 33 70  2  0  0  0
 34 36  1  0  0  0
 34 59  1  0  0  0
 34108  1  0  0  0
 35 44  2  0  0  0
 35 45  1  0  0  0
 35 68  1  0  0  0
 36 56  1  0  0  0
 36109  1  0  0  0
 37 39  1  0  0  0
 37 47  1  0  0  0
 37 66  1  0  0  0
 37110  1  0  0  0
 38 43  2  0  0  0
 38 46  1  0  0  0
 38 47  1  0  0  0
 39 64  1  0  0  0
 39 67  2  0  0  0
 40 52  1  0  0  0
 40 53  2  0  0  0
 40 58  1  0  0  0
 41111  1  0  0  0
 41112  1  0  0  0
 41113  1  0  0  0
 41 48  1  0  0  0
 42 43  1  0  0  0
 42 66  1  0  0  0
 42114  1  0  0  0
 42115  1  0  0  0
 43 44  1  0  0  0
 44116  1  0  0  0
 45 46  2  0  0  0
 45117  1  0  0  0
 46118  1  0  0  0
 47119  1  0  0  0
 47120  1  0  0  0
 48 56  1  0  0  0
 48 65  1  0  0  0
 48121  1  0  0  0
 49 50  1  0  0  0
 49 53  1  0  0  0
 49 64  1  0  0  0
 49122  1  0  0  0
 50 51  1  0  0  0
 50123  1  0  0  0
 50124  1  0  0  0
 51 52  1  0  0  0
 51125  1  0  0  0
 51126  1  0  0  0
 52127  1  0  0  0
 52128  1  0  0  0
 53 54  1  0  0  0
 54 55  2  0  0  0
 54129  1  0  0  0
 55 57  1  0  0  0
 55130  1  0  0  0
 56 69  2  0  0  0
 57 58  2  0  0  0
 57131  1  0  0  0
 58132  1  0  0  0
 59 60  1  0  0  0
 59 61  1  0  0  0
 59 62  1  0  0  0
 60133  1  0  0  0
 60134  1  0  0  0
 60135  1  0  0  0
 61136  1  0  0  0
 61137  1  0  0  0
 61138  1  0  0  0
 62139  1  0  0  0
 62140  1  0  0  0
 62141  1  0  0  0
 63 65  1  0  0  0
 63142  1  0  0  0
 63143  1  0  0  0
 63144  1  0  0  0
 64145  1  0  0  0
 65146  1  0  0  0
 68 77  1  0  0  0
 71 73  2  0  0  0
 71 75  1  0  0  0
 71147  1  0  0  0
 72 74  1  0  0  0
 72 75  2  0  0  0
 72148  1  0  0  0
 73 76  1  0  0  0
 73 78  1  0  0  0
 74 76  2  0  0  0
 74 81  1  0  0  0
 75 86  1  0  0  0
 76 87  1  0  0  0
 77 79  2  0  0  0
 77149  1  0  0  0
 78 82  1  0  0  0
 78 83  2  0  0  0
 79 80  1  0  0  0
 79 85  1  0  0  0
 80 82  1  0  0  0
 80 84  2  0  0  0
 81150  1  0  0  0
 82151  1  0  0  0
 83152  1  0  0  0
 83153  1  0  0  0
 85154  1  0  0  0
M  CHG  1  83   1
M  ISO  4   1 100  68 101  77 101  81 100
M  END
> <chiral flag>
0

> <version>
0

> <s_m_source_file>
/data/baiqing/PycharmProjects/Reinvent-master-3.2/result/LINK_invent/BTK/process_docking_weight1_custom_product_contain_oxygen_bond_distance_aromatic_linkinvent_7_9_3/rearranged_h_0173.sdf

> <i_m_source_file_index>
24

> <r_mmod_Potential_Energy-OPLS-2005>
-433.069458007812

> <r_mmod_Stretch_Energy-OPLS-2005>
48.5289649963379

> <r_mmod_Bend_Energy-OPLS-2005>
108.824157714844

> <r_mmod_Torsional_Energy-OPLS-2005>
202.856002807617

> <r_mmod_Improper_Torsional_Energy-OPLS-2005>
4.54536056518555

> <r_mmod_Van_der_Waal_Energy-OPLS-2005>
179.867309570312

> <r_mmod_Electrostatic_Energy-OPLS-2005>
-566.320861816406

> <r_mmod_Solvation_Energy-OPLS-2005>
-433.729095458984

> <b_mmod_Minimization_Converged-OPLS-2005>
0

> <r_mmod_RMS_Derivative-OPLS-2005>
0.282983839511871

$$$$
24
                    3D
 Structure written by MMmdl.
150158  0  0  1  0            999 V2000
  -30.6703  -14.5097   20.5653 C   0  0  0  0  0  0
  -30.4339  -12.3276   19.4248 C   0  0  0  0  0  0
  -29.4990  -12.5128   18.2095 C   0  0  0  0  0  0
  -28.0200  -12.3660   18.6201 C   0  0  0  0  0  0
  -27.6631  -13.2054   19.8755 C   0  0  2  0  0  0
  -28.7058  -12.9839   20.9961 C   0  0  0  0  0  0
  -25.2606  -13.8160   20.5679 C   0  0  0  0  0  0
  -24.1850  -13.0443   20.9167 C   0  0  0  0  0  0
  -24.6400  -11.6907   20.8733 C   0  0  0  0  0  0
  -23.9063  -10.4296   21.0410 C   0  0  0  0  0  0
  -24.3616   -9.4206   21.9184 C   0  0  0  0  0  0
  -23.6289   -8.2242   22.0750 C   0  0  0  0  0  0
  -22.4272   -8.0282   21.3541 C   0  0  0  0  0  0
  -21.9903   -9.0260   20.4649 C   0  0  0  0  0  0
  -22.7236  -10.2141   20.3060 C   0  0  0  0  0  0
  -21.6854   -6.0735   22.5277 C   0  0  0  0  0  0
  -21.4020   -6.5641   23.8212 C   0  0  0  0  0  0
  -21.3653   -5.6794   24.9172 C   0  0  0  0  0  0
  -21.6040   -4.3056   24.7224 C   0  0  0  0  0  0
  -21.8823   -3.8144   23.4348 C   0  0  0  0  0  0
  -21.9191   -4.6960   22.3405 C   0  0  0  0  0  0
  -22.7873  -13.5250   21.1825 C   0  0  0  0  0  0
  -22.1661   -4.2143   21.0983 F   0  0  0  0  0  0
  -21.5615   -3.4544   25.7740 F   0  0  0  0  0  0
  -30.0372  -13.3070   20.4497 N   0  0  0  0  0  0
  -26.3032  -12.9321   20.3362 N   0  0  0  0  0  0
  -25.9331  -11.6482   20.5767 N   0  0  0  0  0  0
  -22.0512  -12.8259   22.0394 N   0  0  0  0  0  0
  -25.4349  -15.1882   20.4104 N   0  0  0  0  0  0
  -31.7916  -14.7165   20.0938 O   0  0  0  0  0  0
  -21.6638   -6.8880   21.4240 O   0  0  0  0  0  0
  -22.3559  -14.5547   20.6661 O   0  0  0  0  0  0
  -24.6185  -31.8663   23.2082 C   0  0  0  0  0  0
  -25.9064  -32.4809   23.8386 C   0  0  1  0  0  0
  -27.2322  -27.3974   20.0851 C   0  0  0  0  0  0
  -25.5914  -33.8608   24.2316 N   0  0  0  0  0  0
  -23.4065  -30.4914   21.5506 C   0  0  2  0  0  0
  -24.8479  -28.9534   20.1147 C   0  0  0  0  0  0
  -22.7427  -29.4654   22.4982 C   0  0  0  0  0  0
  -18.0279  -28.1374   22.8483 C   0  0  0  0  0  0
  -24.1490  -36.7312   23.2635 C   0  0  0  0  0  0
  -25.9402  -30.8184   21.3673 C   0  0  0  0  0  0
  -26.0122  -29.4512   20.7107 C   0  0  0  0  0  0
  -27.2010  -28.6806   20.6933 C   0  0  0  0  0  0
  -26.0347  -26.9189   19.4994 C   0  0  0  0  0  0
  -24.8558  -27.6875   19.5100 C   0  0  0  0  0  0
  -23.6143  -29.8271   20.1645 C   0  0  0  0  0  0
  -25.4109  -36.3103   24.0335 C   0  0  1  0  0  0
  -20.5872  -28.3670   23.1307 C   0  0  2  0  0  0
  -20.6768  -26.9404   22.5414 C   0  0  0  0  0  0
  -19.5751  -26.6379   21.5209 C   0  0  0  0  0  0
  -18.1928  -26.7919   22.1615 C   0  0  0  0  0  0
  -19.1529  -28.8837   23.2889 C   0  0  0  0  0  0
  -18.9455  -30.1440   23.8906 C   0  0  0  0  0  0
  -17.6457  -30.6579   24.0563 C   0  0  0  0  0  0
  -25.9044  -34.9469   23.5124 C   0  0  0  0  0  0
  -16.5346  -29.9081   23.6322 C   0  0  0  0  0  0
  -16.7269  -28.6497   23.0342 C   0  0  0  0  0  0
  -26.4474  -31.6598   25.0728 C   0  0  0  0  0  0
  -25.3735  -31.3738   26.1481 C   0  0  0  0  0  0
  -27.0290  -30.3028   24.6130 C   0  0  0  0  0  0
  -27.6055  -32.4319   25.7472 C   0  0  0  0  0  0
  -27.5591  -37.1797   24.8452 C   0  0  0  0  0  0
  -21.4154  -29.3035   22.3711 N   0  0  0  0  0  0
  -26.4288  -37.3795   23.9421 N   0  0  0  0  0  0
  -24.6735  -31.0739   22.0994 N   0  0  0  0  0  0
  -23.4189  -28.8200   23.3037 O   0  0  0  0  0  0
  -28.4226  -26.6778   20.1125 O   0  0  0  0  0  0
  -26.5604  -34.8925   22.4685 O   0  0  0  0  0  0
  -23.5370  -32.1427   23.7458 O   0  0  0  0  0  0
  -30.5627  -19.1007   20.5967 C   0  0  0  0  0  0
  -30.9733  -17.7337   20.7496 C   0  0  0  0  0  0
  -29.2081  -19.2967   20.6635 C   0  0  0  0  0  0
  -29.9415  -16.8357   20.9302 C   0  0  0  0  0  0
  -28.3107  -20.4892   20.5327 C   0  0  0  0  0  0
  -28.2273  -22.9315   20.3600 C   0  0  0  0  0  0
  -29.0663  -24.2365   20.3966 C   0  0  0  0  0  0
  -28.5767  -25.3911   19.4563 C   0  0  0  0  0  0
  -29.9199  -15.4805   21.1321 N   0  0  0  0  0  0
  -28.8638  -21.7307   20.4795 N   0  0  0  0  0  0
  -27.0899  -20.2887   20.4917 O   0  0  0  0  0  0
  -27.0025  -23.0509   20.2425 O   0  0  0  0  0  0
  -31.4222  -20.0792   20.4140 F   0  0  0  0  0  0
  -32.2433  -17.3985   20.7417 F   0  0  0  0  0  0
  -28.4305  -17.7355   20.9257 S   0  0  0  0  0  0
  -31.4762  -12.4431   19.1214 H   0  0  0  0  0  0
  -30.3506  -11.3155   19.8235 H   0  0  0  0  0  0
  -29.7429  -11.7883   17.4313 H   0  0  0  0  0  0
  -29.6590  -13.4990   17.7697 H   0  0  0  0  0  0
  -27.8344  -11.3094   18.8154 H   0  0  0  0  0  0
  -27.3696  -12.6380   17.7881 H   0  0  0  0  0  0
  -27.7048  -14.2535   19.5771 H   0  0  0  0  0  0
  -28.6912  -11.9447   21.3274 H   0  0  0  0  0  0
  -28.4586  -13.5685   21.8829 H   0  0  0  0  0  0
  -25.2772   -9.5667   22.4749 H   0  0  0  0  0  0
  -23.9991   -7.4636   22.7475 H   0  0  0  0  0  0
  -21.0823   -8.8793   19.8971 H   0  0  0  0  0  0
  -22.3700  -10.9682   19.6165 H   0  0  0  0  0  0
  -21.2033   -7.6154   23.9721 H   0  0  0  0  0  0
  -21.1460   -6.0522   25.9073 H   0  0  0  0  0  0
  -22.0608   -2.7604   23.2860 H   0  0  0  0  0  0
  -22.4124  -11.9922   22.4793 H   0  0  0  0  0  0
  -21.1137  -13.1294   22.2605 H   0  0  0  0  0  0
  -24.6712  -15.8456   20.5257 H   0  0  0  0  0  0
  -26.2882  -15.6259   20.0880 H   0  0  0  0  0  0
  -26.7138  -32.5500   23.1150 H   0  0  0  0  0  0
  -25.0062  -33.9765   25.0460 H   0  0  0  0  0  0
  -22.6967  -31.3094   21.4131 H   0  0  0  0  0  0
  -23.3742  -35.9652   23.3288 H   0  0  0  0  0  0
  -24.3585  -36.8931   22.2051 H   0  0  0  0  0  0
  -23.7248  -37.6519   23.6650 H   0  0  0  0  0  0
  -26.0637  -31.5860   20.6020 H   0  0  0  0  0  0
  -26.8244  -30.8637   21.9912 H   0  0  0  0  0  0
  -28.0992  -29.0653   21.1557 H   0  0  0  0  0  0
  -25.9540  -25.9499   19.0361 H   0  0  0  0  0  0
  -23.9565  -27.2931   19.0560 H   0  0  0  0  0  0
  -23.7281  -30.6044   19.4075 H   0  0  0  0  0  0
  -22.7348  -29.2542   19.8646 H   0  0  0  0  0  0
  -25.1280  -36.1961   25.0826 H   0  0  0  0  0  0
  -20.9961  -28.3240   24.1430 H   0  0  0  0  0  0
  -20.5658  -26.2290   23.3608 H   0  0  0  0  0  0
  -21.6645  -26.7426   22.1227 H   0  0  0  0  0  0
  -19.6915  -25.6292   21.1233 H   0  0  0  0  0  0
  -19.6695  -27.3193   20.6743 H   0  0  0  0  0  0
  -17.4203  -26.6667   21.4011 H   0  0  0  0  0  0
  -18.0319  -26.0055   22.9006 H   0  0  0  0  0  0
  -19.7932  -30.7244   24.2294 H   0  0  0  0  0  0
  -17.5012  -31.6257   24.5162 H   0  0  0  0  0  0
  -15.5347  -30.2985   23.7638 H   0  0  0  0  0  0
  -15.8672  -28.0817   22.7053 H   0  0  0  0  0  0
  -24.5894  -30.7092   25.7836 H   0  0  0  0  0  0
  -24.8947  -32.2909   26.4926 H   0  0  0  0  0  0
  -25.8085  -30.8911   27.0242 H   0  0  0  0  0  0
  -26.2835  -29.6795   24.1175 H   0  0  0  0  0  0
  -27.4029  -29.7266   25.4606 H   0  0  0  0  0  0
  -27.8693  -30.4328   23.9304 H   0  0  0  0  0  0
  -27.2680  -33.3608   26.2081 H   0  0  0  0  0  0
  -28.3839  -32.6894   25.0274 H   0  0  0  0  0  0
  -28.0752  -31.8421   26.5356 H   0  0  0  0  0  0
  -28.2591  -38.0114   24.7530 H   0  0  0  0  0  0
  -28.1106  -36.2651   24.6221 H   0  0  0  0  0  0
  -27.2319  -37.1376   25.8854 H   0  0  0  0  0  0
  -20.9326  -29.8775   21.6942 H   0  0  0  0  0  0
  -26.0171  -38.2865   24.1438 H   0  0  0  0  0  0
  -30.1055  -24.0036   20.1631 H   0  0  0  0  0  0
  -29.0679  -24.5914   21.4272 H   0  0  0  0  0  0
  -27.7340  -25.0704   18.8537 H   0  0  0  0  0  0
  -29.3544  -25.5456   18.7082 H   0  0  0  0  0  0
  -29.0501  -15.1262   21.4995 H   0  0  0  0  0  0
  -29.8712  -21.7542   20.5462 H   0  0  0  0  0  0
  1 25  1  0  0  0
  1 30  2  0  0  0
  1 79  1  0  0  0
  2  3  1  0  0  0
  2 25  1  0  0  0
  2 86  1  0  0  0
  2 87  1  0  0  0
  3  4  1  0  0  0
  3 88  1  0  0  0
  3 89  1  0  0  0
  4  5  1  0  0  0
  4 90  1  0  0  0
  4 91  1  0  0  0
  5  6  1  0  0  0
  5 26  1  0  0  0
  5 92  1  0  0  0
  6 25  1  0  0  0
  6 93  1  0  0  0
  6 94  1  0  0  0
  7  8  2  0  0  0
  7 26  1  0  0  0
  7 29  1  0  0  0
  8  9  1  0  0  0
  8 22  1  0  0  0
  9 10  1  0  0  0
  9 27  2  0  0  0
 10 11  2  0  0  0
 10 15  1  0  0  0
 11 12  1  0  0  0
 11 95  1  0  0  0
 12 13  2  0  0  0
 12 96  1  0  0  0
 13 14  1  0  0  0
 13 31  1  0  0  0
 14 15  2  0  0  0
 14 97  1  0  0  0
 15 98  1  0  0  0
 16 17  2  0  0  0
 16 21  1  0  0  0
 16 31  1  0  0  0
 17 18  1  0  0  0
 17 99  1  0  0  0
 18 19  2  0  0  0
 18100  1  0  0  0
 19 20  1  0  0  0
 19 24  1  0  0  0
 20 21  2  0  0  0
 20101  1  0  0  0
 21 23  1  0  0  0
 22 28  1  0  0  0
 22 32  2  0  0  0
 26 27  1  0  0  0
 28102  1  0  0  0
 28103  1  0  0  0
 29104  1  0  0  0
 29105  1  0  0  0
 33 34  1  0  0  0
 33 66  1  0  0  0
 33 70  2  0  0  0
 34 36  1  0  0  0
 34 59  1  0  0  0
 34106  1  0  0  0
 35 44  2  0  0  0
 35 45  1  0  0  0
 35 68  1  0  0  0
 36 56  1  0  0  0
 36107  1  0  0  0
 37 39  1  0  0  0
 37 47  1  0  0  0
 37 66  1  0  0  0
 37108  1  0  0  0
 38 43  2  0  0  0
 38 46  1  0  0  0
 38 47  1  0  0  0
 39 64  1  0  0  0
 39 67  2  0  0  0
 40 52  1  0  0  0
 40 53  2  0  0  0
 40 58  1  0  0  0
 41109  1  0  0  0
 41110  1  0  0  0
 41111  1  0  0  0
 41 48  1  0  0  0
 42 43  1  0  0  0
 42 66  1  0  0  0
 42112  1  0  0  0
 42113  1  0  0  0
 43 44  1  0  0  0
 44114  1  0  0  0
 45 46  2  0  0  0
 45115  1  0  0  0
 46116  1  0  0  0
 47117  1  0  0  0
 47118  1  0  0  0
 48 56  1  0  0  0
 48 65  1  0  0  0
 48119  1  0  0  0
 49 50  1  0  0  0
 49 53  1  0  0  0
 49 64  1  0  0  0
 49120  1  0  0  0
 50 51  1  0  0  0
 50121  1  0  0  0
 50122  1  0  0  0
 51 52  1  0  0  0
 51123  1  0  0  0
 51124  1  0  0  0
 52125  1  0  0  0
 52126  1  0  0  0
 53 54  1  0  0  0
 54 55  2  0  0  0
 54127  1  0  0  0
 55 57  1  0  0  0
 55128  1  0  0  0
 56 69  2  0  0  0
 57 58  2  0  0  0
 57129  1  0  0  0
 58130  1  0  0  0
 59 60  1  0  0  0
 59 61  1  0  0  0
 59 62  1  0  0  0
 60131  1  0  0  0
 60132  1  0  0  0
 60133  1  0  0  0
 61134  1  0  0  0
 61135  1  0  0  0
 61136  1  0  0  0
 62137  1  0  0  0
 62138  1  0  0  0
 62139  1  0  0  0
 63 65  1  0  0  0
 63140  1  0  0  0
 63141  1  0  0  0
 63142  1  0  0  0
 64143  1  0  0  0
 65144  1  0  0  0
 68 78  1  0  0  0
 71 72  1  0  0  0
 71 73  2  0  0  0
 71 83  1  0  0  0
 72 74  2  0  0  0
 72 84  1  0  0  0
 73 75  1  0  0  0
 73 85  1  0  0  0
 74 79  1  0  0  0
 74 85  1  0  0  0
 75 80  1  0  0  0
 75 81  2  0  0  0
 76 77  1  0  0  0
 76 80  1  0  0  0
 76 82  2  0  0  0
 77 78  1  0  0  0
 77145  1  0  0  0
 77146  1  0  0  0
 78147  1  0  0  0
 78148  1  0  0  0
 79149  1  0  0  0
 80150  1  0  0  0
M  ISO  4   1 100  68 101  78 101  79 100
M  END
> <chiral flag>
0

> <version>
0

> <s_m_source_file>
/data/baiqing/PycharmProjects/Reinvent-master-3.2/result/LINK_invent/BTK/process_docking_weight1_custom_product_contain_oxygen_bond_distance_aromatic_linkinvent_7_9_3/rearranged_h_0173.sdf

> <i_m_source_file_index>
25

> <r_mmod_Potential_Energy-OPLS-2005>
-204.880615234375

> <r_mmod_Stretch_Energy-OPLS-2005>
45.0807266235352

> <r_mmod_Bend_Energy-OPLS-2005>
127.505584716797

> <r_mmod_Torsional_Energy-OPLS-2005>
221.061798095703

> <r_mmod_Improper_Torsional_Energy-OPLS-2005>
4.20000219345093

> <r_mmod_Van_der_Waal_Energy-OPLS-2005>
140.153854370117

> <r_mmod_Electrostatic_Energy-OPLS-2005>
-495.227783203125

> <r_mmod_Solvation_Energy-OPLS-2005>
-264.999603271484

> <b_mmod_Minimization_Converged-OPLS-2005>
0

> <r_mmod_RMS_Derivative-OPLS-2005>
1.23309779167175

$$$$
25
                    3D
 Structure written by MMmdl.
157165  0  0  1  0            999 V2000
  -30.7204  -14.4819   20.5704 C   0  0  0  0  0  0
  -30.4184  -12.3117   19.4329 C   0  0  0  0  0  0
  -29.4945  -12.5038   18.2143 C   0  0  0  0  0  0
  -28.0178  -12.3606   18.6276 C   0  0  0  0  0  0
  -27.6604  -13.2122   19.8739 C   0  0  2  0  0  0
  -28.7027  -13.0182   20.9996 C   0  0  0  0  0  0
  -25.2584  -13.8188   20.5707 C   0  0  0  0  0  0
  -24.1836  -13.0449   20.9178 C   0  0  0  0  0  0
  -24.6399  -11.6924   20.8742 C   0  0  0  0  0  0
  -23.9073  -10.4299   21.0411 C   0  0  0  0  0  0
  -24.3622   -9.4220   21.9192 C   0  0  0  0  0  0
  -23.6293   -8.2253   22.0756 C   0  0  0  0  0  0
  -22.4280   -8.0295   21.3541 C   0  0  0  0  0  0
  -21.9917   -9.0267   20.4643 C   0  0  0  0  0  0
  -22.7249  -10.2147   20.3059 C   0  0  0  0  0  0
  -21.6854   -6.0747   22.5283 C   0  0  0  0  0  0
  -21.4013   -6.5647   23.8219 C   0  0  0  0  0  0
  -21.3658   -5.6798   24.9180 C   0  0  0  0  0  0
  -21.6049   -4.3059   24.7225 C   0  0  0  0  0  0
  -21.8815   -3.8151   23.4344 C   0  0  0  0  0  0
  -21.9188   -4.6970   22.3405 C   0  0  0  0  0  0
  -22.7855  -13.5241   21.1844 C   0  0  0  0  0  0
  -22.1658   -4.2159   21.0982 F   0  0  0  0  0  0
  -21.5629   -3.4544   25.7735 F   0  0  0  0  0  0
  -30.0336  -13.3125   20.4418 N   0  0  0  0  0  0
  -26.3019  -12.9363   20.3376 N   0  0  0  0  0  0
  -25.9331  -11.6516   20.5783 N   0  0  0  0  0  0
  -22.0499  -12.8221   22.0395 N   0  0  0  0  0  0
  -25.4309  -15.1917   20.4153 N   0  0  0  0  0  0
  -31.8545  -14.6317   20.1090 O   0  0  0  0  0  0
  -21.6638   -6.8892   21.4247 O   0  0  0  0  0  0
  -22.3536  -14.5546   20.6706 O   0  0  0  0  0  0
  -24.6144  -31.8671   23.2101 C   0  0  0  0  0  0
  -25.9042  -32.4819   23.8387 C   0  0  1  0  0  0
  -27.2289  -27.4244   20.1021 C   0  0  0  0  0  0
  -25.5889  -33.8614   24.2310 N   0  0  0  0  0  0
  -23.4029  -30.4909   21.5519 C   0  0  2  0  0  0
  -24.8494  -28.9600   20.1102 C   0  0  0  0  0  0
  -22.7418  -29.4643   22.4992 C   0  0  0  0  0  0
  -18.0268  -28.1355   22.8482 C   0  0  0  0  0  0
  -24.1481  -36.7317   23.2639 C   0  0  0  0  0  0
  -25.9340  -30.8309   21.3654 C   0  0  0  0  0  0
  -26.0118  -29.4666   20.7073 C   0  0  0  0  0  0
  -27.2083  -28.7086   20.6948 C   0  0  0  0  0  0
  -26.0553  -26.9453   19.4807 C   0  0  0  0  0  0
  -24.8679  -27.6997   19.4896 C   0  0  0  0  0  0
  -23.6097  -29.8237   20.1660 C   0  0  0  0  0  0
  -25.4105  -36.3106   24.0333 C   0  0  1  0  0  0
  -20.5857  -28.3653   23.1300 C   0  0  2  0  0  0
  -20.6747  -26.9391   22.5401 C   0  0  0  0  0  0
  -19.5736  -26.6370   21.5189 C   0  0  0  0  0  0
  -18.1916  -26.7902   22.1601 C   0  0  0  0  0  0
  -19.1514  -28.8823   23.2887 C   0  0  0  0  0  0
  -18.9444  -30.1425   23.8908 C   0  0  0  0  0  0
  -17.6448  -30.6569   24.0557 C   0  0  0  0  0  0
  -25.9029  -34.9476   23.5124 C   0  0  0  0  0  0
  -16.5341  -29.9058   23.6335 C   0  0  0  0  0  0
  -16.7254  -28.6469   23.0364 C   0  0  0  0  0  0
  -26.4474  -31.6600   25.0723 C   0  0  0  0  0  0
  -25.3746  -31.3701   26.1474 C   0  0  0  0  0  0
  -27.0322  -30.3044   24.6120 C   0  0  0  0  0  0
  -27.6045  -32.4328   25.7487 C   0  0  0  0  0  0
  -27.5587  -37.1805   24.8461 C   0  0  0  0  0  0
  -21.4145  -29.3018   22.3721 N   0  0  0  0  0  0
  -26.4295  -37.3781   23.9409 N   0  0  0  0  0  0
  -24.6689  -31.0761   22.1007 N   0  0  0  0  0  0
  -23.4198  -28.8190   23.3029 O   0  0  0  0  0  0
  -28.3681  -26.6409   20.1264 O   0  0  0  0  0  0
  -26.5595  -34.8937   22.4692 O   0  0  0  0  0  0
  -23.5340  -32.1438   23.7499 O   0  0  0  0  0  0
  -32.0721  -18.6668   21.5019 C   0  0  0  0  0  0
  -31.1137  -19.6513   21.1909 C   0  0  0  0  0  0
  -31.7327  -17.2998   21.4655 C   0  0  0  0  0  0
  -29.7964  -19.2794   20.8412 C   0  0  0  0  0  0
  -30.4229  -16.8976   21.1162 C   0  0  0  0  0  0
  -29.4585  -17.8965   20.8236 C   0  0  0  0  0  0
  -28.3468  -22.7823   20.1989 C   0  0  0  0  0  0
  -28.6947  -25.4639   22.1994 C   0  0  0  0  0  0
  -28.7300  -20.3326   20.4999 C   0  0  0  0  0  0
  -28.9351  -24.1983   19.9712 C   0  0  0  0  0  0
  -28.2075  -25.3416   20.7471 C   0  0  2  0  0  0
  -30.0317  -15.5178   21.0941 N   0  0  0  0  0  0
  -29.1801  -21.7320   20.3472 N   0  0  0  0  0  0
  -27.1231  -22.6282   20.2064 O   0  0  0  0  0  0
  -28.1948  -17.5153   20.5123 F   0  0  0  0  0  0
  -31.4637  -12.3978   19.1315 H   0  0  0  0  0  0
  -30.3100  -11.3062   19.8429 H   0  0  0  0  0  0
  -29.7379  -11.7796   17.4363 H   0  0  0  0  0  0
  -29.6619  -13.4898   17.7786 H   0  0  0  0  0  0
  -27.8352  -11.3066   18.8380 H   0  0  0  0  0  0
  -27.3651  -12.6217   17.7945 H   0  0  0  0  0  0
  -27.6977  -14.2565   19.5611 H   0  0  0  0  0  0
  -28.6791  -11.9921   21.3693 H   0  0  0  0  0  0
  -28.4646  -13.6452   21.8609 H   0  0  0  0  0  0
  -25.2764   -9.5692   22.4772 H   0  0  0  0  0  0
  -24.0001   -7.4643   22.7481 H   0  0  0  0  0  0
  -21.0854   -8.8794   19.8946 H   0  0  0  0  0  0
  -22.3715  -10.9690   19.6167 H   0  0  0  0  0  0
  -21.2009   -7.6157   23.9722 H   0  0  0  0  0  0
  -21.1487   -6.0530   25.9086 H   0  0  0  0  0  0
  -22.0594   -2.7613   23.2841 H   0  0  0  0  0  0
  -22.4093  -11.9862   22.4753 H   0  0  0  0  0  0
  -21.1126  -13.1254   22.2614 H   0  0  0  0  0  0
  -24.6681  -15.8485   20.5411 H   0  0  0  0  0  0
  -26.2949  -15.6415   20.1379 H   0  0  0  0  0  0
  -26.7125  -32.5521   23.1157 H   0  0  0  0  0  0
  -25.0045  -33.9762   25.0462 H   0  0  0  0  0  0
  -22.6919  -31.3082   21.4159 H   0  0  0  0  0  0
  -23.3736  -35.9650   23.3284 H   0  0  0  0  0  0
  -24.3578  -36.8961   22.2061 H   0  0  0  0  0  0
  -23.7233  -37.6521   23.6664 H   0  0  0  0  0  0
  -26.0469  -31.5988   20.6001 H   0  0  0  0  0  0
  -26.8213  -30.8825   21.9847 H   0  0  0  0  0  0
  -28.1057  -29.0934   21.1611 H   0  0  0  0  0  0
  -26.0551  -25.9791   18.9952 H   0  0  0  0  0  0
  -23.9766  -27.3042   19.0216 H   0  0  0  0  0  0
  -23.7121  -30.5996   19.4065 H   0  0  0  0  0  0
  -22.7339  -29.2399   19.8765 H   0  0  0  0  0  0
  -25.1275  -36.1985   25.0817 H   0  0  0  0  0  0
  -20.9945  -28.3215   24.1425 H   0  0  0  0  0  0
  -20.5638  -26.2258   23.3584 H   0  0  0  0  0  0
  -21.6629  -26.7415   22.1217 H   0  0  0  0  0  0
  -19.6895  -25.6278   21.1206 H   0  0  0  0  0  0
  -19.6672  -27.3195   20.6726 H   0  0  0  0  0  0
  -17.4188  -26.6660   21.4000 H   0  0  0  0  0  0
  -18.0316  -26.0033   22.8988 H   0  0  0  0  0  0
  -19.7933  -30.7211   24.2297 H   0  0  0  0  0  0
  -17.5019  -31.6261   24.5144 H   0  0  0  0  0  0
  -15.5348  -30.2962   23.7636 H   0  0  0  0  0  0
  -15.8653  -28.0774   22.7085 H   0  0  0  0  0  0
  -24.5916  -30.7046   25.7810 H   0  0  0  0  0  0
  -24.8924  -32.2846   26.4935 H   0  0  0  0  0  0
  -25.8101  -30.8867   27.0225 H   0  0  0  0  0  0
  -26.2878  -29.6780   24.1199 H   0  0  0  0  0  0
  -27.4113  -29.7304   25.4583 H   0  0  0  0  0  0
  -27.8691  -30.4345   23.9260 H   0  0  0  0  0  0
  -27.2678  -33.3638   26.2063 H   0  0  0  0  0  0
  -28.3861  -32.6887   25.0314 H   0  0  0  0  0  0
  -28.0721  -31.8463   26.5409 H   0  0  0  0  0  0
  -28.2589  -38.0124   24.7537 H   0  0  0  0  0  0
  -28.1098  -36.2649   24.6240 H   0  0  0  0  0  0
  -27.2302  -37.1424   25.8866 H   0  0  0  0  0  0
  -20.9299  -29.8774   21.6981 H   0  0  0  0  0  0
  -26.0186  -38.2854   24.1423 H   0  0  0  0  0  0
  -33.0753  -18.9631   21.7754 H   0  0  0  0  0  0
  -31.4045  -20.6913   21.2357 H   0  0  0  0  0  0
  -32.4894  -16.5697   21.7134 H   0  0  0  0  0  0
  -28.1211  -26.2135   22.7466 H   0  0  0  0  0  0
  -28.5959  -24.5167   22.7315 H   0  0  0  0  0  0
  -29.7436  -25.7581   22.2391 H   0  0  0  0  0  0
  -27.9650  -20.2868   21.2755 H   0  0  0  0  0  0
  -28.2416  -20.0269   19.5731 H   0  0  0  0  0  0
  -28.8495  -24.3901   18.9009 H   0  0  0  0  0  0
  -30.0039  -24.2080   20.1891 H   0  0  0  0  0  0
  -27.1503  -25.0818   20.8088 H   0  0  0  0  0  0
  -29.0634  -15.3352   21.3027 H   0  0  0  0  0  0
  -30.1757  -21.8987   20.3000 H   0  0  0  0  0  0
  1 25  1  0  0  0
  1 30  2  0  0  0
  1 82  1  0  0  0
  2  3  1  0  0  0
  2 25  1  0  0  0
  2 86  1  0  0  0
  2 87  1  0  0  0
  3  4  1  0  0  0
  3 88  1  0  0  0
  3 89  1  0  0  0
  4  5  1  0  0  0
  4 90  1  0  0  0
  4 91  1  0  0  0
  5  6  1  0  0  0
  5 26  1  0  0  0
  5 92  1  0  0  0
  6 25  1  0  0  0
  6 93  1  0  0  0
  6 94  1  0  0  0
  7  8  2  0  0  0
  7 26  1  0  0  0
  7 29  1  0  0  0
  8  9  1  0  0  0
  8 22  1  0  0  0
  9 10  1  0  0  0
  9 27  2  0  0  0
 10 11  2  0  0  0
 10 15  1  0  0  0
 11 12  1  0  0  0
 11 95  1  0  0  0
 12 13  2  0  0  0
 12 96  1  0  0  0
 13 14  1  0  0  0
 13 31  1  0  0  0
 14 15  2  0  0  0
 14 97  1  0  0  0
 15 98  1  0  0  0
 16 17  2  0  0  0
 16 21  1  0  0  0
 16 31  1  0  0  0
 17 18  1  0  0  0
 17 99  1  0  0  0
 18 19  2  0  0  0
 18100  1  0  0  0
 19 20  1  0  0  0
 19 24  1  0  0  0
 20 21  2  0  0  0
 20101  1  0  0  0
 21 23  1  0  0  0
 22 28  1  0  0  0
 22 32  2  0  0  0
 26 27  1  0  0  0
 28102  1  0  0  0
 28103  1  0  0  0
 29104  1  0  0  0
 29105  1  0  0  0
 33 34  1  0  0  0
 33 66  1  0  0  0
 33 70  2  0  0  0
 34 36  1  0  0  0
 34 59  1  0  0  0
 34106  1  0  0  0
 35 44  2  0  0  0
 35 45  1  0  0  0
 35 68  1  0  0  0
 36 56  1  0  0  0
 36107  1  0  0  0
 37 39  1  0  0  0
 37 47  1  0  0  0
 37 66  1  0  0  0
 37108  1  0  0  0
 38 43  2  0  0  0
 38 46  1  0  0  0
 38 47  1  0  0  0
 39 64  1  0  0  0
 39 67  2  0  0  0
 40 52  1  0  0  0
 40 53  2  0  0  0
 40 58  1  0  0  0
 41109  1  0  0  0
 41110  1  0  0  0
 41111  1  0  0  0
 41 48  1  0  0  0
 42 43  1  0  0  0
 42 66  1  0  0  0
 42112  1  0  0  0
 42113  1  0  0  0
 43 44  1  0  0  0
 44114  1  0  0  0
 45 46  2  0  0  0
 45115  1  0  0  0
 46116  1  0  0  0
 47117  1  0  0  0
 47118  1  0  0  0
 48 56  1  0  0  0
 48 65  1  0  0  0
 48119  1  0  0  0
 49 50  1  0  0  0
 49 53  1  0  0  0
 49 64  1  0  0  0
 49120  1  0  0  0
 50 51  1  0  0  0
 50121  1  0  0  0
 50122  1  0  0  0
 51 52  1  0  0  0
 51123  1  0  0  0
 51124  1  0  0  0
 52125  1  0  0  0
 52126  1  0  0  0
 53 54  1  0  0  0
 54 55  2  0  0  0
 54127  1  0  0  0
 55 57  1  0  0  0
 55128  1  0  0  0
 56 69  2  0  0  0
 57 58  2  0  0  0
 57129  1  0  0  0
 58130  1  0  0  0
 59 60  1  0  0  0
 59 61  1  0  0  0
 59 62  1  0  0  0
 60131  1  0  0  0
 60132  1  0  0  0
 60133  1  0  0  0
 61134  1  0  0  0
 61135  1  0  0  0
 61136  1  0  0  0
 62137  1  0  0  0
 62138  1  0  0  0
 62139  1  0  0  0
 63 65  1  0  0  0
 63140  1  0  0  0
 63141  1  0  0  0
 63142  1  0  0  0
 64143  1  0  0  0
 65144  1  0  0  0
 68 81  1  0  0  0
 71 72  2  0  0  0
 71 73  1  0  0  0
 71145  1  0  0  0
 72 74  1  0  0  0
 72146  1  0  0  0
 73 75  2  0  0  0
 73147  1  0  0  0
 74 76  2  0  0  0
 74 79  1  0  0  0
 75 76  1  0  0  0
 75 82  1  0  0  0
 76 85  1  0  0  0
 77 80  1  0  0  0
 77 83  1  0  0  0
 77 84  2  0  0  0
 78148  1  0  0  0
 78149  1  0  0  0
 78150  1  0  0  0
 78 81  1  0  0  0
 79 83  1  0  0  0
 79151  1  0  0  0
 79152  1  0  0  0
 80 81  1  0  0  0
 80153  1  0  0  0
 80154  1  0  0  0
 81155  1  0  0  0
 82156  1  0  0  0
 83157  1  0  0  0
M  ISO  4   1 100  68 101  81 101  82 100
M  END
> <chiral flag>
0

> <version>
0

> <s_m_source_file>
/data/baiqing/PycharmProjects/Reinvent-master-3.2/result/LINK_invent/BTK/process_docking_weight1_custom_product_contain_oxygen_bond_distance_aromatic_linkinvent_7_9_3/rearranged_h_0173.sdf

> <i_m_source_file_index>
26

> <r_mmod_Potential_Energy-OPLS-2005>
-142.390396118164

> <r_mmod_Stretch_Energy-OPLS-2005>
41.8373527526855

> <r_mmod_Bend_Energy-OPLS-2005>
93.8667678833008

> <r_mmod_Torsional_Energy-OPLS-2005>
224.134902954102

> <r_mmod_Improper_Torsional_Energy-OPLS-2005>
3.84562540054321

> <r_mmod_Van_der_Waal_Energy-OPLS-2005>
154.316879272461

> <r_mmod_Electrostatic_Energy-OPLS-2005>
-455.860168457031

> <r_mmod_Solvation_Energy-OPLS-2005>
-220.213989257812

> <b_mmod_Minimization_Converged-OPLS-2005>
0

> <r_mmod_RMS_Derivative-OPLS-2005>
2.11650013923645

$$$$
26
                    3D
 Structure written by MMmdl.
160168  0  0  1  0            999 V2000
  -30.6959  -14.4825   20.6009 C   0  0  0  0  0  0
  -30.4365  -12.3365   19.4150 C   0  0  0  0  0  0
  -29.5078  -12.5402   18.2008 C   0  0  0  0  0  0
  -28.0254  -12.3924   18.6095 C   0  0  0  0  0  0
  -27.6645  -13.2091   19.8828 C   0  0  2  0  0  0
  -28.7096  -12.9729   20.9958 C   0  0  0  0  0  0
  -25.2585  -13.8119   20.5649 C   0  0  0  0  0  0
  -24.1839  -13.0401   20.9212 C   0  0  0  0  0  0
  -24.6394  -11.6885   20.8748 C   0  0  0  0  0  0
  -23.9042  -10.4284   21.0425 C   0  0  0  0  0  0
  -24.3595   -9.4192   21.9188 C   0  0  0  0  0  0
  -23.6251   -8.2245   22.0768 C   0  0  0  0  0  0
  -22.4244   -8.0280   21.3542 C   0  0  0  0  0  0
  -21.9886   -9.0267   20.4659 C   0  0  0  0  0  0
  -22.7229  -10.2132   20.3059 C   0  0  0  0  0  0
  -21.6852   -6.0727   22.5280 C   0  0  0  0  0  0
  -21.4015   -6.5617   23.8219 C   0  0  0  0  0  0
  -21.3668   -5.6771   24.9178 C   0  0  0  0  0  0
  -21.6039   -4.3031   24.7228 C   0  0  0  0  0  0
  -21.8813   -3.8126   23.4343 C   0  0  0  0  0  0
  -21.9188   -4.6953   22.3403 C   0  0  0  0  0  0
  -22.7853  -13.5196   21.1851 C   0  0  0  0  0  0
  -22.1653   -4.2124   21.0990 F   0  0  0  0  0  0
  -21.5644   -3.4526   25.7751 F   0  0  0  0  0  0
  -30.0343  -13.3081   20.4386 N   0  0  0  0  0  0
  -26.3046  -12.9303   20.3356 N   0  0  0  0  0  0
  -25.9332  -11.6453   20.5757 N   0  0  0  0  0  0
  -22.0476  -12.8229   22.0430 N   0  0  0  0  0  0
  -25.4188  -15.1839   20.3968 N   0  0  0  0  0  0
  -31.8387  -14.6846   20.1849 O   0  0  0  0  0  0
  -21.6610   -6.8868   21.4237 O   0  0  0  0  0  0
  -22.3560  -14.5489   20.6669 O   0  0  0  0  0  0
  -24.6158  -31.8649   23.2113 C   0  0  0  0  0  0
  -25.9044  -32.4805   23.8397 C   0  0  1  0  0  0
  -27.2425  -27.4363   20.0877 C   0  0  0  0  0  0
  -25.5892  -33.8619   24.2339 N   0  0  0  0  0  0
  -23.4028  -30.4892   21.5508 C   0  0  2  0  0  0
  -24.8518  -28.9547   20.1171 C   0  0  0  0  0  0
  -22.7422  -29.4672   22.5042 C   0  0  0  0  0  0
  -18.0278  -28.1321   22.8573 C   0  0  0  0  0  0
  -24.1486  -36.7317   23.2643 C   0  0  0  0  0  0
  -25.9320  -30.8345   21.3596 C   0  0  0  0  0  0
  -26.0113  -29.4681   20.7087 C   0  0  0  0  0  0
  -27.2105  -28.7181   20.6848 C   0  0  0  0  0  0
  -26.0604  -26.9339   19.4994 C   0  0  0  0  0  0
  -24.8732  -27.6895   19.5044 C   0  0  0  0  0  0
  -23.6120  -29.8170   20.1672 C   0  0  0  0  0  0
  -25.4103  -36.3115   24.0353 C   0  0  1  0  0  0
  -20.5873  -28.3653   23.1253 C   0  0  2  0  0  0
  -20.6812  -26.9549   22.4975 C   0  0  0  0  0  0
  -19.5616  -26.6668   21.4953 C   0  0  0  0  0  0
  -18.1977  -26.7856   22.1766 C   0  0  0  0  0  0
  -19.1538  -28.8805   23.2926 C   0  0  0  0  0  0
  -18.9448  -30.1439   23.8908 C   0  0  0  0  0  0
  -17.6465  -30.6549   24.0559 C   0  0  0  0  0  0
  -25.9036  -34.9460   23.5156 C   0  0  0  0  0  0
  -16.5348  -29.9035   23.6309 C   0  0  0  0  0  0
  -16.7278  -28.6444   23.0385 C   0  0  0  0  0  0
  -26.4476  -31.6569   25.0703 C   0  0  0  0  0  0
  -25.3775  -31.3626   26.1474 C   0  0  0  0  0  0
  -27.0316  -30.3027   24.6023 C   0  0  0  0  0  0
  -27.6032  -32.4302   25.7464 C   0  0  0  0  0  0
  -27.5576  -37.1812   24.8462 C   0  0  0  0  0  0
  -21.4132  -29.3119   22.3810 N   0  0  0  0  0  0
  -26.4279  -37.3792   23.9427 N   0  0  0  0  0  0
  -24.6689  -31.0790   22.0972 N   0  0  0  0  0  0
  -23.4174  -28.8178   23.3055 O   0  0  0  0  0  0
  -28.4291  -26.7285   20.0627 O   0  0  0  0  0  0
  -26.5575  -34.8879   22.4700 O   0  0  0  0  0  0
  -23.5369  -32.1382   23.7513 O   0  0  0  0  0  0
  -31.4965  -17.5968   23.7121 C   0  0  0  0  0  0
  -30.9388  -18.8329   23.3699 C   0  0  0  0  0  0
  -30.3713  -16.6397   21.7799 C   0  0  0  0  0  0
  -31.1855  -16.4827   22.9205 C   0  0  0  0  0  0
  -29.9111  -17.9496   21.4758 C   0  0  0  0  0  0
  -29.0102  -22.0400   19.4081 C   0  0  0  0  0  0
  -28.7384  -20.5552   19.0555 C   0  0  0  0  0  0
  -28.3775  -24.4769   19.0117 C   0  0  0  0  0  0
  -27.6103  -17.9599   20.4270 C   0  0  0  0  0  0
  -27.8763  -23.0308   19.1052 C   0  0  0  0  0  0
  -28.3801  -25.3092   20.3072 C   0  0  0  0  0  0
  -29.0938  -18.3032   20.2218 C   0  0  2  0  0  0
  -30.1617  -19.0059   22.2880 N   0  0  0  0  0  0
  -29.9304  -15.4888   21.0627 N   0  0  0  0  0  0
  -29.2588  -19.7398   19.9734 N   0  0  0  0  0  0
  -30.0629  -22.3878   19.9628 O   0  0  0  0  0  0
  -28.0867  -20.1904   18.0739 O   0  0  0  0  0  0
  -28.7466  -24.9509   17.9323 O   0  0  0  0  0  0
  -31.6372  -15.2613   23.2938 F   0  0  0  0  0  0
  -31.4837  -12.4456   19.1329 H   0  0  0  0  0  0
  -30.3398  -11.3248   19.8071 H   0  0  0  0  0  0
  -29.7553  -11.8173   17.4236 H   0  0  0  0  0  0
  -29.6756  -13.5272   17.7626 H   0  0  0  0  0  0
  -27.8317  -11.3328   18.7646 H   0  0  0  0  0  0
  -27.3792  -12.6984   17.7844 H   0  0  0  0  0  0
  -27.7054  -14.2592   19.6026 H   0  0  0  0  0  0
  -28.7001  -11.9258   21.3044 H   0  0  0  0  0  0
  -28.4717  -13.5367   21.9004 H   0  0  0  0  0  0
  -25.2743   -9.5658   22.4751 H   0  0  0  0  0  0
  -23.9978   -7.4620   22.7453 H   0  0  0  0  0  0
  -21.0845   -8.8758   19.8926 H   0  0  0  0  0  0
  -22.3693  -10.9668   19.6159 H   0  0  0  0  0  0
  -21.2000   -7.6125   23.9714 H   0  0  0  0  0  0
  -21.1504   -6.0504   25.9082 H   0  0  0  0  0  0
  -22.0580   -2.7583   23.2859 H   0  0  0  0  0  0
  -22.4072  -11.9895   22.4837 H   0  0  0  0  0  0
  -21.1086  -13.1264   22.2557 H   0  0  0  0  0  0
  -24.6261  -15.8108   20.4888 H   0  0  0  0  0  0
  -26.2154  -15.6210   19.9551 H   0  0  0  0  0  0
  -26.7092  -32.5509   23.1143 H   0  0  0  0  0  0
  -25.0066  -33.9776   25.0508 H   0  0  0  0  0  0
  -22.6929  -31.3083   21.4120 H   0  0  0  0  0  0
  -23.3732  -35.9666   23.3314 H   0  0  0  0  0  0
  -24.3590  -36.8920   22.2056 H   0  0  0  0  0  0
  -23.7238  -37.6527   23.6646 H   0  0  0  0  0  0
  -26.0405  -31.6012   20.5921 H   0  0  0  0  0  0
  -26.8202  -30.8914   21.9748 H   0  0  0  0  0  0
  -28.1091  -29.1156   21.1361 H   0  0  0  0  0  0
  -26.0467  -25.9705   19.0156 H   0  0  0  0  0  0
  -23.9826  -27.2970   19.0344 H   0  0  0  0  0  0
  -23.7067  -30.5908   19.4045 H   0  0  0  0  0  0
  -22.7398  -29.2274   19.8804 H   0  0  0  0  0  0
  -25.1281  -36.1984   25.0847 H   0  0  0  0  0  0
  -21.0006  -28.2974   24.1340 H   0  0  0  0  0  0
  -20.6067  -26.2160   23.2939 H   0  0  0  0  0  0
  -21.6578  -26.7883   22.0387 H   0  0  0  0  0  0
  -19.6765  -25.6761   21.0603 H   0  0  0  0  0  0
  -19.6267  -27.3788   20.6714 H   0  0  0  0  0  0
  -17.4053  -26.6281   21.4446 H   0  0  0  0  0  0
  -18.0877  -26.0037   22.9293 H   0  0  0  0  0  0
  -19.7926  -30.7305   24.2197 H   0  0  0  0  0  0
  -17.4996  -31.6231   24.5157 H   0  0  0  0  0  0
  -15.5355  -30.2941   23.7648 H   0  0  0  0  0  0
  -15.8707  -28.0779   22.7040 H   0  0  0  0  0  0
  -24.5935  -30.6977   25.7826 H   0  0  0  0  0  0
  -24.8968  -32.2757   26.4996 H   0  0  0  0  0  0
  -25.8183  -30.8749   27.0181 H   0  0  0  0  0  0
  -26.2841  -29.6766   24.1117 H   0  0  0  0  0  0
  -27.4179  -29.7267   25.4444 H   0  0  0  0  0  0
  -27.8640  -30.4379   23.9107 H   0  0  0  0  0  0
  -27.2620  -33.3578   26.2070 H   0  0  0  0  0  0
  -28.3812  -32.6904   25.0280 H   0  0  0  0  0  0
  -28.0706  -31.8393   26.5344 H   0  0  0  0  0  0
  -28.2594  -38.0103   24.7528 H   0  0  0  0  0  0
  -28.1070  -36.2648   24.6284 H   0  0  0  0  0  0
  -27.2305  -37.1471   25.8858 H   0  0  0  0  0  0
  -20.9329  -29.8877   21.7058 H   0  0  0  0  0  0
  -26.0183  -38.2882   24.1395 H   0  0  0  0  0  0
  -32.1206  -17.4923   24.5859 H   0  0  0  0  0  0
  -31.1184  -19.7133   23.9706 H   0  0  0  0  0  0
  -27.5045  -16.9137   20.6970 H   0  0  0  0  0  0
  -27.0213  -18.1241   19.5263 H   0  0  0  0  0  0
  -27.1635  -18.5530   21.2227 H   0  0  0  0  0  0
  -27.1266  -22.9537   19.8925 H   0  0  0  0  0  0
  -27.3912  -22.7612   18.1680 H   0  0  0  0  0  0
  -29.2819  -25.0353   20.8567 H   0  0  0  0  0  0
  -27.5362  -25.0424   20.9428 H   0  0  0  0  0  0
  -29.4989  -17.7389   19.3766 H   0  0  0  0  0  0
  -28.9538  -15.2617   21.1539 H   0  0  0  0  0  0
  -29.7923  -20.1886   20.7094 H   0  0  0  0  0  0
  1 25  1  0  0  0
  1 30  2  0  0  0
  1 84  1  0  0  0
  2  3  1  0  0  0
  2 25  1  0  0  0
  2 90  1  0  0  0
  2 91  1  0  0  0
  3  4  1  0  0  0
  3 92  1  0  0  0
  3 93  1  0  0  0
  4  5  1  0  0  0
  4 94  1  0  0  0
  4 95  1  0  0  0
  5  6  1  0  0  0
  5 26  1  0  0  0
  5 96  1  0  0  0
  6 25  1  0  0  0
  6 97  1  0  0  0
  6 98  1  0  0  0
  7  8  2  0  0  0
  7 26  1  0  0  0
  7 29  1  0  0  0
  8  9  1  0  0  0
  8 22  1  0  0  0
  9 10  1  0  0  0
  9 27  2  0  0  0
 10 11  2  0  0  0
 10 15  1  0  0  0
 11 12  1  0  0  0
 11 99  1  0  0  0
 12 13  2  0  0  0
 12100  1  0  0  0
 13 14  1  0  0  0
 13 31  1  0  0  0
 14 15  2  0  0  0
 14101  1  0  0  0
 15102  1  0  0  0
 16 17  2  0  0  0
 16 21  1  0  0  0
 16 31  1  0  0  0
 17 18  1  0  0  0
 17103  1  0  0  0
 18 19  2  0  0  0
 18104  1  0  0  0
 19 20  1  0  0  0
 19 24  1  0  0  0
 20 21  2  0  0  0
 20105  1  0  0  0
 21 23  1  0  0  0
 22 28  1  0  0  0
 22 32  2  0  0  0
 26 27  1  0  0  0
 28106  1  0  0  0
 28107  1  0  0  0
 29108  1  0  0  0
 29109  1  0  0  0
 33 34  1  0  0  0
 33 66  1  0  0  0
 33 70  2  0  0  0
 34 36  1  0  0  0
 34 59  1  0  0  0
 34110  1  0  0  0
 35 44  2  0  0  0
 35 45  1  0  0  0
 35 68  1  0  0  0
 36 56  1  0  0  0
 36111  1  0  0  0
 37 39  1  0  0  0
 37 47  1  0  0  0
 37 66  1  0  0  0
 37112  1  0  0  0
 38 43  2  0  0  0
 38 46  1  0  0  0
 38 47  1  0  0  0
 39 64  1  0  0  0
 39 67  2  0  0  0
 40 52  1  0  0  0
 40 53  2  0  0  0
 40 58  1  0  0  0
 41113  1  0  0  0
 41114  1  0  0  0
 41115  1  0  0  0
 41 48  1  0  0  0
 42 43  1  0  0  0
 42 66  1  0  0  0
 42116  1  0  0  0
 42117  1  0  0  0
 43 44  1  0  0  0
 44118  1  0  0  0
 45 46  2  0  0  0
 45119  1  0  0  0
 46120  1  0  0  0
 47121  1  0  0  0
 47122  1  0  0  0
 48 56  1  0  0  0
 48 65  1  0  0  0
 48123  1  0  0  0
 49 50  1  0  0  0
 49 53  1  0  0  0
 49 64  1  0  0  0
 49124  1  0  0  0
 50 51  1  0  0  0
 50125  1  0  0  0
 50126  1  0  0  0
 51 52  1  0  0  0
 51127  1  0  0  0
 51128  1  0  0  0
 52129  1  0  0  0
 52130  1  0  0  0
 53 54  1  0  0  0
 54 55  2  0  0  0
 54131  1  0  0  0
 55 57  1  0  0  0
 55132  1  0  0  0
 56 69  2  0  0  0
 57 58  2  0  0  0
 57133  1  0  0  0
 58134  1  0  0  0
 59 60  1  0  0  0
 59 61  1  0  0  0
 59 62  1  0  0  0
 60135  1  0  0  0
 60136  1  0  0  0
 60137  1  0  0  0
 61138  1  0  0  0
 61139  1  0  0  0
 61140  1  0  0  0
 62141  1  0  0  0
 62142  1  0  0  0
 62143  1  0  0  0
 63 65  1  0  0  0
 63144  1  0  0  0
 63145  1  0  0  0
 63146  1  0  0  0
 64147  1  0  0  0
 65148  1  0  0  0
 68 81  1  0  0  0
 71 72  2  0  0  0
 71 74  1  0  0  0
 71149  1  0  0  0
 72 83  1  0  0  0
 72150  1  0  0  0
 73 74  2  0  0  0
 73 75  1  0  0  0
 73 84  1  0  0  0
 74 89  1  0  0  0
 75 82  1  0  0  0
 75 83  2  0  0  0
 76 77  1  0  0  0
 76 80  1  0  0  0
 76 86  2  0  0  0
 77 85  1  0  0  0
 77 87  2  0  0  0
 78 80  1  0  0  0
 78 81  1  0  0  0
 78 88  2  0  0  0
 79151  1  0  0  0
 79152  1  0  0  0
 79153  1  0  0  0
 79 82  1  0  0  0
 80154  1  0  0  0
 80155  1  0  0  0
 81156  1  0  0  0
 81157  1  0  0  0
 82 85  1  0  0  0
 82158  1  0  0  0
 84159  1  0  0  0
 85160  1  0  0  0
M  ISO  4   1 100  68 101  81 101  84 100
M  END
> <chiral flag>
0

> <version>
0

> <s_m_source_file>
/data/baiqing/PycharmProjects/Reinvent-master-3.2/result/LINK_invent/BTK/process_docking_weight1_custom_product_contain_oxygen_bond_distance_aromatic_linkinvent_7_9_3/rearranged_h_0173.sdf

> <i_m_source_file_index>
27

> <r_mmod_Potential_Energy-OPLS-2005>
-439.211578369141

> <r_mmod_Stretch_Energy-OPLS-2005>
37.3621559143066

> <r_mmod_Bend_Energy-OPLS-2005>
107.855728149414

> <r_mmod_Torsional_Energy-OPLS-2005>
244.049942016602

> <r_mmod_Improper_Torsional_Energy-OPLS-2005>
7.19886016845703

> <r_mmod_Van_der_Waal_Energy-OPLS-2005>
163.202423095703

> <r_mmod_Electrostatic_Energy-OPLS-2005>
-758.915832519531

> <r_mmod_Solvation_Energy-OPLS-2005>
-253.956069946289

> <b_mmod_Minimization_Converged-OPLS-2005>
0

> <r_mmod_RMS_Derivative-OPLS-2005>
6.7187237739563

$$$$
27
                    3D
 Structure written by MMmdl.
158166  0  0  1  0            999 V2000
  -30.7257  -14.4953   20.5978 C   0  0  0  0  0  0
  -30.4181  -12.3344   19.4334 C   0  0  0  0  0  0
  -29.4923  -12.5203   18.2148 C   0  0  0  0  0  0
  -28.0149  -12.3718   18.6248 C   0  0  0  0  0  0
  -27.6578  -13.2183   19.8755 C   0  0  2  0  0  0
  -28.6987  -13.0276   21.0022 C   0  0  0  0  0  0
  -25.2567  -13.8192   20.5714 C   0  0  0  0  0  0
  -24.1818  -13.0446   20.9169 C   0  0  0  0  0  0
  -24.6384  -11.6919   20.8715 C   0  0  0  0  0  0
  -23.9050  -10.4296   21.0390 C   0  0  0  0  0  0
  -24.3599   -9.4219   21.9172 C   0  0  0  0  0  0
  -23.6286   -8.2251   22.0749 C   0  0  0  0  0  0
  -22.4270   -8.0268   21.3532 C   0  0  0  0  0  0
  -21.9910   -9.0233   20.4627 C   0  0  0  0  0  0
  -22.7239  -10.2118   20.3032 C   0  0  0  0  0  0
  -21.6845   -6.0719   22.5272 C   0  0  0  0  0  0
  -21.4017   -6.5625   23.8201 C   0  0  0  0  0  0
  -21.3658   -5.6787   24.9172 C   0  0  0  0  0  0
  -21.6052   -4.3050   24.7232 C   0  0  0  0  0  0
  -21.8816   -3.8134   23.4349 C   0  0  0  0  0  0
  -21.9192   -4.6949   22.3407 C   0  0  0  0  0  0
  -22.7840  -13.5228   21.1839 C   0  0  0  0  0  0
  -22.1661   -4.2139   21.0982 F   0  0  0  0  0  0
  -21.5631   -3.4540   25.7743 F   0  0  0  0  0  0
  -30.0320  -13.3294   20.4523 N   0  0  0  0  0  0
  -26.3001  -12.9378   20.3371 N   0  0  0  0  0  0
  -25.9312  -11.6516   20.5749 N   0  0  0  0  0  0
  -22.0480  -12.8173   22.0365 N   0  0  0  0  0  0
  -25.4316  -15.1921   20.4198 N   0  0  0  0  0  0
  -31.8209  -14.6681   20.0569 O   0  0  0  0  0  0
  -21.6629   -6.8868   21.4230 O   0  0  0  0  0  0
  -22.3525  -14.5547   20.6724 O   0  0  0  0  0  0
  -24.6169  -31.8651   23.2054 C   0  0  0  0  0  0
  -25.9053  -32.4811   23.8362 C   0  0  1  0  0  0
  -27.2448  -27.4188   20.1057 C   0  0  0  0  0  0
  -25.5903  -33.8608   24.2295 N   0  0  0  0  0  0
  -23.4086  -30.4848   21.5460 C   0  0  2  0  0  0
  -24.8615  -28.9513   20.1112 C   0  0  0  0  0  0
  -22.7431  -29.4639   22.4981 C   0  0  0  0  0  0
  -18.0268  -28.1374   22.8483 C   0  0  0  0  0  0
  -24.1487  -36.7297   23.2644 C   0  0  0  0  0  0
  -25.9363  -30.8280   21.3606 C   0  0  0  0  0  0
  -26.0210  -29.4609   20.7095 C   0  0  0  0  0  0
  -27.2192  -28.7031   20.7013 C   0  0  0  0  0  0
  -26.0720  -26.9317   19.4926 C   0  0  0  0  0  0
  -24.8835  -27.6875   19.4966 C   0  0  0  0  0  0
  -23.6179  -29.8133   20.1626 C   0  0  0  0  0  0
  -25.4118  -36.3101   24.0333 C   0  0  1  0  0  0
  -20.5862  -28.3669   23.1308 C   0  0  2  0  0  0
  -20.6776  -26.9414   22.5387 C   0  0  0  0  0  0
  -19.5747  -26.6393   21.5191 C   0  0  0  0  0  0
  -18.1915  -26.7919   22.1608 C   0  0  0  0  0  0
  -19.1523  -28.8835   23.2882 C   0  0  0  0  0  0
  -18.9467  -30.1437   23.8913 C   0  0  0  0  0  0
  -17.6486  -30.6590   24.0568 C   0  0  0  0  0  0
  -25.9058  -34.9472   23.5122 C   0  0  0  0  0  0
  -16.5364  -29.9102   23.6340 C   0  0  0  0  0  0
  -16.7265  -28.6514   23.0363 C   0  0  0  0  0  0
  -26.4486  -31.6599   25.0691 C   0  0  0  0  0  0
  -25.3735  -31.3645   26.1408 C   0  0  0  0  0  0
  -27.0400  -30.3090   24.6033 C   0  0  0  0  0  0
  -27.6021  -32.4342   25.7497 C   0  0  0  0  0  0
  -27.5574  -37.1811   24.8471 C   0  0  0  0  0  0
  -21.4154  -29.3050   22.3730 N   0  0  0  0  0  0
  -26.4300  -37.3791   23.9407 N   0  0  0  0  0  0
  -24.6721  -31.0732   22.0970 N   0  0  0  0  0  0
  -23.4179  -28.8183   23.3038 O   0  0  0  0  0  0
  -28.3692  -26.6162   20.1463 O   0  0  0  0  0  0
  -26.5625  -34.8922   22.4682 O   0  0  0  0  0  0
  -23.5355  -32.1405   23.7438 O   0  0  0  0  0  0
  -31.4754  -19.5250   21.8114 C   0  0  0  0  0  0
  -32.3607  -18.4423   21.9832 C   0  0  0  0  0  0
  -30.1212  -19.3012   21.4738 C   0  0  0  0  0  0
  -30.5867  -16.8483   21.4233 C   0  0  0  0  0  0
  -31.9214  -17.1154   21.8191 C   0  0  0  0  0  0
  -29.6926  -17.9480   21.2704 C   0  0  0  0  0  0
  -29.1834  -20.4630   21.4821 C   0  0  0  0  0  0
  -29.1096  -24.2600   20.7709 C   0  0  0  0  0  0
  -28.9376  -23.2971   23.1117 C   0  0  0  0  0  0
  -28.1795  -25.4799   21.0247 C   0  0  0  0  0  0
  -28.7758  -22.9835   21.6045 C   0  0  2  0  0  0
  -30.1039  -15.4993   21.2577 N   0  0  0  0  0  0
  -29.5586  -21.7523   21.2488 N   0  0  0  0  0  0
  -27.9130  -20.2645   21.8390 N   0  3  0  0  0  0
  -30.0592  -24.3175   19.9833 O   0  0  0  0  0  0
  -32.7863  -16.1094   22.1015 F   0  0  0  0  0  0
  -28.3957  -17.6811   20.9680 F   0  0  0  0  0  0
  -31.4609  -12.4320   19.1267 H   0  0  0  0  0  0
  -30.3245  -11.3253   19.8379 H   0  0  0  0  0  0
  -29.7408  -11.7964   17.4382 H   0  0  0  0  0  0
  -29.6528  -13.5065   17.7758 H   0  0  0  0  0  0
  -27.8305  -11.3159   18.8259 H   0  0  0  0  0  0
  -27.3670  -12.6401   17.7904 H   0  0  0  0  0  0
  -27.6933  -14.2632   19.5650 H   0  0  0  0  0  0
  -28.6749  -11.9995   21.3675 H   0  0  0  0  0  0
  -28.4485  -13.6471   21.8642 H   0  0  0  0  0  0
  -25.2735   -9.5705   22.4749 H   0  0  0  0  0  0
  -23.9988   -7.4652   22.7473 H   0  0  0  0  0  0
  -21.0850   -8.8748   19.8919 H   0  0  0  0  0  0
  -22.3701  -10.9644   19.6125 H   0  0  0  0  0  0
  -21.2004   -7.6128   23.9712 H   0  0  0  0  0  0
  -21.1486   -6.0513   25.9079 H   0  0  0  0  0  0
  -22.0596   -2.7596   23.2861 H   0  0  0  0  0  0
  -22.4077  -11.9773   22.4655 H   0  0  0  0  0  0
  -21.1092  -13.1163   22.2597 H   0  0  0  0  0  0
  -24.6716  -15.8527   20.5389 H   0  0  0  0  0  0
  -26.2992  -15.6339   20.1413 H   0  0  0  0  0  0
  -26.7122  -32.5544   23.1125 H   0  0  0  0  0  0
  -25.0076  -33.9766   25.0458 H   0  0  0  0  0  0
  -22.7000  -31.3017   21.3998 H   0  0  0  0  0  0
  -23.3758  -35.9615   23.3310 H   0  0  0  0  0  0
  -24.3580  -36.8915   22.2055 H   0  0  0  0  0  0
  -23.7223  -37.6487   23.6682 H   0  0  0  0  0  0
  -26.0387  -31.5894   20.5864 H   0  0  0  0  0  0
  -26.8267  -30.8910   21.9732 H   0  0  0  0  0  0
  -28.1112  -29.0863   21.1775 H   0  0  0  0  0  0
  -26.0740  -25.9576   19.0232 H   0  0  0  0  0  0
  -23.9956  -27.2911   19.0238 H   0  0  0  0  0  0
  -23.7157  -30.5837   19.3970 H   0  0  0  0  0  0
  -22.7463  -29.2222   19.8731 H   0  0  0  0  0  0
  -25.1278  -36.1979   25.0824 H   0  0  0  0  0  0
  -20.9936  -28.3243   24.1444 H   0  0  0  0  0  0
  -20.5719  -26.2276   23.3566 H   0  0  0  0  0  0
  -21.6633  -26.7490   22.1148 H   0  0  0  0  0  0
  -19.6930  -25.6310   21.1209 H   0  0  0  0  0  0
  -19.6692  -27.3219   20.6732 H   0  0  0  0  0  0
  -17.4183  -26.6678   21.4006 H   0  0  0  0  0  0
  -18.0313  -26.0032   22.8979 H   0  0  0  0  0  0
  -19.7952  -30.7210   24.2317 H   0  0  0  0  0  0
  -17.5050  -31.6279   24.5133 H   0  0  0  0  0  0
  -15.5377  -30.3018   23.7660 H   0  0  0  0  0  0
  -15.8648  -28.0847   22.7107 H   0  0  0  0  0  0
  -24.5935  -30.7003   25.7674 H   0  0  0  0  0  0
  -24.8904  -32.2772   26.4891 H   0  0  0  0  0  0
  -25.8032  -30.8754   27.0154 H   0  0  0  0  0  0
  -26.2972  -29.6783   24.1135 H   0  0  0  0  0  0
  -27.4318  -29.7371   25.4453 H   0  0  0  0  0  0
  -27.8694  -30.4493   23.9098 H   0  0  0  0  0  0
  -27.2637  -33.3663   26.2024 H   0  0  0  0  0  0
  -28.3873  -32.6865   25.0367 H   0  0  0  0  0  0
  -28.0631  -31.8499   26.5462 H   0  0  0  0  0  0
  -28.2554  -38.0142   24.7563 H   0  0  0  0  0  0
  -28.1108  -36.2671   24.6270 H   0  0  0  0  0  0
  -27.2275  -37.1410   25.8865 H   0  0  0  0  0  0
  -20.9330  -29.8816   21.6969 H   0  0  0  0  0  0
  -26.0187  -38.2862   24.1415 H   0  0  0  0  0  0
  -31.8449  -20.5236   21.9970 H   0  0  0  0  0  0
  -33.3808  -18.6240   22.2860 H   0  0  0  0  0  0
  -28.0558  -23.8086   23.5016 H   0  0  0  0  0  0
  -29.7994  -23.9381   23.3002 H   0  0  0  0  0  0
  -29.0682  -22.3992   23.7169 H   0  0  0  0  0  0
  -28.3371  -25.8173   22.0495 H   0  0  0  0  0  0
  -27.1536  -25.1150   20.9759 H   0  0  0  0  0  0
  -27.7249  -22.7619   21.4169 H   0  0  0  0  0  0
  -29.1605  -15.3221   21.5628 H   0  0  0  0  0  0
  -30.4648  -21.9147   20.8207 H   0  0  0  0  0  0
  -27.5844  -19.3127   21.9276 H   0  0  0  0  0  0
  -27.2552  -21.0226   21.9033 H   0  0  0  0  0  0
  1 25  1  0  0  0
  1 30  2  0  0  0
  1 82  1  0  0  0
  2  3  1  0  0  0
  2 25  1  0  0  0
  2 88  1  0  0  0
  2 89  1  0  0  0
  3  4  1  0  0  0
  3 90  1  0  0  0
  3 91  1  0  0  0
  4  5  1  0  0  0
  4 92  1  0  0  0
  4 93  1  0  0  0
  5  6  1  0  0  0
  5 26  1  0  0  0
  5 94  1  0  0  0
  6 25  1  0  0  0
  6 95  1  0  0  0
  6 96  1  0  0  0
  7  8  2  0  0  0
  7 26  1  0  0  0
  7 29  1  0  0  0
  8  9  1  0  0  0
  8 22  1  0  0  0
  9 10  1  0  0  0
  9 27  2  0  0  0
 10 11  2  0  0  0
 10 15  1  0  0  0
 11 12  1  0  0  0
 11 97  1  0  0  0
 12 13  2  0  0  0
 12 98  1  0  0  0
 13 14  1  0  0  0
 13 31  1  0  0  0
 14 15  2  0  0  0
 14 99  1  0  0  0
 15100  1  0  0  0
 16 17  2  0  0  0
 16 21  1  0  0  0
 16 31  1  0  0  0
 17 18  1  0  0  0
 17101  1  0  0  0
 18 19  2  0  0  0
 18102  1  0  0  0
 19 20  1  0  0  0
 19 24  1  0  0  0
 20 21  2  0  0  0
 20103  1  0  0  0
 21 23  1  0  0  0
 22 28  1  0  0  0
 22 32  2  0  0  0
 26 27  1  0  0  0
 28104  1  0  0  0
 28105  1  0  0  0
 29106  1  0  0  0
 29107  1  0  0  0
 33 34  1  0  0  0
 33 66  1  0  0  0
 33 70  2  0  0  0
 34 36  1  0  0  0
 34 59  1  0  0  0
 34108  1  0  0  0
 35 44  2  0  0  0
 35 45  1  0  0  0
 35 68  1  0  0  0
 36 56  1  0  0  0
 36109  1  0  0  0
 37 39  1  0  0  0
 37 47  1  0  0  0
 37 66  1  0  0  0
 37110  1  0  0  0
 38 43  2  0  0  0
 38 46  1  0  0  0
 38 47  1  0  0  0
 39 64  1  0  0  0
 39 67  2  0  0  0
 40 52  1  0  0  0
 40 53  2  0  0  0
 40 58  1  0  0  0
 41111  1  0  0  0
 41112  1  0  0  0
 41113  1  0  0  0
 41 48  1  0  0  0
 42 43  1  0  0  0
 42 66  1  0  0  0
 42114  1  0  0  0
 42115  1  0  0  0
 43 44  1  0  0  0
 44116  1  0  0  0
 45 46  2  0  0  0
 45117  1  0  0  0
 46118  1  0  0  0
 47119  1  0  0  0
 47120  1  0  0  0
 48 56  1  0  0  0
 48 65  1  0  0  0
 48121  1  0  0  0
 49 50  1  0  0  0
 49 53  1  0  0  0
 49 64  1  0  0  0
 49122  1  0  0  0
 50 51  1  0  0  0
 50123  1  0  0  0
 50124  1  0  0  0
 51 52  1  0  0  0
 51125  1  0  0  0
 51126  1  0  0  0
 52127  1  0  0  0
 52128  1  0  0  0
 53 54  1  0  0  0
 54 55  2  0  0  0
 54129  1  0  0  0
 55 57  1  0  0  0
 55130  1  0  0  0
 56 69  2  0  0  0
 57 58  2  0  0  0
 57131  1  0  0  0
 58132  1  0  0  0
 59 60  1  0  0  0
 59 61  1  0  0  0
 59 62  1  0  0  0
 60133  1  0  0  0
 60134  1  0  0  0
 60135  1  0  0  0
 61136  1  0  0  0
 61137  1  0  0  0
 61138  1  0  0  0
 62139  1  0  0  0
 62140  1  0  0  0
 62141  1  0  0  0
 63 65  1  0  0  0
 63142  1  0  0  0
 63143  1  0  0  0
 63144  1  0  0  0
 64145  1  0  0  0
 65146  1  0  0  0
 68 80  1  0  0  0
 71 72  2  0  0  0
 71 73  1  0  0  0
 71147  1  0  0  0
 72 75  1  0  0  0
 72148  1  0  0  0
 73 76  2  0  0  0
 73 77  1  0  0  0
 74 75  2  0  0  0
 74 76  1  0  0  0
 74 82  1  0  0  0
 75 86  1  0  0  0
 76 87  1  0  0  0
 77 83  1  0  0  0
 77 84  2  0  0  0
 78 80  1  0  0  0
 78 81  1  0  0  0
 78 85  2  0  0  0
 79149  1  0  0  0
 79150  1  0  0  0
 79151  1  0  0  0
 79 81  1  0  0  0
 80152  1  0  0  0
 80153  1  0  0  0
 81 83  1  0  0  0
 81154  1  0  0  0
 82155  1  0  0  0
 83156  1  0  0  0
 84157  1  0  0  0
 84158  1  0  0  0
M  CHG  1  84   1
M  ISO  4   1 100  68 101  80 101  82 100
M  END
> <chiral flag>
0

> <version>
0

> <s_m_source_file>
/data/baiqing/PycharmProjects/Reinvent-master-3.2/result/LINK_invent/BTK/process_docking_weight1_custom_product_contain_oxygen_bond_distance_aromatic_linkinvent_7_9_3/rearranged_h_0173.sdf

> <i_m_source_file_index>
28

> <r_mmod_Potential_Energy-OPLS-2005>
-308.578704833984

> <r_mmod_Stretch_Energy-OPLS-2005>
49.7548408508301

> <r_mmod_Bend_Energy-OPLS-2005>
100.757286071777

> <r_mmod_Torsional_Energy-OPLS-2005>
245.841094970703

> <r_mmod_Improper_Torsional_Energy-OPLS-2005>
4.5682201385498

> <r_mmod_Van_der_Waal_Energy-OPLS-2005>
160.57633972168

> <r_mmod_Electrostatic_Energy-OPLS-2005>
-425.197113037109

> <r_mmod_Solvation_Energy-OPLS-2005>
-461.302673339844

> <b_mmod_Minimization_Converged-OPLS-2005>
0

> <r_mmod_RMS_Derivative-OPLS-2005>
3.09350204467773

$$$$
28
                    3D
 Structure written by MMmdl.
158166  0  0  1  0            999 V2000
  -30.6473  -14.5360   20.5564 C   0  0  0  0  0  0
  -30.4401  -12.3464   19.4154 C   0  0  0  0  0  0
  -29.4994  -12.5076   18.2023 C   0  0  0  0  0  0
  -28.0216  -12.3502   18.6186 C   0  0  0  0  0  0
  -27.6571  -13.2014   19.8644 C   0  0  2  0  0  0
  -28.7025  -12.9932   20.9831 C   0  0  0  0  0  0
  -25.2588  -13.8148   20.5691 C   0  0  0  0  0  0
  -24.1852  -13.0427   20.9210 C   0  0  0  0  0  0
  -24.6405  -11.6894   20.8747 C   0  0  0  0  0  0
  -23.9069  -10.4279   21.0410 C   0  0  0  0  0  0
  -24.3624   -9.4189   21.9183 C   0  0  0  0  0  0
  -23.6299   -8.2225   22.0747 C   0  0  0  0  0  0
  -22.4277   -8.0272   21.3541 C   0  0  0  0  0  0
  -21.9911   -9.0244   20.4640 C   0  0  0  0  0  0
  -22.7244  -10.2123   20.3051 C   0  0  0  0  0  0
  -21.6839   -6.0738   22.5284 C   0  0  0  0  0  0
  -21.4005   -6.5642   23.8217 C   0  0  0  0  0  0
  -21.3660   -5.6792   24.9180 C   0  0  0  0  0  0
  -21.6045   -4.3057   24.7226 C   0  0  0  0  0  0
  -21.8822   -3.8151   23.4345 C   0  0  0  0  0  0
  -21.9194   -4.6968   22.3403 C   0  0  0  0  0  0
  -22.7866  -13.5228   21.1864 C   0  0  0  0  0  0
  -22.1661   -4.2160   21.0975 F   0  0  0  0  0  0
  -21.5632   -3.4538   25.7732 F   0  0  0  0  0  0
  -30.0220  -13.3318   20.4238 N   0  0  0  0  0  0
  -26.2994  -12.9307   20.3311 N   0  0  0  0  0  0
  -25.9314  -11.6471   20.5748 N   0  0  0  0  0  0
  -22.0486  -12.8221   22.0414 N   0  0  0  0  0  0
  -25.4300  -15.1870   20.4076 N   0  0  0  0  0  0
  -31.8078  -14.7310   20.1825 O   0  0  0  0  0  0
  -21.6641   -6.8874   21.4240 O   0  0  0  0  0  0
  -22.3549  -14.5534   20.6712 O   0  0  0  0  0  0
  -24.6188  -31.8642   23.2028 C   0  0  0  0  0  0
  -25.9054  -32.4819   23.8351 C   0  0  1  0  0  0
  -27.2294  -27.3892   20.1056 C   0  0  0  0  0  0
  -25.5891  -33.8619   24.2295 N   0  0  0  0  0  0
  -23.4099  -30.4860   21.5454 C   0  0  2  0  0  0
  -24.8591  -28.9447   20.1150 C   0  0  0  0  0  0
  -22.7441  -29.4643   22.4960 C   0  0  0  0  0  0
  -18.0287  -28.1403   22.8493 C   0  0  0  0  0  0
  -24.1487  -36.7301   23.2639 C   0  0  0  0  0  0
  -25.9426  -30.8177   21.3599 C   0  0  0  0  0  0
  -26.0235  -29.4462   20.7130 C   0  0  0  0  0  0
  -27.2169  -28.6783   20.7010 C   0  0  0  0  0  0
  -26.0491  -26.9082   19.5067 C   0  0  0  0  0  0
  -24.8689  -27.6769   19.5089 C   0  0  0  0  0  0
  -23.6220  -29.8160   20.1617 C   0  0  0  0  0  0
  -25.4109  -36.3099   24.0324 C   0  0  1  0  0  0
  -20.5878  -28.3683   23.1306 C   0  0  2  0  0  0
  -20.6790  -26.9414   22.5433 C   0  0  0  0  0  0
  -19.5766  -26.6399   21.5236 C   0  0  0  0  0  0
  -18.1933  -26.7956   22.1613 C   0  0  0  0  0  0
  -19.1540  -28.8859   23.2902 C   0  0  0  0  0  0
  -18.9460  -30.1467   23.8912 C   0  0  0  0  0  0
  -17.6457  -30.6608   24.0564 C   0  0  0  0  0  0
  -25.9039  -34.9474   23.5115 C   0  0  0  0  0  0
  -16.5354  -29.9104   23.6332 C   0  0  0  0  0  0
  -16.7273  -28.6525   23.0344 C   0  0  0  0  0  0
  -26.4478  -31.6610   25.0693 C   0  0  0  0  0  0
  -25.3719  -31.3723   26.1422 C   0  0  0  0  0  0
  -27.0307  -30.3055   24.6072 C   0  0  0  0  0  0
  -27.6059  -32.4329   25.7444 C   0  0  0  0  0  0
  -27.5581  -37.1789   24.8467 C   0  0  0  0  0  0
  -21.4160  -29.3030   22.3697 N   0  0  0  0  0  0
  -26.4300  -37.3799   23.9420 N   0  0  0  0  0  0
  -24.6766  -31.0694   22.0963 N   0  0  0  0  0  0
  -23.4212  -28.8199   23.3010 O   0  0  0  0  0  0
  -28.3637  -26.5974   20.0645 O   0  0  0  0  0  0
  -26.5621  -34.8927   22.4690 O   0  0  0  0  0  0
  -23.5362  -32.1408   23.7380 O   0  0  0  0  0  0
  -30.4860  -19.4079   22.5719 C   0  0  0  0  0  0
  -30.5244  -16.9757   22.7522 C   0  0  0  0  0  0
  -30.1120  -19.3460   21.2088 C   0  0  0  0  0  0
  -30.1496  -16.8578   21.3991 C   0  0  0  0  0  0
  -30.6950  -18.2433   23.3331 C   0  0  0  0  0  0
  -29.9423  -18.0439   20.6284 C   0  0  0  0  0  0
  -30.0231  -20.6608   20.4736 C   0  0  0  0  0  0
  -29.2165  -23.1977   22.7530 C   0  0  0  0  0  0
  -28.5710  -24.0710   20.4062 C   0  0  0  0  0  0
  -27.8270  -22.9798   23.3460 C   0  0  0  0  0  0
  -28.3992  -25.5048   21.0188 C   0  0  0  0  0  0
  -29.3931  -23.0059   21.2354 C   0  0  2  0  0  0
  -29.8240  -15.5512   20.9059 N   0  0  0  0  0  0
  -29.1166  -21.5590   20.9692 N   0  0  0  0  0  0
  -30.1537  -23.4689   23.5056 O   0  0  0  0  0  0
  -28.0795  -23.8162   19.2991 O   0  0  0  0  0  0
  -31.0590  -18.3413   24.6332 F   0  0  0  0  0  0
  -29.5534  -17.9205   19.3359 F   0  0  0  0  0  0
  -31.1093  -21.0213   19.2582 S   0  0  0  0  0  0
  -31.4785  -12.4841   19.1061 H   0  0  0  0  0  0
  -30.3770  -11.3358   19.8199 H   0  0  0  0  0  0
  -29.7470  -11.7772   17.4305 H   0  0  0  0  0  0
  -29.6501  -13.4903   17.7507 H   0  0  0  0  0  0
  -27.8487  -11.2943   18.8312 H   0  0  0  0  0  0
  -27.3667  -12.6019   17.7844 H   0  0  0  0  0  0
  -27.6928  -14.2458   19.5530 H   0  0  0  0  0  0
  -28.6988  -11.9544   21.3163 H   0  0  0  0  0  0
  -28.4611  -13.5855   21.8668 H   0  0  0  0  0  0
  -25.2765   -9.5662   22.4761 H   0  0  0  0  0  0
  -24.0007   -7.4604   22.7455 H   0  0  0  0  0  0
  -21.0845   -8.8768   19.8932 H   0  0  0  0  0  0
  -22.3713  -10.9665   19.6165 H   0  0  0  0  0  0
  -21.1990   -7.6147   23.9737 H   0  0  0  0  0  0
  -21.1478   -6.0511   25.9089 H   0  0  0  0  0  0
  -22.0603   -2.7611   23.2845 H   0  0  0  0  0  0
  -22.4103  -11.9904   22.4847 H   0  0  0  0  0  0
  -21.1079  -13.1217   22.2572 H   0  0  0  0  0  0
  -24.6585  -15.8361   20.5190 H   0  0  0  0  0  0
  -26.2637  -15.6253   20.0379 H   0  0  0  0  0  0
  -26.7131  -32.5525   23.1098 H   0  0  0  0  0  0
  -25.0004  -33.9775   25.0407 H   0  0  0  0  0  0
  -22.7010  -31.3051   21.4014 H   0  0  0  0  0  0
  -23.3754  -35.9633   23.3331 H   0  0  0  0  0  0
  -24.3571  -36.8902   22.2056 H   0  0  0  0  0  0
  -23.7242  -37.6507   23.6653 H   0  0  0  0  0  0
  -26.0527  -31.5772   20.5829 H   0  0  0  0  0  0
  -26.8311  -30.8820   21.9755 H   0  0  0  0  0  0
  -28.1199  -29.0652   21.1528 H   0  0  0  0  0  0
  -26.0420  -25.9323   19.0424 H   0  0  0  0  0  0
  -23.9734  -27.2856   19.0473 H   0  0  0  0  0  0
  -23.7330  -30.5907   19.4015 H   0  0  0  0  0  0
  -22.7442  -29.2379   19.8651 H   0  0  0  0  0  0
  -25.1291  -36.1960   25.0814 H   0  0  0  0  0  0
  -20.9977  -28.3276   24.1420 H   0  0  0  0  0  0
  -20.5732  -26.2268   23.3620 H   0  0  0  0  0  0
  -21.6642  -26.7489   22.1178 H   0  0  0  0  0  0
  -19.6922  -25.6322   21.1239 H   0  0  0  0  0  0
  -19.6723  -27.3225   20.6798 H   0  0  0  0  0  0
  -17.4213  -26.6737   21.4014 H   0  0  0  0  0  0
  -18.0301  -26.0120   22.9025 H   0  0  0  0  0  0
  -19.7934  -30.7291   24.2288 H   0  0  0  0  0  0
  -17.5008  -31.6279   24.5171 H   0  0  0  0  0  0
  -15.5349  -30.2991   23.7671 H   0  0  0  0  0  0
  -15.8677  -28.0849   22.7044 H   0  0  0  0  0  0
  -24.5891  -30.7087   25.7732 H   0  0  0  0  0  0
  -24.8880  -32.2882   26.4846 H   0  0  0  0  0  0
  -25.8008  -30.8893   27.0201 H   0  0  0  0  0  0
  -26.2842  -29.6807   24.1154 H   0  0  0  0  0  0
  -27.4147  -29.7311   25.4512 H   0  0  0  0  0  0
  -27.8644  -30.4392   23.9171 H   0  0  0  0  0  0
  -27.2711  -33.3635   26.2040 H   0  0  0  0  0  0
  -28.3844  -32.6888   25.0251 H   0  0  0  0  0  0
  -28.0761  -31.8444   26.5336 H   0  0  0  0  0  0
  -28.2601  -38.0082   24.7511 H   0  0  0  0  0  0
  -28.1068  -36.2608   24.6293 H   0  0  0  0  0  0
  -27.2290  -37.1449   25.8866 H   0  0  0  0  0  0
  -20.9347  -29.8711   21.6867 H   0  0  0  0  0  0
  -26.0183  -38.2868   24.1443 H   0  0  0  0  0  0
  -30.6480  -20.3652   23.0454 H   0  0  0  0  0  0
  -30.6537  -16.0968   23.3673 H   0  0  0  0  0  0
  -27.0912  -22.7631   22.5715 H   0  0  0  0  0  0
  -27.5019  -23.8702   23.8831 H   0  0  0  0  0  0
  -27.8477  -22.1449   24.0466 H   0  0  0  0  0  0
  -29.2297  -25.7029   21.6963 H   0  0  0  0  0  0
  -27.4954  -25.5068   21.6288 H   0  0  0  0  0  0
  -30.4440  -23.1983   21.0200 H   0  0  0  0  0  0
  -28.8591  -15.2825   21.0169 H   0  0  0  0  0  0
  -28.4028  -21.1674   21.5675 H   0  0  0  0  0  0
  1 25  1  0  0  0
  1 30  2  0  0  0
  1 83  1  0  0  0
  2  3  1  0  0  0
  2 25  1  0  0  0
  2 90  1  0  0  0
  2 91  1  0  0  0
  3  4  1  0  0  0
  3 92  1  0  0  0
  3 93  1  0  0  0
  4  5  1  0  0  0
  4 94  1  0  0  0
  4 95  1  0  0  0
  5  6  1  0  0  0
  5 26  1  0  0  0
  5 96  1  0  0  0
  6 25  1  0  0  0
  6 97  1  0  0  0
  6 98  1  0  0  0
  7  8  2  0  0  0
  7 26  1  0  0  0
  7 29  1  0  0  0
  8  9  1  0  0  0
  8 22  1  0  0  0
  9 10  1  0  0  0
  9 27  2  0  0  0
 10 11  2  0  0  0
 10 15  1  0  0  0
 11 12  1  0  0  0
 11 99  1  0  0  0
 12 13  2  0  0  0
 12100  1  0  0  0
 13 14  1  0  0  0
 13 31  1  0  0  0
 14 15  2  0  0  0
 14101  1  0  0  0
 15102  1  0  0  0
 16 17  2  0  0  0
 16 21  1  0  0  0
 16 31  1  0  0  0
 17 18  1  0  0  0
 17103  1  0  0  0
 18 19  2  0  0  0
 18104  1  0  0  0
 19 20  1  0  0  0
 19 24  1  0  0  0
 20 21  2  0  0  0
 20105  1  0  0  0
 21 23  1  0  0  0
 22 28  1  0  0  0
 22 32  2  0  0  0
 26 27  1  0  0  0
 28106  1  0  0  0
 28107  1  0  0  0
 29108  1  0  0  0
 29109  1  0  0  0
 33 34  1  0  0  0
 33 66  1  0  0  0
 33 70  2  0  0  0
 34 36  1  0  0  0
 34 59  1  0  0  0
 34110  1  0  0  0
 35 44  2  0  0  0
 35 45  1  0  0  0
 35 68  1  0  0  0
 36 56  1  0  0  0
 36111  1  0  0  0
 37 39  1  0  0  0
 37 47  1  0  0  0
 37 66  1  0  0  0
 37112  1  0  0  0
 38 43  2  0  0  0
 38 46  1  0  0  0
 38 47  1  0  0  0
 39 64  1  0  0  0
 39 67  2  0  0  0
 40 52  1  0  0  0
 40 53  2  0  0  0
 40 58  1  0  0  0
 41113  1  0  0  0
 41114  1  0  0  0
 41115  1  0  0  0
 41 48  1  0  0  0
 42 43  1  0  0  0
 42 66  1  0  0  0
 42116  1  0  0  0
 42117  1  0  0  0
 43 44  1  0  0  0
 44118  1  0  0  0
 45 46  2  0  0  0
 45119  1  0  0  0
 46120  1  0  0  0
 47121  1  0  0  0
 47122  1  0  0  0
 48 56  1  0  0  0
 48 65  1  0  0  0
 48123  1  0  0  0
 49 50  1  0  0  0
 49 53  1  0  0  0
 49 64  1  0  0  0
 49124  1  0  0  0
 50 51  1  0  0  0
 50125  1  0  0  0
 50126  1  0  0  0
 51 52  1  0  0  0
 51127  1  0  0  0
 51128  1  0  0  0
 52129  1  0  0  0
 52130  1  0  0  0
 53 54  1  0  0  0
 54 55  2  0  0  0
 54131  1  0  0  0
 55 57  1  0  0  0
 55132  1  0  0  0
 56 69  2  0  0  0
 57 58  2  0  0  0
 57133  1  0  0  0
 58134  1  0  0  0
 59 60  1  0  0  0
 59 61  1  0  0  0
 59 62  1  0  0  0
 60135  1  0  0  0
 60136  1  0  0  0
 60137  1  0  0  0
 61138  1  0  0  0
 61139  1  0  0  0
 61140  1  0  0  0
 62141  1  0  0  0
 62142  1  0  0  0
 62143  1  0  0  0
 63 65  1  0  0  0
 63144  1  0  0  0
 63145  1  0  0  0
 63146  1  0  0  0
 64147  1  0  0  0
 65148  1  0  0  0
 68 81  1  0  0  0
 71 73  2  0  0  0
 71 75  1  0  0  0
 71149  1  0  0  0
 72 74  1  0  0  0
 72 75  2  0  0  0
 72150  1  0  0  0
 73 76  1  0  0  0
 73 77  1  0  0  0
 74 76  2  0  0  0
 74 83  1  0  0  0
 75 87  1  0  0  0
 76 88  1  0  0  0
 77 84  1  0  0  0
 77 89  2  0  0  0
 78 80  1  0  0  0
 78 82  1  0  0  0
 78 85  2  0  0  0
 79 81  1  0  0  0
 79 82  1  0  0  0
 79 86  2  0  0  0
 80151  1  0  0  0
 80152  1  0  0  0
 80153  1  0  0  0
 81154  1  0  0  0
 81155  1  0  0  0
 82 84  1  0  0  0
 82156  1  0  0  0
 83157  1  0  0  0
 84158  1  0  0  0
M  ISO  4   1 100  68 101  81 101  83 100
M  END
> <chiral flag>
0

> <version>
0

> <s_m_source_file>
/data/baiqing/PycharmProjects/Reinvent-master-3.2/result/LINK_invent/BTK/process_docking_weight1_custom_product_contain_oxygen_bond_distance_aromatic_linkinvent_7_9_3/rearranged_h_0173.sdf

> <i_m_source_file_index>
29

> <r_mmod_Potential_Energy-OPLS-2005>
-133.118133544922

> <r_mmod_Stretch_Energy-OPLS-2005>
55.0262413024902

> <r_mmod_Bend_Energy-OPLS-2005>
110.354957580566

> <r_mmod_Torsional_Energy-OPLS-2005>
289.35693359375

> <r_mmod_Improper_Torsional_Energy-OPLS-2005>
10.3589248657227

> <r_mmod_Van_der_Waal_Energy-OPLS-2005>
138.45719909668

> <r_mmod_Electrostatic_Energy-OPLS-2005>
-481.925567626953

> <r_mmod_Solvation_Energy-OPLS-2005>
-277.610046386719

> <b_mmod_Minimization_Converged-OPLS-2005>
0

> <r_mmod_RMS_Derivative-OPLS-2005>
2.81728363037109

$$$$
29
                    3D
 Structure written by MMmdl.
149157  0  0  1  0            999 V2000
  -30.6129  -14.8349   20.4273 C   0  0  0  0  0  0
  -30.4276  -12.5082   19.4913 C   0  0  0  0  0  0
  -29.5122  -12.5084   18.2476 C   0  0  0  0  0  0
  -28.0421  -12.3197   18.6638 C   0  0  0  0  0  0
  -27.6342  -13.2435   19.8422 C   0  0  2  0  0  0
  -28.6792  -13.2402   20.9797 C   0  0  0  0  0  0
  -25.2473  -13.8218   20.5704 C   0  0  0  0  0  0
  -24.1783  -13.0443   20.9220 C   0  0  0  0  0  0
  -24.6392  -11.6926   20.8751 C   0  0  0  0  0  0
  -23.9074  -10.4293   21.0402 C   0  0  0  0  0  0
  -24.3623   -9.4208   21.9181 C   0  0  0  0  0  0
  -23.6295   -8.2245   22.0753 C   0  0  0  0  0  0
  -22.4278   -8.0281   21.3542 C   0  0  0  0  0  0
  -21.9913   -9.0254   20.4644 C   0  0  0  0  0  0
  -22.7244  -10.2133   20.3051 C   0  0  0  0  0  0
  -21.6855   -6.0731   22.5276 C   0  0  0  0  0  0
  -21.4019   -6.5636   23.8210 C   0  0  0  0  0  0
  -21.3660   -5.6789   24.9173 C   0  0  0  0  0  0
  -21.6045   -4.3053   24.7224 C   0  0  0  0  0  0
  -21.8820   -3.8142   23.4346 C   0  0  0  0  0  0
  -21.9195   -4.6957   22.3401 C   0  0  0  0  0  0
  -22.7801  -13.5212   21.1873 C   0  0  0  0  0  0
  -22.1661   -4.2141   21.0979 F   0  0  0  0  0  0
  -21.5628   -3.4537   25.7738 F   0  0  0  0  0  0
  -29.9705  -13.6059   20.3853 N   0  0  0  0  0  0
  -26.2905  -12.9446   20.3265 N   0  0  0  0  0  0
  -25.9329  -11.6578   20.5756 N   0  0  0  0  0  0
  -22.0455  -12.8197   22.0431 N   0  0  0  0  0  0
  -25.4128  -15.1947   20.4120 N   0  0  0  0  0  0
  -31.8172  -14.8438   20.1517 O   0  0  0  0  0  0
  -21.6644   -6.8876   21.4238 O   0  0  0  0  0  0
  -22.3479  -14.5513   20.6717 O   0  0  0  0  0  0
  -24.6378  -31.8505   23.1948 C   0  0  0  0  0  0
  -25.9178  -32.4732   23.8317 C   0  0  1  0  0  0
  -27.2160  -27.2083   20.1400 C   0  0  0  0  0  0
  -25.5952  -33.8536   24.2235 N   0  0  0  0  0  0
  -23.4391  -30.4711   21.5391 C   0  0  2  0  0  0
  -24.8912  -28.9154   20.1051 C   0  0  0  0  0  0
  -22.7545  -29.4573   22.4889 C   0  0  0  0  0  0
  -18.0299  -28.1393   22.8478 C   0  0  0  0  0  0
  -24.1489  -36.7271   23.2641 C   0  0  0  0  0  0
  -25.9905  -30.7455   21.3864 C   0  0  0  0  0  0
  -26.0657  -29.3645   20.7256 C   0  0  0  0  0  0
  -27.2349  -28.5231   20.7347 C   0  0  0  0  0  0
  -26.0257  -26.8502   19.4736 C   0  0  0  0  0  0
  -24.8797  -27.6682   19.4640 C   0  0  0  0  0  0
  -23.6623  -29.8068   20.1552 C   0  0  0  0  0  0
  -25.4120  -36.3058   24.0319 C   0  0  1  0  0  0
  -20.5907  -28.3713   23.1245 C   0  0  2  0  0  0
  -20.6785  -26.9422   22.5400 C   0  0  0  0  0  0
  -19.5758  -26.6384   21.5207 C   0  0  0  0  0  0
  -18.1941  -26.7930   22.1624 C   0  0  0  0  0  0
  -19.1554  -28.8871   23.2853 C   0  0  0  0  0  0
  -18.9474  -30.1471   23.8875 C   0  0  0  0  0  0
  -17.6471  -30.6592   24.0558 C   0  0  0  0  0  0
  -25.9065  -34.9429   23.5080 C   0  0  0  0  0  0
  -16.5362  -29.9082   23.6337 C   0  0  0  0  0  0
  -16.7284  -28.6500   23.0356 C   0  0  0  0  0  0
  -26.4521  -31.6573   25.0729 C   0  0  0  0  0  0
  -25.3727  -31.3741   26.1436 C   0  0  0  0  0  0
  -27.0378  -30.2979   24.6268 C   0  0  0  0  0  0
  -27.6064  -32.4322   25.7507 C   0  0  0  0  0  0
  -27.5573  -37.1795   24.8471 C   0  0  0  0  0  0
  -21.4244  -29.3047   22.3631 N   0  0  0  0  0  0
  -26.4295  -37.3758   23.9398 N   0  0  0  0  0  0
  -24.7083  -31.0411   22.0959 N   0  0  0  0  0  0
  -23.4210  -28.8121   23.3021 O   0  0  0  0  0  0
  -28.2151  -26.1910   20.2213 O   0  0  0  0  0  0
  -26.5641  -34.8913   22.4653 O   0  0  0  0  0  0
  -23.5510  -32.1355   23.7200 O   0  0  0  0  0  0
  -31.0941  -20.1685   19.9165 C   0  0  0  0  0  0
  -31.9130  -19.0391   19.7534 C   0  0  0  0  0  0
  -29.7542  -20.0280   20.3266 C   0  0  0  0  0  0
  -29.3501  -18.6261   20.5567 C   0  0  0  0  0  0
  -30.2583  -17.4761   20.3703 C   0  0  0  0  0  0
  -27.7957  -24.9746   20.8680 C   0  0  0  0  0  0
  -28.0789  -23.5900   20.9353 C   0  0  0  0  0  0
  -29.0829  -22.6451   20.2867 C   0  0  0  0  0  0
  -31.5187  -17.7655   19.9678 N   0  0  0  0  0  0
  -28.9059  -21.2614   20.5371 N   0  0  0  0  0  0
  -29.8791  -16.0285   20.5814 N   0  0  0  0  0  0
  -29.9997  -23.0587   19.5758 O   0  0  0  0  0  0
  -27.2909  -22.9627   21.8248 O   0  0  0  0  0  0
  -28.0808  -18.3828   20.9622 F   0  0  0  0  0  0
  -31.4681  -12.6230   19.1840 H   0  0  0  0  0  0
  -30.3782  -11.5485   20.0083 H   0  0  0  0  0  0
  -29.8103  -11.7176   17.5579 H   0  0  0  0  0  0
  -29.6252  -13.4481   17.7048 H   0  0  0  0  0  0
  -27.9181  -11.2761   18.9554 H   0  0  0  0  0  0
  -27.3815  -12.4767   17.8103 H   0  0  0  0  0  0
  -27.6091  -14.2523   19.4299 H   0  0  0  0  0  0
  -28.7359  -12.2608   21.4571 H   0  0  0  0  0  0
  -28.4001  -13.9486   21.7613 H   0  0  0  0  0  0
  -25.2766   -9.5687   22.4757 H   0  0  0  0  0  0
  -24.0002   -7.4638   22.7476 H   0  0  0  0  0  0
  -21.0844   -8.8772   19.8950 H   0  0  0  0  0  0
  -22.3699  -10.9671   19.6160 H   0  0  0  0  0  0
  -21.2014   -7.6145   23.9712 H   0  0  0  0  0  0
  -21.1482   -6.0521   25.9076 H   0  0  0  0  0  0
  -22.0600   -2.7603   23.2850 H   0  0  0  0  0  0
  -22.4080  -11.9863   22.4821 H   0  0  0  0  0  0
  -21.1069  -13.1210   22.2637 H   0  0  0  0  0  0
  -24.6410  -15.8429   20.5266 H   0  0  0  0  0  0
  -26.2532  -15.6421   20.0703 H   0  0  0  0  0  0
  -26.7244  -32.5365   23.1054 H   0  0  0  0  0  0
  -25.0093  -33.9659   25.0378 H   0  0  0  0  0  0
  -22.7384  -31.2953   21.3907 H   0  0  0  0  0  0
  -23.3752  -35.9605   23.3321 H   0  0  0  0  0  0
  -24.3575  -36.8883   22.2054 H   0  0  0  0  0  0
  -23.7246  -37.6477   23.6660 H   0  0  0  0  0  0
  -26.1371  -31.5053   20.6175 H   0  0  0  0  0  0
  -26.8636  -30.7942   22.0252 H   0  0  0  0  0  0
  -28.1262  -28.8498   21.2513 H   0  0  0  0  0  0
  -25.9633  -25.8824   18.9962 H   0  0  0  0  0  0
  -23.9833  -27.3189   18.9703 H   0  0  0  0  0  0
  -23.7905  -30.5852   19.4021 H   0  0  0  0  0  0
  -22.7789  -29.2445   19.8475 H   0  0  0  0  0  0
  -25.1305  -36.1904   25.0812 H   0  0  0  0  0  0
  -20.9989  -28.3301   24.1371 H   0  0  0  0  0  0
  -20.5684  -26.2330   23.3618 H   0  0  0  0  0  0
  -21.6651  -26.7439   22.1193 H   0  0  0  0  0  0
  -19.6923  -25.6290   21.1246 H   0  0  0  0  0  0
  -19.6689  -27.3191   20.6734 H   0  0  0  0  0  0
  -17.4204  -26.6673   21.4035 H   0  0  0  0  0  0
  -18.0349  -26.0078   22.9029 H   0  0  0  0  0  0
  -19.7953  -30.7291   24.2237 H   0  0  0  0  0  0
  -17.5024  -31.6268   24.5166 H   0  0  0  0  0  0
  -15.5360  -30.2974   23.7671 H   0  0  0  0  0  0
  -15.8688  -28.0810   22.7079 H   0  0  0  0  0  0
  -24.5899  -30.7098   25.7756 H   0  0  0  0  0  0
  -24.8927  -32.2918   26.4846 H   0  0  0  0  0  0
  -25.8028  -30.8920   27.0226 H   0  0  0  0  0  0
  -26.2984  -29.6711   24.1270 H   0  0  0  0  0  0
  -27.4008  -29.7264   25.4821 H   0  0  0  0  0  0
  -27.8885  -30.4233   23.9566 H   0  0  0  0  0  0
  -27.2670  -33.3636   26.2052 H   0  0  0  0  0  0
  -28.3894  -32.6858   25.0347 H   0  0  0  0  0  0
  -28.0714  -31.8470   26.5451 H   0  0  0  0  0  0
  -28.2603  -38.0077   24.7488 H   0  0  0  0  0  0
  -28.1052  -36.2606   24.6336 H   0  0  0  0  0  0
  -27.2284  -37.1491   25.8873 H   0  0  0  0  0  0
  -20.9456  -29.8761   21.6812 H   0  0  0  0  0  0
  -26.0174  -38.2834   24.1389 H   0  0  0  0  0  0
  -31.5266  -21.1391   19.7292 H   0  0  0  0  0  0
  -32.9396  -19.1639   19.4414 H   0  0  0  0  0  0
  -26.9889  -25.2633   21.5307 H   0  0  0  0  0  0
  -28.0104  -21.0429   20.9463 H   0  0  0  0  0  0
  -28.9084  -15.8954   20.8123 H   0  0  0  0  0  0
  -27.7528  -22.1861   22.1121 H   0  0  0  0  0  0
  1 25  1  0  0  0
  1 30  2  0  0  0
  1 81  1  0  0  0
  2  3  1  0  0  0
  2 25  1  0  0  0
  2 85  1  0  0  0
  2 86  1  0  0  0
  3  4  1  0  0  0
  3 87  1  0  0  0
  3 88  1  0  0  0
  4  5  1  0  0  0
  4 89  1  0  0  0
  4 90  1  0  0  0
  5  6  1  0  0  0
  5 26  1  0  0  0
  5 91  1  0  0  0
  6 25  1  0  0  0
  6 92  1  0  0  0
  6 93  1  0  0  0
  7  8  2  0  0  0
  7 26  1  0  0  0
  7 29  1  0  0  0
  8  9  1  0  0  0
  8 22  1  0  0  0
  9 10  1  0  0  0
  9 27  2  0  0  0
 10 11  2  0  0  0
 10 15  1  0  0  0
 11 12  1  0  0  0
 11 94  1  0  0  0
 12 13  2  0  0  0
 12 95  1  0  0  0
 13 14  1  0  0  0
 13 31  1  0  0  0
 14 15  2  0  0  0
 14 96  1  0  0  0
 15 97  1  0  0  0
 16 17  2  0  0  0
 16 21  1  0  0  0
 16 31  1  0  0  0
 17 18  1  0  0  0
 17 98  1  0  0  0
 18 19  2  0  0  0
 18 99  1  0  0  0
 19 20  1  0  0  0
 19 24  1  0  0  0
 20 21  2  0  0  0
 20100  1  0  0  0
 21 23  1  0  0  0
 22 28  1  0  0  0
 22 32  2  0  0  0
 26 27  1  0  0  0
 28101  1  0  0  0
 28102  1  0  0  0
 29103  1  0  0  0
 29104  1  0  0  0
 33 34  1  0  0  0
 33 66  1  0  0  0
 33 70  2  0  0  0
 34 36  1  0  0  0
 34 59  1  0  0  0
 34105  1  0  0  0
 35 44  2  0  0  0
 35 45  1  0  0  0
 35 68  1  0  0  0
 36 56  1  0  0  0
 36106  1  0  0  0
 37 39  1  0  0  0
 37 47  1  0  0  0
 37 66  1  0  0  0
 37107  1  0  0  0
 38 43  2  0  0  0
 38 46  1  0  0  0
 38 47  1  0  0  0
 39 64  1  0  0  0
 39 67  2  0  0  0
 40 52  1  0  0  0
 40 53  2  0  0  0
 40 58  1  0  0  0
 41108  1  0  0  0
 41109  1  0  0  0
 41110  1  0  0  0
 41 48  1  0  0  0
 42 43  1  0  0  0
 42 66  1  0  0  0
 42111  1  0  0  0
 42112  1  0  0  0
 43 44  1  0  0  0
 44113  1  0  0  0
 45 46  2  0  0  0
 45114  1  0  0  0
 46115  1  0  0  0
 47116  1  0  0  0
 47117  1  0  0  0
 48 56  1  0  0  0
 48 65  1  0  0  0
 48118  1  0  0  0
 49 50  1  0  0  0
 49 53  1  0  0  0
 49 64  1  0  0  0
 49119  1  0  0  0
 50 51  1  0  0  0
 50120  1  0  0  0
 50121  1  0  0  0
 51 52  1  0  0  0
 51122  1  0  0  0
 51123  1  0  0  0
 52124  1  0  0  0
 52125  1  0  0  0
 53 54  1  0  0  0
 54 55  2  0  0  0
 54126  1  0  0  0
 55 57  1  0  0  0
 55127  1  0  0  0
 56 69  2  0  0  0
 57 58  2  0  0  0
 57128  1  0  0  0
 58129  1  0  0  0
 59 60  1  0  0  0
 59 61  1  0  0  0
 59 62  1  0  0  0
 60130  1  0  0  0
 60131  1  0  0  0
 60132  1  0  0  0
 61133  1  0  0  0
 61134  1  0  0  0
 61135  1  0  0  0
 62136  1  0  0  0
 62137  1  0  0  0
 62138  1  0  0  0
 63 65  1  0  0  0
 63139  1  0  0  0
 63140  1  0  0  0
 63141  1  0  0  0
 64142  1  0  0  0
 65143  1  0  0  0
 68 76  1  0  0  0
 71 72  2  0  0  0
 71 73  1  0  0  0
 71144  1  0  0  0
 72 79  1  0  0  0
 72145  1  0  0  0
 73 74  2  0  0  0
 73 80  1  0  0  0
 74 75  1  0  0  0
 74 84  1  0  0  0
 75 79  2  0  0  0
 75 81  1  0  0  0
 76 77  2  0  0  0
 76146  1  0  0  0
 77 78  1  0  0  0
 77 83  1  0  0  0
 78 80  1  0  0  0
 78 82  2  0  0  0
 80147  1  0  0  0
 81148  1  0  0  0
 83149  1  0  0  0
M  ISO  4   1 100  68 101  76 101  81 100
M  END
> <chiral flag>
0

> <version>
0

> <s_m_source_file>
/data/baiqing/PycharmProjects/Reinvent-master-3.2/result/LINK_invent/BTK/process_docking_weight1_custom_product_contain_oxygen_bond_distance_aromatic_linkinvent_7_9_3/rearranged_h_0173.sdf

> <i_m_source_file_index>
30

> <r_mmod_Potential_Energy-OPLS-2005>
183.061172485352

> <r_mmod_Stretch_Energy-OPLS-2005>
171.216949462891

> <r_mmod_Bend_Energy-OPLS-2005>
250.41960144043

> <r_mmod_Torsional_Energy-OPLS-2005>
224.425582885742

> <r_mmod_Improper_Torsional_Energy-OPLS-2005>
4.58006858825684

> <r_mmod_Van_der_Waal_Energy-OPLS-2005>
149.689422607422

> <r_mmod_Electrostatic_Energy-OPLS-2005>
-493.434295654297

> <r_mmod_Solvation_Energy-OPLS-2005>
-261.300720214844

> <b_mmod_Minimization_Converged-OPLS-2005>
0

> <r_mmod_RMS_Derivative-OPLS-2005>
0.717498421669006

$$$$
30
                    3D
 Structure written by MMmdl.
156164  0  0  1  0            999 V2000
  -30.6618  -14.5869   20.5329 C   0  0  0  0  0  0
  -30.4310  -12.3739   19.4347 C   0  0  0  0  0  0
  -29.4987  -12.5055   18.2125 C   0  0  0  0  0  0
  -28.0229  -12.3474   18.6279 C   0  0  0  0  0  0
  -27.6507  -13.2160   19.8590 C   0  0  2  0  0  0
  -28.6962  -13.0634   20.9854 C   0  0  0  0  0  0
  -25.2546  -13.8170   20.5681 C   0  0  0  0  0  0
  -24.1827  -13.0434   20.9192 C   0  0  0  0  0  0
  -24.6393  -11.6901   20.8736 C   0  0  0  0  0  0
  -23.9060  -10.4291   21.0404 C   0  0  0  0  0  0
  -24.3614   -9.4210   21.9180 C   0  0  0  0  0  0
  -23.6293   -8.2245   22.0752 C   0  0  0  0  0  0
  -22.4277   -8.0282   21.3541 C   0  0  0  0  0  0
  -21.9897   -9.0260   20.4649 C   0  0  0  0  0  0
  -22.7227  -10.2140   20.3057 C   0  0  0  0  0  0
  -21.6845   -6.0736   22.5283 C   0  0  0  0  0  0
  -21.4017   -6.5641   23.8218 C   0  0  0  0  0  0
  -21.3657   -5.6795   24.9175 C   0  0  0  0  0  0
  -21.6043   -4.3059   24.7230 C   0  0  0  0  0  0
  -21.8816   -3.8145   23.4349 C   0  0  0  0  0  0
  -21.9199   -4.6964   22.3403 C   0  0  0  0  0  0
  -22.7851  -13.5239   21.1858 C   0  0  0  0  0  0
  -22.1667   -4.2149   21.0980 F   0  0  0  0  0  0
  -21.5623   -3.4544   25.7738 F   0  0  0  0  0  0
  -30.0134  -13.3898   20.4173 N   0  0  0  0  0  0
  -26.2978  -12.9360   20.3290 N   0  0  0  0  0  0
  -25.9310  -11.6516   20.5731 N   0  0  0  0  0  0
  -22.0479  -12.8252   22.0413 N   0  0  0  0  0  0
  -25.4263  -15.1897   20.4109 N   0  0  0  0  0  0
  -31.8278  -14.7349   20.1592 O   0  0  0  0  0  0
  -21.6643   -6.8882   21.4243 O   0  0  0  0  0  0
  -22.3541  -14.5547   20.6694 O   0  0  0  0  0  0
  -24.6204  -31.8626   23.2061 C   0  0  0  0  0  0
  -25.9078  -32.4795   23.8359 C   0  0  1  0  0  0
  -27.2274  -27.3637   20.1134 C   0  0  0  0  0  0
  -25.5936  -33.8594   24.2308 N   0  0  0  0  0  0
  -23.4125  -30.4842   21.5457 C   0  0  2  0  0  0
  -24.8643  -28.9442   20.1106 C   0  0  0  0  0  0
  -22.7445  -29.4620   22.4944 C   0  0  0  0  0  0
  -18.0284  -28.1366   22.8481 C   0  0  0  0  0  0
  -24.1497  -36.7289   23.2631 C   0  0  0  0  0  0
  -25.9496  -30.8054   21.3740 C   0  0  0  0  0  0
  -26.0289  -29.4354   20.7175 C   0  0  0  0  0  0
  -27.2174  -28.6526   20.7179 C   0  0  0  0  0  0
  -26.0512  -26.9104   19.4888 C   0  0  0  0  0  0
  -24.8754  -27.6840   19.4879 C   0  0  0  0  0  0
  -23.6280  -29.8168   20.1607 C   0  0  0  0  0  0
  -25.4122  -36.3093   24.0329 C   0  0  1  0  0  0
  -20.5877  -28.3668   23.1291 C   0  0  2  0  0  0
  -20.6763  -26.9389   22.5411 C   0  0  0  0  0  0
  -19.5752  -26.6361   21.5202 C   0  0  0  0  0  0
  -18.1933  -26.7910   22.1605 C   0  0  0  0  0  0
  -19.1527  -28.8830   23.2884 C   0  0  0  0  0  0
  -18.9459  -30.1437   23.8896 C   0  0  0  0  0  0
  -17.6461  -30.6574   24.0556 C   0  0  0  0  0  0
  -25.9047  -34.9465   23.5109 C   0  0  0  0  0  0
  -16.5357  -29.9067   23.6330 C   0  0  0  0  0  0
  -16.7271  -28.6482   23.0352 C   0  0  0  0  0  0
  -26.4507  -31.6585   25.0698 C   0  0  0  0  0  0
  -25.3763  -31.3770   26.1452 C   0  0  0  0  0  0
  -27.0297  -30.2984   24.6137 C   0  0  0  0  0  0
  -27.6089  -32.4301   25.7465 C   0  0  0  0  0  0
  -27.5590  -37.1799   24.8468 C   0  0  0  0  0  0
  -21.4162  -29.3026   22.3691 N   0  0  0  0  0  0
  -26.4308  -37.3774   23.9401 N   0  0  0  0  0  0
  -24.6788  -31.0664   22.0998 N   0  0  0  0  0  0
  -23.4192  -28.8165   23.3009 O   0  0  0  0  0  0
  -28.3059  -26.4886   20.1450 O   0  0  0  0  0  0
  -26.5588  -34.8929   22.4661 O   0  0  0  0  0  0
  -23.5376  -32.1423   23.7396 O   0  0  0  0  0  0
  -29.5576  -18.1098   19.1511 C   0  0  0  0  0  0
  -29.0119  -20.4830   18.9274 C   0  0  0  0  0  0
  -29.8257  -18.2678   20.5253 C   0  0  0  0  0  0
  -29.6699  -19.5851   21.1124 C   0  0  0  0  0  0
  -29.2587  -20.7180   20.3008 C   0  0  0  0  0  0
  -29.1573  -19.2020   18.3622 C   0  0  0  0  0  0
  -28.3439  -25.6553   21.2581 C   0  0  0  0  0  0
  -28.5782  -24.3090   21.3984 C   0  0  0  0  0  0
  -28.8561  -23.3057   20.3369 C   0  0  0  0  0  0
  -30.3605  -17.0231   21.3089 C   0  0  0  0  0  0
  -29.9436  -19.7375   22.6224 C   0  0  0  0  0  0
  -29.0435  -22.0523   20.8607 N   0  0  0  0  0  0
  -29.9100  -15.6485   20.9332 N   0  0  0  0  0  0
  -28.9256  -23.5580   19.1327 O   0  0  0  0  0  0
  -28.5379  -23.8397   22.6609 O   0  0  0  0  0  0
  -28.9096  -19.0193   17.0433 F   0  0  0  0  0  0
  -29.0323  -19.0404   23.3044 F   0  0  0  0  0  0
  -31.1579  -19.2690   22.9196 F   0  0  0  0  0  0
  -29.8951  -20.9890   23.0787 F   0  0  0  0  0  0
  -31.4721  -12.4907   19.1284 H   0  0  0  0  0  0
  -30.3603  -11.3753   19.8689 H   0  0  0  0  0  0
  -29.7550  -11.7594   17.4600 H   0  0  0  0  0  0
  -29.6470  -13.4786   17.7415 H   0  0  0  0  0  0
  -27.8559  -11.2935   18.8532 H   0  0  0  0  0  0
  -27.3683  -12.5833   17.7886 H   0  0  0  0  0  0
  -27.6720  -14.2530   19.5230 H   0  0  0  0  0  0
  -28.6959  -12.0413   21.3666 H   0  0  0  0  0  0
  -28.4454  -13.6996   21.8355 H   0  0  0  0  0  0
  -25.2758   -9.5688   22.4762 H   0  0  0  0  0  0
  -24.0003   -7.4629   22.7458 H   0  0  0  0  0  0
  -21.0828   -8.8780   19.8954 H   0  0  0  0  0  0
  -22.3682  -10.9687   19.6175 H   0  0  0  0  0  0
  -21.2009   -7.6154   23.9721 H   0  0  0  0  0  0
  -21.1481   -6.0526   25.9080 H   0  0  0  0  0  0
  -22.0598   -2.7611   23.2852 H   0  0  0  0  0  0
  -22.4093  -11.9926   22.4847 H   0  0  0  0  0  0
  -21.1095  -13.1288   22.2592 H   0  0  0  0  0  0
  -24.6548  -15.8400   20.5150 H   0  0  0  0  0  0
  -26.2708  -15.6315   20.0692 H   0  0  0  0  0  0
  -26.7127  -32.5504   23.1092 H   0  0  0  0  0  0
  -25.0167  -33.9749   25.0512 H   0  0  0  0  0  0
  -22.7032  -31.3029   21.4023 H   0  0  0  0  0  0
  -23.3761  -35.9614   23.3323 H   0  0  0  0  0  0
  -24.3586  -36.8871   22.2035 H   0  0  0  0  0  0
  -23.7253  -37.6508   23.6624 H   0  0  0  0  0  0
  -26.0757  -31.5720   20.6074 H   0  0  0  0  0  0
  -26.8294  -30.8528   22.0043 H   0  0  0  0  0  0
  -28.1118  -29.0158   21.2054 H   0  0  0  0  0  0
  -26.0405  -25.9333   19.0244 H   0  0  0  0  0  0
  -23.9819  -27.3004   19.0144 H   0  0  0  0  0  0
  -23.7410  -30.5920   19.4025 H   0  0  0  0  0  0
  -22.7516  -29.2387   19.8637 H   0  0  0  0  0  0
  -25.1299  -36.1943   25.0815 H   0  0  0  0  0  0
  -20.9973  -28.3234   24.1407 H   0  0  0  0  0  0
  -20.5646  -26.2267   23.3598 H   0  0  0  0  0  0
  -21.6639  -26.7399   22.1228 H   0  0  0  0  0  0
  -19.6922  -25.6276   21.1225 H   0  0  0  0  0  0
  -19.6700  -27.3165   20.6732 H   0  0  0  0  0  0
  -17.4200  -26.6658   21.4014 H   0  0  0  0  0  0
  -18.0344  -26.0041   22.8986 H   0  0  0  0  0  0
  -19.7937  -30.7252   24.2247 H   0  0  0  0  0  0
  -17.5018  -31.6259   24.5144 H   0  0  0  0  0  0
  -15.5362  -30.2965   23.7645 H   0  0  0  0  0  0
  -15.8674  -28.0796   22.7067 H   0  0  0  0  0  0
  -24.5907  -30.7135   25.7834 H   0  0  0  0  0  0
  -24.9001  -32.2960   26.4871 H   0  0  0  0  0  0
  -25.8095  -30.8975   27.0230 H   0  0  0  0  0  0
  -26.2834  -29.6767   24.1171 H   0  0  0  0  0  0
  -27.3991  -29.7218   25.4630 H   0  0  0  0  0  0
  -27.8727  -30.4251   23.9337 H   0  0  0  0  0  0
  -27.2706  -33.3586   26.2082 H   0  0  0  0  0  0
  -28.3883  -32.6879   25.0281 H   0  0  0  0  0  0
  -28.0766  -31.8392   26.5351 H   0  0  0  0  0  0
  -28.2634  -38.0073   24.7483 H   0  0  0  0  0  0
  -28.1062  -36.2603   24.6329 H   0  0  0  0  0  0
  -27.2308  -37.1497   25.8875 H   0  0  0  0  0  0
  -20.9316  -29.8749   21.6922 H   0  0  0  0  0  0
  -26.0204  -38.2852   24.1396 H   0  0  0  0  0  0
  -29.6813  -17.1421   18.6857 H   0  0  0  0  0  0
  -28.6901  -21.2804   18.2775 H   0  0  0  0  0  0
  -28.1436  -26.2468   22.1415 H   0  0  0  0  0  0
  -30.1027  -17.1144   22.3614 H   0  0  0  0  0  0
  -31.4501  -17.0702   21.2733 H   0  0  0  0  0  0
  -29.0262  -22.0946   21.8752 H   0  0  0  0  0  0
  -28.9473  -15.4332   21.1444 H   0  0  0  0  0  0
  -28.3392  -24.5674   23.2333 H   0  0  0  0  0  0
  1 25  1  0  0  0
  1 30  2  0  0  0
  1 83  1  0  0  0
  2  3  1  0  0  0
  2 25  1  0  0  0
  2 90  1  0  0  0
  2 91  1  0  0  0
  3  4  1  0  0  0
  3 92  1  0  0  0
  3 93  1  0  0  0
  4  5  1  0  0  0
  4 94  1  0  0  0
  4 95  1  0  0  0
  5  6  1  0  0  0
  5 26  1  0  0  0
  5 96  1  0  0  0
  6 25  1  0  0  0
  6 97  1  0  0  0
  6 98  1  0  0  0
  7  8  2  0  0  0
  7 26  1  0  0  0
  7 29  1  0  0  0
  8  9  1  0  0  0
  8 22  1  0  0  0
  9 10  1  0  0  0
  9 27  2  0  0  0
 10 11  2  0  0  0
 10 15  1  0  0  0
 11 12  1  0  0  0
 11 99  1  0  0  0
 12 13  2  0  0  0
 12100  1  0  0  0
 13 14  1  0  0  0
 13 31  1  0  0  0
 14 15  2  0  0  0
 14101  1  0  0  0
 15102  1  0  0  0
 16 17  2  0  0  0
 16 21  1  0  0  0
 16 31  1  0  0  0
 17 18  1  0  0  0
 17103  1  0  0  0
 18 19  2  0  0  0
 18104  1  0  0  0
 19 20  1  0  0  0
 19 24  1  0  0  0
 20 21  2  0  0  0
 20105  1  0  0  0
 21 23  1  0  0  0
 22 28  1  0  0  0
 22 32  2  0  0  0
 26 27  1  0  0  0
 28106  1  0  0  0
 28107  1  0  0  0
 29108  1  0  0  0
 29109  1  0  0  0
 33 34  1  0  0  0
 33 66  1  0  0  0
 33 70  2  0  0  0
 34 36  1  0  0  0
 34 59  1  0  0  0
 34110  1  0  0  0
 35 44  2  0  0  0
 35 45  1  0  0  0
 35 68  1  0  0  0
 36 56  1  0  0  0
 36111  1  0  0  0
 37 39  1  0  0  0
 37 47  1  0  0  0
 37 66  1  0  0  0
 37112  1  0  0  0
 38 43  2  0  0  0
 38 46  1  0  0  0
 38 47  1  0  0  0
 39 64  1  0  0  0
 39 67  2  0  0  0
 40 52  1  0  0  0
 40 53  2  0  0  0
 40 58  1  0  0  0
 41113  1  0  0  0
 41114  1  0  0  0
 41115  1  0  0  0
 41 48  1  0  0  0
 42 43  1  0  0  0
 42 66  1  0  0  0
 42116  1  0  0  0
 42117  1  0  0  0
 43 44  1  0  0  0
 44118  1  0  0  0
 45 46  2  0  0  0
 45119  1  0  0  0
 46120  1  0  0  0
 47121  1  0  0  0
 47122  1  0  0  0
 48 56  1  0  0  0
 48 65  1  0  0  0
 48123  1  0  0  0
 49 50  1  0  0  0
 49 53  1  0  0  0
 49 64  1  0  0  0
 49124  1  0  0  0
 50 51  1  0  0  0
 50125  1  0  0  0
 50126  1  0  0  0
 51 52  1  0  0  0
 51127  1  0  0  0
 51128  1  0  0  0
 52129  1  0  0  0
 52130  1  0  0  0
 53 54  1  0  0  0
 54 55  2  0  0  0
 54131  1  0  0  0
 55 57  1  0  0  0
 55132  1  0  0  0
 56 69  2  0  0  0
 57 58  2  0  0  0
 57133  1  0  0  0
 58134  1  0  0  0
 59 60  1  0  0  0
 59 61  1  0  0  0
 59 62  1  0  0  0
 60135  1  0  0  0
 60136  1  0  0  0
 60137  1  0  0  0
 61138  1  0  0  0
 61139  1  0  0  0
 61140  1  0  0  0
 62141  1  0  0  0
 62142  1  0  0  0
 62143  1  0  0  0
 63 65  1  0  0  0
 63144  1  0  0  0
 63145  1  0  0  0
 63146  1  0  0  0
 64147  1  0  0  0
 65148  1  0  0  0
 68 77  1  0  0  0
 71 73  2  0  0  0
 71 76  1  0  0  0
 71149  1  0  0  0
 72 75  1  0  0  0
 72 76  2  0  0  0
 72150  1  0  0  0
 73 74  1  0  0  0
 73 80  1  0  0  0
 74 75  2  0  0  0
 74 81  1  0  0  0
 75 82  1  0  0  0
 76 86  1  0  0  0
 77 78  2  0  0  0
 77151  1  0  0  0
 78 79  1  0  0  0
 78 85  1  0  0  0
 79 82  1  0  0  0
 79 84  2  0  0  0
 80 83  1  0  0  0
 80152  1  0  0  0
 80153  1  0  0  0
 81 87  1  0  0  0
 81 88  1  0  0  0
 81 89  1  0  0  0
 82154  1  0  0  0
 83155  1  0  0  0
 85156  1  0  0  0
M  ISO  4   1 100  68 101  77 101  83 100
M  END
> <chiral flag>
0

> <version>
0

> <s_m_source_file>
/data/baiqing/PycharmProjects/Reinvent-master-3.2/result/LINK_invent/BTK/process_docking_weight1_custom_product_contain_oxygen_bond_distance_aromatic_linkinvent_7_9_3/rearranged_h_0173.sdf

> <i_m_source_file_index>
31

> <r_mmod_Potential_Energy-OPLS-2005>
1.80859637260437

> <r_mmod_Stretch_Energy-OPLS-2005>
69.7588806152344

> <r_mmod_Bend_Energy-OPLS-2005>
147.721878051758

> <r_mmod_Torsional_Energy-OPLS-2005>
211.54411315918

> <r_mmod_Improper_Torsional_Energy-OPLS-2005>
3.92223048210144

> <r_mmod_Van_der_Waal_Energy-OPLS-2005>
159.332046508789

> <r_mmod_Electrostatic_Energy-OPLS-2005>
-402.729034423828

> <r_mmod_Solvation_Energy-OPLS-2005>
-224.530288696289

> <b_mmod_Minimization_Converged-OPLS-2005>
0

> <r_mmod_RMS_Derivative-OPLS-2005>
2.45927453041077

$$$$
31
                    3D
 Structure written by MMmdl.
159167  0  0  1  0            999 V2000
  -30.7256  -14.4089   20.6397 C   0  0  0  0  0  0
  -30.4252  -12.2958   19.4008 C   0  0  0  0  0  0
  -29.4903  -12.5199   18.1954 C   0  0  0  0  0  0
  -28.0104  -12.3799   18.6076 C   0  0  0  0  0  0
  -27.6650  -13.2025   19.8773 C   0  0  2  0  0  0
  -28.7043  -12.9384   20.9899 C   0  0  0  0  0  0
  -25.2594  -13.8154   20.5666 C   0  0  0  0  0  0
  -24.1827  -13.0436   20.9145 C   0  0  0  0  0  0
  -24.6375  -11.6904   20.8698 C   0  0  0  0  0  0
  -23.9019  -10.4307   21.0368 C   0  0  0  0  0  0
  -24.3575   -9.4227   21.9145 C   0  0  0  0  0  0
  -23.6275   -8.2255   22.0725 C   0  0  0  0  0  0
  -22.4261   -8.0274   21.3527 C   0  0  0  0  0  0
  -21.9878   -9.0239   20.4629 C   0  0  0  0  0  0
  -22.7186  -10.2132   20.3024 C   0  0  0  0  0  0
  -21.6855   -6.0724   22.5278 C   0  0  0  0  0  0
  -21.4025   -6.5630   23.8212 C   0  0  0  0  0  0
  -21.3658   -5.6780   24.9170 C   0  0  0  0  0  0
  -21.6040   -4.3042   24.7222 C   0  0  0  0  0  0
  -21.8816   -3.8134   23.4344 C   0  0  0  0  0  0
  -21.9197   -4.6951   22.3402 C   0  0  0  0  0  0
  -22.7852  -13.5246   21.1847 C   0  0  0  0  0  0
  -22.1654   -4.2131   21.0977 F   0  0  0  0  0  0
  -21.5630   -3.4526   25.7737 F   0  0  0  0  0  0
  -30.0427  -13.2496   20.4529 N   0  0  0  0  0  0
  -26.3029  -12.9313   20.3347 N   0  0  0  0  0  0
  -25.9303  -11.6474   20.5722 N   0  0  0  0  0  0
  -22.0479  -12.8256   22.0412 N   0  0  0  0  0  0
  -25.4349  -15.1874   20.4134 N   0  0  0  0  0  0
  -31.8099  -14.6437   20.0943 O   0  0  0  0  0  0
  -21.6634   -6.8866   21.4239 O   0  0  0  0  0  0
  -22.3541  -14.5555   20.6704 O   0  0  0  0  0  0
  -24.6106  -31.8716   23.2144 C   0  0  0  0  0  0
  -25.9020  -32.4846   23.8426 C   0  0  1  0  0  0
  -27.2419  -27.4671   20.0806 C   0  0  0  0  0  0
  -25.5897  -33.8642   24.2358 N   0  0  0  0  0  0
  -23.3973  -30.4965   21.5524 C   0  0  2  0  0  0
  -24.8458  -28.9667   20.1170 C   0  0  0  0  0  0
  -22.7381  -29.4688   22.4987 C   0  0  0  0  0  0
  -18.0269  -28.1371   22.8492 C   0  0  0  0  0  0
  -24.1488  -36.7326   23.2639 C   0  0  0  0  0  0
  -25.9253  -30.8414   21.3688 C   0  0  0  0  0  0
  -26.0016  -29.4773   20.7204 C   0  0  0  0  0  0
  -27.1972  -28.7259   20.7173 C   0  0  0  0  0  0
  -26.0648  -26.9630   19.4836 C   0  0  0  0  0  0
  -24.8692  -27.7031   19.5037 C   0  0  0  0  0  0
  -23.6068  -29.8301   20.1658 C   0  0  0  0  0  0
  -25.4108  -36.3129   24.0344 C   0  0  1  0  0  0
  -20.5859  -28.3663   23.1314 C   0  0  2  0  0  0
  -20.6766  -26.9399   22.5416 C   0  0  0  0  0  0
  -19.5747  -26.6377   21.5209 C   0  0  0  0  0  0
  -18.1921  -26.7916   22.1619 C   0  0  0  0  0  0
  -19.1522  -28.8831   23.2906 C   0  0  0  0  0  0
  -18.9451  -30.1433   23.8916 C   0  0  0  0  0  0
  -17.6456  -30.6585   24.0564 C   0  0  0  0  0  0
  -25.9032  -34.9492   23.5148 C   0  0  0  0  0  0
  -16.5344  -29.9089   23.6319 C   0  0  0  0  0  0
  -16.7258  -28.6506   23.0341 C   0  0  0  0  0  0
  -26.4464  -31.6615   25.0739 C   0  0  0  0  0  0
  -25.3739  -31.3717   26.1492 C   0  0  0  0  0  0
  -27.0291  -30.3056   24.6118 C   0  0  0  0  0  0
  -27.6055  -32.4326   25.7492 C   0  0  0  0  0  0
  -27.5583  -37.1823   24.8466 C   0  0  0  0  0  0
  -21.4124  -29.3038   22.3720 N   0  0  0  0  0  0
  -26.4300  -37.3805   23.9402 N   0  0  0  0  0  0
  -24.6620  -31.0846   22.1035 N   0  0  0  0  0  0
  -23.4170  -28.8221   23.3017 O   0  0  0  0  0  0
  -28.4225  -26.7553   20.0840 O   0  0  0  0  0  0
  -26.5585  -34.8937   22.4702 O   0  0  0  0  0  0
  -23.5310  -32.1465   23.7555 O   0  0  0  0  0  0
  -31.7115  -18.5996   22.1409 C   0  0  0  0  0  0
  -30.4238  -16.6904   21.3982 C   0  0  0  0  0  0
  -31.4540  -17.2147   22.2048 C   0  0  0  0  0  0
  -29.6842  -17.5716   20.5849 C   0  0  0  0  0  0
  -30.0350  -18.9405   20.5761 C   0  0  0  0  0  0
  -28.8374  -22.3031   19.3849 C   0  0  0  0  0  0
  -30.3720  -26.5837   18.7137 C   0  0  0  0  0  0
  -29.3180  -19.9024   19.6417 C   0  0  0  0  0  0
  -29.2355  -23.7607   19.6758 C   0  0  0  0  0  0
  -28.5930  -24.7347   18.6591 C   0  0  0  0  0  0
  -28.8810  -26.2423   18.8338 C   0  0  1  0  0  0
  -31.0295  -19.4551   21.3428 N   0  0  0  0  0  0
  -30.1104  -15.3119   21.4118 N   0  0  0  0  0  0
  -29.5533  -21.3176   19.9366 N   0  0  0  0  0  0
  -27.8855  -22.0574   18.6406 O   0  0  0  0  0  0
  -32.1794  -16.4082   23.0197 F   0  0  0  0  0  0
  -28.6713  -17.1022   19.8139 F   0  0  0  0  0  0
  -31.4677  -12.4031   19.0935 H   0  0  0  0  0  0
  -30.3334  -11.2746   19.7729 H   0  0  0  0  0  0
  -29.7305  -11.8075   17.4044 H   0  0  0  0  0  0
  -29.6618  -13.5128   17.7767 H   0  0  0  0  0  0
  -27.8141  -11.3213   18.7882 H   0  0  0  0  0  0
  -27.3557  -12.6700   17.7835 H   0  0  0  0  0  0
  -27.7240  -14.2569   19.6029 H   0  0  0  0  0  0
  -28.6760  -11.8883   21.2846 H   0  0  0  0  0  0
  -28.4608  -13.4964   21.8933 H   0  0  0  0  0  0
  -25.2711   -9.5721   22.4720 H   0  0  0  0  0  0
  -23.9989   -7.4652   22.7443 H   0  0  0  0  0  0
  -21.0798   -8.8738   19.8954 H   0  0  0  0  0  0
  -22.3603  -10.9657   19.6133 H   0  0  0  0  0  0
  -21.2019   -7.6139   23.9718 H   0  0  0  0  0  0
  -21.1481   -6.0499   25.9074 H   0  0  0  0  0  0
  -22.0601   -2.7600   23.2840 H   0  0  0  0  0  0
  -22.4085  -11.9936   22.4856 H   0  0  0  0  0  0
  -21.1086  -13.1279   22.2585 H   0  0  0  0  0  0
  -24.6750  -15.8457   20.5456 H   0  0  0  0  0  0
  -26.2986  -15.6343   20.1285 H   0  0  0  0  0  0
  -26.7092  -32.5580   23.1194 H   0  0  0  0  0  0
  -25.0045  -33.9816   25.0502 H   0  0  0  0  0  0
  -22.6855  -31.3130   21.4141 H   0  0  0  0  0  0
  -23.3746  -35.9667   23.3327 H   0  0  0  0  0  0
  -24.3572  -36.8909   22.2046 H   0  0  0  0  0  0
  -23.7252  -37.6548   23.6627 H   0  0  0  0  0  0
  -26.0386  -31.6078   20.6006 H   0  0  0  0  0  0
  -26.8128  -30.8941   21.9870 H   0  0  0  0  0  0
  -28.0885  -29.1143   21.1891 H   0  0  0  0  0  0
  -26.0485  -25.9978   19.0063 H   0  0  0  0  0  0
  -23.9782  -27.2997   19.0425 H   0  0  0  0  0  0
  -23.7135  -30.6057   19.4066 H   0  0  0  0  0  0
  -22.7319  -29.2474   19.8695 H   0  0  0  0  0  0
  -25.1288  -36.2003   25.0840 H   0  0  0  0  0  0
  -20.9962  -28.3236   24.1431 H   0  0  0  0  0  0
  -20.5656  -26.2274   23.3606 H   0  0  0  0  0  0
  -21.6635  -26.7434   22.1216 H   0  0  0  0  0  0
  -19.6905  -25.6289   21.1233 H   0  0  0  0  0  0
  -19.6689  -27.3192   20.6744 H   0  0  0  0  0  0
  -17.4193  -26.6662   21.4022 H   0  0  0  0  0  0
  -18.0324  -26.0055   22.9013 H   0  0  0  0  0  0
  -19.7932  -30.7237   24.2300 H   0  0  0  0  0  0
  -17.5017  -31.6265   24.5165 H   0  0  0  0  0  0
  -15.5345  -30.3001   23.7636 H   0  0  0  0  0  0
  -15.8656  -28.0830   22.7043 H   0  0  0  0  0  0
  -24.5914  -30.7057   25.7829 H   0  0  0  0  0  0
  -24.8922  -32.2869   26.4945 H   0  0  0  0  0  0
  -25.8097  -30.8885   27.0244 H   0  0  0  0  0  0
  -26.2830  -29.6818   24.1172 H   0  0  0  0  0  0
  -27.4050  -29.7291   25.4581 H   0  0  0  0  0  0
  -27.8676  -30.4363   23.9271 H   0  0  0  0  0  0
  -27.2687  -33.3612   26.2109 H   0  0  0  0  0  0
  -28.3841  -32.6904   25.0301 H   0  0  0  0  0  0
  -28.0748  -31.8422   26.5373 H   0  0  0  0  0  0
  -28.2628  -38.0094   24.7493 H   0  0  0  0  0  0
  -28.1054  -36.2631   24.6321 H   0  0  0  0  0  0
  -27.2296  -37.1505   25.8868 H   0  0  0  0  0  0
  -20.9266  -29.8767   21.6961 H   0  0  0  0  0  0
  -26.0204  -38.2893   24.1377 H   0  0  0  0  0  0
  -32.4938  -19.0354   22.7444 H   0  0  0  0  0  0
  -30.7876  -26.2093   17.7776 H   0  0  0  0  0  0
  -30.9495  -26.1573   19.5335 H   0  0  0  0  0  0
  -30.5250  -27.6635   18.7309 H   0  0  0  0  0  0
  -28.2497  -19.6783   19.6632 H   0  0  0  0  0  0
  -29.6613  -19.6957   18.6274 H   0  0  0  0  0  0
  -30.3215  -23.8507   19.6404 H   0  0  0  0  0  0
  -28.9295  -24.0178   20.6906 H   0  0  0  0  0  0
  -27.5181  -24.5727   18.6635 H   0  0  0  0  0  0
  -28.9183  -24.4481   17.6576 H   0  0  0  0  0  0
  -28.3764  -26.7651   18.0184 H   0  0  0  0  0  0
  -29.1921  -15.0615   21.7394 H   0  0  0  0  0  0
  -30.3178  -21.5159   20.5699 H   0  0  0  0  0  0
  1 25  1  0  0  0
  1 30  2  0  0  0
  1 83  1  0  0  0
  2  3  1  0  0  0
  2 25  1  0  0  0
  2 88  1  0  0  0
  2 89  1  0  0  0
  3  4  1  0  0  0
  3 90  1  0  0  0
  3 91  1  0  0  0
  4  5  1  0  0  0
  4 92  1  0  0  0
  4 93  1  0  0  0
  5  6  1  0  0  0
  5 26  1  0  0  0
  5 94  1  0  0  0
  6 25  1  0  0  0
  6 95  1  0  0  0
  6 96  1  0  0  0
  7  8  2  0  0  0
  7 26  1  0  0  0
  7 29  1  0  0  0
  8  9  1  0  0  0
  8 22  1  0  0  0
  9 10  1  0  0  0
  9 27  2  0  0  0
 10 11  2  0  0  0
 10 15  1  0  0  0
 11 12  1  0  0  0
 11 97  1  0  0  0
 12 13  2  0  0  0
 12 98  1  0  0  0
 13 14  1  0  0  0
 13 31  1  0  0  0
 14 15  2  0  0  0
 14 99  1  0  0  0
 15100  1  0  0  0
 16 17  2  0  0  0
 16 21  1  0  0  0
 16 31  1  0  0  0
 17 18  1  0  0  0
 17101  1  0  0  0
 18 19  2  0  0  0
 18102  1  0  0  0
 19 20  1  0  0  0
 19 24  1  0  0  0
 20 21  2  0  0  0
 20103  1  0  0  0
 21 23  1  0  0  0
 22 28  1  0  0  0
 22 32  2  0  0  0
 26 27  1  0  0  0
 28104  1  0  0  0
 28105  1  0  0  0
 29106  1  0  0  0
 29107  1  0  0  0
 33 34  1  0  0  0
 33 66  1  0  0  0
 33 70  2  0  0  0
 34 36  1  0  0  0
 34 59  1  0  0  0
 34108  1  0  0  0
 35 44  2  0  0  0
 35 45  1  0  0  0
 35 68  1  0  0  0
 36 56  1  0  0  0
 36109  1  0  0  0
 37 39  1  0  0  0
 37 47  1  0  0  0
 37 66  1  0  0  0
 37110  1  0  0  0
 38 43  2  0  0  0
 38 46  1  0  0  0
 38 47  1  0  0  0
 39 64  1  0  0  0
 39 67  2  0  0  0
 40 52  1  0  0  0
 40 53  2  0  0  0
 40 58  1  0  0  0
 41111  1  0  0  0
 41112  1  0  0  0
 41113  1  0  0  0
 41 48  1  0  0  0
 42 43  1  0  0  0
 42 66  1  0  0  0
 42114  1  0  0  0
 42115  1  0  0  0
 43 44  1  0  0  0
 44116  1  0  0  0
 45 46  2  0  0  0
 45117  1  0  0  0
 46118  1  0  0  0
 47119  1  0  0  0
 47120  1  0  0  0
 48 56  1  0  0  0
 48 65  1  0  0  0
 48121  1  0  0  0
 49 50  1  0  0  0
 49 53  1  0  0  0
 49 64  1  0  0  0
 49122  1  0  0  0
 50 51  1  0  0  0
 50123  1  0  0  0
 50124  1  0  0  0
 51 52  1  0  0  0
 51125  1  0  0  0
 51126  1  0  0  0
 52127  1  0  0  0
 52128  1  0  0  0
 53 54  1  0  0  0
 54 55  2  0  0  0
 54129  1  0  0  0
 55 57  1  0  0  0
 55130  1  0  0  0
 56 69  2  0  0  0
 57 58  2  0  0  0
 57131  1  0  0  0
 58132  1  0  0  0
 59 60  1  0  0  0
 59 61  1  0  0  0
 59 62  1  0  0  0
 60133  1  0  0  0
 60134  1  0  0  0
 60135  1  0  0  0
 61136  1  0  0  0
 61137  1  0  0  0
 61138  1  0  0  0
 62139  1  0  0  0
 62140  1  0  0  0
 62141  1  0  0  0
 63 65  1  0  0  0
 63142  1  0  0  0
 63143  1  0  0  0
 63144  1  0  0  0
 64145  1  0  0  0
 65146  1  0  0  0
 68 81  1  0  0  0
 71 73  2  0  0  0
 71 82  1  0  0  0
 71147  1  0  0  0
 72 73  1  0  0  0
 72 74  2  0  0  0
 72 83  1  0  0  0
 73 86  1  0  0  0
 74 75  1  0  0  0
 74 87  1  0  0  0
 75 78  1  0  0  0
 75 82  2  0  0  0
 76 79  1  0  0  0
 76 84  1  0  0  0
 76 85  2  0  0  0
 77148  1  0  0  0
 77149  1  0  0  0
 77150  1  0  0  0
 77 81  1  0  0  0
 78 84  1  0  0  0
 78151  1  0  0  0
 78152  1  0  0  0
 79 80  1  0  0  0
 79153  1  0  0  0
 79154  1  0  0  0
 80 81  1  0  0  0
 80155  1  0  0  0
 80156  1  0  0  0
 81157  1  0  0  0
 83158  1  0  0  0
 84159  1  0  0  0
M  ISO  4   1 100  68 101  81 101  83 100
M  END
> <chiral flag>
0

> <version>
0

> <s_m_source_file>
/data/baiqing/PycharmProjects/Reinvent-master-3.2/result/LINK_invent/BTK/process_docking_weight1_custom_product_contain_oxygen_bond_distance_aromatic_linkinvent_7_9_3/rearranged_h_0173.sdf

> <i_m_source_file_index>
32

> <r_mmod_Potential_Energy-OPLS-2005>
-328.845367431641

> <r_mmod_Stretch_Energy-OPLS-2005>
33.2942771911621

> <r_mmod_Bend_Energy-OPLS-2005>
90.6219482421875

> <r_mmod_Torsional_Energy-OPLS-2005>
244.189041137695

> <r_mmod_Improper_Torsional_Energy-OPLS-2005>
3.32788610458374

> <r_mmod_Van_der_Waal_Energy-OPLS-2005>
163.441680908203

> <r_mmod_Electrostatic_Energy-OPLS-2005>
-642.319274902344

> <r_mmod_Solvation_Energy-OPLS-2005>
-229.544372558594

> <b_mmod_Minimization_Converged-OPLS-2005>
0

> <r_mmod_RMS_Derivative-OPLS-2005>
2.60023713111877

$$$$
32
                    3D
 Structure written by MMmdl.
160168  0  0  1  0            999 V2000
  -30.6890  -14.5041   20.4745 C   0  0  0  0  0  0
  -30.4231  -12.3030   19.4130 C   0  0  0  0  0  0
  -29.4982  -12.4878   18.1909 C   0  0  0  0  0  0
  -28.0139  -12.3690   18.5999 C   0  0  0  0  0  0
  -27.6591  -13.2117   19.8558 C   0  0  2  0  0  0
  -28.7068  -13.0211   20.9755 C   0  0  0  0  0  0
  -25.2578  -13.8156   20.5655 C   0  0  0  0  0  0
  -24.1838  -13.0424   20.9151 C   0  0  0  0  0  0
  -24.6401  -11.6887   20.8706 C   0  0  0  0  0  0
  -23.9043  -10.4284   21.0385 C   0  0  0  0  0  0
  -24.3612   -9.4217   21.9168 C   0  0  0  0  0  0
  -23.6320   -8.2240   22.0731 C   0  0  0  0  0  0
  -22.4299   -8.0264   21.3523 C   0  0  0  0  0  0
  -21.9909   -9.0236   20.4632 C   0  0  0  0  0  0
  -22.7216  -10.2128   20.3044 C   0  0  0  0  0  0
  -21.6861   -6.0733   22.5284 C   0  0  0  0  0  0
  -21.4008   -6.5645   23.8220 C   0  0  0  0  0  0
  -21.3650   -5.6793   24.9183 C   0  0  0  0  0  0
  -21.6042   -4.3066   24.7219 C   0  0  0  0  0  0
  -21.8821   -3.8146   23.4353 C   0  0  0  0  0  0
  -21.9189   -4.6954   22.3405 C   0  0  0  0  0  0
  -22.7856  -13.5228   21.1831 C   0  0  0  0  0  0
  -22.1661   -4.2144   21.0976 F   0  0  0  0  0  0
  -21.5631   -3.4567   25.7734 F   0  0  0  0  0  0
  -30.0317  -13.3132   20.4109 N   0  0  0  0  0  0
  -26.3012  -12.9347   20.3265 N   0  0  0  0  0  0
  -25.9324  -11.6494   20.5681 N   0  0  0  0  0  0
  -22.0460  -12.8234   22.0388 N   0  0  0  0  0  0
  -25.4338  -15.1889   20.4101 N   0  0  0  0  0  0
  -31.8806  -14.6101   20.1718 O   0  0  0  0  0  0
  -21.6631   -6.8879   21.4246 O   0  0  0  0  0  0
  -22.3560  -14.5538   20.6693 O   0  0  0  0  0  0
  -24.6212  -31.8687   23.2133 C   0  0  0  0  0  0
  -25.9093  -32.4829   23.8418 C   0  0  1  0  0  0
  -27.2033  -27.3857   20.0674 C   0  0  0  0  0  0
  -25.5953  -33.8629   24.2337 N   0  0  0  0  0  0
  -23.4087  -30.4993   21.5569 C   0  0  2  0  0  0
  -24.8445  -28.9757   20.1053 C   0  0  0  0  0  0
  -22.7464  -29.4648   22.4995 C   0  0  0  0  0  0
  -18.0281  -28.1363   22.8509 C   0  0  0  0  0  0
  -24.1484  -36.7319   23.2638 C   0  0  0  0  0  0
  -25.9482  -30.8103   21.3829 C   0  0  0  0  0  0
  -26.0125  -29.4473   20.7176 C   0  0  0  0  0  0
  -27.1921  -28.6556   20.7053 C   0  0  0  0  0  0
  -26.0178  -26.9709   19.4107 C   0  0  0  0  0  0
  -24.8464  -27.7399   19.4483 C   0  0  0  0  0  0
  -23.6141  -29.8497   20.1660 C   0  0  0  0  0  0
  -25.4105  -36.3113   24.0340 C   0  0  1  0  0  0
  -20.5888  -28.3645   23.1334 C   0  0  2  0  0  0
  -20.6776  -26.9385   22.5431 C   0  0  0  0  0  0
  -19.5729  -26.6368   21.5242 C   0  0  0  0  0  0
  -18.1911  -26.7909   22.1649 C   0  0  0  0  0  0
  -19.1540  -28.8815   23.2914 C   0  0  0  0  0  0
  -18.9453  -30.1437   23.8900 C   0  0  0  0  0  0
  -17.6457  -30.6572   24.0551 C   0  0  0  0  0  0
  -25.9042  -34.9485   23.5122 C   0  0  0  0  0  0
  -16.5345  -29.9065   23.6337 C   0  0  0  0  0  0
  -16.7275  -28.6486   23.0345 C   0  0  0  0  0  0
  -26.4482  -31.6631   25.0775 C   0  0  0  0  0  0
  -25.3741  -31.3798   26.1533 C   0  0  0  0  0  0
  -27.0309  -30.3057   24.6210 C   0  0  0  0  0  0
  -27.6034  -32.4384   25.7539 C   0  0  0  0  0  0
  -27.5582  -37.1823   24.8461 C   0  0  0  0  0  0
  -21.4180  -29.3022   22.3746 N   0  0  0  0  0  0
  -26.4285  -37.3812   23.9412 N   0  0  0  0  0  0
  -24.6783  -31.0746   22.1068 N   0  0  0  0  0  0
  -23.4233  -28.8169   23.3017 O   0  0  0  0  0  0
  -28.3344  -26.5752   20.1026 O   0  0  0  0  0  0
  -26.5581  -34.8938   22.4670 O   0  0  0  0  0  0
  -23.5399  -32.1458   23.7512 O   0  0  0  0  0  0
  -31.1084  -18.6428   18.8316 C   0  0  0  0  0  0
  -30.1758  -16.9497   20.3134 C   0  0  0  0  0  0
  -30.8619  -17.2846   19.1191 C   0  0  0  0  0  0
  -29.6658  -18.0262   21.0877 C   0  0  0  0  0  0
  -29.9493  -19.3724   20.7016 C   0  0  0  0  0  0
  -29.0973  -24.1711   20.3371 C   0  0  0  0  0  0
  -30.1229  -20.5685   22.9285 C   0  0  0  0  0  0
  -28.6765  -22.2686   18.6455 C   0  0  0  0  0  0
  -28.1577  -25.1969   19.6593 C   0  0  0  0  0  0
  -29.4790  -20.5900   21.5268 C   0  0  1  0  0  0
  -28.7690  -22.6515   20.1428 C   0  0  1  0  0  0
  -30.6935  -19.6681   19.6096 N   0  0  0  0  0  0
  -29.9159  -15.5879   20.7105 N   0  0  0  0  0  0
  -29.8302  -21.8734   20.8457 N   0  3  0  0  0  0
  -30.0441  -24.5545   21.0345 O   0  0  0  0  0  0
  -31.2493  -16.3397   18.2275 F   0  0  0  0  0  0
  -28.9241  -17.7678   22.1914 F   0  0  0  0  0  0
  -31.4700  -12.3907   19.1113 H   0  0  0  0  0  0
  -30.3141  -11.2954   19.8183 H   0  0  0  0  0  0
  -29.7364  -11.7432   17.4311 H   0  0  0  0  0  0
  -29.6860  -13.4586   17.7286 H   0  0  0  0  0  0
  -27.8038  -11.3164   18.7876 H   0  0  0  0  0  0
  -27.3702  -12.6508   17.7638 H   0  0  0  0  0  0
  -27.6934  -14.2562   19.5458 H   0  0  0  0  0  0
  -28.6833  -11.9928   21.3390 H   0  0  0  0  0  0
  -28.4835  -13.6542   21.8354 H   0  0  0  0  0  0
  -25.2755   -9.5743   22.4728 H   0  0  0  0  0  0
  -24.0048   -7.4657   22.7478 H   0  0  0  0  0  0
  -21.0818   -8.8758   19.8987 H   0  0  0  0  0  0
  -22.3657  -10.9660   19.6160 H   0  0  0  0  0  0
  -21.1995   -7.6164   23.9734 H   0  0  0  0  0  0
  -21.1472   -6.0513   25.9092 H   0  0  0  0  0  0
  -22.0606   -2.7615   23.2835 H   0  0  0  0  0  0
  -22.4051  -11.9933   22.4835 H   0  0  0  0  0  0
  -21.1086  -13.1294   22.2546 H   0  0  0  0  0  0
  -24.6781  -15.8527   20.5431 H   0  0  0  0  0  0
  -26.2903  -15.6288   20.0973 H   0  0  0  0  0  0
  -26.7158  -32.5488   23.1170 H   0  0  0  0  0  0
  -25.0170  -33.9798   25.0525 H   0  0  0  0  0  0
  -22.6969  -31.3179   21.4291 H   0  0  0  0  0  0
  -23.3754  -35.9646   23.3307 H   0  0  0  0  0  0
  -24.3574  -36.8924   22.2052 H   0  0  0  0  0  0
  -23.7233  -37.6527   23.6640 H   0  0  0  0  0  0
  -26.0823  -31.5794   20.6209 H   0  0  0  0  0  0
  -26.8291  -30.8468   22.0123 H   0  0  0  0  0  0
  -28.0891  -29.0039   21.1986 H   0  0  0  0  0  0
  -25.9491  -26.0591   18.8363 H   0  0  0  0  0  0
  -23.9569  -27.3880   18.9422 H   0  0  0  0  0  0
  -23.7233  -30.6317   19.4144 H   0  0  0  0  0  0
  -22.7332  -29.2804   19.8667 H   0  0  0  0  0  0
  -25.1286  -36.1980   25.0838 H   0  0  0  0  0  0
  -20.9978  -28.3191   24.1453 H   0  0  0  0  0  0
  -20.5716  -26.2239   23.3615 H   0  0  0  0  0  0
  -21.6633  -26.7438   22.1189 H   0  0  0  0  0  0
  -19.6881  -25.6288   21.1238 H   0  0  0  0  0  0
  -19.6661  -27.3207   20.6794 H   0  0  0  0  0  0
  -17.4207  -26.6704   21.4022 H   0  0  0  0  0  0
  -18.0263  -26.0041   22.9019 H   0  0  0  0  0  0
  -19.7925  -30.7251   24.2273 H   0  0  0  0  0  0
  -17.5002  -31.6261   24.5139 H   0  0  0  0  0  0
  -15.5334  -30.2940   23.7674 H   0  0  0  0  0  0
  -15.8684  -28.0804   22.7037 H   0  0  0  0  0  0
  -24.5852  -30.7198   25.7911 H   0  0  0  0  0  0
  -24.9002  -32.2983   26.5013 H   0  0  0  0  0  0
  -25.8083  -30.8952   27.0285 H   0  0  0  0  0  0
  -26.2871  -29.6850   24.1197 H   0  0  0  0  0  0
  -27.3968  -29.7289   25.4714 H   0  0  0  0  0  0
  -27.8767  -30.4367   23.9455 H   0  0  0  0  0  0
  -27.2602  -33.3654   26.2161 H   0  0  0  0  0  0
  -28.3809  -32.7021   25.0354 H   0  0  0  0  0  0
  -28.0742  -31.8502   26.5429 H   0  0  0  0  0  0
  -28.2614  -38.0111   24.7511 H   0  0  0  0  0  0
  -28.1056  -36.2646   24.6261 H   0  0  0  0  0  0
  -27.2308  -37.1467   25.8866 H   0  0  0  0  0  0
  -20.9339  -29.8769   21.6991 H   0  0  0  0  0  0
  -26.0175  -38.2895   24.1393 H   0  0  0  0  0  0
  -31.6348  -18.9208   17.9316 H   0  0  0  0  0  0
  -29.8477  -19.6672   23.4769 H   0  0  0  0  0  0
  -29.7940  -21.4087   23.5392 H   0  0  0  0  0  0
  -31.2123  -20.5940   22.8709 H   0  0  0  0  0  0
  -27.9148  -22.8507   18.1270 H   0  0  0  0  0  0
  -28.4000  -21.2219   18.5177 H   0  0  0  0  0  0
  -29.6211  -22.4294   18.1236 H   0  0  0  0  0  0
  -27.1567  -24.8255   19.8774 H   0  0  0  0  0  0
  -28.2944  -25.1498   18.5791 H   0  0  0  0  0  0
  -28.3976  -20.5178   21.6433 H   0  0  0  0  0  0
  -27.8067  -22.4544   20.6161 H   0  0  0  0  0  0
  -29.0175  -15.4146   21.1278 H   0  0  0  0  0  0
  -30.5668  -21.6343   20.1949 H   0  0  0  0  0  0
  -30.2064  -22.5195   21.5231 H   0  0  0  0  0  0
  1 25  1  0  0  0
  1 30  2  0  0  0
  1 83  1  0  0  0
  2  3  1  0  0  0
  2 25  1  0  0  0
  2 88  1  0  0  0
  2 89  1  0  0  0
  3  4  1  0  0  0
  3 90  1  0  0  0
  3 91  1  0  0  0
  4  5  1  0  0  0
  4 92  1  0  0  0
  4 93  1  0  0  0
  5  6  1  0  0  0
  5 26  1  0  0  0
  5 94  1  0  0  0
  6 25  1  0  0  0
  6 95  1  0  0  0
  6 96  1  0  0  0
  7  8  2  0  0  0
  7 26  1  0  0  0
  7 29  1  0  0  0
  8  9  1  0  0  0
  8 22  1  0  0  0
  9 10  1  0  0  0
  9 27  2  0  0  0
 10 11  2  0  0  0
 10 15  1  0  0  0
 11 12  1  0  0  0
 11 97  1  0  0  0
 12 13  2  0  0  0
 12 98  1  0  0  0
 13 14  1  0  0  0
 13 31  1  0  0  0
 14 15  2  0  0  0
 14 99  1  0  0  0
 15100  1  0  0  0
 16 17  2  0  0  0
 16 21  1  0  0  0
 16 31  1  0  0  0
 17 18  1  0  0  0
 17101  1  0  0  0
 18 19  2  0  0  0
 18102  1  0  0  0
 19 20  1  0  0  0
 19 24  1  0  0  0
 20 21  2  0  0  0
 20103  1  0  0  0
 21 23  1  0  0  0
 22 28  1  0  0  0
 22 32  2  0  0  0
 26 27  1  0  0  0
 28104  1  0  0  0
 28105  1  0  0  0
 29106  1  0  0  0
 29107  1  0  0  0
 33 34  1  0  0  0
 33 66  1  0  0  0
 33 70  2  0  0  0
 34 36  1  0  0  0
 34 59  1  0  0  0
 34108  1  0  0  0
 35 44  2  0  0  0
 35 45  1  0  0  0
 35 68  1  0  0  0
 36 56  1  0  0  0
 36109  1  0  0  0
 37 39  1  0  0  0
 37 47  1  0  0  0
 37 66  1  0  0  0
 37110  1  0  0  0
 38 43  2  0  0  0
 38 46  1  0  0  0
 38 47  1  0  0  0
 39 64  1  0  0  0
 39 67  2  0  0  0
 40 52  1  0  0  0
 40 53  2  0  0  0
 40 58  1  0  0  0
 41111  1  0  0  0
 41112  1  0  0  0
 41113  1  0  0  0
 41 48  1  0  0  0
 42 43  1  0  0  0
 42 66  1  0  0  0
 42114  1  0  0  0
 42115  1  0  0  0
 43 44  1  0  0  0
 44116  1  0  0  0
 45 46  2  0  0  0
 45117  1  0  0  0
 46118  1  0  0  0
 47119  1  0  0  0
 47120  1  0  0  0
 48 56  1  0  0  0
 48 65  1  0  0  0
 48121  1  0  0  0
 49 50  1  0  0  0
 49 53  1  0  0  0
 49 64  1  0  0  0
 49122  1  0  0  0
 50 51  1  0  0  0
 50123  1  0  0  0
 50124  1  0  0  0
 51 52  1  0  0  0
 51125  1  0  0  0
 51126  1  0  0  0
 52127  1  0  0  0
 52128  1  0  0  0
 53 54  1  0  0  0
 54 55  2  0  0  0
 54129  1  0  0  0
 55 57  1  0  0  0
 55130  1  0  0  0
 56 69  2  0  0  0
 57 58  2  0  0  0
 57131  1  0  0  0
 58132  1  0  0  0
 59 60  1  0  0  0
 59 61  1  0  0  0
 59 62  1  0  0  0
 60133  1  0  0  0
 60134  1  0  0  0
 60135  1  0  0  0
 61136  1  0  0  0
 61137  1  0  0  0
 61138  1  0  0  0
 62139  1  0  0  0
 62140  1  0  0  0
 62141  1  0  0  0
 63 65  1  0  0  0
 63142  1  0  0  0
 63143  1  0  0  0
 63144  1  0  0  0
 64145  1  0  0  0
 65146  1  0  0  0
 68 79  1  0  0  0
 71 73  2  0  0  0
 71 82  1  0  0  0
 71147  1  0  0  0
 72 73  1  0  0  0
 72 74  2  0  0  0
 72 83  1  0  0  0
 73 86  1  0  0  0
 74 75  1  0  0  0
 74 87  1  0  0  0
 75 80  1  0  0  0
 75 82  2  0  0  0
 76 79  1  0  0  0
 76 81  1  0  0  0
 76 85  2  0  0  0
 77148  1  0  0  0
 77149  1  0  0  0
 77150  1  0  0  0
 77 80  1  0  0  0
 78151  1  0  0  0
 78152  1  0  0  0
 78153  1  0  0  0
 78 81  1  0  0  0
 79154  1  0  0  0
 79155  1  0  0  0
 80 84  1  0  0  0
 80156  1  0  0  0
 81 84  1  0  0  0
 81157  1  0  0  0
 83158  1  0  0  0
 84159  1  0  0  0
 84160  1  0  0  0
M  CHG  1  84   1
M  ISO  4   1 100  68 101  79 101  83 100
M  END
> <chiral flag>
0

> <version>
0

> <s_m_source_file>
/data/baiqing/PycharmProjects/Reinvent-master-3.2/result/LINK_invent/BTK/process_docking_weight1_custom_product_contain_oxygen_bond_distance_aromatic_linkinvent_7_9_3/rearranged_h_0173.sdf

> <i_m_source_file_index>
33

> <r_mmod_Potential_Energy-OPLS-2005>
-431.069915771484

> <r_mmod_Stretch_Energy-OPLS-2005>
49.2204475402832

> <r_mmod_Bend_Energy-OPLS-2005>
102.759094238281

> <r_mmod_Torsional_Energy-OPLS-2005>
242.242340087891

> <r_mmod_Improper_Torsional_Energy-OPLS-2005>
4.45385694503784

> <r_mmod_Van_der_Waal_Energy-OPLS-2005>
168.652252197266

> <r_mmod_Electrostatic_Energy-OPLS-2005>
-544.254760742188

> <r_mmod_Solvation_Energy-OPLS-2005>
-482.483428955078

> <b_mmod_Minimization_Converged-OPLS-2005>
0

> <r_mmod_RMS_Derivative-OPLS-2005>
4.18929386138916

$$$$
33
                    3D
 Structure written by MMmdl.
157165  0  0  1  0            999 V2000
  -30.6950  -14.4569   20.5969 C   0  0  0  0  0  0
  -30.4278  -12.3041   19.4167 C   0  0  0  0  0  0
  -29.4941  -12.5088   18.2053 C   0  0  0  0  0  0
  -28.0151  -12.3693   18.6185 C   0  0  0  0  0  0
  -27.6644  -13.2019   19.8805 C   0  0  2  0  0  0
  -28.7049  -12.9585   20.9969 C   0  0  0  0  0  0
  -25.2592  -13.8147   20.5679 C   0  0  0  0  0  0
  -24.1827  -13.0429   20.9140 C   0  0  0  0  0  0
  -24.6379  -11.6897   20.8715 C   0  0  0  0  0  0
  -23.9046  -10.4287   21.0393 C   0  0  0  0  0  0
  -24.3601   -9.4208   21.9175 C   0  0  0  0  0  0
  -23.6282   -8.2244   22.0750 C   0  0  0  0  0  0
  -22.4265   -8.0278   21.3542 C   0  0  0  0  0  0
  -21.9896   -9.0245   20.4641 C   0  0  0  0  0  0
  -22.7217  -10.2127   20.3047 C   0  0  0  0  0  0
  -21.6851   -6.0732   22.5277 C   0  0  0  0  0  0
  -21.4012   -6.5638   23.8210 C   0  0  0  0  0  0
  -21.3662   -5.6791   24.9174 C   0  0  0  0  0  0
  -21.6043   -4.3052   24.7224 C   0  0  0  0  0  0
  -21.8821   -3.8145   23.4345 C   0  0  0  0  0  0
  -21.9191   -4.6960   22.3400 C   0  0  0  0  0  0
  -22.7855  -13.5233   21.1825 C   0  0  0  0  0  0
  -22.1661   -4.2146   21.0977 F   0  0  0  0  0  0
  -21.5631   -3.4537   25.7738 F   0  0  0  0  0  0
  -30.0394  -13.2730   20.4530 N   0  0  0  0  0  0
  -26.3036  -12.9312   20.3399 N   0  0  0  0  0  0
  -25.9309  -11.6472   20.5765 N   0  0  0  0  0  0
  -22.0504  -12.8226   22.0393 N   0  0  0  0  0  0
  -25.4330  -15.1862   20.4154 N   0  0  0  0  0  0
  -31.8027  -14.6715   20.0955 O   0  0  0  0  0  0
  -21.6636   -6.8872   21.4238 O   0  0  0  0  0  0
  -22.3536  -14.5545   20.6692 O   0  0  0  0  0  0
  -24.6134  -31.8684   23.2099 C   0  0  0  0  0  0
  -25.9032  -32.4826   23.8394 C   0  0  1  0  0  0
  -27.2387  -27.4424   20.1002 C   0  0  0  0  0  0
  -25.5896  -33.8622   24.2326 N   0  0  0  0  0  0
  -23.4021  -30.4890   21.5505 C   0  0  2  0  0  0
  -24.8519  -28.9525   20.1175 C   0  0  0  0  0  0
  -22.7406  -29.4650   22.5001 C   0  0  0  0  0  0
  -18.0266  -28.1366   22.8491 C   0  0  0  0  0  0
  -24.1489  -36.7320   23.2638 C   0  0  0  0  0  0
  -25.9294  -30.8350   21.3631 C   0  0  0  0  0  0
  -26.0096  -29.4673   20.7162 C   0  0  0  0  0  0
  -27.2076  -28.7176   20.7090 C   0  0  0  0  0  0
  -26.0704  -26.9393   19.4950 C   0  0  0  0  0  0
  -24.8760  -27.6859   19.5054 C   0  0  0  0  0  0
  -23.6123  -29.8179   20.1660 C   0  0  0  0  0  0
  -25.4109  -36.3115   24.0335 C   0  0  1  0  0  0
  -20.5855  -28.3654   23.1319 C   0  0  2  0  0  0
  -20.6763  -26.9396   22.5415 C   0  0  0  0  0  0
  -19.5746  -26.6379   21.5208 C   0  0  0  0  0  0
  -18.1922  -26.7917   22.1614 C   0  0  0  0  0  0
  -19.1516  -28.8825   23.2902 C   0  0  0  0  0  0
  -18.9450  -30.1434   23.8908 C   0  0  0  0  0  0
  -17.6454  -30.6581   24.0558 C   0  0  0  0  0  0
  -25.9035  -34.9478   23.5127 C   0  0  0  0  0  0
  -16.5343  -29.9085   23.6318 C   0  0  0  0  0  0
  -16.7257  -28.6498   23.0344 C   0  0  0  0  0  0
  -26.4469  -31.6601   25.0716 C   0  0  0  0  0  0
  -25.3741  -31.3696   26.1468 C   0  0  0  0  0  0
  -27.0302  -30.3049   24.6071 C   0  0  0  0  0  0
  -27.6048  -32.4318   25.7479 C   0  0  0  0  0  0
  -27.5583  -37.1814   24.8464 C   0  0  0  0  0  0
  -21.4136  -29.3022   22.3736 N   0  0  0  0  0  0
  -26.4299  -37.3794   23.9403 N   0  0  0  0  0  0
  -24.6663  -31.0780   22.1002 N   0  0  0  0  0  0
  -23.4178  -28.8198   23.3046 O   0  0  0  0  0  0
  -28.3909  -26.6922   20.0691 O   0  0  0  0  0  0
  -26.5596  -34.8929   22.4688 O   0  0  0  0  0  0
  -23.5330  -32.1435   23.7499 O   0  0  0  0  0  0
  -31.3237  -17.5290   20.9752 C   0  0  0  0  0  0
  -28.9705  -18.9813   21.4895 C   0  0  0  0  0  0
  -30.1194  -16.8267   21.2143 C   0  0  0  0  0  0
  -30.1723  -19.6954   21.2636 C   0  0  0  0  0  0
  -28.9495  -17.5702   21.4700 C   0  0  0  0  0  0
  -31.3475  -18.9414   20.9950 C   0  0  0  0  0  0
  -29.2224  -23.3585   20.6143 C   0  0  0  0  0  0
  -31.0155  -21.5773   22.4932 C   0  0  0  0  0  0
  -28.1104  -24.3648   20.9640 C   0  0  0  0  0  0
  -29.0044  -21.8805   21.0290 C   0  0  0  0  0  0
  -28.5689  -25.8300   21.2015 C   0  0  0  0  0  0
  -29.9956  -15.4028   21.2504 N   0  0  0  0  0  0
  -30.2287  -21.1131   21.3460 N   0  0  0  0  0  0
  -30.2431  -23.7102   20.0134 O   0  0  0  0  0  0
  -27.7882  -16.9113   21.7031 F   0  0  0  0  0  0
  -32.5229  -19.5748   20.7565 F   0  0  0  0  0  0
  -31.4709  -12.4123   19.1141 H   0  0  0  0  0  0
  -30.3357  -11.2881   19.8035 H   0  0  0  0  0  0
  -29.7308  -11.7872   17.4223 H   0  0  0  0  0  0
  -29.6631  -13.4959   17.7719 H   0  0  0  0  0  0
  -27.8240  -11.3127   18.8097 H   0  0  0  0  0  0
  -27.3639  -12.6494   17.7900 H   0  0  0  0  0  0
  -27.7150  -14.2531   19.5951 H   0  0  0  0  0  0
  -28.6806  -11.9144   21.3128 H   0  0  0  0  0  0
  -28.4585  -13.5299   21.8928 H   0  0  0  0  0  0
  -25.2746   -9.5693   22.4747 H   0  0  0  0  0  0
  -23.9993   -7.4640   22.7476 H   0  0  0  0  0  0
  -21.0826   -8.8752   19.8951 H   0  0  0  0  0  0
  -22.3665  -10.9660   19.6157 H   0  0  0  0  0  0
  -21.2005   -7.6147   23.9711 H   0  0  0  0  0  0
  -21.1482   -6.0523   25.9076 H   0  0  0  0  0  0
  -22.0600   -2.7607   23.2844 H   0  0  0  0  0  0
  -22.4115  -11.9876   22.4762 H   0  0  0  0  0  0
  -21.1133  -13.1264   22.2625 H   0  0  0  0  0  0
  -24.6807  -15.8474   20.5717 H   0  0  0  0  0  0
  -26.3214  -15.6372   20.2352 H   0  0  0  0  0  0
  -26.7110  -32.5543   23.1170 H   0  0  0  0  0  0
  -25.0060  -33.9784   25.0480 H   0  0  0  0  0  0
  -22.6903  -31.3050   21.4095 H   0  0  0  0  0  0
  -23.3745  -35.9662   23.3313 H   0  0  0  0  0  0
  -24.3584  -36.8918   22.2051 H   0  0  0  0  0  0
  -23.7246  -37.6530   23.6648 H   0  0  0  0  0  0
  -26.0363  -31.5987   20.5912 H   0  0  0  0  0  0
  -26.8190  -30.8933   21.9788 H   0  0  0  0  0  0
  -28.1040  -29.1104   21.1690 H   0  0  0  0  0  0
  -26.0859  -25.9704   19.0169 H   0  0  0  0  0  0
  -23.9874  -27.2831   19.0384 H   0  0  0  0  0  0
  -23.7183  -30.5913   19.4041 H   0  0  0  0  0  0
  -22.7372  -29.2349   19.8725 H   0  0  0  0  0  0
  -25.1285  -36.1988   25.0828 H   0  0  0  0  0  0
  -20.9934  -28.3223   24.1443 H   0  0  0  0  0  0
  -20.5667  -26.2264   23.3599 H   0  0  0  0  0  0
  -21.6638  -26.7448   22.1209 H   0  0  0  0  0  0
  -19.6914  -25.6295   21.1227 H   0  0  0  0  0  0
  -19.6688  -27.3198   20.6746 H   0  0  0  0  0  0
  -17.4194  -26.6656   21.4018 H   0  0  0  0  0  0
  -18.0324  -26.0055   22.9002 H   0  0  0  0  0  0
  -19.7930  -30.7235   24.2293 H   0  0  0  0  0  0
  -17.5015  -31.6262   24.5158 H   0  0  0  0  0  0
  -15.5348  -30.2989   23.7640 H   0  0  0  0  0  0
  -15.8655  -28.0823   22.7054 H   0  0  0  0  0  0
  -24.5911  -30.7049   25.7802 H   0  0  0  0  0  0
  -24.8942  -32.2850   26.4938 H   0  0  0  0  0  0
  -25.8099  -30.8848   27.0213 H   0  0  0  0  0  0
  -26.2840  -29.6807   24.1144 H   0  0  0  0  0  0
  -27.4102  -29.7280   25.4512 H   0  0  0  0  0  0
  -27.8659  -30.4372   23.9196 H   0  0  0  0  0  0
  -27.2669  -33.3605   26.2090 H   0  0  0  0  0  0
  -28.3846  -32.6896   25.0300 H   0  0  0  0  0  0
  -28.0737  -31.8422   26.5366 H   0  0  0  0  0  0
  -28.2608  -38.0107   24.7510 H   0  0  0  0  0  0
  -28.1068  -36.2632   24.6295 H   0  0  0  0  0  0
  -27.2296  -37.1476   25.8868 H   0  0  0  0  0  0
  -20.9303  -29.8748   21.6961 H   0  0  0  0  0  0
  -26.0190  -38.2875   24.1399 H   0  0  0  0  0  0
  -32.2478  -17.0053   20.7876 H   0  0  0  0  0  0
  -28.0497  -19.4978   21.7105 H   0  0  0  0  0  0
  -31.9066  -20.9770   22.6807 H   0  0  0  0  0  0
  -30.4139  -21.5547   23.4036 H   0  0  0  0  0  0
  -31.3581  -22.6029   22.3490 H   0  0  0  0  0  0
  -27.6413  -24.0032   21.8783 H   0  0  0  0  0  0
  -27.3386  -24.3251   20.1968 H   0  0  0  0  0  0
  -28.4700  -21.3935   20.2123 H   0  0  0  0  0  0
  -28.3388  -21.8595   21.8929 H   0  0  0  0  0  0
  -29.6228  -25.8605   21.4809 H   0  0  0  0  0  0
  -28.0395  -26.2299   22.0689 H   0  0  0  0  0  0
  -29.1101  -15.0777   21.6099 H   0  0  0  0  0  0
  1 25  1  0  0  0
  1 30  2  0  0  0
  1 82  1  0  0  0
  2  3  1  0  0  0
  2 25  1  0  0  0
  2 87  1  0  0  0
  2 88  1  0  0  0
  3  4  1  0  0  0
  3 89  1  0  0  0
  3 90  1  0  0  0
  4  5  1  0  0  0
  4 91  1  0  0  0
  4 92  1  0  0  0
  5  6  1  0  0  0
  5 26  1  0  0  0
  5 93  1  0  0  0
  6 25  1  0  0  0
  6 94  1  0  0  0
  6 95  1  0  0  0
  7  8  2  0  0  0
  7 26  1  0  0  0
  7 29  1  0  0  0
  8  9  1  0  0  0
  8 22  1  0  0  0
  9 10  1  0  0  0
  9 27  2  0  0  0
 10 11  2  0  0  0
 10 15  1  0  0  0
 11 12  1  0  0  0
 11 96  1  0  0  0
 12 13  2  0  0  0
 12 97  1  0  0  0
 13 14  1  0  0  0
 13 31  1  0  0  0
 14 15  2  0  0  0
 14 98  1  0  0  0
 15 99  1  0  0  0
 16 17  2  0  0  0
 16 21  1  0  0  0
 16 31  1  0  0  0
 17 18  1  0  0  0
 17100  1  0  0  0
 18 19  2  0  0  0
 18101  1  0  0  0
 19 20  1  0  0  0
 19 24  1  0  0  0
 20 21  2  0  0  0
 20102  1  0  0  0
 21 23  1  0  0  0
 22 28  1  0  0  0
 22 32  2  0  0  0
 26 27  1  0  0  0
 28103  1  0  0  0
 28104  1  0  0  0
 29105  1  0  0  0
 29106  1  0  0  0
 33 34  1  0  0  0
 33 66  1  0  0  0
 33 70  2  0  0  0
 34 36  1  0  0  0
 34 59  1  0  0  0
 34107  1  0  0  0
 35 44  2  0  0  0
 35 45  1  0  0  0
 35 68  1  0  0  0
 36 56  1  0  0  0
 36108  1  0  0  0
 37 39  1  0  0  0
 37 47  1  0  0  0
 37 66  1  0  0  0
 37109  1  0  0  0
 38 43  2  0  0  0
 38 46  1  0  0  0
 38 47  1  0  0  0
 39 64  1  0  0  0
 39 67  2  0  0  0
 40 52  1  0  0  0
 40 53  2  0  0  0
 40 58  1  0  0  0
 41110  1  0  0  0
 41111  1  0  0  0
 41112  1  0  0  0
 41 48  1  0  0  0
 42 43  1  0  0  0
 42 66  1  0  0  0
 42113  1  0  0  0
 42114  1  0  0  0
 43 44  1  0  0  0
 44115  1  0  0  0
 45 46  2  0  0  0
 45116  1  0  0  0
 46117  1  0  0  0
 47118  1  0  0  0
 47119  1  0  0  0
 48 56  1  0  0  0
 48 65  1  0  0  0
 48120  1  0  0  0
 49 50  1  0  0  0
 49 53  1  0  0  0
 49 64  1  0  0  0
 49121  1  0  0  0
 50 51  1  0  0  0
 50122  1  0  0  0
 50123  1  0  0  0
 51 52  1  0  0  0
 51124  1  0  0  0
 51125  1  0  0  0
 52126  1  0  0  0
 52127  1  0  0  0
 53 54  1  0  0  0
 54 55  2  0  0  0
 54128  1  0  0  0
 55 57  1  0  0  0
 55129  1  0  0  0
 56 69  2  0  0  0
 57 58  2  0  0  0
 57130  1  0  0  0
 58131  1  0  0  0
 59 60  1  0  0  0
 59 61  1  0  0  0
 59 62  1  0  0  0
 60132  1  0  0  0
 60133  1  0  0  0
 60134  1  0  0  0
 61135  1  0  0  0
 61136  1  0  0  0
 61137  1  0  0  0
 62138  1  0  0  0
 62139  1  0  0  0
 62140  1  0  0  0
 63 65  1  0  0  0
 63141  1  0  0  0
 63142  1  0  0  0
 63143  1  0  0  0
 64144  1  0  0  0
 65145  1  0  0  0
 68 81  1  0  0  0
 71 73  2  0  0  0
 71 76  1  0  0  0
 71146  1  0  0  0
 72 74  1  0  0  0
 72 75  2  0  0  0
 72147  1  0  0  0
 73 75  1  0  0  0
 73 82  1  0  0  0
 74 76  2  0  0  0
 74 83  1  0  0  0
 75 85  1  0  0  0
 76 86  1  0  0  0
 77 79  1  0  0  0
 77 80  1  0  0  0
 77 84  2  0  0  0
 78 83  1  0  0  0
 78148  1  0  0  0
 78149  1  0  0  0
 78150  1  0  0  0
 79 81  1  0  0  0
 79151  1  0  0  0
 79152  1  0  0  0
 80 83  1  0  0  0
 80153  1  0  0  0
 80154  1  0  0  0
 81155  1  0  0  0
 81156  1  0  0  0
 82157  1  0  0  0
M  ISO  4   1 100  68 101  81 101  82 100
M  END
> <chiral flag>
0

> <version>
0

> <s_m_source_file>
/data/baiqing/PycharmProjects/Reinvent-master-3.2/result/LINK_invent/BTK/process_docking_weight1_custom_product_contain_oxygen_bond_distance_aromatic_linkinvent_7_9_3/rearranged_h_0173.sdf

> <i_m_source_file_index>
34

> <r_mmod_Potential_Energy-OPLS-2005>
-20.5668869018555

> <r_mmod_Stretch_Energy-OPLS-2005>
39.989315032959

> <r_mmod_Bend_Energy-OPLS-2005>
103.165061950684

> <r_mmod_Torsional_Energy-OPLS-2005>
238.958389282227

> <r_mmod_Improper_Torsional_Energy-OPLS-2005>
6.80332374572754

> <r_mmod_Van_der_Waal_Energy-OPLS-2005>
155.402648925781

> <r_mmod_Electrostatic_Energy-OPLS-2005>
-338.658477783203

> <r_mmod_Solvation_Energy-OPLS-2005>
-236.329605102539

> <b_mmod_Minimization_Converged-OPLS-2005>
0

> <r_mmod_RMS_Derivative-OPLS-2005>
0.751771688461304

$$$$
34
                    3D
 Structure written by MMmdl.
168176  0  0  1  0            999 V2000
  -30.7743  -14.4118   20.6043 C   0  0  0  0  0  0
  -30.3898  -12.2850   19.4274 C   0  0  0  0  0  0
  -29.4851  -12.5169   18.2052 C   0  0  0  0  0  0
  -28.0050  -12.3915   18.6104 C   0  0  0  0  0  0
  -27.6558  -13.2231   19.8751 C   0  0  2  0  0  0
  -28.6940  -13.0211   21.0016 C   0  0  0  0  0  0
  -25.2560  -13.8206   20.5728 C   0  0  0  0  0  0
  -24.1829  -13.0440   20.9198 C   0  0  0  0  0  0
  -24.6399  -11.6921   20.8725 C   0  0  0  0  0  0
  -23.9069  -10.4297   21.0389 C   0  0  0  0  0  0
  -24.3633   -9.4215   21.9166 C   0  0  0  0  0  0
  -23.6314   -8.2245   22.0726 C   0  0  0  0  0  0
  -22.4279   -8.0295   21.3550 C   0  0  0  0  0  0
  -21.9934   -9.0249   20.4627 C   0  0  0  0  0  0
  -22.7250  -10.2137   20.3034 C   0  0  0  0  0  0
  -21.6854   -6.0753   22.5280 C   0  0  0  0  0  0
  -21.4007   -6.5646   23.8218 C   0  0  0  0  0  0
  -21.3665   -5.6796   24.9178 C   0  0  0  0  0  0
  -21.6048   -4.3058   24.7221 C   0  0  0  0  0  0
  -21.8822   -3.8158   23.4337 C   0  0  0  0  0  0
  -21.9196   -4.6979   22.3397 C   0  0  0  0  0  0
  -22.7852  -13.5231   21.1876 C   0  0  0  0  0  0
  -22.1668   -4.2162   21.0976 F   0  0  0  0  0  0
  -21.5631   -3.4537   25.7731 F   0  0  0  0  0  0
  -30.0263  -13.2880   20.4436 N   0  0  0  0  0  0
  -26.2995  -12.9411   20.3376 N   0  0  0  0  0  0
  -25.9332  -11.6546   20.5764 N   0  0  0  0  0  0
  -22.0495  -12.8193   22.0409 N   0  0  0  0  0  0
  -25.4291  -15.1926   20.4171 N   0  0  0  0  0  0
  -31.8841  -14.5202   20.0911 O   0  0  0  0  0  0
  -21.6653   -6.8898   21.4238 O   0  0  0  0  0  0
  -22.3520  -14.5545   20.6746 O   0  0  0  0  0  0
  -24.6151  -31.8665   23.2016 C   0  0  0  0  0  0
  -25.9033  -32.4815   23.8342 C   0  0  1  0  0  0
  -27.2420  -27.4306   20.0950 C   0  0  0  0  0  0
  -25.5897  -33.8623   24.2305 N   0  0  0  0  0  0
  -23.4036  -30.4854   21.5468 C   0  0  2  0  0  0
  -24.8501  -28.9386   20.1237 C   0  0  0  0  0  0
  -22.7390  -29.4661   22.4994 C   0  0  0  0  0  0
  -18.0274  -28.1374   22.8524 C   0  0  0  0  0  0
  -24.1497  -36.7305   23.2645 C   0  0  0  0  0  0
  -25.9317  -30.8298   21.3513 C   0  0  0  0  0  0
  -26.0113  -29.4577   20.7134 C   0  0  0  0  0  0
  -27.2128  -28.7127   20.6935 C   0  0  0  0  0  0
  -26.0643  -26.9176   19.5134 C   0  0  0  0  0  0
  -24.8675  -27.6624   19.5292 C   0  0  0  0  0  0
  -23.6096  -29.8042   20.1682 C   0  0  0  0  0  0
  -25.4119  -36.3117   24.0347 C   0  0  1  0  0  0
  -20.5855  -28.3654   23.1348 C   0  0  2  0  0  0
  -20.6778  -26.9393   22.5429 C   0  0  0  0  0  0
  -19.5771  -26.6396   21.5205 C   0  0  0  0  0  0
  -18.1939  -26.7926   22.1615 C   0  0  0  0  0  0
  -19.1522  -28.8836   23.2935 C   0  0  0  0  0  0
  -18.9450  -30.1455   23.8920 C   0  0  0  0  0  0
  -17.6453  -30.6591   24.0580 C   0  0  0  0  0  0
  -25.9038  -34.9488   23.5116 C   0  0  0  0  0  0
  -16.5340  -29.9098   23.6342 C   0  0  0  0  0  0
  -16.7258  -28.6514   23.0364 C   0  0  0  0  0  0
  -26.4445  -31.6575   25.0674 C   0  0  0  0  0  0
  -25.3722  -31.3702   26.1413 C   0  0  0  0  0  0
  -27.0220  -30.3021   24.5996 C   0  0  0  0  0  0
  -27.6036  -32.4265   25.7444 C   0  0  0  0  0  0
  -27.5577  -37.1802   24.8468 C   0  0  0  0  0  0
  -21.4116  -29.3019   22.3738 N   0  0  0  0  0  0
  -26.4294  -37.3806   23.9408 N   0  0  0  0  0  0
  -24.6685  -31.0795   22.0892 N   0  0  0  0  0  0
  -23.4139  -28.8212   23.3061 O   0  0  0  0  0  0
  -28.4200  -26.7171   19.9965 O   0  0  0  0  0  0
  -26.5632  -34.8945   22.4697 O   0  0  0  0  0  0
  -23.5348  -32.1401   23.7424 O   0  0  0  0  0  0
  -29.9075  -18.8604   22.1503 C   0  0  0  0  0  0
  -29.5210  -20.1793   21.8309 C   0  0  0  0  0  0
  -30.3168  -19.8403   19.5716 C   0  0  0  0  0  0
  -30.5206  -18.0140   21.1995 C   0  0  0  0  0  0
  -30.7288  -18.5191   19.8817 C   0  0  0  0  0  0
  -29.7379  -20.7031   20.5320 C   0  0  0  0  0  0
  -28.5252  -25.5115   20.6525 C   0  0  0  0  0  0
  -28.7815  -24.3315   20.0286 C   0  0  0  0  0  0
  -28.9613  -23.1078   20.8336 C   0  0  0  0  0  0
  -33.3049  -19.3172   18.4426 C   0  0  0  0  0  0
  -33.7824  -17.0169   19.2109 C   0  0  0  0  0  0
  -32.9898  -17.3753   16.8900 C   0  0  0  0  0  0
  -31.3244  -17.6615   18.7549 C   0  0  0  0  0  0
  -31.0153  -16.6366   21.6850 C   0  0  0  0  0  0
  -32.8255  -17.8577   18.3462 C   0  0  0  0  0  0
  -29.4152  -22.0458   20.1206 N   0  0  0  0  0  0
  -30.2461  -15.4379   21.2952 N   0  0  0  0  0  0
  -28.7480  -23.0600   22.0475 O   0  0  0  0  0  0
  -28.8544  -24.2872   18.6850 O   0  0  0  0  0  0
  -31.4398  -12.3266   19.1334 H   0  0  0  0  0  0
  -30.2409  -11.2793   19.8222 H   0  0  0  0  0  0
  -29.7185  -11.8008   17.4163 H   0  0  0  0  0  0
  -29.6752  -13.5073   17.7887 H   0  0  0  0  0  0
  -27.7952  -11.3365   18.7866 H   0  0  0  0  0  0
  -27.3645  -12.6934   17.7810 H   0  0  0  0  0  0
  -27.6987  -14.2723   19.5802 H   0  0  0  0  0  0
  -28.6552  -11.9978   21.3787 H   0  0  0  0  0  0
  -28.4669  -13.6606   21.8549 H   0  0  0  0  0  0
  -25.2773   -9.5701   22.4743 H   0  0  0  0  0  0
  -24.0034   -7.4637   22.7437 H   0  0  0  0  0  0
  -21.0873   -8.8768   19.8925 H   0  0  0  0  0  0
  -22.3709  -10.9678   19.6145 H   0  0  0  0  0  0
  -21.1990   -7.6149   23.9724 H   0  0  0  0  0  0
  -21.1487   -6.0523   25.9091 H   0  0  0  0  0  0
  -22.0597   -2.7610   23.2823 H   0  0  0  0  0  0
  -22.4117  -11.9852   22.4783 H   0  0  0  0  0  0
  -21.1092  -13.1173   22.2593 H   0  0  0  0  0  0
  -24.6680  -15.8547   20.5350 H   0  0  0  0  0  0
  -26.2952  -15.6320   20.1266 H   0  0  0  0  0  0
  -26.7088  -32.5503   23.1094 H   0  0  0  0  0  0
  -25.0034  -33.9791   25.0441 H   0  0  0  0  0  0
  -22.6960  -31.3043   21.4017 H   0  0  0  0  0  0
  -23.3757  -35.9635   23.3344 H   0  0  0  0  0  0
  -24.3581  -36.8876   22.2046 H   0  0  0  0  0  0
  -23.7265  -37.6539   23.6619 H   0  0  0  0  0  0
  -26.0395  -31.5818   20.5677 H   0  0  0  0  0  0
  -26.8244  -30.8988   21.9625 H   0  0  0  0  0  0
  -28.1190  -29.1220   21.1211 H   0  0  0  0  0  0
  -26.0754  -25.9476   19.0353 H   0  0  0  0  0  0
  -23.9732  -27.2491   19.0814 H   0  0  0  0  0  0
  -23.7096  -30.5703   19.3979 H   0  0  0  0  0  0
  -22.7370  -29.2153   19.8837 H   0  0  0  0  0  0
  -25.1300  -36.1969   25.0847 H   0  0  0  0  0  0
  -20.9968  -28.3170   24.1470 H   0  0  0  0  0  0
  -20.5712  -26.2216   23.3577 H   0  0  0  0  0  0
  -21.6645  -26.7463   22.1219 H   0  0  0  0  0  0
  -19.6932  -25.6310   21.1238 H   0  0  0  0  0  0
  -19.6744  -27.3229   20.6755 H   0  0  0  0  0  0
  -17.4220  -26.6691   21.4003 H   0  0  0  0  0  0
  -18.0350  -26.0053   22.8998 H   0  0  0  0  0  0
  -19.7922  -30.7296   24.2264 H   0  0  0  0  0  0
  -17.5011  -31.6287   24.5158 H   0  0  0  0  0  0
  -15.5354  -30.3029   23.7673 H   0  0  0  0  0  0
  -15.8637  -28.0861   22.7073 H   0  0  0  0  0  0
  -24.5954  -30.6964   25.7771 H   0  0  0  0  0  0
  -24.8839  -32.2868   26.4746 H   0  0  0  0  0  0
  -25.8094  -30.8982   27.0224 H   0  0  0  0  0  0
  -26.2722  -29.6837   24.1043 H   0  0  0  0  0  0
  -27.4008  -29.7179   25.4393 H   0  0  0  0  0  0
  -27.8554  -30.4360   23.9099 H   0  0  0  0  0  0
  -27.2690  -33.3602   26.1975 H   0  0  0  0  0  0
  -28.3874  -32.6737   25.0276 H   0  0  0  0  0  0
  -28.0643  -31.8394   26.5392 H   0  0  0  0  0  0
  -28.2613  -38.0072   24.7497 H   0  0  0  0  0  0
  -28.1056  -36.2615   24.6323 H   0  0  0  0  0  0
  -27.2304  -37.1492   25.8873 H   0  0  0  0  0  0
  -20.9246  -29.8646   21.6907 H   0  0  0  0  0  0
  -26.0178  -38.2886   24.1398 H   0  0  0  0  0  0
  -29.7558  -18.5046   23.1620 H   0  0  0  0  0  0
  -29.0662  -20.7696   22.6126 H   0  0  0  0  0  0
  -30.4686  -20.2021   18.5646 H   0  0  0  0  0  0
  -28.4157  -25.6268   21.7244 H   0  0  0  0  0  0
  -34.3427  -19.4007   18.1170 H   0  0  0  0  0  0
  -33.2614  -19.6859   19.4672 H   0  0  0  0  0  0
  -32.7179  -19.9858   17.8140 H   0  0  0  0  0  0
  -34.8213  -17.1822   18.9266 H   0  0  0  0  0  0
  -33.6060  -15.9494   19.0973 H   0  0  0  0  0  0
  -33.7076  -17.2753   20.2637 H   0  0  0  0  0  0
  -34.0224  -17.4540   16.5490 H   0  0  0  0  0  0
  -32.3763  -17.9544   16.1995 H   0  0  0  0  0  0
  -32.6973  -16.3292   16.7836 H   0  0  0  0  0  0
  -30.7176  -17.9022   17.8795 H   0  0  0  0  0  0
  -31.1036  -16.6136   18.9250 H   0  0  0  0  0  0
  -31.0545  -16.6511   22.7751 H   0  0  0  0  0  0
  -32.0629  -16.5418   21.4105 H   0  0  0  0  0  0
  -29.6249  -22.2535   19.1554 H   0  0  0  0  0  0
  -29.3217  -15.3221   21.6813 H   0  0  0  0  0  0
  -28.6534  -23.4034   18.4081 H   0  0  0  0  0  0
  1 25  1  0  0  0
  1 30  2  0  0  0
  1 87  1  0  0  0
  2  3  1  0  0  0
  2 25  1  0  0  0
  2 90  1  0  0  0
  2 91  1  0  0  0
  3  4  1  0  0  0
  3 92  1  0  0  0
  3 93  1  0  0  0
  4  5  1  0  0  0
  4 94  1  0  0  0
  4 95  1  0  0  0
  5  6  1  0  0  0
  5 26  1  0  0  0
  5 96  1  0  0  0
  6 25  1  0  0  0
  6 97  1  0  0  0
  6 98  1  0  0  0
  7  8  2  0  0  0
  7 26  1  0  0  0
  7 29  1  0  0  0
  8  9  1  0  0  0
  8 22  1  0  0  0
  9 10  1  0  0  0
  9 27  2  0  0  0
 10 11  2  0  0  0
 10 15  1  0  0  0
 11 12  1  0  0  0
 11 99  1  0  0  0
 12 13  2  0  0  0
 12100  1  0  0  0
 13 14  1  0  0  0
 13 31  1  0  0  0
 14 15  2  0  0  0
 14101  1  0  0  0
 15102  1  0  0  0
 16 17  2  0  0  0
 16 21  1  0  0  0
 16 31  1  0  0  0
 17 18  1  0  0  0
 17103  1  0  0  0
 18 19  2  0  0  0
 18104  1  0  0  0
 19 20  1  0  0  0
 19 24  1  0  0  0
 20 21  2  0  0  0
 20105  1  0  0  0
 21 23  1  0  0  0
 22 28  1  0  0  0
 22 32  2  0  0  0
 26 27  1  0  0  0
 28106  1  0  0  0
 28107  1  0  0  0
 29108  1  0  0  0
 29109  1  0  0  0
 33 34  1  0  0  0
 33 66  1  0  0  0
 33 70  2  0  0  0
 34 36  1  0  0  0
 34 59  1  0  0  0
 34110  1  0  0  0
 35 44  2  0  0  0
 35 45  1  0  0  0
 35 68  1  0  0  0
 36 56  1  0  0  0
 36111  1  0  0  0
 37 39  1  0  0  0
 37 47  1  0  0  0
 37 66  1  0  0  0
 37112  1  0  0  0
 38 43  2  0  0  0
 38 46  1  0  0  0
 38 47  1  0  0  0
 39 64  1  0  0  0
 39 67  2  0  0  0
 40 52  1  0  0  0
 40 53  2  0  0  0
 40 58  1  0  0  0
 41113  1  0  0  0
 41114  1  0  0  0
 41115  1  0  0  0
 41 48  1  0  0  0
 42 43  1  0  0  0
 42 66  1  0  0  0
 42116  1  0  0  0
 42117  1  0  0  0
 43 44  1  0  0  0
 44118  1  0  0  0
 45 46  2  0  0  0
 45119  1  0  0  0
 46120  1  0  0  0
 47121  1  0  0  0
 47122  1  0  0  0
 48 56  1  0  0  0
 48 65  1  0  0  0
 48123  1  0  0  0
 49 50  1  0  0  0
 49 53  1  0  0  0
 49 64  1  0  0  0
 49124  1  0  0  0
 50 51  1  0  0  0
 50125  1  0  0  0
 50126  1  0  0  0
 51 52  1  0  0  0
 51127  1  0  0  0
 51128  1  0  0  0
 52129  1  0  0  0
 52130  1  0  0  0
 53 54  1  0  0  0
 54 55  2  0  0  0
 54131  1  0  0  0
 55 57  1  0  0  0
 55132  1  0  0  0
 56 69  2  0  0  0
 57 58  2  0  0  0
 57133  1  0  0  0
 58134  1  0  0  0
 59 60  1  0  0  0
 59 61  1  0  0  0
 59 62  1  0  0  0
 60135  1  0  0  0
 60136  1  0  0  0
 60137  1  0  0  0
 61138  1  0  0  0
 61139  1  0  0  0
 61140  1  0  0  0
 62141  1  0  0  0
 62142  1  0  0  0
 62143  1  0  0  0
 63 65  1  0  0  0
 63144  1  0  0  0
 63145  1  0  0  0
 63146  1  0  0  0
 64147  1  0  0  0
 65148  1  0  0  0
 68 77  1  0  0  0
 71 72  2  0  0  0
 71 74  1  0  0  0
 71149  1  0  0  0
 72 76  1  0  0  0
 72150  1  0  0  0
 73 75  1  0  0  0
 73 76  2  0  0  0
 73151  1  0  0  0
 74 75  2  0  0  0
 74 84  1  0  0  0
 75 83  1  0  0  0
 76 86  1  0  0  0
 77 78  2  0  0  0
 77152  1  0  0  0
 78 79  1  0  0  0
 78 89  1  0  0  0
 79 86  1  0  0  0
 79 88  2  0  0  0
 80153  1  0  0  0
 80154  1  0  0  0
 80155  1  0  0  0
 80 85  1  0  0  0
 81 85  1  0  0  0
 81156  1  0  0  0
 81157  1  0  0  0
 81158  1  0  0  0
 82 85  1  0  0  0
 82159  1  0  0  0
 82160  1  0  0  0
 82161  1  0  0  0
 83 85  1  0  0  0
 83162  1  0  0  0
 83163  1  0  0  0
 84 87  1  0  0  0
 84164  1  0  0  0
 84165  1  0  0  0
 86166  1  0  0  0
 87167  1  0  0  0
 89168  1  0  0  0
M  ISO  4   1 100  68 101  77 101  87 100
M  END
> <chiral flag>
0

> <version>
0

> <s_m_source_file>
/data/baiqing/PycharmProjects/Reinvent-master-3.2/result/LINK_invent/BTK/process_docking_weight1_custom_product_contain_oxygen_bond_distance_aromatic_linkinvent_7_9_3/rearranged_h_0173.sdf

> <i_m_source_file_index>
35

> <r_mmod_Potential_Energy-OPLS-2005>
-98.8699035644531

> <r_mmod_Stretch_Energy-OPLS-2005>
45.5155410766602

> <r_mmod_Bend_Energy-OPLS-2005>
126.984825134277

> <r_mmod_Torsional_Energy-OPLS-2005>
225.577377319336

> <r_mmod_Improper_Torsional_Energy-OPLS-2005>
2.79318499565125

> <r_mmod_Van_der_Waal_Energy-OPLS-2005>
160.868408203125

> <r_mmod_Electrostatic_Energy-OPLS-2005>
-448.410858154297

> <r_mmod_Solvation_Energy-OPLS-2005>
-225.345153808594

> <b_mmod_Minimization_Converged-OPLS-2005>
0

> <r_mmod_RMS_Derivative-OPLS-2005>
4.57032442092896

$$$$
35
                    3D
 Structure written by MMmdl.
153161  0  0  1  0            999 V2000
  -30.7213  -14.4945   20.5621 C   0  0  0  0  0  0
  -30.4087  -12.3171   19.4406 C   0  0  0  0  0  0
  -29.4993  -12.5071   18.2143 C   0  0  0  0  0  0
  -28.0207  -12.3647   18.6216 C   0  0  0  0  0  0
  -27.6578  -13.2144   19.8702 C   0  0  2  0  0  0
  -28.6961  -13.0469   21.0016 C   0  0  0  0  0  0
  -25.2582  -13.8163   20.5645 C   0  0  0  0  0  0
  -24.1849  -13.0449   20.9163 C   0  0  0  0  0  0
  -24.6410  -11.6916   20.8754 C   0  0  0  0  0  0
  -23.9078  -10.4302   21.0434 C   0  0  0  0  0  0
  -24.3626   -9.4221   21.9212 C   0  0  0  0  0  0
  -23.6299   -8.2258   22.0782 C   0  0  0  0  0  0
  -22.4286   -8.0309   21.3573 C   0  0  0  0  0  0
  -21.9931   -9.0274   20.4665 C   0  0  0  0  0  0
  -22.7253  -10.2148   20.3079 C   0  0  0  0  0  0
  -21.6856   -6.0764   22.5285 C   0  0  0  0  0  0
  -21.4008   -6.5653   23.8222 C   0  0  0  0  0  0
  -21.3648   -5.6803   24.9181 C   0  0  0  0  0  0
  -21.6048   -4.3075   24.7224 C   0  0  0  0  0  0
  -21.8815   -3.8168   23.4338 C   0  0  0  0  0  0
  -21.9184   -4.6992   22.3400 C   0  0  0  0  0  0
  -22.7885  -13.5270   21.1805 C   0  0  0  0  0  0
  -22.1654   -4.2188   21.0979 F   0  0  0  0  0  0
  -21.5621   -3.4546   25.7724 F   0  0  0  0  0  0
  -30.0217  -13.3319   20.4370 N   0  0  0  0  0  0
  -26.3010  -12.9343   20.3317 N   0  0  0  0  0  0
  -25.9334  -11.6498   20.5749 N   0  0  0  0  0  0
  -22.0522  -12.8259   22.0353 N   0  0  0  0  0  0
  -25.4299  -15.1872   20.4008 N   0  0  0  0  0  0
  -31.8713  -14.5816   20.1238 O   0  0  0  0  0  0
  -21.6651   -6.8911   21.4255 O   0  0  0  0  0  0
  -22.3593  -14.5606   20.6682 O   0  0  0  0  0  0
  -24.6182  -31.8666   23.2100 C   0  0  0  0  0  0
  -25.9070  -32.4816   23.8402 C   0  0  1  0  0  0
  -27.2168  -27.3983   20.1043 C   0  0  0  0  0  0
  -25.5916  -33.8615   24.2306 N   0  0  0  0  0  0
  -23.4057  -30.4982   21.5464 C   0  0  2  0  0  0
  -24.8487  -28.9610   20.1087 C   0  0  0  0  0  0
  -22.7384  -29.4717   22.4913 C   0  0  0  0  0  0
  -18.0286  -28.1411   22.8511 C   0  0  0  0  0  0
  -24.1479  -36.7320   23.2631 C   0  0  0  0  0  0
  -25.9388  -30.8253   21.3653 C   0  0  0  0  0  0
  -26.0106  -29.4579   20.7115 C   0  0  0  0  0  0
  -27.1963  -28.6826   20.7048 C   0  0  0  0  0  0
  -26.0343  -26.9283   19.4884 C   0  0  0  0  0  0
  -24.8581  -27.7000   19.4923 C   0  0  0  0  0  0
  -23.6168  -29.8388   20.1575 C   0  0  0  0  0  0
  -25.4106  -36.3108   24.0316 C   0  0  1  0  0  0
  -20.5864  -28.3740   23.1297 C   0  0  2  0  0  0
  -20.6763  -26.9466   22.5436 C   0  0  0  0  0  0
  -19.5739  -26.6420   21.5239 C   0  0  0  0  0  0
  -18.1915  -26.7958   22.1636 C   0  0  0  0  0  0
  -19.1529  -28.8874   23.2906 C   0  0  0  0  0  0
  -18.9475  -30.1469   23.8937 C   0  0  0  0  0  0
  -17.6483  -30.6617   24.0603 C   0  0  0  0  0  0
  -25.9053  -34.9476   23.5111 C   0  0  0  0  0  0
  -16.5381  -29.9139   23.6332 C   0  0  0  0  0  0
  -16.7277  -28.6546   23.0362 C   0  0  0  0  0  0
  -26.4476  -31.6588   25.0739 C   0  0  0  0  0  0
  -25.3750  -31.3701   26.1495 C   0  0  0  0  0  0
  -27.0281  -30.3002   24.6147 C   0  0  0  0  0  0
  -27.6069  -32.4273   25.7497 C   0  0  0  0  0  0
  -27.5599  -37.1784   24.8445 C   0  0  0  0  0  0
  -21.4109  -29.3094   22.3649 N   0  0  0  0  0  0
  -26.4275  -37.3823   23.9449 N   0  0  0  0  0  0
  -24.6733  -31.0772   22.1001 N   0  0  0  0  0  0
  -23.4118  -28.8243   23.2972 O   0  0  0  0  0  0
  -28.3790  -26.6451   20.1642 O   0  0  0  0  0  0
  -26.5621  -34.8943   22.4675 O   0  0  0  0  0  0
  -23.5377  -32.1447   23.7482 O   0  0  0  0  0  0
  -28.4520  -18.1579   20.5434 C   0  0  0  0  0  0
  -29.2114  -20.2508   22.2625 C   0  0  0  0  0  0
  -29.5665  -17.9747   21.3978 C   0  0  0  0  0  0
  -28.1661  -20.4678   21.3414 C   0  0  0  0  0  0
  -27.7529  -19.3880   20.5237 C   0  0  0  0  0  0
  -29.8967  -19.0172   22.3022 C   0  0  0  0  0  0
  -30.5245  -16.8174   21.2062 C   0  0  0  0  0  0
  -27.8044  -24.2247   20.6501 C   0  0  0  0  0  0
  -28.4049  -22.7903   20.6455 C   0  0  0  0  0  0
  -28.4131  -25.2769   19.6773 C   0  0  0  0  0  0
  -27.5497  -21.7311   21.2266 N   0  0  0  0  0  0
  -30.0286  -15.5685   21.0221 N   0  0  0  0  0  0
  -31.7323  -17.0865   21.2047 O   0  0  0  0  0  0
  -26.8493  -24.4978   21.3847 O   0  0  0  0  0  0
  -26.7086  -19.5569   19.6745 F   0  0  0  0  0  0
  -30.9041  -18.8673   23.1969 F   0  0  0  0  0  0
  -31.4555  -12.3811   19.1450 H   0  0  0  0  0  0
  -30.2779  -11.3167   19.8570 H   0  0  0  0  0  0
  -29.7510  -11.7847   17.4363 H   0  0  0  0  0  0
  -29.6683  -13.4942   17.7820 H   0  0  0  0  0  0
  -27.8321  -11.3090   18.8194 H   0  0  0  0  0  0
  -27.3760  -12.6346   17.7840 H   0  0  0  0  0  0
  -27.6878  -14.2566   19.5555 H   0  0  0  0  0  0
  -28.6726  -12.0312   21.3975 H   0  0  0  0  0  0
  -28.4611  -13.6973   21.8451 H   0  0  0  0  0  0
  -25.2774   -9.5709   22.4796 H   0  0  0  0  0  0
  -24.0013   -7.4663   22.7514 H   0  0  0  0  0  0
  -21.0864   -8.8799   19.8967 H   0  0  0  0  0  0
  -22.3721  -10.9705   19.6205 H   0  0  0  0  0  0
  -21.2012   -7.6159   23.9737 H   0  0  0  0  0  0
  -21.1460   -6.0531   25.9085 H   0  0  0  0  0  0
  -22.0594   -2.7629   23.2824 H   0  0  0  0  0  0
  -22.4100  -11.9872   22.4680 H   0  0  0  0  0  0
  -21.1161  -13.1320   22.2606 H   0  0  0  0  0  0
  -24.6487  -15.8296   20.4717 H   0  0  0  0  0  0
  -26.2614  -15.6153   20.0166 H   0  0  0  0  0  0
  -26.7146  -32.5502   23.1170 H   0  0  0  0  0  0
  -25.0022  -33.9812   25.0412 H   0  0  0  0  0  0
  -22.7020  -31.3211   21.4062 H   0  0  0  0  0  0
  -23.3781  -35.9603   23.3228 H   0  0  0  0  0  0
  -24.3581  -36.9044   22.2061 H   0  0  0  0  0  0
  -23.7191  -37.6482   23.6709 H   0  0  0  0  0  0
  -26.0504  -31.5898   20.5946 H   0  0  0  0  0  0
  -26.8240  -30.8813   21.9864 H   0  0  0  0  0  0
  -28.0931  -29.0583   21.1774 H   0  0  0  0  0  0
  -25.9876  -25.9561   19.0228 H   0  0  0  0  0  0
  -23.9645  -27.3142   19.0225 H   0  0  0  0  0  0
  -23.7385  -30.6226   19.4091 H   0  0  0  0  0  0
  -22.7359  -29.2760   19.8468 H   0  0  0  0  0  0
  -25.1256  -36.1968   25.0802 H   0  0  0  0  0  0
  -20.9976  -28.3378   24.1407 H   0  0  0  0  0  0
  -20.5737  -26.2351   23.3647 H   0  0  0  0  0  0
  -21.6630  -26.7517   22.1233 H   0  0  0  0  0  0
  -19.6941  -25.6341   21.1252 H   0  0  0  0  0  0
  -19.6665  -27.3239   20.6774 H   0  0  0  0  0  0
  -17.4182  -26.6760   21.4030 H   0  0  0  0  0  0
  -18.0292  -26.0082   22.9002 H   0  0  0  0  0  0
  -19.7958  -30.7267   24.2312 H   0  0  0  0  0  0
  -17.5061  -31.6290   24.5211 H   0  0  0  0  0  0
  -15.5398  -30.3085   23.7595 H   0  0  0  0  0  0
  -15.8682  -28.0891   22.7044 H   0  0  0  0  0  0
  -24.5969  -30.6975   25.7865 H   0  0  0  0  0  0
  -24.8877  -32.2842   26.4897 H   0  0  0  0  0  0
  -25.8126  -30.8949   27.0285 H   0  0  0  0  0  0
  -26.2816  -29.6777   24.1191 H   0  0  0  0  0  0
  -27.4008  -29.7228   25.4627 H   0  0  0  0  0  0
  -27.8681  -30.4282   23.9307 H   0  0  0  0  0  0
  -27.2765  -33.3639   26.1992 H   0  0  0  0  0  0
  -28.3944  -32.6706   25.0351 H   0  0  0  0  0  0
  -28.0654  -31.8421   26.5489 H   0  0  0  0  0  0
  -28.2518  -38.0177   24.7616 H   0  0  0  0  0  0
  -28.1181  -36.2705   24.6077 H   0  0  0  0  0  0
  -27.2313  -37.1233   25.8841 H   0  0  0  0  0  0
  -20.9248  -29.8851   21.6920 H   0  0  0  0  0  0
  -26.0149  -38.2865   24.1578 H   0  0  0  0  0  0
  -28.1690  -17.3911   19.8370 H   0  0  0  0  0  0
  -29.5160  -21.0372   22.9377 H   0  0  0  0  0  0
  -29.3585  -22.8340   21.1726 H   0  0  0  0  0  0
  -28.6296  -22.5228   19.6121 H   0  0  0  0  0  0
  -27.9415  -25.1922   18.6979 H   0  0  0  0  0  0
  -29.4608  -25.0231   19.5170 H   0  0  0  0  0  0
  -26.6579  -21.6653   20.7429 H   0  0  0  0  0  0
  -29.0490  -15.4351   21.1957 H   0  0  0  0  0  0
  1 25  1  0  0  0
  1 30  2  0  0  0
  1 82  1  0  0  0
  2  3  1  0  0  0
  2 25  1  0  0  0
  2 87  1  0  0  0
  2 88  1  0  0  0
  3  4  1  0  0  0
  3 89  1  0  0  0
  3 90  1  0  0  0
  4  5  1  0  0  0
  4 91  1  0  0  0
  4 92  1  0  0  0
  5  6  1  0  0  0
  5 26  1  0  0  0
  5 93  1  0  0  0
  6 25  1  0  0  0
  6 94  1  0  0  0
  6 95  1  0  0  0
  7  8  2  0  0  0
  7 26  1  0  0  0
  7 29  1  0  0  0
  8  9  1  0  0  0
  8 22  1  0  0  0
  9 10  1  0  0  0
  9 27  2  0  0  0
 10 11  2  0  0  0
 10 15  1  0  0  0
 11 12  1  0  0  0
 11 96  1  0  0  0
 12 13  2  0  0  0
 12 97  1  0  0  0
 13 14  1  0  0  0
 13 31  1  0  0  0
 14 15  2  0  0  0
 14 98  1  0  0  0
 15 99  1  0  0  0
 16 17  2  0  0  0
 16 21  1  0  0  0
 16 31  1  0  0  0
 17 18  1  0  0  0
 17100  1  0  0  0
 18 19  2  0  0  0
 18101  1  0  0  0
 19 20  1  0  0  0
 19 24  1  0  0  0
 20 21  2  0  0  0
 20102  1  0  0  0
 21 23  1  0  0  0
 22 28  1  0  0  0
 22 32  2  0  0  0
 26 27  1  0  0  0
 28103  1  0  0  0
 28104  1  0  0  0
 29105  1  0  0  0
 29106  1  0  0  0
 33 34  1  0  0  0
 33 66  1  0  0  0
 33 70  2  0  0  0
 34 36  1  0  0  0
 34 59  1  0  0  0
 34107  1  0  0  0
 35 44  2  0  0  0
 35 45  1  0  0  0
 35 68  1  0  0  0
 36 56  1  0  0  0
 36108  1  0  0  0
 37 39  1  0  0  0
 37 47  1  0  0  0
 37 66  1  0  0  0
 37109  1  0  0  0
 38 43  2  0  0  0
 38 46  1  0  0  0
 38 47  1  0  0  0
 39 64  1  0  0  0
 39 67  2  0  0  0
 40 52  1  0  0  0
 40 53  2  0  0  0
 40 58  1  0  0  0
 41110  1  0  0  0
 41111  1  0  0  0
 41112  1  0  0  0
 41 48  1  0  0  0
 42 43  1  0  0  0
 42 66  1  0  0  0
 42113  1  0  0  0
 42114  1  0  0  0
 43 44  1  0  0  0
 44115  1  0  0  0
 45 46  2  0  0  0
 45116  1  0  0  0
 46117  1  0  0  0
 47118  1  0  0  0
 47119  1  0  0  0
 48 56  1  0  0  0
 48 65  1  0  0  0
 48120  1  0  0  0
 49 50  1  0  0  0
 49 53  1  0  0  0
 49 64  1  0  0  0
 49121  1  0  0  0
 50 51  1  0  0  0
 50122  1  0  0  0
 50123  1  0  0  0
 51 52  1  0  0  0
 51124  1  0  0  0
 51125  1  0  0  0
 52126  1  0  0  0
 52127  1  0  0  0
 53 54  1  0  0  0
 54 55  2  0  0  0
 54128  1  0  0  0
 55 57  1  0  0  0
 55129  1  0  0  0
 56 69  2  0  0  0
 57 58  2  0  0  0
 57130  1  0  0  0
 58131  1  0  0  0
 59 60  1  0  0  0
 59 61  1  0  0  0
 59 62  1  0  0  0
 60132  1  0  0  0
 60133  1  0  0  0
 60134  1  0  0  0
 61135  1  0  0  0
 61136  1  0  0  0
 61137  1  0  0  0
 62138  1  0  0  0
 62139  1  0  0  0
 62140  1  0  0  0
 63 65  1  0  0  0
 63141  1  0  0  0
 63142  1  0  0  0
 63143  1  0  0  0
 64144  1  0  0  0
 65145  1  0  0  0
 68 80  1  0  0  0
 71 73  2  0  0  0
 71 75  1  0  0  0
 71146  1  0  0  0
 72 74  1  0  0  0
 72 76  2  0  0  0
 72147  1  0  0  0
 73 76  1  0  0  0
 73 77  1  0  0  0
 74 75  2  0  0  0
 74 81  1  0  0  0
 75 85  1  0  0  0
 76 86  1  0  0  0
 77 82  1  0  0  0
 77 83  2  0  0  0
 78 79  1  0  0  0
 78 80  1  0  0  0
 78 84  2  0  0  0
 79 81  1  0  0  0
 79148  1  0  0  0
 79149  1  0  0  0
 80150  1  0  0  0
 80151  1  0  0  0
 81152  1  0  0  0
 82153  1  0  0  0
M  ISO  4   1 100  68 101  80 101  82 100
M  END
> <chiral flag>
0

> <version>
0

> <s_m_source_file>
/data/baiqing/PycharmProjects/Reinvent-master-3.2/result/LINK_invent/BTK/process_docking_weight1_custom_product_contain_oxygen_bond_distance_aromatic_linkinvent_7_9_3/rearranged_h_0173.sdf

> <i_m_source_file_index>
36

> <r_mmod_Potential_Energy-OPLS-2005>
-45.2095909118652

> <r_mmod_Stretch_Energy-OPLS-2005>
44.3693771362305

> <r_mmod_Bend_Energy-OPLS-2005>
106.015693664551

> <r_mmod_Torsional_Energy-OPLS-2005>
225.301651000977

> <r_mmod_Improper_Torsional_Energy-OPLS-2005>
10.7540950775146

> <r_mmod_Van_der_Waal_Energy-OPLS-2005>
160.237808227539

> <r_mmod_Electrostatic_Energy-OPLS-2005>
-350.163146972656

> <r_mmod_Solvation_Energy-OPLS-2005>
-262.660949707031

> <b_mmod_Minimization_Converged-OPLS-2005>
0

> <r_mmod_RMS_Derivative-OPLS-2005>
3.59007430076599

$$$$
36
                    3D
 Structure written by MMmdl.
152160  0  0  1  0            999 V2000
  -30.6806  -14.5192   20.5117 C   0  0  0  0  0  0
  -30.4207  -12.3136   19.4416 C   0  0  0  0  0  0
  -29.5043  -12.4992   18.2139 C   0  0  0  0  0  0
  -28.0196  -12.3735   18.6106 C   0  0  0  0  0  0
  -27.6570  -13.2152   19.8638 C   0  0  2  0  0  0
  -28.6979  -13.0246   20.9917 C   0  0  0  0  0  0
  -25.2561  -13.8187   20.5647 C   0  0  0  0  0  0
  -24.1819  -13.0461   20.9151 C   0  0  0  0  0  0
  -24.6382  -11.6924   20.8687 C   0  0  0  0  0  0
  -23.9045  -10.4304   21.0378 C   0  0  0  0  0  0
  -24.3597   -9.4233   21.9174 C   0  0  0  0  0  0
  -23.6274   -8.2276   22.0775 C   0  0  0  0  0  0
  -22.4253   -8.0297   21.3568 C   0  0  0  0  0  0
  -21.9877   -9.0263   20.4674 C   0  0  0  0  0  0
  -22.7204  -10.2143   20.3058 C   0  0  0  0  0  0
  -21.6872   -6.0725   22.5269 C   0  0  0  0  0  0
  -21.4021   -6.5626   23.8198 C   0  0  0  0  0  0
  -21.3668   -5.6787   24.9160 C   0  0  0  0  0  0
  -21.6047   -4.3050   24.7219 C   0  0  0  0  0  0
  -21.8822   -3.8141   23.4343 C   0  0  0  0  0  0
  -21.9213   -4.6951   22.3395 C   0  0  0  0  0  0
  -22.7848  -13.5272   21.1806 C   0  0  0  0  0  0
  -22.1679   -4.2130   21.0982 F   0  0  0  0  0  0
  -21.5620   -3.4540   25.7739 F   0  0  0  0  0  0
  -30.0306  -13.3214   20.4426 N   0  0  0  0  0  0
  -26.2990  -12.9361   20.3274 N   0  0  0  0  0  0
  -25.9308  -11.6511   20.5687 N   0  0  0  0  0  0
  -22.0472  -12.8295   22.0367 N   0  0  0  0  0  0
  -25.4269  -15.1919   20.4096 N   0  0  0  0  0  0
  -31.8338  -14.6642   20.0938 O   0  0  0  0  0  0
  -21.6656   -6.8872   21.4239 O   0  0  0  0  0  0
  -22.3543  -14.5585   20.6662 O   0  0  0  0  0  0
  -24.6201  -31.8670   23.2072 C   0  0  0  0  0  0
  -25.9070  -32.4823   23.8371 C   0  0  1  0  0  0
  -27.2225  -27.3922   20.1002 C   0  0  0  0  0  0
  -25.5908  -33.8613   24.2305 N   0  0  0  0  0  0
  -23.4091  -30.4931   21.5511 C   0  0  2  0  0  0
  -24.8527  -28.9637   20.1108 C   0  0  0  0  0  0
  -22.7446  -29.4665   22.4976 C   0  0  0  0  0  0
  -18.0280  -28.1402   22.8507 C   0  0  0  0  0  0
  -24.1485  -36.7296   23.2633 C   0  0  0  0  0  0
  -25.9444  -30.8228   21.3665 C   0  0  0  0  0  0
  -26.0195  -29.4568   20.7085 C   0  0  0  0  0  0
  -27.2092  -28.6811   20.6962 C   0  0  0  0  0  0
  -26.0328  -26.9430   19.4730 C   0  0  0  0  0  0
  -24.8579  -27.7093   19.4866 C   0  0  0  0  0  0
  -23.6169  -29.8323   20.1647 C   0  0  0  0  0  0
  -25.4108  -36.3101   24.0335 C   0  0  1  0  0  0
  -20.5880  -28.3690   23.1323 C   0  0  2  0  0  0
  -20.6771  -26.9421   22.5432 C   0  0  0  0  0  0
  -19.5740  -26.6409   21.5233 C   0  0  0  0  0  0
  -18.1920  -26.7951   22.1638 C   0  0  0  0  0  0
  -19.1533  -28.8861   23.2915 C   0  0  0  0  0  0
  -18.9454  -30.1470   23.8929 C   0  0  0  0  0  0
  -17.6456  -30.6608   24.0577 C   0  0  0  0  0  0
  -25.9039  -34.9471   23.5106 C   0  0  0  0  0  0
  -16.5347  -29.9110   23.6334 C   0  0  0  0  0  0
  -16.7269  -28.6522   23.0363 C   0  0  0  0  0  0
  -26.4467  -31.6624   25.0720 C   0  0  0  0  0  0
  -25.3711  -31.3814   26.1472 C   0  0  0  0  0  0
  -27.0260  -30.3038   24.6141 C   0  0  0  0  0  0
  -27.6063  -32.4335   25.7447 C   0  0  0  0  0  0
  -27.5592  -37.1782   24.8460 C   0  0  0  0  0  0
  -21.4171  -29.3039   22.3716 N   0  0  0  0  0  0
  -26.4291  -37.3800   23.9423 N   0  0  0  0  0  0
  -24.6763  -31.0752   22.0990 N   0  0  0  0  0  0
  -23.4204  -28.8194   23.3019 O   0  0  0  0  0  0
  -28.3524  -26.5812   20.1603 O   0  0  0  0  0  0
  -26.5610  -34.8923   22.4675 O   0  0  0  0  0  0
  -23.5377  -32.1420   23.7444 O   0  0  0  0  0  0
  -29.8736  -19.4893   19.2971 C   0  0  0  0  0  0
  -30.1606  -17.1016   19.0145 C   0  0  0  0  0  0
  -30.1138  -18.3901   18.4628 C   0  0  0  0  0  0
  -29.6692  -19.2570   20.6661 C   0  0  0  0  0  0
  -29.9692  -16.9157   20.4025 C   0  0  0  0  0  0
  -29.1414  -24.1929   20.6082 C   0  0  0  0  0  0
  -28.6271  -22.7372   20.9473 C   0  0  0  0  0  0
  -29.3570  -20.4199   21.6254 C   0  0  0  0  0  0
  -28.0837  -25.1553   20.0102 C   0  0  0  0  0  0
  -29.7077  -17.9967   21.1949 N   0  0  0  0  0  0
  -29.9387  -15.5762   20.9238 N   0  0  0  0  0  0
  -29.5836  -21.7985   21.1249 N   0  0  0  0  0  0
  -30.3149  -24.5437   20.7926 O   0  0  0  0  0  0
  -27.4232  -22.4879   21.0703 O   0  0  0  0  0  0
  -30.2820  -18.5683   17.1304 F   0  0  0  0  0  0
  -31.4685  -12.3944   19.1470 H   0  0  0  0  0  0
  -30.3064  -11.3097   19.8520 H   0  0  0  0  0  0
  -29.7493  -11.7637   17.4463 H   0  0  0  0  0  0
  -29.6836  -13.4778   17.7661 H   0  0  0  0  0  0
  -27.8130  -11.3192   18.7969 H   0  0  0  0  0  0
  -27.3861  -12.6633   17.7711 H   0  0  0  0  0  0
  -27.6928  -14.2596   19.5541 H   0  0  0  0  0  0
  -28.6730  -11.9976   21.3578 H   0  0  0  0  0  0
  -28.4575  -13.6501   21.8521 H   0  0  0  0  0  0
  -25.2753   -9.5725   22.4723 H   0  0  0  0  0  0
  -24.0007   -7.4689   22.7500 H   0  0  0  0  0  0
  -21.0820   -8.8777   19.8978 H   0  0  0  0  0  0
  -22.3661  -10.9672   19.6161 H   0  0  0  0  0  0
  -21.1992   -7.6129   23.9679 H   0  0  0  0  0  0
  -21.1492   -6.0525   25.9063 H   0  0  0  0  0  0
  -22.0591   -2.7603   23.2851 H   0  0  0  0  0  0
  -22.4065  -12.0001   22.4845 H   0  0  0  0  0  0
  -21.1105  -13.1376   22.2538 H   0  0  0  0  0  0
  -24.6615  -15.8473   20.5257 H   0  0  0  0  0  0
  -26.2755  -15.6347   20.0826 H   0  0  0  0  0  0
  -26.7143  -32.5528   23.1132 H   0  0  0  0  0  0
  -25.0059  -33.9769   25.0445 H   0  0  0  0  0  0
  -22.6998  -31.3121   21.4150 H   0  0  0  0  0  0
  -23.3763  -35.9615   23.3281 H   0  0  0  0  0  0
  -24.3585  -36.8921   22.2053 H   0  0  0  0  0  0
  -23.7210  -37.6481   23.6655 H   0  0  0  0  0  0
  -26.0696  -31.5905   20.6008 H   0  0  0  0  0  0
  -26.8271  -30.8697   21.9921 H   0  0  0  0  0  0
  -28.1047  -29.0541   21.1723 H   0  0  0  0  0  0
  -25.9749  -25.9889   18.9709 H   0  0  0  0  0  0
  -23.9643  -27.3276   19.0110 H   0  0  0  0  0  0
  -23.7259  -30.6070   19.4048 H   0  0  0  0  0  0
  -22.7400  -29.2537   19.8698 H   0  0  0  0  0  0
  -25.1288  -36.1955   25.0835 H   0  0  0  0  0  0
  -20.9985  -28.3245   24.1437 H   0  0  0  0  0  0
  -20.5695  -26.2280   23.3613 H   0  0  0  0  0  0
  -21.6643  -26.7470   22.1213 H   0  0  0  0  0  0
  -19.6886  -25.6324   21.1257 H   0  0  0  0  0  0
  -19.6678  -27.3227   20.6768 H   0  0  0  0  0  0
  -17.4197  -26.6737   21.4032 H   0  0  0  0  0  0
  -18.0284  -26.0102   22.9036 H   0  0  0  0  0  0
  -19.7925  -30.7294   24.2309 H   0  0  0  0  0  0
  -17.5003  -31.6289   24.5181 H   0  0  0  0  0  0
  -15.5345  -30.3016   23.7647 H   0  0  0  0  0  0
  -15.8667  -28.0844   22.7073 H   0  0  0  0  0  0
  -24.5847  -30.7199   25.7829 H   0  0  0  0  0  0
  -24.8951  -32.3019   26.4872 H   0  0  0  0  0  0
  -25.8029  -30.9010   27.0260 H   0  0  0  0  0  0
  -26.2802  -29.6823   24.1179 H   0  0  0  0  0  0
  -27.3965  -29.7276   25.4626 H   0  0  0  0  0  0
  -27.8678  -30.4315   23.9330 H   0  0  0  0  0  0
  -27.2725  -33.3657   26.2019 H   0  0  0  0  0  0
  -28.3849  -32.6865   25.0239 H   0  0  0  0  0  0
  -28.0754  -31.8467   26.5352 H   0  0  0  0  0  0
  -28.2613  -38.0081   24.7550 H   0  0  0  0  0  0
  -28.1087  -36.2620   24.6229 H   0  0  0  0  0  0
  -27.2330  -37.1382   25.8868 H   0  0  0  0  0  0
  -20.9331  -29.8738   21.6922 H   0  0  0  0  0  0
  -26.0173  -38.2871   24.1458 H   0  0  0  0  0  0
  -29.8281  -20.4839   18.8790 H   0  0  0  0  0  0
  -30.3279  -16.2656   18.3497 H   0  0  0  0  0  0
  -29.9601  -20.2913   22.5245 H   0  0  0  0  0  0
  -28.3236  -20.2969   21.9533 H   0  0  0  0  0  0
  -27.1407  -24.9158   20.5015 H   0  0  0  0  0  0
  -27.9713  -24.9188   18.9525 H   0  0  0  0  0  0
  -29.1145  -15.3427   21.4509 H   0  0  0  0  0  0
  -30.5416  -22.0981   21.0096 H   0  0  0  0  0  0
  1 25  1  0  0  0
  1 30  2  0  0  0
  1 81  1  0  0  0
  2  3  1  0  0  0
  2 25  1  0  0  0
  2 86  1  0  0  0
  2 87  1  0  0  0
  3  4  1  0  0  0
  3 88  1  0  0  0
  3 89  1  0  0  0
  4  5  1  0  0  0
  4 90  1  0  0  0
  4 91  1  0  0  0
  5  6  1  0  0  0
  5 26  1  0  0  0
  5 92  1  0  0  0
  6 25  1  0  0  0
  6 93  1  0  0  0
  6 94  1  0  0  0
  7  8  2  0  0  0
  7 26  1  0  0  0
  7 29  1  0  0  0
  8  9  1  0  0  0
  8 22  1  0  0  0
  9 10  1  0  0  0
  9 27  2  0  0  0
 10 11  2  0  0  0
 10 15  1  0  0  0
 11 12  1  0  0  0
 11 95  1  0  0  0
 12 13  2  0  0  0
 12 96  1  0  0  0
 13 14  1  0  0  0
 13 31  1  0  0  0
 14 15  2  0  0  0
 14 97  1  0  0  0
 15 98  1  0  0  0
 16 17  2  0  0  0
 16 21  1  0  0  0
 16 31  1  0  0  0
 17 18  1  0  0  0
 17 99  1  0  0  0
 18 19  2  0  0  0
 18100  1  0  0  0
 19 20  1  0  0  0
 19 24  1  0  0  0
 20 21  2  0  0  0
 20101  1  0  0  0
 21 23  1  0  0  0
 22 28  1  0  0  0
 22 32  2  0  0  0
 26 27  1  0  0  0
 28102  1  0  0  0
 28103  1  0  0  0
 29104  1  0  0  0
 29105  1  0  0  0
 33 34  1  0  0  0
 33 66  1  0  0  0
 33 70  2  0  0  0
 34 36  1  0  0  0
 34 59  1  0  0  0
 34106  1  0  0  0
 35 44  2  0  0  0
 35 45  1  0  0  0
 35 68  1  0  0  0
 36 56  1  0  0  0
 36107  1  0  0  0
 37 39  1  0  0  0
 37 47  1  0  0  0
 37 66  1  0  0  0
 37108  1  0  0  0
 38 43  2  0  0  0
 38 46  1  0  0  0
 38 47  1  0  0  0
 39 64  1  0  0  0
 39 67  2  0  0  0
 40 52  1  0  0  0
 40 53  2  0  0  0
 40 58  1  0  0  0
 41109  1  0  0  0
 41110  1  0  0  0
 41111  1  0  0  0
 41 48  1  0  0  0
 42 43  1  0  0  0
 42 66  1  0  0  0
 42112  1  0  0  0
 42113  1  0  0  0
 43 44  1  0  0  0
 44114  1  0  0  0
 45 46  2  0  0  0
 45115  1  0  0  0
 46116  1  0  0  0
 47117  1  0  0  0
 47118  1  0  0  0
 48 56  1  0  0  0
 48 65  1  0  0  0
 48119  1  0  0  0
 49 50  1  0  0  0
 49 53  1  0  0  0
 49 64  1  0  0  0
 49120  1  0  0  0
 50 51  1  0  0  0
 50121  1  0  0  0
 50122  1  0  0  0
 51 52  1  0  0  0
 51123  1  0  0  0
 51124  1  0  0  0
 52125  1  0  0  0
 52126  1  0  0  0
 53 54  1  0  0  0
 54 55  2  0  0  0
 54127  1  0  0  0
 55 57  1  0  0  0
 55128  1  0  0  0
 56 69  2  0  0  0
 57 58  2  0  0  0
 57129  1  0  0  0
 58130  1  0  0  0
 59 60  1  0  0  0
 59 61  1  0  0  0
 59 62  1  0  0  0
 60131  1  0  0  0
 60132  1  0  0  0
 60133  1  0  0  0
 61134  1  0  0  0
 61135  1  0  0  0
 61136  1  0  0  0
 62137  1  0  0  0
 62138  1  0  0  0
 62139  1  0  0  0
 63 65  1  0  0  0
 63140  1  0  0  0
 63141  1  0  0  0
 63142  1  0  0  0
 64143  1  0  0  0
 65144  1  0  0  0
 68 79  1  0  0  0
 71 73  2  0  0  0
 71 74  1  0  0  0
 71145  1  0  0  0
 72 73  1  0  0  0
 72 75  2  0  0  0
 72146  1  0  0  0
 73 85  1  0  0  0
 74 78  1  0  0  0
 74 80  2  0  0  0
 75 80  1  0  0  0
 75 81  1  0  0  0
 76 77  1  0  0  0
 76 79  1  0  0  0
 76 83  2  0  0  0
 77 82  1  0  0  0
 77 84  2  0  0  0
 78 82  1  0  0  0
 78147  1  0  0  0
 78148  1  0  0  0
 79149  1  0  0  0
 79150  1  0  0  0
 81151  1  0  0  0
 82152  1  0  0  0
M  ISO  4   1 100  68 101  79 101  81 100
M  END
> <chiral flag>
0

> <version>
0

> <s_m_source_file>
/data/baiqing/PycharmProjects/Reinvent-master-3.2/result/LINK_invent/BTK/process_docking_weight1_custom_product_contain_oxygen_bond_distance_aromatic_linkinvent_7_9_3/rearranged_h_0173.sdf

> <i_m_source_file_index>
37

> <r_mmod_Potential_Energy-OPLS-2005>
-274.832794189453

> <r_mmod_Stretch_Energy-OPLS-2005>
49.8129386901855

> <r_mmod_Bend_Energy-OPLS-2005>
103.519485473633

> <r_mmod_Torsional_Energy-OPLS-2005>
228.258438110352

> <r_mmod_Improper_Torsional_Energy-OPLS-2005>
5.0405535697937

> <r_mmod_Van_der_Waal_Energy-OPLS-2005>
161.64241027832

> <r_mmod_Electrostatic_Energy-OPLS-2005>
-597.962768554688

> <r_mmod_Solvation_Energy-OPLS-2005>
-248.632904052734

> <b_mmod_Minimization_Converged-OPLS-2005>
0

> <r_mmod_RMS_Derivative-OPLS-2005>
2.6417088508606

$$$$
37
                    3D
 Structure written by MMmdl.
152160  0  0  1  0            999 V2000
  -30.6893  -14.4760   20.5744 C   0  0  0  0  0  0
  -30.4308  -12.3103   19.4144 C   0  0  0  0  0  0
  -29.4977  -12.5114   18.2016 C   0  0  0  0  0  0
  -28.0191  -12.3678   18.6160 C   0  0  0  0  0  0
  -27.6685  -13.1983   19.8798 C   0  0  2  0  0  0
  -28.7120  -12.9630   20.9963 C   0  0  0  0  0  0
  -25.2641  -13.8132   20.5653 C   0  0  0  0  0  0
  -24.1881  -13.0425   20.9146 C   0  0  0  0  0  0
  -24.6412  -11.6892   20.8728 C   0  0  0  0  0  0
  -23.9067  -10.4285   21.0414 C   0  0  0  0  0  0
  -24.3614   -9.4198   21.9199 C   0  0  0  0  0  0
  -23.6287   -8.2237   22.0761 C   0  0  0  0  0  0
  -22.4271   -8.0282   21.3546 C   0  0  0  0  0  0
  -21.9907   -9.0254   20.4655 C   0  0  0  0  0  0
  -22.7232  -10.2135   20.3063 C   0  0  0  0  0  0
  -21.6846   -6.0739   22.5288 C   0  0  0  0  0  0
  -21.4012   -6.5643   23.8224 C   0  0  0  0  0  0
  -21.3658   -5.6793   24.9189 C   0  0  0  0  0  0
  -21.6037   -4.3055   24.7232 C   0  0  0  0  0  0
  -21.8816   -3.8146   23.4353 C   0  0  0  0  0  0
  -21.9194   -4.6968   22.3407 C   0  0  0  0  0  0
  -22.7910  -13.5258   21.1805 C   0  0  0  0  0  0
  -22.1662   -4.2162   21.0985 F   0  0  0  0  0  0
  -21.5634   -3.4533   25.7741 F   0  0  0  0  0  0
  -30.0437  -13.2831   20.4469 N   0  0  0  0  0  0
  -26.3078  -12.9286   20.3380 N   0  0  0  0  0  0
  -25.9342  -11.6449   20.5766 N   0  0  0  0  0  0
  -22.0524  -12.8279   22.0362 N   0  0  0  0  0  0
  -25.4343  -15.1843   20.4023 N   0  0  0  0  0  0
  -31.8005  -14.7003   20.0853 O   0  0  0  0  0  0
  -21.6625   -6.8880   21.4252 O   0  0  0  0  0  0
  -22.3622  -14.5573   20.6661 O   0  0  0  0  0  0
  -24.6152  -31.8691   23.2108 C   0  0  0  0  0  0
  -25.9033  -32.4837   23.8399 C   0  0  1  0  0  0
  -27.2266  -27.4059   20.0862 C   0  0  0  0  0  0
  -25.5904  -33.8642   24.2319 N   0  0  0  0  0  0
  -23.4049  -30.4957   21.5521 C   0  0  2  0  0  0
  -24.8498  -28.9690   20.1096 C   0  0  0  0  0  0
  -22.7426  -29.4670   22.4972 C   0  0  0  0  0  0
  -18.0284  -28.1395   22.8492 C   0  0  0  0  0  0
  -24.1499  -36.7314   23.2634 C   0  0  0  0  0  0
  -25.9413  -30.8216   21.3745 C   0  0  0  0  0  0
  -26.0139  -29.4571   20.7165 C   0  0  0  0  0  0
  -27.2028  -28.6823   20.7069 C   0  0  0  0  0  0
  -26.0415  -26.9643   19.4438 C   0  0  0  0  0  0
  -24.8607  -27.7222   19.4705 C   0  0  0  0  0  0
  -23.6140  -29.8375   20.1638 C   0  0  0  0  0  0
  -25.4121  -36.3117   24.0327 C   0  0  1  0  0  0
  -20.5882  -28.3663   23.1316 C   0  0  2  0  0  0
  -20.6783  -26.9406   22.5404 C   0  0  0  0  0  0
  -19.5759  -26.6395   21.5209 C   0  0  0  0  0  0
  -18.1932  -26.7939   22.1622 C   0  0  0  0  0  0
  -19.1534  -28.8850   23.2904 C   0  0  0  0  0  0
  -18.9456  -30.1462   23.8898 C   0  0  0  0  0  0
  -17.6456  -30.6591   24.0575 C   0  0  0  0  0  0
  -25.9042  -34.9487   23.5115 C   0  0  0  0  0  0
  -16.5347  -29.9092   23.6342 C   0  0  0  0  0  0
  -16.7271  -28.6524   23.0334 C   0  0  0  0  0  0
  -26.4461  -31.6617   25.0729 C   0  0  0  0  0  0
  -25.3717  -31.3729   26.1465 C   0  0  0  0  0  0
  -27.0274  -30.3049   24.6121 C   0  0  0  0  0  0
  -27.6041  -32.4328   25.7489 C   0  0  0  0  0  0
  -27.5591  -37.1814   24.8464 C   0  0  0  0  0  0
  -21.4155  -29.3028   22.3710 N   0  0  0  0  0  0
  -26.4305  -37.3800   23.9407 N   0  0  0  0  0  0
  -24.6723  -31.0774   22.1025 N   0  0  0  0  0  0
  -23.4186  -28.8186   23.3001 O   0  0  0  0  0  0
  -28.3722  -26.6157   20.1236 O   0  0  0  0  0  0
  -26.5600  -34.8935   22.4677 O   0  0  0  0  0  0
  -23.5329  -32.1465   23.7462 O   0  0  0  0  0  0
  -31.0666  -17.6374   20.7426 C   0  0  0  0  0  0
  -30.0140  -16.7830   21.0158 C   0  0  0  0  0  0
  -29.4031  -19.2068   20.8452 C   0  0  0  0  0  0
  -28.5975  -20.4843   20.8083 C   0  0  0  0  0  0
  -29.1704  -24.2313   20.4627 C   0  0  0  0  0  0
  -28.2561  -23.1353   22.5947 C   0  0  0  0  0  0
  -28.1758  -25.2135   19.7984 C   0  0  0  0  0  0
  -28.5406  -22.9548   21.0920 C   0  0  2  0  0  0
  -30.7145  -19.0003   20.6525 N   0  0  0  0  0  0
  -29.9674  -15.4303   21.1923 N   0  0  0  0  0  0
  -29.2462  -21.6702   20.8513 N   0  0  0  0  0  0
  -27.3636  -20.4226   20.7979 O   0  0  0  0  0  0
  -30.3828  -24.4681   20.4867 O   0  0  0  0  0  0
  -28.5341  -17.7001   21.1586 S   0  0  0  0  0  0
  -31.4761  -12.4144   19.1164 H   0  0  0  0  0  0
  -30.3335  -11.2949   19.8039 H   0  0  0  0  0  0
  -29.7350  -11.7894   17.4192 H   0  0  0  0  0  0
  -29.6651  -13.4983   17.7652 H   0  0  0  0  0  0
  -27.8346  -11.3097   18.8069 H   0  0  0  0  0  0
  -27.3665  -12.6470   17.7891 H   0  0  0  0  0  0
  -27.7176  -14.2497   19.5942 H   0  0  0  0  0  0
  -28.6924  -11.9215   21.3219 H   0  0  0  0  0  0
  -28.4678  -13.5425   21.8876 H   0  0  0  0  0  0
  -25.2769   -9.5693   22.4767 H   0  0  0  0  0  0
  -24.0005   -7.4638   22.7502 H   0  0  0  0  0  0
  -21.0821   -8.8769   19.8970 H   0  0  0  0  0  0
  -22.3689  -10.9674   19.6166 H   0  0  0  0  0  0
  -21.1991   -7.6149   23.9734 H   0  0  0  0  0  0
  -21.1491   -6.0520   25.9096 H   0  0  0  0  0  0
  -22.0593   -2.7615   23.2840 H   0  0  0  0  0  0
  -22.4114  -11.9936   22.4760 H   0  0  0  0  0  0
  -21.1148  -13.1361   22.2549 H   0  0  0  0  0  0
  -24.6556  -15.8282   20.4887 H   0  0  0  0  0  0
  -26.2778  -15.6280   20.0619 H   0  0  0  0  0  0
  -26.7106  -32.5530   23.1157 H   0  0  0  0  0  0
  -25.0075  -33.9843   25.0475 H   0  0  0  0  0  0
  -22.6922  -31.3118   21.4162 H   0  0  0  0  0  0
  -23.3757  -35.9653   23.3310 H   0  0  0  0  0  0
  -24.3580  -36.8906   22.2041 H   0  0  0  0  0  0
  -23.7246  -37.6522   23.6643 H   0  0  0  0  0  0
  -26.0648  -31.5884   20.6081 H   0  0  0  0  0  0
  -26.8263  -30.8674   21.9971 H   0  0  0  0  0  0
  -28.0962  -29.0515   21.1921 H   0  0  0  0  0  0
  -25.9908  -26.0327   18.9004 H   0  0  0  0  0  0
  -23.9723  -27.3487   18.9808 H   0  0  0  0  0  0
  -23.7244  -30.6182   19.4097 H   0  0  0  0  0  0
  -22.7380  -29.2605   19.8632 H   0  0  0  0  0  0
  -25.1300  -36.1980   25.0816 H   0  0  0  0  0  0
  -20.9985  -28.3226   24.1431 H   0  0  0  0  0  0
  -20.5698  -26.2269   23.3579 H   0  0  0  0  0  0
  -21.6654  -26.7456   22.1191 H   0  0  0  0  0  0
  -19.6910  -25.6306   21.1232 H   0  0  0  0  0  0
  -19.6707  -27.3223   20.6751 H   0  0  0  0  0  0
  -17.4206  -26.6690   21.4018 H   0  0  0  0  0  0
  -18.0334  -26.0086   22.9023 H   0  0  0  0  0  0
  -19.7926  -30.7297   24.2246 H   0  0  0  0  0  0
  -17.5003  -31.6268   24.5176 H   0  0  0  0  0  0
  -15.5348  -30.2982   23.7673 H   0  0  0  0  0  0
  -15.8675  -28.0851   22.7008 H   0  0  0  0  0  0
  -24.5917  -30.7050   25.7799 H   0  0  0  0  0  0
  -24.8886  -32.2888   26.4883 H   0  0  0  0  0  0
  -25.8065  -30.8923   27.0234 H   0  0  0  0  0  0
  -26.2821  -29.6825   24.1166 H   0  0  0  0  0  0
  -27.4006  -29.7273   25.4583 H   0  0  0  0  0  0
  -27.8685  -30.4346   23.9308 H   0  0  0  0  0  0
  -27.2684  -33.3628   26.2089 H   0  0  0  0  0  0
  -28.3855  -32.6873   25.0317 H   0  0  0  0  0  0
  -28.0719  -31.8430   26.5381 H   0  0  0  0  0  0
  -28.2613  -38.0111   24.7518 H   0  0  0  0  0  0
  -28.1083  -36.2635   24.6294 H   0  0  0  0  0  0
  -27.2313  -37.1473   25.8870 H   0  0  0  0  0  0
  -20.9284  -29.8742   21.6948 H   0  0  0  0  0  0
  -26.0184  -38.2874   24.1403 H   0  0  0  0  0  0
  -32.1033  -17.3606   20.6078 H   0  0  0  0  0  0
  -27.6671  -24.0341   22.7780 H   0  0  0  0  0  0
  -29.1773  -23.2229   23.1730 H   0  0  0  0  0  0
  -27.6876  -22.2948   22.9951 H   0  0  0  0  0  0
  -27.1905  -24.8893   20.1330 H   0  0  0  0  0  0
  -28.2180  -25.0784   18.7182 H   0  0  0  0  0  0
  -27.5655  -22.8578   20.6125 H   0  0  0  0  0  0
  -29.1073  -15.0772   21.5856 H   0  0  0  0  0  0
  -30.2584  -21.6641   20.8266 H   0  0  0  0  0  0
  1 25  1  0  0  0
  1 30  2  0  0  0
  1 80  1  0  0  0
  2  3  1  0  0  0
  2 25  1  0  0  0
  2 85  1  0  0  0
  2 86  1  0  0  0
  3  4  1  0  0  0
  3 87  1  0  0  0
  3 88  1  0  0  0
  4  5  1  0  0  0
  4 89  1  0  0  0
  4 90  1  0  0  0
  5  6  1  0  0  0
  5 26  1  0  0  0
  5 91  1  0  0  0
  6 25  1  0  0  0
  6 92  1  0  0  0
  6 93  1  0  0  0
  7  8  2  0  0  0
  7 26  1  0  0  0
  7 29  1  0  0  0
  8  9  1  0  0  0
  8 22  1  0  0  0
  9 10  1  0  0  0
  9 27  2  0  0  0
 10 11  2  0  0  0
 10 15  1  0  0  0
 11 12  1  0  0  0
 11 94  1  0  0  0
 12 13  2  0  0  0
 12 95  1  0  0  0
 13 14  1  0  0  0
 13 31  1  0  0  0
 14 15  2  0  0  0
 14 96  1  0  0  0
 15 97  1  0  0  0
 16 17  2  0  0  0
 16 21  1  0  0  0
 16 31  1  0  0  0
 17 18  1  0  0  0
 17 98  1  0  0  0
 18 19  2  0  0  0
 18 99  1  0  0  0
 19 20  1  0  0  0
 19 24  1  0  0  0
 20 21  2  0  0  0
 20100  1  0  0  0
 21 23  1  0  0  0
 22 28  1  0  0  0
 22 32  2  0  0  0
 26 27  1  0  0  0
 28101  1  0  0  0
 28102  1  0  0  0
 29103  1  0  0  0
 29104  1  0  0  0
 33 34  1  0  0  0
 33 66  1  0  0  0
 33 70  2  0  0  0
 34 36  1  0  0  0
 34 59  1  0  0  0
 34105  1  0  0  0
 35 44  2  0  0  0
 35 45  1  0  0  0
 35 68  1  0  0  0
 36 56  1  0  0  0
 36106  1  0  0  0
 37 39  1  0  0  0
 37 47  1  0  0  0
 37 66  1  0  0  0
 37107  1  0  0  0
 38 43  2  0  0  0
 38 46  1  0  0  0
 38 47  1  0  0  0
 39 64  1  0  0  0
 39 67  2  0  0  0
 40 52  1  0  0  0
 40 53  2  0  0  0
 40 58  1  0  0  0
 41108  1  0  0  0
 41109  1  0  0  0
 41110  1  0  0  0
 41 48  1  0  0  0
 42 43  1  0  0  0
 42 66  1  0  0  0
 42111  1  0  0  0
 42112  1  0  0  0
 43 44  1  0  0  0
 44113  1  0  0  0
 45 46  2  0  0  0
 45114  1  0  0  0
 46115  1  0  0  0
 47116  1  0  0  0
 47117  1  0  0  0
 48 56  1  0  0  0
 48 65  1  0  0  0
 48118  1  0  0  0
 49 50  1  0  0  0
 49 53  1  0  0  0
 49 64  1  0  0  0
 49119  1  0  0  0
 50 51  1  0  0  0
 50120  1  0  0  0
 50121  1  0  0  0
 51 52  1  0  0  0
 51122  1  0  0  0
 51123  1  0  0  0
 52124  1  0  0  0
 52125  1  0  0  0
 53 54  1  0  0  0
 54 55  2  0  0  0
 54126  1  0  0  0
 55 57  1  0  0  0
 55127  1  0  0  0
 56 69  2  0  0  0
 57 58  2  0  0  0
 57128  1  0  0  0
 58129  1  0  0  0
 59 60  1  0  0  0
 59 61  1  0  0  0
 59 62  1  0  0  0
 60130  1  0  0  0
 60131  1  0  0  0
 60132  1  0  0  0
 61133  1  0  0  0
 61134  1  0  0  0
 61135  1  0  0  0
 62136  1  0  0  0
 62137  1  0  0  0
 62138  1  0  0  0
 63 65  1  0  0  0
 63139  1  0  0  0
 63140  1  0  0  0
 63141  1  0  0  0
 64142  1  0  0  0
 65143  1  0  0  0
 68 77  1  0  0  0
 71 72  2  0  0  0
 71 79  1  0  0  0
 71144  1  0  0  0
 72 80  1  0  0  0
 72 84  1  0  0  0
 73 74  1  0  0  0
 73 79  2  0  0  0
 73 84  1  0  0  0
 74 81  1  0  0  0
 74 82  2  0  0  0
 75 77  1  0  0  0
 75 78  1  0  0  0
 75 83  2  0  0  0
 76145  1  0  0  0
 76146  1  0  0  0
 76147  1  0  0  0
 76 78  1  0  0  0
 77148  1  0  0  0
 77149  1  0  0  0
 78 81  1  0  0  0
 78150  1  0  0  0
 80151  1  0  0  0
 81152  1  0  0  0
M  ISO  4   1 100  68 101  77 101  80 100
M  END
> <chiral flag>
0

> <version>
0

> <s_m_source_file>
/data/baiqing/PycharmProjects/Reinvent-master-3.2/result/LINK_invent/BTK/process_docking_weight1_custom_product_contain_oxygen_bond_distance_aromatic_linkinvent_7_9_3/rearranged_h_0173.sdf

> <i_m_source_file_index>
38

> <r_mmod_Potential_Energy-OPLS-2005>
-69.6422805786133

> <r_mmod_Stretch_Energy-OPLS-2005>
42.9153366088867

> <r_mmod_Bend_Energy-OPLS-2005>
111.331184387207

> <r_mmod_Torsional_Energy-OPLS-2005>
236.910614013672

> <r_mmod_Improper_Torsional_Energy-OPLS-2005>
4.35667276382446

> <r_mmod_Van_der_Waal_Energy-OPLS-2005>
140.447494506836

> <r_mmod_Electrostatic_Energy-OPLS-2005>
-379.5986328125

> <r_mmod_Solvation_Energy-OPLS-2005>
-242.401916503906

> <b_mmod_Minimization_Converged-OPLS-2005>
0

> <r_mmod_RMS_Derivative-OPLS-2005>
2.34127020835876

$$$$
38
                    3D
 Structure written by MMmdl.
162170  0  0  1  0            999 V2000
  -30.6767  -14.5001   20.5509 C   0  0  0  0  0  0
  -30.4356  -12.3115   19.4355 C   0  0  0  0  0  0
  -29.5059  -12.4842   18.2151 C   0  0  0  0  0  0
  -28.0221  -12.3643   18.6204 C   0  0  0  0  0  0
  -27.6650  -13.2015   19.8783 C   0  0  2  0  0  0
  -28.7072  -12.9850   20.9992 C   0  0  0  0  0  0
  -25.2617  -13.8143   20.5695 C   0  0  0  0  0  0
  -24.1854  -13.0430   20.9169 C   0  0  0  0  0  0
  -24.6402  -11.6893   20.8732 C   0  0  0  0  0  0
  -23.9063  -10.4286   21.0403 C   0  0  0  0  0  0
  -24.3618   -9.4202   21.9180 C   0  0  0  0  0  0
  -23.6296   -8.2240   22.0754 C   0  0  0  0  0  0
  -22.4280   -8.0282   21.3544 C   0  0  0  0  0  0
  -21.9917   -9.0250   20.4642 C   0  0  0  0  0  0
  -22.7240  -10.2128   20.3048 C   0  0  0  0  0  0
  -21.6850   -6.0746   22.5278 C   0  0  0  0  0  0
  -21.4015   -6.5653   23.8212 C   0  0  0  0  0  0
  -21.3653   -5.6802   24.9174 C   0  0  0  0  0  0
  -21.6039   -4.3063   24.7222 C   0  0  0  0  0  0
  -21.8821   -3.8157   23.4343 C   0  0  0  0  0  0
  -21.9193   -4.6975   22.3400 C   0  0  0  0  0  0
  -22.7878  -13.5225   21.1838 C   0  0  0  0  0  0
  -22.1659   -4.2161   21.0975 F   0  0  0  0  0  0
  -21.5627   -3.4544   25.7734 F   0  0  0  0  0  0
  -30.0379  -13.3006   20.4497 N   0  0  0  0  0  0
  -26.3050  -12.9293   20.3382 N   0  0  0  0  0  0
  -25.9331  -11.6462   20.5777 N   0  0  0  0  0  0
  -22.0517  -12.8218   22.0386 N   0  0  0  0  0  0
  -25.4370  -15.1856   20.4113 N   0  0  0  0  0  0
  -31.8100  -14.6989   20.1080 O   0  0  0  0  0  0
  -21.6636   -6.8888   21.4239 O   0  0  0  0  0  0
  -22.3567  -14.5538   20.6698 O   0  0  0  0  0  0
  -24.6141  -31.8680   23.2100 C   0  0  0  0  0  0
  -25.9033  -32.4828   23.8399 C   0  0  1  0  0  0
  -27.2410  -27.4337   20.1071 C   0  0  0  0  0  0
  -25.5892  -33.8621   24.2330 N   0  0  0  0  0  0
  -23.4042  -30.4887   21.5491 C   0  0  2  0  0  0
  -24.8565  -28.9529   20.1158 C   0  0  0  0  0  0
  -22.7412  -29.4650   22.4986 C   0  0  0  0  0  0
  -18.0271  -28.1378   22.8499 C   0  0  0  0  0  0
  -24.1479  -36.7313   23.2638 C   0  0  0  0  0  0
  -25.9321  -30.8328   21.3647 C   0  0  0  0  0  0
  -26.0131  -29.4641   20.7194 C   0  0  0  0  0  0
  -27.2091  -28.7094   20.7201 C   0  0  0  0  0  0
  -26.0759  -26.9421   19.4875 C   0  0  0  0  0  0
  -24.8821  -27.6896   19.4979 C   0  0  0  0  0  0
  -23.6165  -29.8182   20.1644 C   0  0  0  0  0  0
  -25.4106  -36.3116   24.0337 C   0  0  1  0  0  0
  -20.5862  -28.3668   23.1320 C   0  0  2  0  0  0
  -20.6762  -26.9403   22.5421 C   0  0  0  0  0  0
  -19.5742  -26.6390   21.5219 C   0  0  0  0  0  0
  -18.1916  -26.7928   22.1627 C   0  0  0  0  0  0
  -19.1521  -28.8840   23.2908 C   0  0  0  0  0  0
  -18.9450  -30.1446   23.8916 C   0  0  0  0  0  0
  -17.6453  -30.6587   24.0569 C   0  0  0  0  0  0
  -25.9037  -34.9479   23.5134 C   0  0  0  0  0  0
  -16.5345  -29.9093   23.6323 C   0  0  0  0  0  0
  -16.7262  -28.6506   23.0353 C   0  0  0  0  0  0
  -26.4467  -31.6602   25.0716 C   0  0  0  0  0  0
  -25.3738  -31.3693   26.1463 C   0  0  0  0  0  0
  -27.0300  -30.3044   24.6081 C   0  0  0  0  0  0
  -27.6042  -32.4317   25.7486 C   0  0  0  0  0  0
  -27.5580  -37.1812   24.8465 C   0  0  0  0  0  0
  -21.4140  -29.3032   22.3725 N   0  0  0  0  0  0
  -26.4294  -37.3804   23.9408 N   0  0  0  0  0  0
  -24.6680  -31.0779   22.0999 N   0  0  0  0  0  0
  -23.4177  -28.8200   23.3036 O   0  0  0  0  0  0
  -28.3708  -26.6443   20.0867 O   0  0  0  0  0  0
  -26.5606  -34.8929   22.4697 O   0  0  0  0  0  0
  -23.5329  -32.1429   23.7487 O   0  0  0  0  0  0
  -30.0370  -17.7161   22.0450 C   0  0  0  0  0  0
  -30.0506  -19.1260   21.9858 C   0  0  0  0  0  0
  -30.0899  -17.5865   19.5996 C   0  0  0  0  0  0
  -30.0602  -16.9225   20.8727 C   0  0  0  0  0  0
  -30.0948  -19.7886   20.7392 C   0  0  0  0  0  0
  -30.1593  -19.0101   19.5647 C   0  0  0  0  0  0
  -30.1988  -26.6468   21.6983 C   0  0  0  0  0  0
  -29.5106  -22.1621   21.3428 C   0  0  0  0  0  0
  -30.6942  -26.4456   23.1239 C   0  0  0  0  0  0
  -29.6218  -23.6348   20.8682 C   0  0  0  0  0  0
  -28.5963  -24.6077   21.5370 C   0  0  0  0  0  0
  -28.7804  -26.1521   21.3737 C   0  0  2  0  0  0
  -29.9866  -16.8358   18.2626 C   0  0  0  0  0  0
  -30.1011  -21.2156   20.5832 N   0  0  0  0  0  0
  -29.9296  -15.5003   21.0664 N   0  0  0  0  0  0
  -30.9143  -27.1949   20.8544 O   0  0  0  0  0  0
  -28.9055  -21.8992   22.3842 O   0  0  0  0  0  0
  -30.2603  -19.6780   18.3869 F   0  0  0  0  0  0
  -29.1473  -15.8066   18.3508 F   0  0  0  0  0  0
  -29.5073  -17.5970   17.2778 F   0  0  0  0  0  0
  -31.1814  -16.3906   17.8780 F   0  0  0  0  0  0
  -31.4799  -12.4203   19.1358 H   0  0  0  0  0  0
  -30.3471  -11.3038   19.8456 H   0  0  0  0  0  0
  -29.7422  -11.7346   17.4591 H   0  0  0  0  0  0
  -29.6877  -13.4501   17.7443 H   0  0  0  0  0  0
  -27.8182  -11.3101   18.8104 H   0  0  0  0  0  0
  -27.3817  -12.6513   17.7858 H   0  0  0  0  0  0
  -27.7028  -14.2486   19.5849 H   0  0  0  0  0  0
  -28.6881  -11.9481   21.3390 H   0  0  0  0  0  0
  -28.4652  -13.5814   21.8802 H   0  0  0  0  0  0
  -25.2765   -9.5680   22.4747 H   0  0  0  0  0  0
  -24.0003   -7.4635   22.7481 H   0  0  0  0  0  0
  -21.0849   -8.8771   19.8946 H   0  0  0  0  0  0
  -22.3705  -10.9671   19.6159 H   0  0  0  0  0  0
  -21.2012   -7.6164   23.9719 H   0  0  0  0  0  0
  -21.1471   -6.0534   25.9075 H   0  0  0  0  0  0
  -22.0608   -2.7621   23.2842 H   0  0  0  0  0  0
  -22.4138  -11.9870   22.4752 H   0  0  0  0  0  0
  -21.1131  -13.1233   22.2593 H   0  0  0  0  0  0
  -24.6740  -15.8451   20.5182 H   0  0  0  0  0  0
  -26.2916  -15.6177   20.0842 H   0  0  0  0  0  0
  -26.7105  -32.5558   23.1170 H   0  0  0  0  0  0
  -25.0040  -33.9790   25.0473 H   0  0  0  0  0  0
  -22.6932  -31.3054   21.4069 H   0  0  0  0  0  0
  -23.3743  -35.9646   23.3320 H   0  0  0  0  0  0
  -24.3563  -36.8910   22.2049 H   0  0  0  0  0  0
  -23.7230  -37.6519   23.6643 H   0  0  0  0  0  0
  -26.0398  -31.5958   20.5929 H   0  0  0  0  0  0
  -26.8208  -30.8930   21.9806 H   0  0  0  0  0  0
  -28.1015  -29.1032   21.1863 H   0  0  0  0  0  0
  -26.0909  -25.9718   19.0112 H   0  0  0  0  0  0
  -23.9942  -27.2899   19.0281 H   0  0  0  0  0  0
  -23.7248  -30.5920   19.4033 H   0  0  0  0  0  0
  -22.7415  -29.2364   19.8682 H   0  0  0  0  0  0
  -25.1282  -36.1989   25.0832 H   0  0  0  0  0  0
  -20.9956  -28.3230   24.1442 H   0  0  0  0  0  0
  -20.5671  -26.2272   23.3606 H   0  0  0  0  0  0
  -21.6634  -26.7448   22.1212 H   0  0  0  0  0  0
  -19.6903  -25.6305   21.1237 H   0  0  0  0  0  0
  -19.6680  -27.3211   20.6757 H   0  0  0  0  0  0
  -17.4190  -26.6684   21.4024 H   0  0  0  0  0  0
  -18.0312  -26.0062   22.9013 H   0  0  0  0  0  0
  -19.7924  -30.7261   24.2292 H   0  0  0  0  0  0
  -17.5007  -31.6268   24.5173 H   0  0  0  0  0  0
  -15.5346  -30.3009   23.7630 H   0  0  0  0  0  0
  -15.8659  -28.0838   22.7057 H   0  0  0  0  0  0
  -24.5903  -30.7056   25.7786 H   0  0  0  0  0  0
  -24.8943  -32.2847   26.4940 H   0  0  0  0  0  0
  -25.8093  -30.8829   27.0202 H   0  0  0  0  0  0
  -26.2840  -29.6811   24.1132 H   0  0  0  0  0  0
  -27.4069  -29.7268   25.4535 H   0  0  0  0  0  0
  -27.8680  -30.4361   23.9229 H   0  0  0  0  0  0
  -27.2657  -33.3605   26.2091 H   0  0  0  0  0  0
  -28.3845  -32.6898   25.0312 H   0  0  0  0  0  0
  -28.0720  -31.8424   26.5385 H   0  0  0  0  0  0
  -28.2606  -38.0101   24.7521 H   0  0  0  0  0  0
  -28.1070  -36.2637   24.6292 H   0  0  0  0  0  0
  -27.2295  -37.1464   25.8865 H   0  0  0  0  0  0
  -20.9302  -29.8755   21.6951 H   0  0  0  0  0  0
  -26.0186  -38.2878   24.1421 H   0  0  0  0  0  0
  -29.9933  -17.2409   23.0153 H   0  0  0  0  0  0
  -30.0295  -19.6872   22.9084 H   0  0  0  0  0  0
  -29.9040  -26.6852   23.8348 H   0  0  0  0  0  0
  -31.5492  -27.0894   23.3278 H   0  0  0  0  0  0
  -30.9938  -25.4091   23.2764 H   0  0  0  0  0  0
  -29.5089  -23.6769   19.7847 H   0  0  0  0  0  0
  -30.6416  -23.9532   21.0848 H   0  0  0  0  0  0
  -28.5896  -24.4142   22.6107 H   0  0  0  0  0  0
  -27.5935  -24.3445   21.2006 H   0  0  0  0  0  0
  -28.1393  -26.6112   22.1287 H   0  0  0  0  0  0
  -30.4892  -21.5401   19.7067 H   0  0  0  0  0  0
  -29.1023  -15.1970   21.5576 H   0  0  0  0  0  0
  1 25  1  0  0  0
  1 30  2  0  0  0
  1 85  1  0  0  0
  2  3  1  0  0  0
  2 25  1  0  0  0
  2 92  1  0  0  0
  2 93  1  0  0  0
  3  4  1  0  0  0
  3 94  1  0  0  0
  3 95  1  0  0  0
  4  5  1  0  0  0
  4 96  1  0  0  0
  4 97  1  0  0  0
  5  6  1  0  0  0
  5 26  1  0  0  0
  5 98  1  0  0  0
  6 25  1  0  0  0
  6 99  1  0  0  0
  6100  1  0  0  0
  7  8  2  0  0  0
  7 26  1  0  0  0
  7 29  1  0  0  0
  8  9  1  0  0  0
  8 22  1  0  0  0
  9 10  1  0  0  0
  9 27  2  0  0  0
 10 11  2  0  0  0
 10 15  1  0  0  0
 11 12  1  0  0  0
 11101  1  0  0  0
 12 13  2  0  0  0
 12102  1  0  0  0
 13 14  1  0  0  0
 13 31  1  0  0  0
 14 15  2  0  0  0
 14103  1  0  0  0
 15104  1  0  0  0
 16 17  2  0  0  0
 16 21  1  0  0  0
 16 31  1  0  0  0
 17 18  1  0  0  0
 17105  1  0  0  0
 18 19  2  0  0  0
 18106  1  0  0  0
 19 20  1  0  0  0
 19 24  1  0  0  0
 20 21  2  0  0  0
 20107  1  0  0  0
 21 23  1  0  0  0
 22 28  1  0  0  0
 22 32  2  0  0  0
 26 27  1  0  0  0
 28108  1  0  0  0
 28109  1  0  0  0
 29110  1  0  0  0
 29111  1  0  0  0
 33 34  1  0  0  0
 33 66  1  0  0  0
 33 70  2  0  0  0
 34 36  1  0  0  0
 34 59  1  0  0  0
 34112  1  0  0  0
 35 44  2  0  0  0
 35 45  1  0  0  0
 35 68  1  0  0  0
 36 56  1  0  0  0
 36113  1  0  0  0
 37 39  1  0  0  0
 37 47  1  0  0  0
 37 66  1  0  0  0
 37114  1  0  0  0
 38 43  2  0  0  0
 38 46  1  0  0  0
 38 47  1  0  0  0
 39 64  1  0  0  0
 39 67  2  0  0  0
 40 52  1  0  0  0
 40 53  2  0  0  0
 40 58  1  0  0  0
 41115  1  0  0  0
 41116  1  0  0  0
 41117  1  0  0  0
 41 48  1  0  0  0
 42 43  1  0  0  0
 42 66  1  0  0  0
 42118  1  0  0  0
 42119  1  0  0  0
 43 44  1  0  0  0
 44120  1  0  0  0
 45 46  2  0  0  0
 45121  1  0  0  0
 46122  1  0  0  0
 47123  1  0  0  0
 47124  1  0  0  0
 48 56  1  0  0  0
 48 65  1  0  0  0
 48125  1  0  0  0
 49 50  1  0  0  0
 49 53  1  0  0  0
 49 64  1  0  0  0
 49126  1  0  0  0
 50 51  1  0  0  0
 50127  1  0  0  0
 50128  1  0  0  0
 51 52  1  0  0  0
 51129  1  0  0  0
 51130  1  0  0  0
 52131  1  0  0  0
 52132  1  0  0  0
 53 54  1  0  0  0
 54 55  2  0  0  0
 54133  1  0  0  0
 55 57  1  0  0  0
 55134  1  0  0  0
 56 69  2  0  0  0
 57 58  2  0  0  0
 57135  1  0  0  0
 58136  1  0  0  0
 59 60  1  0  0  0
 59 61  1  0  0  0
 59 62  1  0  0  0
 60137  1  0  0  0
 60138  1  0  0  0
 60139  1  0  0  0
 61140  1  0  0  0
 61141  1  0  0  0
 61142  1  0  0  0
 62143  1  0  0  0
 62144  1  0  0  0
 62145  1  0  0  0
 63 65  1  0  0  0
 63146  1  0  0  0
 63147  1  0  0  0
 63148  1  0  0  0
 64149  1  0  0  0
 65150  1  0  0  0
 68 82  1  0  0  0
 71 72  2  0  0  0
 71 74  1  0  0  0
 71151  1  0  0  0
 72 75  1  0  0  0
 72152  1  0  0  0
 73 74  2  0  0  0
 73 76  1  0  0  0
 73 83  1  0  0  0
 74 85  1  0  0  0
 75 76  2  0  0  0
 75 84  1  0  0  0
 76 88  1  0  0  0
 77 79  1  0  0  0
 77 82  1  0  0  0
 77 86  2  0  0  0
 78 80  1  0  0  0
 78 84  1  0  0  0
 78 87  2  0  0  0
 79153  1  0  0  0
 79154  1  0  0  0
 79155  1  0  0  0
 80 81  1  0  0  0
 80156  1  0  0  0
 80157  1  0  0  0
 81158  1  0  0  0
 81159  1  0  0  0
 81 82  1  0  0  0
 82160  1  0  0  0
 83 89  1  0  0  0
 83 90  1  0  0  0
 83 91  1  0  0  0
 84161  1  0  0  0
 85162  1  0  0  0
M  ISO  4   1 100  68 101  82 101  85 100
M  END
> <chiral flag>
0

> <version>
0

> <s_m_source_file>
/data/baiqing/PycharmProjects/Reinvent-master-3.2/result/LINK_invent/BTK/process_docking_weight1_custom_product_contain_oxygen_bond_distance_aromatic_linkinvent_7_9_3/rearranged_h_0173.sdf

> <i_m_source_file_index>
39

> <r_mmod_Potential_Energy-OPLS-2005>
-42.755973815918

> <r_mmod_Stretch_Energy-OPLS-2005>
45.8968963623047

> <r_mmod_Bend_Energy-OPLS-2005>
113.695472717285

> <r_mmod_Torsional_Energy-OPLS-2005>
267.880523681641

> <r_mmod_Improper_Torsional_Energy-OPLS-2005>
3.81828641891479

> <r_mmod_Van_der_Waal_Energy-OPLS-2005>
149.962753295898

> <r_mmod_Electrostatic_Energy-OPLS-2005>
-398.659942626953

> <r_mmod_Solvation_Energy-OPLS-2005>
-240.115753173828

> <b_mmod_Minimization_Converged-OPLS-2005>
0

> <r_mmod_RMS_Derivative-OPLS-2005>
1.2818421125412

$$$$
39
                    3D
 Structure written by MMmdl.
156164  0  0  1  0            999 V2000
  -30.6706  -14.5161   20.5238 C   0  0  0  0  0  0
  -30.4297  -12.3210   19.4238 C   0  0  0  0  0  0
  -29.4982  -12.4977   18.2059 C   0  0  0  0  0  0
  -28.0185  -12.3533   18.6195 C   0  0  0  0  0  0
  -27.6574  -13.2046   19.8655 C   0  0  2  0  0  0
  -28.7032  -13.0122   20.9876 C   0  0  0  0  0  0
  -25.2573  -13.8131   20.5657 C   0  0  0  0  0  0
  -24.1833  -13.0420   20.9178 C   0  0  0  0  0  0
  -24.6393  -11.6893   20.8735 C   0  0  0  0  0  0
  -23.9055  -10.4290   21.0406 C   0  0  0  0  0  0
  -24.3610   -9.4208   21.9185 C   0  0  0  0  0  0
  -23.6291   -8.2243   22.0755 C   0  0  0  0  0  0
  -22.4272   -8.0281   21.3545 C   0  0  0  0  0  0
  -21.9903   -9.0254   20.4644 C   0  0  0  0  0  0
  -22.7231  -10.2133   20.3052 C   0  0  0  0  0  0
  -21.6855   -6.0733   22.5275 C   0  0  0  0  0  0
  -21.4014   -6.5635   23.8209 C   0  0  0  0  0  0
  -21.3653   -5.6792   24.9171 C   0  0  0  0  0  0
  -21.6044   -4.3056   24.7224 C   0  0  0  0  0  0
  -21.8824   -3.8148   23.4347 C   0  0  0  0  0  0
  -21.9194   -4.6962   22.3399 C   0  0  0  0  0  0
  -22.7859  -13.5227   21.1848 C   0  0  0  0  0  0
  -22.1668   -4.2146   21.0978 F   0  0  0  0  0  0
  -21.5622   -3.4540   25.7736 F   0  0  0  0  0  0
  -30.0288  -13.3195   20.4256 N   0  0  0  0  0  0
  -26.3008  -12.9304   20.3323 N   0  0  0  0  0  0
  -25.9317  -11.6472   20.5754 N   0  0  0  0  0  0
  -22.0497  -12.8220   22.0402 N   0  0  0  0  0  0
  -25.4270  -15.1837   20.4035 N   0  0  0  0  0  0
  -31.8374  -14.6806   20.1566 O   0  0  0  0  0  0
  -21.6637   -6.8878   21.4238 O   0  0  0  0  0  0
  -22.3549  -14.5533   20.6695 O   0  0  0  0  0  0
  -24.6180  -31.8666   23.2108 C   0  0  0  0  0  0
  -25.9068  -32.4811   23.8402 C   0  0  1  0  0  0
  -27.2297  -27.4081   20.0852 C   0  0  0  0  0  0
  -25.5925  -33.8607   24.2336 N   0  0  0  0  0  0
  -23.4060  -30.4933   21.5527 C   0  0  2  0  0  0
  -24.8490  -28.9610   20.1142 C   0  0  0  0  0  0
  -22.7421  -29.4658   22.4989 C   0  0  0  0  0  0
  -18.0267  -28.1378   22.8490 C   0  0  0  0  0  0
  -24.1491  -36.7301   23.2641 C   0  0  0  0  0  0
  -25.9396  -30.8233   21.3688 C   0  0  0  0  0  0
  -26.0137  -29.4580   20.7115 C   0  0  0  0  0  0
  -27.2045  -28.6890   20.6949 C   0  0  0  0  0  0
  -26.0339  -26.9337   19.4901 C   0  0  0  0  0  0
  -24.8554  -27.6989   19.5025 C   0  0  0  0  0  0
  -23.6135  -29.8301   20.1667 C   0  0  0  0  0  0
  -25.4109  -36.3101   24.0345 C   0  0  1  0  0  0
  -20.5863  -28.3668   23.1309 C   0  0  2  0  0  0
  -20.6753  -26.9407   22.5408 C   0  0  0  0  0  0
  -19.5735  -26.6389   21.5201 C   0  0  0  0  0  0
  -18.1914  -26.7926   22.1618 C   0  0  0  0  0  0
  -19.1517  -28.8842   23.2892 C   0  0  0  0  0  0
  -18.9446  -30.1446   23.8901 C   0  0  0  0  0  0
  -17.6450  -30.6591   24.0557 C   0  0  0  0  0  0
  -25.9043  -34.9466   23.5135 C   0  0  0  0  0  0
  -16.5340  -29.9088   23.6328 C   0  0  0  0  0  0
  -16.7255  -28.6502   23.0354 C   0  0  0  0  0  0
  -26.4488  -31.6587   25.0734 C   0  0  0  0  0  0
  -25.3752  -31.3686   26.1479 C   0  0  0  0  0  0
  -27.0305  -30.3021   24.6120 C   0  0  0  0  0  0
  -27.6076  -32.4291   25.7484 C   0  0  0  0  0  0
  -27.5585  -37.1797   24.8466 C   0  0  0  0  0  0
  -21.4147  -29.3035   22.3722 N   0  0  0  0  0  0
  -26.4290  -37.3792   23.9420 N   0  0  0  0  0  0
  -24.6730  -31.0752   22.1020 N   0  0  0  0  0  0
  -23.4188  -28.8183   23.3025 O   0  0  0  0  0  0
  -28.3970  -26.6535   20.1049 O   0  0  0  0  0  0
  -26.5591  -34.8923   22.4689 O   0  0  0  0  0  0
  -23.5364  -32.1431   23.7488 O   0  0  0  0  0  0
  -31.0498  -19.1854   21.2975 C   0  0  0  0  0  0
  -30.0620  -19.2165   20.3450 C   0  0  0  0  0  0
  -29.5454  -17.8917   20.0628 C   0  0  0  0  0  0
  -30.1633  -16.8906   20.7990 C   0  0  0  0  0  0
  -28.3580  -25.3309   19.6960 C   0  0  0  0  0  0
  -29.6975  -20.4675   19.6454 C   0  0  0  0  0  0
  -28.8398  -24.2850   20.4097 C   0  0  0  0  0  0
  -28.6720  -22.8792   19.9268 C   0  0  0  0  0  0
  -27.0767  -18.1068   19.5307 C   0  0  0  0  0  0
  -28.4504  -17.6070   19.0633 C   0  0  0  0  0  0
  -29.5854  -21.7585   20.5040 C   0  0  0  0  0  0
  -29.8608  -15.5592   20.8133 N   0  0  0  0  0  0
  -29.5447  -20.5156   18.4203 O   0  0  0  0  0  0
  -27.7763  -22.6017   19.1207 O   0  0  0  0  0  0
  -29.4491  -24.4732   21.5879 O   0  0  0  0  0  0
  -31.3934  -17.5671   21.8406 S   0  0  0  0  0  0
  -31.4735  -12.4274   19.1225 H   0  0  0  0  0  0
  -30.3379  -11.3155   19.8373 H   0  0  0  0  0  0
  -29.7434  -11.7656   17.4348 H   0  0  0  0  0  0
  -29.6606  -13.4785   17.7572 H   0  0  0  0  0  0
  -27.8363  -11.2983   18.8283 H   0  0  0  0  0  0
  -27.3667  -12.6130   17.7843 H   0  0  0  0  0  0
  -27.6888  -14.2456   19.5463 H   0  0  0  0  0  0
  -28.6877  -11.9839   21.3522 H   0  0  0  0  0  0
  -28.4701  -13.6351   21.8529 H   0  0  0  0  0  0
  -25.2758   -9.5690   22.4750 H   0  0  0  0  0  0
  -23.9999   -7.4636   22.7478 H   0  0  0  0  0  0
  -21.0828   -8.8775   19.8956 H   0  0  0  0  0  0
  -22.3692  -10.9667   19.6153 H   0  0  0  0  0  0
  -21.2013   -7.6144   23.9707 H   0  0  0  0  0  0
  -21.1465   -6.0523   25.9071 H   0  0  0  0  0  0
  -22.0608   -2.7610   23.2845 H   0  0  0  0  0  0
  -22.4102  -11.9868   22.4773 H   0  0  0  0  0  0
  -21.1126  -13.1262   22.2625 H   0  0  0  0  0  0
  -24.6537  -15.8329   20.4994 H   0  0  0  0  0  0
  -26.2680  -15.6210   20.0538 H   0  0  0  0  0  0
  -26.7130  -32.5506   23.1149 H   0  0  0  0  0  0
  -25.0097  -33.9767   25.0496 H   0  0  0  0  0  0
  -22.6964  -31.3120   21.4161 H   0  0  0  0  0  0
  -23.3759  -35.9626   23.3293 H   0  0  0  0  0  0
  -24.3597  -36.8923   22.2060 H   0  0  0  0  0  0
  -23.7229  -37.6502   23.6651 H   0  0  0  0  0  0
  -26.0600  -31.5907   20.6025 H   0  0  0  0  0  0
  -26.8251  -30.8710   21.9909 H   0  0  0  0  0  0
  -28.1034  -29.0705   21.1582 H   0  0  0  0  0  0
  -25.9714  -25.9663   19.0163 H   0  0  0  0  0  0
  -23.9579  -27.3093   19.0417 H   0  0  0  0  0  0
  -23.7219  -30.6057   19.4076 H   0  0  0  0  0  0
  -22.7360  -29.2515   19.8720 H   0  0  0  0  0  0
  -25.1275  -36.1968   25.0837 H   0  0  0  0  0  0
  -20.9956  -28.3228   24.1429 H   0  0  0  0  0  0
  -20.5649  -26.2279   23.3592 H   0  0  0  0  0  0
  -21.6620  -26.7445   22.1204 H   0  0  0  0  0  0
  -19.6899  -25.6299   21.1234 H   0  0  0  0  0  0
  -19.6682  -27.3192   20.6725 H   0  0  0  0  0  0
  -17.4188  -26.6673   21.4016 H   0  0  0  0  0  0
  -18.0323  -26.0060   22.9010 H   0  0  0  0  0  0
  -19.7924  -30.7245   24.2285 H   0  0  0  0  0  0
  -17.5012  -31.6274   24.5150 H   0  0  0  0  0  0
  -15.5338  -30.2986   23.7659 H   0  0  0  0  0  0
  -15.8653  -28.0818   22.7075 H   0  0  0  0  0  0
  -24.5922  -30.7037   25.7809 H   0  0  0  0  0  0
  -24.8935  -32.2832   26.4946 H   0  0  0  0  0  0
  -25.8108  -30.8838   27.0227 H   0  0  0  0  0  0
  -26.2840  -29.6780   24.1191 H   0  0  0  0  0  0
  -27.4080  -29.7260   25.4582 H   0  0  0  0  0  0
  -27.8683  -30.4314   23.9260 H   0  0  0  0  0  0
  -27.2728  -33.3602   26.2062 H   0  0  0  0  0  0
  -28.3880  -32.6831   25.0298 H   0  0  0  0  0  0
  -28.0746  -31.8406   26.5389 H   0  0  0  0  0  0
  -28.2587  -38.0112   24.7537 H   0  0  0  0  0  0
  -28.1092  -36.2639   24.6247 H   0  0  0  0  0  0
  -27.2311  -37.1408   25.8873 H   0  0  0  0  0  0
  -20.9318  -29.8769   21.6945 H   0  0  0  0  0  0
  -26.0178  -38.2870   24.1425 H   0  0  0  0  0  0
  -31.6313  -20.0124   21.6870 H   0  0  0  0  0  0
  -27.8974  -25.2060   18.7257 H   0  0  0  0  0  0
  -26.3018  -17.8345   18.8134 H   0  0  0  0  0  0
  -27.0559  -19.1912   19.6371 H   0  0  0  0  0  0
  -26.8068  -17.6767   20.4950 H   0  0  0  0  0  0
  -28.3835  -16.5397   18.8526 H   0  0  0  0  0  0
  -28.6915  -18.0579   18.1004 H   0  0  0  0  0  0
  -30.5870  -22.1632   20.6418 H   0  0  0  0  0  0
  -29.2114  -21.4920   21.4917 H   0  0  0  0  0  0
  -28.8887  -15.3219   20.9284 H   0  0  0  0  0  0
  -29.4489  -25.4087   21.7474 H   0  0  0  0  0  0
  1 25  1  0  0  0
  1 30  2  0  0  0
  1 82  1  0  0  0
  2  3  1  0  0  0
  2 25  1  0  0  0
  2 87  1  0  0  0
  2 88  1  0  0  0
  3  4  1  0  0  0
  3 89  1  0  0  0
  3 90  1  0  0  0
  4  5  1  0  0  0
  4 91  1  0  0  0
  4 92  1  0  0  0
  5  6  1  0  0  0
  5 26  1  0  0  0
  5 93  1  0  0  0
  6 25  1  0  0  0
  6 94  1  0  0  0
  6 95  1  0  0  0
  7  8  2  0  0  0
  7 26  1  0  0  0
  7 29  1  0  0  0
  8  9  1  0  0  0
  8 22  1  0  0  0
  9 10  1  0  0  0
  9 27  2  0  0  0
 10 11  2  0  0  0
 10 15  1  0  0  0
 11 12  1  0  0  0
 11 96  1  0  0  0
 12 13  2  0  0  0
 12 97  1  0  0  0
 13 14  1  0  0  0
 13 31  1  0  0  0
 14 15  2  0  0  0
 14 98  1  0  0  0
 15 99  1  0  0  0
 16 17  2  0  0  0
 16 21  1  0  0  0
 16 31  1  0  0  0
 17 18  1  0  0  0
 17100  1  0  0  0
 18 19  2  0  0  0
 18101  1  0  0  0
 19 20  1  0  0  0
 19 24  1  0  0  0
 20 21  2  0  0  0
 20102  1  0  0  0
 21 23  1  0  0  0
 22 28  1  0  0  0
 22 32  2  0  0  0
 26 27  1  0  0  0
 28103  1  0  0  0
 28104  1  0  0  0
 29105  1  0  0  0
 29106  1  0  0  0
 33 34  1  0  0  0
 33 66  1  0  0  0
 33 70  2  0  0  0
 34 36  1  0  0  0
 34 59  1  0  0  0
 34107  1  0  0  0
 35 44  2  0  0  0
 35 45  1  0  0  0
 35 68  1  0  0  0
 36 56  1  0  0  0
 36108  1  0  0  0
 37 39  1  0  0  0
 37 47  1  0  0  0
 37 66  1  0  0  0
 37109  1  0  0  0
 38 43  2  0  0  0
 38 46  1  0  0  0
 38 47  1  0  0  0
 39 64  1  0  0  0
 39 67  2  0  0  0
 40 52  1  0  0  0
 40 53  2  0  0  0
 40 58  1  0  0  0
 41110  1  0  0  0
 41111  1  0  0  0
 41112  1  0  0  0
 41 48  1  0  0  0
 42 43  1  0  0  0
 42 66  1  0  0  0
 42113  1  0  0  0
 42114  1  0  0  0
 43 44  1  0  0  0
 44115  1  0  0  0
 45 46  2  0  0  0
 45116  1  0  0  0
 46117  1  0  0  0
 47118  1  0  0  0
 47119  1  0  0  0
 48 56  1  0  0  0
 48 65  1  0  0  0
 48120  1  0  0  0
 49 50  1  0  0  0
 49 53  1  0  0  0
 49 64  1  0  0  0
 49121  1  0  0  0
 50 51  1  0  0  0
 50122  1  0  0  0
 50123  1  0  0  0
 51 52  1  0  0  0
 51124  1  0  0  0
 51125  1  0  0  0
 52126  1  0  0  0
 52127  1  0  0  0
 53 54  1  0  0  0
 54 55  2  0  0  0
 54128  1  0  0  0
 55 57  1  0  0  0
 55129  1  0  0  0
 56 69  2  0  0  0
 57 58  2  0  0  0
 57130  1  0  0  0
 58131  1  0  0  0
 59 60  1  0  0  0
 59 61  1  0  0  0
 59 62  1  0  0  0
 60132  1  0  0  0
 60133  1  0  0  0
 60134  1  0  0  0
 61135  1  0  0  0
 61136  1  0  0  0
 61137  1  0  0  0
 62138  1  0  0  0
 62139  1  0  0  0
 62140  1  0  0  0
 63 65  1  0  0  0
 63141  1  0  0  0
 63142  1  0  0  0
 63143  1  0  0  0
 64144  1  0  0  0
 65145  1  0  0  0
 68 75  1  0  0  0
 71 72  2  0  0  0
 71 86  1  0  0  0
 71146  1  0  0  0
 72 73  1  0  0  0
 72 76  1  0  0  0
 73 74  2  0  0  0
 73 80  1  0  0  0
 74 82  1  0  0  0
 74 86  1  0  0  0
 75 77  2  0  0  0
 75147  1  0  0  0
 76 81  1  0  0  0
 76 83  2  0  0  0
 77 78  1  0  0  0
 77 85  1  0  0  0
 78 81  1  0  0  0
 78 84  2  0  0  0
 79 80  1  0  0  0
 79148  1  0  0  0
 79149  1  0  0  0
 79150  1  0  0  0
 80151  1  0  0  0
 80152  1  0  0  0
 81153  1  0  0  0
 81154  1  0  0  0
 82155  1  0  0  0
 85156  1  0  0  0
M  ISO  4   1 100  68 101  75 101  82 100
M  END
> <chiral flag>
0

> <version>
0

> <s_m_source_file>
/data/baiqing/PycharmProjects/Reinvent-master-3.2/result/LINK_invent/BTK/process_docking_weight1_custom_product_contain_oxygen_bond_distance_aromatic_linkinvent_7_9_3/rearranged_h_0173.sdf

> <i_m_source_file_index>
40

> <r_mmod_Potential_Energy-OPLS-2005>
-88.1276626586914

> <r_mmod_Stretch_Energy-OPLS-2005>
42.6997833251953

> <r_mmod_Bend_Energy-OPLS-2005>
104.063735961914

> <r_mmod_Torsional_Energy-OPLS-2005>
255.923858642578

> <r_mmod_Improper_Torsional_Energy-OPLS-2005>
7.08581638336182

> <r_mmod_Van_der_Waal_Energy-OPLS-2005>
133.481475830078

> <r_mmod_Electrostatic_Energy-OPLS-2005>
-415.04833984375

> <r_mmod_Solvation_Energy-OPLS-2005>
-235.983032226562

> <b_mmod_Minimization_Converged-OPLS-2005>
0

> <r_mmod_RMS_Derivative-OPLS-2005>
1.07045817375183

$$$$
40
                    3D
 Structure written by MMmdl.
154162  0  0  1  0            999 V2000
  -30.6286  -14.7492   20.4611 C   0  0  0  0  0  0
  -30.4257  -12.4533   19.4941 C   0  0  0  0  0  0
  -29.5126  -12.5035   18.2494 C   0  0  0  0  0  0
  -28.0404  -12.3249   18.6626 C   0  0  0  0  0  0
  -27.6418  -13.2356   19.8541 C   0  0  2  0  0  0
  -28.6828  -13.1915   20.9956 C   0  0  0  0  0  0
  -25.2509  -13.8210   20.5716 C   0  0  0  0  0  0
  -24.1797  -13.0441   20.9216 C   0  0  0  0  0  0
  -24.6396  -11.6926   20.8753 C   0  0  0  0  0  0
  -23.9081  -10.4295   21.0411 C   0  0  0  0  0  0
  -24.3628   -9.4206   21.9189 C   0  0  0  0  0  0
  -23.6297   -8.2248   22.0753 C   0  0  0  0  0  0
  -22.4281   -8.0291   21.3546 C   0  0  0  0  0  0
  -21.9926   -9.0262   20.4645 C   0  0  0  0  0  0
  -22.7254  -10.2141   20.3059 C   0  0  0  0  0  0
  -21.6854   -6.0740   22.5274 C   0  0  0  0  0  0
  -21.4011   -6.5637   23.8207 C   0  0  0  0  0  0
  -21.3665   -5.6786   24.9167 C   0  0  0  0  0  0
  -21.6049   -4.3049   24.7216 C   0  0  0  0  0  0
  -21.8818   -3.8147   23.4331 C   0  0  0  0  0  0
  -21.9188   -4.6967   22.3391 C   0  0  0  0  0  0
  -22.7818  -13.5221   21.1864 C   0  0  0  0  0  0
  -22.1659   -4.2154   21.0973 F   0  0  0  0  0  0
  -21.5635   -3.4536   25.7726 F   0  0  0  0  0  0
  -29.9880  -13.5291   20.4170 N   0  0  0  0  0  0
  -26.2932  -12.9422   20.3307 N   0  0  0  0  0  0
  -25.9329  -11.6564   20.5777 N   0  0  0  0  0  0
  -22.0477  -12.8206   22.0421 N   0  0  0  0  0  0
  -25.4199  -15.1933   20.4128 N   0  0  0  0  0  0
  -31.8079  -14.8252   20.1106 O   0  0  0  0  0  0
  -21.6640   -6.8893   21.4240 O   0  0  0  0  0  0
  -22.3508  -14.5530   20.6717 O   0  0  0  0  0  0
  -24.6287  -31.8530   23.1975 C   0  0  0  0  0  0
  -25.9098  -32.4757   23.8339 C   0  0  1  0  0  0
  -27.2334  -27.2747   20.1438 C   0  0  0  0  0  0
  -25.5878  -33.8561   24.2244 N   0  0  0  0  0  0
  -23.4297  -30.4700   21.5398 C   0  0  2  0  0  0
  -24.8831  -28.9143   20.1144 C   0  0  0  0  0  0
  -22.7513  -29.4556   22.4913 C   0  0  0  0  0  0
  -18.0285  -28.1371   22.8473 C   0  0  0  0  0  0
  -24.1493  -36.7316   23.2644 C   0  0  0  0  0  0
  -25.9709  -30.7733   21.3737 C   0  0  0  0  0  0
  -26.0518  -29.3925   20.7227 C   0  0  0  0  0  0
  -27.2338  -28.5857   20.7248 C   0  0  0  0  0  0
  -26.0495  -26.8583   19.5027 C   0  0  0  0  0  0
  -24.8845  -27.6528   19.4954 C   0  0  0  0  0  0
  -23.6505  -29.7975   20.1587 C   0  0  0  0  0  0
  -25.4114  -36.3080   24.0325 C   0  0  1  0  0  0
  -20.5888  -28.3670   23.1273 C   0  0  2  0  0  0
  -20.6776  -26.9384   22.5413 C   0  0  0  0  0  0
  -19.5759  -26.6367   21.5211 C   0  0  0  0  0  0
  -18.1931  -26.7913   22.1615 C   0  0  0  0  0  0
  -19.1540  -28.8839   23.2861 C   0  0  0  0  0  0
  -18.9473  -30.1439   23.8886 C   0  0  0  0  0  0
  -17.6473  -30.6579   24.0549 C   0  0  0  0  0  0
  -25.9039  -34.9448   23.5100 C   0  0  0  0  0  0
  -16.5358  -29.9076   23.6329 C   0  0  0  0  0  0
  -16.7274  -28.6488   23.0357 C   0  0  0  0  0  0
  -26.4482  -31.6589   25.0725 C   0  0  0  0  0  0
  -25.3720  -31.3732   26.1459 C   0  0  0  0  0  0
  -27.0333  -30.3012   24.6198 C   0  0  0  0  0  0
  -27.6035  -32.4345   25.7512 C   0  0  0  0  0  0
  -27.5590  -37.1798   24.8456 C   0  0  0  0  0  0
  -21.4216  -29.3026   22.3682 N   0  0  0  0  0  0
  -26.4300  -37.3765   23.9399 N   0  0  0  0  0  0
  -24.6955  -31.0498   22.0942 N   0  0  0  0  0  0
  -23.4205  -28.8079   23.3004 O   0  0  0  0  0  0
  -28.3303  -26.3877   20.1472 O   0  0  0  0  0  0
  -26.5639  -34.8933   22.4689 O   0  0  0  0  0  0
  -23.5434  -32.1344   23.7253 O   0  0  0  0  0  0
  -28.9627  -20.4082   22.2283 C   0  0  0  0  0  0
  -29.3129  -19.0077   22.0572 C   0  0  0  0  0  0
  -29.6824  -18.6717   20.7683 C   0  0  0  0  0  0
  -29.0438  -21.2455   21.1312 C   0  0  0  0  0  0
  -28.6180  -23.7051   20.3569 C   0  0  0  0  0  0
  -27.1505  -25.0990   22.0054 C   0  0  0  0  0  0
  -30.2767  -17.3180   20.1950 C   0  0  0  0  0  0
  -28.3341  -25.1543   21.0142 C   0  0  2  0  0  0
  -29.3247  -18.0390   23.2123 C   0  0  0  0  0  0
  -28.8002  -22.6307   21.2119 N   0  0  0  0  0  0
  -29.8894  -15.9100   20.6595 N   0  0  0  0  0  0
  -28.6729  -23.5804   19.1313 O   0  0  0  0  0  0
  -28.8794  -18.6029   24.3369 F   0  0  0  0  0  0
  -28.5497  -16.9817   22.9712 F   0  0  0  0  0  0
  -30.5587  -17.5960   23.4548 F   0  0  0  0  0  0
  -29.5549  -20.1850   19.7848 S   0  0  0  0  0  0
  -31.4708  -12.5569   19.1987 H   0  0  0  0  0  0
  -30.3503  -11.4825   19.9857 H   0  0  0  0  0  0
  -29.7976  -11.7260   17.5385 H   0  0  0  0  0  0
  -29.6392  -13.4557   17.7307 H   0  0  0  0  0  0
  -27.9066  -11.2792   18.9410 H   0  0  0  0  0  0
  -27.3798  -12.4979   17.8121 H   0  0  0  0  0  0
  -27.6322  -14.2525   19.4616 H   0  0  0  0  0  0
  -28.7139  -12.2053   21.4610 H   0  0  0  0  0  0
  -28.4148  -13.8943   21.7867 H   0  0  0  0  0  0
  -25.2773   -9.5675   22.4764 H   0  0  0  0  0  0
  -23.9991   -7.4645   22.7478 H   0  0  0  0  0  0
  -21.0861   -8.8802   19.8953 H   0  0  0  0  0  0
  -22.3728  -10.9689   19.6170 H   0  0  0  0  0  0
  -21.2004   -7.6143   23.9712 H   0  0  0  0  0  0
  -21.1491   -6.0516   25.9075 H   0  0  0  0  0  0
  -22.0594   -2.7609   23.2827 H   0  0  0  0  0  0
  -22.4087  -11.9856   22.4794 H   0  0  0  0  0  0
  -21.1099  -13.1236   22.2635 H   0  0  0  0  0  0
  -24.6517  -15.8468   20.5254 H   0  0  0  0  0  0
  -26.2687  -15.6376   20.0891 H   0  0  0  0  0  0
  -26.7168  -32.5433   23.1099 H   0  0  0  0  0  0
  -24.9955  -33.9685   25.0345 H   0  0  0  0  0  0
  -22.7255  -31.2897   21.3887 H   0  0  0  0  0  0
  -23.3744  -35.9655   23.3288 H   0  0  0  0  0  0
  -24.3583  -36.8963   22.2058 H   0  0  0  0  0  0
  -23.7260  -37.6518   23.6693 H   0  0  0  0  0  0
  -26.0991  -31.5308   20.5986 H   0  0  0  0  0  0
  -26.8511  -30.8327   22.0016 H   0  0  0  0  0  0
  -28.1344  -28.9471   21.2037 H   0  0  0  0  0  0
  -26.0232  -25.8878   19.0266 H   0  0  0  0  0  0
  -23.9896  -27.2790   19.0164 H   0  0  0  0  0  0
  -23.7675  -30.5686   19.3967 H   0  0  0  0  0  0
  -22.7732  -29.2211   19.8605 H   0  0  0  0  0  0
  -25.1294  -36.1945   25.0813 H   0  0  0  0  0  0
  -20.9964  -28.3252   24.1402 H   0  0  0  0  0  0
  -20.5681  -26.2271   23.3610 H   0  0  0  0  0  0
  -21.6642  -26.7413   22.1207 H   0  0  0  0  0  0
  -19.6926  -25.6282   21.1234 H   0  0  0  0  0  0
  -19.6719  -27.3190   20.6747 H   0  0  0  0  0  0
  -17.4204  -26.6648   21.4013 H   0  0  0  0  0  0
  -18.0318  -26.0072   22.9023 H   0  0  0  0  0  0
  -19.7957  -30.7232   24.2274 H   0  0  0  0  0  0
  -17.5040  -31.6271   24.5135 H   0  0  0  0  0  0
  -15.5355  -30.2972   23.7681 H   0  0  0  0  0  0
  -15.8665  -28.0802   22.7087 H   0  0  0  0  0  0
  -24.5894  -30.7082   25.7802 H   0  0  0  0  0  0
  -24.8914  -32.2891   26.4907 H   0  0  0  0  0  0
  -25.8043  -30.8911   27.0235 H   0  0  0  0  0  0
  -26.2912  -29.6754   24.1221 H   0  0  0  0  0  0
  -27.4020  -29.7281   25.4716 H   0  0  0  0  0  0
  -27.8788  -30.4294   23.9433 H   0  0  0  0  0  0
  -27.2629  -33.3656   26.2065 H   0  0  0  0  0  0
  -28.3856  -32.6885   25.0343 H   0  0  0  0  0  0
  -28.0689  -31.8489   26.5448 H   0  0  0  0  0  0
  -28.2576  -38.0130   24.7517 H   0  0  0  0  0  0
  -28.1118  -36.2649   24.6259 H   0  0  0  0  0  0
  -27.2302  -37.1411   25.8860 H   0  0  0  0  0  0
  -20.9401  -29.8787   21.6920 H   0  0  0  0  0  0
  -26.0191  -38.2844   24.1412 H   0  0  0  0  0  0
  -28.6812  -20.7685   23.2079 H   0  0  0  0  0  0
  -27.2558  -24.2791   22.7163 H   0  0  0  0  0  0
  -26.1981  -24.9605   21.4946 H   0  0  0  0  0  0
  -27.0921  -26.0178   22.5902 H   0  0  0  0  0  0
  -31.3612  -17.3924   20.2887 H   0  0  0  0  0  0
  -30.1036  -17.3219   19.1177 H   0  0  0  0  0  0
  -29.2151  -25.3145   21.6378 H   0  0  0  0  0  0
  -28.6978  -22.9443   22.1679 H   0  0  0  0  0  0
  -28.9273  -15.7814   20.9309 H   0  0  0  0  0  0
  1 25  1  0  0  0
  1 30  2  0  0  0
  1 81  1  0  0  0
  2  3  1  0  0  0
  2 25  1  0  0  0
  2 87  1  0  0  0
  2 88  1  0  0  0
  3  4  1  0  0  0
  3 89  1  0  0  0
  3 90  1  0  0  0
  4  5  1  0  0  0
  4 91  1  0  0  0
  4 92  1  0  0  0
  5  6  1  0  0  0
  5 26  1  0  0  0
  5 93  1  0  0  0
  6 25  1  0  0  0
  6 94  1  0  0  0
  6 95  1  0  0  0
  7  8  2  0  0  0
  7 26  1  0  0  0
  7 29  1  0  0  0
  8  9  1  0  0  0
  8 22  1  0  0  0
  9 10  1  0  0  0
  9 27  2  0  0  0
 10 11  2  0  0  0
 10 15  1  0  0  0
 11 12  1  0  0  0
 11 96  1  0  0  0
 12 13  2  0  0  0
 12 97  1  0  0  0
 13 14  1  0  0  0
 13 31  1  0  0  0
 14 15  2  0  0  0
 14 98  1  0  0  0
 15 99  1  0  0  0
 16 17  2  0  0  0
 16 21  1  0  0  0
 16 31  1  0  0  0
 17 18  1  0  0  0
 17100  1  0  0  0
 18 19  2  0  0  0
 18101  1  0  0  0
 19 20  1  0  0  0
 19 24  1  0  0  0
 20 21  2  0  0  0
 20102  1  0  0  0
 21 23  1  0  0  0
 22 28  1  0  0  0
 22 32  2  0  0  0
 26 27  1  0  0  0
 28103  1  0  0  0
 28104  1  0  0  0
 29105  1  0  0  0
 29106  1  0  0  0
 33 34  1  0  0  0
 33 66  1  0  0  0
 33 70  2  0  0  0
 34 36  1  0  0  0
 34 59  1  0  0  0
 34107  1  0  0  0
 35 44  2  0  0  0
 35 45  1  0  0  0
 35 68  1  0  0  0
 36 56  1  0  0  0
 36108  1  0  0  0
 37 39  1  0  0  0
 37 47  1  0  0  0
 37 66  1  0  0  0
 37109  1  0  0  0
 38 43  2  0  0  0
 38 46  1  0  0  0
 38 47  1  0  0  0
 39 64  1  0  0  0
 39 67  2  0  0  0
 40 52  1  0  0  0
 40 53  2  0  0  0
 40 58  1  0  0  0
 41110  1  0  0  0
 41111  1  0  0  0
 41112  1  0  0  0
 41 48  1  0  0  0
 42 43  1  0  0  0
 42 66  1  0  0  0
 42113  1  0  0  0
 42114  1  0  0  0
 43 44  1  0  0  0
 44115  1  0  0  0
 45 46  2  0  0  0
 45116  1  0  0  0
 46117  1  0  0  0
 47118  1  0  0  0
 47119  1  0  0  0
 48 56  1  0  0  0
 48 65  1  0  0  0
 48120  1  0  0  0
 49 50  1  0  0  0
 49 53  1  0  0  0
 49 64  1  0  0  0
 49121  1  0  0  0
 50 51  1  0  0  0
 50122  1  0  0  0
 50123  1  0  0  0
 51 52  1  0  0  0
 51124  1  0  0  0
 51125  1  0  0  0
 52126  1  0  0  0
 52127  1  0  0  0
 53 54  1  0  0  0
 54 55  2  0  0  0
 54128  1  0  0  0
 55 57  1  0  0  0
 55129  1  0  0  0
 56 69  2  0  0  0
 57 58  2  0  0  0
 57130  1  0  0  0
 58131  1  0  0  0
 59 60  1  0  0  0
 59 61  1  0  0  0
 59 62  1  0  0  0
 60132  1  0  0  0
 60133  1  0  0  0
 60134  1  0  0  0
 61135  1  0  0  0
 61136  1  0  0  0
 61137  1  0  0  0
 62138  1  0  0  0
 62139  1  0  0  0
 62140  1  0  0  0
 63 65  1  0  0  0
 63141  1  0  0  0
 63142  1  0  0  0
 63143  1  0  0  0
 64144  1  0  0  0
 65145  1  0  0  0
 68 78  1  0  0  0
 71 72  1  0  0  0
 71 74  2  0  0  0
 71146  1  0  0  0
 72 73  2  0  0  0
 72 79  1  0  0  0
 73 77  1  0  0  0
 73 86  1  0  0  0
 74 80  1  0  0  0
 74 86  1  0  0  0
 75 78  1  0  0  0
 75 80  1  0  0  0
 75 82  2  0  0  0
 76147  1  0  0  0
 76148  1  0  0  0
 76149  1  0  0  0
 76 78  1  0  0  0
 77 81  1  0  0  0
 77150  1  0  0  0
 77151  1  0  0  0
 78152  1  0  0  0
 79 83  1  0  0  0
 79 84  1  0  0  0
 79 85  1  0  0  0
 80153  1  0  0  0
 81154  1  0  0  0
M  ISO  4   1 100  68 101  78 101  81 100
M  END
> <chiral flag>
0

> <version>
0

> <s_m_source_file>
/data/baiqing/PycharmProjects/Reinvent-master-3.2/result/LINK_invent/BTK/process_docking_weight1_custom_product_contain_oxygen_bond_distance_aromatic_linkinvent_7_9_3/rearranged_h_0173.sdf

> <i_m_source_file_index>
41

> <r_mmod_Potential_Energy-OPLS-2005>
119.648712158203

> <r_mmod_Stretch_Energy-OPLS-2005>
116.462066650391

> <r_mmod_Bend_Energy-OPLS-2005>
209.530090332031

> <r_mmod_Torsional_Energy-OPLS-2005>
238.246154785156

> <r_mmod_Improper_Torsional_Energy-OPLS-2005>
6.5892653465271

> <r_mmod_Van_der_Waal_Energy-OPLS-2005>
112.044586181641

> <r_mmod_Electrostatic_Energy-OPLS-2005>
-412.92138671875

> <r_mmod_Solvation_Energy-OPLS-2005>
-232.692184448242

> <b_mmod_Minimization_Converged-OPLS-2005>
0

> <r_mmod_RMS_Derivative-OPLS-2005>
2.26024508476257

$$$$
41
                    3D
 Structure written by MMmdl.
161170  0  0  1  0            999 V2000
  -30.6796  -14.5005   20.5812 C   0  0  0  0  0  0
  -30.4391  -12.3230   19.4346 C   0  0  0  0  0  0
  -29.5074  -12.5046   18.2171 C   0  0  0  0  0  0
  -28.0289  -12.3521   18.6290 C   0  0  0  0  0  0
  -27.6667  -13.2012   19.8762 C   0  0  2  0  0  0
  -28.7040  -12.9836   21.0010 C   0  0  0  0  0  0
  -25.2624  -13.8146   20.5661 C   0  0  0  0  0  0
  -24.1859  -13.0437   20.9158 C   0  0  0  0  0  0
  -24.6398  -11.6899   20.8720 C   0  0  0  0  0  0
  -23.9057  -10.4294   21.0408 C   0  0  0  0  0  0
  -24.3614   -9.4204   21.9182 C   0  0  0  0  0  0
  -23.6293   -8.2242   22.0746 C   0  0  0  0  0  0
  -22.4271   -8.0283   21.3550 C   0  0  0  0  0  0
  -21.9908   -9.0262   20.4651 C   0  0  0  0  0  0
  -22.7231  -10.2139   20.3060 C   0  0  0  0  0  0
  -21.6856   -6.0730   22.5288 C   0  0  0  0  0  0
  -21.4012   -6.5638   23.8223 C   0  0  0  0  0  0
  -21.3653   -5.6779   24.9180 C   0  0  0  0  0  0
  -21.6043   -4.3044   24.7226 C   0  0  0  0  0  0
  -21.8821   -3.8140   23.4342 C   0  0  0  0  0  0
  -21.9190   -4.6963   22.3402 C   0  0  0  0  0  0
  -22.7886  -13.5255   21.1831 C   0  0  0  0  0  0
  -22.1663   -4.2155   21.0983 F   0  0  0  0  0  0
  -21.5624   -3.4521   25.7728 F   0  0  0  0  0  0
  -30.0400  -13.3019   20.4606 N   0  0  0  0  0  0
  -26.3054  -12.9298   20.3348 N   0  0  0  0  0  0
  -25.9326  -11.6465   20.5748 N   0  0  0  0  0  0
  -22.0500  -12.8275   22.0388 N   0  0  0  0  0  0
  -25.4361  -15.1862   20.4055 N   0  0  0  0  0  0
  -31.7922  -14.7185   20.0905 O   0  0  0  0  0  0
  -21.6640   -6.8883   21.4254 O   0  0  0  0  0  0
  -22.3591  -14.5568   20.6679 O   0  0  0  0  0  0
  -24.6180  -31.8679   23.2126 C   0  0  0  0  0  0
  -25.9061  -32.4817   23.8431 C   0  0  1  0  0  0
  -27.2162  -27.3843   20.0733 C   0  0  0  0  0  0
  -25.5911  -33.8618   24.2328 N   0  0  0  0  0  0
  -23.4070  -30.4966   21.5563 C   0  0  2  0  0  0
  -24.8475  -28.9697   20.1104 C   0  0  0  0  0  0
  -22.7426  -29.4661   22.4994 C   0  0  0  0  0  0
  -18.0272  -28.1389   22.8500 C   0  0  0  0  0  0
  -24.1481  -36.7311   23.2639 C   0  0  0  0  0  0
  -25.9467  -30.8067   21.3852 C   0  0  0  0  0  0
  -26.0139  -29.4423   20.7239 C   0  0  0  0  0  0
  -27.1944  -28.6523   20.7164 C   0  0  0  0  0  0
  -26.0253  -26.9669   19.4216 C   0  0  0  0  0  0
  -24.8518  -27.7328   19.4579 C   0  0  0  0  0  0
  -23.6134  -29.8405   20.1684 C   0  0  0  0  0  0
  -25.4101  -36.3104   24.0341 C   0  0  1  0  0  0
  -20.5868  -28.3669   23.1326 C   0  0  2  0  0  0
  -20.6745  -26.9401   22.5437 C   0  0  0  0  0  0
  -19.5729  -26.6384   21.5227 C   0  0  0  0  0  0
  -18.1902  -26.7946   22.1617 C   0  0  0  0  0  0
  -19.1528  -28.8849   23.2908 C   0  0  0  0  0  0
  -18.9456  -30.1461   23.8897 C   0  0  0  0  0  0
  -17.6458  -30.6594   24.0561 C   0  0  0  0  0  0
  -25.9037  -34.9473   23.5128 C   0  0  0  0  0  0
  -16.5345  -29.9087   23.6344 C   0  0  0  0  0  0
  -16.7263  -28.6512   23.0360 C   0  0  0  0  0  0
  -26.4458  -31.6627   25.0790 C   0  0  0  0  0  0
  -25.3719  -31.3838   26.1565 C   0  0  0  0  0  0
  -27.0242  -30.3026   24.6242 C   0  0  0  0  0  0
  -27.6071  -32.4340   25.7489 C   0  0  0  0  0  0
  -27.5596  -37.1787   24.8446 C   0  0  0  0  0  0
  -21.4152  -29.3040   22.3731 N   0  0  0  0  0  0
  -26.4285  -37.3794   23.9425 N   0  0  0  0  0  0
  -24.6754  -31.0730   22.1067 N   0  0  0  0  0  0
  -23.4192  -28.8179   23.3025 O   0  0  0  0  0  0
  -28.3631  -26.5895   20.1070 O   0  0  0  0  0  0
  -26.5609  -34.8931   22.4692 O   0  0  0  0  0  0
  -23.5358  -32.1472   23.7478 O   0  0  0  0  0  0
  -30.9378  -17.6541   20.4650 C   0  0  0  0  0  0
  -29.9451  -16.8060   20.9158 C   0  0  0  0  0  0
  -29.2135  -19.1671   20.4667 C   0  0  0  0  0  0
  -29.1206  -24.1417   20.0578 C   0  0  0  0  0  0
  -27.7578  -20.1902   18.6666 C   0  0  0  0  0  0
  -28.7201  -20.3010   17.4659 C   0  0  0  0  0  0
  -29.6486  -22.6718   18.0169 C   0  0  0  0  0  0
  -28.3850  -20.3803   20.0750 C   0  0  2  0  0  0
  -28.8933  -22.7625   19.3647 C   0  0  1  0  0  0
  -28.9651  -21.7472   16.9923 C   0  0  0  0  0  0
  -28.3034  -25.3014   19.4312 C   0  0  0  0  0  0
  -30.5158  -18.9781   20.2116 N   0  0  0  0  0  0
  -29.9636  -15.4662   21.1965 N   0  0  0  0  0  0
  -29.2401  -21.5996   20.2428 N   0  3  0  0  0  0
  -29.8598  -24.3130   21.0332 O   0  0  0  0  0  0
  -27.8036  -22.2919   16.6268 F   0  0  0  0  0  0
  -29.7432  -21.6954   15.9111 F   0  0  0  0  0  0
  -28.4568  -17.7074   21.1171 S   0  0  0  0  0  0
  -31.4814  -12.4419   19.1326 H   0  0  0  0  0  0
  -30.3577  -11.3098   19.8316 H   0  0  0  0  0  0
  -29.7577  -11.7772   17.4433 H   0  0  0  0  0  0
  -29.6681  -13.4891   17.7751 H   0  0  0  0  0  0
  -27.8584  -11.2959   18.8422 H   0  0  0  0  0  0
  -27.3741  -12.6040   17.7940 H   0  0  0  0  0  0
  -27.7132  -14.2474   19.5728 H   0  0  0  0  0  0
  -28.6855  -11.9458   21.3378 H   0  0  0  0  0  0
  -28.4456  -13.5739   21.8814 H   0  0  0  0  0  0
  -25.2770   -9.5681   22.4742 H   0  0  0  0  0  0
  -24.0010   -7.4626   22.7455 H   0  0  0  0  0  0
  -21.0837   -8.8782   19.8958 H   0  0  0  0  0  0
  -22.3695  -10.9678   19.6163 H   0  0  0  0  0  0
  -21.2009   -7.6142   23.9734 H   0  0  0  0  0  0
  -21.1467   -6.0500   25.9089 H   0  0  0  0  0  0
  -22.0595   -2.7601   23.2832 H   0  0  0  0  0  0
  -22.4072  -11.9927   22.4798 H   0  0  0  0  0  0
  -21.1143  -13.1372   22.2586 H   0  0  0  0  0  0
  -24.6676  -15.8403   20.5029 H   0  0  0  0  0  0
  -26.2903  -15.6211   20.0814 H   0  0  0  0  0  0
  -26.7127  -32.5483   23.1182 H   0  0  0  0  0  0
  -25.0036  -33.9789   25.0458 H   0  0  0  0  0  0
  -22.6987  -31.3172   21.4248 H   0  0  0  0  0  0
  -23.3761  -35.9619   23.3246 H   0  0  0  0  0  0
  -24.3593  -36.8979   22.2065 H   0  0  0  0  0  0
  -23.7205  -37.6490   23.6685 H   0  0  0  0  0  0
  -26.0856  -31.5735   20.6218 H   0  0  0  0  0  0
  -26.8256  -30.8445   22.0174 H   0  0  0  0  0  0
  -28.0854  -29.0049   21.2171 H   0  0  0  0  0  0
  -25.9372  -26.0581   18.8499 H   0  0  0  0  0  0
  -23.9627  -27.3761   18.9555 H   0  0  0  0  0  0
  -23.7160  -30.6178   19.4102 H   0  0  0  0  0  0
  -22.7355  -29.2614   19.8775 H   0  0  0  0  0  0
  -25.1269  -36.1961   25.0833 H   0  0  0  0  0  0
  -20.9983  -28.3227   24.1438 H   0  0  0  0  0  0
  -20.5633  -26.2277   23.3625 H   0  0  0  0  0  0
  -21.6615  -26.7409   22.1254 H   0  0  0  0  0  0
  -19.6868  -25.6289   21.1272 H   0  0  0  0  0  0
  -19.6692  -27.3174   20.6745 H   0  0  0  0  0  0
  -17.4199  -26.6765   21.3982 H   0  0  0  0  0  0
  -18.0238  -26.0071   22.8984 H   0  0  0  0  0  0
  -19.7930  -30.7288   24.2250 H   0  0  0  0  0  0
  -17.5013  -31.6278   24.5151 H   0  0  0  0  0  0
  -15.5348  -30.2986   23.7668 H   0  0  0  0  0  0
  -15.8668  -28.0828   22.7064 H   0  0  0  0  0  0
  -24.5777  -30.7300   25.7945 H   0  0  0  0  0  0
  -24.9047  -32.3047   26.5066 H   0  0  0  0  0  0
  -25.8041  -30.8954   27.0305 H   0  0  0  0  0  0
  -26.2786  -29.6828   24.1235 H   0  0  0  0  0  0
  -27.3873  -29.7248   25.4756 H   0  0  0  0  0  0
  -27.8717  -30.4280   23.9494 H   0  0  0  0  0  0
  -27.2724  -33.3635   26.2108 H   0  0  0  0  0  0
  -28.3820  -32.6911   25.0254 H   0  0  0  0  0  0
  -28.0811  -31.8450   26.5350 H   0  0  0  0  0  0
  -28.2596  -38.0100   24.7518 H   0  0  0  0  0  0
  -28.1105  -36.2640   24.6195 H   0  0  0  0  0  0
  -27.2347  -37.1359   25.8858 H   0  0  0  0  0  0
  -20.9299  -29.8806   21.6997 H   0  0  0  0  0  0
  -26.0171  -38.2870   24.1445 H   0  0  0  0  0  0
  -31.9690  -17.3962   20.2666 H   0  0  0  0  0  0
  -27.2915  -19.2045   18.6399 H   0  0  0  0  0  0
  -26.9228  -20.8756   18.5251 H   0  0  0  0  0  0
  -28.2778  -19.7527   16.6325 H   0  0  0  0  0  0
  -29.6650  -19.7974   17.6732 H   0  0  0  0  0  0
  -30.6768  -22.3475   18.1844 H   0  0  0  0  0  0
  -29.7344  -23.6573   17.5571 H   0  0  0  0  0  0
  -27.5626  -20.4573   20.7885 H   0  0  0  0  0  0
  -27.8240  -22.7313   19.1627 H   0  0  0  0  0  0
  -27.3041  -24.8796   19.4568 H   0  0  0  0  0  0
  -28.5822  -25.4273   18.3848 H   0  0  0  0  0  0
  -29.1327  -15.1132   21.6457 H   0  0  0  0  0  0
  -30.1987  -21.3230   20.0984 H   0  0  0  0  0  0
  -29.1709  -21.8978   21.2039 H   0  0  0  0  0  0
  1 25  1  0  0  0
  1 30  2  0  0  0
  1 83  1  0  0  0
  2  3  1  0  0  0
  2 25  1  0  0  0
  2 89  1  0  0  0
  2 90  1  0  0  0
  3  4  1  0  0  0
  3 91  1  0  0  0
  3 92  1  0  0  0
  4  5  1  0  0  0
  4 93  1  0  0  0
  4 94  1  0  0  0
  5  6  1  0  0  0
  5 26  1  0  0  0
  5 95  1  0  0  0
  6 25  1  0  0  0
  6 96  1  0  0  0
  6 97  1  0  0  0
  7  8  2  0  0  0
  7 26  1  0  0  0
  7 29  1  0  0  0
  8  9  1  0  0  0
  8 22  1  0  0  0
  9 10  1  0  0  0
  9 27  2  0  0  0
 10 11  2  0  0  0
 10 15  1  0  0  0
 11 12  1  0  0  0
 11 98  1  0  0  0
 12 13  2  0  0  0
 12 99  1  0  0  0
 13 14  1  0  0  0
 13 31  1  0  0  0
 14 15  2  0  0  0
 14100  1  0  0  0
 15101  1  0  0  0
 16 17  2  0  0  0
 16 21  1  0  0  0
 16 31  1  0  0  0
 17 18  1  0  0  0
 17102  1  0  0  0
 18 19  2  0  0  0
 18103  1  0  0  0
 19 20  1  0  0  0
 19 24  1  0  0  0
 20 21  2  0  0  0
 20104  1  0  0  0
 21 23  1  0  0  0
 22 28  1  0  0  0
 22 32  2  0  0  0
 26 27  1  0  0  0
 28105  1  0  0  0
 28106  1  0  0  0
 29107  1  0  0  0
 29108  1  0  0  0
 33 34  1  0  0  0
 33 66  1  0  0  0
 33 70  2  0  0  0
 34 36  1  0  0  0
 34 59  1  0  0  0
 34109  1  0  0  0
 35 44  2  0  0  0
 35 45  1  0  0  0
 35 68  1  0  0  0
 36 56  1  0  0  0
 36110  1  0  0  0
 37 39  1  0  0  0
 37 47  1  0  0  0
 37 66  1  0  0  0
 37111  1  0  0  0
 38 43  2  0  0  0
 38 46  1  0  0  0
 38 47  1  0  0  0
 39 64  1  0  0  0
 39 67  2  0  0  0
 40 52  1  0  0  0
 40 53  2  0  0  0
 40 58  1  0  0  0
 41112  1  0  0  0
 41113  1  0  0  0
 41114  1  0  0  0
 41 48  1  0  0  0
 42 43  1  0  0  0
 42 66  1  0  0  0
 42115  1  0  0  0
 42116  1  0  0  0
 43 44  1  0  0  0
 44117  1  0  0  0
 45 46  2  0  0  0
 45118  1  0  0  0
 46119  1  0  0  0
 47120  1  0  0  0
 47121  1  0  0  0
 48 56  1  0  0  0
 48 65  1  0  0  0
 48122  1  0  0  0
 49 50  1  0  0  0
 49 53  1  0  0  0
 49 64  1  0  0  0
 49123  1  0  0  0
 50 51  1  0  0  0
 50124  1  0  0  0
 50125  1  0  0  0
 51 52  1  0  0  0
 51126  1  0  0  0
 51127  1  0  0  0
 52128  1  0  0  0
 52129  1  0  0  0
 53 54  1  0  0  0
 54 55  2  0  0  0
 54130  1  0  0  0
 55 57  1  0  0  0
 55131  1  0  0  0
 56 69  2  0  0  0
 57 58  2  0  0  0
 57132  1  0  0  0
 58133  1  0  0  0
 59 60  1  0  0  0
 59 61  1  0  0  0
 59 62  1  0  0  0
 60134  1  0  0  0
 60135  1  0  0  0
 60136  1  0  0  0
 61137  1  0  0  0
 61138  1  0  0  0
 61139  1  0  0  0
 62140  1  0  0  0
 62141  1  0  0  0
 62142  1  0  0  0
 63 65  1  0  0  0
 63143  1  0  0  0
 63144  1  0  0  0
 63145  1  0  0  0
 64146  1  0  0  0
 65147  1  0  0  0
 68 81  1  0  0  0
 71 72  2  0  0  0
 71 82  1  0  0  0
 71148  1  0  0  0
 72 83  1  0  0  0
 72 88  1  0  0  0
 73 82  2  0  0  0
 73 88  1  0  0  0
 73 78  1  0  0  0
 74 81  1  0  0  0
 74 85  2  0  0  0
 74 79  1  0  0  0
 75 76  1  0  0  0
 75 78  1  0  0  0
 75149  1  0  0  0
 75150  1  0  0  0
 76 80  1  0  0  0
 76151  1  0  0  0
 76152  1  0  0  0
 77 79  1  0  0  0
 77 80  1  0  0  0
 77153  1  0  0  0
 77154  1  0  0  0
 78 84  1  0  0  0
 78155  1  0  0  0
 79 84  1  0  0  0
 79156  1  0  0  0
 80 86  1  0  0  0
 80 87  1  0  0  0
 81157  1  0  0  0
 81158  1  0  0  0
 83159  1  0  0  0
 84160  1  0  0  0
 84161  1  0  0  0
M  CHG  1  84   1
M  ISO  4   1 100  68 101  81 101  83 100
M  END
> <chiral flag>
0

> <version>
0

> <s_m_source_file>
/data/baiqing/PycharmProjects/Reinvent-master-3.2/result/LINK_invent/BTK/process_docking_weight1_custom_product_contain_oxygen_bond_distance_aromatic_linkinvent_7_9_3/rearranged_h_0173.sdf

> <i_m_source_file_index>
42

> <r_mmod_Potential_Energy-OPLS-2005>
-393.686187744141

> <r_mmod_Stretch_Energy-OPLS-2005>
46.5633811950684

> <r_mmod_Bend_Energy-OPLS-2005>
128.885040283203

> <r_mmod_Torsional_Energy-OPLS-2005>
242.050903320312

> <r_mmod_Improper_Torsional_Energy-OPLS-2005>
5.06905460357666

> <r_mmod_Van_der_Waal_Energy-OPLS-2005>
138.781402587891

> <r_mmod_Electrostatic_Energy-OPLS-2005>
-476.355743408203

> <r_mmod_Solvation_Energy-OPLS-2005>
-500.201202392578

> <b_mmod_Minimization_Converged-OPLS-2005>
0

> <r_mmod_RMS_Derivative-OPLS-2005>
1.90420246124268

$$$$
42
                    3D
 Structure written by MMmdl.
153161  0  0  1  0            999 V2000
  -30.6533  -14.6137   20.5111 C   0  0  0  0  0  0
  -30.4314  -12.3835   19.4425 C   0  0  0  0  0  0
  -29.5014  -12.4991   18.2165 C   0  0  0  0  0  0
  -28.0260  -12.3379   18.6340 C   0  0  0  0  0  0
  -27.6503  -13.2158   19.8576 C   0  0  2  0  0  0
  -28.6956  -13.0818   20.9863 C   0  0  0  0  0  0
  -25.2555  -13.8165   20.5671 C   0  0  0  0  0  0
  -24.1824  -13.0432   20.9184 C   0  0  0  0  0  0
  -24.6389  -11.6903   20.8729 C   0  0  0  0  0  0
  -23.9057  -10.4291   21.0398 C   0  0  0  0  0  0
  -24.3609   -9.4207   21.9175 C   0  0  0  0  0  0
  -23.6288   -8.2240   22.0750 C   0  0  0  0  0  0
  -22.4269   -8.0276   21.3541 C   0  0  0  0  0  0
  -21.9903   -9.0249   20.4642 C   0  0  0  0  0  0
  -22.7230  -10.2130   20.3051 C   0  0  0  0  0  0
  -21.6855   -6.0729   22.5274 C   0  0  0  0  0  0
  -21.4017   -6.5635   23.8208 C   0  0  0  0  0  0
  -21.3657   -5.6788   24.9174 C   0  0  0  0  0  0
  -21.6042   -4.3050   24.7228 C   0  0  0  0  0  0
  -21.8821   -3.8140   23.4348 C   0  0  0  0  0  0
  -21.9198   -4.6955   22.3403 C   0  0  0  0  0  0
  -22.7846  -13.5228   21.1848 C   0  0  0  0  0  0
  -22.1664   -4.2138   21.0980 F   0  0  0  0  0  0
  -21.5628   -3.4538   25.7743 F   0  0  0  0  0  0
  -30.0094  -13.4104   20.4134 N   0  0  0  0  0  0
  -26.2976  -12.9347   20.3296 N   0  0  0  0  0  0
  -25.9317  -11.6505   20.5745 N   0  0  0  0  0  0
  -22.0489  -12.8226   22.0406 N   0  0  0  0  0  0
  -25.4262  -15.1886   20.4066 N   0  0  0  0  0  0
  -31.8259  -14.7468   20.1503 O   0  0  0  0  0  0
  -21.6639   -6.8867   21.4235 O   0  0  0  0  0  0
  -22.3535  -14.5537   20.6692 O   0  0  0  0  0  0
  -24.6222  -31.8623   23.2035 C   0  0  0  0  0  0
  -25.9091  -32.4796   23.8356 C   0  0  1  0  0  0
  -27.2328  -27.3561   20.1133 C   0  0  0  0  0  0
  -25.5928  -33.8589   24.2297 N   0  0  0  0  0  0
  -23.4163  -30.4820   21.5450 C   0  0  2  0  0  0
  -24.8676  -28.9376   20.1160 C   0  0  0  0  0  0
  -22.7470  -29.4610   22.4946 C   0  0  0  0  0  0
  -18.0289  -28.1379   22.8485 C   0  0  0  0  0  0
  -24.1491  -36.7284   23.2629 C   0  0  0  0  0  0
  -25.9532  -30.8020   21.3714 C   0  0  0  0  0  0
  -26.0328  -29.4282   20.7225 C   0  0  0  0  0  0
  -27.2221  -28.6445   20.7207 C   0  0  0  0  0  0
  -26.0515  -26.9021   19.4972 C   0  0  0  0  0  0
  -24.8752  -27.6751   19.4999 C   0  0  0  0  0  0
  -23.6329  -29.8133   20.1618 C   0  0  0  0  0  0
  -25.4114  -36.3081   24.0330 C   0  0  1  0  0  0
  -20.5881  -28.3670   23.1291 C   0  0  2  0  0  0
  -20.6774  -26.9392   22.5407 C   0  0  0  0  0  0
  -19.5748  -26.6373   21.5209 C   0  0  0  0  0  0
  -18.1929  -26.7927   22.1620 C   0  0  0  0  0  0
  -19.1536  -28.8846   23.2885 C   0  0  0  0  0  0
  -18.9459  -30.1451   23.8893 C   0  0  0  0  0  0
  -17.6458  -30.6577   24.0561 C   0  0  0  0  0  0
  -25.9048  -34.9453   23.5108 C   0  0  0  0  0  0
  -16.5355  -29.9067   23.6324 C   0  0  0  0  0  0
  -16.7276  -28.6489   23.0341 C   0  0  0  0  0  0
  -26.4502  -31.6580   25.0699 C   0  0  0  0  0  0
  -25.3768  -31.3726   26.1447 C   0  0  0  0  0  0
  -27.0324  -30.3002   24.6123 C   0  0  0  0  0  0
  -27.6068  -32.4301   25.7485 C   0  0  0  0  0  0
  -27.5583  -37.1792   24.8461 C   0  0  0  0  0  0
  -21.4180  -29.3030   22.3699 N   0  0  0  0  0  0
  -26.4293  -37.3770   23.9414 N   0  0  0  0  0  0
  -24.6820  -31.0651   22.0973 N   0  0  0  0  0  0
  -23.4217  -28.8154   23.3009 O   0  0  0  0  0  0
  -28.3320  -26.5051   20.0643 O   0  0  0  0  0  0
  -26.5588  -34.8923   22.4660 O   0  0  0  0  0  0
  -23.5384  -32.1403   23.7367 O   0  0  0  0  0  0
  -29.1155  -18.0946   19.0810 C   0  0  0  0  0  0
  -28.6061  -20.4913   18.8667 C   0  0  0  0  0  0
  -29.6955  -18.3011   20.3496 C   0  0  0  0  0  0
  -29.1701  -20.7611   20.1359 C   0  0  0  0  0  0
  -28.5819  -19.1769   18.3505 C   0  0  0  0  0  0
  -29.7116  -19.6461   20.8613 C   0  0  0  0  0  0
  -28.5958  -25.7279   21.1836 C   0  0  0  0  0  0
  -28.8579  -24.3826   21.3133 C   0  0  0  0  0  0
  -28.8667  -23.3437   20.2475 C   0  0  0  0  0  0
  -30.3481  -17.1059   21.1186 C   0  0  0  0  0  0
  -29.1727  -22.0952   20.7285 N   0  0  0  0  0  0
  -29.8974  -15.6959   20.8590 N   0  0  0  0  0  0
  -28.6350  -23.5642   19.0576 O   0  0  0  0  0  0
  -29.1288  -23.9534   22.5596 O   0  0  0  0  0  0
  -28.0376  -18.9513   17.1318 F   0  0  0  0  0  0
  -30.2611  -19.8806   22.0772 F   0  0  0  0  0  0
  -31.4723  -12.5037   19.1364 H   0  0  0  0  0  0
  -30.3632  -11.3901   19.8887 H   0  0  0  0  0  0
  -29.7627  -11.7452   17.4730 H   0  0  0  0  0  0
  -29.6445  -13.4671   17.7335 H   0  0  0  0  0  0
  -27.8665  -11.2857   18.8729 H   0  0  0  0  0  0
  -27.3687  -12.5592   17.7924 H   0  0  0  0  0  0
  -27.6677  -14.2489   19.5100 H   0  0  0  0  0  0
  -28.7040  -12.0663   21.3844 H   0  0  0  0  0  0
  -28.4464  -13.7308   21.8271 H   0  0  0  0  0  0
  -25.2755   -9.5686   22.4752 H   0  0  0  0  0  0
  -24.0000   -7.4633   22.7470 H   0  0  0  0  0  0
  -21.0834   -8.8760   19.8949 H   0  0  0  0  0  0
  -22.3679  -10.9664   19.6160 H   0  0  0  0  0  0
  -21.2007   -7.6142   23.9708 H   0  0  0  0  0  0
  -21.1477   -6.0519   25.9074 H   0  0  0  0  0  0
  -22.0603   -2.7599   23.2857 H   0  0  0  0  0  0
  -22.4105  -11.9895   22.4804 H   0  0  0  0  0  0
  -21.1102  -13.1245   22.2594 H   0  0  0  0  0  0
  -24.6536  -15.8391   20.5044 H   0  0  0  0  0  0
  -26.2674  -15.6267   20.0541 H   0  0  0  0  0  0
  -26.7160  -32.5502   23.1105 H   0  0  0  0  0  0
  -25.0151  -33.9746   25.0498 H   0  0  0  0  0  0
  -22.7063  -31.2988   21.4009 H   0  0  0  0  0  0
  -23.3756  -35.9608   23.3303 H   0  0  0  0  0  0
  -24.3579  -36.8884   22.2034 H   0  0  0  0  0  0
  -23.7238  -37.6499   23.6638 H   0  0  0  0  0  0
  -26.0761  -31.5645   20.6007 H   0  0  0  0  0  0
  -26.8361  -30.8565   21.9964 H   0  0  0  0  0  0
  -28.1227  -29.0164   21.1891 H   0  0  0  0  0  0
  -26.0440  -25.9307   19.0224 H   0  0  0  0  0  0
  -23.9813  -27.2897   19.0295 H   0  0  0  0  0  0
  -23.7479  -30.5880   19.4024 H   0  0  0  0  0  0
  -22.7555  -29.2363   19.8627 H   0  0  0  0  0  0
  -25.1283  -36.1929   25.0817 H   0  0  0  0  0  0
  -20.9975  -28.3231   24.1410 H   0  0  0  0  0  0
  -20.5664  -26.2265   23.3594 H   0  0  0  0  0  0
  -21.6641  -26.7406   22.1201 H   0  0  0  0  0  0
  -19.6899  -25.6288   21.1215 H   0  0  0  0  0  0
  -19.6682  -27.3198   20.6755 H   0  0  0  0  0  0
  -17.4191  -26.6668   21.4033 H   0  0  0  0  0  0
  -18.0329  -26.0076   22.9019 H   0  0  0  0  0  0
  -19.7936  -30.7271   24.2244 H   0  0  0  0  0  0
  -17.5010  -31.6258   24.5159 H   0  0  0  0  0  0
  -15.5351  -30.2959   23.7659 H   0  0  0  0  0  0
  -15.8683  -28.0809   22.7045 H   0  0  0  0  0  0
  -24.5923  -30.7082   25.7807 H   0  0  0  0  0  0
  -24.8994  -32.2897   26.4899 H   0  0  0  0  0  0
  -25.8110  -30.8897   27.0204 H   0  0  0  0  0  0
  -26.2872  -29.6771   24.1154 H   0  0  0  0  0  0
  -27.4042  -29.7226   25.4597 H   0  0  0  0  0  0
  -27.8739  -30.4289   23.9313 H   0  0  0  0  0  0
  -27.2680  -33.3586   26.2095 H   0  0  0  0  0  0
  -28.3882  -32.6879   25.0327 H   0  0  0  0  0  0
  -28.0738  -31.8408   26.5386 H   0  0  0  0  0  0
  -28.2584  -38.0110   24.7532 H   0  0  0  0  0  0
  -28.1106  -36.2636   24.6256 H   0  0  0  0  0  0
  -27.2312  -37.1403   25.8872 H   0  0  0  0  0  0
  -20.9345  -29.8753   21.6919 H   0  0  0  0  0  0
  -26.0175  -38.2842   24.1448 H   0  0  0  0  0  0
  -29.0903  -17.1051   18.6477 H   0  0  0  0  0  0
  -28.1701  -21.2762   18.2689 H   0  0  0  0  0  0
  -28.5962  -26.3638   22.0585 H   0  0  0  0  0  0
  -30.2071  -17.2880   22.1850 H   0  0  0  0  0  0
  -31.4253  -17.1757   20.9594 H   0  0  0  0  0  0
  -29.4189  -22.1235   21.7107 H   0  0  0  0  0  0
  -28.9340  -15.4967   21.0812 H   0  0  0  0  0  0
  -29.1101  -24.7070   23.1345 H   0  0  0  0  0  0
  1 25  1  0  0  0
  1 30  2  0  0  0
  1 82  1  0  0  0
  2  3  1  0  0  0
  2 25  1  0  0  0
  2 87  1  0  0  0
  2 88  1  0  0  0
  3  4  1  0  0  0
  3 89  1  0  0  0
  3 90  1  0  0  0
  4  5  1  0  0  0
  4 91  1  0  0  0
  4 92  1  0  0  0
  5  6  1  0  0  0
  5 26  1  0  0  0
  5 93  1  0  0  0
  6 25  1  0  0  0
  6 94  1  0  0  0
  6 95  1  0  0  0
  7  8  2  0  0  0
  7 26  1  0  0  0
  7 29  1  0  0  0
  8  9  1  0  0  0
  8 22  1  0  0  0
  9 10  1  0  0  0
  9 27  2  0  0  0
 10 11  2  0  0  0
 10 15  1  0  0  0
 11 12  1  0  0  0
 11 96  1  0  0  0
 12 13  2  0  0  0
 12 97  1  0  0  0
 13 14  1  0  0  0
 13 31  1  0  0  0
 14 15  2  0  0  0
 14 98  1  0  0  0
 15 99  1  0  0  0
 16 17  2  0  0  0
 16 21  1  0  0  0
 16 31  1  0  0  0
 17 18  1  0  0  0
 17100  1  0  0  0
 18 19  2  0  0  0
 18101  1  0  0  0
 19 20  1  0  0  0
 19 24  1  0  0  0
 20 21  2  0  0  0
 20102  1  0  0  0
 21 23  1  0  0  0
 22 28  1  0  0  0
 22 32  2  0  0  0
 26 27  1  0  0  0
 28103  1  0  0  0
 28104  1  0  0  0
 29105  1  0  0  0
 29106  1  0  0  0
 33 34  1  0  0  0
 33 66  1  0  0  0
 33 70  2  0  0  0
 34 36  1  0  0  0
 34 59  1  0  0  0
 34107  1  0  0  0
 35 44  2  0  0  0
 35 45  1  0  0  0
 35 68  1  0  0  0
 36 56  1  0  0  0
 36108  1  0  0  0
 37 39  1  0  0  0
 37 47  1  0  0  0
 37 66  1  0  0  0
 37109  1  0  0  0
 38 43  2  0  0  0
 38 46  1  0  0  0
 38 47  1  0  0  0
 39 64  1  0  0  0
 39 67  2  0  0  0
 40 52  1  0  0  0
 40 53  2  0  0  0
 40 58  1  0  0  0
 41110  1  0  0  0
 41111  1  0  0  0
 41112  1  0  0  0
 41 48  1  0  0  0
 42 43  1  0  0  0
 42 66  1  0  0  0
 42113  1  0  0  0
 42114  1  0  0  0
 43 44  1  0  0  0
 44115  1  0  0  0
 45 46  2  0  0  0
 45116  1  0  0  0
 46117  1  0  0  0
 47118  1  0  0  0
 47119  1  0  0  0
 48 56  1  0  0  0
 48 65  1  0  0  0
 48120  1  0  0  0
 49 50  1  0  0  0
 49 53  1  0  0  0
 49 64  1  0  0  0
 49121  1  0  0  0
 50 51  1  0  0  0
 50122  1  0  0  0
 50123  1  0  0  0
 51 52  1  0  0  0
 51124  1  0  0  0
 51125  1  0  0  0
 52126  1  0  0  0
 52127  1  0  0  0
 53 54  1  0  0  0
 54 55  2  0  0  0
 54128  1  0  0  0
 55 57  1  0  0  0
 55129  1  0  0  0
 56 69  2  0  0  0
 57 58  2  0  0  0
 57130  1  0  0  0
 58131  1  0  0  0
 59 60  1  0  0  0
 59 61  1  0  0  0
 59 62  1  0  0  0
 60132  1  0  0  0
 60133  1  0  0  0
 60134  1  0  0  0
 61135  1  0  0  0
 61136  1  0  0  0
 61137  1  0  0  0
 62138  1  0  0  0
 62139  1  0  0  0
 62140  1  0  0  0
 63 65  1  0  0  0
 63141  1  0  0  0
 63142  1  0  0  0
 63143  1  0  0  0
 64144  1  0  0  0
 65145  1  0  0  0
 68 77  1  0  0  0
 71 73  2  0  0  0
 71 75  1  0  0  0
 71146  1  0  0  0
 72 74  1  0  0  0
 72 75  2  0  0  0
 72147  1  0  0  0
 73 76  1  0  0  0
 73 80  1  0  0  0
 74 76  2  0  0  0
 74 81  1  0  0  0
 75 85  1  0  0  0
 76 86  1  0  0  0
 77 78  2  0  0  0
 77148  1  0  0  0
 78 79  1  0  0  0
 78 84  1  0  0  0
 79 81  1  0  0  0
 79 83  2  0  0  0
 80 82  1  0  0  0
 80149  1  0  0  0
 80150  1  0  0  0
 81151  1  0  0  0
 82152  1  0  0  0
 84153  1  0  0  0
M  ISO  4   1 100  68 101  77 101  82 100
M  END
> <chiral flag>
0

> <version>
0

> <s_m_source_file>
/data/baiqing/PycharmProjects/Reinvent-master-3.2/result/LINK_invent/BTK/process_docking_weight1_custom_product_contain_oxygen_bond_distance_aromatic_linkinvent_7_9_3/rearranged_h_0173.sdf

> <i_m_source_file_index>
43

> <r_mmod_Potential_Energy-OPLS-2005>
-91.2429122924805

> <r_mmod_Stretch_Energy-OPLS-2005>
65.9807662963867

> <r_mmod_Bend_Energy-OPLS-2005>
139.323608398438

> <r_mmod_Torsional_Energy-OPLS-2005>
210.571670532227

> <r_mmod_Improper_Torsional_Energy-OPLS-2005>
4.03281593322754

> <r_mmod_Van_der_Waal_Energy-OPLS-2005>
144.64289855957

> <r_mmod_Electrostatic_Energy-OPLS-2005>
-466.227111816406

> <r_mmod_Solvation_Energy-OPLS-2005>
-228.285369873047

> <b_mmod_Minimization_Converged-OPLS-2005>
0

> <r_mmod_RMS_Derivative-OPLS-2005>
1.64029848575592

$$$$
43
                    3D
 Structure written by MMmdl.
157165  0  0  1  0            999 V2000
  -30.6875  -14.5713   20.5165 C   0  0  0  0  0  0
  -30.4178  -12.3573   19.4449 C   0  0  0  0  0  0
  -29.4960  -12.4942   18.2149 C   0  0  0  0  0  0
  -28.0196  -12.3462   18.6293 C   0  0  0  0  0  0
  -27.6503  -13.2194   19.8581 C   0  0  2  0  0  0
  -28.6940  -13.0830   20.9891 C   0  0  0  0  0  0
  -25.2545  -13.8198   20.5681 C   0  0  0  0  0  0
  -24.1830  -13.0469   20.9202 C   0  0  0  0  0  0
  -24.6399  -11.6927   20.8761 C   0  0  0  0  0  0
  -23.9081  -10.4312   21.0421 C   0  0  0  0  0  0
  -24.3632   -9.4217   21.9199 C   0  0  0  0  0  0
  -23.6301   -8.2259   22.0763 C   0  0  0  0  0  0
  -22.4283   -8.0307   21.3546 C   0  0  0  0  0  0
  -21.9925   -9.0282   20.4647 C   0  0  0  0  0  0
  -22.7256  -10.2161   20.3064 C   0  0  0  0  0  0
  -21.6848   -6.0757   22.5282 C   0  0  0  0  0  0
  -21.4004   -6.5654   23.8220 C   0  0  0  0  0  0
  -21.3656   -5.6803   24.9176 C   0  0  0  0  0  0
  -21.6042   -4.3065   24.7215 C   0  0  0  0  0  0
  -21.8821   -3.8165   23.4333 C   0  0  0  0  0  0
  -21.9189   -4.6990   22.3394 C   0  0  0  0  0  0
  -22.7843  -13.5254   21.1853 C   0  0  0  0  0  0
  -22.1662   -4.2178   21.0970 F   0  0  0  0  0  0
  -21.5633   -3.4539   25.7726 F   0  0  0  0  0  0
  -30.0120  -13.3895   20.4177 N   0  0  0  0  0  0
  -26.2977  -12.9385   20.3298 N   0  0  0  0  0  0
  -25.9324  -11.6538   20.5752 N   0  0  0  0  0  0
  -22.0476  -12.8250   22.0396 N   0  0  0  0  0  0
  -25.4256  -15.1918   20.4074 N   0  0  0  0  0  0
  -31.8503  -14.6680   20.1153 O   0  0  0  0  0  0
  -21.6636   -6.8906   21.4246 O   0  0  0  0  0  0
  -22.3535  -14.5563   20.6696 O   0  0  0  0  0  0
  -24.6199  -31.8655   23.2085 C   0  0  0  0  0  0
  -25.9080  -32.4812   23.8401 C   0  0  1  0  0  0
  -27.2270  -27.3713   20.0848 C   0  0  0  0  0  0
  -25.5890  -33.8609   24.2328 N   0  0  0  0  0  0
  -23.4123  -30.4904   21.5470 C   0  0  2  0  0  0
  -24.8590  -28.9512   20.1092 C   0  0  0  0  0  0
  -22.7457  -29.4649   22.4940 C   0  0  0  0  0  0
  -18.0284  -28.1363   22.8459 C   0  0  0  0  0  0
  -24.1504  -36.7336   23.2632 C   0  0  0  0  0  0
  -25.9484  -30.8049   21.3768 C   0  0  0  0  0  0
  -26.0212  -29.4342   20.7210 C   0  0  0  0  0  0
  -27.2010  -28.6447   20.7195 C   0  0  0  0  0  0
  -26.0476  -26.9331   19.4401 C   0  0  0  0  0  0
  -24.8705  -27.7039   19.4641 C   0  0  0  0  0  0
  -23.6271  -29.8285   20.1595 C   0  0  0  0  0  0
  -25.4116  -36.3113   24.0332 C   0  0  1  0  0  0
  -20.5881  -28.3661   23.1290 C   0  0  2  0  0  0
  -20.6772  -26.9386   22.5394 C   0  0  0  0  0  0
  -19.5749  -26.6366   21.5179 C   0  0  0  0  0  0
  -18.1926  -26.7891   22.1603 C   0  0  0  0  0  0
  -19.1533  -28.8823   23.2877 C   0  0  0  0  0  0
  -18.9456  -30.1419   23.8901 C   0  0  0  0  0  0
  -17.6462  -30.6571   24.0534 C   0  0  0  0  0  0
  -25.9031  -34.9471   23.5137 C   0  0  0  0  0  0
  -16.5356  -29.9072   23.6293 C   0  0  0  0  0  0
  -16.7274  -28.6488   23.0308 C   0  0  0  0  0  0
  -26.4485  -31.6603   25.0748 C   0  0  0  0  0  0
  -25.3710  -31.3682   26.1465 C   0  0  0  0  0  0
  -27.0320  -30.3034   24.6169 C   0  0  0  0  0  0
  -27.6074  -32.4311   25.7501 C   0  0  0  0  0  0
  -27.5608  -37.1826   24.8457 C   0  0  0  0  0  0
  -21.4169  -29.3057   22.3714 N   0  0  0  0  0  0
  -26.4321  -37.3792   23.9392 N   0  0  0  0  0  0
  -24.6780  -31.0703   22.1018 N   0  0  0  0  0  0
  -23.4231  -28.8176   23.2973 O   0  0  0  0  0  0
  -28.3752  -26.5845   20.1445 O   0  0  0  0  0  0
  -26.5612  -34.8917   22.4720 O   0  0  0  0  0  0
  -23.5372  -32.1422   23.7440 O   0  0  0  0  0  0
  -32.2225  -18.5931   21.6876 C   0  0  0  0  0  0
  -31.7599  -17.2883   21.4673 C   0  0  0  0  0  0
  -29.6000  -18.1929   20.8339 C   0  0  0  0  0  0
  -31.3998  -19.7310   21.5100 C   0  0  0  0  0  0
  -30.4397  -17.0468   21.0343 C   0  0  0  0  0  0
  -30.0593  -19.5443   21.0309 C   0  0  0  0  0  0
  -31.9809  -21.0488   21.9172 C   0  0  0  0  0  0
  -29.2556  -21.8473   20.2664 C   0  0  0  0  0  0
  -28.3969  -23.0561   20.7572 C   0  0  0  0  0  0
  -27.7875  -24.0482   19.7038 C   0  0  0  0  0  0
  -28.5325  -25.3837   19.3296 C   0  0  0  0  0  0
  -33.0863  -21.2186   22.5145 N   0  0  0  0  0  0
  -29.1189  -20.6510   20.9071 N   0  0  0  0  0  0
  -29.9674  -15.6800   20.8645 N   0  0  0  0  0  0
  -30.0578  -22.0075   19.3449 O   0  0  0  0  0  0
  -31.4628  -12.4497   19.1428 H   0  0  0  0  0  0
  -30.3239  -11.3655   19.8886 H   0  0  0  0  0  0
  -29.7496  -11.7413   17.4678 H   0  0  0  0  0  0
  -29.6512  -13.4632   17.7380 H   0  0  0  0  0  0
  -27.8475  -11.2942   18.8575 H   0  0  0  0  0  0
  -27.3660  -12.5842   17.7885 H   0  0  0  0  0  0
  -27.6668  -14.2534   19.5142 H   0  0  0  0  0  0
  -28.6897  -12.0707   21.3967 H   0  0  0  0  0  0
  -28.4507  -13.7426   21.8239 H   0  0  0  0  0  0
  -25.2777   -9.5693   22.4769 H   0  0  0  0  0  0
  -24.0007   -7.4647   22.7485 H   0  0  0  0  0  0
  -21.0854   -8.8814   19.8934 H   0  0  0  0  0  0
  -22.3727  -10.9718   19.6177 H   0  0  0  0  0  0
  -21.1992   -7.6163   23.9729 H   0  0  0  0  0  0
  -21.1474   -6.0527   25.9082 H   0  0  0  0  0  0
  -22.0600   -2.7631   23.2819 H   0  0  0  0  0  0
  -22.4075  -11.9903   22.4791 H   0  0  0  0  0  0
  -21.1098  -13.1291   22.2598 H   0  0  0  0  0  0
  -24.6566  -15.8449   20.5124 H   0  0  0  0  0  0
  -26.2689  -15.6282   20.0592 H   0  0  0  0  0  0
  -26.7170  -32.5517   23.1159 H   0  0  0  0  0  0
  -24.9978  -33.9744   25.0445 H   0  0  0  0  0  0
  -22.7034  -31.3094   21.4089 H   0  0  0  0  0  0
  -23.3755  -35.9686   23.3281 H   0  0  0  0  0  0
  -24.3555  -36.8947   22.2044 H   0  0  0  0  0  0
  -23.7268  -37.6538   23.6666 H   0  0  0  0  0  0
  -26.0660  -31.5701   20.6091 H   0  0  0  0  0  0
  -26.8339  -30.8629   21.9971 H   0  0  0  0  0  0
  -28.0920  -29.0012   21.2179 H   0  0  0  0  0  0
  -26.0086  -25.9924   18.9151 H   0  0  0  0  0  0
  -23.9809  -27.3359   18.9708 H   0  0  0  0  0  0
  -23.7478  -30.6090   19.4057 H   0  0  0  0  0  0
  -22.7485  -29.2570   19.8553 H   0  0  0  0  0  0
  -25.1294  -36.1980   25.0821 H   0  0  0  0  0  0
  -20.9959  -28.3239   24.1406 H   0  0  0  0  0  0
  -20.5605  -26.2284   23.3596 H   0  0  0  0  0  0
  -21.6661  -26.7397   22.1226 H   0  0  0  0  0  0
  -19.6899  -25.6266   21.1213 H   0  0  0  0  0  0
  -19.6678  -27.3185   20.6705 H   0  0  0  0  0  0
  -17.4181  -26.6597   21.4021 H   0  0  0  0  0  0
  -18.0359  -26.0049   22.9018 H   0  0  0  0  0  0
  -19.7949  -30.7203   24.2311 H   0  0  0  0  0  0
  -17.5027  -31.6241   24.5159 H   0  0  0  0  0  0
  -15.5348  -30.2975   23.7610 H   0  0  0  0  0  0
  -15.8664  -28.0815   22.6996 H   0  0  0  0  0  0
  -24.5925  -30.6995   25.7762 H   0  0  0  0  0  0
  -24.8835  -32.2808   26.4926 H   0  0  0  0  0  0
  -25.8017  -30.8835   27.0233 H   0  0  0  0  0  0
  -26.2886  -29.6779   24.1211 H   0  0  0  0  0  0
  -27.4038  -29.7291   25.4668 H   0  0  0  0  0  0
  -27.8760  -30.4317   23.9373 H   0  0  0  0  0  0
  -27.2746  -33.3632   26.2094 H   0  0  0  0  0  0
  -28.3887  -32.6818   25.0306 H   0  0  0  0  0  0
  -28.0764  -31.8397   26.5374 H   0  0  0  0  0  0
  -28.2615  -38.0147   24.7515 H   0  0  0  0  0  0
  -28.1114  -36.2660   24.6287 H   0  0  0  0  0  0
  -27.2294  -37.1465   25.8851 H   0  0  0  0  0  0
  -20.9333  -29.8845   21.6987 H   0  0  0  0  0  0
  -26.0214  -38.2866   24.1374 H   0  0  0  0  0  0
  -33.2391  -18.6982   22.0359 H   0  0  0  0  0  0
  -32.4420  -16.4755   21.6717 H   0  0  0  0  0  0
  -28.5744  -18.0335   20.5323 H   0  0  0  0  0  0
  -31.4000  -21.9432   21.6927 H   0  0  0  0  0  0
  -28.9821  -23.6225   21.4804 H   0  0  0  0  0  0
  -27.5659  -22.6439   21.3303 H   0  0  0  0  0  0
  -26.7744  -24.2869   20.0204 H   0  0  0  0  0  0
  -27.6544  -23.4868   18.7787 H   0  0  0  0  0  0
  -28.2615  -25.6543   18.3073 H   0  0  0  0  0  0
  -29.6009  -25.1721   19.2757 H   0  0  0  0  0  0
  -33.5437  -20.3329   22.7013 H   0  0  0  0  0  0
  -28.2782  -20.5606   21.4609 H   0  0  0  0  0  0
  -28.9783  -15.5264   20.9840 H   0  0  0  0  0  0
  1 25  1  0  0  0
  1 30  2  0  0  0
  1 84  1  0  0  0
  2  3  1  0  0  0
  2 25  1  0  0  0
  2 86  1  0  0  0
  2 87  1  0  0  0
  3  4  1  0  0  0
  3 88  1  0  0  0
  3 89  1  0  0  0
  4  5  1  0  0  0
  4 90  1  0  0  0
  4 91  1  0  0  0
  5  6  1  0  0  0
  5 26  1  0  0  0
  5 92  1  0  0  0
  6 25  1  0  0  0
  6 93  1  0  0  0
  6 94  1  0  0  0
  7  8  2  0  0  0
  7 26  1  0  0  0
  7 29  1  0  0  0
  8  9  1  0  0  0
  8 22  1  0  0  0
  9 10  1  0  0  0
  9 27  2  0  0  0
 10 11  2  0  0  0
 10 15  1  0  0  0
 11 12  1  0  0  0
 11 95  1  0  0  0
 12 13  2  0  0  0
 12 96  1  0  0  0
 13 14  1  0  0  0
 13 31  1  0  0  0
 14 15  2  0  0  0
 14 97  1  0  0  0
 15 98  1  0  0  0
 16 17  2  0  0  0
 16 21  1  0  0  0
 16 31  1  0  0  0
 17 18  1  0  0  0
 17 99  1  0  0  0
 18 19  2  0  0  0
 18100  1  0  0  0
 19 20  1  0  0  0
 19 24  1  0  0  0
 20 21  2  0  0  0
 20101  1  0  0  0
 21 23  1  0  0  0
 22 28  1  0  0  0
 22 32  2  0  0  0
 26 27  1  0  0  0
 28102  1  0  0  0
 28103  1  0  0  0
 29104  1  0  0  0
 29105  1  0  0  0
 33 34  1  0  0  0
 33 66  1  0  0  0
 33 70  2  0  0  0
 34 36  1  0  0  0
 34 59  1  0  0  0
 34106  1  0  0  0
 35 44  2  0  0  0
 35 45  1  0  0  0
 35 68  1  0  0  0
 36 56  1  0  0  0
 36107  1  0  0  0
 37 39  1  0  0  0
 37 47  1  0  0  0
 37 66  1  0  0  0
 37108  1  0  0  0
 38 43  2  0  0  0
 38 46  1  0  0  0
 38 47  1  0  0  0
 39 64  1  0  0  0
 39 67  2  0  0  0
 40 52  1  0  0  0
 40 53  2  0  0  0
 40 58  1  0  0  0
 41109  1  0  0  0
 41110  1  0  0  0
 41111  1  0  0  0
 41 48  1  0  0  0
 42 43  1  0  0  0
 42 66  1  0  0  0
 42112  1  0  0  0
 42113  1  0  0  0
 43 44  1  0  0  0
 44114  1  0  0  0
 45 46  2  0  0  0
 45115  1  0  0  0
 46116  1  0  0  0
 47117  1  0  0  0
 47118  1  0  0  0
 48 56  1  0  0  0
 48 65  1  0  0  0
 48119  1  0  0  0
 49 50  1  0  0  0
 49 53  1  0  0  0
 49 64  1  0  0  0
 49120  1  0  0  0
 50 51  1  0  0  0
 50121  1  0  0  0
 50122  1  0  0  0
 51 52  1  0  0  0
 51123  1  0  0  0
 51124  1  0  0  0
 52125  1  0  0  0
 52126  1  0  0  0
 53 54  1  0  0  0
 54 55  2  0  0  0
 54127  1  0  0  0
 55 57  1  0  0  0
 55128  1  0  0  0
 56 69  2  0  0  0
 57 58  2  0  0  0
 57129  1  0  0  0
 58130  1  0  0  0
 59 60  1  0  0  0
 59 61  1  0  0  0
 59 62  1  0  0  0
 60131  1  0  0  0
 60132  1  0  0  0
 60133  1  0  0  0
 61134  1  0  0  0
 61135  1  0  0  0
 61136  1  0  0  0
 62137  1  0  0  0
 62138  1  0  0  0
 62139  1  0  0  0
 63 65  1  0  0  0
 63140  1  0  0  0
 63141  1  0  0  0
 63142  1  0  0  0
 64143  1  0  0  0
 65144  1  0  0  0
 68 81  1  0  0  0
 71 72  2  0  0  0
 71 74  1  0  0  0
 71145  1  0  0  0
 72 75  1  0  0  0
 72146  1  0  0  0
 73 75  2  0  0  0
 73 76  1  0  0  0
 73147  1  0  0  0
 74 76  2  0  0  0
 74 77  1  0  0  0
 75 84  1  0  0  0
 76 83  1  0  0  0
 77 82  2  0  0  0
 77148  1  0  0  0
 78 79  1  0  0  0
 78 83  1  0  0  0
 78 85  2  0  0  0
 79 80  1  0  0  0
 79149  1  0  0  0
 79150  1  0  0  0
 80 81  1  0  0  0
 80151  1  0  0  0
 80152  1  0  0  0
 81153  1  0  0  0
 81154  1  0  0  0
 82155  1  0  0  0
 83156  1  0  0  0
 84157  1  0  0  0
M  ISO  4   1 100  68 101  81 101  84 100
M  END
> <chiral flag>
0

> <version>
0

> <s_m_source_file>
/data/baiqing/PycharmProjects/Reinvent-master-3.2/result/LINK_invent/BTK/process_docking_weight1_custom_product_contain_oxygen_bond_distance_aromatic_linkinvent_7_9_3/rearranged_h_0173.sdf

> <i_m_source_file_index>
44

> <r_mmod_Potential_Energy-OPLS-2005>
15.4194993972778

> <r_mmod_Stretch_Energy-OPLS-2005>
65.3736038208008

> <r_mmod_Bend_Energy-OPLS-2005>
138.036956787109

> <r_mmod_Torsional_Energy-OPLS-2005>
247.889633178711

> <r_mmod_Improper_Torsional_Energy-OPLS-2005>
5.95712089538574

> <r_mmod_Van_der_Waal_Energy-OPLS-2005>
162.361968994141

> <r_mmod_Electrostatic_Energy-OPLS-2005>
-379.988922119141

> <r_mmod_Solvation_Energy-OPLS-2005>
-255.490097045898

> <b_mmod_Minimization_Converged-OPLS-2005>
0

> <r_mmod_RMS_Derivative-OPLS-2005>
2.83303737640381

$$$$
44
                    3D
 Structure written by MMmdl.
153161  0  0  1  0            999 V2000
  -30.6595  -14.6681   20.5308 C   0  0  0  0  0  0
  -30.4443  -12.4294   19.4633 C   0  0  0  0  0  0
  -29.5089  -12.4962   18.2387 C   0  0  0  0  0  0
  -28.0386  -12.3133   18.6569 C   0  0  0  0  0  0
  -27.6461  -13.2197   19.8532 C   0  0  2  0  0  0
  -28.6905  -13.1265   20.9871 C   0  0  0  0  0  0
  -25.2569  -13.8176   20.5802 C   0  0  0  0  0  0
  -24.1825  -13.0423   20.9209 C   0  0  0  0  0  0
  -24.6384  -11.6894   20.8726 C   0  0  0  0  0  0
  -23.9097  -10.4283   21.0423 C   0  0  0  0  0  0
  -24.3654   -9.4207   21.9209 C   0  0  0  0  0  0
  -23.6326   -8.2241   22.0768 C   0  0  0  0  0  0
  -22.4304   -8.0293   21.3558 C   0  0  0  0  0  0
  -21.9948   -9.0276   20.4653 C   0  0  0  0  0  0
  -22.7283  -10.2148   20.3076 C   0  0  0  0  0  0
  -21.6809   -6.0764   22.5292 C   0  0  0  0  0  0
  -21.4008   -6.5671   23.8232 C   0  0  0  0  0  0
  -21.3652   -5.6819   24.9188 C   0  0  0  0  0  0
  -21.6045   -4.3090   24.7238 C   0  0  0  0  0  0
  -21.8803   -3.8183   23.4353 C   0  0  0  0  0  0
  -21.9192   -4.6999   22.3405 C   0  0  0  0  0  0
  -22.7853  -13.5216   21.1869 C   0  0  0  0  0  0
  -22.1642   -4.2180   21.0982 F   0  0  0  0  0  0
  -21.5621   -3.4585   25.7755 F   0  0  0  0  0  0
  -30.0057  -13.4670   20.4174 N   0  0  0  0  0  0
  -26.2956  -12.9346   20.3310 N   0  0  0  0  0  0
  -25.9306  -11.6501   20.5733 N   0  0  0  0  0  0
  -22.0486  -12.8227   22.0404 N   0  0  0  0  0  0
  -25.4410  -15.1928   20.4545 N   0  0  0  0  0  0
  -31.8260  -14.7946   20.1504 O   0  0  0  0  0  0
  -21.6621   -6.8927   21.4263 O   0  0  0  0  0  0
  -22.3542  -14.5522   20.6720 O   0  0  0  0  0  0
  -24.6209  -31.8633   23.2025 C   0  0  0  0  0  0
  -25.9069  -32.4794   23.8355 C   0  0  1  0  0  0
  -27.2518  -27.3670   20.1170 C   0  0  0  0  0  0
  -25.5880  -33.8603   24.2292 N   0  0  0  0  0  0
  -23.4170  -30.4801   21.5413 C   0  0  2  0  0  0
  -24.8740  -28.9345   20.1163 C   0  0  0  0  0  0
  -22.7461  -29.4638   22.4922 C   0  0  0  0  0  0
  -18.0313  -28.1347   22.8480 C   0  0  0  0  0  0
  -24.1491  -36.7309   23.2640 C   0  0  0  0  0  0
  -25.9521  -30.8093   21.3672 C   0  0  0  0  0  0
  -26.0364  -29.4335   20.7229 C   0  0  0  0  0  0
  -27.2299  -28.6546   20.7269 C   0  0  0  0  0  0
  -26.0752  -26.9088   19.4907 C   0  0  0  0  0  0
  -24.8901  -27.6739   19.4947 C   0  0  0  0  0  0
  -23.6330  -29.8039   20.1612 C   0  0  0  0  0  0
  -25.4102  -36.3107   24.0331 C   0  0  1  0  0  0
  -20.5891  -28.3658   23.1268 C   0  0  2  0  0  0
  -20.6801  -26.9394   22.5371 C   0  0  0  0  0  0
  -19.5764  -26.6373   21.5192 C   0  0  0  0  0  0
  -18.1939  -26.7878   22.1615 C   0  0  0  0  0  0
  -19.1546  -28.8819   23.2882 C   0  0  0  0  0  0
  -18.9456  -30.1428   23.8867 C   0  0  0  0  0  0
  -17.6460  -30.6566   24.0501 C   0  0  0  0  0  0
  -25.9021  -34.9466   23.5091 C   0  0  0  0  0  0
  -16.5350  -29.9057   23.6303 C   0  0  0  0  0  0
  -16.7281  -28.6448   23.0347 C   0  0  0  0  0  0
  -26.4465  -31.6592   25.0721 C   0  0  0  0  0  0
  -25.3708  -31.3736   26.1462 C   0  0  0  0  0  0
  -27.0295  -30.3017   24.6146 C   0  0  0  0  0  0
  -27.6026  -32.4312   25.7510 C   0  0  0  0  0  0
  -27.5562  -37.1834   24.8465 C   0  0  0  0  0  0
  -21.4171  -29.3031   22.3673 N   0  0  0  0  0  0
  -26.4306  -37.3766   23.9364 N   0  0  0  0  0  0
  -24.6800  -31.0705   22.0935 N   0  0  0  0  0  0
  -23.4212  -28.8182   23.2976 O   0  0  0  0  0  0
  -28.3544  -26.5143   20.0983 O   0  0  0  0  0  0
  -26.5620  -34.8928   22.4680 O   0  0  0  0  0  0
  -23.5374  -32.1373   23.7384 O   0  0  0  0  0  0
  -31.0456  -17.2694   22.4598 C   0  0  0  0  0  0
  -31.3516  -18.5533   22.9529 C   0  0  0  0  0  0
  -30.2350  -19.6355   21.0498 C   0  0  0  0  0  0
  -30.3305  -17.1111   21.2528 C   0  0  0  0  0  0
  -30.9610  -19.7167   22.2626 C   0  0  0  0  0  0
  -29.9263  -18.3109   20.5605 C   0  0  0  0  0  0
  -28.6408  -25.8326   21.2733 C   0  0  0  0  0  0
  -29.0082  -24.5232   21.5036 C   0  0  0  0  0  0
  -29.1596  -23.4264   20.5031 C   0  0  0  0  0  0
  -29.8567  -20.9498   20.2633 C   0  0  0  0  0  0
  -29.9092  -15.7626   20.8694 N   0  0  0  0  0  0
  -29.6776  -22.2524   20.9940 N   0  0  0  0  0  0
  -28.8269  -23.5257   19.3247 O   0  0  0  0  0  0
  -29.2129  -24.2060   22.7892 O   0  0  0  0  0  0
  -31.2915  -20.9223   22.7858 F   0  0  0  0  0  0
  -29.2307  -18.1859   19.4047 F   0  0  0  0  0  0
  -31.4769  -12.5799   19.1442 H   0  0  0  0  0  0
  -30.4187  -11.4456   19.9316 H   0  0  0  0  0  0
  -29.7927  -11.7249   17.5210 H   0  0  0  0  0  0
  -29.6281  -13.4519   17.7274 H   0  0  0  0  0  0
  -27.9071  -11.2651   18.9321 H   0  0  0  0  0  0
  -27.3761  -12.4869   17.8093 H   0  0  0  0  0  0
  -27.6508  -14.2440   19.4779 H   0  0  0  0  0  0
  -28.7108  -12.1191   21.4062 H   0  0  0  0  0  0
  -28.4285  -13.7970   21.8067 H   0  0  0  0  0  0
  -25.2824   -9.5627   22.4794 H   0  0  0  0  0  0
  -23.9987   -7.4630   22.7515 H   0  0  0  0  0  0
  -21.0860   -8.8838   19.8983 H   0  0  0  0  0  0
  -22.3782  -10.9701   19.6174 H   0  0  0  0  0  0
  -21.1971   -7.6177   23.9739 H   0  0  0  0  0  0
  -21.1483   -6.0550   25.9081 H   0  0  0  0  0  0
  -22.0578   -2.7656   23.2837 H   0  0  0  0  0  0
  -22.4023  -11.9845   22.4738 H   0  0  0  0  0  0
  -21.1133  -13.1284   22.2675 H   0  0  0  0  0  0
  -24.7143  -15.8621   20.6860 H   0  0  0  0  0  0
  -26.3389  -15.6347   20.3023 H   0  0  0  0  0  0
  -26.7166  -32.5491   23.1135 H   0  0  0  0  0  0
  -25.0027  -33.9727   25.0459 H   0  0  0  0  0  0
  -22.7106  -31.2983   21.3937 H   0  0  0  0  0  0
  -23.3722  -35.9670   23.3351 H   0  0  0  0  0  0
  -24.3593  -36.8878   22.2040 H   0  0  0  0  0  0
  -23.7293  -37.6552   23.6636 H   0  0  0  0  0  0
  -26.0728  -31.5687   20.5941 H   0  0  0  0  0  0
  -26.8369  -30.8711   21.9876 H   0  0  0  0  0  0
  -28.1225  -29.0349   21.2053 H   0  0  0  0  0  0
  -26.0767  -25.9361   19.0161 H   0  0  0  0  0  0
  -23.9978  -27.2842   19.0251 H   0  0  0  0  0  0
  -23.7352  -30.5730   19.3938 H   0  0  0  0  0  0
  -22.7615  -29.2179   19.8674 H   0  0  0  0  0  0
  -25.1296  -36.1949   25.0825 H   0  0  0  0  0  0
  -20.9967  -28.3206   24.1397 H   0  0  0  0  0  0
  -20.5802  -26.2240   23.3551 H   0  0  0  0  0  0
  -21.6648  -26.7496   22.1093 H   0  0  0  0  0  0
  -19.6958  -25.6289   21.1205 H   0  0  0  0  0  0
  -19.6667  -27.3205   20.6727 H   0  0  0  0  0  0
  -18.0385  -25.9997   22.9012 H   0  0  0  0  0  0
  -17.4223  -26.6590   21.3994 H   0  0  0  0  0  0
  -19.7926  -30.7244   24.2232 H   0  0  0  0  0  0
  -17.5005  -31.6267   24.5048 H   0  0  0  0  0  0
  -15.5351  -30.2935   23.7613 H   0  0  0  0  0  0
  -15.8679  -28.0744   22.7074 H   0  0  0  0  0  0
  -24.5875  -30.7085   25.7820 H   0  0  0  0  0  0
  -24.8913  -32.2900   26.4891 H   0  0  0  0  0  0
  -25.8047  -30.8927   27.0233 H   0  0  0  0  0  0
  -26.2860  -29.6812   24.1133 H   0  0  0  0  0  0
  -27.3957  -29.7229   25.4637 H   0  0  0  0  0  0
  -27.8739  -30.4310   23.9371 H   0  0  0  0  0  0
  -27.2626  -33.3582   26.2118 H   0  0  0  0  0  0
  -28.3840  -32.6908   25.0367 H   0  0  0  0  0  0
  -28.0682  -31.8415   26.5406 H   0  0  0  0  0  0
  -28.2644  -38.0079   24.7414 H   0  0  0  0  0  0
  -28.1009  -36.2602   24.6414 H   0  0  0  0  0  0
  -27.2276  -37.1608   25.8884 H   0  0  0  0  0  0
  -20.9342  -29.8782   21.6913 H   0  0  0  0  0  0
  -26.0189  -38.2855   24.1323 H   0  0  0  0  0  0
  -31.3475  -16.4110   23.0450 H   0  0  0  0  0  0
  -31.8929  -18.6538   23.8828 H   0  0  0  0  0  0
  -28.5465  -26.5058   22.1171 H   0  0  0  0  0  0
  -28.9617  -20.7635   19.6732 H   0  0  0  0  0  0
  -30.6495  -21.1220   19.5364 H   0  0  0  0  0  0
  -28.9289  -15.5688   21.0024 H   0  0  0  0  0  0
  -30.0748  -22.2673   21.9257 H   0  0  0  0  0  0
  -29.1581  -23.2612   22.8543 H   0  0  0  0  0  0
  1 25  1  0  0  0
  1 30  2  0  0  0
  1 81  1  0  0  0
  2  3  1  0  0  0
  2 25  1  0  0  0
  2 87  1  0  0  0
  2 88  1  0  0  0
  3  4  1  0  0  0
  3 89  1  0  0  0
  3 90  1  0  0  0
  4  5  1  0  0  0
  4 91  1  0  0  0
  4 92  1  0  0  0
  5  6  1  0  0  0
  5 26  1  0  0  0
  5 93  1  0  0  0
  6 25  1  0  0  0
  6 94  1  0  0  0
  6 95  1  0  0  0
  7  8  2  0  0  0
  7 26  1  0  0  0
  7 29  1  0  0  0
  8  9  1  0  0  0
  8 22  1  0  0  0
  9 10  1  0  0  0
  9 27  2  0  0  0
 10 11  2  0  0  0
 10 15  1  0  0  0
 11 12  1  0  0  0
 11 96  1  0  0  0
 12 13  2  0  0  0
 12 97  1  0  0  0
 13 14  1  0  0  0
 13 31  1  0  0  0
 14 15  2  0  0  0
 14 98  1  0  0  0
 15 99  1  0  0  0
 16 17  2  0  0  0
 16 21  1  0  0  0
 16 31  1  0  0  0
 17 18  1  0  0  0
 17100  1  0  0  0
 18 19  2  0  0  0
 18101  1  0  0  0
 19 20  1  0  0  0
 19 24  1  0  0  0
 20 21  2  0  0  0
 20102  1  0  0  0
 21 23  1  0  0  0
 22 28  1  0  0  0
 22 32  2  0  0  0
 26 27  1  0  0  0
 28103  1  0  0  0
 28104  1  0  0  0
 29105  1  0  0  0
 29106  1  0  0  0
 33 34  1  0  0  0
 33 66  1  0  0  0
 33 70  2  0  0  0
 34 36  1  0  0  0
 34 59  1  0  0  0
 34107  1  0  0  0
 35 44  2  0  0  0
 35 45  1  0  0  0
 35 68  1  0  0  0
 36 56  1  0  0  0
 36108  1  0  0  0
 37 39  1  0  0  0
 37 47  1  0  0  0
 37 66  1  0  0  0
 37109  1  0  0  0
 38 43  2  0  0  0
 38 46  1  0  0  0
 38 47  1  0  0  0
 39 64  1  0  0  0
 39 67  2  0  0  0
 40 52  1  0  0  0
 40 53  2  0  0  0
 40 58  1  0  0  0
 41110  1  0  0  0
 41111  1  0  0  0
 41112  1  0  0  0
 41 48  1  0  0  0
 42 43  1  0  0  0
 42 66  1  0  0  0
 42113  1  0  0  0
 42114  1  0  0  0
 43 44  1  0  0  0
 44115  1  0  0  0
 45 46  2  0  0  0
 45116  1  0  0  0
 46117  1  0  0  0
 47118  1  0  0  0
 47119  1  0  0  0
 48 56  1  0  0  0
 48 65  1  0  0  0
 48120  1  0  0  0
 49 50  1  0  0  0
 49 53  1  0  0  0
 49 64  1  0  0  0
 49121  1  0  0  0
 50 51  1  0  0  0
 50122  1  0  0  0
 50123  1  0  0  0
 51 52  1  0  0  0
 51124  1  0  0  0
 51125  1  0  0  0
 52126  1  0  0  0
 52127  1  0  0  0
 53 54  1  0  0  0
 54 55  2  0  0  0
 54128  1  0  0  0
 55 57  1  0  0  0
 55129  1  0  0  0
 56 69  2  0  0  0
 57 58  2  0  0  0
 57130  1  0  0  0
 58131  1  0  0  0
 59 60  1  0  0  0
 59 61  1  0  0  0
 59 62  1  0  0  0
 60132  1  0  0  0
 60133  1  0  0  0
 60134  1  0  0  0
 61135  1  0  0  0
 61136  1  0  0  0
 61137  1  0  0  0
 62138  1  0  0  0
 62139  1  0  0  0
 62140  1  0  0  0
 63 65  1  0  0  0
 63141  1  0  0  0
 63142  1  0  0  0
 63143  1  0  0  0
 64144  1  0  0  0
 65145  1  0  0  0
 68 77  1  0  0  0
 71 72  2  0  0  0
 71 74  1  0  0  0
 71146  1  0  0  0
 72 75  1  0  0  0
 72147  1  0  0  0
 73 75  2  0  0  0
 73 76  1  0  0  0
 73 80  1  0  0  0
 74 76  2  0  0  0
 74 81  1  0  0  0
 75 85  1  0  0  0
 76 86  1  0  0  0
 77 78  2  0  0  0
 77148  1  0  0  0
 78 79  1  0  0  0
 78 84  1  0  0  0
 79 82  1  0  0  0
 79 83  2  0  0  0
 80 82  1  0  0  0
 80149  1  0  0  0
 80150  1  0  0  0
 81151  1  0  0  0
 82152  1  0  0  0
 84153  1  0  0  0
M  ISO  4   1 100  68 101  77 101  81 100
M  END
> <chiral flag>
0

> <version>
0

> <s_m_source_file>
/data/baiqing/PycharmProjects/Reinvent-master-3.2/result/LINK_invent/BTK/process_docking_weight1_custom_product_contain_oxygen_bond_distance_aromatic_linkinvent_7_9_3/rearranged_h_0173.sdf

> <i_m_source_file_index>
45

> <r_mmod_Potential_Energy-OPLS-2005>
-52.0261421203613

> <r_mmod_Stretch_Energy-OPLS-2005>
74.5064010620117

> <r_mmod_Bend_Energy-OPLS-2005>
135.202346801758

> <r_mmod_Torsional_Energy-OPLS-2005>
248.018951416016

> <r_mmod_Improper_Torsional_Energy-OPLS-2005>
5.94472217559814

> <r_mmod_Van_der_Waal_Energy-OPLS-2005>
139.688720703125

> <r_mmod_Electrostatic_Energy-OPLS-2005>
-461.234680175781

> <r_mmod_Solvation_Energy-OPLS-2005>
-241.755279541016

> <b_mmod_Minimization_Converged-OPLS-2005>
0

> <r_mmod_RMS_Derivative-OPLS-2005>
6.55070543289185

$$$$
45
                    3D
 Structure written by MMmdl.
153161  0  0  1  0            999 V2000
  -30.6003  -14.6874   20.5042 C   0  0  0  0  0  0
  -30.4450  -12.4239   19.4627 C   0  0  0  0  0  0
  -29.5126  -12.5188   18.2329 C   0  0  0  0  0  0
  -28.0362  -12.3477   18.6436 C   0  0  0  0  0  0
  -27.6536  -13.2209   19.8681 C   0  0  2  0  0  0
  -28.6987  -13.0834   20.9990 C   0  0  0  0  0  0
  -25.2521  -13.8158   20.5630 C   0  0  0  0  0  0
  -24.1807  -13.0421   20.9166 C   0  0  0  0  0  0
  -24.6399  -11.6901   20.8743 C   0  0  0  0  0  0
  -23.9070  -10.4285   21.0408 C   0  0  0  0  0  0
  -24.3619   -9.4201   21.9187 C   0  0  0  0  0  0
  -23.6292   -8.2238   22.0755 C   0  0  0  0  0  0
  -22.4274   -8.0279   21.3545 C   0  0  0  0  0  0
  -21.9911   -9.0253   20.4647 C   0  0  0  0  0  0
  -22.7242  -10.2130   20.3057 C   0  0  0  0  0  0
  -21.6851   -6.0735   22.5280 C   0  0  0  0  0  0
  -21.4014   -6.5640   23.8213 C   0  0  0  0  0  0
  -21.3659   -5.6792   24.9175 C   0  0  0  0  0  0
  -21.6043   -4.3055   24.7226 C   0  0  0  0  0  0
  -21.8819   -3.8146   23.4347 C   0  0  0  0  0  0
  -21.9192   -4.6963   22.3403 C   0  0  0  0  0  0
  -22.7832  -13.5214   21.1840 C   0  0  0  0  0  0
  -22.1661   -4.2148   21.0981 F   0  0  0  0  0  0
  -21.5627   -3.4539   25.7739 F   0  0  0  0  0  0
  -30.0119  -13.4461   20.4401 N   0  0  0  0  0  0
  -26.2990  -12.9364   20.3347 N   0  0  0  0  0  0
  -25.9338  -11.6514   20.5790 N   0  0  0  0  0  0
  -22.0487  -12.8212   22.0413 N   0  0  0  0  0  0
  -25.4158  -15.1864   20.3943 N   0  0  0  0  0  0
  -31.7469  -14.8677   20.0831 O   0  0  0  0  0  0
  -21.6637   -6.8877   21.4242 O   0  0  0  0  0  0
  -22.3505  -14.5518   20.6694 O   0  0  0  0  0  0
  -24.6277  -31.8577   23.2003 C   0  0  0  0  0  0
  -25.9115  -32.4769   23.8343 C   0  0  1  0  0  0
  -27.2283  -27.2994   20.1285 C   0  0  0  0  0  0
  -25.5922  -33.8570   24.2269 N   0  0  0  0  0  0
  -23.4238  -30.4791   21.5428 C   0  0  2  0  0  0
  -24.8734  -28.9276   20.1134 C   0  0  0  0  0  0
  -22.7486  -29.4610   22.4927 C   0  0  0  0  0  0
  -18.0288  -28.1385   22.8486 C   0  0  0  0  0  0
  -24.1489  -36.7291   23.2639 C   0  0  0  0  0  0
  -25.9659  -30.7816   21.3755 C   0  0  0  0  0  0
  -26.0419  -29.4053   20.7220 C   0  0  0  0  0  0
  -27.2237  -28.6020   20.7210 C   0  0  0  0  0  0
  -26.0404  -26.8783   19.4931 C   0  0  0  0  0  0
  -24.8747  -27.6694   19.4899 C   0  0  0  0  0  0
  -23.6416  -29.8104   20.1595 C   0  0  0  0  0  0
  -25.4114  -36.3078   24.0328 C   0  0  1  0  0  0
  -20.5889  -28.3692   23.1278 C   0  0  2  0  0  0
  -20.6777  -26.9413   22.5410 C   0  0  0  0  0  0
  -19.5752  -26.6383   21.5212 C   0  0  0  0  0  0
  -18.1933  -26.7927   22.1625 C   0  0  0  0  0  0
  -19.1541  -28.8855   23.2877 C   0  0  0  0  0  0
  -18.9463  -30.1457   23.8895 C   0  0  0  0  0  0
  -17.6463  -30.6587   24.0562 C   0  0  0  0  0  0
  -25.9052  -34.9448   23.5101 C   0  0  0  0  0  0
  -16.5354  -29.9085   23.6330 C   0  0  0  0  0  0
  -16.7275  -28.6502   23.0352 C   0  0  0  0  0  0
  -26.4495  -31.6585   25.0720 C   0  0  0  0  0  0
  -25.3726  -31.3729   26.1446 C   0  0  0  0  0  0
  -27.0340  -30.3006   24.6187 C   0  0  0  0  0  0
  -27.6052  -32.4324   25.7492 C   0  0  0  0  0  0
  -27.5580  -37.1798   24.8463 C   0  0  0  0  0  0
  -21.4197  -29.3041   22.3670 N   0  0  0  0  0  0
  -26.4290  -37.3775   23.9409 N   0  0  0  0  0  0
  -24.6912  -31.0568   22.0964 N   0  0  0  0  0  0
  -23.4197  -28.8155   23.3021 O   0  0  0  0  0  0
  -28.3305  -26.4262   20.1388 O   0  0  0  0  0  0
  -26.5625  -34.8918   22.4670 O   0  0  0  0  0  0
  -23.5435  -32.1384   23.7317 O   0  0  0  0  0  0
  -28.8062  -19.4167   21.4210 C   0  0  0  0  0  0
  -30.5470  -17.9122   19.8321 C   0  0  0  0  0  0
  -28.9156  -17.9963   21.6056 C   0  0  0  0  0  0
  -29.5439  -20.1319   20.4393 C   0  0  0  0  0  0
  -29.7900  -17.1897   20.7987 C   0  0  0  0  0  0
  -30.4290  -19.3310   19.6626 C   0  0  0  0  0  0
  -28.1305  -25.0663   20.4936 C   0  0  0  0  0  0
  -28.9267  -23.9830   20.1759 C   0  0  0  0  0  0
  -28.6222  -22.5804   20.6363 C   0  0  0  0  0  0
  -28.0913  -17.3545   22.7252 C   0  0  0  0  0  0
  -29.4815  -21.5934   20.2063 N   0  0  0  0  0  0
  -29.8020  -15.7145   20.9530 N   0  0  0  0  0  0
  -27.6584  -22.3099   21.3553 O   0  0  0  0  0  0
  -30.0212  -24.1849   19.4276 O   0  0  0  0  0  0
  -31.1845  -19.9393   18.7165 F   0  0  0  0  0  0
  -27.1482  -18.1718   23.1968 F   0  0  0  0  0  0
  -27.4880  -16.2448   22.2996 F   0  0  0  0  0  0
  -28.9018  -17.0307   23.7324 F   0  0  0  0  0  0
  -31.4842  -12.5612   19.1590 H   0  0  0  0  0  0
  -30.3947  -11.4295   19.9089 H   0  0  0  0  0  0
  -29.7845  -11.7637   17.4941 H   0  0  0  0  0  0
  -29.6463  -13.4855   17.7449 H   0  0  0  0  0  0
  -27.8799  -11.2944   18.8797 H   0  0  0  0  0  0
  -27.3806  -12.5700   17.8009 H   0  0  0  0  0  0
  -27.6685  -14.2557   19.5255 H   0  0  0  0  0  0
  -28.7211  -12.0600   21.3764 H   0  0  0  0  0  0
  -28.4328  -13.7052   21.8547 H   0  0  0  0  0  0
  -25.2764   -9.5675   22.4762 H   0  0  0  0  0  0
  -23.9999   -7.4629   22.7474 H   0  0  0  0  0  0
  -21.0841   -8.8775   19.8954 H   0  0  0  0  0  0
  -22.3703  -10.9670   19.6167 H   0  0  0  0  0  0
  -21.2007   -7.6148   23.9717 H   0  0  0  0  0  0
  -21.1481   -6.0522   25.9078 H   0  0  0  0  0  0
  -22.0599   -2.7609   23.2848 H   0  0  0  0  0  0
  -22.4109  -11.9875   22.4799 H   0  0  0  0  0  0
  -21.1110  -13.1241   22.2633 H   0  0  0  0  0  0
  -24.6568  -15.8425   20.5370 H   0  0  0  0  0  0
  -26.2871  -15.6357   20.1482 H   0  0  0  0  0  0
  -26.7184  -32.5437   23.1091 H   0  0  0  0  0  0
  -25.0062  -33.9711   25.0408 H   0  0  0  0  0  0
  -22.7186  -31.2999   21.3963 H   0  0  0  0  0  0
  -23.3751  -35.9624   23.3298 H   0  0  0  0  0  0
  -24.3581  -36.8915   22.2054 H   0  0  0  0  0  0
  -23.7243  -37.6493   23.6664 H   0  0  0  0  0  0
  -26.0985  -31.5421   20.6047 H   0  0  0  0  0  0
  -26.8457  -30.8336   22.0053 H   0  0  0  0  0  0
  -28.1216  -28.9627   21.2028 H   0  0  0  0  0  0
  -26.0070  -25.9126   19.0088 H   0  0  0  0  0  0
  -23.9805  -27.2980   19.0085 H   0  0  0  0  0  0
  -23.7632  -30.5853   19.4018 H   0  0  0  0  0  0
  -22.7616  -29.2402   19.8565 H   0  0  0  0  0  0
  -25.1294  -36.1929   25.0820 H   0  0  0  0  0  0
  -20.9981  -28.3268   24.1399 H   0  0  0  0  0  0
  -20.5677  -26.2302   23.3611 H   0  0  0  0  0  0
  -21.6645  -26.7439   22.1204 H   0  0  0  0  0  0
  -19.6915  -25.6294   21.1243 H   0  0  0  0  0  0
  -19.6689  -27.3193   20.6742 H   0  0  0  0  0  0
  -17.4201  -26.6671   21.4030 H   0  0  0  0  0  0
  -18.0336  -26.0070   22.9024 H   0  0  0  0  0  0
  -19.7939  -30.7273   24.2265 H   0  0  0  0  0  0
  -17.5017  -31.6267   24.5164 H   0  0  0  0  0  0
  -15.5354  -30.2987   23.7653 H   0  0  0  0  0  0
  -15.8675  -28.0820   22.7070 H   0  0  0  0  0  0
  -24.5899  -30.7081   25.7775 H   0  0  0  0  0  0
  -24.8922  -32.2897   26.4871 H   0  0  0  0  0  0
  -25.8048  -30.8905   27.0222 H   0  0  0  0  0  0
  -26.2918  -29.6754   24.1209 H   0  0  0  0  0  0
  -27.4030  -29.7266   25.4697 H   0  0  0  0  0  0
  -27.8791  -30.4288   23.9419 H   0  0  0  0  0  0
  -27.2660  -33.3624   26.2065 H   0  0  0  0  0  0
  -28.3864  -32.6884   25.0321 H   0  0  0  0  0  0
  -28.0719  -31.8452   26.5411 H   0  0  0  0  0  0
  -28.2592  -38.0101   24.7518 H   0  0  0  0  0  0
  -28.1083  -36.2633   24.6277 H   0  0  0  0  0  0
  -27.2300  -37.1433   25.8866 H   0  0  0  0  0  0
  -20.9380  -29.8761   21.6874 H   0  0  0  0  0  0
  -26.0171  -38.2848   24.1415 H   0  0  0  0  0  0
  -28.1398  -19.9653   22.0672 H   0  0  0  0  0  0
  -31.2259  -17.3789   19.1838 H   0  0  0  0  0  0
  -27.2361  -24.9436   21.0918 H   0  0  0  0  0  0
  -30.1938  -21.9510   19.5821 H   0  0  0  0  0  0
  -28.9718  -15.3592   21.4073 H   0  0  0  0  0  0
  -30.0534  -25.1141   19.2363 H   0  0  0  0  0  0
  1 25  1  0  0  0
  1 30  2  0  0  0
  1 82  1  0  0  0
  2  3  1  0  0  0
  2 25  1  0  0  0
  2 89  1  0  0  0
  2 90  1  0  0  0
  3  4  1  0  0  0
  3 91  1  0  0  0
  3 92  1  0  0  0
  4  5  1  0  0  0
  4 93  1  0  0  0
  4 94  1  0  0  0
  5  6  1  0  0  0
  5 26  1  0  0  0
  5 95  1  0  0  0
  6 25  1  0  0  0
  6 96  1  0  0  0
  6 97  1  0  0  0
  7  8  2  0  0  0
  7 26  1  0  0  0
  7 29  1  0  0  0
  8  9  1  0  0  0
  8 22  1  0  0  0
  9 10  1  0  0  0
  9 27  2  0  0  0
 10 11  2  0  0  0
 10 15  1  0  0  0
 11 12  1  0  0  0
 11 98  1  0  0  0
 12 13  2  0  0  0
 12 99  1  0  0  0
 13 14  1  0  0  0
 13 31  1  0  0  0
 14 15  2  0  0  0
 14100  1  0  0  0
 15101  1  0  0  0
 16 17  2  0  0  0
 16 21  1  0  0  0
 16 31  1  0  0  0
 17 18  1  0  0  0
 17102  1  0  0  0
 18 19  2  0  0  0
 18103  1  0  0  0
 19 20  1  0  0  0
 19 24  1  0  0  0
 20 21  2  0  0  0
 20104  1  0  0  0
 21 23  1  0  0  0
 22 28  1  0  0  0
 22 32  2  0  0  0
 26 27  1  0  0  0
 28105  1  0  0  0
 28106  1  0  0  0
 29107  1  0  0  0
 29108  1  0  0  0
 33 34  1  0  0  0
 33 66  1  0  0  0
 33 70  2  0  0  0
 34 36  1  0  0  0
 34 59  1  0  0  0
 34109  1  0  0  0
 35 44  2  0  0  0
 35 45  1  0  0  0
 35 68  1  0  0  0
 36 56  1  0  0  0
 36110  1  0  0  0
 37 39  1  0  0  0
 37 47  1  0  0  0
 37 66  1  0  0  0
 37111  1  0  0  0
 38 43  2  0  0  0
 38 46  1  0  0  0
 38 47  1  0  0  0
 39 64  1  0  0  0
 39 67  2  0  0  0
 40 52  1  0  0  0
 40 53  2  0  0  0
 40 58  1  0  0  0
 41112  1  0  0  0
 41113  1  0  0  0
 41114  1  0  0  0
 41 48  1  0  0  0
 42 43  1  0  0  0
 42 66  1  0  0  0
 42115  1  0  0  0
 42116  1  0  0  0
 43 44  1  0  0  0
 44117  1  0  0  0
 45 46  2  0  0  0
 45118  1  0  0  0
 46119  1  0  0  0
 47120  1  0  0  0
 47121  1  0  0  0
 48 56  1  0  0  0
 48 65  1  0  0  0
 48122  1  0  0  0
 49 50  1  0  0  0
 49 53  1  0  0  0
 49 64  1  0  0  0
 49123  1  0  0  0
 50 51  1  0  0  0
 50124  1  0  0  0
 50125  1  0  0  0
 51 52  1  0  0  0
 51126  1  0  0  0
 51127  1  0  0  0
 52128  1  0  0  0
 52129  1  0  0  0
 53 54  1  0  0  0
 54 55  2  0  0  0
 54130  1  0  0  0
 55 57  1  0  0  0
 55131  1  0  0  0
 56 69  2  0  0  0
 57 58  2  0  0  0
 57132  1  0  0  0
 58133  1  0  0  0
 59 60  1  0  0  0
 59 61  1  0  0  0
 59 62  1  0  0  0
 60134  1  0  0  0
 60135  1  0  0  0
 60136  1  0  0  0
 61137  1  0  0  0
 61138  1  0  0  0
 61139  1  0  0  0
 62140  1  0  0  0
 62141  1  0  0  0
 62142  1  0  0  0
 63 65  1  0  0  0
 63143  1  0  0  0
 63144  1  0  0  0
 63145  1  0  0  0
 64146  1  0  0  0
 65147  1  0  0  0
 68 77  1  0  0  0
 71 73  2  0  0  0
 71 74  1  0  0  0
 71148  1  0  0  0
 72 75  2  0  0  0
 72 76  1  0  0  0
 72149  1  0  0  0
 73 75  1  0  0  0
 73 80  1  0  0  0
 74 76  2  0  0  0
 74 81  1  0  0  0
 75 82  1  0  0  0
 76 85  1  0  0  0
 77 78  2  0  0  0
 77150  1  0  0  0
 78 79  1  0  0  0
 78 84  1  0  0  0
 79 81  1  0  0  0
 79 83  2  0  0  0
 80 86  1  0  0  0
 80 87  1  0  0  0
 80 88  1  0  0  0
 81151  1  0  0  0
 82152  1  0  0  0
 84153  1  0  0  0
M  ISO  4   1 100  68 101  77 101  82 100
M  END
> <chiral flag>
0

> <version>
0

> <s_m_source_file>
/data/baiqing/PycharmProjects/Reinvent-master-3.2/result/LINK_invent/BTK/process_docking_weight1_custom_product_contain_oxygen_bond_distance_aromatic_linkinvent_7_9_3/rearranged_h_0173.sdf

> <i_m_source_file_index>
46

> <r_mmod_Potential_Energy-OPLS-2005>
22.1660747528076

> <r_mmod_Stretch_Energy-OPLS-2005>
93.9335098266602

> <r_mmod_Bend_Energy-OPLS-2005>
146.03889465332

> <r_mmod_Torsional_Energy-OPLS-2005>
211.846694946289

> <r_mmod_Improper_Torsional_Energy-OPLS-2005>
3.11535787582397

> <r_mmod_Van_der_Waal_Energy-OPLS-2005>
146.606994628906

> <r_mmod_Electrostatic_Energy-OPLS-2005>
-431.271453857422

> <r_mmod_Solvation_Energy-OPLS-2005>
-209.303405761719

> <b_mmod_Minimization_Converged-OPLS-2005>
0

> <r_mmod_RMS_Derivative-OPLS-2005>
0.125335842370987

$$$$
46
                    3D
 Structure written by MMmdl.
156164  0  0  1  0            999 V2000
  -30.6586  -14.5229   20.5681 C   0  0  0  0  0  0
  -30.4370  -12.3374   19.4197 C   0  0  0  0  0  0
  -29.4961  -12.5042   18.2067 C   0  0  0  0  0  0
  -28.0209  -12.3469   18.6262 C   0  0  0  0  0  0
  -27.6612  -13.1993   19.8718 C   0  0  2  0  0  0
  -28.7052  -12.9861   20.9900 C   0  0  0  0  0  0
  -25.2615  -13.8139   20.5671 C   0  0  0  0  0  0
  -24.1844  -13.0438   20.9164 C   0  0  0  0  0  0
  -24.6390  -11.6897   20.8745 C   0  0  0  0  0  0
  -23.9047  -10.4294   21.0414 C   0  0  0  0  0  0
  -24.3598   -9.4208   21.9197 C   0  0  0  0  0  0
  -23.6272   -8.2246   22.0764 C   0  0  0  0  0  0
  -22.4258   -8.0285   21.3543 C   0  0  0  0  0  0
  -21.9882   -9.0268   20.4650 C   0  0  0  0  0  0
  -22.7213  -10.2149   20.3062 C   0  0  0  0  0  0
  -21.6854   -6.0728   22.5269 C   0  0  0  0  0  0
  -21.4012   -6.5640   23.8205 C   0  0  0  0  0  0
  -21.3658   -5.6800   24.9173 C   0  0  0  0  0  0
  -21.6036   -4.3057   24.7219 C   0  0  0  0  0  0
  -21.8822   -3.8145   23.4349 C   0  0  0  0  0  0
  -21.9194   -4.6957   22.3397 C   0  0  0  0  0  0
  -22.7880  -13.5271   21.1818 C   0  0  0  0  0  0
  -22.1664   -4.2138   21.0970 F   0  0  0  0  0  0
  -21.5624   -3.4543   25.7740 F   0  0  0  0  0  0
  -30.0298  -13.3207   20.4365 N   0  0  0  0  0  0
  -26.3035  -12.9285   20.3364 N   0  0  0  0  0  0
  -25.9313  -11.6457   20.5789 N   0  0  0  0  0  0
  -22.0503  -12.8304   22.0382 N   0  0  0  0  0  0
  -25.4384  -15.1850   20.4083 N   0  0  0  0  0  0
  -31.7915  -14.7387   20.1254 O   0  0  0  0  0  0
  -21.6632   -6.8872   21.4234 O   0  0  0  0  0  0
  -22.3588  -14.5590   20.6667 O   0  0  0  0  0  0
  -24.6181  -31.8648   23.2058 C   0  0  0  0  0  0
  -25.9061  -32.4806   23.8369 C   0  0  1  0  0  0
  -27.2374  -27.3951   20.1108 C   0  0  0  0  0  0
  -25.5906  -33.8604   24.2304 N   0  0  0  0  0  0
  -23.4086  -30.4861   21.5468 C   0  0  2  0  0  0
  -24.8561  -28.9408   20.1210 C   0  0  0  0  0  0
  -22.7418  -29.4651   22.4969 C   0  0  0  0  0  0
  -18.0273  -28.1380   22.8490 C   0  0  0  0  0  0
  -24.1485  -36.7311   23.2634 C   0  0  0  0  0  0
  -25.9404  -30.8194   21.3624 C   0  0  0  0  0  0
  -26.0190  -29.4479   20.7145 C   0  0  0  0  0  0
  -27.2153  -28.6862   20.6987 C   0  0  0  0  0  0
  -26.0546  -26.9082   19.5162 C   0  0  0  0  0  0
  -24.8704  -27.6711   19.5178 C   0  0  0  0  0  0
  -23.6201  -29.8136   20.1642 C   0  0  0  0  0  0
  -25.4104  -36.3100   24.0334 C   0  0  1  0  0  0
  -20.5865  -28.3677   23.1302 C   0  0  2  0  0  0
  -20.6765  -26.9412   22.5406 C   0  0  0  0  0  0
  -19.5740  -26.6384   21.5211 C   0  0  0  0  0  0
  -18.1923  -26.7921   22.1631 C   0  0  0  0  0  0
  -19.1523  -28.8843   23.2892 C   0  0  0  0  0  0
  -18.9457  -30.1446   23.8906 C   0  0  0  0  0  0
  -17.6462  -30.6588   24.0564 C   0  0  0  0  0  0
  -25.9040  -34.9470   23.5116 C   0  0  0  0  0  0
  -16.5351  -29.9091   23.6326 C   0  0  0  0  0  0
  -16.7264  -28.6508   23.0349 C   0  0  0  0  0  0
  -26.4479  -31.6592   25.0708 C   0  0  0  0  0  0
  -25.3743  -31.3722   26.1459 C   0  0  0  0  0  0
  -27.0298  -30.3025   24.6098 C   0  0  0  0  0  0
  -27.6056  -32.4307   25.7465 C   0  0  0  0  0  0
  -27.5581  -37.1798   24.8459 C   0  0  0  0  0  0
  -21.4143  -29.3042   22.3704 N   0  0  0  0  0  0
  -26.4284  -37.3792   23.9419 N   0  0  0  0  0  0
  -24.6741  -31.0720   22.0969 N   0  0  0  0  0  0
  -23.4169  -28.8202   23.3034 O   0  0  0  0  0  0
  -28.3985  -26.6417   20.0651 O   0  0  0  0  0  0
  -26.5608  -34.8931   22.4681 O   0  0  0  0  0  0
  -23.5365  -32.1418   23.7432 O   0  0  0  0  0  0
  -30.6702  -17.2328   22.6259 C   0  0  0  0  0  0
  -30.5048  -19.6099   22.0609 C   0  0  0  0  0  0
  -30.2020  -16.8767   21.3430 C   0  0  0  0  0  0
  -30.0396  -19.2919   20.7675 C   0  0  0  0  0  0
  -30.8274  -18.5887   22.9768 C   0  0  0  0  0  0
  -29.8942  -17.9148   20.4135 C   0  0  0  0  0  0
  -28.4195  -24.1118   19.8399 C   0  0  0  0  0  0
  -29.2846  -22.8444   20.2661 C   0  0  0  0  0  0
  -27.6077  -21.1888   19.1064 C   0  0  0  0  0  0
  -28.3992  -25.3642   20.7662 C   0  0  0  0  0  0
  -28.7387  -21.3529   20.1385 C   0  0  1  0  0  0
  -29.8862  -15.5013   21.0876 N   0  0  0  0  0  0
  -29.7678  -20.3259   19.8372 N   0  0  0  0  0  0
  -27.8259  -24.1388   18.7547 O   0  0  0  0  0  0
  -30.4213  -23.0505   20.7051 O   0  0  0  0  0  0
  -31.2834  -18.9146   24.2102 F   0  0  0  0  0  0
  -29.4210  -17.5951   19.1832 F   0  0  0  0  0  0
  -31.4760  -12.4644   19.1114 H   0  0  0  0  0  0
  -30.3684  -11.3267   19.8244 H   0  0  0  0  0  0
  -29.7390  -11.7719   17.4352 H   0  0  0  0  0  0
  -29.6450  -13.4867   17.7569 H   0  0  0  0  0  0
  -27.8531  -11.2913   18.8425 H   0  0  0  0  0  0
  -27.3614  -12.5947   17.7941 H   0  0  0  0  0  0
  -27.7021  -14.2437   19.5646 H   0  0  0  0  0  0
  -28.6985  -11.9459   21.3169 H   0  0  0  0  0  0
  -28.4548  -13.5653   21.8800 H   0  0  0  0  0  0
  -25.2744   -9.5692   22.4772 H   0  0  0  0  0  0
  -23.9966   -7.4650   22.7508 H   0  0  0  0  0  0
  -21.0798   -8.8810   19.8986 H   0  0  0  0  0  0
  -22.3671  -10.9695   19.6182 H   0  0  0  0  0  0
  -21.2015   -7.6156   23.9709 H   0  0  0  0  0  0
  -21.1464   -6.0527   25.9070 H   0  0  0  0  0  0
  -22.0596   -2.7603   23.2856 H   0  0  0  0  0  0
  -22.4098  -11.9956   22.4756 H   0  0  0  0  0  0
  -21.1143  -13.1396   22.2613 H   0  0  0  0  0  0
  -24.6764  -15.8443   20.5201 H   0  0  0  0  0  0
  -26.2935  -15.6158   20.0777 H   0  0  0  0  0  0
  -26.7135  -32.5513   23.1135 H   0  0  0  0  0  0
  -25.0052  -33.9752   25.0448 H   0  0  0  0  0  0
  -22.7002  -31.3039   21.4024 H   0  0  0  0  0  0
  -23.3741  -35.9650   23.3295 H   0  0  0  0  0  0
  -24.3584  -36.8925   22.2050 H   0  0  0  0  0  0
  -23.7241  -37.6518   23.6647 H   0  0  0  0  0  0
  -26.0524  -31.5808   20.5893 H   0  0  0  0  0  0
  -26.8285  -30.8785   21.9797 H   0  0  0  0  0  0
  -28.1172  -29.0795   21.1474 H   0  0  0  0  0  0
  -26.0456  -25.9400   19.0389 H   0  0  0  0  0  0
  -23.9782  -27.2733   19.0538 H   0  0  0  0  0  0
  -23.7345  -30.5867   19.4033 H   0  0  0  0  0  0
  -22.7438  -29.2351   19.8658 H   0  0  0  0  0  0
  -25.1276  -36.1956   25.0826 H   0  0  0  0  0  0
  -20.9956  -28.3252   24.1423 H   0  0  0  0  0  0
  -20.5671  -26.2294   23.3601 H   0  0  0  0  0  0
  -21.6637  -26.7449   22.1203 H   0  0  0  0  0  0
  -19.6907  -25.6296   21.1239 H   0  0  0  0  0  0
  -19.6675  -27.3196   20.6742 H   0  0  0  0  0  0
  -17.4184  -26.6646   21.4045 H   0  0  0  0  0  0
  -18.0348  -26.0066   22.9036 H   0  0  0  0  0  0
  -19.7934  -30.7253   24.2288 H   0  0  0  0  0  0
  -17.5020  -31.6268   24.5158 H   0  0  0  0  0  0
  -15.5356  -30.3004   23.7641 H   0  0  0  0  0  0
  -15.8660  -28.0829   22.7066 H   0  0  0  0  0  0
  -24.5887  -30.7105   25.7796 H   0  0  0  0  0  0
  -24.8981  -32.2896   26.4929 H   0  0  0  0  0  0
  -25.8094  -30.8861   27.0201 H   0  0  0  0  0  0
  -26.2839  -29.6789   24.1156 H   0  0  0  0  0  0
  -27.4059  -29.7260   25.4559 H   0  0  0  0  0  0
  -27.8682  -30.4327   23.9251 H   0  0  0  0  0  0
  -27.2679  -33.3597   26.2069 H   0  0  0  0  0  0
  -28.3855  -32.6880   25.0286 H   0  0  0  0  0  0
  -28.0738  -31.8413   26.5358 H   0  0  0  0  0  0
  -28.2586  -38.0109   24.7537 H   0  0  0  0  0  0
  -28.1091  -36.2645   24.6242 H   0  0  0  0  0  0
  -27.2309  -37.1393   25.8863 H   0  0  0  0  0  0
  -20.9310  -29.8775   21.6932 H   0  0  0  0  0  0
  -26.0168  -38.2863   24.1445 H   0  0  0  0  0  0
  -30.8859  -16.4697   23.3598 H   0  0  0  0  0  0
  -30.6439  -20.6397   22.3529 H   0  0  0  0  0  0
  -26.7211  -21.7551   19.3921 H   0  0  0  0  0  0
  -27.2968  -20.1463   19.0226 H   0  0  0  0  0  0
  -27.9136  -21.5180   18.1116 H   0  0  0  0  0  0
  -29.2767  -25.3384   21.4120 H   0  0  0  0  0  0
  -27.5318  -25.2957   21.4238 H   0  0  0  0  0  0
  -28.3094  -21.0990   21.1086 H   0  0  0  0  0  0
  -28.9697  -15.1999   21.3792 H   0  0  0  0  0  0
  -29.6830  -19.9561   18.8945 H   0  0  0  0  0  0
  1 25  1  0  0  0
  1 30  2  0  0  0
  1 82  1  0  0  0
  2  3  1  0  0  0
  2 25  1  0  0  0
  2 88  1  0  0  0
  2 89  1  0  0  0
  3  4  1  0  0  0
  3 90  1  0  0  0
  3 91  1  0  0  0
  4  5  1  0  0  0
  4 92  1  0  0  0
  4 93  1  0  0  0
  5  6  1  0  0  0
  5 26  1  0  0  0
  5 94  1  0  0  0
  6 25  1  0  0  0
  6 95  1  0  0  0
  6 96  1  0  0  0
  7  8  2  0  0  0
  7 26  1  0  0  0
  7 29  1  0  0  0
  8  9  1  0  0  0
  8 22  1  0  0  0
  9 10  1  0  0  0
  9 27  2  0  0  0
 10 11  2  0  0  0
 10 15  1  0  0  0
 11 12  1  0  0  0
 11 97  1  0  0  0
 12 13  2  0  0  0
 12 98  1  0  0  0
 13 14  1  0  0  0
 13 31  1  0  0  0
 14 15  2  0  0  0
 14 99  1  0  0  0
 15100  1  0  0  0
 16 17  2  0  0  0
 16 21  1  0  0  0
 16 31  1  0  0  0
 17 18  1  0  0  0
 17101  1  0  0  0
 18 19  2  0  0  0
 18102  1  0  0  0
 19 20  1  0  0  0
 19 24  1  0  0  0
 20 21  2  0  0  0
 20103  1  0  0  0
 21 23  1  0  0  0
 22 28  1  0  0  0
 22 32  2  0  0  0
 26 27  1  0  0  0
 28104  1  0  0  0
 28105  1  0  0  0
 29106  1  0  0  0
 29107  1  0  0  0
 33 34  1  0  0  0
 33 66  1  0  0  0
 33 70  2  0  0  0
 34 36  1  0  0  0
 34 59  1  0  0  0
 34108  1  0  0  0
 35 44  2  0  0  0
 35 45  1  0  0  0
 35 68  1  0  0  0
 36 56  1  0  0  0
 36109  1  0  0  0
 37 39  1  0  0  0
 37 47  1  0  0  0
 37 66  1  0  0  0
 37110  1  0  0  0
 38 43  2  0  0  0
 38 46  1  0  0  0
 38 47  1  0  0  0
 39 64  1  0  0  0
 39 67  2  0  0  0
 40 52  1  0  0  0
 40 53  2  0  0  0
 40 58  1  0  0  0
 41111  1  0  0  0
 41112  1  0  0  0
 41113  1  0  0  0
 41 48  1  0  0  0
 42 43  1  0  0  0
 42 66  1  0  0  0
 42114  1  0  0  0
 42115  1  0  0  0
 43 44  1  0  0  0
 44116  1  0  0  0
 45 46  2  0  0  0
 45117  1  0  0  0
 46118  1  0  0  0
 47119  1  0  0  0
 47120  1  0  0  0
 48 56  1  0  0  0
 48 65  1  0  0  0
 48121  1  0  0  0
 49 50  1  0  0  0
 49 53  1  0  0  0
 49 64  1  0  0  0
 49122  1  0  0  0
 50 51  1  0  0  0
 50123  1  0  0  0
 50124  1  0  0  0
 51 52  1  0  0  0
 51125  1  0  0  0
 51126  1  0  0  0
 52127  1  0  0  0
 52128  1  0  0  0
 53 54  1  0  0  0
 54 55  2  0  0  0
 54129  1  0  0  0
 55 57  1  0  0  0
 55130  1  0  0  0
 56 69  2  0  0  0
 57 58  2  0  0  0
 57131  1  0  0  0
 58132  1  0  0  0
 59 60  1  0  0  0
 59 61  1  0  0  0
 59 62  1  0  0  0
 60133  1  0  0  0
 60134  1  0  0  0
 60135  1  0  0  0
 61136  1  0  0  0
 61137  1  0  0  0
 61138  1  0  0  0
 62139  1  0  0  0
 62140  1  0  0  0
 62141  1  0  0  0
 63 65  1  0  0  0
 63142  1  0  0  0
 63143  1  0  0  0
 63144  1  0  0  0
 64145  1  0  0  0
 65146  1  0  0  0
 68 80  1  0  0  0
 71 73  2  0  0  0
 71 75  1  0  0  0
 71147  1  0  0  0
 72 74  1  0  0  0
 72 75  2  0  0  0
 72148  1  0  0  0
 73 76  1  0  0  0
 73 82  1  0  0  0
 74 76  2  0  0  0
 74 83  1  0  0  0
 75 86  1  0  0  0
 76 87  1  0  0  0
 77 78  1  0  0  0
 77 80  1  0  0  0
 77 84  2  0  0  0
 78 81  1  0  0  0
 78 85  2  0  0  0
 79149  1  0  0  0
 79150  1  0  0  0
 79151  1  0  0  0
 79 81  1  0  0  0
 80152  1  0  0  0
 80153  1  0  0  0
 81 83  1  0  0  0
 81154  1  0  0  0
 82155  1  0  0  0
 83156  1  0  0  0
M  ISO  4   1 100  68 101  80 101  82 100
M  END
> <chiral flag>
0

> <version>
0

> <s_m_source_file>
/data/baiqing/PycharmProjects/Reinvent-master-3.2/result/LINK_invent/BTK/process_docking_weight1_custom_product_contain_oxygen_bond_distance_aromatic_linkinvent_7_9_3/rearranged_h_0173.sdf

> <i_m_source_file_index>
47

> <r_mmod_Potential_Energy-OPLS-2005>
180.63134765625

> <r_mmod_Stretch_Energy-OPLS-2005>
56.2692565917969

> <r_mmod_Bend_Energy-OPLS-2005>
112.601631164551

> <r_mmod_Torsional_Energy-OPLS-2005>
289.263275146484

> <r_mmod_Improper_Torsional_Energy-OPLS-2005>
8.84367561340332

> <r_mmod_Van_der_Waal_Energy-OPLS-2005>
139.128189086914

> <r_mmod_Electrostatic_Energy-OPLS-2005>
-208.198043823242

> <r_mmod_Solvation_Energy-OPLS-2005>
-235.9765625

> <b_mmod_Minimization_Converged-OPLS-2005>
0

> <r_mmod_RMS_Derivative-OPLS-2005>
2.19519019126892

$$$$
47
                    3D
 Structure written by MMmdl.
160168  0  0  1  0            999 V2000
  -30.7049  -14.4797   20.5243 C   0  0  0  0  0  0
  -30.4164  -12.2935   19.4410 C   0  0  0  0  0  0
  -29.4976  -12.4902   18.2171 C   0  0  0  0  0  0
  -28.0170  -12.3600   18.6250 C   0  0  0  0  0  0
  -27.6602  -13.2099   19.8748 C   0  0  2  0  0  0
  -28.7023  -13.0185   21.0022 C   0  0  0  0  0  0
  -25.2583  -13.8170   20.5692 C   0  0  0  0  0  0
  -24.1837  -13.0442   20.9181 C   0  0  0  0  0  0
  -24.6394  -11.6911   20.8741 C   0  0  0  0  0  0
  -23.9063  -10.4297   21.0404 C   0  0  0  0  0  0
  -24.3614   -9.4215   21.9187 C   0  0  0  0  0  0
  -23.6291   -8.2248   22.0759 C   0  0  0  0  0  0
  -22.4275   -8.0281   21.3547 C   0  0  0  0  0  0
  -21.9911   -9.0252   20.4644 C   0  0  0  0  0  0
  -22.7237  -10.2133   20.3052 C   0  0  0  0  0  0
  -21.6851   -6.0736   22.5280 C   0  0  0  0  0  0
  -21.4009   -6.5639   23.8213 C   0  0  0  0  0  0
  -21.3661   -5.6792   24.9174 C   0  0  0  0  0  0
  -21.6049   -4.3057   24.7224 C   0  0  0  0  0  0
  -21.8816   -3.8147   23.4346 C   0  0  0  0  0  0
  -21.9192   -4.6964   22.3404 C   0  0  0  0  0  0
  -22.7861  -13.5238   21.1849 C   0  0  0  0  0  0
  -22.1661   -4.2153   21.0980 F   0  0  0  0  0  0
  -21.5634   -3.4540   25.7738 F   0  0  0  0  0  0
  -30.0342  -13.2994   20.4443 N   0  0  0  0  0  0
  -26.3019  -12.9343   20.3369 N   0  0  0  0  0  0
  -25.9324  -11.6503   20.5778 N   0  0  0  0  0  0
  -22.0502  -12.8219   22.0391 N   0  0  0  0  0  0
  -25.4302  -15.1890   20.4108 N   0  0  0  0  0  0
  -31.8548  -14.6209   20.1021 O   0  0  0  0  0  0
  -21.6638   -6.8880   21.4241 O   0  0  0  0  0  0
  -22.3555  -14.5560   20.6720 O   0  0  0  0  0  0
  -24.6147  -31.8672   23.2098 C   0  0  0  0  0  0
  -25.9033  -32.4825   23.8404 C   0  0  1  0  0  0
  -27.2376  -27.4392   20.1048 C   0  0  0  0  0  0
  -25.5893  -33.8621   24.2334 N   0  0  0  0  0  0
  -23.4035  -30.4885   21.5501 C   0  0  2  0  0  0
  -24.8526  -28.9530   20.1167 C   0  0  0  0  0  0
  -22.7415  -29.4657   22.5007 C   0  0  0  0  0  0
  -18.0266  -28.1367   22.8494 C   0  0  0  0  0  0
  -24.1488  -36.7305   23.2645 C   0  0  0  0  0  0
  -25.9306  -30.8368   21.3598 C   0  0  0  0  0  0
  -26.0118  -29.4700   20.7108 C   0  0  0  0  0  0
  -27.2108  -28.7208   20.7002 C   0  0  0  0  0  0
  -26.0668  -26.9330   19.5062 C   0  0  0  0  0  0
  -24.8748  -27.6842   19.5101 C   0  0  0  0  0  0
  -23.6112  -29.8163   20.1666 C   0  0  0  0  0  0
  -25.4112  -36.3108   24.0343 C   0  0  1  0  0  0
  -20.5861  -28.3656   23.1325 C   0  0  2  0  0  0
  -20.6756  -26.9398   22.5415 C   0  0  0  0  0  0
  -19.5736  -26.6377   21.5213 C   0  0  0  0  0  0
  -18.1909  -26.7915   22.1620 C   0  0  0  0  0  0
  -19.1517  -28.8830   23.2900 C   0  0  0  0  0  0
  -18.9447  -30.1430   23.8912 C   0  0  0  0  0  0
  -17.6458  -30.6582   24.0563 C   0  0  0  0  0  0
  -25.9040  -34.9474   23.5138 C   0  0  0  0  0  0
  -16.5342  -29.9087   23.6335 C   0  0  0  0  0  0
  -16.7256  -28.6493   23.0370 C   0  0  0  0  0  0
  -26.4464  -31.6605   25.0727 C   0  0  0  0  0  0
  -25.3726  -31.3668   26.1468 C   0  0  0  0  0  0
  -27.0319  -30.3070   24.6067 C   0  0  0  0  0  0
  -27.6036  -32.4335   25.7492 C   0  0  0  0  0  0
  -27.5571  -37.1804   24.8468 C   0  0  0  0  0  0
  -21.4146  -29.3029   22.3740 N   0  0  0  0  0  0
  -26.4291  -37.3798   23.9409 N   0  0  0  0  0  0
  -24.6676  -31.0784   22.0987 N   0  0  0  0  0  0
  -23.4182  -28.8205   23.3061 O   0  0  0  0  0  0
  -28.3844  -26.6798   20.1062 O   0  0  0  0  0  0
  -26.5600  -34.8919   22.4697 O   0  0  0  0  0  0
  -23.5340  -32.1421   23.7498 O   0  0  0  0  0  0
  -29.6719  -18.0042   22.5677 C   0  0  0  0  0  0
  -29.0786  -20.3744   22.7027 C   0  0  0  0  0  0
  -29.7858  -18.1031   21.1654 C   0  0  0  0  0  0
  -29.1762  -20.5012   21.2972 C   0  0  0  0  0  0
  -29.3225  -19.1354   23.3298 C   0  0  0  0  0  0
  -29.5387  -19.3556   20.5413 C   0  0  0  0  0  0
  -28.5756  -24.2083   20.3678 C   0  0  0  0  0  0
  -25.9433  -22.4985   20.4645 C   0  0  0  0  0  0
  -30.2474  -16.9081   20.3270 C   0  0  0  0  0  0
  -28.3466  -25.5828   21.0397 C   0  0  0  0  0  0
  -26.9042  -22.7377   21.6426 C   0  0  0  0  0  0
  -28.3939  -22.9352   21.2543 C   0  0  1  0  0  0
  -28.9444  -21.7227   20.6211 N   0  0  0  0  0  0
  -29.9598  -15.5549   20.8458 N   0  0  0  0  0  0
  -28.8887  -24.1382   19.1733 O   0  0  0  0  0  0
  -29.2334  -19.0342   24.6773 F   0  0  0  0  0  0
  -29.6606  -19.4698   19.1953 F   0  0  0  0  0  0
  -31.4649  -12.3685   19.1464 H   0  0  0  0  0  0
  -30.2970  -11.2899   19.8530 H   0  0  0  0  0  0
  -29.7365  -11.7576   17.4453 H   0  0  0  0  0  0
  -29.6730  -13.4712   17.7731 H   0  0  0  0  0  0
  -27.8225  -11.3057   18.8261 H   0  0  0  0  0  0
  -27.3712  -12.6314   17.7891 H   0  0  0  0  0  0
  -27.6961  -14.2530   19.5608 H   0  0  0  0  0  0
  -28.6715  -11.9951   21.3797 H   0  0  0  0  0  0
  -28.4758  -13.6571   21.8574 H   0  0  0  0  0  0
  -25.2756   -9.5695   22.4765 H   0  0  0  0  0  0
  -24.0001   -7.4641   22.7480 H   0  0  0  0  0  0
  -21.0848   -8.8766   19.8944 H   0  0  0  0  0  0
  -22.3699  -10.9671   19.6158 H   0  0  0  0  0  0
  -21.1992   -7.6146   23.9718 H   0  0  0  0  0  0
  -21.1490   -6.0522   25.9081 H   0  0  0  0  0  0
  -22.0594   -2.7610   23.2843 H   0  0  0  0  0  0
  -22.4108  -11.9855   22.4741 H   0  0  0  0  0  0
  -21.1124  -13.1248   22.2614 H   0  0  0  0  0  0
  -24.6632  -15.8432   20.5221 H   0  0  0  0  0  0
  -26.2809  -15.6301   20.0858 H   0  0  0  0  0  0
  -26.7113  -32.5541   23.1181 H   0  0  0  0  0  0
  -25.0076  -33.9790   25.0502 H   0  0  0  0  0  0
  -22.6928  -31.3051   21.4091 H   0  0  0  0  0  0
  -23.3755  -35.9633   23.3324 H   0  0  0  0  0  0
  -24.3584  -36.8913   22.2057 H   0  0  0  0  0  0
  -23.7244  -37.6510   23.6660 H   0  0  0  0  0  0
  -26.0358  -31.6004   20.5877 H   0  0  0  0  0  0
  -26.8208  -30.8972   21.9741 H   0  0  0  0  0  0
  -28.1064  -29.1156   21.1589 H   0  0  0  0  0  0
  -26.0788  -25.9573   19.0405 H   0  0  0  0  0  0
  -23.9835  -27.2801   19.0501 H   0  0  0  0  0  0
  -23.7120  -30.5882   19.4033 H   0  0  0  0  0  0
  -22.7368  -29.2295   19.8778 H   0  0  0  0  0  0
  -25.1288  -36.1973   25.0838 H   0  0  0  0  0  0
  -20.9937  -28.3217   24.1454 H   0  0  0  0  0  0
  -20.5676  -26.2262   23.3597 H   0  0  0  0  0  0
  -21.6622  -26.7454   22.1191 H   0  0  0  0  0  0
  -19.6907  -25.6292   21.1234 H   0  0  0  0  0  0
  -19.6678  -27.3196   20.6750 H   0  0  0  0  0  0
  -17.4183  -26.6680   21.4010 H   0  0  0  0  0  0
  -18.0292  -26.0046   22.9000 H   0  0  0  0  0  0
  -19.7931  -30.7226   24.2299 H   0  0  0  0  0  0
  -17.5022  -31.6273   24.5140 H   0  0  0  0  0  0
  -15.5346  -30.2995   23.7660 H   0  0  0  0  0  0
  -15.8649  -28.0813   22.7110 H   0  0  0  0  0  0
  -24.5938  -30.6980   25.7794 H   0  0  0  0  0  0
  -24.8855  -32.2790   26.4920 H   0  0  0  0  0  0
  -25.8069  -30.8845   27.0237 H   0  0  0  0  0  0
  -26.2857  -29.6808   24.1167 H   0  0  0  0  0  0
  -27.4191  -29.7315   25.4488 H   0  0  0  0  0  0
  -27.8638  -30.4436   23.9153 H   0  0  0  0  0  0
  -27.2670  -33.3663   26.2032 H   0  0  0  0  0  0
  -28.3859  -32.6859   25.0320 H   0  0  0  0  0  0
  -28.0685  -31.8481   26.5434 H   0  0  0  0  0  0
  -28.2594  -38.0095   24.7526 H   0  0  0  0  0  0
  -28.1057  -36.2625   24.6294 H   0  0  0  0  0  0
  -27.2271  -37.1460   25.8865 H   0  0  0  0  0  0
  -20.9310  -29.8755   21.6964 H   0  0  0  0  0  0
  -26.0177  -38.2876   24.1406 H   0  0  0  0  0  0
  -29.8764  -17.0710   23.0709 H   0  0  0  0  0  0
  -28.8271  -21.2196   23.3238 H   0  0  0  0  0  0
  -24.9220  -22.3676   20.8229 H   0  0  0  0  0  0
  -26.2142  -21.6004   19.9093 H   0  0  0  0  0  0
  -25.9360  -23.3351   19.7654 H   0  0  0  0  0  0
  -31.3193  -17.0433   20.1703 H   0  0  0  0  0  0
  -29.7922  -16.9777   19.3378 H   0  0  0  0  0  0
  -29.1303  -25.7337   21.7821 H   0  0  0  0  0  0
  -27.4020  -25.5651   21.5846 H   0  0  0  0  0  0
  -26.8077  -21.9049   22.3387 H   0  0  0  0  0  0
  -26.5547  -23.6040   22.2056 H   0  0  0  0  0  0
  -28.9624  -23.1110   22.1689 H   0  0  0  0  0  0
  -29.1015  -21.7594   19.6171 H   0  0  0  0  0  0
  -29.0237  -15.3764   21.1747 H   0  0  0  0  0  0
  1 25  1  0  0  0
  1 30  2  0  0  0
  1 84  1  0  0  0
  2  3  1  0  0  0
  2 25  1  0  0  0
  2 88  1  0  0  0
  2 89  1  0  0  0
  3  4  1  0  0  0
  3 90  1  0  0  0
  3 91  1  0  0  0
  4  5  1  0  0  0
  4 92  1  0  0  0
  4 93  1  0  0  0
  5  6  1  0  0  0
  5 26  1  0  0  0
  5 94  1  0  0  0
  6 25  1  0  0  0
  6 95  1  0  0  0
  6 96  1  0  0  0
  7  8  2  0  0  0
  7 26  1  0  0  0
  7 29  1  0  0  0
  8  9  1  0  0  0
  8 22  1  0  0  0
  9 10  1  0  0  0
  9 27  2  0  0  0
 10 11  2  0  0  0
 10 15  1  0  0  0
 11 12  1  0  0  0
 11 97  1  0  0  0
 12 13  2  0  0  0
 12 98  1  0  0  0
 13 14  1  0  0  0
 13 31  1  0  0  0
 14 15  2  0  0  0
 14 99  1  0  0  0
 15100  1  0  0  0
 16 17  2  0  0  0
 16 21  1  0  0  0
 16 31  1  0  0  0
 17 18  1  0  0  0
 17101  1  0  0  0
 18 19  2  0  0  0
 18102  1  0  0  0
 19 20  1  0  0  0
 19 24  1  0  0  0
 20 21  2  0  0  0
 20103  1  0  0  0
 21 23  1  0  0  0
 22 28  1  0  0  0
 22 32  2  0  0  0
 26 27  1  0  0  0
 28104  1  0  0  0
 28105  1  0  0  0
 29106  1  0  0  0
 29107  1  0  0  0
 33 34  1  0  0  0
 33 66  1  0  0  0
 33 70  2  0  0  0
 34 36  1  0  0  0
 34 59  1  0  0  0
 34108  1  0  0  0
 35 44  2  0  0  0
 35 45  1  0  0  0
 35 68  1  0  0  0
 36 56  1  0  0  0
 36109  1  0  0  0
 37 39  1  0  0  0
 37 47  1  0  0  0
 37 66  1  0  0  0
 37110  1  0  0  0
 38 43  2  0  0  0
 38 46  1  0  0  0
 38 47  1  0  0  0
 39 64  1  0  0  0
 39 67  2  0  0  0
 40 52  1  0  0  0
 40 53  2  0  0  0
 40 58  1  0  0  0
 41111  1  0  0  0
 41112  1  0  0  0
 41113  1  0  0  0
 41 48  1  0  0  0
 42 43  1  0  0  0
 42 66  1  0  0  0
 42114  1  0  0  0
 42115  1  0  0  0
 43 44  1  0  0  0
 44116  1  0  0  0
 45 46  2  0  0  0
 45117  1  0  0  0
 46118  1  0  0  0
 47119  1  0  0  0
 47120  1  0  0  0
 48 56  1  0  0  0
 48 65  1  0  0  0
 48121  1  0  0  0
 49 50  1  0  0  0
 49 53  1  0  0  0
 49 64  1  0  0  0
 49122  1  0  0  0
 50 51  1  0  0  0
 50123  1  0  0  0
 50124  1  0  0  0
 51 52  1  0  0  0
 51125  1  0  0  0
 51126  1  0  0  0
 52127  1  0  0  0
 52128  1  0  0  0
 53 54  1  0  0  0
 54 55  2  0  0  0
 54129  1  0  0  0
 55 57  1  0  0  0
 55130  1  0  0  0
 56 69  2  0  0  0
 57 58  2  0  0  0
 57131  1  0  0  0
 58132  1  0  0  0
 59 60  1  0  0  0
 59 61  1  0  0  0
 59 62  1  0  0  0
 60133  1  0  0  0
 60134  1  0  0  0
 60135  1  0  0  0
 61136  1  0  0  0
 61137  1  0  0  0
 61138  1  0  0  0
 62139  1  0  0  0
 62140  1  0  0  0
 62141  1  0  0  0
 63 65  1  0  0  0
 63142  1  0  0  0
 63143  1  0  0  0
 63144  1  0  0  0
 64145  1  0  0  0
 65146  1  0  0  0
 68 80  1  0  0  0
 71 73  2  0  0  0
 71 75  1  0  0  0
 71147  1  0  0  0
 72 74  1  0  0  0
 72 75  2  0  0  0
 72148  1  0  0  0
 73 76  1  0  0  0
 73 79  1  0  0  0
 74 76  2  0  0  0
 74 83  1  0  0  0
 75 86  1  0  0  0
 76 87  1  0  0  0
 77 80  1  0  0  0
 77 82  1  0  0  0
 77 85  2  0  0  0
 78 81  1  0  0  0
 78149  1  0  0  0
 78150  1  0  0  0
 78151  1  0  0  0
 79 84  1  0  0  0
 79152  1  0  0  0
 79153  1  0  0  0
 80154  1  0  0  0
 80155  1  0  0  0
 81156  1  0  0  0
 81157  1  0  0  0
 81 82  1  0  0  0
 82 83  1  0  0  0
 82158  1  0  0  0
 83159  1  0  0  0
 84160  1  0  0  0
M  ISO  4   1 100  68 101  80 101  84 100
M  END
> <chiral flag>
0

> <version>
0

> <s_m_source_file>
/data/baiqing/PycharmProjects/Reinvent-master-3.2/result/LINK_invent/BTK/process_docking_weight1_custom_product_contain_oxygen_bond_distance_aromatic_linkinvent_7_9_3/rearranged_h_0173.sdf

> <i_m_source_file_index>
48

> <r_mmod_Potential_Energy-OPLS-2005>
-27.7658004760742

> <r_mmod_Stretch_Energy-OPLS-2005>
40.6517181396484

> <r_mmod_Bend_Energy-OPLS-2005>
104.538513183594

> <r_mmod_Torsional_Energy-OPLS-2005>
223.761993408203

> <r_mmod_Improper_Torsional_Energy-OPLS-2005>
7.38255405426025

> <r_mmod_Van_der_Waal_Energy-OPLS-2005>
149.005279541016

> <r_mmod_Electrostatic_Energy-OPLS-2005>
-349.656860351562

> <r_mmod_Solvation_Energy-OPLS-2005>
-218.10546875

> <b_mmod_Minimization_Converged-OPLS-2005>
0

> <r_mmod_RMS_Derivative-OPLS-2005>
1.28970205783844

$$$$
48
                    3D
 Structure written by MMmdl.
162170  0  0  1  0            999 V2000
  -30.7572  -14.4883   20.5437 C   0  0  0  0  0  0
  -30.4126  -12.3119   19.4389 C   0  0  0  0  0  0
  -29.4980  -12.4985   18.2126 C   0  0  0  0  0  0
  -28.0198  -12.3608   18.6241 C   0  0  0  0  0  0
  -27.6592  -13.2197   19.8663 C   0  0  2  0  0  0
  -28.7047  -13.0619   20.9957 C   0  0  0  0  0  0
  -25.2586  -13.8188   20.5665 C   0  0  0  0  0  0
  -24.1850  -13.0452   20.9156 C   0  0  0  0  0  0
  -24.6428  -11.6929   20.8727 C   0  0  0  0  0  0
  -23.9093  -10.4304   21.0395 C   0  0  0  0  0  0
  -24.3631   -9.4223   21.9183 C   0  0  0  0  0  0
  -23.6298   -8.2265   22.0771 C   0  0  0  0  0  0
  -22.4289   -8.0293   21.3546 C   0  0  0  0  0  0
  -21.9922   -9.0266   20.4645 C   0  0  0  0  0  0
  -22.7264  -10.2136   20.3044 C   0  0  0  0  0  0
  -21.6853   -6.0732   22.5283 C   0  0  0  0  0  0
  -21.4007   -6.5636   23.8207 C   0  0  0  0  0  0
  -21.3647   -5.6796   24.9175 C   0  0  0  0  0  0
  -21.6048   -4.3060   24.7223 C   0  0  0  0  0  0
  -21.8823   -3.8148   23.4343 C   0  0  0  0  0  0
  -21.9199   -4.6965   22.3402 C   0  0  0  0  0  0
  -22.7864  -13.5245   21.1805 C   0  0  0  0  0  0
  -22.1672   -4.2147   21.0979 F   0  0  0  0  0  0
  -21.5626   -3.4540   25.7729 F   0  0  0  0  0  0
  -30.0364  -13.3351   20.4311 N   0  0  0  0  0  0
  -26.3031  -12.9383   20.3343 N   0  0  0  0  0  0
  -25.9360  -11.6536   20.5760 N   0  0  0  0  0  0
  -22.0483  -12.8238   22.0342 N   0  0  0  0  0  0
  -25.4294  -15.1904   20.4078 N   0  0  0  0  0  0
  -31.8910  -14.5769   20.0711 O   0  0  0  0  0  0
  -21.6657   -6.8880   21.4248 O   0  0  0  0  0  0
  -22.3555  -14.5555   20.6662 O   0  0  0  0  0  0
  -24.6166  -31.8642   23.2075 C   0  0  0  0  0  0
  -25.9030  -32.4798   23.8391 C   0  0  1  0  0  0
  -27.2285  -27.4032   20.0978 C   0  0  0  0  0  0
  -25.5851  -33.8602   24.2302 N   0  0  0  0  0  0
  -23.4061  -30.4901   21.5482 C   0  0  2  0  0  0
  -24.8517  -28.9610   20.1109 C   0  0  0  0  0  0
  -22.7437  -29.4626   22.4968 C   0  0  0  0  0  0
  -18.0246  -28.1408   22.8526 C   0  0  0  0  0  0
  -24.1447  -36.7290   23.2648 C   0  0  0  0  0  0
  -25.9392  -30.8264   21.3604 C   0  0  0  0  0  0
  -26.0160  -29.4579   20.7083 C   0  0  0  0  0  0
  -27.2071  -28.6872   20.7003 C   0  0  0  0  0  0
  -26.0398  -26.9425   19.4752 C   0  0  0  0  0  0
  -24.8575  -27.7024   19.4922 C   0  0  0  0  0  0
  -23.6151  -29.8301   20.1611 C   0  0  0  0  0  0
  -25.4081  -36.3098   24.0342 C   0  0  1  0  0  0
  -20.5853  -28.3654   23.1314 C   0  0  2  0  0  0
  -20.6729  -26.9385   22.5413 C   0  0  0  0  0  0
  -19.5687  -26.6403   21.5223 C   0  0  0  0  0  0
  -18.1871  -26.7958   22.1643 C   0  0  0  0  0  0
  -19.1510  -28.8863   23.2911 C   0  0  0  0  0  0
  -18.9454  -30.1482   23.8895 C   0  0  0  0  0  0
  -17.6462  -30.6625   24.0603 C   0  0  0  0  0  0
  -25.9024  -34.9462   23.5135 C   0  0  0  0  0  0
  -16.5341  -29.9128   23.6380 C   0  0  0  0  0  0
  -16.7248  -28.6550   23.0394 C   0  0  0  0  0  0
  -26.4423  -31.6620   25.0752 C   0  0  0  0  0  0
  -25.3664  -31.3763   26.1489 C   0  0  0  0  0  0
  -27.0260  -30.3062   24.6135 C   0  0  0  0  0  0
  -27.5965  -32.4372   25.7527 C   0  0  0  0  0  0
  -27.5548  -37.1819   24.8476 C   0  0  0  0  0  0
  -21.4156  -29.3012   22.3735 N   0  0  0  0  0  0
  -26.4253  -37.3801   23.9420 N   0  0  0  0  0  0
  -24.6728  -31.0757   22.0960 N   0  0  0  0  0  0
  -23.4223  -28.8196   23.3036 O   0  0  0  0  0  0
  -28.3785  -26.6231   20.1438 O   0  0  0  0  0  0
  -26.5625  -34.8927   22.4703 O   0  0  0  0  0  0
  -23.5346  -32.1383   23.7450 O   0  0  0  0  0  0
  -31.9131  -17.3534   20.9736 C   0  0  0  0  0  0
  -32.2398  -18.7193   20.9208 C   0  0  0  0  0  0
  -30.5586  -16.9471   21.0403 C   0  0  0  0  0  0
  -29.5944  -17.9821   21.1141 C   0  0  0  0  0  0
  -30.0240  -19.3432   21.0555 C   0  0  0  0  0  0
  -29.0923  -20.4993   21.1484 C   0  0  0  0  0  0
  -28.7882  -23.1917   22.7915 C   0  0  0  0  0  0
  -29.2658  -24.2908   20.5428 C   0  0  0  0  0  0
  -27.6367  -23.8996   24.9883 C   0  0  0  0  0  0
  -27.5221  -23.7394   23.4590 C   0  0  0  0  0  0
  -28.1844  -25.2029   19.9160 C   0  0  0  0  0  0
  -28.7548  -23.0127   21.2674 C   0  0  1  0  0  0
  -31.3221  -19.7065   20.9535 N   0  0  0  0  0  0
  -30.1235  -15.5694   21.0564 N   0  0  0  0  0  0
  -29.5125  -21.7740   20.9330 N   0  0  0  0  0  0
  -27.8108  -20.2595   21.4690 N   0  3  0  0  0  0
  -29.7706  -22.8872   23.4781 O   0  0  0  0  0  0
  -30.4637  -24.5752   20.4350 O   0  0  0  0  0  0
  -28.2814  -17.6592   21.2443 F   0  0  0  0  0  0
  -31.4616  -12.3668   19.1372 H   0  0  0  0  0  0
  -30.2824  -11.3139   19.8616 H   0  0  0  0  0  0
  -29.7439  -11.7643   17.4433 H   0  0  0  0  0  0
  -29.6706  -13.4792   17.7666 H   0  0  0  0  0  0
  -27.8366  -11.3067   18.8351 H   0  0  0  0  0  0
  -27.3699  -12.6185   17.7875 H   0  0  0  0  0  0
  -27.6869  -14.2596   19.5386 H   0  0  0  0  0  0
  -28.6797  -12.0508   21.4028 H   0  0  0  0  0  0
  -28.4699  -13.7225   21.8321 H   0  0  0  0  0  0
  -25.2762   -9.5689   22.4769 H   0  0  0  0  0  0
  -23.9995   -7.4649   22.7494 H   0  0  0  0  0  0
  -21.0857   -8.8763   19.8941 H   0  0  0  0  0  0
  -22.3716  -10.9663   19.6134 H   0  0  0  0  0  0
  -21.2000   -7.6145   23.9699 H   0  0  0  0  0  0
  -21.1460   -6.0528   25.9065 H   0  0  0  0  0  0
  -22.0610   -2.7617   23.2846 H   0  0  0  0  0  0
  -22.4071  -11.9880   22.4705 H   0  0  0  0  0  0
  -21.1107  -13.1276   22.2528 H   0  0  0  0  0  0
  -24.6595  -15.8418   20.5096 H   0  0  0  0  0  0
  -26.2913  -15.6351   20.1182 H   0  0  0  0  0  0
  -26.7129  -32.5508   23.1197 H   0  0  0  0  0  0
  -24.9948  -33.9766   25.0413 H   0  0  0  0  0  0
  -22.6938  -31.3078   21.4133 H   0  0  0  0  0  0
  -23.3709  -35.9617   23.3326 H   0  0  0  0  0  0
  -24.3558  -36.8876   22.2057 H   0  0  0  0  0  0
  -23.7177  -37.6491   23.6667 H   0  0  0  0  0  0
  -26.0544  -31.5927   20.5921 H   0  0  0  0  0  0
  -26.8269  -30.8778   21.9783 H   0  0  0  0  0  0
  -28.1030  -29.0648   21.1758 H   0  0  0  0  0  0
  -25.9909  -25.9918   18.9661 H   0  0  0  0  0  0
  -23.9609  -27.3222   19.0219 H   0  0  0  0  0  0
  -23.7329  -30.6059   19.4040 H   0  0  0  0  0  0
  -22.7351  -29.2576   19.8621 H   0  0  0  0  0  0
  -25.1258  -36.1941   25.0835 H   0  0  0  0  0  0
  -20.9973  -28.3188   24.1424 H   0  0  0  0  0  0
  -20.5632  -26.2252   23.3594 H   0  0  0  0  0  0
  -21.6596  -26.7417   22.1202 H   0  0  0  0  0  0
  -19.6790  -25.6318   21.1231 H   0  0  0  0  0  0
  -19.6619  -27.3260   20.6789 H   0  0  0  0  0  0
  -17.4152  -26.6755   21.4025 H   0  0  0  0  0  0
  -18.0236  -26.0099   22.9032 H   0  0  0  0  0  0
  -19.7919  -30.7335   24.2226 H   0  0  0  0  0  0
  -17.5013  -31.6304   24.5214 H   0  0  0  0  0  0
  -15.5354  -30.3050   23.7710 H   0  0  0  0  0  0
  -15.8633  -28.0909   22.7072 H   0  0  0  0  0  0
  -24.5782  -30.7163   25.7858 H   0  0  0  0  0  0
  -24.8913  -32.2937   26.4966 H   0  0  0  0  0  0
  -25.7975  -30.8922   27.0248 H   0  0  0  0  0  0
  -26.2837  -29.6846   24.1112 H   0  0  0  0  0  0
  -27.3943  -29.7269   25.4607 H   0  0  0  0  0  0
  -27.8698  -30.4404   23.9360 H   0  0  0  0  0  0
  -27.2555  -33.3670   26.2092 H   0  0  0  0  0  0
  -28.3777  -32.6935   25.0370 H   0  0  0  0  0  0
  -28.0625  -31.8512   26.5455 H   0  0  0  0  0  0
  -28.2605  -38.0092   24.7547 H   0  0  0  0  0  0
  -28.1004  -36.2630   24.6274 H   0  0  0  0  0  0
  -27.2309  -37.1457   25.8899 H   0  0  0  0  0  0
  -20.9313  -29.8814   21.7021 H   0  0  0  0  0  0
  -26.0102  -38.2842   24.1486 H   0  0  0  0  0  0
  -32.7272  -16.6432   20.9502 H   0  0  0  0  0  0
  -33.2700  -19.0337   20.8522 H   0  0  0  0  0  0
  -26.6544  -24.0566   25.4355 H   0  0  0  0  0  0
  -28.2619  -24.7534   25.2533 H   0  0  0  0  0  0
  -28.0640  -23.0135   25.4618 H   0  0  0  0  0  0
  -26.7058  -23.0512   23.2385 H   0  0  0  0  0  0
  -27.2651  -24.6952   23.0020 H   0  0  0  0  0  0
  -27.2312  -24.8789   20.3302 H   0  0  0  0  0  0
  -28.1523  -25.0110   18.8421 H   0  0  0  0  0  0
  -27.7228  -22.8474   20.9607 H   0  0  0  0  0  0
  -29.1632  -15.4207   21.3231 H   0  0  0  0  0  0
  -30.4984  -21.8725   20.7250 H   0  0  0  0  0  0
  -27.5792  -19.2782   21.5881 H   0  0  0  0  0  0
  -27.0641  -20.9235   21.3780 H   0  0  0  0  0  0
  1 25  1  0  0  0
  1 30  2  0  0  0
  1 84  1  0  0  0
  2  3  1  0  0  0
  2 25  1  0  0  0
  2 90  1  0  0  0
  2 91  1  0  0  0
  3  4  1  0  0  0
  3 92  1  0  0  0
  3 93  1  0  0  0
  4  5  1  0  0  0
  4 94  1  0  0  0
  4 95  1  0  0  0
  5  6  1  0  0  0
  5 26  1  0  0  0
  5 96  1  0  0  0
  6 25  1  0  0  0
  6 97  1  0  0  0
  6 98  1  0  0  0
  7  8  2  0  0  0
  7 26  1  0  0  0
  7 29  1  0  0  0
  8  9  1  0  0  0
  8 22  1  0  0  0
  9 10  1  0  0  0
  9 27  2  0  0  0
 10 11  2  0  0  0
 10 15  1  0  0  0
 11 12  1  0  0  0
 11 99  1  0  0  0
 12 13  2  0  0  0
 12100  1  0  0  0
 13 14  1  0  0  0
 13 31  1  0  0  0
 14 15  2  0  0  0
 14101  1  0  0  0
 15102  1  0  0  0
 16 17  2  0  0  0
 16 21  1  0  0  0
 16 31  1  0  0  0
 17 18  1  0  0  0
 17103  1  0  0  0
 18 19  2  0  0  0
 18104  1  0  0  0
 19 20  1  0  0  0
 19 24  1  0  0  0
 20 21  2  0  0  0
 20105  1  0  0  0
 21 23  1  0  0  0
 22 28  1  0  0  0
 22 32  2  0  0  0
 26 27  1  0  0  0
 28106  1  0  0  0
 28107  1  0  0  0
 29108  1  0  0  0
 29109  1  0  0  0
 33 34  1  0  0  0
 33 66  1  0  0  0
 33 70  2  0  0  0
 34 36  1  0  0  0
 34 59  1  0  0  0
 34110  1  0  0  0
 35 44  2  0  0  0
 35 45  1  0  0  0
 35 68  1  0  0  0
 36 56  1  0  0  0
 36111  1  0  0  0
 37 39  1  0  0  0
 37 47  1  0  0  0
 37 66  1  0  0  0
 37112  1  0  0  0
 38 43  2  0  0  0
 38 46  1  0  0  0
 38 47  1  0  0  0
 39 64  1  0  0  0
 39 67  2  0  0  0
 40 52  1  0  0  0
 40 53  2  0  0  0
 40 58  1  0  0  0
 41113  1  0  0  0
 41114  1  0  0  0
 41115  1  0  0  0
 41 48  1  0  0  0
 42 43  1  0  0  0
 42 66  1  0  0  0
 42116  1  0  0  0
 42117  1  0  0  0
 43 44  1  0  0  0
 44118  1  0  0  0
 45 46  2  0  0  0
 45119  1  0  0  0
 46120  1  0  0  0
 47121  1  0  0  0
 47122  1  0  0  0
 48 56  1  0  0  0
 48 65  1  0  0  0
 48123  1  0  0  0
 49 50  1  0  0  0
 49 53  1  0  0  0
 49 64  1  0  0  0
 49124  1  0  0  0
 50 51  1  0  0  0
 50125  1  0  0  0
 50126  1  0  0  0
 51 52  1  0  0  0
 51127  1  0  0  0
 51128  1  0  0  0
 52129  1  0  0  0
 52130  1  0  0  0
 53 54  1  0  0  0
 54 55  2  0  0  0
 54131  1  0  0  0
 55 57  1  0  0  0
 55132  1  0  0  0
 56 69  2  0  0  0
 57 58  2  0  0  0
 57133  1  0  0  0
 58134  1  0  0  0
 59 60  1  0  0  0
 59 61  1  0  0  0
 59 62  1  0  0  0
 60135  1  0  0  0
 60136  1  0  0  0
 60137  1  0  0  0
 61138  1  0  0  0
 61139  1  0  0  0
 61140  1  0  0  0
 62141  1  0  0  0
 62142  1  0  0  0
 62143  1  0  0  0
 63 65  1  0  0  0
 63144  1  0  0  0
 63145  1  0  0  0
 63146  1  0  0  0
 64147  1  0  0  0
 65148  1  0  0  0
 68 81  1  0  0  0
 71 72  2  0  0  0
 71 73  1  0  0  0
 71149  1  0  0  0
 72 83  1  0  0  0
 72150  1  0  0  0
 73 74  2  0  0  0
 73 84  1  0  0  0
 74 75  1  0  0  0
 74 89  1  0  0  0
 75 76  1  0  0  0
 75 83  2  0  0  0
 76 85  1  0  0  0
 76 86  2  0  0  0
 77 80  1  0  0  0
 77 82  1  0  0  0
 77 87  2  0  0  0
 78 81  1  0  0  0
 78 82  1  0  0  0
 78 88  2  0  0  0
 79 80  1  0  0  0
 79151  1  0  0  0
 79152  1  0  0  0
 79153  1  0  0  0
 80154  1  0  0  0
 80155  1  0  0  0
 81156  1  0  0  0
 81157  1  0  0  0
 82 85  1  0  0  0
 82158  1  0  0  0
 84159  1  0  0  0
 85160  1  0  0  0
 86161  1  0  0  0
 86162  1  0  0  0
M  CHG  1  86   1
M  ISO  4   1 100  68 101  81 101  84 100
M  END
> <chiral flag>
0

> <version>
0

> <s_m_source_file>
/data/baiqing/PycharmProjects/Reinvent-master-3.2/result/LINK_invent/BTK/process_docking_weight1_custom_product_contain_oxygen_bond_distance_aromatic_linkinvent_7_9_3/rearranged_h_0173.sdf

> <i_m_source_file_index>
49

> <r_mmod_Potential_Energy-OPLS-2005>
-506.983581542969

> <r_mmod_Stretch_Energy-OPLS-2005>
47.7929992675781

> <r_mmod_Bend_Energy-OPLS-2005>
107.85334777832

> <r_mmod_Torsional_Energy-OPLS-2005>
241.214584350586

> <r_mmod_Improper_Torsional_Energy-OPLS-2005>
4.79785299301147

> <r_mmod_Van_der_Waal_Energy-OPLS-2005>
172.949142456055

> <r_mmod_Electrostatic_Energy-OPLS-2005>
-597.694274902344

> <r_mmod_Solvation_Energy-OPLS-2005>
-504.912658691406

> <b_mmod_Minimization_Converged-OPLS-2005>
0

> <r_mmod_RMS_Derivative-OPLS-2005>
3.94770789146423

$$$$
49
                    3D
 Structure written by MMmdl.
152160  0  0  1  0            999 V2000
  -30.6543  -14.5477   20.5470 C   0  0  0  0  0  0
  -30.4370  -12.3446   19.4311 C   0  0  0  0  0  0
  -29.5023  -12.5055   18.2120 C   0  0  0  0  0  0
  -28.0233  -12.3564   18.6240 C   0  0  0  0  0  0
  -27.6603  -13.2053   19.8707 C   0  0  2  0  0  0
  -28.7040  -13.0036   20.9932 C   0  0  0  0  0  0
  -25.2594  -13.8152   20.5674 C   0  0  0  0  0  0
  -24.1847  -13.0437   20.9187 C   0  0  0  0  0  0
  -24.6394  -11.6900   20.8738 C   0  0  0  0  0  0
  -23.9059  -10.4290   21.0407 C   0  0  0  0  0  0
  -24.3611   -9.4204   21.9182 C   0  0  0  0  0  0
  -23.6287   -8.2240   22.0752 C   0  0  0  0  0  0
  -22.4269   -8.0279   21.3545 C   0  0  0  0  0  0
  -21.9902   -9.0253   20.4648 C   0  0  0  0  0  0
  -22.7231  -10.2133   20.3057 C   0  0  0  0  0  0
  -21.6851   -6.0732   22.5280 C   0  0  0  0  0  0
  -21.4011   -6.5638   23.8211 C   0  0  0  0  0  0
  -21.3658   -5.6793   24.9172 C   0  0  0  0  0  0
  -21.6048   -4.3057   24.7224 C   0  0  0  0  0  0
  -21.8820   -3.8144   23.4346 C   0  0  0  0  0  0
  -21.9192   -4.6962   22.3400 C   0  0  0  0  0  0
  -22.7871  -13.5240   21.1850 C   0  0  0  0  0  0
  -22.1664   -4.2147   21.0979 F   0  0  0  0  0  0
  -21.5628   -3.4538   25.7735 F   0  0  0  0  0  0
  -30.0292  -13.3368   20.4410 N   0  0  0  0  0  0
  -26.3017  -12.9312   20.3333 N   0  0  0  0  0  0
  -25.9319  -11.6480   20.5759 N   0  0  0  0  0  0
  -22.0505  -12.8233   22.0401 N   0  0  0  0  0  0
  -25.4333  -15.1869   20.4062 N   0  0  0  0  0  0
  -31.8008  -14.7264   20.1209 O   0  0  0  0  0  0
  -21.6639   -6.8873   21.4240 O   0  0  0  0  0  0
  -22.3564  -14.5546   20.6696 O   0  0  0  0  0  0
  -24.6198  -31.8658   23.2070 C   0  0  0  0  0  0
  -25.9068  -32.4816   23.8387 C   0  0  1  0  0  0
  -27.2343  -27.3880   20.0951 C   0  0  0  0  0  0
  -25.5892  -33.8610   24.2315 N   0  0  0  0  0  0
  -23.4107  -30.4896   21.5486 C   0  0  2  0  0  0
  -24.8573  -28.9525   20.1134 C   0  0  0  0  0  0
  -22.7442  -29.4652   22.4964 C   0  0  0  0  0  0
  -18.0275  -28.1393   22.8494 C   0  0  0  0  0  0
  -24.1477  -36.7311   23.2638 C   0  0  0  0  0  0
  -25.9466  -30.8171   21.3677 C   0  0  0  0  0  0
  -26.0229  -29.4486   20.7117 C   0  0  0  0  0  0
  -27.2133  -28.6736   20.6997 C   0  0  0  0  0  0
  -26.0372  -26.9162   19.5050 C   0  0  0  0  0  0
  -24.8612  -27.6870   19.5065 C   0  0  0  0  0  0
  -23.6221  -29.8252   20.1632 C   0  0  0  0  0  0
  -25.4102  -36.3106   24.0336 C   0  0  1  0  0  0
  -20.5874  -28.3686   23.1304 C   0  0  2  0  0  0
  -20.6763  -26.9418   22.5414 C   0  0  0  0  0  0
  -19.5736  -26.6394   21.5215 C   0  0  0  0  0  0
  -18.1916  -26.7938   22.1631 C   0  0  0  0  0  0
  -19.1529  -28.8853   23.2898 C   0  0  0  0  0  0
  -18.9456  -30.1453   23.8920 C   0  0  0  0  0  0
  -17.6457  -30.6596   24.0564 C   0  0  0  0  0  0
  -25.9036  -34.9472   23.5130 C   0  0  0  0  0  0
  -16.5346  -29.9100   23.6325 C   0  0  0  0  0  0
  -16.7263  -28.6514   23.0356 C   0  0  0  0  0  0
  -26.4477  -31.6602   25.0729 C   0  0  0  0  0  0
  -25.3731  -31.3726   26.1474 C   0  0  0  0  0  0
  -27.0302  -30.3029   24.6142 C   0  0  0  0  0  0
  -27.6051  -32.4321   25.7490 C   0  0  0  0  0  0
  -27.5579  -37.1810   24.8465 C   0  0  0  0  0  0
  -21.4163  -29.3044   22.3708 N   0  0  0  0  0  0
  -26.4289  -37.3791   23.9413 N   0  0  0  0  0  0
  -24.6780  -31.0719   22.0993 N   0  0  0  0  0  0
  -23.4194  -28.8191   23.3019 O   0  0  0  0  0  0
  -28.3687  -26.5812   20.1343 O   0  0  0  0  0  0
  -26.5611  -34.8927   22.4700 O   0  0  0  0  0  0
  -23.5376  -32.1429   23.7430 O   0  0  0  0  0  0
  -28.7823  -19.1022   21.3793 C   0  0  0  0  0  0
  -28.7932  -17.6892   21.3288 C   0  0  0  0  0  0
  -29.9607  -19.8197   21.0978 C   0  0  0  0  0  0
  -29.9687  -16.9823   20.9855 C   0  0  0  0  0  0
  -31.0914  -19.0446   20.7456 C   0  0  0  0  0  0
  -28.5228  -25.6167   19.1513 C   0  0  0  0  0  0
  -28.8709  -24.3007   19.2689 C   0  0  0  0  0  0
  -29.1950  -23.6012   20.5284 C   0  0  0  0  0  0
  -30.0494  -21.3520   21.3403 C   0  0  0  0  0  0
  -31.0894  -17.6842   20.6830 N   0  0  0  0  0  0
  -29.8599  -15.5457   21.0144 N   0  0  0  0  0  0
  -29.4518  -22.2777   20.3498 N   0  0  0  0  0  0
  -29.2744  -24.1325   21.6375 O   0  0  0  0  0  0
  -28.9264  -23.5787   18.1344 O   0  0  0  0  0  0
  -32.2610  -19.6715   20.4802 F   0  0  0  0  0  0
  -31.4783  -12.4645   19.1265 H   0  0  0  0  0  0
  -30.3617  -11.3367   19.8425 H   0  0  0  0  0  0
  -29.7512  -11.7680   17.4476 H   0  0  0  0  0  0
  -29.6587  -13.4838   17.7543 H   0  0  0  0  0  0
  -27.8437  -11.3010   18.8313 H   0  0  0  0  0  0
  -27.3711  -12.6154   17.7894 H   0  0  0  0  0  0
  -27.6959  -14.2492   19.5583 H   0  0  0  0  0  0
  -28.6980  -11.9668   21.3338 H   0  0  0  0  0  0
  -28.4556  -13.5975   21.8740 H   0  0  0  0  0  0
  -25.2757   -9.5682   22.4756 H   0  0  0  0  0  0
  -24.0000   -7.4631   22.7468 H   0  0  0  0  0  0
  -21.0833   -8.8774   19.8950 H   0  0  0  0  0  0
  -22.3692  -10.9675   19.6167 H   0  0  0  0  0  0
  -21.2006   -7.6146   23.9715 H   0  0  0  0  0  0
  -21.1479   -6.0520   25.9077 H   0  0  0  0  0  0
  -22.0601   -2.7606   23.2848 H   0  0  0  0  0  0
  -22.4114  -11.9895   22.4794 H   0  0  0  0  0  0
  -21.1125  -13.1271   22.2603 H   0  0  0  0  0  0
  -24.6604  -15.8373   20.4985 H   0  0  0  0  0  0
  -26.2669  -15.6176   20.0271 H   0  0  0  0  0  0
  -26.7142  -32.5516   23.1153 H   0  0  0  0  0  0
  -25.0016  -33.9758   25.0443 H   0  0  0  0  0  0
  -22.7014  -31.3078   21.4077 H   0  0  0  0  0  0
  -23.3736  -35.9644   23.3309 H   0  0  0  0  0  0
  -24.3569  -36.8913   22.2048 H   0  0  0  0  0  0
  -23.7228  -37.6517   23.6654 H   0  0  0  0  0  0
  -26.0666  -31.5827   20.5999 H   0  0  0  0  0  0
  -26.8328  -30.8691   21.9892 H   0  0  0  0  0  0
  -28.1121  -29.0486   21.1692 H   0  0  0  0  0  0
  -25.9904  -25.9354   19.0538 H   0  0  0  0  0  0
  -23.9627  -27.2948   19.0493 H   0  0  0  0  0  0
  -23.7359  -30.6016   19.4060 H   0  0  0  0  0  0
  -22.7442  -29.2499   19.8633 H   0  0  0  0  0  0
  -25.1275  -36.1976   25.0828 H   0  0  0  0  0  0
  -20.9970  -28.3264   24.1424 H   0  0  0  0  0  0
  -20.5662  -26.2302   23.3607 H   0  0  0  0  0  0
  -21.6635  -26.7452   22.1212 H   0  0  0  0  0  0
  -19.6895  -25.6308   21.1234 H   0  0  0  0  0  0
  -19.6663  -27.3214   20.6753 H   0  0  0  0  0  0
  -17.4176  -26.6674   21.4042 H   0  0  0  0  0  0
  -18.0323  -26.0084   22.9036 H   0  0  0  0  0  0
  -19.7930  -30.7257   24.2313 H   0  0  0  0  0  0
  -17.5011  -31.6278   24.5163 H   0  0  0  0  0  0
  -15.5350  -30.3010   23.7636 H   0  0  0  0  0  0
  -15.8661  -28.0832   22.7082 H   0  0  0  0  0  0
  -24.5888  -30.7093   25.7816 H   0  0  0  0  0  0
  -24.8944  -32.2883   26.4947 H   0  0  0  0  0  0
  -25.8064  -30.8871   27.0225 H   0  0  0  0  0  0
  -26.2859  -29.6795   24.1174 H   0  0  0  0  0  0
  -27.4020  -29.7265   25.4624 H   0  0  0  0  0  0
  -27.8717  -30.4321   23.9332 H   0  0  0  0  0  0
  -27.2685  -33.3624   26.2081 H   0  0  0  0  0  0
  -28.3860  -32.6876   25.0316 H   0  0  0  0  0  0
  -28.0728  -31.8437   26.5397 H   0  0  0  0  0  0
  -28.2610  -38.0096   24.7516 H   0  0  0  0  0  0
  -28.1059  -36.2632   24.6289 H   0  0  0  0  0  0
  -27.2298  -37.1458   25.8867 H   0  0  0  0  0  0
  -20.9332  -29.8771   21.6931 H   0  0  0  0  0  0
  -26.0177  -38.2864   24.1421 H   0  0  0  0  0  0
  -27.8849  -19.6235   21.6805 H   0  0  0  0  0  0
  -27.8849  -17.1584   21.5807 H   0  0  0  0  0  0
  -28.3141  -26.0474   18.1811 H   0  0  0  0  0  0
  -31.0984  -21.6289   21.4574 H   0  0  0  0  0  0
  -29.5977  -21.5474   22.3143 H   0  0  0  0  0  0
  -28.9665  -15.2062   21.3296 H   0  0  0  0  0  0
  -29.3600  -21.9632   19.3922 H   0  0  0  0  0  0
  -28.7012  -24.1551   17.4168 H   0  0  0  0  0  0
  1 25  1  0  0  0
  1 30  2  0  0  0
  1 81  1  0  0  0
  2  3  1  0  0  0
  2 25  1  0  0  0
  2 86  1  0  0  0
  2 87  1  0  0  0
  3  4  1  0  0  0
  3 88  1  0  0  0
  3 89  1  0  0  0
  4  5  1  0  0  0
  4 90  1  0  0  0
  4 91  1  0  0  0
  5  6  1  0  0  0
  5 26  1  0  0  0
  5 92  1  0  0  0
  6 25  1  0  0  0
  6 93  1  0  0  0
  6 94  1  0  0  0
  7  8  2  0  0  0
  7 26  1  0  0  0
  7 29  1  0  0  0
  8  9  1  0  0  0
  8 22  1  0  0  0
  9 10  1  0  0  0
  9 27  2  0  0  0
 10 11  2  0  0  0
 10 15  1  0  0  0
 11 12  1  0  0  0
 11 95  1  0  0  0
 12 13  2  0  0  0
 12 96  1  0  0  0
 13 14  1  0  0  0
 13 31  1  0  0  0
 14 15  2  0  0  0
 14 97  1  0  0  0
 15 98  1  0  0  0
 16 17  2  0  0  0
 16 21  1  0  0  0
 16 31  1  0  0  0
 17 18  1  0  0  0
 17 99  1  0  0  0
 18 19  2  0  0  0
 18100  1  0  0  0
 19 20  1  0  0  0
 19 24  1  0  0  0
 20 21  2  0  0  0
 20101  1  0  0  0
 21 23  1  0  0  0
 22 28  1  0  0  0
 22 32  2  0  0  0
 26 27  1  0  0  0
 28102  1  0  0  0
 28103  1  0  0  0
 29104  1  0  0  0
 29105  1  0  0  0
 33 34  1  0  0  0
 33 66  1  0  0  0
 33 70  2  0  0  0
 34 36  1  0  0  0
 34 59  1  0  0  0
 34106  1  0  0  0
 35 44  2  0  0  0
 35 45  1  0  0  0
 35 68  1  0  0  0
 36 56  1  0  0  0
 36107  1  0  0  0
 37 39  1  0  0  0
 37 47  1  0  0  0
 37 66  1  0  0  0
 37108  1  0  0  0
 38 43  2  0  0  0
 38 46  1  0  0  0
 38 47  1  0  0  0
 39 64  1  0  0  0
 39 67  2  0  0  0
 40 52  1  0  0  0
 40 53  2  0  0  0
 40 58  1  0  0  0
 41109  1  0  0  0
 41110  1  0  0  0
 41111  1  0  0  0
 41 48  1  0  0  0
 42 43  1  0  0  0
 42 66  1  0  0  0
 42112  1  0  0  0
 42113  1  0  0  0
 43 44  1  0  0  0
 44114  1  0  0  0
 45 46  2  0  0  0
 45115  1  0  0  0
 46116  1  0  0  0
 47117  1  0  0  0
 47118  1  0  0  0
 48 56  1  0  0  0
 48 65  1  0  0  0
 48119  1  0  0  0
 49 50  1  0  0  0
 49 53  1  0  0  0
 49 64  1  0  0  0
 49120  1  0  0  0
 50 51  1  0  0  0
 50121  1  0  0  0
 50122  1  0  0  0
 51 52  1  0  0  0
 51123  1  0  0  0
 51124  1  0  0  0
 52125  1  0  0  0
 52126  1  0  0  0
 53 54  1  0  0  0
 54 55  2  0  0  0
 54127  1  0  0  0
 55 57  1  0  0  0
 55128  1  0  0  0
 56 69  2  0  0  0
 57 58  2  0  0  0
 57129  1  0  0  0
 58130  1  0  0  0
 59 60  1  0  0  0
 59 61  1  0  0  0
 59 62  1  0  0  0
 60131  1  0  0  0
 60132  1  0  0  0
 60133  1  0  0  0
 61134  1  0  0  0
 61135  1  0  0  0
 61136  1  0  0  0
 62137  1  0  0  0
 62138  1  0  0  0
 62139  1  0  0  0
 63 65  1  0  0  0
 63140  1  0  0  0
 63141  1  0  0  0
 63142  1  0  0  0
 64143  1  0  0  0
 65144  1  0  0  0
 68 76  1  0  0  0
 71 72  2  0  0  0
 71 73  1  0  0  0
 71145  1  0  0  0
 72 74  1  0  0  0
 72146  1  0  0  0
 73 75  2  0  0  0
 73 79  1  0  0  0
 74 80  2  0  0  0
 74 81  1  0  0  0
 75 80  1  0  0  0
 75 85  1  0  0  0
 76 77  2  0  0  0
 76147  1  0  0  0
 77 78  1  0  0  0
 77 84  1  0  0  0
 78 82  1  0  0  0
 78 83  2  0  0  0
 79 82  1  0  0  0
 79148  1  0  0  0
 79149  1  0  0  0
 81150  1  0  0  0
 82151  1  0  0  0
 84152  1  0  0  0
M  ISO  4   1 100  68 101  76 101  81 100
M  END
> <chiral flag>
0

> <version>
0

> <s_m_source_file>
/data/baiqing/PycharmProjects/Reinvent-master-3.2/result/LINK_invent/BTK/process_docking_weight1_custom_product_contain_oxygen_bond_distance_aromatic_linkinvent_7_9_3/rearranged_h_0173.sdf

> <i_m_source_file_index>
50

> <r_mmod_Potential_Energy-OPLS-2005>
-225.09130859375

> <r_mmod_Stretch_Energy-OPLS-2005>
49.7317428588867

> <r_mmod_Bend_Energy-OPLS-2005>
124.85799407959

> <r_mmod_Torsional_Energy-OPLS-2005>
199.026885986328

> <r_mmod_Improper_Torsional_Energy-OPLS-2005>
5.05672311782837

> <r_mmod_Van_der_Waal_Energy-OPLS-2005>
158.395812988281

> <r_mmod_Electrostatic_Energy-OPLS-2005>
-523.207092285156

> <r_mmod_Solvation_Energy-OPLS-2005>
-263.050537109375

> <b_mmod_Minimization_Converged-OPLS-2005>
0

> <r_mmod_RMS_Derivative-OPLS-2005>
1.07150435447693

$$$$
50
                    3D
 Structure written by MMmdl.
158166  0  0  1  0            999 V2000
  -30.7252  -14.4446   20.6123 C   0  0  0  0  0  0
  -30.4191  -12.2964   19.4340 C   0  0  0  0  0  0
  -29.4971  -12.5100   18.2156 C   0  0  0  0  0  0
  -28.0176  -12.3717   18.6225 C   0  0  0  0  0  0
  -27.6643  -13.2079   19.8814 C   0  0  2  0  0  0
  -28.7016  -12.9830   21.0062 C   0  0  0  0  0  0
  -25.2589  -13.8155   20.5677 C   0  0  0  0  0  0
  -24.1829  -13.0436   20.9150 C   0  0  0  0  0  0
  -24.6391  -11.6906   20.8724 C   0  0  0  0  0  0
  -23.9058  -10.4293   21.0406 C   0  0  0  0  0  0
  -24.3606   -9.4204   21.9184 C   0  0  0  0  0  0
  -23.6274   -8.2248   22.0766 C   0  0  0  0  0  0
  -22.4259   -8.0288   21.3560 C   0  0  0  0  0  0
  -21.9891   -9.0262   20.4662 C   0  0  0  0  0  0
  -22.7227  -10.2135   20.3060 C   0  0  0  0  0  0
  -21.6850   -6.0732   22.5280 C   0  0  0  0  0  0
  -21.4017   -6.5636   23.8212 C   0  0  0  0  0  0
  -21.3659   -5.6789   24.9173 C   0  0  0  0  0  0
  -21.6041   -4.3051   24.7224 C   0  0  0  0  0  0
  -21.8814   -3.8148   23.4346 C   0  0  0  0  0  0
  -21.9187   -4.6963   22.3401 C   0  0  0  0  0  0
  -22.7855  -13.5254   21.1815 C   0  0  0  0  0  0
  -22.1659   -4.2144   21.0978 F   0  0  0  0  0  0
  -21.5620   -3.4538   25.7737 F   0  0  0  0  0  0
  -30.0430  -13.2731   20.4687 N   0  0  0  0  0  0
  -26.3034  -12.9337   20.3382 N   0  0  0  0  0  0
  -25.9319  -11.6492   20.5755 N   0  0  0  0  0  0
  -22.0485  -12.8274   22.0378 N   0  0  0  0  0  0
  -25.4306  -15.1874   20.4112 N   0  0  0  0  0  0
  -31.8076  -14.6534   20.0510 O   0  0  0  0  0  0
  -21.6638   -6.8876   21.4247 O   0  0  0  0  0  0
  -22.3556  -14.5560   20.6654 O   0  0  0  0  0  0
  -24.6161  -31.8673   23.2123 C   0  0  0  0  0  0
  -25.9053  -32.4820   23.8401 C   0  0  1  0  0  0
  -27.2276  -27.4217   20.0886 C   0  0  0  0  0  0
  -25.5903  -33.8621   24.2325 N   0  0  0  0  0  0
  -23.4038  -30.4936   21.5516 C   0  0  2  0  0  0
  -24.8464  -28.9622   20.1144 C   0  0  0  0  0  0
  -22.7415  -29.4665   22.4985 C   0  0  0  0  0  0
  -18.0275  -28.1377   22.8507 C   0  0  0  0  0  0
  -24.1479  -36.7324   23.2642 C   0  0  0  0  0  0
  -25.9345  -30.8280   21.3688 C   0  0  0  0  0  0
  -26.0096  -29.4634   20.7110 C   0  0  0  0  0  0
  -27.2023  -28.7010   20.6948 C   0  0  0  0  0  0
  -26.0400  -26.9443   19.4793 C   0  0  0  0  0  0
  -24.8565  -27.7011   19.4985 C   0  0  0  0  0  0
  -23.6109  -29.8312   20.1653 C   0  0  0  0  0  0
  -25.4101  -36.3111   24.0331 C   0  0  1  0  0  0
  -20.5868  -28.3670   23.1312 C   0  0  2  0  0  0
  -20.6752  -26.9408   22.5413 C   0  0  0  0  0  0
  -19.5728  -26.6386   21.5214 C   0  0  0  0  0  0
  -18.1911  -26.7926   22.1635 C   0  0  0  0  0  0
  -19.1519  -28.8841   23.2912 C   0  0  0  0  0  0
  -18.9453  -30.1452   23.8922 C   0  0  0  0  0  0
  -17.6448  -30.6586   24.0573 C   0  0  0  0  0  0
  -25.9026  -34.9478   23.5122 C   0  0  0  0  0  0
  -16.5340  -29.9090   23.6325 C   0  0  0  0  0  0
  -16.7262  -28.6505   23.0354 C   0  0  0  0  0  0
  -26.4476  -31.6615   25.0740 C   0  0  0  0  0  0
  -25.3737  -31.3717   26.1489 C   0  0  0  0  0  0
  -27.0325  -30.3063   24.6149 C   0  0  0  0  0  0
  -27.6066  -32.4339   25.7480 C   0  0  0  0  0  0
  -27.5573  -37.1814   24.8460 C   0  0  0  0  0  0
  -21.4137  -29.3047   22.3722 N   0  0  0  0  0  0
  -26.4286  -37.3793   23.9400 N   0  0  0  0  0  0
  -24.6698  -31.0771   22.1021 N   0  0  0  0  0  0
  -23.4181  -28.8201   23.3026 O   0  0  0  0  0  0
  -28.3935  -26.6760   20.1124 O   0  0  0  0  0  0
  -26.5600  -34.8925   22.4693 O   0  0  0  0  0  0
  -23.5360  -32.1433   23.7516 O   0  0  0  0  0  0
  -30.9056  -18.9325   22.1720 C   0  0  0  0  0  0
  -30.7451  -17.5399   22.3143 C   0  0  0  0  0  0
  -30.5827  -19.5466   20.9439 C   0  0  0  0  0  0
  -30.2755  -16.7775   21.2262 C   0  0  0  0  0  0
  -30.0792  -18.7143   19.9203 C   0  0  0  0  0  0
  -29.5757  -21.9219   20.5638 C   0  0  0  0  0  0
  -29.5077  -24.4587   20.1924 C   0  0  0  0  0  0
  -30.8739  -19.6014   17.8521 C   0  0  0  0  0  0
  -30.8317  -21.0542   20.7618 C   0  0  0  0  0  0
  -29.6617  -23.0714   19.5461 C   0  0  0  0  0  0
  -28.2692  -25.2762   19.7876 C   0  0  0  0  0  0
  -29.9188  -17.3852   20.0683 N   0  0  0  0  0  0
  -30.1499  -15.3734   21.3976 N   0  0  0  0  0  0
  -29.7333  -19.1867   18.6578 N   0  0  0  0  0  0
  -28.5308  -21.6820   21.1800 O   0  0  0  0  0  0
  -30.3575  -24.9074   20.9705 O   0  0  0  0  0  0
  -31.4656  -12.3808   19.1397 H   0  0  0  0  0  0
  -30.3070  -11.2834   19.8254 H   0  0  0  0  0  0
  -29.7339  -11.7882   17.4313 H   0  0  0  0  0  0
  -29.6706  -13.4973   17.7839 H   0  0  0  0  0  0
  -27.8246  -11.3149   18.8115 H   0  0  0  0  0  0
  -27.3709  -12.6554   17.7912 H   0  0  0  0  0  0
  -27.7123  -14.2569   19.5899 H   0  0  0  0  0  0
  -28.6663  -11.9474   21.3485 H   0  0  0  0  0  0
  -28.4510  -13.5808   21.8829 H   0  0  0  0  0  0
  -25.2750   -9.5665   22.4761 H   0  0  0  0  0  0
  -23.9971   -7.4639   22.7488 H   0  0  0  0  0  0
  -21.0815   -8.8784   19.8981 H   0  0  0  0  0  0
  -22.3684  -10.9672   19.6169 H   0  0  0  0  0  0
  -21.2028   -7.6149   23.9707 H   0  0  0  0  0  0
  -21.1480   -6.0529   25.9068 H   0  0  0  0  0  0
  -22.0594   -2.7612   23.2848 H   0  0  0  0  0  0
  -22.4092  -11.9949   22.4791 H   0  0  0  0  0  0
  -21.1117  -13.1352   22.2581 H   0  0  0  0  0  0
  -24.6647  -15.8428   20.5220 H   0  0  0  0  0  0
  -26.2887  -15.6302   20.1072 H   0  0  0  0  0  0
  -26.7129  -32.5511   23.1165 H   0  0  0  0  0  0
  -25.0010  -33.9779   25.0444 H   0  0  0  0  0  0
  -22.6948  -31.3131   21.4153 H   0  0  0  0  0  0
  -23.3718  -35.9678   23.3315 H   0  0  0  0  0  0
  -24.3577  -36.8940   22.2055 H   0  0  0  0  0  0
  -23.7262  -37.6543   23.6659 H   0  0  0  0  0  0
  -26.0527  -31.5974   20.6052 H   0  0  0  0  0  0
  -26.8210  -30.8759   21.9896 H   0  0  0  0  0  0
  -28.0993  -29.0852   21.1610 H   0  0  0  0  0  0
  -25.9964  -25.9867   18.9807 H   0  0  0  0  0  0
  -23.9605  -27.3127   19.0348 H   0  0  0  0  0  0
  -23.7237  -30.6081   19.4079 H   0  0  0  0  0  0
  -22.7319  -29.2565   19.8658 H   0  0  0  0  0  0
  -25.1279  -36.1971   25.0825 H   0  0  0  0  0  0
  -20.9969  -28.3231   24.1430 H   0  0  0  0  0  0
  -20.5642  -26.2287   23.3606 H   0  0  0  0  0  0
  -21.6620  -26.7432   22.1216 H   0  0  0  0  0  0
  -19.6879  -25.6301   21.1243 H   0  0  0  0  0  0
  -19.6651  -27.3195   20.6744 H   0  0  0  0  0  0
  -17.4174  -26.6695   21.4041 H   0  0  0  0  0  0
  -18.0308  -26.0058   22.9024 H   0  0  0  0  0  0
  -19.7924  -30.7276   24.2288 H   0  0  0  0  0  0
  -17.4999  -31.6262   24.5182 H   0  0  0  0  0  0
  -15.5344  -30.3001   23.7631 H   0  0  0  0  0  0
  -15.8665  -28.0833   22.7054 H   0  0  0  0  0  0
  -24.5903  -30.7080   25.7808 H   0  0  0  0  0  0
  -24.8921  -32.2865   26.4963 H   0  0  0  0  0  0
  -25.8081  -30.8858   27.0237 H   0  0  0  0  0  0
  -26.2881  -29.6809   24.1210 H   0  0  0  0  0  0
  -27.4089  -29.7336   25.4635 H   0  0  0  0  0  0
  -27.8717  -30.4379   23.9317 H   0  0  0  0  0  0
  -27.2704  -33.3637   26.2088 H   0  0  0  0  0  0
  -28.3845  -32.6919   25.0277 H   0  0  0  0  0  0
  -28.0773  -31.8448   26.5362 H   0  0  0  0  0  0
  -28.2600  -38.0096   24.7501 H   0  0  0  0  0  0
  -28.1060  -36.2640   24.6290 H   0  0  0  0  0  0
  -27.2302  -37.1482   25.8864 H   0  0  0  0  0  0
  -20.9291  -29.8801   21.6977 H   0  0  0  0  0  0
  -26.0173  -38.2872   24.1391 H   0  0  0  0  0  0
  -31.2978  -19.5163   22.9928 H   0  0  0  0  0  0
  -31.0149  -17.0656   23.2486 H   0  0  0  0  0  0
  -30.8193  -19.1302   16.8708 H   0  0  0  0  0  0
  -30.8676  -20.6812   17.7040 H   0  0  0  0  0  0
  -31.8267  -19.3174   18.3043 H   0  0  0  0  0  0
  -31.5085  -21.2044   19.9219 H   0  0  0  0  0  0
  -31.3585  -21.4346   21.6375 H   0  0  0  0  0  0
  -28.8850  -22.9262   18.7965 H   0  0  0  0  0  0
  -30.6166  -23.0337   19.0224 H   0  0  0  0  0  0
  -27.4143  -24.8401   20.3052 H   0  0  0  0  0  0
  -28.1056  -25.1589   18.7159 H   0  0  0  0  0  0
  -29.3784  -15.0636   21.9663 H   0  0  0  0  0  0
  -29.1703  -18.5015   18.1630 H   0  0  0  0  0  0
  1 25  1  0  0  0
  1 30  2  0  0  0
  1 83  1  0  0  0
  2  3  1  0  0  0
  2 25  1  0  0  0
  2 87  1  0  0  0
  2 88  1  0  0  0
  3  4  1  0  0  0
  3 89  1  0  0  0
  3 90  1  0  0  0
  4  5  1  0  0  0
  4 91  1  0  0  0
  4 92  1  0  0  0
  5  6  1  0  0  0
  5 26  1  0  0  0
  5 93  1  0  0  0
  6 25  1  0  0  0
  6 94  1  0  0  0
  6 95  1  0  0  0
  7  8  2  0  0  0
  7 26  1  0  0  0
  7 29  1  0  0  0
  8  9  1  0  0  0
  8 22  1  0  0  0
  9 10  1  0  0  0
  9 27  2  0  0  0
 10 11  2  0  0  0
 10 15  1  0  0  0
 11 12  1  0  0  0
 11 96  1  0  0  0
 12 13  2  0  0  0
 12 97  1  0  0  0
 13 14  1  0  0  0
 13 31  1  0  0  0
 14 15  2  0  0  0
 14 98  1  0  0  0
 15 99  1  0  0  0
 16 17  2  0  0  0
 16 21  1  0  0  0
 16 31  1  0  0  0
 17 18  1  0  0  0
 17100  1  0  0  0
 18 19  2  0  0  0
 18101  1  0  0  0
 19 20  1  0  0  0
 19 24  1  0  0  0
 20 21  2  0  0  0
 20102  1  0  0  0
 21 23  1  0  0  0
 22 28  1  0  0  0
 22 32  2  0  0  0
 26 27  1  0  0  0
 28103  1  0  0  0
 28104  1  0  0  0
 29105  1  0  0  0
 29106  1  0  0  0
 33 34  1  0  0  0
 33 66  1  0  0  0
 33 70  2  0  0  0
 34 36  1  0  0  0
 34 59  1  0  0  0
 34107  1  0  0  0
 35 44  2  0  0  0
 35 45  1  0  0  0
 35 68  1  0  0  0
 36 56  1  0  0  0
 36108  1  0  0  0
 37 39  1  0  0  0
 37 47  1  0  0  0
 37 66  1  0  0  0
 37109  1  0  0  0
 38 43  2  0  0  0
 38 46  1  0  0  0
 38 47  1  0  0  0
 39 64  1  0  0  0
 39 67  2  0  0  0
 40 52  1  0  0  0
 40 53  2  0  0  0
 40 58  1  0  0  0
 41110  1  0  0  0
 41111  1  0  0  0
 41112  1  0  0  0
 41 48  1  0  0  0
 42 43  1  0  0  0
 42 66  1  0  0  0
 42113  1  0  0  0
 42114  1  0  0  0
 43 44  1  0  0  0
 44115  1  0  0  0
 45 46  2  0  0  0
 45116  1  0  0  0
 46117  1  0  0  0
 47118  1  0  0  0
 47119  1  0  0  0
 48 56  1  0  0  0
 48 65  1  0  0  0
 48120  1  0  0  0
 49 50  1  0  0  0
 49 53  1  0  0  0
 49 64  1  0  0  0
 49121  1  0  0  0
 50 51  1  0  0  0
 50122  1  0  0  0
 50123  1  0  0  0
 51 52  1  0  0  0
 51124  1  0  0  0
 51125  1  0  0  0
 52126  1  0  0  0
 52127  1  0  0  0
 53 54  1  0  0  0
 54 55  2  0  0  0
 54128  1  0  0  0
 55 57  1  0  0  0
 55129  1  0  0  0
 56 69  2  0  0  0
 57 58  2  0  0  0
 57130  1  0  0  0
 58131  1  0  0  0
 59 60  1  0  0  0
 59 61  1  0  0  0
 59 62  1  0  0  0
 60132  1  0  0  0
 60133  1  0  0  0
 60134  1  0  0  0
 61135  1  0  0  0
 61136  1  0  0  0
 61137  1  0  0  0
 62138  1  0  0  0
 62139  1  0  0  0
 62140  1  0  0  0
 63 65  1  0  0  0
 63141  1  0  0  0
 63142  1  0  0  0
 63143  1  0  0  0
 64144  1  0  0  0
 65145  1  0  0  0
 68 81  1  0  0  0
 71 72  2  0  0  0
 71 73  1  0  0  0
 71146  1  0  0  0
 72 74  1  0  0  0
 72147  1  0  0  0
 73 75  2  0  0  0
 73 79  1  0  0  0
 74 82  2  0  0  0
 74 83  1  0  0  0
 75 82  1  0  0  0
 75 84  1  0  0  0
 76 79  1  0  0  0
 76 80  1  0  0  0
 76 85  2  0  0  0
 77 80  1  0  0  0
 77 81  1  0  0  0
 77 86  2  0  0  0
 78 84  1  0  0  0
 78148  1  0  0  0
 78149  1  0  0  0
 78150  1  0  0  0
 79151  1  0  0  0
 79152  1  0  0  0
 80153  1  0  0  0
 80154  1  0  0  0
 81155  1  0  0  0
 81156  1  0  0  0
 83157  1  0  0  0
 84158  1  0  0  0
M  ISO  4   1 100  68 101  81 101  83 100
M  END
> <chiral flag>
0

> <version>
0

> <s_m_source_file>
/data/baiqing/PycharmProjects/Reinvent-master-3.2/result/LINK_invent/BTK/process_docking_weight1_custom_product_contain_oxygen_bond_distance_aromatic_linkinvent_7_9_3/rearranged_h_0173.sdf

> <i_m_source_file_index>
51

> <r_mmod_Potential_Energy-OPLS-2005>
-374.408996582031

> <r_mmod_Stretch_Energy-OPLS-2005>
37.1879806518555

> <r_mmod_Bend_Energy-OPLS-2005>
98.1513137817383

> <r_mmod_Torsional_Energy-OPLS-2005>
247.92366027832

> <r_mmod_Improper_Torsional_Energy-OPLS-2005>
8.57587051391602

> <r_mmod_Van_der_Waal_Energy-OPLS-2005>
154.703826904297

> <r_mmod_Electrostatic_Energy-OPLS-2005>
-661.617431640625

> <r_mmod_Solvation_Energy-OPLS-2005>
-271.069274902344

> <b_mmod_Minimization_Converged-OPLS-2005>
0

> <r_mmod_RMS_Derivative-OPLS-2005>
2.22767806053162

$$$$
51
                    3D
 Structure written by MMmdl.
157165  0  0  1  0            999 V2000
  -30.7163  -14.5770   20.4391 C   0  0  0  0  0  0
  -30.4230  -12.3374   19.4617 C   0  0  0  0  0  0
  -29.5043  -12.4776   18.2272 C   0  0  0  0  0  0
  -28.0294  -12.3222   18.6466 C   0  0  0  0  0  0
  -27.6572  -13.2125   19.8640 C   0  0  2  0  0  0
  -28.7023  -13.1273   20.9969 C   0  0  0  0  0  0
  -25.2593  -13.8103   20.6038 C   0  0  0  0  0  0
  -24.1887  -13.0378   20.9468 C   0  0  0  0  0  0
  -24.6455  -11.6856   20.8845 C   0  0  0  0  0  0
  -23.9145  -10.4205   21.0440 C   0  0  0  0  0  0
  -24.3678   -9.4097   21.9230 C   0  0  0  0  0  0
  -23.6337   -8.2134   22.0756 C   0  0  0  0  0  0
  -22.4305   -8.0247   21.3563 C   0  0  0  0  0  0
  -21.9935   -9.0229   20.4674 C   0  0  0  0  0  0
  -22.7289  -10.2096   20.3091 C   0  0  0  0  0  0
  -21.6882   -6.0768   22.5291 C   0  0  0  0  0  0
  -21.3984   -6.5689   23.8210 C   0  0  0  0  0  0
  -21.3596   -5.6849   24.9186 C   0  0  0  0  0  0
  -21.6024   -4.3109   24.7257 C   0  0  0  0  0  0
  -21.8846   -3.8195   23.4390 C   0  0  0  0  0  0
  -21.9206   -4.6995   22.3434 C   0  0  0  0  0  0
  -22.7876  -13.5121   21.2060 C   0  0  0  0  0  0
  -22.1753   -4.2185   21.1028 F   0  0  0  0  0  0
  -21.5561   -3.4577   25.7768 F   0  0  0  0  0  0
  -30.0234  -13.3962   20.4129 N   0  0  0  0  0  0
  -26.3040  -12.9320   20.3412 N   0  0  0  0  0  0
  -25.9340  -11.6453   20.5642 N   0  0  0  0  0  0
  -22.0525  -12.8026   22.0512 N   0  0  0  0  0  0
  -25.4117  -15.1804   20.4762 N   0  0  0  0  0  0
  -31.9177  -14.6078   20.1829 O   0  0  0  0  0  0
  -21.6667   -6.8878   21.4246 O   0  0  0  0  0  0
  -22.3555  -14.5455   20.6932 O   0  0  0  0  0  0
  -24.6218  -31.8602   23.2249 C   0  0  0  0  0  0
  -25.9097  -32.4830   23.8507 C   0  0  1  0  0  0
  -27.2244  -27.3810   20.0832 C   0  0  0  0  0  0
  -25.5918  -33.8614   24.2458 N   0  0  0  0  0  0
  -23.4117  -30.5045   21.5562 C   0  0  2  0  0  0
  -24.8569  -28.9672   20.1034 C   0  0  0  0  0  0
  -22.7442  -29.4646   22.4878 C   0  0  0  0  0  0
  -18.0329  -28.1424   22.8546 C   0  0  0  0  0  0
  -24.1459  -36.7343   23.2657 C   0  0  0  0  0  0
  -25.9503  -30.8069   21.3884 C   0  0  0  0  0  0
  -26.0187  -29.4396   20.7229 C   0  0  0  0  0  0
  -27.2009  -28.6560   20.7142 C   0  0  0  0  0  0
  -26.0394  -26.9502   19.4417 C   0  0  0  0  0  0
  -24.8639  -27.7237   19.4553 C   0  0  0  0  0  0
  -23.6369  -29.8673   20.1581 C   0  0  0  0  0  0
  -25.4055  -36.3139   24.0417 C   0  0  1  0  0  0
  -20.5862  -28.3835   23.1462 C   0  0  2  0  0  0
  -20.6662  -26.9459   22.5798 C   0  0  0  0  0  0
  -19.5871  -26.6606   21.5346 C   0  0  0  0  0  0
  -18.2031  -26.7944   22.1698 C   0  0  0  0  0  0
  -19.1510  -28.8982   23.2965 C   0  0  0  0  0  0
  -18.9399  -30.1616   23.8896 C   0  0  0  0  0  0
  -17.6368  -30.6781   24.0446 C   0  0  0  0  0  0
  -25.9010  -34.9488   23.5270 C   0  0  0  0  0  0
  -16.5331  -29.9199   23.6149 C   0  0  0  0  0  0
  -16.7325  -28.6552   23.0213 C   0  0  0  0  0  0
  -26.4500  -31.6559   25.0809 C   0  0  0  0  0  0
  -25.3808  -31.3562   26.1628 C   0  0  0  0  0  0
  -27.0388  -30.3038   24.6146 C   0  0  0  0  0  0
  -27.6131  -32.4211   25.7496 C   0  0  0  0  0  0
  -27.5573  -37.1844   24.8483 C   0  0  0  0  0  0
  -21.4148  -29.3153   22.3728 N   0  0  0  0  0  0
  -26.4263  -37.3809   23.9442 N   0  0  0  0  0  0
  -24.6802  -31.0721   22.1173 N   0  0  0  0  0  0
  -23.4173  -28.8116   23.2879 O   0  0  0  0  0  0
  -28.3756  -26.5879   20.0997 O   0  0  0  0  0  0
  -26.5521  -34.8934   22.4804 O   0  0  0  0  0  0
  -23.5400  -32.1349   23.7595 O   0  0  0  0  0  0
  -27.9637  -18.3641   19.3334 C   0  0  0  0  0  0
  -29.3148  -18.1042   19.5168 C   0  0  0  0  0  0
  -29.2098  -20.3773   19.9933 C   0  0  0  0  0  0
  -26.8560  -17.5338   18.8437 C   0  0  0  0  0  0
  -29.3193  -24.1952   20.2000 C   0  0  0  0  0  0
  -28.8921  -22.7424   20.6255 C   0  0  0  0  0  0
  -25.4355  -18.1298   18.8530 C   0  0  0  0  0  0
  -31.4392  -16.9528   18.5713 C   0  0  0  0  0  0
  -28.1595  -25.1647   19.8277 C   0  0  0  0  0  0
  -30.0547  -16.7602   19.2707 C   0  0  2  0  0  0
  -30.0082  -19.2909   19.8907 N   0  0  0  0  0  0
  -29.6631  -21.7220   20.1544 N   0  0  0  0  0  0
  -30.0040  -15.7367   20.3889 N   0  0  0  0  0  0
  -27.0297  -16.3796   18.4429 O   0  0  0  0  0  0
  -30.5071  -24.5309   20.1081 O   0  0  0  0  0  0
  -27.9425  -22.5748   21.4034 O   0  0  0  0  0  0
  -27.5329  -20.0159   19.6831 S   0  0  0  0  0  0
  -31.4692  -12.4116   19.1620 H   0  0  0  0  0  0
  -30.3080  -11.3490   19.9195 H   0  0  0  0  0  0
  -29.7380  -11.7190   17.4797 H   0  0  0  0  0  0
  -29.6759  -13.4476   17.7514 H   0  0  0  0  0  0
  -27.8799  -11.2710   18.8908 H   0  0  0  0  0  0
  -27.3743  -12.5416   17.8073 H   0  0  0  0  0  0
  -27.6690  -14.2428   19.5248 H   0  0  0  0  0  0
  -28.6855  -12.1523   21.4793 H   0  0  0  0  0  0
  -28.4724  -13.8445   21.7857 H   0  0  0  0  0  0
  -25.2842   -9.5540   22.4837 H   0  0  0  0  0  0
  -24.0089   -7.4470   22.7431 H   0  0  0  0  0  0
  -21.0862   -8.8764   19.8985 H   0  0  0  0  0  0
  -22.3792  -10.9700   19.6216 H   0  0  0  0  0  0
  -21.2001   -7.6202   23.9730 H   0  0  0  0  0  0
  -21.1387   -6.0596   25.9092 H   0  0  0  0  0  0
  -22.0677   -2.7658   23.2910 H   0  0  0  0  0  0
  -22.4161  -11.9578   22.4679 H   0  0  0  0  0  0
  -21.1046  -13.0822   22.2707 H   0  0  0  0  0  0
  -24.5851  -15.7671   20.5262 H   0  0  0  0  0  0
  -26.1005  -15.5078   19.8036 H   0  0  0  0  0  0
  -26.7147  -32.5530   23.1248 H   0  0  0  0  0  0
  -25.0156  -33.9735   25.0666 H   0  0  0  0  0  0
  -22.6983  -31.3269   21.4342 H   0  0  0  0  0  0
  -23.3730  -35.9673   23.3302 H   0  0  0  0  0  0
  -24.3621  -36.8937   22.2079 H   0  0  0  0  0  0
  -23.7191  -37.6566   23.6627 H   0  0  0  0  0  0
  -26.0767  -31.5715   20.6192 H   0  0  0  0  0  0
  -26.8393  -30.8590   22.0052 H   0  0  0  0  0  0
  -28.0890  -29.0093   21.2129 H   0  0  0  0  0  0
  -25.9988  -26.0235   18.8915 H   0  0  0  0  0  0
  -23.9769  -27.3804   18.9434 H   0  0  0  0  0  0
  -23.8082  -30.6735   19.4392 H   0  0  0  0  0  0
  -22.7433  -29.3527   19.8028 H   0  0  0  0  0  0
  -25.1197  -36.2055   25.0904 H   0  0  0  0  0  0
  -21.0014  -28.3495   24.1572 H   0  0  0  0  0  0
  -20.5034  -26.2602   23.4134 H   0  0  0  0  0  0
  -21.6670  -26.6986   22.2196 H   0  0  0  0  0  0
  -19.7141  -25.6649   21.1090 H   0  0  0  0  0  0
  -19.6902  -27.3772   20.7190 H   0  0  0  0  0  0
  -17.4249  -26.6483   21.4169 H   0  0  0  0  0  0
  -18.0613  -26.0167   22.9203 H   0  0  0  0  0  0
  -19.7843  -30.7553   24.2073 H   0  0  0  0  0  0
  -17.4869  -31.6604   24.4728 H   0  0  0  0  0  0
  -15.5324  -30.3159   23.7116 H   0  0  0  0  0  0
  -15.8791  -28.0845   22.6840 H   0  0  0  0  0  0
  -24.6011  -30.6864   25.7983 H   0  0  0  0  0  0
  -24.8972  -32.2666   26.5185 H   0  0  0  0  0  0
  -25.8252  -30.8685   27.0332 H   0  0  0  0  0  0
  -26.2954  -29.6761   24.1236 H   0  0  0  0  0  0
  -27.4294  -29.7286   25.4549 H   0  0  0  0  0  0
  -27.8725  -30.4482   23.9275 H   0  0  0  0  0  0
  -27.2872  -33.3516   26.2153 H   0  0  0  0  0  0
  -28.3873  -32.6725   25.0228 H   0  0  0  0  0  0
  -28.0907  -31.8271   26.5318 H   0  0  0  0  0  0
  -28.2611  -38.0113   24.7511 H   0  0  0  0  0  0
  -28.1052  -36.2673   24.6284 H   0  0  0  0  0  0
  -27.2367  -37.1488   25.8910 H   0  0  0  0  0  0
  -20.9326  -29.9184   21.7204 H   0  0  0  0  0  0
  -26.0198  -38.2932   24.1341 H   0  0  0  0  0  0
  -24.6908  -17.3859   18.5745 H   0  0  0  0  0  0
  -25.3338  -18.9798   18.1697 H   0  0  0  0  0  0
  -25.1858  -18.5018   19.8489 H   0  0  0  0  0  0
  -32.2003  -17.3049   19.2705 H   0  0  0  0  0  0
  -31.4030  -17.6556   17.7312 H   0  0  0  0  0  0
  -31.8097  -16.0250   18.1238 H   0  0  0  0  0  0
  -27.9775  -25.0393   18.7609 H   0  0  0  0  0  0
  -27.2667  -24.8286   20.3572 H   0  0  0  0  0  0
  -29.4961  -16.2531   18.4818 H   0  0  0  0  0  0
  -30.5337  -21.9664   19.6976 H   0  0  0  0  0  0
  -29.5657  -16.0082   21.2790 H   0  0  0  0  0  0
  1 25  1  0  0  0
  1 30  2  0  0  0
  1 83  1  0  0  0
  2  3  1  0  0  0
  2 25  1  0  0  0
  2 88  1  0  0  0
  2 89  1  0  0  0
  3  4  1  0  0  0
  3 90  1  0  0  0
  3 91  1  0  0  0
  4  5  1  0  0  0
  4 92  1  0  0  0
  4 93  1  0  0  0
  5  6  1  0  0  0
  5 26  1  0  0  0
  5 94  1  0  0  0
  6 25  1  0  0  0
  6 95  1  0  0  0
  6 96  1  0  0  0
  7  8  2  0  0  0
  7 26  1  0  0  0
  7 29  1  0  0  0
  8  9  1  0  0  0
  8 22  1  0  0  0
  9 10  1  0  0  0
  9 27  2  0  0  0
 10 11  2  0  0  0
 10 15  1  0  0  0
 11 12  1  0  0  0
 11 97  1  0  0  0
 12 13  2  0  0  0
 12 98  1  0  0  0
 13 14  1  0  0  0
 13 31  1  0  0  0
 14 15  2  0  0  0
 14 99  1  0  0  0
 15100  1  0  0  0
 16 17  2  0  0  0
 16 21  1  0  0  0
 16 31  1  0  0  0
 17 18  1  0  0  0
 17101  1  0  0  0
 18 19  2  0  0  0
 18102  1  0  0  0
 19 20  1  0  0  0
 19 24  1  0  0  0
 20 21  2  0  0  0
 20103  1  0  0  0
 21 23  1  0  0  0
 22 28  1  0  0  0
 22 32  2  0  0  0
 26 27  1  0  0  0
 28104  1  0  0  0
 28105  1  0  0  0
 29106  1  0  0  0
 29107  1  0  0  0
 33 34  1  0  0  0
 33 66  1  0  0  0
 33 70  2  0  0  0
 34 36  1  0  0  0
 34 59  1  0  0  0
 34108  1  0  0  0
 35 44  2  0  0  0
 35 45  1  0  0  0
 35 68  1  0  0  0
 36 56  1  0  0  0
 36109  1  0  0  0
 37 39  1  0  0  0
 37 47  1  0  0  0
 37 66  1  0  0  0
 37110  1  0  0  0
 38 43  2  0  0  0
 38 46  1  0  0  0
 38 47  1  0  0  0
 39 64  1  0  0  0
 39 67  2  0  0  0
 40 52  1  0  0  0
 40 53  2  0  0  0
 40 58  1  0  0  0
 41111  1  0  0  0
 41112  1  0  0  0
 41113  1  0  0  0
 41 48  1  0  0  0
 42 43  1  0  0  0
 42 66  1  0  0  0
 42114  1  0  0  0
 42115  1  0  0  0
 43 44  1  0  0  0
 44116  1  0  0  0
 45 46  2  0  0  0
 45117  1  0  0  0
 46118  1  0  0  0
 47119  1  0  0  0
 47120  1  0  0  0
 48 56  1  0  0  0
 48 65  1  0  0  0
 48121  1  0  0  0
 49 50  1  0  0  0
 49 53  1  0  0  0
 49 64  1  0  0  0
 49122  1  0  0  0
 50 51  1  0  0  0
 50123  1  0  0  0
 50124  1  0  0  0
 51 52  1  0  0  0
 51125  1  0  0  0
 51126  1  0  0  0
 52127  1  0  0  0
 52128  1  0  0  0
 53 54  1  0  0  0
 54 55  2  0  0  0
 54129  1  0  0  0
 55 57  1  0  0  0
 55130  1  0  0  0
 56 69  2  0  0  0
 57 58  2  0  0  0
 57131  1  0  0  0
 58132  1  0  0  0
 59 60  1  0  0  0
 59 61  1  0  0  0
 59 62  1  0  0  0
 60133  1  0  0  0
 60134  1  0  0  0
 60135  1  0  0  0
 61136  1  0  0  0
 61137  1  0  0  0
 61138  1  0  0  0
 62139  1  0  0  0
 62140  1  0  0  0
 62141  1  0  0  0
 63 65  1  0  0  0
 63142  1  0  0  0
 63143  1  0  0  0
 63144  1  0  0  0
 64145  1  0  0  0
 65146  1  0  0  0
 68 79  1  0  0  0
 71 72  2  0  0  0
 71 74  1  0  0  0
 71 87  1  0  0  0
 72 80  1  0  0  0
 72 81  1  0  0  0
 73 81  2  0  0  0
 73 82  1  0  0  0
 73 87  1  0  0  0
 74 77  1  0  0  0
 74 84  2  0  0  0
 75 76  1  0  0  0
 75 79  1  0  0  0
 75 85  2  0  0  0
 76 82  1  0  0  0
 76 86  2  0  0  0
 77147  1  0  0  0
 77148  1  0  0  0
 77149  1  0  0  0
 78150  1  0  0  0
 78151  1  0  0  0
 78152  1  0  0  0
 78 80  1  0  0  0
 79153  1  0  0  0
 79154  1  0  0  0
 80 83  1  0  0  0
 80155  1  0  0  0
 82156  1  0  0  0
 83157  1  0  0  0
M  ISO  4   1 100  68 101  79 101  83 100
M  END
> <chiral flag>
0

> <version>
0

> <s_m_source_file>
/data/baiqing/PycharmProjects/Reinvent-master-3.2/result/LINK_invent/BTK/process_docking_weight1_custom_product_contain_oxygen_bond_distance_aromatic_linkinvent_7_9_3/rearranged_h_0173.sdf

> <i_m_source_file_index>
52

> <r_mmod_Potential_Energy-OPLS-2005>
-105.916404724121

> <r_mmod_Stretch_Energy-OPLS-2005>
65.3631362915039

> <r_mmod_Bend_Energy-OPLS-2005>
121.289939880371

> <r_mmod_Torsional_Energy-OPLS-2005>
296.320251464844

> <r_mmod_Improper_Torsional_Energy-OPLS-2005>
15.4168720245361

> <r_mmod_Van_der_Waal_Energy-OPLS-2005>
139.773635864258

> <r_mmod_Electrostatic_Energy-OPLS-2005>
-542.668579101562

> <r_mmod_Solvation_Energy-OPLS-2005>
-241.138580322266

> <b_mmod_Minimization_Converged-OPLS-2005>
0

> <r_mmod_RMS_Derivative-OPLS-2005>
13.2541408538818

$$$$
52
                    3D
 Structure written by MMmdl.
160168  0  0  1  0            999 V2000
  -30.6580  -14.4582   20.6052 C   0  0  0  0  0  0
  -30.4383  -12.3073   19.4094 C   0  0  0  0  0  0
  -29.5005  -12.5153   18.2033 C   0  0  0  0  0  0
  -28.0198  -12.3665   18.6118 C   0  0  0  0  0  0
  -27.6678  -13.1857   19.8807 C   0  0  2  0  0  0
  -28.7041  -12.9102   20.9918 C   0  0  0  0  0  0
  -25.2640  -13.8085   20.5601 C   0  0  0  0  0  0
  -24.1870  -13.0414   20.9153 C   0  0  0  0  0  0
  -24.6388  -11.6865   20.8743 C   0  0  0  0  0  0
  -23.9038  -10.4268   21.0419 C   0  0  0  0  0  0
  -24.3601   -9.4189   21.9201 C   0  0  0  0  0  0
  -23.6271   -8.2232   22.0782 C   0  0  0  0  0  0
  -22.4254   -8.0273   21.3575 C   0  0  0  0  0  0
  -21.9890   -9.0234   20.4680 C   0  0  0  0  0  0
  -22.7208  -10.2103   20.3074 C   0  0  0  0  0  0
  -21.6846   -6.0724   22.5282 C   0  0  0  0  0  0
  -21.4010   -6.5639   23.8203 C   0  0  0  0  0  0
  -21.3653   -5.6817   24.9185 C   0  0  0  0  0  0
  -21.6059   -4.3077   24.7257 C   0  0  0  0  0  0
  -21.8804   -3.8148   23.4375 C   0  0  0  0  0  0
  -21.9182   -4.6955   22.3421 C   0  0  0  0  0  0
  -22.7901  -13.5242   21.1838 C   0  0  0  0  0  0
  -22.1648   -4.2112   21.1008 F   0  0  0  0  0  0
  -21.5622   -3.4568   25.7777 F   0  0  0  0  0  0
  -30.0369  -13.2548   20.4594 N   0  0  0  0  0  0
  -26.3058  -12.9213   20.3351 N   0  0  0  0  0  0
  -25.9317  -11.6396   20.5782 N   0  0  0  0  0  0
  -22.0541  -12.8227   22.0375 N   0  0  0  0  0  0
  -25.4454  -15.1771   20.3854 N   0  0  0  0  0  0
  -31.7456  -14.7276   20.0835 O   0  0  0  0  0  0
  -21.6640   -6.8851   21.4239 O   0  0  0  0  0  0
  -22.3589  -14.5545   20.6681 O   0  0  0  0  0  0
  -24.6138  -31.8684   23.2109 C   0  0  0  0  0  0
  -25.9027  -32.4832   23.8426 C   0  0  1  0  0  0
  -27.2538  -27.4446   20.1000 C   0  0  0  0  0  0
  -25.5853  -33.8629   24.2352 N   0  0  0  0  0  0
  -23.4010  -30.4874   21.5505 C   0  0  2  0  0  0
  -24.8484  -28.9372   20.1291 C   0  0  0  0  0  0
  -22.7393  -29.4678   22.5035 C   0  0  0  0  0  0
  -18.0300  -28.1423   22.8475 C   0  0  0  0  0  0
  -24.1459  -36.7315   23.2650 C   0  0  0  0  0  0
  -25.9279  -30.8356   21.3598 C   0  0  0  0  0  0
  -26.0058  -29.4664   20.7131 C   0  0  0  0  0  0
  -27.2101  -28.7294   20.6900 C   0  0  0  0  0  0
  -26.0779  -26.9136   19.5308 C   0  0  0  0  0  0
  -24.8773  -27.6580   19.5383 C   0  0  0  0  0  0
  -23.6086  -29.8030   20.1716 C   0  0  0  0  0  0
  -25.4100  -36.3143   24.0349 C   0  0  1  0  0  0
  -20.5878  -28.3658   23.1316 C   0  0  2  0  0  0
  -20.6794  -26.9445   22.5269 C   0  0  0  0  0  0
  -19.5763  -26.6616   21.5017 C   0  0  0  0  0  0
  -18.1932  -26.8049   22.1423 C   0  0  0  0  0  0
  -19.1549  -28.8840   23.2954 C   0  0  0  0  0  0
  -18.9483  -30.1394   23.9065 C   0  0  0  0  0  0
  -17.6482  -30.6545   24.0727 C   0  0  0  0  0  0
  -25.9021  -34.9489   23.5156 C   0  0  0  0  0  0
  -16.5381  -29.9101   23.6392 C   0  0  0  0  0  0
  -16.7302  -28.6550   23.0341 C   0  0  0  0  0  0
  -26.4457  -31.6632   25.0770 C   0  0  0  0  0  0
  -25.3728  -31.3741   26.1522 C   0  0  0  0  0  0
  -27.0305  -30.3091   24.6151 C   0  0  0  0  0  0
  -27.6044  -32.4365   25.7517 C   0  0  0  0  0  0
  -27.5587  -37.1822   24.8473 C   0  0  0  0  0  0
  -21.4136  -29.3074   22.3775 N   0  0  0  0  0  0
  -26.4305  -37.3810   23.9401 N   0  0  0  0  0  0
  -24.6667  -31.0775   22.0987 N   0  0  0  0  0  0
  -23.4154  -28.8217   23.3088 O   0  0  0  0  0  0
  -28.4661  -26.7961   19.9975 O   0  0  0  0  0  0
  -26.5606  -34.8935   22.4736 O   0  0  0  0  0  0
  -23.5349  -32.1442   23.7506 O   0  0  0  0  0  0
  -28.9327  -18.8128   20.3248 C   0  0  0  0  0  0
  -30.6377  -17.5483   22.1789 C   0  0  0  0  0  0
  -29.5250  -19.5784   21.3571 C   0  0  0  0  0  0
  -29.9670  -16.7654   21.2186 C   0  0  0  0  0  0
  -29.1330  -17.4110   20.2712 C   0  0  0  0  0  0
  -30.4266  -18.9409   22.2441 C   0  0  0  0  0  0
  -29.2747  -23.0532   20.3595 C   0  0  0  0  0  0
  -27.8246  -20.8403   22.6406 C   0  0  0  0  0  0
  -28.1846  -25.5800   22.1476 C   0  0  0  0  0  0
  -28.4433  -24.2726   19.8887 C   0  0  0  0  0  0
  -29.0364  -20.9908   21.7119 C   0  0  2  0  0  0
  -28.7310  -25.5697   20.7054 C   0  0  1  0  0  0
  -29.9662  -15.3431   21.3403 N   0  0  0  0  0  0
  -28.6378  -21.8980   20.6244 N   0  0  0  0  0  0
  -30.4876  -23.1761   20.5499 O   0  0  0  0  0  0
  -28.4598  -16.6746   19.3549 F   0  0  0  0  0  0
  -31.0211  -19.6443   23.2363 F   0  0  0  0  0  0
  -31.4788  -12.4392   19.1061 H   0  0  0  0  0  0
  -30.3714  -11.2860   19.7862 H   0  0  0  0  0  0
  -29.7436  -11.7995   17.4174 H   0  0  0  0  0  0
  -29.6666  -13.5076   17.7823 H   0  0  0  0  0  0
  -27.8284  -11.3080   18.7899 H   0  0  0  0  0  0
  -27.3718  -12.6553   17.7844 H   0  0  0  0  0  0
  -27.7302  -14.2393   19.6169 H   0  0  0  0  0  0
  -28.6901  -11.8515   21.2574 H   0  0  0  0  0  0
  -28.4515  -13.4292   21.9174 H   0  0  0  0  0  0
  -25.2740   -9.5658   22.4774 H   0  0  0  0  0  0
  -23.9975   -7.4628   22.7505 H   0  0  0  0  0  0
  -21.0809   -8.8731   19.8991 H   0  0  0  0  0  0
  -22.3654  -10.9645   19.6185 H   0  0  0  0  0  0
  -21.1997   -7.6144   23.9679 H   0  0  0  0  0  0
  -21.1501   -6.0574   25.9077 H   0  0  0  0  0  0
  -22.0592   -2.7604   23.2908 H   0  0  0  0  0  0
  -22.4163  -11.9850   22.4694 H   0  0  0  0  0  0
  -21.1188  -13.1253   22.2611 H   0  0  0  0  0  0
  -24.6781  -15.8368   20.4442 H   0  0  0  0  0  0
  -26.2783  -15.5796   19.9722 H   0  0  0  0  0  0
  -26.7105  -32.5537   23.1209 H   0  0  0  0  0  0
  -24.9936  -33.9807   25.0445 H   0  0  0  0  0  0
  -22.6927  -31.3068   21.4086 H   0  0  0  0  0  0
  -23.3720  -35.9654   23.3371 H   0  0  0  0  0  0
  -24.3547  -36.8877   22.2058 H   0  0  0  0  0  0
  -23.7208  -37.6536   23.6624 H   0  0  0  0  0  0
  -26.0392  -31.6021   20.5920 H   0  0  0  0  0  0
  -26.8147  -30.8898   21.9786 H   0  0  0  0  0  0
  -28.1105  -29.1522   21.1131 H   0  0  0  0  0  0
  -26.0933  -25.9423   19.0599 H   0  0  0  0  0  0
  -23.9861  -27.2419   19.0871 H   0  0  0  0  0  0
  -23.7087  -30.5670   19.3983 H   0  0  0  0  0  0
  -22.7333  -29.2138   19.8903 H   0  0  0  0  0  0
  -25.1296  -36.2042   25.0857 H   0  0  0  0  0  0
  -20.9918  -28.3098   24.1436 H   0  0  0  0  0  0
  -20.5630  -26.2232   23.3350 H   0  0  0  0  0  0
  -21.6682  -26.7481   22.1083 H   0  0  0  0  0  0
  -19.6668  -27.3618   20.6694 H   0  0  0  0  0  0
  -19.6947  -25.6650   21.0790 H   0  0  0  0  0  0
  -17.4266  -26.7021   21.3736 H   0  0  0  0  0  0
  -18.0212  -26.0025   22.8611 H   0  0  0  0  0  0
  -19.7941  -30.7170   24.2518 H   0  0  0  0  0  0
  -17.5052  -31.6197   24.5414 H   0  0  0  0  0  0
  -15.5412  -30.3034   23.7707 H   0  0  0  0  0  0
  -15.8724  -28.0925   22.6948 H   0  0  0  0  0  0
  -24.5805  -30.7228   25.7825 H   0  0  0  0  0  0
  -24.9021  -32.2898   26.5136 H   0  0  0  0  0  0
  -25.8066  -30.8753   27.0199 H   0  0  0  0  0  0
  -26.2876  -29.6815   24.1211 H   0  0  0  0  0  0
  -27.4083  -29.7404   25.4659 H   0  0  0  0  0  0
  -27.8708  -30.4452   23.9327 H   0  0  0  0  0  0
  -27.2678  -33.3624   26.2220 H   0  0  0  0  0  0
  -28.3780  -32.7014   25.0283 H   0  0  0  0  0  0
  -28.0790  -31.8401   26.5332 H   0  0  0  0  0  0
  -28.2670  -38.0056   24.7507 H   0  0  0  0  0  0
  -28.1021  -36.2613   24.6334 H   0  0  0  0  0  0
  -27.2301  -37.1521   25.8871 H   0  0  0  0  0  0
  -20.9316  -29.8807   21.6989 H   0  0  0  0  0  0
  -26.0213  -38.2909   24.1368 H   0  0  0  0  0  0
  -28.2399  -19.2704   19.6342 H   0  0  0  0  0  0
  -31.2580  -17.0786   22.9298 H   0  0  0  0  0  0
  -28.0892  -20.2644   23.5283 H   0  0  0  0  0  0
  -26.9976  -20.3262   22.1479 H   0  0  0  0  0  0
  -27.4559  -21.8096   22.9791 H   0  0  0  0  0  0
  -28.5604  -26.4450   22.6947 H   0  0  0  0  0  0
  -28.5034  -24.6961   22.7015 H   0  0  0  0  0  0
  -27.0959  -25.6231   22.1747 H   0  0  0  0  0  0
  -27.3774  -24.0431   19.9049 H   0  0  0  0  0  0
  -28.7096  -24.4531   18.8464 H   0  0  0  0  0  0
  -29.8170  -21.4753   22.3060 H   0  0  0  0  0  0
  -29.8165  -25.6149   20.8093 H   0  0  0  0  0  0
  -29.1305  -14.9511   21.7467 H   0  0  0  0  0  0
  -27.6659  -21.8429   20.3484 H   0  0  0  0  0  0
  1 25  1  0  0  0
  1 30  2  0  0  0
  1 83  1  0  0  0
  2  3  1  0  0  0
  2 25  1  0  0  0
  2 88  1  0  0  0
  2 89  1  0  0  0
  3  4  1  0  0  0
  3 90  1  0  0  0
  3 91  1  0  0  0
  4  5  1  0  0  0
  4 92  1  0  0  0
  4 93  1  0  0  0
  5  6  1  0  0  0
  5 26  1  0  0  0
  5 94  1  0  0  0
  6 25  1  0  0  0
  6 95  1  0  0  0
  6 96  1  0  0  0
  7  8  2  0  0  0
  7 26  1  0  0  0
  7 29  1  0  0  0
  8  9  1  0  0  0
  8 22  1  0  0  0
  9 10  1  0  0  0
  9 27  2  0  0  0
 10 11  2  0  0  0
 10 15  1  0  0  0
 11 12  1  0  0  0
 11 97  1  0  0  0
 12 13  2  0  0  0
 12 98  1  0  0  0
 13 14  1  0  0  0
 13 31  1  0  0  0
 14 15  2  0  0  0
 14 99  1  0  0  0
 15100  1  0  0  0
 16 17  2  0  0  0
 16 21  1  0  0  0
 16 31  1  0  0  0
 17 18  1  0  0  0
 17101  1  0  0  0
 18 19  2  0  0  0
 18102  1  0  0  0
 19 20  1  0  0  0
 19 24  1  0  0  0
 20 21  2  0  0  0
 20103  1  0  0  0
 21 23  1  0  0  0
 22 28  1  0  0  0
 22 32  2  0  0  0
 26 27  1  0  0  0
 28104  1  0  0  0
 28105  1  0  0  0
 29106  1  0  0  0
 29107  1  0  0  0
 33 34  1  0  0  0
 33 66  1  0  0  0
 33 70  2  0  0  0
 34 36  1  0  0  0
 34 59  1  0  0  0
 34108  1  0  0  0
 35 44  2  0  0  0
 35 45  1  0  0  0
 35 68  1  0  0  0
 36 56  1  0  0  0
 36109  1  0  0  0
 37 39  1  0  0  0
 37 47  1  0  0  0
 37 66  1  0  0  0
 37110  1  0  0  0
 38 43  2  0  0  0
 38 46  1  0  0  0
 38 47  1  0  0  0
 39 64  1  0  0  0
 39 67  2  0  0  0
 40 52  1  0  0  0
 40 53  2  0  0  0
 40 58  1  0  0  0
 41111  1  0  0  0
 41112  1  0  0  0
 41113  1  0  0  0
 41 48  1  0  0  0
 42 43  1  0  0  0
 42 66  1  0  0  0
 42114  1  0  0  0
 42115  1  0  0  0
 43 44  1  0  0  0
 44116  1  0  0  0
 45 46  2  0  0  0
 45117  1  0  0  0
 46118  1  0  0  0
 47119  1  0  0  0
 47120  1  0  0  0
 48 56  1  0  0  0
 48 65  1  0  0  0
 48121  1  0  0  0
 49 50  1  0  0  0
 49 53  1  0  0  0
 49 64  1  0  0  0
 49122  1  0  0  0
 50 51  1  0  0  0
 50123  1  0  0  0
 50124  1  0  0  0
 51 52  1  0  0  0
 51125  1  0  0  0
 51126  1  0  0  0
 52127  1  0  0  0
 52128  1  0  0  0
 53 54  1  0  0  0
 54 55  2  0  0  0
 54129  1  0  0  0
 55 57  1  0  0  0
 55130  1  0  0  0
 56 69  2  0  0  0
 57 58  2  0  0  0
 57131  1  0  0  0
 58132  1  0  0  0
 59 60  1  0  0  0
 59 61  1  0  0  0
 59 62  1  0  0  0
 60133  1  0  0  0
 60134  1  0  0  0
 60135  1  0  0  0
 61136  1  0  0  0
 61137  1  0  0  0
 61138  1  0  0  0
 62139  1  0  0  0
 62140  1  0  0  0
 62141  1  0  0  0
 63 65  1  0  0  0
 63142  1  0  0  0
 63143  1  0  0  0
 63144  1  0  0  0
 64145  1  0  0  0
 65146  1  0  0  0
 68 82  1  0  0  0
 71 73  2  0  0  0
 71 75  1  0  0  0
 71147  1  0  0  0
 72 74  1  0  0  0
 72 76  2  0  0  0
 72148  1  0  0  0
 73 76  1  0  0  0
 73 81  1  0  0  0
 74 75  2  0  0  0
 74 83  1  0  0  0
 75 86  1  0  0  0
 76 87  1  0  0  0
 77 80  1  0  0  0
 77 84  1  0  0  0
 77 85  2  0  0  0
 78149  1  0  0  0
 78150  1  0  0  0
 78151  1  0  0  0
 78 81  1  0  0  0
 79152  1  0  0  0
 79153  1  0  0  0
 79154  1  0  0  0
 79 82  1  0  0  0
 80 82  1  0  0  0
 80155  1  0  0  0
 80156  1  0  0  0
 81 84  1  0  0  0
 81157  1  0  0  0
 82158  1  0  0  0
 83159  1  0  0  0
 84160  1  0  0  0
M  ISO  4   1 100  68 101  82 101  83 100
M  END
> <chiral flag>
0

> <version>
0

> <s_m_source_file>
/data/baiqing/PycharmProjects/Reinvent-master-3.2/result/LINK_invent/BTK/process_docking_weight1_custom_product_contain_oxygen_bond_distance_aromatic_linkinvent_7_9_3/rearranged_h_0173.sdf

> <i_m_source_file_index>
53

> <r_mmod_Potential_Energy-OPLS-2005>
-100.48755645752

> <r_mmod_Stretch_Energy-OPLS-2005>
39.1895217895508

> <r_mmod_Bend_Energy-OPLS-2005>
113.574615478516

> <r_mmod_Torsional_Energy-OPLS-2005>
270.578369140625

> <r_mmod_Improper_Torsional_Energy-OPLS-2005>
9.44452476501465

> <r_mmod_Van_der_Waal_Energy-OPLS-2005>
142.760604858398

> <r_mmod_Electrostatic_Energy-OPLS-2005>
-459.283386230469

> <r_mmod_Solvation_Energy-OPLS-2005>
-229.088302612305

> <b_mmod_Minimization_Converged-OPLS-2005>
0

> <r_mmod_RMS_Derivative-OPLS-2005>
5.21347951889038

$$$$
53
                    3D
 Structure written by MMmdl.
158166  0  0  1  0            999 V2000
  -30.6776  -14.5812   20.4661 C   0  0  0  0  0  0
  -30.4187  -12.3414   19.4706 C   0  0  0  0  0  0
  -29.5069  -12.4831   18.2338 C   0  0  0  0  0  0
  -28.0265  -12.3478   18.6384 C   0  0  0  0  0  0
  -27.6533  -13.2220   19.8664 C   0  0  2  0  0  0
  -28.6959  -13.0936   21.0018 C   0  0  0  0  0  0
  -25.2546  -13.8185   20.5689 C   0  0  0  0  0  0
  -24.1815  -13.0443   20.9187 C   0  0  0  0  0  0
  -24.6388  -11.6916   20.8732 C   0  0  0  0  0  0
  -23.9058  -10.4293   21.0394 C   0  0  0  0  0  0
  -24.3611   -9.4211   21.9176 C   0  0  0  0  0  0
  -23.6288   -8.2246   22.0747 C   0  0  0  0  0  0
  -22.4273   -8.0277   21.3538 C   0  0  0  0  0  0
  -21.9905   -9.0249   20.4642 C   0  0  0  0  0  0
  -22.7226  -10.2133   20.3047 C   0  0  0  0  0  0
  -21.6856   -6.0730   22.5272 C   0  0  0  0  0  0
  -21.4018   -6.5634   23.8207 C   0  0  0  0  0  0
  -21.3663   -5.6788   24.9167 C   0  0  0  0  0  0
  -21.6046   -4.3050   24.7221 C   0  0  0  0  0  0
  -21.8820   -3.8139   23.4344 C   0  0  0  0  0  0
  -21.9194   -4.6953   22.3399 C   0  0  0  0  0  0
  -22.7835  -13.5229   21.1847 C   0  0  0  0  0  0
  -22.1661   -4.2137   21.0975 F   0  0  0  0  0  0
  -21.5631   -3.4533   25.7739 F   0  0  0  0  0  0
  -30.0190  -13.3842   20.4351 N   0  0  0  0  0  0
  -26.2987  -12.9385   20.3341 N   0  0  0  0  0  0
  -25.9329  -11.6534   20.5779 N   0  0  0  0  0  0
  -22.0483  -12.8220   22.0405 N   0  0  0  0  0  0
  -25.4246  -15.1907   20.4113 N   0  0  0  0  0  0
  -31.8498  -14.6707   20.0967 O   0  0  0  0  0  0
  -21.6639   -6.8870   21.4235 O   0  0  0  0  0  0
  -22.3520  -14.5532   20.6695 O   0  0  0  0  0  0
  -24.6212  -31.8614   23.2058 C   0  0  0  0  0  0
  -25.9086  -32.4787   23.8371 C   0  0  1  0  0  0
  -27.2304  -27.3793   20.1056 C   0  0  0  0  0  0
  -25.5917  -33.8586   24.2296 N   0  0  0  0  0  0
  -23.4139  -30.4849   21.5454 C   0  0  2  0  0  0
  -24.8664  -28.9528   20.1014 C   0  0  0  0  0  0
  -22.7462  -29.4622   22.4935 C   0  0  0  0  0  0
  -18.0282  -28.1387   22.8498 C   0  0  0  0  0  0
  -24.1479  -36.7298   23.2634 C   0  0  0  0  0  0
  -25.9486  -30.8141   21.3671 C   0  0  0  0  0  0
  -26.0303  -29.4481   20.7047 C   0  0  0  0  0  0
  -27.2198  -28.6694   20.7043 C   0  0  0  0  0  0
  -26.0542  -26.9195   19.4807 C   0  0  0  0  0  0
  -24.8773  -27.6921   19.4796 C   0  0  0  0  0  0
  -23.6271  -29.8204   20.1589 C   0  0  0  0  0  0
  -25.4099  -36.3079   24.0328 C   0  0  1  0  0  0
  -20.5880  -28.3681   23.1294 C   0  0  2  0  0  0
  -20.6764  -26.9405   22.5415 C   0  0  0  0  0  0
  -19.5739  -26.6382   21.5215 C   0  0  0  0  0  0
  -18.1922  -26.7928   22.1631 C   0  0  0  0  0  0
  -19.1536  -28.8855   23.2890 C   0  0  0  0  0  0
  -18.9453  -30.1458   23.8900 C   0  0  0  0  0  0
  -17.6453  -30.6587   24.0570 C   0  0  0  0  0  0
  -25.9037  -34.9455   23.5111 C   0  0  0  0  0  0
  -16.5348  -29.9079   23.6344 C   0  0  0  0  0  0
  -16.7270  -28.6503   23.0358 C   0  0  0  0  0  0
  -26.4489  -31.6591   25.0728 C   0  0  0  0  0  0
  -25.3748  -31.3737   26.1482 C   0  0  0  0  0  0
  -27.0317  -30.3014   24.6157 C   0  0  0  0  0  0
  -27.6045  -32.4327   25.7507 C   0  0  0  0  0  0
  -27.5574  -37.1792   24.8461 C   0  0  0  0  0  0
  -21.4179  -29.3034   22.3688 N   0  0  0  0  0  0
  -26.4273  -37.3778   23.9424 N   0  0  0  0  0  0
  -24.6793  -31.0676   22.0974 N   0  0  0  0  0  0
  -23.4208  -28.8162   23.3000 O   0  0  0  0  0  0
  -28.2779  -26.4770   20.2343 O   0  0  0  0  0  0
  -26.5593  -34.8922   22.4666 O   0  0  0  0  0  0
  -23.5394  -32.1394   23.7416 O   0  0  0  0  0  0
  -30.5760  -20.5069   21.1133 C   0  0  0  0  0  0
  -30.9572  -19.1205   20.9546 C   0  0  0  0  0  0
  -29.9727  -18.3405   20.3635 C   0  0  0  0  0  0
  -29.2943  -20.8195   20.7268 C   0  0  0  0  0  0
  -28.0642  -25.5997   21.2943 C   0  0  0  0  0  0
  -32.2778  -18.6118   21.3499 C   0  0  0  0  0  0
  -28.3199  -24.2699   21.4972 C   0  0  0  0  0  0
  -29.0233  -23.2975   20.6290 C   0  0  0  0  0  0
  -33.2333  -19.6106   21.9944 C   0  0  0  0  0  0
  -29.1693  -16.7626   18.5165 C   0  0  0  0  0  0
  -30.0801  -16.9215   19.7479 C   0  0  2  0  0  0
  -28.6245  -22.0134   20.8717 N   0  0  0  0  0  0
  -29.9126  -15.7040   20.6049 N   0  0  0  0  0  0
  -32.6717  -17.4510   21.2281 O   0  0  0  0  0  0
  -29.8842  -23.5793   19.7929 O   0  0  0  0  0  0
  -27.8994  -23.7877   22.6796 O   0  0  0  0  0  0
  -28.5178  -19.3357   20.1781 S   0  0  0  0  0  0
  -31.4669  -12.4179   19.1778 H   0  0  0  0  0  0
  -30.3088  -11.3533   19.9197 H   0  0  0  0  0  0
  -29.7605  -11.7264   17.4904 H   0  0  0  0  0  0
  -29.6753  -13.4487   17.7561 H   0  0  0  0  0  0
  -27.8474  -11.2963   18.8650 H   0  0  0  0  0  0
  -27.3804  -12.5891   17.7936 H   0  0  0  0  0  0
  -27.6695  -14.2548   19.5196 H   0  0  0  0  0  0
  -28.6855  -12.0873   21.4237 H   0  0  0  0  0  0
  -28.4617  -13.7711   21.8246 H   0  0  0  0  0  0
  -25.2757   -9.5689   22.4747 H   0  0  0  0  0  0
  -23.9995   -7.4643   22.7468 H   0  0  0  0  0  0
  -21.0834   -8.8763   19.8951 H   0  0  0  0  0  0
  -22.3679  -10.9665   19.6153 H   0  0  0  0  0  0
  -21.2012   -7.6139   23.9705 H   0  0  0  0  0  0
  -21.1487   -6.0517   25.9071 H   0  0  0  0  0  0
  -22.0598   -2.7597   23.2847 H   0  0  0  0  0  0
  -22.4110  -11.9890   22.4800 H   0  0  0  0  0  0
  -21.1098  -13.1238   22.2613 H   0  0  0  0  0  0
  -24.6561  -15.8431   20.5213 H   0  0  0  0  0  0
  -26.2742  -15.6330   20.0857 H   0  0  0  0  0  0
  -26.7163  -32.5493   23.1131 H   0  0  0  0  0  0
  -25.0080  -33.9737   25.0454 H   0  0  0  0  0  0
  -22.7046  -31.3029   21.4052 H   0  0  0  0  0  0
  -23.3730  -35.9642   23.3291 H   0  0  0  0  0  0
  -24.3569  -36.8922   22.2049 H   0  0  0  0  0  0
  -23.7244  -37.6504   23.6657 H   0  0  0  0  0  0
  -26.0702  -31.5840   20.6033 H   0  0  0  0  0  0
  -26.8300  -30.8629   21.9938 H   0  0  0  0  0  0
  -28.1081  -29.0282   21.2045 H   0  0  0  0  0  0
  -26.0386  -25.9328   19.0385 H   0  0  0  0  0  0
  -23.9814  -27.3032   19.0155 H   0  0  0  0  0  0
  -23.7344  -30.5973   19.4012 H   0  0  0  0  0  0
  -22.7516  -29.2405   19.8618 H   0  0  0  0  0  0
  -25.1273  -36.1924   25.0816 H   0  0  0  0  0  0
  -20.9978  -28.3243   24.1409 H   0  0  0  0  0  0
  -20.5661  -26.2279   23.3603 H   0  0  0  0  0  0
  -21.6629  -26.7432   22.1204 H   0  0  0  0  0  0
  -19.6890  -25.6293   21.1233 H   0  0  0  0  0  0
  -19.6669  -27.3197   20.6745 H   0  0  0  0  0  0
  -17.4186  -26.6688   21.4037 H   0  0  0  0  0  0
  -18.0328  -26.0063   22.9026 H   0  0  0  0  0  0
  -19.7928  -30.7287   24.2249 H   0  0  0  0  0  0
  -17.5005  -31.6267   24.5164 H   0  0  0  0  0  0
  -15.5347  -30.2981   23.7658 H   0  0  0  0  0  0
  -15.8675  -28.0822   22.7066 H   0  0  0  0  0  0
  -24.5895  -30.7108   25.7832 H   0  0  0  0  0  0
  -24.8984  -32.2919   26.4940 H   0  0  0  0  0  0
  -25.8103  -30.8903   27.0237 H   0  0  0  0  0  0
  -26.2881  -29.6780   24.1176 H   0  0  0  0  0  0
  -27.4010  -29.7252   25.4651 H   0  0  0  0  0  0
  -27.8755  -30.4288   23.9367 H   0  0  0  0  0  0
  -27.2638  -33.3622   26.2083 H   0  0  0  0  0  0
  -28.3865  -32.6897   25.0348 H   0  0  0  0  0  0
  -28.0696  -31.8459   26.5436 H   0  0  0  0  0  0
  -28.2568  -38.0112   24.7524 H   0  0  0  0  0  0
  -28.1086  -36.2641   24.6248 H   0  0  0  0  0  0
  -27.2302  -37.1406   25.8865 H   0  0  0  0  0  0
  -20.9347  -29.8769   21.6912 H   0  0  0  0  0  0
  -26.0149  -38.2843   24.1456 H   0  0  0  0  0  0
  -31.2483  -21.2384   21.5373 H   0  0  0  0  0  0
  -27.5674  -26.1305   22.0969 H   0  0  0  0  0  0
  -33.5121  -20.3866   21.2823 H   0  0  0  0  0  0
  -34.1413  -19.1060   22.3247 H   0  0  0  0  0  0
  -32.7716  -20.0758   22.8646 H   0  0  0  0  0  0
  -29.3573  -17.5507   17.7861 H   0  0  0  0  0  0
  -28.1131  -16.7999   18.7831 H   0  0  0  0  0  0
  -29.3429  -15.8136   18.0082 H   0  0  0  0  0  0
  -31.0812  -16.8754   19.3165 H   0  0  0  0  0  0
  -27.7062  -21.9416   21.2899 H   0  0  0  0  0  0
  -28.9878  -15.5544   20.9772 H   0  0  0  0  0  0
  -28.3014  -22.9335   22.7884 H   0  0  0  0  0  0
  1 25  1  0  0  0
  1 30  2  0  0  0
  1 83  1  0  0  0
  2  3  1  0  0  0
  2 25  1  0  0  0
  2 88  1  0  0  0
  2 89  1  0  0  0
  3  4  1  0  0  0
  3 90  1  0  0  0
  3 91  1  0  0  0
  4  5  1  0  0  0
  4 92  1  0  0  0
  4 93  1  0  0  0
  5  6  1  0  0  0
  5 26  1  0  0  0
  5 94  1  0  0  0
  6 25  1  0  0  0
  6 95  1  0  0  0
  6 96  1  0  0  0
  7  8  2  0  0  0
  7 26  1  0  0  0
  7 29  1  0  0  0
  8  9  1  0  0  0
  8 22  1  0  0  0
  9 10  1  0  0  0
  9 27  2  0  0  0
 10 11  2  0  0  0
 10 15  1  0  0  0
 11 12  1  0  0  0
 11 97  1  0  0  0
 12 13  2  0  0  0
 12 98  1  0  0  0
 13 14  1  0  0  0
 13 31  1  0  0  0
 14 15  2  0  0  0
 14 99  1  0  0  0
 15100  1  0  0  0
 16 17  2  0  0  0
 16 21  1  0  0  0
 16 31  1  0  0  0
 17 18  1  0  0  0
 17101  1  0  0  0
 18 19  2  0  0  0
 18102  1  0  0  0
 19 20  1  0  0  0
 19 24  1  0  0  0
 20 21  2  0  0  0
 20103  1  0  0  0
 21 23  1  0  0  0
 22 28  1  0  0  0
 22 32  2  0  0  0
 26 27  1  0  0  0
 28104  1  0  0  0
 28105  1  0  0  0
 29106  1  0  0  0
 29107  1  0  0  0
 33 34  1  0  0  0
 33 66  1  0  0  0
 33 70  2  0  0  0
 34 36  1  0  0  0
 34 59  1  0  0  0
 34108  1  0  0  0
 35 44  2  0  0  0
 35 45  1  0  0  0
 35 68  1  0  0  0
 36 56  1  0  0  0
 36109  1  0  0  0
 37 39  1  0  0  0
 37 47  1  0  0  0
 37 66  1  0  0  0
 37110  1  0  0  0
 38 43  2  0  0  0
 38 46  1  0  0  0
 38 47  1  0  0  0
 39 64  1  0  0  0
 39 67  2  0  0  0
 40 52  1  0  0  0
 40 53  2  0  0  0
 40 58  1  0  0  0
 41111  1  0  0  0
 41112  1  0  0  0
 41113  1  0  0  0
 41 48  1  0  0  0
 42 43  1  0  0  0
 42 66  1  0  0  0
 42114  1  0  0  0
 42115  1  0  0  0
 43 44  1  0  0  0
 44116  1  0  0  0
 45 46  2  0  0  0
 45117  1  0  0  0
 46118  1  0  0  0
 47119  1  0  0  0
 47120  1  0  0  0
 48 56  1  0  0  0
 48 65  1  0  0  0
 48121  1  0  0  0
 49 50  1  0  0  0
 49 53  1  0  0  0
 49 64  1  0  0  0
 49122  1  0  0  0
 50 51  1  0  0  0
 50123  1  0  0  0
 50124  1  0  0  0
 51 52  1  0  0  0
 51125  1  0  0  0
 51126  1  0  0  0
 52127  1  0  0  0
 52128  1  0  0  0
 53 54  1  0  0  0
 54 55  2  0  0  0
 54129  1  0  0  0
 55 57  1  0  0  0
 55130  1  0  0  0
 56 69  2  0  0  0
 57 58  2  0  0  0
 57131  1  0  0  0
 58132  1  0  0  0
 59 60  1  0  0  0
 59 61  1  0  0  0
 59 62  1  0  0  0
 60133  1  0  0  0
 60134  1  0  0  0
 60135  1  0  0  0
 61136  1  0  0  0
 61137  1  0  0  0
 61138  1  0  0  0
 62139  1  0  0  0
 62140  1  0  0  0
 62141  1  0  0  0
 63 65  1  0  0  0
 63142  1  0  0  0
 63143  1  0  0  0
 63144  1  0  0  0
 64145  1  0  0  0
 65146  1  0  0  0
 68 75  1  0  0  0
 71 72  1  0  0  0
 71 74  2  0  0  0
 71147  1  0  0  0
 72 73  2  0  0  0
 72 76  1  0  0  0
 73 81  1  0  0  0
 73 87  1  0  0  0
 74 82  1  0  0  0
 74 87  1  0  0  0
 75 77  2  0  0  0
 75148  1  0  0  0
 76 79  1  0  0  0
 76 84  2  0  0  0
 77 78  1  0  0  0
 77 86  1  0  0  0
 78 82  1  0  0  0
 78 85  2  0  0  0
 79149  1  0  0  0
 79150  1  0  0  0
 79151  1  0  0  0
 80152  1  0  0  0
 80153  1  0  0  0
 80154  1  0  0  0
 80 81  1  0  0  0
 81 83  1  0  0  0
 81155  1  0  0  0
 82156  1  0  0  0
 83157  1  0  0  0
 86158  1  0  0  0
M  ISO  4   1 100  68 101  75 101  83 100
M  END
> <chiral flag>
0

> <version>
0

> <s_m_source_file>
/data/baiqing/PycharmProjects/Reinvent-master-3.2/result/LINK_invent/BTK/process_docking_weight1_custom_product_contain_oxygen_bond_distance_aromatic_linkinvent_7_9_3/rearranged_h_0173.sdf

> <i_m_source_file_index>
54

> <r_mmod_Potential_Energy-OPLS-2005>
-25.5350589752197

> <r_mmod_Stretch_Energy-OPLS-2005>
56.86474609375

> <r_mmod_Bend_Energy-OPLS-2005>
154.010238647461

> <r_mmod_Torsional_Energy-OPLS-2005>
294.68017578125

> <r_mmod_Improper_Torsional_Energy-OPLS-2005>
12.1040859222412

> <r_mmod_Van_der_Waal_Energy-OPLS-2005>
128.192993164062

> <r_mmod_Electrostatic_Energy-OPLS-2005>
-450.244781494141

> <r_mmod_Solvation_Energy-OPLS-2005>
-262.423889160156

> <b_mmod_Minimization_Converged-OPLS-2005>
0

> <r_mmod_RMS_Derivative-OPLS-2005>
1.47308266162872

$$$$
54
                    3D
 Structure written by MMmdl.
174182  0  0  1  0            999 V2000
  -30.7074  -14.4801   20.4262 C   0  0  0  0  0  0
  -30.4120  -12.2686   19.4360 C   0  0  0  0  0  0
  -29.4923  -12.4380   18.2079 C   0  0  0  0  0  0
  -28.0117  -12.3348   18.6187 C   0  0  0  0  0  0
  -27.6517  -13.2055   19.8522 C   0  0  2  0  0  0
  -28.7005  -13.0509   20.9769 C   0  0  0  0  0  0
  -25.2556  -13.8162   20.5668 C   0  0  0  0  0  0
  -24.1814  -13.0446   20.9180 C   0  0  0  0  0  0
  -24.6357  -11.6912   20.8749 C   0  0  0  0  0  0
  -23.9042  -10.4308   21.0426 C   0  0  0  0  0  0
  -24.3597   -9.4212   21.9188 C   0  0  0  0  0  0
  -23.6284   -8.2241   22.0749 C   0  0  0  0  0  0
  -22.4258   -8.0298   21.3552 C   0  0  0  0  0  0
  -21.9908   -9.0266   20.4645 C   0  0  0  0  0  0
  -22.7226  -10.2154   20.3055 C   0  0  0  0  0  0
  -21.6864   -6.0737   22.5296 C   0  0  0  0  0  0
  -21.4027   -6.5645   23.8231 C   0  0  0  0  0  0
  -21.3657   -5.6791   24.9183 C   0  0  0  0  0  0
  -21.6039   -4.3047   24.7224 C   0  0  0  0  0  0
  -21.8822   -3.8140   23.4340 C   0  0  0  0  0  0
  -21.9195   -4.6960   22.3402 C   0  0  0  0  0  0
  -22.7832  -13.5258   21.1836 C   0  0  0  0  0  0
  -22.1650   -4.2140   21.0974 F   0  0  0  0  0  0
  -21.5610   -3.4523   25.7725 F   0  0  0  0  0  0
  -30.0316  -13.3017   20.4084 N   0  0  0  0  0  0
  -26.2970  -12.9320   20.3277 N   0  0  0  0  0  0
  -25.9274  -11.6487   20.5744 N   0  0  0  0  0  0
  -22.0451  -12.8275   22.0401 N   0  0  0  0  0  0
  -25.4283  -15.1895   20.4083 N   0  0  0  0  0  0
  -31.9059  -14.5785   20.1615 O   0  0  0  0  0  0
  -21.6611   -6.8892   21.4273 O   0  0  0  0  0  0
  -22.3554  -14.5559   20.6664 O   0  0  0  0  0  0
  -24.6148  -31.8663   23.2095 C   0  0  0  0  0  0
  -25.9050  -32.4806   23.8375 C   0  0  1  0  0  0
  -27.2415  -27.4374   20.0699 C   0  0  0  0  0  0
  -25.5904  -33.8604   24.2305 N   0  0  0  0  0  0
  -23.4026  -30.4903   21.5494 C   0  0  2  0  0  0
  -24.8465  -28.9516   20.1166 C   0  0  0  0  0  0
  -22.7401  -29.4658   22.4986 C   0  0  0  0  0  0
  -18.0275  -28.1372   22.8495 C   0  0  0  0  0  0
  -24.1486  -36.7315   23.2635 C   0  0  0  0  0  0
  -25.9334  -30.8270   21.3666 C   0  0  0  0  0  0
  -26.0065  -29.4626   20.7108 C   0  0  0  0  0  0
  -27.2020  -28.7096   20.6864 C   0  0  0  0  0  0
  -26.0530  -26.9295   19.4956 C   0  0  0  0  0  0
  -24.8630  -27.6825   19.5138 C   0  0  0  0  0  0
  -23.6113  -29.8217   20.1646 C   0  0  0  0  0  0
  -25.4108  -36.3102   24.0334 C   0  0  1  0  0  0
  -20.5860  -28.3664   23.1316 C   0  0  2  0  0  0
  -20.6766  -26.9403   22.5414 C   0  0  0  0  0  0
  -19.5743  -26.6381   21.5213 C   0  0  0  0  0  0
  -18.1925  -26.7919   22.1625 C   0  0  0  0  0  0
  -19.1523  -28.8837   23.2902 C   0  0  0  0  0  0
  -18.9453  -30.1443   23.8911 C   0  0  0  0  0  0
  -17.6455  -30.6581   24.0575 C   0  0  0  0  0  0
  -25.9047  -34.9466   23.5125 C   0  0  0  0  0  0
  -16.5347  -29.9083   23.6329 C   0  0  0  0  0  0
  -16.7267  -28.6499   23.0352 C   0  0  0  0  0  0
  -26.4470  -31.6593   25.0712 C   0  0  0  0  0  0
  -25.3747  -31.3720   26.1474 C   0  0  0  0  0  0
  -27.0301  -30.3024   24.6120 C   0  0  0  0  0  0
  -27.6042  -32.4316   25.7471 C   0  0  0  0  0  0
  -27.5588  -37.1798   24.8451 C   0  0  0  0  0  0
  -21.4133  -29.3026   22.3714 N   0  0  0  0  0  0
  -26.4282  -37.3798   23.9423 N   0  0  0  0  0  0
  -24.6683  -31.0758   22.1002 N   0  0  0  0  0  0
  -23.4166  -28.8222   23.3047 O   0  0  0  0  0  0
  -28.4516  -26.7658   20.0555 O   0  0  0  0  0  0
  -26.5612  -34.8920   22.4687 O   0  0  0  0  0  0
  -23.5337  -32.1415   23.7491 O   0  0  0  0  0  0
  -29.5514  -17.8342   19.4730 C   0  0  0  0  0  0
  -29.5768  -18.5193   18.2098 C   0  0  0  0  0  0
  -30.0153  -17.7046   17.1805 C   0  0  0  0  0  0
  -29.9634  -16.5189   19.4244 C   0  0  0  0  0  0
  -30.1483  -17.8817   15.7373 C   0  0  0  0  0  0
  -28.5861  -24.3443   20.4422 C   0  0  0  0  0  0
  -28.8987  -22.1452   19.1275 C   0  0  0  0  0  0
  -31.9437  -24.0304   15.8953 C   0  0  0  0  0  0
  -30.5700  -23.0678   14.0344 C   0  0  0  0  0  0
  -32.4343  -21.7285   15.0179 C   0  0  0  0  0  0
  -29.4724  -23.1149   20.1763 C   0  0  0  0  0  0
  -28.5966  -25.4864   19.4096 C   0  0  0  0  0  0
  -30.8848  -21.5183   17.6381 C   0  0  0  0  0  0
  -30.2994  -22.1585   16.3521 C   0  0  0  0  0  0
  -29.8386  -20.9972   18.6592 C   0  0  2  0  0  0
  -31.3194  -22.7377   15.3407 C   0  0  0  0  0  0
  -29.9357  -18.9336   15.0713 N   0  0  0  0  0  0
  -29.0984  -19.8527   18.1141 N   0  0  0  0  0  0
  -29.9334  -15.5838   20.4243 N   0  0  0  0  0  0
  -27.9369  -24.4332   21.4907 O   0  0  0  0  0  0
  -27.7596  -22.2873   18.6660 O   0  0  0  0  0  0
  -30.4787  -16.1412   17.7884 S   0  0  0  0  0  0
  -31.4600  -12.3366   19.1350 H   0  0  0  0  0  0
  -30.2898  -11.2775   19.8784 H   0  0  0  0  0  0
  -29.7192  -11.6763   17.4619 H   0  0  0  0  0  0
  -29.6755  -13.3940   17.7218 H   0  0  0  0  0  0
  -27.8193  -11.2844   18.8375 H   0  0  0  0  0  0
  -27.3709  -12.5901   17.7737 H   0  0  0  0  0  0
  -27.6728  -14.2388   19.5097 H   0  0  0  0  0  0
  -28.6618  -12.0388   21.3811 H   0  0  0  0  0  0
  -28.4856  -13.7242   21.8083 H   0  0  0  0  0  0
  -25.2764   -9.5627   22.4741 H   0  0  0  0  0  0
  -23.9981   -7.4603   22.7437 H   0  0  0  0  0  0
  -21.0840   -8.8767   19.8945 H   0  0  0  0  0  0
  -22.3695  -10.9673   19.6119 H   0  0  0  0  0  0
  -21.2028   -7.6159   23.9739 H   0  0  0  0  0  0
  -21.1483   -6.0510   25.9095 H   0  0  0  0  0  0
  -22.0598   -2.7600   23.2840 H   0  0  0  0  0  0
  -22.4036  -11.9986   22.4912 H   0  0  0  0  0  0
  -21.1041  -13.1282   22.2498 H   0  0  0  0  0  0
  -24.6588  -15.8445   20.5049 H   0  0  0  0  0  0
  -26.2793  -15.6366   20.0957 H   0  0  0  0  0  0
  -26.7127  -32.5504   23.1135 H   0  0  0  0  0  0
  -25.0053  -33.9760   25.0448 H   0  0  0  0  0  0
  -22.6922  -31.3076   21.4087 H   0  0  0  0  0  0
  -23.3743  -35.9650   23.3276 H   0  0  0  0  0  0
  -24.3597  -36.8948   22.2055 H   0  0  0  0  0  0
  -23.7225  -37.6507   23.6667 H   0  0  0  0  0  0
  -26.0542  -31.5965   20.6031 H   0  0  0  0  0  0
  -26.8191  -30.8709   21.9894 H   0  0  0  0  0  0
  -28.1014  -29.1082   21.1355 H   0  0  0  0  0  0
  -26.0094  -25.9586   19.0280 H   0  0  0  0  0  0
  -23.9692  -27.2769   19.0587 H   0  0  0  0  0  0
  -23.7204  -30.5959   19.4036 H   0  0  0  0  0  0
  -22.7352  -29.2420   19.8693 H   0  0  0  0  0  0
  -25.1269  -36.1963   25.0821 H   0  0  0  0  0  0
  -20.9950  -28.3230   24.1437 H   0  0  0  0  0  0
  -20.5678  -26.2272   23.3599 H   0  0  0  0  0  0
  -21.6640  -26.7451   22.1207 H   0  0  0  0  0  0
  -19.6917  -25.6297   21.1231 H   0  0  0  0  0  0
  -19.6688  -27.3201   20.6753 H   0  0  0  0  0  0
  -17.4198  -26.6664   21.4029 H   0  0  0  0  0  0
  -18.0335  -26.0057   22.9015 H   0  0  0  0  0  0
  -19.7937  -30.7256   24.2275 H   0  0  0  0  0  0
  -17.5019  -31.6267   24.5171 H   0  0  0  0  0  0
  -15.5352  -30.2999   23.7647 H   0  0  0  0  0  0
  -15.8665  -28.0836   22.7045 H   0  0  0  0  0  0
  -24.5904  -30.7080   25.7823 H   0  0  0  0  0  0
  -24.8973  -32.2892   26.4932 H   0  0  0  0  0  0
  -25.8113  -30.8878   27.0219 H   0  0  0  0  0  0
  -26.2850  -29.6779   24.1179 H   0  0  0  0  0  0
  -27.4048  -29.7272   25.4597 H   0  0  0  0  0  0
  -27.8695  -30.4322   23.9286 H   0  0  0  0  0  0
  -27.2656  -33.3601   26.2074 H   0  0  0  0  0  0
  -28.3838  -32.6893   25.0294 H   0  0  0  0  0  0
  -28.0724  -31.8428   26.5365 H   0  0  0  0  0  0
  -28.2565  -38.0137   24.7561 H   0  0  0  0  0  0
  -28.1119  -36.2672   24.6182 H   0  0  0  0  0  0
  -27.2328  -37.1331   25.8855 H   0  0  0  0  0  0
  -20.9293  -29.8729   21.6926 H   0  0  0  0  0  0
  -26.0159  -38.2858   24.1471 H   0  0  0  0  0  0
  -29.1865  -18.3204   20.3654 H   0  0  0  0  0  0
  -30.4529  -16.9858   15.1855 H   0  0  0  0  0  0
  -32.6143  -24.4895   15.1683 H   0  0  0  0  0  0
  -32.5291  -23.8443   16.7961 H   0  0  0  0  0  0
  -31.1782  -24.7669   16.1421 H   0  0  0  0  0  0
  -31.2333  -23.5066   13.2875 H   0  0  0  0  0  0
  -29.7578  -23.7767   14.2023 H   0  0  0  0  0  0
  -30.1368  -22.1705   13.5878 H   0  0  0  0  0  0
  -33.0805  -22.0912   14.2178 H   0  0  0  0  0  0
  -32.0220  -20.7729   14.6939 H   0  0  0  0  0  0
  -33.0727  -21.5429   15.8824 H   0  0  0  0  0  0
  -29.6081  -22.5674   21.1091 H   0  0  0  0  0  0
  -30.4597  -23.4518   19.8598 H   0  0  0  0  0  0
  -27.8647  -25.2979   18.6268 H   0  0  0  0  0  0
  -29.5674  -25.4792   18.9127 H   0  0  0  0  0  0
  -31.5316  -22.2409   18.1354 H   0  0  0  0  0  0
  -31.5379  -20.6871   17.3693 H   0  0  0  0  0  0
  -29.6023  -22.9538   16.6144 H   0  0  0  0  0  0
  -29.6885  -21.4138   15.8505 H   0  0  0  0  0  0
  -30.3869  -20.6393   19.5324 H   0  0  0  0  0  0
  -29.6819  -19.7129   15.6667 H   0  0  0  0  0  0
  -28.4840  -20.0815   17.3407 H   0  0  0  0  0  0
  -29.0515  -15.4897   20.9054 H   0  0  0  0  0  0
  1 25  1  0  0  0
  1 30  2  0  0  0
  1 89  1  0  0  0
  2  3  1  0  0  0
  2 25  1  0  0  0
  2 93  1  0  0  0
  2 94  1  0  0  0
  3  4  1  0  0  0
  3 95  1  0  0  0
  3 96  1  0  0  0
  4  5  1  0  0  0
  4 97  1  0  0  0
  4 98  1  0  0  0
  5  6  1  0  0  0
  5 26  1  0  0  0
  5 99  1  0  0  0
  6 25  1  0  0  0
  6100  1  0  0  0
  6101  1  0  0  0
  7  8  2  0  0  0
  7 26  1  0  0  0
  7 29  1  0  0  0
  8  9  1  0  0  0
  8 22  1  0  0  0
  9 10  1  0  0  0
  9 27  2  0  0  0
 10 11  2  0  0  0
 10 15  1  0  0  0
 11 12  1  0  0  0
 11102  1  0  0  0
 12 13  2  0  0  0
 12103  1  0  0  0
 13 14  1  0  0  0
 13 31  1  0  0  0
 14 15  2  0  0  0
 14104  1  0  0  0
 15105  1  0  0  0
 16 17  2  0  0  0
 16 21  1  0  0  0
 16 31  1  0  0  0
 17 18  1  0  0  0
 17106  1  0  0  0
 18 19  2  0  0  0
 18107  1  0  0  0
 19 20  1  0  0  0
 19 24  1  0  0  0
 20 21  2  0  0  0
 20108  1  0  0  0
 21 23  1  0  0  0
 22 28  1  0  0  0
 22 32  2  0  0  0
 26 27  1  0  0  0
 28109  1  0  0  0
 28110  1  0  0  0
 29111  1  0  0  0
 29112  1  0  0  0
 33 34  1  0  0  0
 33 66  1  0  0  0
 33 70  2  0  0  0
 34 36  1  0  0  0
 34 59  1  0  0  0
 34113  1  0  0  0
 35 44  2  0  0  0
 35 45  1  0  0  0
 35 68  1  0  0  0
 36 56  1  0  0  0
 36114  1  0  0  0
 37 39  1  0  0  0
 37 47  1  0  0  0
 37 66  1  0  0  0
 37115  1  0  0  0
 38 43  2  0  0  0
 38 46  1  0  0  0
 38 47  1  0  0  0
 39 64  1  0  0  0
 39 67  2  0  0  0
 40 52  1  0  0  0
 40 53  2  0  0  0
 40 58  1  0  0  0
 41116  1  0  0  0
 41117  1  0  0  0
 41118  1  0  0  0
 41 48  1  0  0  0
 42 43  1  0  0  0
 42 66  1  0  0  0
 42119  1  0  0  0
 42120  1  0  0  0
 43 44  1  0  0  0
 44121  1  0  0  0
 45 46  2  0  0  0
 45122  1  0  0  0
 46123  1  0  0  0
 47124  1  0  0  0
 47125  1  0  0  0
 48 56  1  0  0  0
 48 65  1  0  0  0
 48126  1  0  0  0
 49 50  1  0  0  0
 49 53  1  0  0  0
 49 64  1  0  0  0
 49127  1  0  0  0
 50 51  1  0  0  0
 50128  1  0  0  0
 50129  1  0  0  0
 51 52  1  0  0  0
 51130  1  0  0  0
 51131  1  0  0  0
 52132  1  0  0  0
 52133  1  0  0  0
 53 54  1  0  0  0
 54 55  2  0  0  0
 54134  1  0  0  0
 55 57  1  0  0  0
 55135  1  0  0  0
 56 69  2  0  0  0
 57 58  2  0  0  0
 57136  1  0  0  0
 58137  1  0  0  0
 59 60  1  0  0  0
 59 61  1  0  0  0
 59 62  1  0  0  0
 60138  1  0  0  0
 60139  1  0  0  0
 60140  1  0  0  0
 61141  1  0  0  0
 61142  1  0  0  0
 61143  1  0  0  0
 62144  1  0  0  0
 62145  1  0  0  0
 62146  1  0  0  0
 63 65  1  0  0  0
 63147  1  0  0  0
 63148  1  0  0  0
 63149  1  0  0  0
 64150  1  0  0  0
 65151  1  0  0  0
 68 82  1  0  0  0
 71 72  1  0  0  0
 71 74  2  0  0  0
 71152  1  0  0  0
 72 73  2  0  0  0
 72 88  1  0  0  0
 73 75  1  0  0  0
 73 92  1  0  0  0
 74 89  1  0  0  0
 74 92  1  0  0  0
 75 87  2  0  0  0
 75153  1  0  0  0
 76 81  1  0  0  0
 76 82  1  0  0  0
 76 90  2  0  0  0
 77 81  1  0  0  0
 77 85  1  0  0  0
 77 91  2  0  0  0
 78154  1  0  0  0
 78155  1  0  0  0
 78156  1  0  0  0
 78 86  1  0  0  0
 79 86  1  0  0  0
 79157  1  0  0  0
 79158  1  0  0  0
 79159  1  0  0  0
 80 86  1  0  0  0
 80160  1  0  0  0
 80161  1  0  0  0
 80162  1  0  0  0
 81163  1  0  0  0
 81164  1  0  0  0
 82165  1  0  0  0
 82166  1  0  0  0
 83 84  1  0  0  0
 83167  1  0  0  0
 83168  1  0  0  0
 83 85  1  0  0  0
 84 86  1  0  0  0
 84169  1  0  0  0
 84170  1  0  0  0
 85 88  1  0  0  0
 85171  1  0  0  0
 87172  1  0  0  0
 88173  1  0  0  0
 89174  1  0  0  0
M  ISO  4   1 100  68 101  82 101  89 100
M  END
> <chiral flag>
0

> <version>
0

> <s_m_source_file>
/data/baiqing/PycharmProjects/Reinvent-master-3.2/result/LINK_invent/BTK/process_docking_weight1_custom_product_contain_oxygen_bond_distance_aromatic_linkinvent_7_9_3/rearranged_h_0173.sdf

> <i_m_source_file_index>
55

> <r_mmod_Potential_Energy-OPLS-2005>
0.277931779623032

> <r_mmod_Stretch_Energy-OPLS-2005>
39.5234565734863

> <r_mmod_Bend_Energy-OPLS-2005>
124.108940124512

> <r_mmod_Torsional_Energy-OPLS-2005>
278.641082763672

> <r_mmod_Improper_Torsional_Energy-OPLS-2005>
12.638840675354

> <r_mmod_Van_der_Waal_Energy-OPLS-2005>
123.515655517578

> <r_mmod_Electrostatic_Energy-OPLS-2005>
-349.356536865234

> <r_mmod_Solvation_Energy-OPLS-2005>
-251.832214355469

> <b_mmod_Minimization_Converged-OPLS-2005>
0

> <r_mmod_RMS_Derivative-OPLS-2005>
3.77420210838318

$$$$
55
                    3D
 Structure written by MMmdl.
159167  0  0  1  0            999 V2000
  -30.7093  -14.4417   20.6173 C   0  0  0  0  0  0
  -30.4122  -12.2989   19.4221 C   0  0  0  0  0  0
  -29.4902  -12.5196   18.2070 C   0  0  0  0  0  0
  -28.0098  -12.3806   18.6153 C   0  0  0  0  0  0
  -27.6582  -13.2061   19.8830 C   0  0  2  0  0  0
  -28.6983  -12.9732   21.0021 C   0  0  0  0  0  0
  -25.2523  -13.8130   20.5681 C   0  0  0  0  0  0
  -24.1799  -13.0416   20.9188 C   0  0  0  0  0  0
  -24.6365  -11.6876   20.8751 C   0  0  0  0  0  0
  -23.9039  -10.4267   21.0392 C   0  0  0  0  0  0
  -24.3592   -9.4189   21.9175 C   0  0  0  0  0  0
  -23.6272   -8.2225   22.0749 C   0  0  0  0  0  0
  -22.4253   -8.0264   21.3535 C   0  0  0  0  0  0
  -21.9884   -9.0243   20.4643 C   0  0  0  0  0  0
  -22.7207  -10.2125   20.3046 C   0  0  0  0  0  0
  -21.6851   -6.0722   22.5279 C   0  0  0  0  0  0
  -21.4031   -6.5631   23.8218 C   0  0  0  0  0  0
  -21.3674   -5.6780   24.9179 C   0  0  0  0  0  0
  -21.6051   -4.3048   24.7226 C   0  0  0  0  0  0
  -21.8798   -3.8134   23.4348 C   0  0  0  0  0  0
  -21.9181   -4.6947   22.3401 C   0  0  0  0  0  0
  -22.7829  -13.5200   21.1889 C   0  0  0  0  0  0
  -22.1644   -4.2121   21.0983 F   0  0  0  0  0  0
  -21.5621   -3.4544   25.7752 F   0  0  0  0  0  0
  -30.0308  -13.2756   20.4511 N   0  0  0  0  0  0
  -26.2976  -12.9320   20.3383 N   0  0  0  0  0  0
  -25.9283  -11.6481   20.5770 N   0  0  0  0  0  0
  -22.0515  -12.8182   22.0465 N   0  0  0  0  0  0
  -25.4210  -15.1870   20.4114 N   0  0  0  0  0  0
  -31.8275  -14.6432   20.1352 O   0  0  0  0  0  0
  -21.6628   -6.8863   21.4235 O   0  0  0  0  0  0
  -22.3501  -14.5517   20.6754 O   0  0  0  0  0  0
  -24.6122  -31.8665   23.2067 C   0  0  0  0  0  0
  -25.9012  -32.4814   23.8382 C   0  0  1  0  0  0
  -27.2392  -27.4424   20.1138 C   0  0  0  0  0  0
  -25.5875  -33.8613   24.2309 N   0  0  0  0  0  0
  -23.4040  -30.4838   21.5471 C   0  0  2  0  0  0
  -24.8562  -28.9493   20.1202 C   0  0  0  0  0  0
  -22.7424  -29.4606   22.4975 C   0  0  0  0  0  0
  -18.0267  -28.1369   22.8484 C   0  0  0  0  0  0
  -24.1487  -36.7293   23.2632 C   0  0  0  0  0  0
  -25.9306  -30.8369   21.3600 C   0  0  0  0  0  0
  -26.0130  -29.4693   20.7162 C   0  0  0  0  0  0
  -27.2113  -28.7225   20.7078 C   0  0  0  0  0  0
  -26.0681  -26.9293   19.5219 C   0  0  0  0  0  0
  -24.8763  -27.6765   19.5236 C   0  0  0  0  0  0
  -23.6189  -29.8114   20.1632 C   0  0  0  0  0  0
  -25.4107  -36.3092   24.0333 C   0  0  1  0  0  0
  -20.5855  -28.3645   23.1330 C   0  0  2  0  0  0
  -20.6741  -26.9383   22.5417 C   0  0  0  0  0  0
  -19.5726  -26.6387   21.5201 C   0  0  0  0  0  0
  -18.1915  -26.7912   22.1623 C   0  0  0  0  0  0
  -19.1515  -28.8822   23.2904 C   0  0  0  0  0  0
  -18.9434  -30.1431   23.8924 C   0  0  0  0  0  0
  -17.6433  -30.6575   24.0568 C   0  0  0  0  0  0
  -25.9037  -34.9466   23.5122 C   0  0  0  0  0  0
  -16.5331  -29.9076   23.6314 C   0  0  0  0  0  0
  -16.7252  -28.6487   23.0340 C   0  0  0  0  0  0
  -26.4471  -31.6581   25.0702 C   0  0  0  0  0  0
  -25.3758  -31.3676   26.1461 C   0  0  0  0  0  0
  -27.0277  -30.3015   24.6047 C   0  0  0  0  0  0
  -27.6057  -32.4288   25.7463 C   0  0  0  0  0  0
  -27.5577  -37.1793   24.8468 C   0  0  0  0  0  0
  -21.4132  -29.3011   22.3741 N   0  0  0  0  0  0
  -26.4283  -37.3778   23.9418 N   0  0  0  0  0  0
  -24.6667  -31.0763   22.0980 N   0  0  0  0  0  0
  -23.4192  -28.8146   23.3009 O   0  0  0  0  0  0
  -28.3977  -26.7047   20.0578 O   0  0  0  0  0  0
  -26.5597  -34.8909   22.4692 O   0  0  0  0  0  0
  -23.5310  -32.1398   23.7459 O   0  0  0  0  0  0
  -29.5497  -17.8337   21.3307 C   0  0  0  0  0  0
  -31.7117  -17.0177   22.0744 C   0  0  0  0  0  0
  -31.2183  -19.4252   22.1839 C   0  0  0  0  0  0
  -30.4389  -16.7527   21.5260 C   0  0  0  0  0  0
  -29.9219  -19.1655   21.6425 C   0  0  0  0  0  0
  -32.1017  -18.3322   22.3926 C   0  0  0  0  0  0
  -28.2659  -22.0407   19.8614 C   0  0  0  0  0  0
  -28.0296  -24.4182   20.9105 C   0  0  0  0  0  0
  -28.9464  -23.3725   20.2289 C   0  0  0  0  0  0
  -29.0954  -20.7610   20.0518 C   0  0  0  0  0  0
  -28.6199  -25.8182   21.1626 C   0  0  0  0  0  0
  -31.6774  -20.8591   22.4906 C   0  0  0  0  0  0
  -30.0098  -15.4252   21.2155 N   0  0  0  0  0  0
  -28.9869  -20.1939   21.3978 N   0  0  0  0  0  0
  -27.1379  -21.9772   19.3645 O   0  0  0  0  0  0
  -26.8876  -24.1579   21.3056 O   0  0  0  0  0  0
  -33.3486  -18.5212   22.8914 F   0  0  0  0  0  0
  -32.0662  -21.4448   21.3572 F   0  0  0  0  0  0
  -30.6895  -21.5878   23.0148 F   0  0  0  0  0  0
  -32.6893  -20.9158   23.3548 F   0  0  0  0  0  0
  -31.4581  -12.3826   19.1284 H   0  0  0  0  0  0
  -30.2992  -11.2836   19.8068 H   0  0  0  0  0  0
  -29.7307  -11.8119   17.4131 H   0  0  0  0  0  0
  -29.6644  -13.5139   17.7916 H   0  0  0  0  0  0
  -27.8154  -11.3232   18.7976 H   0  0  0  0  0  0
  -27.3642  -12.6721   17.7867 H   0  0  0  0  0  0
  -27.7078  -14.2570   19.5981 H   0  0  0  0  0  0
  -28.6625  -11.9354   21.3394 H   0  0  0  0  0  0
  -28.4549  -13.5687   21.8844 H   0  0  0  0  0  0
  -25.2743   -9.5651   22.4748 H   0  0  0  0  0  0
  -23.9974   -7.4601   22.7469 H   0  0  0  0  0  0
  -21.0816   -8.8753   19.8965 H   0  0  0  0  0  0
  -22.3655  -10.9657   19.6151 H   0  0  0  0  0  0
  -21.2050   -7.6148   23.9705 H   0  0  0  0  0  0
  -21.1529   -6.0537   25.9079 H   0  0  0  0  0  0
  -22.0568   -2.7596   23.2864 H   0  0  0  0  0  0
  -22.4164  -11.9835   22.4814 H   0  0  0  0  0  0
  -21.1165  -13.1222   22.2789 H   0  0  0  0  0  0
  -24.6410  -15.8291   20.4978 H   0  0  0  0  0  0
  -26.2708  -15.6410   20.1025 H   0  0  0  0  0  0
  -26.7099  -32.5541   23.1167 H   0  0  0  0  0  0
  -25.0047  -33.9781   25.0468 H   0  0  0  0  0  0
  -22.6904  -31.2977   21.3999 H   0  0  0  0  0  0
  -23.3736  -35.9639   23.3318 H   0  0  0  0  0  0
  -24.3584  -36.8874   22.2038 H   0  0  0  0  0  0
  -23.7237  -37.6508   23.6633 H   0  0  0  0  0  0
  -26.0384  -31.6035   20.5900 H   0  0  0  0  0  0
  -26.8204  -30.8962   21.9761 H   0  0  0  0  0  0
  -28.1113  -29.1257   21.1510 H   0  0  0  0  0  0
  -26.0790  -25.9495   19.0664 H   0  0  0  0  0  0
  -23.9853  -27.2641   19.0692 H   0  0  0  0  0  0
  -23.7326  -30.5828   19.3992 H   0  0  0  0  0  0
  -22.7465  -29.2245   19.8659 H   0  0  0  0  0  0
  -25.1277  -36.1964   25.0819 H   0  0  0  0  0  0
  -20.9936  -28.3190   24.1452 H   0  0  0  0  0  0
  -20.5606  -26.2245   23.3594 H   0  0  0  0  0  0
  -21.6615  -26.7397   22.1234 H   0  0  0  0  0  0
  -19.6884  -25.6303   21.1210 H   0  0  0  0  0  0
  -19.6676  -27.3212   20.6745 H   0  0  0  0  0  0
  -17.4175  -26.6653   21.4042 H   0  0  0  0  0  0
  -18.0333  -26.0059   22.9026 H   0  0  0  0  0  0
  -19.7914  -30.7241   24.2315 H   0  0  0  0  0  0
  -17.4986  -31.6253   24.5169 H   0  0  0  0  0  0
  -15.5331  -30.2989   23.7600 H   0  0  0  0  0  0
  -15.8659  -28.0819   22.7035 H   0  0  0  0  0  0
  -24.5946  -30.7000   25.7802 H   0  0  0  0  0  0
  -24.8942  -32.2827   26.4913 H   0  0  0  0  0  0
  -25.8138  -30.8852   27.0209 H   0  0  0  0  0  0
  -26.2800  -29.6805   24.1083 H   0  0  0  0  0  0
  -27.4029  -29.7209   25.4484 H   0  0  0  0  0  0
  -27.8659  -30.4321   23.9191 H   0  0  0  0  0  0
  -27.2684  -33.3565   26.2091 H   0  0  0  0  0  0
  -28.3846  -32.6869   25.0278 H   0  0  0  0  0  0
  -28.0758  -31.8380   26.5331 H   0  0  0  0  0  0
  -28.2595  -38.0086   24.7503 H   0  0  0  0  0  0
  -28.1069  -36.2613   24.6317 H   0  0  0  0  0  0
  -27.2302  -37.1469   25.8872 H   0  0  0  0  0  0
  -20.9288  -29.8787   21.7031 H   0  0  0  0  0  0
  -26.0169  -38.2851   24.1448 H   0  0  0  0  0  0
  -28.5657  -17.6401   20.9313 H   0  0  0  0  0  0
  -32.4044  -16.2137   22.2635 H   0  0  0  0  0  0
  -29.7925  -23.1478   20.8791 H   0  0  0  0  0  0
  -29.3661  -23.7999   19.3187 H   0  0  0  0  0  0
  -28.7872  -20.0208   19.3123 H   0  0  0  0  0  0
  -30.1330  -21.0044   19.8287 H   0  0  0  0  0  0
  -29.6903  -25.7213   21.3374 H   0  0  0  0  0  0
  -28.1965  -26.2319   22.0779 H   0  0  0  0  0  0
  -29.0371  -15.2124   21.3765 H   0  0  0  0  0  0
  -29.0594  -20.9392   22.0902 H   0  0  0  0  0  0
  1 25  1  0  0  0
  1 30  2  0  0  0
  1 83  1  0  0  0
  2  3  1  0  0  0
  2 25  1  0  0  0
  2 91  1  0  0  0
  2 92  1  0  0  0
  3  4  1  0  0  0
  3 93  1  0  0  0
  3 94  1  0  0  0
  4  5  1  0  0  0
  4 95  1  0  0  0
  4 96  1  0  0  0
  5  6  1  0  0  0
  5 26  1  0  0  0
  5 97  1  0  0  0
  6 25  1  0  0  0
  6 98  1  0  0  0
  6 99  1  0  0  0
  7  8  2  0  0  0
  7 26  1  0  0  0
  7 29  1  0  0  0
  8  9  1  0  0  0
  8 22  1  0  0  0
  9 10  1  0  0  0
  9 27  2  0  0  0
 10 11  2  0  0  0
 10 15  1  0  0  0
 11 12  1  0  0  0
 11100  1  0  0  0
 12 13  2  0  0  0
 12101  1  0  0  0
 13 14  1  0  0  0
 13 31  1  0  0  0
 14 15  2  0  0  0
 14102  1  0  0  0
 15103  1  0  0  0
 16 17  2  0  0  0
 16 21  1  0  0  0
 16 31  1  0  0  0
 17 18  1  0  0  0
 17104  1  0  0  0
 18 19  2  0  0  0
 18105  1  0  0  0
 19 20  1  0  0  0
 19 24  1  0  0  0
 20 21  2  0  0  0
 20106  1  0  0  0
 21 23  1  0  0  0
 22 28  1  0  0  0
 22 32  2  0  0  0
 26 27  1  0  0  0
 28107  1  0  0  0
 28108  1  0  0  0
 29109  1  0  0  0
 29110  1  0  0  0
 33 34  1  0  0  0
 33 66  1  0  0  0
 33 70  2  0  0  0
 34 36  1  0  0  0
 34 59  1  0  0  0
 34111  1  0  0  0
 35 44  2  0  0  0
 35 45  1  0  0  0
 35 68  1  0  0  0
 36 56  1  0  0  0
 36112  1  0  0  0
 37 39  1  0  0  0
 37 47  1  0  0  0
 37 66  1  0  0  0
 37113  1  0  0  0
 38 43  2  0  0  0
 38 46  1  0  0  0
 38 47  1  0  0  0
 39 64  1  0  0  0
 39 67  2  0  0  0
 40 52  1  0  0  0
 40 53  2  0  0  0
 40 58  1  0  0  0
 41114  1  0  0  0
 41115  1  0  0  0
 41116  1  0  0  0
 41 48  1  0  0  0
 42 43  1  0  0  0
 42 66  1  0  0  0
 42117  1  0  0  0
 42118  1  0  0  0
 43 44  1  0  0  0
 44119  1  0  0  0
 45 46  2  0  0  0
 45120  1  0  0  0
 46121  1  0  0  0
 47122  1  0  0  0
 47123  1  0  0  0
 48 56  1  0  0  0
 48 65  1  0  0  0
 48124  1  0  0  0
 49 50  1  0  0  0
 49 53  1  0  0  0
 49 64  1  0  0  0
 49125  1  0  0  0
 50 51  1  0  0  0
 50126  1  0  0  0
 50127  1  0  0  0
 51 52  1  0  0  0
 51128  1  0  0  0
 51129  1  0  0  0
 52130  1  0  0  0
 52131  1  0  0  0
 53 54  1  0  0  0
 54 55  2  0  0  0
 54132  1  0  0  0
 55 57  1  0  0  0
 55133  1  0  0  0
 56 69  2  0  0  0
 57 58  2  0  0  0
 57134  1  0  0  0
 58135  1  0  0  0
 59 60  1  0  0  0
 59 61  1  0  0  0
 59 62  1  0  0  0
 60136  1  0  0  0
 60137  1  0  0  0
 60138  1  0  0  0
 61139  1  0  0  0
 61140  1  0  0  0
 61141  1  0  0  0
 62142  1  0  0  0
 62143  1  0  0  0
 62144  1  0  0  0
 63 65  1  0  0  0
 63145  1  0  0  0
 63146  1  0  0  0
 63147  1  0  0  0
 64148  1  0  0  0
 65149  1  0  0  0
 68 81  1  0  0  0
 71 74  2  0  0  0
 71 75  1  0  0  0
 71150  1  0  0  0
 72 74  1  0  0  0
 72 76  2  0  0  0
 72151  1  0  0  0
 73 75  2  0  0  0
 73 76  1  0  0  0
 73 82  1  0  0  0
 74 83  1  0  0  0
 75 84  1  0  0  0
 76 87  1  0  0  0
 77 79  1  0  0  0
 77 80  1  0  0  0
 77 85  2  0  0  0
 78 79  1  0  0  0
 78 81  1  0  0  0
 78 86  2  0  0  0
 79152  1  0  0  0
 79153  1  0  0  0
 80 84  1  0  0  0
 80154  1  0  0  0
 80155  1  0  0  0
 81156  1  0  0  0
 81157  1  0  0  0
 82 88  1  0  0  0
 82 89  1  0  0  0
 82 90  1  0  0  0
 83158  1  0  0  0
 84159  1  0  0  0
M  ISO  4   1 100  68 101  81 101  83 100
M  END
> <chiral flag>
0

> <version>
0

> <s_m_source_file>
/data/baiqing/PycharmProjects/Reinvent-master-3.2/result/LINK_invent/BTK/process_docking_weight1_custom_product_contain_oxygen_bond_distance_aromatic_linkinvent_7_9_3/rearranged_h_0173.sdf

> <i_m_source_file_index>
56

> <r_mmod_Potential_Energy-OPLS-2005>
136.325622558594

> <r_mmod_Stretch_Energy-OPLS-2005>
39.2218322753906

> <r_mmod_Bend_Energy-OPLS-2005>
97.7945785522461

> <r_mmod_Torsional_Energy-OPLS-2005>
276.883850097656

> <r_mmod_Improper_Torsional_Energy-OPLS-2005>
9.91386318206787

> <r_mmod_Van_der_Waal_Energy-OPLS-2005>
149.007827758789

> <r_mmod_Electrostatic_Energy-OPLS-2005>
-196.547592163086

> <r_mmod_Solvation_Energy-OPLS-2005>
-249.843276977539

> <b_mmod_Minimization_Converged-OPLS-2005>
0

> <r_mmod_RMS_Derivative-OPLS-2005>
4.87074136734009

$$$$
56
                    3D
 Structure written by MMmdl.
153161  0  0  1  0            999 V2000
  -30.6516  -14.5453   20.5771 C   0  0  0  0  0  0
  -30.4266  -12.3497   19.4355 C   0  0  0  0  0  0
  -29.4976  -12.5311   18.2149 C   0  0  0  0  0  0
  -28.0163  -12.3819   18.6187 C   0  0  0  0  0  0
  -27.6586  -13.2134   19.8788 C   0  0  2  0  0  0
  -28.7027  -13.0055   20.9984 C   0  0  0  0  0  0
  -25.2573  -13.8165   20.5715 C   0  0  0  0  0  0
  -24.1818  -13.0424   20.9182 C   0  0  0  0  0  0
  -24.6383  -11.6903   20.8741 C   0  0  0  0  0  0
  -23.9049  -10.4289   21.0391 C   0  0  0  0  0  0
  -24.3604   -9.4209   21.9170 C   0  0  0  0  0  0
  -23.6280   -8.2239   22.0749 C   0  0  0  0  0  0
  -22.4266   -8.0270   21.3535 C   0  0  0  0  0  0
  -21.9891   -9.0245   20.4643 C   0  0  0  0  0  0
  -22.7214  -10.2128   20.3046 C   0  0  0  0  0  0
  -21.6859   -6.0733   22.5285 C   0  0  0  0  0  0
  -21.4019   -6.5639   23.8218 C   0  0  0  0  0  0
  -21.3656   -5.6785   24.9173 C   0  0  0  0  0  0
  -21.6043   -4.3047   24.7213 C   0  0  0  0  0  0
  -21.8819   -3.8143   23.4329 C   0  0  0  0  0  0
  -21.9188   -4.6963   22.3393 C   0  0  0  0  0  0
  -22.7842  -13.5236   21.1803 C   0  0  0  0  0  0
  -22.1658   -4.2160   21.0959 F   0  0  0  0  0  0
  -21.5627   -3.4520   25.7717 F   0  0  0  0  0  0
  -30.0241  -13.3388   20.4516 N   0  0  0  0  0  0
  -26.3008  -12.9344   20.3405 N   0  0  0  0  0  0
  -25.9321  -11.6505   20.5802 N   0  0  0  0  0  0
  -22.0448  -12.8288   22.0375 N   0  0  0  0  0  0
  -25.4267  -15.1875   20.4140 N   0  0  0  0  0  0
  -31.7819  -14.7212   20.1112 O   0  0  0  0  0  0
  -21.6623   -6.8873   21.4246 O   0  0  0  0  0  0
  -22.3548  -14.5505   20.6584 O   0  0  0  0  0  0
  -24.6165  -31.8669   23.2092 C   0  0  0  0  0  0
  -25.9061  -32.4827   23.8388 C   0  0  1  0  0  0
  -27.2283  -27.4063   20.1152 C   0  0  0  0  0  0
  -25.5909  -33.8622   24.2310 N   0  0  0  0  0  0
  -23.4080  -30.4897   21.5482 C   0  0  2  0  0  0
  -24.8565  -28.9499   20.1191 C   0  0  0  0  0  0
  -22.7419  -29.4657   22.4960 C   0  0  0  0  0  0
  -18.0271  -28.1407   22.8489 C   0  0  0  0  0  0
  -24.1482  -36.7319   23.2633 C   0  0  0  0  0  0
  -25.9383  -30.8262   21.3650 C   0  0  0  0  0  0
  -26.0169  -29.4550   20.7190 C   0  0  0  0  0  0
  -27.2098  -28.6891   20.7166 C   0  0  0  0  0  0
  -26.0549  -26.9224   19.5047 C   0  0  0  0  0  0
  -24.8693  -27.6821   19.5095 C   0  0  0  0  0  0
  -23.6219  -29.8230   20.1632 C   0  0  0  0  0  0
  -25.4109  -36.3100   24.0318 C   0  0  1  0  0  0
  -20.5862  -28.3693   23.1306 C   0  0  2  0  0  0
  -20.6782  -26.9427   22.5420 C   0  0  0  0  0  0
  -19.5751  -26.6396   21.5228 C   0  0  0  0  0  0
  -18.1920  -26.7953   22.1630 C   0  0  0  0  0  0
  -19.1522  -28.8857   23.2896 C   0  0  0  0  0  0
  -18.9453  -30.1470   23.8901 C   0  0  0  0  0  0
  -17.6462  -30.6604   24.0580 C   0  0  0  0  0  0
  -25.9029  -34.9470   23.5098 C   0  0  0  0  0  0
  -16.5348  -29.9121   23.6328 C   0  0  0  0  0  0
  -16.7259  -28.6543   23.0328 C   0  0  0  0  0  0
  -26.4482  -31.6620   25.0731 C   0  0  0  0  0  0
  -25.3726  -31.3792   26.1469 C   0  0  0  0  0  0
  -27.0321  -30.3048   24.6156 C   0  0  0  0  0  0
  -27.6042  -32.4345   25.7517 C   0  0  0  0  0  0
  -27.5565  -37.1823   24.8452 C   0  0  0  0  0  0
  -21.4139  -29.3048   22.3684 N   0  0  0  0  0  0
  -26.4287  -37.3790   23.9385 N   0  0  0  0  0  0
  -24.6733  -31.0745   22.1013 N   0  0  0  0  0  0
  -23.4167  -28.8163   23.3000 O   0  0  0  0  0  0
  -28.3722  -26.6364   20.0481 O   0  0  0  0  0  0
  -26.5576  -34.8929   22.4660 O   0  0  0  0  0  0
  -23.5349  -32.1427   23.7466 O   0  0  0  0  0  0
  -28.3201  -20.9383   21.8134 C   0  0  0  0  0  0
  -27.8299  -19.7058   22.2922 C   0  0  0  0  0  0
  -29.9520  -19.7231   20.4964 C   0  0  0  0  0  0
  -29.4916  -18.4632   20.9807 C   0  0  0  0  0  0
  -29.3907  -20.9729   20.8927 C   0  0  0  0  0  0
  -28.4048  -18.4809   21.8899 C   0  0  0  0  0  0
  -29.6541  -23.3971   20.4314 C   0  0  0  0  0  0
  -28.3884  -24.2096   20.7403 C   0  0  0  0  0  0
  -30.1732  -17.1585   20.4693 C   0  0  0  0  0  0
  -28.5815  -25.7059   21.1324 C   0  0  0  0  0  0
  -29.9099  -15.7833   21.1908 C   0  0  0  0  0  0
  -30.0224  -22.1510   20.4213 N   0  0  0  0  0  0
  -27.2496  -23.7303   20.6980 O   0  0  0  0  0  0
  -27.8971  -17.3367   22.3980 F   0  0  0  0  0  0
  -31.4699  -12.4610   19.1369 H   0  0  0  0  0  0
  -30.3413  -11.3414   19.8434 H   0  0  0  0  0  0
  -29.7470  -11.8082   17.4378 H   0  0  0  0  0  0
  -29.6591  -13.5170   17.7742 H   0  0  0  0  0  0
  -27.8171  -11.3261   18.8024 H   0  0  0  0  0  0
  -27.3742  -12.6675   17.7843 H   0  0  0  0  0  0
  -27.6963  -14.2595   19.5772 H   0  0  0  0  0  0
  -28.7005  -11.9700   21.3384 H   0  0  0  0  0  0
  -28.4590  -13.5963   21.8829 H   0  0  0  0  0  0
  -25.2752   -9.5685   22.4742 H   0  0  0  0  0  0
  -23.9990   -7.4637   22.7486 H   0  0  0  0  0  0
  -21.0816   -8.8749   19.8970 H   0  0  0  0  0  0
  -22.3652  -10.9652   19.6158 H   0  0  0  0  0  0
  -21.2010   -7.6143   23.9735 H   0  0  0  0  0  0
  -21.1491   -6.0493   25.9081 H   0  0  0  0  0  0
  -22.0594   -2.7602   23.2803 H   0  0  0  0  0  0
  -22.4045  -11.9981   22.4850 H   0  0  0  0  0  0
  -21.1064  -13.1375   22.2519 H   0  0  0  0  0  0
  -24.6629  -15.8411   20.5506 H   0  0  0  0  0  0
  -26.2936  -15.6408   20.1558 H   0  0  0  0  0  0
  -26.7143  -32.5527   23.1168 H   0  0  0  0  0  0
  -25.0120  -33.9806   25.0489 H   0  0  0  0  0  0
  -22.6976  -31.3068   21.4063 H   0  0  0  0  0  0
  -23.3724  -35.9674   23.3329 H   0  0  0  0  0  0
  -24.3557  -36.8904   22.2035 H   0  0  0  0  0  0
  -23.7265  -37.6544   23.6643 H   0  0  0  0  0  0
  -26.0435  -31.5887   20.5925 H   0  0  0  0  0  0
  -26.8298  -30.8873   21.9786 H   0  0  0  0  0  0
  -28.1104  -29.0806   21.1687 H   0  0  0  0  0  0
  -26.0596  -25.9537   19.0260 H   0  0  0  0  0  0
  -23.9754  -27.2875   19.0465 H   0  0  0  0  0  0
  -23.7401  -30.6012   19.4079 H   0  0  0  0  0  0
  -22.7443  -29.2495   19.8595 H   0  0  0  0  0  0
  -25.1300  -36.1967   25.0811 H   0  0  0  0  0  0
  -20.9961  -28.3288   24.1423 H   0  0  0  0  0  0
  -20.5712  -26.2305   23.3610 H   0  0  0  0  0  0
  -21.6649  -26.7488   22.1196 H   0  0  0  0  0  0
  -19.6925  -25.6304   21.1256 H   0  0  0  0  0  0
  -19.6711  -27.3210   20.6761 H   0  0  0  0  0  0
  -17.4207  -26.6687   21.4026 H   0  0  0  0  0  0
  -18.0322  -26.0112   22.9036 H   0  0  0  0  0  0
  -19.7931  -30.7289   24.2264 H   0  0  0  0  0  0
  -17.5018  -31.6271   24.5198 H   0  0  0  0  0  0
  -15.5353  -30.3034   23.7652 H   0  0  0  0  0  0
  -15.8660  -28.0887   22.7025 H   0  0  0  0  0  0
  -24.5869  -30.7180   25.7815 H   0  0  0  0  0  0
  -24.8963  -32.2986   26.4883 H   0  0  0  0  0  0
  -25.8038  -30.8971   27.0248 H   0  0  0  0  0  0
  -26.2913  -29.6827   24.1130 H   0  0  0  0  0  0
  -27.3975  -29.7282   25.4658 H   0  0  0  0  0  0
  -27.8786  -30.4340   23.9406 H   0  0  0  0  0  0
  -27.2647  -33.3629   26.2140 H   0  0  0  0  0  0
  -28.3863  -32.6948   25.0371 H   0  0  0  0  0  0
  -28.0719  -31.8447   26.5412 H   0  0  0  0  0  0
  -28.2604  -38.0096   24.7462 H   0  0  0  0  0  0
  -28.1030  -36.2622   24.6334 H   0  0  0  0  0  0
  -27.2258  -37.1540   25.8847 H   0  0  0  0  0  0
  -20.9286  -29.8763   21.6905 H   0  0  0  0  0  0
  -26.0161  -38.2859   24.1408 H   0  0  0  0  0  0
  -27.8727  -21.8415   22.1969 H   0  0  0  0  0  0
  -27.0064  -19.7019   22.9926 H   0  0  0  0  0  0
  -30.7869  -19.7269   19.8092 H   0  0  0  0  0  0
  -30.4518  -24.0757   20.1186 H   0  0  0  0  0  0
  -31.2496  -17.3405   20.4495 H   0  0  0  0  0  0
  -29.8760  -17.0489   19.4245 H   0  0  0  0  0  0
  -29.6018  -25.8488   21.4889 H   0  0  0  0  0  0
  -27.9296  -25.9457   21.9738 H   0  0  0  0  0  0
  -28.8371  -15.6078   21.1549 H   0  0  0  0  0  0
  -30.1816  -15.8580   22.2448 H   0  0  0  0  0  0
  1 25  1  0  0  0
  1 30  2  0  0  0
  1 81  1  0  0  0
  2  3  1  0  0  0
  2 25  1  0  0  0
  2 85  1  0  0  0
  2 86  1  0  0  0
  3  4  1  0  0  0
  3 87  1  0  0  0
  3 88  1  0  0  0
  4  5  1  0  0  0
  4 89  1  0  0  0
  4 90  1  0  0  0
  5  6  1  0  0  0
  5 26  1  0  0  0
  5 91  1  0  0  0
  6 25  1  0  0  0
  6 92  1  0  0  0
  6 93  1  0  0  0
  7  8  2  0  0  0
  7 26  1  0  0  0
  7 29  1  0  0  0
  8  9  1  0  0  0
  8 22  1  0  0  0
  9 10  1  0  0  0
  9 27  2  0  0  0
 10 11  2  0  0  0
 10 15  1  0  0  0
 11 12  1  0  0  0
 11 94  1  0  0  0
 12 13  2  0  0  0
 12 95  1  0  0  0
 13 14  1  0  0  0
 13 31  1  0  0  0
 14 15  2  0  0  0
 14 96  1  0  0  0
 15 97  1  0  0  0
 16 17  2  0  0  0
 16 21  1  0  0  0
 16 31  1  0  0  0
 17 18  1  0  0  0
 17 98  1  0  0  0
 18 19  2  0  0  0
 18 99  1  0  0  0
 19 20  1  0  0  0
 19 24  1  0  0  0
 20 21  2  0  0  0
 20100  1  0  0  0
 21 23  1  0  0  0
 22 28  1  0  0  0
 22 32  2  0  0  0
 26 27  1  0  0  0
 28101  1  0  0  0
 28102  1  0  0  0
 29103  1  0  0  0
 29104  1  0  0  0
 33 34  1  0  0  0
 33 66  1  0  0  0
 33 70  2  0  0  0
 34 36  1  0  0  0
 34 59  1  0  0  0
 34105  1  0  0  0
 35 44  2  0  0  0
 35 45  1  0  0  0
 35 68  1  0  0  0
 36 56  1  0  0  0
 36106  1  0  0  0
 37 39  1  0  0  0
 37 47  1  0  0  0
 37 66  1  0  0  0
 37107  1  0  0  0
 38 43  2  0  0  0
 38 46  1  0  0  0
 38 47  1  0  0  0
 39 64  1  0  0  0
 39 67  2  0  0  0
 40 52  1  0  0  0
 40 53  2  0  0  0
 40 58  1  0  0  0
 41108  1  0  0  0
 41109  1  0  0  0
 41110  1  0  0  0
 41 48  1  0  0  0
 42 43  1  0  0  0
 42 66  1  0  0  0
 42111  1  0  0  0
 42112  1  0  0  0
 43 44  1  0  0  0
 44113  1  0  0  0
 45 46  2  0  0  0
 45114  1  0  0  0
 46115  1  0  0  0
 47116  1  0  0  0
 47117  1  0  0  0
 48 56  1  0  0  0
 48 65  1  0  0  0
 48118  1  0  0  0
 49 50  1  0  0  0
 49 53  1  0  0  0
 49 64  1  0  0  0
 49119  1  0  0  0
 50 51  1  0  0  0
 50120  1  0  0  0
 50121  1  0  0  0
 51 52  1  0  0  0
 51122  1  0  0  0
 51123  1  0  0  0
 52124  1  0  0  0
 52125  1  0  0  0
 53 54  1  0  0  0
 54 55  2  0  0  0
 54126  1  0  0  0
 55 57  1  0  0  0
 55127  1  0  0  0
 56 69  2  0  0  0
 57 58  2  0  0  0
 57128  1  0  0  0
 58129  1  0  0  0
 59 60  1  0  0  0
 59 61  1  0  0  0
 59 62  1  0  0  0
 60130  1  0  0  0
 60131  1  0  0  0
 60132  1  0  0  0
 61133  1  0  0  0
 61134  1  0  0  0
 61135  1  0  0  0
 62136  1  0  0  0
 62137  1  0  0  0
 62138  1  0  0  0
 63 65  1  0  0  0
 63139  1  0  0  0
 63140  1  0  0  0
 63141  1  0  0  0
 64142  1  0  0  0
 65143  1  0  0  0
 68 80  1  0  0  0
 71 72  2  0  0  0
 71 75  1  0  0  0
 71144  1  0  0  0
 72 76  1  0  0  0
 72145  1  0  0  0
 73 74  1  0  0  0
 73 75  2  0  0  0
 73146  1  0  0  0
 74 76  2  0  0  0
 74 79  1  0  0  0
 75 82  1  0  0  0
 76 84  1  0  0  0
 77 78  1  0  0  0
 77 82  2  0  0  0
 77147  1  0  0  0
 78 80  1  0  0  0
 78 83  2  0  0  0
 79 81  1  0  0  0
 79148  1  0  0  0
 79149  1  0  0  0
 80150  1  0  0  0
 80151  1  0  0  0
 81152  1  0  0  0
 81153  1  0  0  0
M  ISO  4   1 100  68 101  80 101  81 100
M  END
> <chiral flag>
0

> <version>
0

> <s_m_source_file>
/data/baiqing/PycharmProjects/Reinvent-master-3.2/result/LINK_invent/BTK/process_docking_weight1_custom_product_contain_oxygen_bond_distance_aromatic_linkinvent_7_9_3/rearranged_h_0173.sdf

> <i_m_source_file_index>
57

> <r_mmod_Potential_Energy-OPLS-2005>
56.5975875854492

> <r_mmod_Stretch_Energy-OPLS-2005>
53.4453048706055

> <r_mmod_Bend_Energy-OPLS-2005>
148.174743652344

> <r_mmod_Torsional_Energy-OPLS-2005>
210.839370727539

> <r_mmod_Improper_Torsional_Energy-OPLS-2005>
3.2309091091156

> <r_mmod_Van_der_Waal_Energy-OPLS-2005>
142.054962158203

> <r_mmod_Electrostatic_Energy-OPLS-2005>
-311.044067382812

> <r_mmod_Solvation_Energy-OPLS-2005>
-209.094299316406

> <b_mmod_Minimization_Converged-OPLS-2005>
0

> <r_mmod_RMS_Derivative-OPLS-2005>
3.28243637084961

$$$$
57
                    3D
 Structure written by MMmdl.
153161  0  0  1  0            999 V2000
  -30.7061  -14.4863   20.5785 C   0  0  0  0  0  0
  -30.4221  -12.3167   19.4265 C   0  0  0  0  0  0
  -29.4931  -12.5043   18.2092 C   0  0  0  0  0  0
  -28.0162  -12.3609   18.6247 C   0  0  0  0  0  0
  -27.6614  -13.2087   19.8755 C   0  0  2  0  0  0
  -28.7041  -13.0011   20.9984 C   0  0  0  0  0  0
  -25.2593  -13.8173   20.5694 C   0  0  0  0  0  0
  -24.1840  -13.0441   20.9164 C   0  0  0  0  0  0
  -24.6397  -11.6911   20.8726 C   0  0  0  0  0  0
  -23.9065  -10.4293   21.0402 C   0  0  0  0  0  0
  -24.3617   -9.4209   21.9179 C   0  0  0  0  0  0
  -23.6294   -8.2245   22.0753 C   0  0  0  0  0  0
  -22.4273   -8.0283   21.3546 C   0  0  0  0  0  0
  -21.9909   -9.0256   20.4644 C   0  0  0  0  0  0
  -22.7239  -10.2133   20.3052 C   0  0  0  0  0  0
  -21.6850   -6.0738   22.5279 C   0  0  0  0  0  0
  -21.4014   -6.5640   23.8212 C   0  0  0  0  0  0
  -21.3659   -5.6794   24.9173 C   0  0  0  0  0  0
  -21.6046   -4.3059   24.7224 C   0  0  0  0  0  0
  -21.8819   -3.8150   23.4346 C   0  0  0  0  0  0
  -21.9191   -4.6966   22.3403 C   0  0  0  0  0  0
  -22.7865  -13.5236   21.1837 C   0  0  0  0  0  0
  -22.1661   -4.2154   21.0981 F   0  0  0  0  0  0
  -21.5627   -3.4542   25.7735 F   0  0  0  0  0  0
  -30.0334  -13.3086   20.4435 N   0  0  0  0  0  0
  -26.3028  -12.9341   20.3380 N   0  0  0  0  0  0
  -25.9327  -11.6499   20.5773 N   0  0  0  0  0  0
  -22.0514  -12.8223   22.0396 N   0  0  0  0  0  0
  -25.4336  -15.1895   20.4158 N   0  0  0  0  0  0
  -31.8188  -14.6654   20.0771 O   0  0  0  0  0  0
  -21.6638   -6.8879   21.4241 O   0  0  0  0  0  0
  -22.3547  -14.5547   20.6697 O   0  0  0  0  0  0
  -24.6176  -31.8662   23.2086 C   0  0  0  0  0  0
  -25.9062  -32.4808   23.8382 C   0  0  1  0  0  0
  -27.2243  -27.4105   20.1030 C   0  0  0  0  0  0
  -25.5919  -33.8609   24.2317 N   0  0  0  0  0  0
  -23.4068  -30.4903   21.5490 C   0  0  2  0  0  0
  -24.8544  -28.9593   20.1072 C   0  0  0  0  0  0
  -22.7432  -29.4650   22.4975 C   0  0  0  0  0  0
  -18.0274  -28.1373   22.8483 C   0  0  0  0  0  0
  -24.1487  -36.7309   23.2637 C   0  0  0  0  0  0
  -25.9389  -30.8256   21.3652 C   0  0  0  0  0  0
  -26.0171  -29.4613   20.7067 C   0  0  0  0  0  0
  -27.2105  -28.6959   20.6982 C   0  0  0  0  0  0
  -26.0499  -26.9379   19.4795 C   0  0  0  0  0  0
  -24.8678  -27.6993   19.4858 C   0  0  0  0  0  0
  -23.6157  -29.8259   20.1621 C   0  0  0  0  0  0
  -25.4108  -36.3104   24.0339 C   0  0  1  0  0  0
  -20.5868  -28.3669   23.1306 C   0  0  2  0  0  0
  -20.6764  -26.9400   22.5417 C   0  0  0  0  0  0
  -19.5745  -26.6378   21.5206 C   0  0  0  0  0  0
  -18.1917  -26.7918   22.1614 C   0  0  0  0  0  0
  -19.1524  -28.8837   23.2883 C   0  0  0  0  0  0
  -18.9456  -30.1439   23.8901 C   0  0  0  0  0  0
  -17.6461  -30.6582   24.0560 C   0  0  0  0  0  0
  -25.9042  -34.9470   23.5122 C   0  0  0  0  0  0
  -16.5351  -29.9081   23.6329 C   0  0  0  0  0  0
  -16.7265  -28.6497   23.0350 C   0  0  0  0  0  0
  -26.4483  -31.6598   25.0720 C   0  0  0  0  0  0
  -25.3751  -31.3707   26.1473 C   0  0  0  0  0  0
  -27.0314  -30.3040   24.6103 C   0  0  0  0  0  0
  -27.6054  -32.4327   25.7483 C   0  0  0  0  0  0
  -27.5584  -37.1796   24.8461 C   0  0  0  0  0  0
  -21.4156  -29.3038   22.3723 N   0  0  0  0  0  0
  -26.4291  -37.3793   23.9418 N   0  0  0  0  0  0
  -24.6725  -31.0749   22.0993 N   0  0  0  0  0  0
  -23.4193  -28.8188   23.3025 O   0  0  0  0  0  0
  -28.3359  -26.5916   20.1513 O   0  0  0  0  0  0
  -26.5597  -34.8926   22.4675 O   0  0  0  0  0  0
  -23.5365  -32.1422   23.7477 O   0  0  0  0  0  0
  -31.0314  -19.6139   21.5859 C   0  0  0  0  0  0
  -31.9987  -18.6229   21.8403 C   0  0  0  0  0  0
  -29.7208  -19.2615   21.1870 C   0  0  0  0  0  0
  -30.3917  -16.8676   21.2771 C   0  0  0  0  0  0
  -31.6830  -17.2584   21.7074 C   0  0  0  0  0  0
  -29.4155  -17.8724   21.0341 C   0  0  0  0  0  0
  -28.6621  -20.3427   21.0493 C   0  0  0  0  0  0
  -28.8064  -24.1125   20.3836 C   0  0  0  0  0  0
  -28.1372  -22.7534   20.7048 C   0  0  0  0  0  0
  -28.0860  -25.3797   20.9116 C   0  0  0  0  0  0
  -30.0129  -15.4889   21.1589 N   0  0  0  0  0  0
  -29.0516  -21.5897   20.7024 N   0  0  0  0  0  0
  -27.4761  -20.0887   21.2712 O   0  0  0  0  0  0
  -29.8699  -24.1714   19.7558 O   0  0  0  0  0  0
  -32.6181  -16.3390   22.0483 F   0  0  0  0  0  0
  -28.1751  -17.4699   20.6562 F   0  0  0  0  0  0
  -31.4665  -12.4112   19.1241 H   0  0  0  0  0  0
  -30.3230  -11.3085   19.8309 H   0  0  0  0  0  0
  -29.7345  -11.7753   17.4346 H   0  0  0  0  0  0
  -29.6577  -13.4878   17.7655 H   0  0  0  0  0  0
  -27.8330  -11.3055   18.8306 H   0  0  0  0  0  0
  -27.3627  -12.6241   17.7918 H   0  0  0  0  0  0
  -27.7017  -14.2545   19.5699 H   0  0  0  0  0  0
  -28.6836  -11.9671   21.3465 H   0  0  0  0  0  0
  -28.4629  -13.6053   21.8737 H   0  0  0  0  0  0
  -25.2765   -9.5682   22.4750 H   0  0  0  0  0  0
  -24.0002   -7.4637   22.7474 H   0  0  0  0  0  0
  -21.0839   -8.8776   19.8952 H   0  0  0  0  0  0
  -22.3702  -10.9672   19.6158 H   0  0  0  0  0  0
  -21.2007   -7.6143   23.9716 H   0  0  0  0  0  0
  -21.1482   -6.0524   25.9078 H   0  0  0  0  0  0
  -22.0597   -2.7613   23.2845 H   0  0  0  0  0  0
  -22.4135  -11.9872   22.4757 H   0  0  0  0  0  0
  -21.1140  -13.1256   22.2630 H   0  0  0  0  0  0
  -24.6735  -15.8479   20.5467 H   0  0  0  0  0  0
  -26.3020  -15.6397   20.1526 H   0  0  0  0  0  0
  -26.7134  -32.5515   23.1148 H   0  0  0  0  0  0
  -25.0102  -33.9768   25.0484 H   0  0  0  0  0  0
  -22.6959  -31.3078   21.4099 H   0  0  0  0  0  0
  -23.3757  -35.9634   23.3292 H   0  0  0  0  0  0
  -24.3595  -36.8933   22.2057 H   0  0  0  0  0  0
  -23.7228  -37.6505   23.6661 H   0  0  0  0  0  0
  -26.0554  -31.5940   20.5998 H   0  0  0  0  0  0
  -26.8247  -30.8760   21.9863 H   0  0  0  0  0  0
  -28.1053  -29.0712   21.1747 H   0  0  0  0  0  0
  -26.0406  -25.9683   19.0023 H   0  0  0  0  0  0
  -23.9767  -27.3096   19.0132 H   0  0  0  0  0  0
  -23.7208  -30.6016   19.4028 H   0  0  0  0  0  0
  -22.7395  -29.2458   19.8666 H   0  0  0  0  0  0
  -25.1275  -36.1971   25.0834 H   0  0  0  0  0  0
  -20.9947  -28.3232   24.1431 H   0  0  0  0  0  0
  -20.5662  -26.2274   23.3606 H   0  0  0  0  0  0
  -21.6633  -26.7433   22.1212 H   0  0  0  0  0  0
  -19.6906  -25.6289   21.1236 H   0  0  0  0  0  0
  -19.6691  -27.3189   20.6738 H   0  0  0  0  0  0
  -17.4192  -26.6687   21.4005 H   0  0  0  0  0  0
  -18.0300  -26.0046   22.8994 H   0  0  0  0  0  0
  -19.7937  -30.7246   24.2279 H   0  0  0  0  0  0
  -17.5021  -31.6268   24.5146 H   0  0  0  0  0  0
  -15.5350  -30.2987   23.7654 H   0  0  0  0  0  0
  -15.8661  -28.0822   22.7070 H   0  0  0  0  0  0
  -24.5943  -30.7028   25.7822 H   0  0  0  0  0  0
  -24.8928  -32.2862   26.4909 H   0  0  0  0  0  0
  -25.8116  -30.8901   27.0238 H   0  0  0  0  0  0
  -26.2848  -29.6799   24.1176 H   0  0  0  0  0  0
  -27.4103  -29.7283   25.4560 H   0  0  0  0  0  0
  -27.8680  -30.4357   23.9234 H   0  0  0  0  0  0
  -27.2666  -33.3623   26.2064 H   0  0  0  0  0  0
  -28.3854  -32.6892   25.0303 H   0  0  0  0  0  0
  -28.0729  -31.8453   26.5395 H   0  0  0  0  0  0
  -28.2577  -38.0113   24.7541 H   0  0  0  0  0  0
  -28.1099  -36.2651   24.6237 H   0  0  0  0  0  0
  -27.2315  -37.1388   25.8863 H   0  0  0  0  0  0
  -20.9325  -29.8787   21.6965 H   0  0  0  0  0  0
  -26.0182  -38.2865   24.1443 H   0  0  0  0  0  0
  -31.3007  -20.6490   21.7415 H   0  0  0  0  0  0
  -32.9862  -18.9080   22.1738 H   0  0  0  0  0  0
  -27.3396  -22.5885   19.9793 H   0  0  0  0  0  0
  -27.6605  -22.8301   21.6835 H   0  0  0  0  0  0
  -28.4103  -25.5489   21.9379 H   0  0  0  0  0  0
  -27.0221  -25.1487   20.9724 H   0  0  0  0  0  0
  -29.0530  -15.2810   21.3832 H   0  0  0  0  0  0
  -30.0228  -21.7649   20.4833 H   0  0  0  0  0  0
  1 25  1  0  0  0
  1 30  2  0  0  0
  1 81  1  0  0  0
  2  3  1  0  0  0
  2 25  1  0  0  0
  2 87  1  0  0  0
  2 88  1  0  0  0
  3  4  1  0  0  0
  3 89  1  0  0  0
  3 90  1  0  0  0
  4  5  1  0  0  0
  4 91  1  0  0  0
  4 92  1  0  0  0
  5  6  1  0  0  0
  5 26  1  0  0  0
  5 93  1  0  0  0
  6 25  1  0  0  0
  6 94  1  0  0  0
  6 95  1  0  0  0
  7  8  2  0  0  0
  7 26  1  0  0  0
  7 29  1  0  0  0
  8  9  1  0  0  0
  8 22  1  0  0  0
  9 10  1  0  0  0
  9 27  2  0  0  0
 10 11  2  0  0  0
 10 15  1  0  0  0
 11 12  1  0  0  0
 11 96  1  0  0  0
 12 13  2  0  0  0
 12 97  1  0  0  0
 13 14  1  0  0  0
 13 31  1  0  0  0
 14 15  2  0  0  0
 14 98  1  0  0  0
 15 99  1  0  0  0
 16 17  2  0  0  0
 16 21  1  0  0  0
 16 31  1  0  0  0
 17 18  1  0  0  0
 17100  1  0  0  0
 18 19  2  0  0  0
 18101  1  0  0  0
 19 20  1  0  0  0
 19 24  1  0  0  0
 20 21  2  0  0  0
 20102  1  0  0  0
 21 23  1  0  0  0
 22 28  1  0  0  0
 22 32  2  0  0  0
 26 27  1  0  0  0
 28103  1  0  0  0
 28104  1  0  0  0
 29105  1  0  0  0
 29106  1  0  0  0
 33 34  1  0  0  0
 33 66  1  0  0  0
 33 70  2  0  0  0
 34 36  1  0  0  0
 34 59  1  0  0  0
 34107  1  0  0  0
 35 44  2  0  0  0
 35 45  1  0  0  0
 35 68  1  0  0  0
 36 56  1  0  0  0
 36108  1  0  0  0
 37 39  1  0  0  0
 37 47  1  0  0  0
 37 66  1  0  0  0
 37109  1  0  0  0
 38 43  2  0  0  0
 38 46  1  0  0  0
 38 47  1  0  0  0
 39 64  1  0  0  0
 39 67  2  0  0  0
 40 52  1  0  0  0
 40 53  2  0  0  0
 40 58  1  0  0  0
 41110  1  0  0  0
 41111  1  0  0  0
 41112  1  0  0  0
 41 48  1  0  0  0
 42 43  1  0  0  0
 42 66  1  0  0  0
 42113  1  0  0  0
 42114  1  0  0  0
 43 44  1  0  0  0
 44115  1  0  0  0
 45 46  2  0  0  0
 45116  1  0  0  0
 46117  1  0  0  0
 47118  1  0  0  0
 47119  1  0  0  0
 48 56  1  0  0  0
 48 65  1  0  0  0
 48120  1  0  0  0
 49 50  1  0  0  0
 49 53  1  0  0  0
 49 64  1  0  0  0
 49121  1  0  0  0
 50 51  1  0  0  0
 50122  1  0  0  0
 50123  1  0  0  0
 51 52  1  0  0  0
 51124  1  0  0  0
 51125  1  0  0  0
 52126  1  0  0  0
 52127  1  0  0  0
 53 54  1  0  0  0
 54 55  2  0  0  0
 54128  1  0  0  0
 55 57  1  0  0  0
 55129  1  0  0  0
 56 69  2  0  0  0
 57 58  2  0  0  0
 57130  1  0  0  0
 58131  1  0  0  0
 59 60  1  0  0  0
 59 61  1  0  0  0
 59 62  1  0  0  0
 60132  1  0  0  0
 60133  1  0  0  0
 60134  1  0  0  0
 61135  1  0  0  0
 61136  1  0  0  0
 61137  1  0  0  0
 62138  1  0  0  0
 62139  1  0  0  0
 62140  1  0  0  0
 63 65  1  0  0  0
 63141  1  0  0  0
 63142  1  0  0  0
 63143  1  0  0  0
 64144  1  0  0  0
 65145  1  0  0  0
 68 80  1  0  0  0
 71 72  2  0  0  0
 71 73  1  0  0  0
 71146  1  0  0  0
 72 75  1  0  0  0
 72147  1  0  0  0
 73 76  2  0  0  0
 73 77  1  0  0  0
 74 75  2  0  0  0
 74 76  1  0  0  0
 74 81  1  0  0  0
 75 85  1  0  0  0
 76 86  1  0  0  0
 77 82  1  0  0  0
 77 83  2  0  0  0
 78 79  1  0  0  0
 78 80  1  0  0  0
 78 84  2  0  0  0
 79 82  1  0  0  0
 79148  1  0  0  0
 79149  1  0  0  0
 80150  1  0  0  0
 80151  1  0  0  0
 81152  1  0  0  0
 82153  1  0  0  0
M  ISO  4   1 100  68 101  80 101  81 100
M  END
> <chiral flag>
0

> <version>
0

> <s_m_source_file>
/data/baiqing/PycharmProjects/Reinvent-master-3.2/result/LINK_invent/BTK/process_docking_weight1_custom_product_contain_oxygen_bond_distance_aromatic_linkinvent_7_9_3/rearranged_h_0173.sdf

> <i_m_source_file_index>
58

> <r_mmod_Potential_Energy-OPLS-2005>
-173.812469482422

> <r_mmod_Stretch_Energy-OPLS-2005>
44.3873634338379

> <r_mmod_Bend_Energy-OPLS-2005>
96.1164779663086

> <r_mmod_Torsional_Energy-OPLS-2005>
249.626876831055

> <r_mmod_Improper_Torsional_Energy-OPLS-2005>
4.21225214004517

> <r_mmod_Van_der_Waal_Energy-OPLS-2005>
156.233825683594

> <r_mmod_Electrostatic_Energy-OPLS-2005>
-497.491760253906

> <r_mmod_Solvation_Energy-OPLS-2005>
-244.599456787109

> <b_mmod_Minimization_Converged-OPLS-2005>
0

> <r_mmod_RMS_Derivative-OPLS-2005>
1.06542134284973

$$$$
58
                    3D
 Structure written by MMmdl.
156164  0  0  1  0            999 V2000
  -30.7076  -14.5260   20.5355 C   0  0  0  0  0  0
  -30.4132  -12.3321   19.4335 C   0  0  0  0  0  0
  -29.4838  -12.4747   18.2114 C   0  0  0  0  0  0
  -28.0098  -12.3365   18.6336 C   0  0  0  0  0  0
  -27.6485  -13.2150   19.8602 C   0  0  2  0  0  0
  -28.6945  -13.0681   20.9884 C   0  0  0  0  0  0
  -25.2545  -13.8202   20.5699 C   0  0  0  0  0  0
  -24.1813  -13.0457   20.9231 C   0  0  0  0  0  0
  -24.6370  -11.6936   20.8771 C   0  0  0  0  0  0
  -23.9049  -10.4307   21.0429 C   0  0  0  0  0  0
  -24.3603   -9.4220   21.9204 C   0  0  0  0  0  0
  -23.6284   -8.2246   22.0759 C   0  0  0  0  0  0
  -22.4275   -8.0282   21.3536 C   0  0  0  0  0  0
  -21.9913   -9.0260   20.4641 C   0  0  0  0  0  0
  -22.7231  -10.2151   20.3063 C   0  0  0  0  0  0
  -21.6848   -6.0740   22.5276 C   0  0  0  0  0  0
  -21.4009   -6.5641   23.8213 C   0  0  0  0  0  0
  -21.3659   -5.6795   24.9176 C   0  0  0  0  0  0
  -21.6039   -4.3056   24.7225 C   0  0  0  0  0  0
  -21.8818   -3.8150   23.4345 C   0  0  0  0  0  0
  -21.9192   -4.6967   22.3402 C   0  0  0  0  0  0
  -22.7827  -13.5252   21.1878 C   0  0  0  0  0  0
  -22.1660   -4.2149   21.0980 F   0  0  0  0  0  0
  -21.5631   -3.4542   25.7739 F   0  0  0  0  0  0
  -30.0160  -13.3587   20.4129 N   0  0  0  0  0  0
  -26.2962  -12.9371   20.3345 N   0  0  0  0  0  0
  -25.9297  -11.6538   20.5807 N   0  0  0  0  0  0
  -22.0457  -12.8230   22.0412 N   0  0  0  0  0  0
  -25.4298  -15.1912   20.4089 N   0  0  0  0  0  0
  -31.8689  -14.6376   20.1327 O   0  0  0  0  0  0
  -21.6637   -6.8878   21.4234 O   0  0  0  0  0  0
  -22.3518  -14.5552   20.6724 O   0  0  0  0  0  0
  -24.6223  -31.8670   23.2042 C   0  0  0  0  0  0
  -25.9105  -32.4820   23.8359 C   0  0  1  0  0  0
  -27.2441  -27.4029   20.1084 C   0  0  0  0  0  0
  -25.5926  -33.8607   24.2288 N   0  0  0  0  0  0
  -23.4148  -30.4864   21.5469 C   0  0  2  0  0  0
  -24.8643  -28.9491   20.1137 C   0  0  0  0  0  0
  -22.7468  -29.4669   22.4986 C   0  0  0  0  0  0
  -18.0310  -28.1368   22.8515 C   0  0  0  0  0  0
  -24.1494  -36.7293   23.2648 C   0  0  0  0  0  0
  -25.9457  -30.8212   21.3652 C   0  0  0  0  0  0
  -26.0264  -29.4551   20.7094 C   0  0  0  0  0  0
  -27.2241  -28.6936   20.6965 C   0  0  0  0  0  0
  -26.0662  -26.9271   19.4930 C   0  0  0  0  0  0
  -24.8815  -27.6867   19.4960 C   0  0  0  0  0  0
  -23.6243  -29.8143   20.1639 C   0  0  0  0  0  0
  -25.4119  -36.3093   24.0335 C   0  0  1  0  0  0
  -20.5908  -28.3697   23.1286 C   0  0  2  0  0  0
  -20.6803  -26.9424   22.5405 C   0  0  0  0  0  0
  -19.5776  -26.6391   21.5215 C   0  0  0  0  0  0
  -18.1958  -26.7923   22.1632 C   0  0  0  0  0  0
  -19.1554  -28.8845   23.2909 C   0  0  0  0  0  0
  -18.9486  -30.1450   23.8918 C   0  0  0  0  0  0
  -17.6485  -30.6587   24.0564 C   0  0  0  0  0  0
  -25.9057  -34.9475   23.5115 C   0  0  0  0  0  0
  -16.5378  -29.9078   23.6324 C   0  0  0  0  0  0
  -16.7294  -28.6489   23.0360 C   0  0  0  0  0  0
  -26.4479  -31.6607   25.0712 C   0  0  0  0  0  0
  -25.3711  -31.3681   26.1440 C   0  0  0  0  0  0
  -27.0365  -30.3070   24.6104 C   0  0  0  0  0  0
  -27.6059  -32.4336   25.7468 C   0  0  0  0  0  0
  -27.5584  -37.1798   24.8467 C   0  0  0  0  0  0
  -21.4197  -29.3057   22.3683 N   0  0  0  0  0  0
  -26.4300  -37.3772   23.9397 N   0  0  0  0  0  0
  -24.6790  -31.0722   22.0972 N   0  0  0  0  0  0
  -23.4206  -28.8241   23.3089 O   0  0  0  0  0  0
  -28.3751  -26.6008   20.1294 O   0  0  0  0  0  0
  -26.5641  -34.8947   22.4693 O   0  0  0  0  0  0
  -23.5394  -32.1443   23.7393 O   0  0  0  0  0  0
  -32.2433  -18.3035   22.2869 C   0  0  0  0  0  0
  -31.7488  -17.0487   21.9053 C   0  0  0  0  0  0
  -29.7861  -18.1294   20.9666 C   0  0  0  0  0  0
  -31.5385  -19.5020   22.0256 C   0  0  0  0  0  0
  -30.5144  -16.9303   21.2371 C   0  0  0  0  0  0
  -30.2907  -19.4241   21.3197 C   0  0  0  0  0  0
  -32.1315  -20.7651   22.5681 C   0  0  0  0  0  0
  -28.8797  -22.8608   20.7166 C   0  0  0  0  0  0
  -29.1405  -24.1792   20.4680 C   0  0  0  0  0  0
  -29.8042  -21.7491   20.4529 C   0  0  0  0  0  0
  -28.1820  -25.3359   20.8203 C   0  0  0  0  0  0
  -33.0959  -20.8408   23.3903 N   0  0  0  0  0  0
  -29.4650  -20.5910   21.0771 N   0  0  0  0  0  0
  -29.9976  -15.6215   20.9158 N   0  0  0  0  0  0
  -30.8231  -21.8479   19.7637 O   0  0  0  0  0  0
  -30.2719  -24.6419   19.9038 O   0  0  0  0  0  0
  -31.4554  -12.4255   19.1227 H   0  0  0  0  0  0
  -30.3218  -11.3380   19.8751 H   0  0  0  0  0  0
  -29.7231  -11.7164   17.4650 H   0  0  0  0  0  0
  -29.6424  -13.4405   17.7315 H   0  0  0  0  0  0
  -27.8335  -11.2861   18.8712 H   0  0  0  0  0  0
  -27.3505  -12.5683   17.7968 H   0  0  0  0  0  0
  -27.6711  -14.2485   19.5150 H   0  0  0  0  0  0
  -28.6824  -12.0579   21.4010 H   0  0  0  0  0  0
  -28.4603  -13.7329   21.8225 H   0  0  0  0  0  0
  -25.2739   -9.5707   22.4801 H   0  0  0  0  0  0
  -23.9992   -7.4640   22.7484 H   0  0  0  0  0  0
  -21.0847   -8.8773   19.8942 H   0  0  0  0  0  0
  -22.3677  -10.9695   19.6182 H   0  0  0  0  0  0
  -21.1992   -7.6150   23.9711 H   0  0  0  0  0  0
  -21.1482   -6.0529   25.9078 H   0  0  0  0  0  0
  -22.0596   -2.7609   23.2848 H   0  0  0  0  0  0
  -22.4052  -11.9868   22.4769 H   0  0  0  0  0  0
  -21.1078  -13.1271   22.2624 H   0  0  0  0  0  0
  -24.6704  -15.8550   20.5200 H   0  0  0  0  0  0
  -26.2769  -15.6176   20.0555 H   0  0  0  0  0  0
  -26.7210  -32.5517   23.1150 H   0  0  0  0  0  0
  -25.0023  -33.9740   25.0399 H   0  0  0  0  0  0
  -22.7089  -31.3063   21.4030 H   0  0  0  0  0  0
  -23.3767  -35.9615   23.3321 H   0  0  0  0  0  0
  -24.3593  -36.8883   22.2053 H   0  0  0  0  0  0
  -23.7243  -37.6497   23.6675 H   0  0  0  0  0  0
  -26.0720  -31.5887   20.5997 H   0  0  0  0  0  0
  -26.8256  -30.8670   21.9928 H   0  0  0  0  0  0
  -28.1215  -29.0811   21.1610 H   0  0  0  0  0  0
  -26.0576  -25.9554   19.0197 H   0  0  0  0  0  0
  -23.9921  -27.2907   19.0243 H   0  0  0  0  0  0
  -23.7326  -30.5850   19.3993 H   0  0  0  0  0  0
  -22.7479  -29.2292   19.8761 H   0  0  0  0  0  0
  -25.1300  -36.1957   25.0824 H   0  0  0  0  0  0
  -21.0015  -28.3281   24.1399 H   0  0  0  0  0  0
  -20.5721  -26.2312   23.3609 H   0  0  0  0  0  0
  -21.6673  -26.7479   22.1181 H   0  0  0  0  0  0
  -19.6949  -25.6302   21.1245 H   0  0  0  0  0  0
  -19.6685  -27.3207   20.6745 H   0  0  0  0  0  0
  -17.4223  -26.6707   21.4027 H   0  0  0  0  0  0
  -18.0341  -26.0037   22.8988 H   0  0  0  0  0  0
  -19.7962  -30.7257   24.2291 H   0  0  0  0  0  0
  -17.5044  -31.6266   24.5170 H   0  0  0  0  0  0
  -15.5376  -30.2980   23.7631 H   0  0  0  0  0  0
  -15.8710  -28.0804   22.7053 H   0  0  0  0  0  0
  -24.5897  -30.7054   25.7698 H   0  0  0  0  0  0
  -24.8912  -32.2822   26.4938 H   0  0  0  0  0  0
  -25.8038  -30.8772   27.0172 H   0  0  0  0  0  0
  -26.2934  -29.6772   24.1209 H   0  0  0  0  0  0
  -27.4201  -29.7358   25.4564 H   0  0  0  0  0  0
  -27.8723  -30.4401   23.9236 H   0  0  0  0  0  0
  -27.2707  -33.3648   26.2051 H   0  0  0  0  0  0
  -28.3858  -32.6870   25.0273 H   0  0  0  0  0  0
  -28.0770  -31.8467   26.5356 H   0  0  0  0  0  0
  -28.2596  -38.0102   24.7542 H   0  0  0  0  0  0
  -28.1083  -36.2631   24.6281 H   0  0  0  0  0  0
  -27.2310  -37.1421   25.8873 H   0  0  0  0  0  0
  -20.9396  -29.8718   21.6826 H   0  0  0  0  0  0
  -26.0199  -38.2855   24.1378 H   0  0  0  0  0  0
  -33.1871  -18.3243   22.8125 H   0  0  0  0  0  0
  -32.3272  -16.1728   22.1642 H   0  0  0  0  0  0
  -28.8265  -18.0551   20.4752 H   0  0  0  0  0  0
  -31.6950  -21.7039   22.2290 H   0  0  0  0  0  0
  -27.9246  -22.6237   21.1630 H   0  0  0  0  0  0
  -28.2865  -25.5319   21.8882 H   0  0  0  0  0  0
  -27.1700  -24.9508   20.6981 H   0  0  0  0  0  0
  -33.4340  -19.9263   23.6704 H   0  0  0  0  0  0
  -28.5414  -20.5699   21.4888 H   0  0  0  0  0  0
  -28.9996  -15.4962   20.9820 H   0  0  0  0  0  0
  -30.8297  -23.8922   19.7167 H   0  0  0  0  0  0
  1 25  1  0  0  0
  1 30  2  0  0  0
  1 84  1  0  0  0
  2  3  1  0  0  0
  2 25  1  0  0  0
  2 87  1  0  0  0
  2 88  1  0  0  0
  3  4  1  0  0  0
  3 89  1  0  0  0
  3 90  1  0  0  0
  4  5  1  0  0  0
  4 91  1  0  0  0
  4 92  1  0  0  0
  5  6  1  0  0  0
  5 26  1  0  0  0
  5 93  1  0  0  0
  6 25  1  0  0  0
  6 94  1  0  0  0
  6 95  1  0  0  0
  7  8  2  0  0  0
  7 26  1  0  0  0
  7 29  1  0  0  0
  8  9  1  0  0  0
  8 22  1  0  0  0
  9 10  1  0  0  0
  9 27  2  0  0  0
 10 11  2  0  0  0
 10 15  1  0  0  0
 11 12  1  0  0  0
 11 96  1  0  0  0
 12 13  2  0  0  0
 12 97  1  0  0  0
 13 14  1  0  0  0
 13 31  1  0  0  0
 14 15  2  0  0  0
 14 98  1  0  0  0
 15 99  1  0  0  0
 16 17  2  0  0  0
 16 21  1  0  0  0
 16 31  1  0  0  0
 17 18  1  0  0  0
 17100  1  0  0  0
 18 19  2  0  0  0
 18101  1  0  0  0
 19 20  1  0  0  0
 19 24  1  0  0  0
 20 21  2  0  0  0
 20102  1  0  0  0
 21 23  1  0  0  0
 22 28  1  0  0  0
 22 32  2  0  0  0
 26 27  1  0  0  0
 28103  1  0  0  0
 28104  1  0  0  0
 29105  1  0  0  0
 29106  1  0  0  0
 33 34  1  0  0  0
 33 66  1  0  0  0
 33 70  2  0  0  0
 34 36  1  0  0  0
 34 59  1  0  0  0
 34107  1  0  0  0
 35 44  2  0  0  0
 35 45  1  0  0  0
 35 68  1  0  0  0
 36 56  1  0  0  0
 36108  1  0  0  0
 37 39  1  0  0  0
 37 47  1  0  0  0
 37 66  1  0  0  0
 37109  1  0  0  0
 38 43  2  0  0  0
 38 46  1  0  0  0
 38 47  1  0  0  0
 39 64  1  0  0  0
 39 67  2  0  0  0
 40 52  1  0  0  0
 40 53  2  0  0  0
 40 58  1  0  0  0
 41110  1  0  0  0
 41111  1  0  0  0
 41112  1  0  0  0
 41 48  1  0  0  0
 42 43  1  0  0  0
 42 66  1  0  0  0
 42113  1  0  0  0
 42114  1  0  0  0
 43 44  1  0  0  0
 44115  1  0  0  0
 45 46  2  0  0  0
 45116  1  0  0  0
 46117  1  0  0  0
 47118  1  0  0  0
 47119  1  0  0  0
 48 56  1  0  0  0
 48 65  1  0  0  0
 48120  1  0  0  0
 49 50  1  0  0  0
 49 53  1  0  0  0
 49 64  1  0  0  0
 49121  1  0  0  0
 50 51  1  0  0  0
 50122  1  0  0  0
 50123  1  0  0  0
 51 52  1  0  0  0
 51124  1  0  0  0
 51125  1  0  0  0
 52126  1  0  0  0
 52127  1  0  0  0
 53 54  1  0  0  0
 54 55  2  0  0  0
 54128  1  0  0  0
 55 57  1  0  0  0
 55129  1  0  0  0
 56 69  2  0  0  0
 57 58  2  0  0  0
 57130  1  0  0  0
 58131  1  0  0  0
 59 60  1  0  0  0
 59 61  1  0  0  0
 59 62  1  0  0  0
 60132  1  0  0  0
 60133  1  0  0  0
 60134  1  0  0  0
 61135  1  0  0  0
 61136  1  0  0  0
 61137  1  0  0  0
 62138  1  0  0  0
 62139  1  0  0  0
 62140  1  0  0  0
 63 65  1  0  0  0
 63141  1  0  0  0
 63142  1  0  0  0
 63143  1  0  0  0
 64144  1  0  0  0
 65145  1  0  0  0
 68 81  1  0  0  0
 71 72  2  0  0  0
 71 74  1  0  0  0
 71146  1  0  0  0
 72 75  1  0  0  0
 72147  1  0  0  0
 73 75  2  0  0  0
 73 76  1  0  0  0
 73148  1  0  0  0
 74 76  2  0  0  0
 74 77  1  0  0  0
 75 84  1  0  0  0
 76 83  1  0  0  0
 77 82  2  0  0  0
 77149  1  0  0  0
 78 79  2  0  0  0
 78 80  1  0  0  0
 78150  1  0  0  0
 79 81  1  0  0  0
 79 86  1  0  0  0
 80 83  1  0  0  0
 80 85  2  0  0  0
 81151  1  0  0  0
 81152  1  0  0  0
 82153  1  0  0  0
 83154  1  0  0  0
 84155  1  0  0  0
 86156  1  0  0  0
M  ISO  4   1 100  68 101  81 101  84 100
M  END
> <chiral flag>
0

> <version>
0

> <s_m_source_file>
/data/baiqing/PycharmProjects/Reinvent-master-3.2/result/LINK_invent/BTK/process_docking_weight1_custom_product_contain_oxygen_bond_distance_aromatic_linkinvent_7_9_3/rearranged_h_0173.sdf

> <i_m_source_file_index>
59

> <r_mmod_Potential_Energy-OPLS-2005>
22.2440567016602

> <r_mmod_Stretch_Energy-OPLS-2005>
54.4488716125488

> <r_mmod_Bend_Energy-OPLS-2005>
106.548545837402

> <r_mmod_Torsional_Energy-OPLS-2005>
260.279235839844

> <r_mmod_Improper_Torsional_Energy-OPLS-2005>
5.5445728302002

> <r_mmod_Van_der_Waal_Energy-OPLS-2005>
170.144485473633

> <r_mmod_Electrostatic_Energy-OPLS-2005>
-335.594818115234

> <r_mmod_Solvation_Energy-OPLS-2005>
-262.839172363281

> <b_mmod_Minimization_Converged-OPLS-2005>
0

> <r_mmod_RMS_Derivative-OPLS-2005>
2.88911557197571

$$$$
59
                    3D
 Structure written by MMmdl.
161169  0  0  1  0            999 V2000
  -30.1297  -15.0648   19.9313 C   0  0  0  0  0  0
  -30.2470  -12.4917   20.6386 C   0  0  0  0  0  0
  -29.7646  -11.2730   19.7597 C   0  0  0  0  0  0
  -28.2230  -11.3357   19.4730 C   0  0  0  0  0  0
  -27.4949  -12.7671   19.7782 C   0  0  2  0  0  0
  -28.2927  -13.6098   20.8304 C   0  0  0  0  0  0
  -25.1282  -13.6946   20.5802 C   0  0  0  0  0  0
  -24.0586  -13.0182   20.9365 C   0  0  0  0  0  0
  -24.4660  -11.6432   20.8751 C   0  0  0  0  0  0
  -23.8387  -10.4086   21.1006 C   0  0  0  0  0  0
  -24.3224   -9.4103   22.0169 C   0  0  0  0  0  0
  -23.5615   -8.2211   22.1771 C   0  0  0  0  0  0
  -22.4294   -7.9931   21.3556 C   0  0  0  0  0  0
  -22.0826   -8.9377   20.4148 C   0  0  0  0  0  0
  -22.7582  -10.1335   20.2358 C   0  0  0  0  0  0
  -21.6705   -6.0729   22.5076 C   0  0  0  0  0  0
  -21.3679   -6.5811   23.7739 C   0  0  0  0  0  0
  -21.3938   -5.7218   24.8633 C   0  0  0  0  0  0
  -21.6420   -4.3304   24.6895 C   0  0  0  0  0  0
  -21.9259   -3.8352   23.4222 C   0  0  0  0  0  0
  -21.9403   -4.7119   22.3292 C   0  0  0  0  0  0
  -22.6829  -13.4684   21.1653 C   0  0  0  0  0  0
  -22.1626   -4.2480   21.0713 F   0  0  0  0  0  0
  -21.5760   -3.4756   25.7174 F   0  0  0  0  0  0
  -29.6074  -13.7540   20.2588 N   0  0  0  0  0  0
  -26.1130  -12.7840   20.1737 N   0  0  0  0  0  0
  -25.6016  -11.5757   20.2987 N   0  0  0  0  0  0
  -21.8931  -12.7494   21.9002 N   0  0  0  0  0  0
  -25.2492  -15.0741   20.6149 N   0  0  0  0  0  0
  -31.0691  -15.3331   20.6970 O   0  0  0  0  0  0
  -21.6330   -6.8626   21.4131 O   0  0  0  0  0  0
  -22.2964  -14.5748   20.8046 O   0  0  0  0  0  0
  -24.6159  -31.8680   23.2136 C   0  0  0  0  0  0
  -25.8989  -32.4896   23.8420 C   0  0  1  0  0  0
  -27.2134  -27.4382   20.0959 C   0  0  0  0  0  0
  -25.5930  -33.8625   24.2487 N   0  0  0  0  0  0
  -23.4052  -30.4950   21.5687 C   0  0  2  0  0  0
  -24.8397  -28.9790   20.1297 C   0  0  0  0  0  0
  -22.7436  -29.4670   22.5197 C   0  0  0  0  0  0
  -18.0365  -28.1464   22.8634 C   0  0  0  0  0  0
  -24.1519  -36.7306   23.2619 C   0  0  0  0  0  0
  -25.9241  -30.8441   21.3489 C   0  0  0  0  0  0
  -26.0043  -29.4763   20.7313 C   0  0  0  0  0  0
  -27.1973  -28.7160   20.7180 C   0  0  0  0  0  0
  -26.0186  -26.9334   19.5380 C   0  0  0  0  0  0
  -24.8474  -27.7096   19.5282 C   0  0  0  0  0  0
  -23.6198  -29.8457   20.1778 C   0  0  0  0  0  0
  -25.4071  -36.3094   24.0357 C   0  0  1  0  0  0
  -20.5887  -28.3534   23.1432 C   0  0  2  0  0  0
  -20.6750  -26.9305   22.5385 C   0  0  0  0  0  0
  -19.5699  -26.6448   21.5226 C   0  0  0  0  0  0
  -18.1918  -26.7951   22.1713 C   0  0  0  0  0  0
  -19.1627  -28.8915   23.3022 C   0  0  0  0  0  0
  -18.9400  -30.1505   23.8993 C   0  0  0  0  0  0
  -17.6384  -30.6589   24.0546 C   0  0  0  0  0  0
  -25.9020  -34.9462   23.5235 C   0  0  0  0  0  0
  -16.5321  -29.9046   23.6338 C   0  0  0  0  0  0
  -16.7291  -28.6524   23.0294 C   0  0  0  0  0  0
  -26.4493  -31.6525   25.0613 C   0  0  0  0  0  0
  -25.3744  -31.3444   26.1328 C   0  0  0  0  0  0
  -27.0370  -30.3112   24.5615 C   0  0  0  0  0  0
  -27.6250  -32.4043   25.7399 C   0  0  0  0  0  0
  -27.5536  -37.1817   24.8509 C   0  0  0  0  0  0
  -21.4153  -29.2954   22.3915 N   0  0  0  0  0  0
  -26.4233  -37.3689   23.9515 N   0  0  0  0  0  0
  -24.6781  -31.0671   22.1147 N   0  0  0  0  0  0
  -23.4321  -28.8035   23.3050 O   0  0  0  0  0  0
  -28.3970  -26.7096   20.0308 O   0  0  0  0  0  0
  -26.5426  -34.8879   22.4745 O   0  0  0  0  0  0
  -23.5366  -32.1478   23.7569 O   0  0  0  0  0  0
  -28.1806  -18.7629   17.6254 C   0  0  0  0  0  0
  -27.8203  -18.0662   15.3578 C   0  0  0  0  0  0
  -28.2683  -17.6872   16.7450 C   0  0  0  0  0  0
  -27.7066  -20.0145   17.2536 C   0  0  0  0  0  0
  -27.2889  -19.3779   14.9482 C   0  0  0  0  0  0
  -27.2951  -20.3733   15.9560 C   0  0  0  0  0  0
  -27.8053  -22.9798   19.4649 C   0  0  0  0  0  0
  -27.1159  -15.9545   17.9132 C   0  0  0  0  0  0
  -28.5587  -21.8398   18.7040 C   0  0  0  0  0  0
  -28.4283  -25.3057   20.2919 C   0  0  0  0  0  0
  -28.6225  -16.3143   17.5827 C   0  0  2  0  0  0
  -28.1214  -24.4271   19.0484 C   0  0  1  0  0  0
  -27.5306  -20.8340   18.2969 N   0  0  0  0  0  0
  -29.6680  -16.1317   18.9189 N   0  0  0  0  0  0
  -26.9997  -22.6871   20.3748 O   0  0  0  0  0  0
  -29.2802  -24.5282   18.2675 O   0  0  0  0  0  0
  -26.7384  -19.7808   13.7527 F   0  0  0  0  0  0
  -26.9148  -21.6624   15.8029 F   0  0  0  0  0  0
  -31.0573  -12.5989   21.4566 H   0  0  0  0  0  0
  -29.8681  -12.1381   21.6538 H   0  0  0  0  0  0
  -29.6700  -10.5967   20.6789 H   0  0  0  0  0  0
  -30.3725  -10.3527   19.5461 H   0  0  0  0  0  0
  -27.9899  -10.7085   20.3778 H   0  0  0  0  0  0
  -27.8965  -10.3877   18.8963 H   0  0  0  0  0  0
  -27.5387  -12.9133   18.6633 H   0  0  0  0  0  0
  -28.0460  -13.4889   21.8883 H   0  0  0  0  0  0
  -28.0130  -14.6378   20.6475 H   0  0  0  0  0  0
  -25.2573   -9.6235   22.5877 H   0  0  0  0  0  0
  -23.7728   -7.5279   22.9636 H   0  0  0  0  0  0
  -21.2130   -8.7242   19.8423 H   0  0  0  0  0  0
  -22.4366  -10.8431   19.4944 H   0  0  0  0  0  0
  -21.0689   -7.6126   23.8564 H   0  0  0  0  0  0
  -21.1959   -6.1201   25.8337 H   0  0  0  0  0  0
  -22.0689   -2.8066   23.1973 H   0  0  0  0  0  0
  -22.1661  -11.8277   22.1841 H   0  0  0  0  0  0
  -20.9753  -13.1025   22.0521 H   0  0  0  0  0  0
  -24.2648  -15.4470   20.5904 H   0  0  0  0  0  0
  -25.7000  -15.3397   21.4974 H   0  0  0  0  0  0
  -26.7041  -32.5861   23.1231 H   0  0  0  0  0  0
  -25.0397  -33.9738   25.0845 H   0  0  0  0  0  0
  -22.6818  -31.3156   21.4525 H   0  0  0  0  0  0
  -23.3771  -35.9670   23.3287 H   0  0  0  0  0  0
  -24.3681  -36.8856   22.2053 H   0  0  0  0  0  0
  -23.7318  -37.6521   23.6595 H   0  0  0  0  0  0
  -25.9550  -31.5681   20.5443 H   0  0  0  0  0  0
  -26.8370  -30.9765   21.9131 H   0  0  0  0  0  0
  -28.1103  -29.0894   21.1750 H   0  0  0  0  0  0
  -25.9154  -25.9809   19.0489 H   0  0  0  0  0  0
  -23.9465  -27.3573   19.0386 H   0  0  0  0  0  0
  -23.7386  -30.6326   19.4316 H   0  0  0  0  0  0
  -22.7508  -29.2738   19.8614 H   0  0  0  0  0  0
  -25.1281  -36.1917   25.0786 H   0  0  0  0  0  0
  -20.9958  -28.3044   24.1541 H   0  0  0  0  0  0
  -20.5800  -26.2103   23.3508 H   0  0  0  0  0  0
  -21.6583  -26.7502   22.1072 H   0  0  0  0  0  0
  -19.6750  -25.6429   21.1146 H   0  0  0  0  0  0
  -19.6565  -27.3389   20.6872 H   0  0  0  0  0  0
  -17.4110  -26.6784   21.4077 H   0  0  0  0  0  0
  -18.0257  -26.0039   22.9125 H   0  0  0  0  0  0
  -19.7863  -30.7308   24.2267 H   0  0  0  0  0  0
  -17.4929  -31.6184   24.5208 H   0  0  0  0  0  0
  -15.5328  -30.2910   23.7551 H   0  0  0  0  0  0
  -15.8706  -28.0783   22.6862 H   0  0  0  0  0  0
  -24.5939  -30.6826   25.7482 H   0  0  0  0  0  0
  -24.8889  -32.2544   26.4877 H   0  0  0  0  0  0
  -25.8041  -30.8400   27.0014 H   0  0  0  0  0  0
  -26.2893  -29.7152   24.0364 H   0  0  0  0  0  0
  -27.4236  -29.6837   25.3688 H   0  0  0  0  0  0
  -27.8652  -30.4965   23.8777 H   0  0  0  0  0  0
  -27.3067  -33.3313   26.2232 H   0  0  0  0  0  0
  -28.3966  -32.6625   25.0089 H   0  0  0  0  0  0
  -28.1021  -31.7869   26.5085 H   0  0  0  0  0  0
  -28.2572  -38.0062   24.7463 H   0  0  0  0  0  0
  -28.0991  -36.2640   24.6470 H   0  0  0  0  0  0
  -27.2235  -37.1489   25.8856 H   0  0  0  0  0  0
  -20.9355  -29.8862   21.7251 H   0  0  0  0  0  0
  -26.0169  -38.2764   24.1448 H   0  0  0  0  0  0
  -28.4433  -18.5626   18.6451 H   0  0  0  0  0  0
  -27.9550  -17.3786   14.4984 H   0  0  0  0  0  0
  -26.4384  -15.9013   17.0557 H   0  0  0  0  0  0
  -26.6654  -16.6862   18.6053 H   0  0  0  0  0  0
  -27.1239  -14.9942   18.3854 H   0  0  0  0  0  0
  -29.2462  -21.3879   19.4353 H   0  0  0  0  0  0
  -29.0770  -22.1658   17.7804 H   0  0  0  0  0  0
  -29.4382  -25.0934   20.6310 H   0  0  0  0  0  0
  -27.8108  -25.0595   21.1436 H   0  0  0  0  0  0
  -28.8395  -15.6691   16.6904 H   0  0  0  0  0  0
  -27.3335  -24.7947   18.3801 H   0  0  0  0  0  0
  -26.6658  -21.3551   18.1866 H   0  0  0  0  0  0
  -30.3167  -16.9849   18.9636 H   0  0  0  0  0  0
  -29.7916  -25.1815   18.6864 H   0  0  0  0  0  0
  1 25  1  0  0  0
  1 30  2  0  0  0
  1 84  1  0  0  0
  2  3  1  0  0  0
  2 25  1  0  0  0
  2 89  1  0  0  0
  2 90  1  0  0  0
  3  4  1  0  0  0
  3 91  1  0  0  0
  3 92  1  0  0  0
  4  5  1  0  0  0
  4 93  1  0  0  0
  4 94  1  0  0  0
  5  6  1  0  0  0
  5 26  1  0  0  0
  5 95  1  0  0  0
  6 25  1  0  0  0
  6 96  1  0  0  0
  6 97  1  0  0  0
  7  8  2  0  0  0
  7 26  1  0  0  0
  7 29  1  0  0  0
  8  9  1  0  0  0
  8 22  1  0  0  0
  9 10  1  0  0  0
  9 27  2  0  0  0
 10 11  2  0  0  0
 10 15  1  0  0  0
 11 12  1  0  0  0
 11 98  1  0  0  0
 12 13  2  0  0  0
 12 99  1  0  0  0
 13 14  1  0  0  0
 13 31  1  0  0  0
 14 15  2  0  0  0
 14100  1  0  0  0
 15101  1  0  0  0
 16 17  2  0  0  0
 16 21  1  0  0  0
 16 31  1  0  0  0
 17 18  1  0  0  0
 17102  1  0  0  0
 18 19  2  0  0  0
 18103  1  0  0  0
 19 20  1  0  0  0
 19 24  1  0  0  0
 20 21  2  0  0  0
 20104  1  0  0  0
 21 23  1  0  0  0
 22 28  1  0  0  0
 22 32  2  0  0  0
 26 27  1  0  0  0
 28105  1  0  0  0
 28106  1  0  0  0
 29107  1  0  0  0
 29108  1  0  0  0
 33 34  1  0  0  0
 33 66  1  0  0  0
 33 70  2  0  0  0
 34 36  1  0  0  0
 34 59  1  0  0  0
 34109  1  0  0  0
 35 44  2  0  0  0
 35 45  1  0  0  0
 35 68  1  0  0  0
 36 56  1  0  0  0
 36110  1  0  0  0
 37 39  1  0  0  0
 37 47  1  0  0  0
 37 66  1  0  0  0
 37111  1  0  0  0
 38 43  2  0  0  0
 38 46  1  0  0  0
 38 47  1  0  0  0
 39 64  1  0  0  0
 39 67  2  0  0  0
 40 52  1  0  0  0
 40 53  2  0  0  0
 40 58  1  0  0  0
 41112  1  0  0  0
 41113  1  0  0  0
 41114  1  0  0  0
 41 48  1  0  0  0
 42 43  1  0  0  0
 42 66  1  0  0  0
 42115  1  0  0  0
 42116  1  0  0  0
 43 44  1  0  0  0
 44117  1  0  0  0
 45 46  2  0  0  0
 45118  1  0  0  0
 46119  1  0  0  0
 47120  1  0  0  0
 47121  1  0  0  0
 48 56  1  0  0  0
 48 65  1  0  0  0
 48122  1  0  0  0
 49 50  1  0  0  0
 49 53  1  0  0  0
 49 64  1  0  0  0
 49123  1  0  0  0
 50 51  1  0  0  0
 50124  1  0  0  0
 50125  1  0  0  0
 51 52  1  0  0  0
 51126  1  0  0  0
 51127  1  0  0  0
 52128  1  0  0  0
 52129  1  0  0  0
 53 54  1  0  0  0
 54 55  2  0  0  0
 54130  1  0  0  0
 55 57  1  0  0  0
 55131  1  0  0  0
 56 69  2  0  0  0
 57 58  2  0  0  0
 57132  1  0  0  0
 58133  1  0  0  0
 59 60  1  0  0  0
 59 61  1  0  0  0
 59 62  1  0  0  0
 60134  1  0  0  0
 60135  1  0  0  0
 60136  1  0  0  0
 61137  1  0  0  0
 61138  1  0  0  0
 61139  1  0  0  0
 62140  1  0  0  0
 62141  1  0  0  0
 62142  1  0  0  0
 63 65  1  0  0  0
 63143  1  0  0  0
 63144  1  0  0  0
 63145  1  0  0  0
 64146  1  0  0  0
 65147  1  0  0  0
 68 80  1  0  0  0
 71 73  2  0  0  0
 71 74  1  0  0  0
 71148  1  0  0  0
 72 73  1  0  0  0
 72 75  2  0  0  0
 72149  1  0  0  0
 73 81  1  0  0  0
 74 76  2  0  0  0
 74 83  1  0  0  0
 75 76  1  0  0  0
 75 87  1  0  0  0
 76 88  1  0  0  0
 77 79  1  0  0  0
 77 82  1  0  0  0
 77 85  2  0  0  0
 78150  1  0  0  0
 78151  1  0  0  0
 78152  1  0  0  0
 78 81  1  0  0  0
 79 83  1  0  0  0
 79153  1  0  0  0
 79154  1  0  0  0
 80 82  1  0  0  0
 80155  1  0  0  0
 80156  1  0  0  0
 81 84  1  0  0  0
 81157  1  0  0  0
 82 86  1  0  0  0
 82158  1  0  0  0
 83159  1  0  0  0
 84160  1  0  0  0
 86161  1  0  0  0
M  ISO  4   1 100  68 101  80 101  84 100
M  END
> <chiral flag>
0

> <version>
0

> <s_m_source_file>
/data/baiqing/PycharmProjects/Reinvent-master-3.2/result/LINK_invent/BTK/process_docking_weight1_custom_product_contain_oxygen_bond_distance_aromatic_linkinvent_7_9_3/rearranged_h_0173.sdf

> <i_m_source_file_index>
60

> <r_mmod_Potential_Energy-OPLS-2005>
2504.07543945312

> <r_mmod_Stretch_Energy-OPLS-2005>
401.935455322266

> <r_mmod_Bend_Energy-OPLS-2005>
760.338562011719

> <r_mmod_Torsional_Energy-OPLS-2005>
385.38525390625

> <r_mmod_Improper_Torsional_Energy-OPLS-2005>
22.6177215576172

> <r_mmod_Van_der_Waal_Energy-OPLS-2005>
201.779937744141

> <r_mmod_Electrostatic_Energy-OPLS-2005>
-307.803649902344

> <r_mmod_Solvation_Energy-OPLS-2005>
-219.524719238281

> <b_mmod_Minimization_Converged-OPLS-2005>
0

> <r_mmod_RMS_Derivative-OPLS-2005>
99.9990005493164

$$$$
60
                    3D
 Structure written by MMmdl.
159167  0  0  1  0            999 V2000
  -30.7156  -14.5002   20.5473 C   0  0  0  0  0  0
  -30.4128  -12.3168   19.4415 C   0  0  0  0  0  0
  -29.4935  -12.5020   18.2162 C   0  0  0  0  0  0
  -28.0153  -12.3647   18.6257 C   0  0  0  0  0  0
  -27.6563  -13.2187   19.8716 C   0  0  2  0  0  0
  -28.6981  -13.0412   21.0007 C   0  0  0  0  0  0
  -25.2560  -13.8185   20.5700 C   0  0  0  0  0  0
  -24.1824  -13.0446   20.9173 C   0  0  0  0  0  0
  -24.6403  -11.6919   20.8738 C   0  0  0  0  0  0
  -23.9083  -10.4296   21.0409 C   0  0  0  0  0  0
  -24.3627   -9.4207   21.9187 C   0  0  0  0  0  0
  -23.6298   -8.2239   22.0757 C   0  0  0  0  0  0
  -22.4280   -8.0285   21.3548 C   0  0  0  0  0  0
  -21.9923   -9.0261   20.4647 C   0  0  0  0  0  0
  -22.7256  -10.2137   20.3055 C   0  0  0  0  0  0
  -21.6856   -6.0746   22.5279 C   0  0  0  0  0  0
  -21.4014   -6.5643   23.8213 C   0  0  0  0  0  0
  -21.3655   -5.6796   24.9174 C   0  0  0  0  0  0
  -21.6039   -4.3060   24.7221 C   0  0  0  0  0  0
  -21.8819   -3.8156   23.4341 C   0  0  0  0  0  0
  -21.9194   -4.6974   22.3398 C   0  0  0  0  0  0
  -22.7847  -13.5241   21.1839 C   0  0  0  0  0  0
  -22.1663   -4.2165   21.0976 F   0  0  0  0  0  0
  -21.5629   -3.4545   25.7735 F   0  0  0  0  0  0
  -30.0271  -13.3287   20.4408 N   0  0  0  0  0  0
  -26.3009  -12.9380   20.3374 N   0  0  0  0  0  0
  -25.9336  -11.6528   20.5780 N   0  0  0  0  0  0
  -22.0500  -12.8220   22.0401 N   0  0  0  0  0  0
  -25.4277  -15.1907   20.4148 N   0  0  0  0  0  0
  -31.8510  -14.6197   20.0833 O   0  0  0  0  0  0
  -21.6639   -6.8890   21.4242 O   0  0  0  0  0  0
  -22.3521  -14.5552   20.6704 O   0  0  0  0  0  0
  -24.6168  -31.8663   23.2090 C   0  0  0  0  0  0
  -25.9062  -32.4806   23.8396 C   0  0  1  0  0  0
  -27.2247  -27.4180   20.1061 C   0  0  0  0  0  0
  -25.5918  -33.8605   24.2335 N   0  0  0  0  0  0
  -23.4055  -30.4903   21.5482 C   0  0  2  0  0  0
  -24.8525  -28.9566   20.1103 C   0  0  0  0  0  0
  -22.7420  -29.4652   22.4957 C   0  0  0  0  0  0
  -18.0274  -28.1378   22.8489 C   0  0  0  0  0  0
  -24.1486  -36.7296   23.2640 C   0  0  0  0  0  0
  -25.9363  -30.8282   21.3642 C   0  0  0  0  0  0
  -26.0143  -29.4631   20.7083 C   0  0  0  0  0  0
  -27.2086  -28.7027   20.6997 C   0  0  0  0  0  0
  -26.0514  -26.9326   19.4926 C   0  0  0  0  0  0
  -24.8675  -27.6928   19.4960 C   0  0  0  0  0  0
  -23.6152  -29.8247   20.1620 C   0  0  0  0  0  0
  -25.4108  -36.3097   24.0340 C   0  0  1  0  0  0
  -20.5869  -28.3671   23.1297 C   0  0  2  0  0  0
  -20.6769  -26.9402   22.5407 C   0  0  0  0  0  0
  -19.5741  -26.6384   21.5208 C   0  0  0  0  0  0
  -18.1916  -26.7932   22.1615 C   0  0  0  0  0  0
  -19.1527  -28.8841   23.2898 C   0  0  0  0  0  0
  -18.9455  -30.1449   23.8914 C   0  0  0  0  0  0
  -17.6458  -30.6591   24.0566 C   0  0  0  0  0  0
  -25.9036  -34.9460   23.5130 C   0  0  0  0  0  0
  -16.5348  -29.9092   23.6336 C   0  0  0  0  0  0
  -16.7262  -28.6505   23.0362 C   0  0  0  0  0  0
  -26.4493  -31.6584   25.0719 C   0  0  0  0  0  0
  -25.3768  -31.3677   26.1470 C   0  0  0  0  0  0
  -27.0333  -30.3025   24.6106 C   0  0  0  0  0  0
  -27.6073  -32.4304   25.7484 C   0  0  0  0  0  0
  -27.5579  -37.1798   24.8469 C   0  0  0  0  0  0
  -21.4144  -29.3043   22.3703 N   0  0  0  0  0  0
  -26.4286  -37.3787   23.9419 N   0  0  0  0  0  0
  -24.6712  -31.0755   22.0992 N   0  0  0  0  0  0
  -23.4178  -28.8187   23.3006 O   0  0  0  0  0  0
  -28.3474  -26.6193   20.1382 O   0  0  0  0  0  0
  -26.5587  -34.8913   22.4684 O   0  0  0  0  0  0
  -23.5357  -32.1414   23.7473 O   0  0  0  0  0  0
  -31.0503  -19.7369   20.9031 C   0  0  0  0  0  0
  -31.7539  -17.4025   20.8814 C   0  0  0  0  0  0
  -29.7020  -19.3471   21.0485 C   0  0  0  0  0  0
  -30.4094  -16.9622   20.9924 C   0  0  0  0  0  0
  -32.0669  -18.7721   20.8240 C   0  0  0  0  0  0
  -29.3909  -17.9524   21.0884 C   0  0  0  0  0  0
  -28.6940  -20.4175   21.2363 C   0  0  0  0  0  0
  -28.5782  -24.1193   20.2671 C   0  0  0  0  0  0
  -28.1738  -25.4421   20.9638 C   0  0  0  0  0  0
  -26.5371  -22.5864   20.0254 C   0  0  0  0  0  0
  -27.8860  -22.8098   20.7554 C   0  0  1  0  0  0
  -30.0379  -15.5643   21.0417 N   0  0  0  0  0  0
  -28.7661  -21.6120   20.5964 N   0  0  0  0  0  0
  -27.7140  -20.2434   22.1256 N   0  3  0  0  0  0
  -29.4224  -24.1124   19.3644 O   0  0  0  0  0  0
  -26.7301  -22.1815   18.6760 O   0  0  0  0  0  0
  -33.3578  -19.1668   20.7085 F   0  0  0  0  0  0
  -28.1073  -17.5410   21.2419 F   0  0  0  0  0  0
  -31.4599  -12.3928   19.1423 H   0  0  0  0  0  0
  -30.2995  -11.3154   19.8597 H   0  0  0  0  0  0
  -29.7380  -11.7683   17.4470 H   0  0  0  0  0  0
  -29.6631  -13.4821   17.7686 H   0  0  0  0  0  0
  -27.8279  -11.3105   18.8320 H   0  0  0  0  0  0
  -27.3671  -12.6298   17.7892 H   0  0  0  0  0  0
  -27.6863  -14.2615   19.5542 H   0  0  0  0  0  0
  -28.6728  -12.0204   21.3834 H   0  0  0  0  0  0
  -28.4610  -13.6817   21.8516 H   0  0  0  0  0  0
  -25.2773   -9.5681   22.4765 H   0  0  0  0  0  0
  -24.0009   -7.4636   22.7475 H   0  0  0  0  0  0
  -21.0854   -8.8780   19.8954 H   0  0  0  0  0  0
  -22.3720  -10.9677   19.6160 H   0  0  0  0  0  0
  -21.2001   -7.6149   23.9720 H   0  0  0  0  0  0
  -21.1477   -6.0527   25.9079 H   0  0  0  0  0  0
  -22.0604   -2.7624   23.2837 H   0  0  0  0  0  0
  -22.4108  -11.9859   22.4756 H   0  0  0  0  0  0
  -21.1119  -13.1234   22.2620 H   0  0  0  0  0  0
  -24.6655  -15.8478   20.5387 H   0  0  0  0  0  0
  -26.2904  -15.6394   20.1344 H   0  0  0  0  0  0
  -26.7130  -32.5515   23.1157 H   0  0  0  0  0  0
  -25.0127  -33.9777   25.0521 H   0  0  0  0  0  0
  -22.6946  -31.3070   21.4077 H   0  0  0  0  0  0
  -23.3754  -35.9621   23.3290 H   0  0  0  0  0  0
  -24.3590  -36.8923   22.2057 H   0  0  0  0  0  0
  -23.7221  -37.6486   23.6668 H   0  0  0  0  0  0
  -26.0532  -31.5962   20.5980 H   0  0  0  0  0  0
  -26.8216  -30.8773   21.9862 H   0  0  0  0  0  0
  -28.1044  -29.0838   21.1696 H   0  0  0  0  0  0
  -26.0480  -25.9606   19.0196 H   0  0  0  0  0  0
  -23.9748  -27.3009   19.0282 H   0  0  0  0  0  0
  -23.7226  -30.6005   19.4028 H   0  0  0  0  0  0
  -22.7395  -29.2443   19.8658 H   0  0  0  0  0  0
  -25.1285  -36.1954   25.0828 H   0  0  0  0  0  0
  -20.9963  -28.3249   24.1417 H   0  0  0  0  0  0
  -20.5659  -26.2289   23.3603 H   0  0  0  0  0  0
  -21.6636  -26.7444   22.1189 H   0  0  0  0  0  0
  -19.6898  -25.6294   21.1235 H   0  0  0  0  0  0
  -19.6682  -27.3203   20.6743 H   0  0  0  0  0  0
  -17.4188  -26.6691   21.4009 H   0  0  0  0  0  0
  -18.0309  -26.0064   22.8994 H   0  0  0  0  0  0
  -19.7934  -30.7262   24.2279 H   0  0  0  0  0  0
  -17.5014  -31.6271   24.5164 H   0  0  0  0  0  0
  -15.5345  -30.3000   23.7660 H   0  0  0  0  0  0
  -15.8655  -28.0827   22.7085 H   0  0  0  0  0  0
  -24.5963  -30.6995   25.7808 H   0  0  0  0  0  0
  -24.8938  -32.2821   26.4925 H   0  0  0  0  0  0
  -25.8129  -30.8847   27.0224 H   0  0  0  0  0  0
  -26.2870  -29.6750   24.1214 H   0  0  0  0  0  0
  -27.4167  -29.7294   25.4560 H   0  0  0  0  0  0
  -27.8682  -30.4338   23.9216 H   0  0  0  0  0  0
  -27.2717  -33.3625   26.2044 H   0  0  0  0  0  0
  -28.3903  -32.6823   25.0316 H   0  0  0  0  0  0
  -28.0721  -31.8433   26.5416 H   0  0  0  0  0  0
  -28.2589  -38.0105   24.7535 H   0  0  0  0  0  0
  -28.1092  -36.2639   24.6278 H   0  0  0  0  0  0
  -27.2300  -37.1411   25.8874 H   0  0  0  0  0  0
  -20.9305  -29.8773   21.6929 H   0  0  0  0  0  0
  -26.0171  -38.2861   24.1441 H   0  0  0  0  0  0
  -31.3284  -20.7806   20.8897 H   0  0  0  0  0  0
  -32.5833  -16.7160   20.8478 H   0  0  0  0  0  0
  -28.7953  -25.5561   21.8515 H   0  0  0  0  0  0
  -27.1481  -25.3478   21.3246 H   0  0  0  0  0  0
  -25.9339  -23.4970   20.0411 H   0  0  0  0  0  0
  -25.9432  -21.8312   20.5413 H   0  0  0  0  0  0
  -27.6830  -22.9396   21.8199 H   0  0  0  0  0  0
  -29.0919  -15.3788   21.3372 H   0  0  0  0  0  0
  -29.4324  -21.6915   19.8379 H   0  0  0  0  0  0
  -27.6125  -19.3384   22.5615 H   0  0  0  0  0  0
  -27.0664  -20.9732   22.3649 H   0  0  0  0  0  0
  -27.1263  -22.9020   18.1951 H   0  0  0  0  0  0
  1 25  1  0  0  0
  1 30  2  0  0  0
  1 82  1  0  0  0
  2  3  1  0  0  0
  2 25  1  0  0  0
  2 89  1  0  0  0
  2 90  1  0  0  0
  3  4  1  0  0  0
  3 91  1  0  0  0
  3 92  1  0  0  0
  4  5  1  0  0  0
  4 93  1  0  0  0
  4 94  1  0  0  0
  5  6  1  0  0  0
  5 26  1  0  0  0
  5 95  1  0  0  0
  6 25  1  0  0  0
  6 96  1  0  0  0
  6 97  1  0  0  0
  7  8  2  0  0  0
  7 26  1  0  0  0
  7 29  1  0  0  0
  8  9  1  0  0  0
  8 22  1  0  0  0
  9 10  1  0  0  0
  9 27  2  0  0  0
 10 11  2  0  0  0
 10 15  1  0  0  0
 11 12  1  0  0  0
 11 98  1  0  0  0
 12 13  2  0  0  0
 12 99  1  0  0  0
 13 14  1  0  0  0
 13 31  1  0  0  0
 14 15  2  0  0  0
 14100  1  0  0  0
 15101  1  0  0  0
 16 17  2  0  0  0
 16 21  1  0  0  0
 16 31  1  0  0  0
 17 18  1  0  0  0
 17102  1  0  0  0
 18 19  2  0  0  0
 18103  1  0  0  0
 19 20  1  0  0  0
 19 24  1  0  0  0
 20 21  2  0  0  0
 20104  1  0  0  0
 21 23  1  0  0  0
 22 28  1  0  0  0
 22 32  2  0  0  0
 26 27  1  0  0  0
 28105  1  0  0  0
 28106  1  0  0  0
 29107  1  0  0  0
 29108  1  0  0  0
 33 34  1  0  0  0
 33 66  1  0  0  0
 33 70  2  0  0  0
 34 36  1  0  0  0
 34 59  1  0  0  0
 34109  1  0  0  0
 35 44  2  0  0  0
 35 45  1  0  0  0
 35 68  1  0  0  0
 36 56  1  0  0  0
 36110  1  0  0  0
 37 39  1  0  0  0
 37 47  1  0  0  0
 37 66  1  0  0  0
 37111  1  0  0  0
 38 43  2  0  0  0
 38 46  1  0  0  0
 38 47  1  0  0  0
 39 64  1  0  0  0
 39 67  2  0  0  0
 40 52  1  0  0  0
 40 53  2  0  0  0
 40 58  1  0  0  0
 41112  1  0  0  0
 41113  1  0  0  0
 41114  1  0  0  0
 41 48  1  0  0  0
 42 43  1  0  0  0
 42 66  1  0  0  0
 42115  1  0  0  0
 42116  1  0  0  0
 43 44  1  0  0  0
 44117  1  0  0  0
 45 46  2  0  0  0
 45118  1  0  0  0
 46119  1  0  0  0
 47120  1  0  0  0
 47121  1  0  0  0
 48 56  1  0  0  0
 48 65  1  0  0  0
 48122  1  0  0  0
 49 50  1  0  0  0
 49 53  1  0  0  0
 49 64  1  0  0  0
 49123  1  0  0  0
 50 51  1  0  0  0
 50124  1  0  0  0
 50125  1  0  0  0
 51 52  1  0  0  0
 51126  1  0  0  0
 51127  1  0  0  0
 52128  1  0  0  0
 52129  1  0  0  0
 53 54  1  0  0  0
 54 55  2  0  0  0
 54130  1  0  0  0
 55 57  1  0  0  0
 55131  1  0  0  0
 56 69  2  0  0  0
 57 58  2  0  0  0
 57132  1  0  0  0
 58133  1  0  0  0
 59 60  1  0  0  0
 59 61  1  0  0  0
 59 62  1  0  0  0
 60134  1  0  0  0
 60135  1  0  0  0
 60136  1  0  0  0
 61137  1  0  0  0
 61138  1  0  0  0
 61139  1  0  0  0
 62140  1  0  0  0
 62141  1  0  0  0
 62142  1  0  0  0
 63 65  1  0  0  0
 63143  1  0  0  0
 63144  1  0  0  0
 63145  1  0  0  0
 64146  1  0  0  0
 65147  1  0  0  0
 68 79  1  0  0  0
 71 73  2  0  0  0
 71 75  1  0  0  0
 71148  1  0  0  0
 72 74  1  0  0  0
 72 75  2  0  0  0
 72149  1  0  0  0
 73 76  1  0  0  0
 73 77  1  0  0  0
 74 76  2  0  0  0
 74 82  1  0  0  0
 75 87  1  0  0  0
 76 88  1  0  0  0
 77 83  1  0  0  0
 77 84  2  0  0  0
 78 79  1  0  0  0
 78 81  1  0  0  0
 78 85  2  0  0  0
 79150  1  0  0  0
 79151  1  0  0  0
 80 86  1  0  0  0
 80152  1  0  0  0
 80153  1  0  0  0
 80 81  1  0  0  0
 81 83  1  0  0  0
 81154  1  0  0  0
 82155  1  0  0  0
 83156  1  0  0  0
 84157  1  0  0  0
 84158  1  0  0  0
 86159  1  0  0  0
M  CHG  1  84   1
M  ISO  4   1 100  68 101  79 101  82 100
M  END
> <chiral flag>
0

> <version>
0

> <s_m_source_file>
/data/baiqing/PycharmProjects/Reinvent-master-3.2/result/LINK_invent/BTK/process_docking_weight1_custom_product_contain_oxygen_bond_distance_aromatic_linkinvent_7_9_3/rearranged_h_0173.sdf

> <i_m_source_file_index>
61

> <r_mmod_Potential_Energy-OPLS-2005>
-411.649139404297

> <r_mmod_Stretch_Energy-OPLS-2005>
46.4329376220703

> <r_mmod_Bend_Energy-OPLS-2005>
98.9979782104492

> <r_mmod_Torsional_Energy-OPLS-2005>
229.900405883789

> <r_mmod_Improper_Torsional_Energy-OPLS-2005>
4.36993741989136

> <r_mmod_Van_der_Waal_Energy-OPLS-2005>
156.82341003418

> <r_mmod_Electrostatic_Energy-OPLS-2005>
-499.806213378906

> <r_mmod_Solvation_Energy-OPLS-2005>
-467.0546875

> <b_mmod_Minimization_Converged-OPLS-2005>
0

> <r_mmod_RMS_Derivative-OPLS-2005>
1.31761932373047

$$$$
61
                    3D
 Structure written by MMmdl.
150158  0  0  1  0            999 V2000
  -30.6496  -14.4928   20.5660 C   0  0  0  0  0  0
  -30.4387  -12.3147   19.4173 C   0  0  0  0  0  0
  -29.5107  -12.5152   18.2019 C   0  0  0  0  0  0
  -28.0241  -12.3831   18.5964 C   0  0  0  0  0  0
  -27.6649  -13.2016   19.8662 C   0  0  2  0  0  0
  -28.7028  -12.9481   20.9830 C   0  0  0  0  0  0
  -25.2604  -13.8147   20.5629 C   0  0  0  0  0  0
  -24.1850  -13.0425   20.9125 C   0  0  0  0  0  0
  -24.6388  -11.6886   20.8684 C   0  0  0  0  0  0
  -23.9042  -10.4285   21.0378 C   0  0  0  0  0  0
  -24.3623   -9.4212   21.9143 C   0  0  0  0  0  0
  -23.6308   -8.2250   22.0716 C   0  0  0  0  0  0
  -22.4275   -8.0272   21.3527 C   0  0  0  0  0  0
  -21.9893   -9.0231   20.4620 C   0  0  0  0  0  0
  -22.7225  -10.2114   20.3030 C   0  0  0  0  0  0
  -21.6851   -6.0739   22.5274 C   0  0  0  0  0  0
  -21.4025   -6.5642   23.8219 C   0  0  0  0  0  0
  -21.3668   -5.6785   24.9168 C   0  0  0  0  0  0
  -21.6047   -4.3036   24.7206 C   0  0  0  0  0  0
  -21.8822   -3.8138   23.4330 C   0  0  0  0  0  0
  -21.9201   -4.6974   22.3390 C   0  0  0  0  0  0
  -22.7874  -13.5222   21.1799 C   0  0  0  0  0  0
  -22.1655   -4.2158   21.0965 F   0  0  0  0  0  0
  -21.5634   -3.4513   25.7720 F   0  0  0  0  0  0
  -30.0341  -13.2853   20.4453 N   0  0  0  0  0  0
  -26.3034  -12.9296   20.3254 N   0  0  0  0  0  0
  -25.9309  -11.6459   20.5656 N   0  0  0  0  0  0
  -22.0519  -12.8249   22.0394 N   0  0  0  0  0  0
  -25.4315  -15.1879   20.4075 N   0  0  0  0  0  0
  -31.7869  -14.7147   20.1331 O   0  0  0  0  0  0
  -21.6636   -6.8881   21.4237 O   0  0  0  0  0  0
  -22.3551  -14.5518   20.6636 O   0  0  0  0  0  0
  -24.6188  -31.8659   23.2096 C   0  0  0  0  0  0
  -25.9061  -32.4820   23.8377 C   0  0  1  0  0  0
  -27.2198  -27.3961   20.0777 C   0  0  0  0  0  0
  -25.5907  -33.8624   24.2317 N   0  0  0  0  0  0
  -23.4085  -30.4923   21.5505 C   0  0  2  0  0  0
  -24.8515  -28.9676   20.1113 C   0  0  0  0  0  0
  -22.7447  -29.4644   22.4977 C   0  0  0  0  0  0
  -18.0279  -28.1402   22.8484 C   0  0  0  0  0  0
  -24.1488  -36.7321   23.2639 C   0  0  0  0  0  0
  -25.9450  -30.8192   21.3711 C   0  0  0  0  0  0
  -26.0189  -29.4534   20.7128 C   0  0  0  0  0  0
  -27.2065  -28.6758   20.6951 C   0  0  0  0  0  0
  -26.0279  -26.9524   19.4521 C   0  0  0  0  0  0
  -24.8532  -27.7190   19.4769 C   0  0  0  0  0  0
  -23.6169  -29.8360   20.1623 C   0  0  0  0  0  0
  -25.4110  -36.3122   24.0332 C   0  0  1  0  0  0
  -20.5867  -28.3664   23.1323 C   0  0  2  0  0  0
  -20.6778  -26.9407   22.5415 C   0  0  0  0  0  0
  -19.5757  -26.6399   21.5204 C   0  0  0  0  0  0
  -18.1927  -26.7942   22.1612 C   0  0  0  0  0  0
  -19.1523  -28.8859   23.2899 C   0  0  0  0  0  0
  -18.9454  -30.1466   23.8906 C   0  0  0  0  0  0
  -17.6457  -30.6601   24.0558 C   0  0  0  0  0  0
  -25.9038  -34.9487   23.5120 C   0  0  0  0  0  0
  -16.5346  -29.9100   23.6330 C   0  0  0  0  0  0
  -16.7263  -28.6531   23.0330 C   0  0  0  0  0  0
  -26.4460  -31.6617   25.0724 C   0  0  0  0  0  0
  -25.3728  -31.3731   26.1476 C   0  0  0  0  0  0
  -27.0276  -30.3057   24.6116 C   0  0  0  0  0  0
  -27.6046  -32.4318   25.7481 C   0  0  0  0  0  0
  -27.5587  -37.1816   24.8465 C   0  0  0  0  0  0
  -21.4176  -29.3034   22.3737 N   0  0  0  0  0  0
  -26.4305  -37.3807   23.9408 N   0  0  0  0  0  0
  -24.6757  -31.0740   22.1009 N   0  0  0  0  0  0
  -23.4202  -28.8157   23.3009 O   0  0  0  0  0  0
  -28.3621  -26.6021   20.0995 O   0  0  0  0  0  0
  -26.5600  -34.8932   22.4680 O   0  0  0  0  0  0
  -23.5371  -32.1405   23.7483 O   0  0  0  0  0  0
  -31.0001  -17.6700   21.1334 C   0  0  0  0  0  0
  -30.6699  -19.0505   20.9357 C   0  0  0  0  0  0
  -29.3897  -19.3174   20.5030 C   0  0  0  0  0  0
  -29.9500  -16.8193   20.8832 C   0  0  0  0  0  0
  -28.7260  -20.5950   20.2397 C   0  0  0  0  0  0
  -29.2350  -24.2339   20.2662 C   0  0  0  0  0  0
  -28.7295  -22.9946   21.0391 C   0  0  0  0  0  0
  -28.1571  -25.2079   19.7447 C   0  0  0  0  0  0
  -29.8528  -15.4670   21.0558 N   0  0  0  0  0  0
  -29.3776  -21.7091   20.6865 N   0  0  0  0  0  0
  -30.4394  -24.4199   20.0645 O   0  0  0  0  0  0
  -31.5544  -19.9928   21.1760 F   0  0  0  0  0  0
  -27.2353  -20.6702   19.4704 S   0  0  0  0  0  0
  -28.5670  -17.7573   20.3451 S   0  0  0  0  0  0
  -31.4839  -12.4388   19.1214 H   0  0  0  0  0  0
  -30.3553  -11.2955   19.7981 H   0  0  0  0  0  0
  -29.7549  -11.7981   17.4171 H   0  0  0  0  0  0
  -29.6908  -13.5026   17.7741 H   0  0  0  0  0  0
  -27.8134  -11.3254   18.7617 H   0  0  0  0  0  0
  -27.3916  -12.6891   17.7619 H   0  0  0  0  0  0
  -27.7107  -14.2553   19.5882 H   0  0  0  0  0  0
  -28.6800  -11.8941   21.2690 H   0  0  0  0  0  0
  -28.4542  -13.5001   21.8893 H   0  0  0  0  0  0
  -25.2782   -9.5701   22.4680 H   0  0  0  0  0  0
  -24.0022   -7.4654   22.7436 H   0  0  0  0  0  0
  -21.0814   -8.8754   19.8939 H   0  0  0  0  0  0
  -22.3675  -10.9641   19.6123 H   0  0  0  0  0  0
  -21.2011   -7.6144   23.9729 H   0  0  0  0  0  0
  -21.1487   -6.0496   25.9085 H   0  0  0  0  0  0
  -22.0596   -2.7597   23.2814 H   0  0  0  0  0  0
  -22.4125  -11.9975   22.4907 H   0  0  0  0  0  0
  -21.1102  -13.1260   22.2499 H   0  0  0  0  0  0
  -24.6597  -15.8379   20.5122 H   0  0  0  0  0  0
  -26.2787  -15.6336   20.0817 H   0  0  0  0  0  0
  -26.7130  -32.5498   23.1136 H   0  0  0  0  0  0
  -25.0049  -33.9773   25.0450 H   0  0  0  0  0  0
  -22.7002  -31.3098   21.4158 H   0  0  0  0  0  0
  -23.3758  -35.9650   23.3309 H   0  0  0  0  0  0
  -24.3574  -36.8909   22.2048 H   0  0  0  0  0  0
  -23.7238  -37.6531   23.6632 H   0  0  0  0  0  0
  -26.0654  -31.5857   20.6033 H   0  0  0  0  0  0
  -26.8314  -30.8691   21.9912 H   0  0  0  0  0  0
  -28.1070  -29.0468   21.1664 H   0  0  0  0  0  0
  -25.9629  -26.0128   18.9233 H   0  0  0  0  0  0
  -23.9595  -27.3486   18.9937 H   0  0  0  0  0  0
  -23.7338  -30.6139   19.4057 H   0  0  0  0  0  0
  -22.7419  -29.2585   19.8622 H   0  0  0  0  0  0
  -25.1302  -36.1977   25.0822 H   0  0  0  0  0  0
  -20.9941  -28.3204   24.1445 H   0  0  0  0  0  0
  -20.5689  -26.2253   23.3571 H   0  0  0  0  0  0
  -21.6636  -26.7456   22.1191 H   0  0  0  0  0  0
  -19.6906  -25.6313   21.1223 H   0  0  0  0  0  0
  -19.6711  -27.3221   20.6737 H   0  0  0  0  0  0
  -17.4194  -26.6663   21.4027 H   0  0  0  0  0  0
  -18.0352  -26.0106   22.9033 H   0  0  0  0  0  0
  -19.7931  -30.7284   24.2271 H   0  0  0  0  0  0
  -17.5008  -31.6275   24.5171 H   0  0  0  0  0  0
  -15.5348  -30.2995   23.7694 H   0  0  0  0  0  0
  -15.8647  -28.0868   22.7015 H   0  0  0  0  0  0
  -24.5904  -30.7062   25.7815 H   0  0  0  0  0  0
  -24.8915  -32.2884   26.4935 H   0  0  0  0  0  0
  -25.8083  -30.8898   27.0228 H   0  0  0  0  0  0
  -26.2804  -29.6852   24.1162 H   0  0  0  0  0  0
  -27.4028  -29.7281   25.4569 H   0  0  0  0  0  0
  -27.8649  -30.4389   23.9268 H   0  0  0  0  0  0
  -27.2696  -33.3623   26.2089 H   0  0  0  0  0  0
  -28.3856  -32.6861   25.0295 H   0  0  0  0  0  0
  -28.0722  -31.8413   26.5375 H   0  0  0  0  0  0
  -28.2627  -38.0101   24.7522 H   0  0  0  0  0  0
  -28.1060  -36.2637   24.6292 H   0  0  0  0  0  0
  -27.2297  -37.1478   25.8867 H   0  0  0  0  0  0
  -20.9338  -29.8775   21.6980 H   0  0  0  0  0  0
  -26.0190  -38.2881   24.1416 H   0  0  0  0  0  0
  -31.9721  -17.3607   21.4861 H   0  0  0  0  0  0
  -27.6444  -22.9464   20.9619 H   0  0  0  0  0  0
  -28.9292  -23.1829   22.0936 H   0  0  0  0  0  0
  -27.2116  -24.8503   20.1484 H   0  0  0  0  0  0
  -28.1042  -25.1131   18.6582 H   0  0  0  0  0  0
  -28.9401  -15.1295   21.3263 H   0  0  0  0  0  0
  -30.3206  -21.5699   21.0277 H   0  0  0  0  0  0
  1 25  1  0  0  0
  1 30  2  0  0  0
  1 79  1  0  0  0
  2  3  1  0  0  0
  2 25  1  0  0  0
  2 85  1  0  0  0
  2 86  1  0  0  0
  3  4  1  0  0  0
  3 87  1  0  0  0
  3 88  1  0  0  0
  4  5  1  0  0  0
  4 89  1  0  0  0
  4 90  1  0  0  0
  5  6  1  0  0  0
  5 26  1  0  0  0
  5 91  1  0  0  0
  6 25  1  0  0  0
  6 92  1  0  0  0
  6 93  1  0  0  0
  7  8  2  0  0  0
  7 26  1  0  0  0
  7 29  1  0  0  0
  8  9  1  0  0  0
  8 22  1  0  0  0
  9 10  1  0  0  0
  9 27  2  0  0  0
 10 11  2  0  0  0
 10 15  1  0  0  0
 11 12  1  0  0  0
 11 94  1  0  0  0
 12 13  2  0  0  0
 12 95  1  0  0  0
 13 14  1  0  0  0
 13 31  1  0  0  0
 14 15  2  0  0  0
 14 96  1  0  0  0
 15 97  1  0  0  0
 16 17  2  0  0  0
 16 21  1  0  0  0
 16 31  1  0  0  0
 17 18  1  0  0  0
 17 98  1  0  0  0
 18 19  2  0  0  0
 18 99  1  0  0  0
 19 20  1  0  0  0
 19 24  1  0  0  0
 20 21  2  0  0  0
 20100  1  0  0  0
 21 23  1  0  0  0
 22 28  1  0  0  0
 22 32  2  0  0  0
 26 27  1  0  0  0
 28101  1  0  0  0
 28102  1  0  0  0
 29103  1  0  0  0
 29104  1  0  0  0
 33 34  1  0  0  0
 33 66  1  0  0  0
 33 70  2  0  0  0
 34 36  1  0  0  0
 34 59  1  0  0  0
 34105  1  0  0  0
 35 44  2  0  0  0
 35 45  1  0  0  0
 35 68  1  0  0  0
 36 56  1  0  0  0
 36106  1  0  0  0
 37 39  1  0  0  0
 37 47  1  0  0  0
 37 66  1  0  0  0
 37107  1  0  0  0
 38 43  2  0  0  0
 38 46  1  0  0  0
 38 47  1  0  0  0
 39 64  1  0  0  0
 39 67  2  0  0  0
 40 52  1  0  0  0
 40 53  2  0  0  0
 40 58  1  0  0  0
 41108  1  0  0  0
 41109  1  0  0  0
 41110  1  0  0  0
 41 48  1  0  0  0
 42 43  1  0  0  0
 42 66  1  0  0  0
 42111  1  0  0  0
 42112  1  0  0  0
 43 44  1  0  0  0
 44113  1  0  0  0
 45 46  2  0  0  0
 45114  1  0  0  0
 46115  1  0  0  0
 47116  1  0  0  0
 47117  1  0  0  0
 48 56  1  0  0  0
 48 65  1  0  0  0
 48118  1  0  0  0
 49 50  1  0  0  0
 49 53  1  0  0  0
 49 64  1  0  0  0
 49119  1  0  0  0
 50 51  1  0  0  0
 50120  1  0  0  0
 50121  1  0  0  0
 51 52  1  0  0  0
 51122  1  0  0  0
 51123  1  0  0  0
 52124  1  0  0  0
 52125  1  0  0  0
 53 54  1  0  0  0
 54 55  2  0  0  0
 54126  1  0  0  0
 55 57  1  0  0  0
 55127  1  0  0  0
 56 69  2  0  0  0
 57 58  2  0  0  0
 57128  1  0  0  0
 58129  1  0  0  0
 59 60  1  0  0  0
 59 61  1  0  0  0
 59 62  1  0  0  0
 60130  1  0  0  0
 60131  1  0  0  0
 60132  1  0  0  0
 61133  1  0  0  0
 61134  1  0  0  0
 61135  1  0  0  0
 62136  1  0  0  0
 62137  1  0  0  0
 62138  1  0  0  0
 63 65  1  0  0  0
 63139  1  0  0  0
 63140  1  0  0  0
 63141  1  0  0  0
 64142  1  0  0  0
 65143  1  0  0  0
 68 78  1  0  0  0
 71 72  1  0  0  0
 71 74  2  0  0  0
 71144  1  0  0  0
 72 73  2  0  0  0
 72 82  1  0  0  0
 73 75  1  0  0  0
 73 84  1  0  0  0
 74 79  1  0  0  0
 74 84  1  0  0  0
 75 80  1  0  0  0
 75 83  2  0  0  0
 76 77  1  0  0  0
 76 78  1  0  0  0
 76 81  2  0  0  0
 77 80  1  0  0  0
 77145  1  0  0  0
 77146  1  0  0  0
 78147  1  0  0  0
 78148  1  0  0  0
 79149  1  0  0  0
 80150  1  0  0  0
M  ISO  4   1 100  68 101  78 101  79 100
M  END
> <chiral flag>
0

> <version>
0

> <s_m_source_file>
/data/baiqing/PycharmProjects/Reinvent-master-3.2/result/LINK_invent/BTK/process_docking_weight1_custom_product_contain_oxygen_bond_distance_aromatic_linkinvent_7_9_3/rearranged_h_0173.sdf

> <i_m_source_file_index>
62

> <r_mmod_Potential_Energy-OPLS-2005>
-101.864608764648

> <r_mmod_Stretch_Energy-OPLS-2005>
44.0045738220215

> <r_mmod_Bend_Energy-OPLS-2005>
109.963851928711

> <r_mmod_Torsional_Energy-OPLS-2005>
235.227935791016

> <r_mmod_Improper_Torsional_Energy-OPLS-2005>
5.58974123001099

> <r_mmod_Van_der_Waal_Energy-OPLS-2005>
151.003143310547

> <r_mmod_Electrostatic_Energy-OPLS-2005>
-429.728363037109

> <r_mmod_Solvation_Energy-OPLS-2005>
-237.147079467773

> <b_mmod_Minimization_Converged-OPLS-2005>
0

> <r_mmod_RMS_Derivative-OPLS-2005>
3.89447641372681

$$$$
62
                    3D
 Structure written by MMmdl.
158166  0  0  1  0            999 V2000
  -30.7345  -14.3883   20.5368 C   0  0  0  0  0  0
  -30.3971  -12.2402   19.4290 C   0  0  0  0  0  0
  -29.4914  -12.4972   18.2082 C   0  0  0  0  0  0
  -28.0106  -12.3679   18.6123 C   0  0  0  0  0  0
  -27.6586  -13.2048   19.8725 C   0  0  2  0  0  0
  -28.6933  -12.9862   21.0019 C   0  0  0  0  0  0
  -25.2561  -13.8154   20.5657 C   0  0  0  0  0  0
  -24.1817  -13.0438   20.9156 C   0  0  0  0  0  0
  -24.6359  -11.6901   20.8711 C   0  0  0  0  0  0
  -23.9020  -10.4292   21.0385 C   0  0  0  0  0  0
  -24.3575   -9.4226   21.9178 C   0  0  0  0  0  0
  -23.6269   -8.2252   22.0759 C   0  0  0  0  0  0
  -22.4260   -8.0264   21.3535 C   0  0  0  0  0  0
  -21.9879   -9.0230   20.4639 C   0  0  0  0  0  0
  -22.7186  -10.2123   20.3042 C   0  0  0  0  0  0
  -21.6857   -6.0711   22.5271 C   0  0  0  0  0  0
  -21.4015   -6.5625   23.8196 C   0  0  0  0  0  0
  -21.3663   -5.6787   24.9167 C   0  0  0  0  0  0
  -21.6046   -4.3052   24.7230 C   0  0  0  0  0  0
  -21.8823   -3.8132   23.4353 C   0  0  0  0  0  0
  -21.9196   -4.6940   22.3402 C   0  0  0  0  0  0
  -22.7846  -13.5242   21.1841 C   0  0  0  0  0  0
  -22.1668   -4.2123   21.0981 F   0  0  0  0  0  0
  -21.5632   -3.4540   25.7747 F   0  0  0  0  0  0
  -30.0351  -13.2312   20.4505 N   0  0  0  0  0  0
  -26.2991  -12.9320   20.3325 N   0  0  0  0  0  0
  -25.9283  -11.6483   20.5726 N   0  0  0  0  0  0
  -22.0495  -12.8230   22.0392 N   0  0  0  0  0  0
  -25.4274  -15.1878   20.4082 N   0  0  0  0  0  0
  -31.9077  -14.4834   20.1671 O   0  0  0  0  0  0
  -21.6638   -6.8857   21.4230 O   0  0  0  0  0  0
  -22.3541  -14.5561   20.6712 O   0  0  0  0  0  0
  -24.6099  -31.8716   23.2122 C   0  0  0  0  0  0
  -25.9019  -32.4842   23.8403 C   0  0  1  0  0  0
  -27.2409  -27.5034   20.0824 C   0  0  0  0  0  0
  -25.5886  -33.8639   24.2346 N   0  0  0  0  0  0
  -23.3940  -30.4965   21.5489 C   0  0  2  0  0  0
  -24.8411  -28.9647   20.1172 C   0  0  0  0  0  0
  -22.7363  -29.4705   22.4985 C   0  0  0  0  0  0
  -18.0266  -28.1387   22.8488 C   0  0  0  0  0  0
  -24.1471  -36.7326   23.2642 C   0  0  0  0  0  0
  -25.9150  -30.8607   21.3519 C   0  0  0  0  0  0
  -25.9960  -29.4987   20.7018 C   0  0  0  0  0  0
  -27.2032  -28.7760   20.6781 C   0  0  0  0  0  0
  -26.0750  -26.9600   19.5044 C   0  0  0  0  0  0
  -24.8719  -27.6919   19.5171 C   0  0  0  0  0  0
  -23.5994  -29.8233   20.1654 C   0  0  0  0  0  0
  -25.4102  -36.3126   24.0342 C   0  0  1  0  0  0
  -20.5849  -28.3678   23.1301 C   0  0  2  0  0  0
  -20.6753  -26.9415   22.5409 C   0  0  0  0  0  0
  -19.5740  -26.6392   21.5204 C   0  0  0  0  0  0
  -18.1910  -26.7940   22.1606 C   0  0  0  0  0  0
  -19.1517  -28.8845   23.2898 C   0  0  0  0  0  0
  -18.9458  -30.1456   23.8905 C   0  0  0  0  0  0
  -17.6464  -30.6594   24.0582 C   0  0  0  0  0  0
  -25.9028  -34.9487   23.5142 C   0  0  0  0  0  0
  -16.5354  -29.9099   23.6340 C   0  0  0  0  0  0
  -16.7264  -28.6521   23.0346 C   0  0  0  0  0  0
  -26.4472  -31.6601   25.0715 C   0  0  0  0  0  0
  -25.3763  -31.3661   26.1464 C   0  0  0  0  0  0
  -27.0317  -30.3062   24.6053 C   0  0  0  0  0  0
  -27.6040  -32.4309   25.7503 C   0  0  0  0  0  0
  -27.5576  -37.1821   24.8471 C   0  0  0  0  0  0
  -21.4100  -29.3056   22.3711 N   0  0  0  0  0  0
  -26.4293  -37.3811   23.9407 N   0  0  0  0  0  0
  -24.6573  -31.0888   22.0976 N   0  0  0  0  0  0
  -23.4151  -28.8244   23.3019 O   0  0  0  0  0  0
  -28.4188  -26.8170   20.0576 O   0  0  0  0  0  0
  -26.5596  -34.8933   22.4704 O   0  0  0  0  0  0
  -23.5308  -32.1433   23.7558 O   0  0  0  0  0  0
  -31.1114  -18.3995   19.0549 C   0  0  0  0  0  0
  -30.1917  -19.1567   19.7466 C   0  0  0  0  0  0
  -30.2042  -16.7703   20.3692 C   0  0  0  0  0  0
  -29.8017  -25.0911   20.9843 C   0  0  0  0  0  0
  -29.2944  -21.3705   20.2363 C   0  0  0  0  0  0
  -31.7106  -18.3831   16.5997 C   0  0  0  0  0  0
  -29.8923  -23.5973   21.2256 C   0  0  0  0  0  0
  -28.3962  -25.6765   20.8973 C   0  0  0  0  0  0
  -29.6081  -22.8242   19.9303 C   0  0  0  0  0  0
  -32.1048  -18.8445   18.0075 C   0  0  1  0  0  0
  -31.0924  -17.0564   19.4132 N   0  0  0  0  0  0
  -30.0666  -20.4945   19.5905 N   0  0  0  0  0  0
  -30.0103  -15.4620   20.8790 N   0  0  0  0  0  0
  -30.8186  -25.7806   20.8532 O   0  0  0  0  0  0
  -28.3873  -21.0809   21.0189 O   0  0  0  0  0  0
  -32.2536  -20.1712   17.9673 F   0  0  0  0  0  0
  -29.2573  -18.1580   20.8586 S   0  0  0  0  0  0
  -31.4499  -12.2852   19.1450 H   0  0  0  0  0  0
  -30.2380  -11.2321   19.8146 H   0  0  0  0  0  0
  -29.7280  -11.7976   17.4059 H   0  0  0  0  0  0
  -29.6791  -13.4954   17.8087 H   0  0  0  0  0  0
  -27.8143  -11.3127   18.8021 H   0  0  0  0  0  0
  -27.3660  -12.6491   17.7791 H   0  0  0  0  0  0
  -27.7034  -14.2524   19.5754 H   0  0  0  0  0  0
  -28.6370  -11.9643   21.3792 H   0  0  0  0  0  0
  -28.4754  -13.6273   21.8580 H   0  0  0  0  0  0
  -25.2707   -9.5730   22.4761 H   0  0  0  0  0  0
  -23.9977   -7.4662   22.7503 H   0  0  0  0  0  0
  -21.0803   -8.8723   19.8962 H   0  0  0  0  0  0
  -22.3611  -10.9647   19.6151 H   0  0  0  0  0  0
  -21.2008   -7.6132   23.9687 H   0  0  0  0  0  0
  -21.1486   -6.0528   25.9066 H   0  0  0  0  0  0
  -22.0602   -2.7596   23.2865 H   0  0  0  0  0  0
  -22.4106  -11.9870   22.4743 H   0  0  0  0  0  0
  -21.1117  -13.1257   22.2618 H   0  0  0  0  0  0
  -24.6514  -15.8349   20.4989 H   0  0  0  0  0  0
  -26.2776  -15.6320   20.0878 H   0  0  0  0  0  0
  -26.7102  -32.5585   23.1187 H   0  0  0  0  0  0
  -25.0048  -33.9797   25.0493 H   0  0  0  0  0  0
  -22.6825  -31.3123   21.4074 H   0  0  0  0  0  0
  -23.3741  -35.9650   23.3291 H   0  0  0  0  0  0
  -24.3563  -36.8961   22.2062 H   0  0  0  0  0  0
  -23.7198  -37.6513   23.6670 H   0  0  0  0  0  0
  -26.0150  -31.6290   20.5837 H   0  0  0  0  0  0
  -26.8072  -30.9170   21.9640 H   0  0  0  0  0  0
  -28.1017  -29.1932   21.1114 H   0  0  0  0  0  0
  -26.1024  -25.9863   19.0356 H   0  0  0  0  0  0
  -23.9835  -27.2742   19.0649 H   0  0  0  0  0  0
  -23.6992  -30.5947   19.4011 H   0  0  0  0  0  0
  -22.7269  -29.2360   19.8743 H   0  0  0  0  0  0
  -25.1278  -36.2009   25.0836 H   0  0  0  0  0  0
  -20.9961  -28.3264   24.1415 H   0  0  0  0  0  0
  -20.5649  -26.2298   23.3604 H   0  0  0  0  0  0
  -21.6628  -26.7434   22.1218 H   0  0  0  0  0  0
  -19.6896  -25.6300   21.1232 H   0  0  0  0  0  0
  -19.6686  -27.3209   20.6736 H   0  0  0  0  0  0
  -17.4188  -26.6711   21.3996 H   0  0  0  0  0  0
  -18.0295  -26.0067   22.8982 H   0  0  0  0  0  0
  -19.7938  -30.7274   24.2256 H   0  0  0  0  0  0
  -17.5026  -31.6269   24.5194 H   0  0  0  0  0  0
  -15.5362  -30.3018   23.7653 H   0  0  0  0  0  0
  -15.8663  -28.0865   22.7031 H   0  0  0  0  0  0
  -24.5955  -30.6985   25.7797 H   0  0  0  0  0  0
  -24.8934  -32.2794   26.4948 H   0  0  0  0  0  0
  -25.8154  -30.8817   27.0196 H   0  0  0  0  0  0
  -26.2850  -29.6794   24.1163 H   0  0  0  0  0  0
  -27.4166  -29.7323   25.4495 H   0  0  0  0  0  0
  -27.8637  -30.4399   23.9135 H   0  0  0  0  0  0
  -27.2658  -33.3597   26.2105 H   0  0  0  0  0  0
  -28.3873  -32.6874   25.0362 H   0  0  0  0  0  0
  -28.0676  -31.8403   26.5417 H   0  0  0  0  0  0
  -28.2610  -38.0104   24.7517 H   0  0  0  0  0  0
  -28.1053  -36.2634   24.6311 H   0  0  0  0  0  0
  -27.2279  -37.1500   25.8869 H   0  0  0  0  0  0
  -20.9247  -29.8798   21.6955 H   0  0  0  0  0  0
  -26.0186  -38.2887   24.1409 H   0  0  0  0  0  0
  -31.6451  -17.2959   16.5511 H   0  0  0  0  0  0
  -32.4476  -18.7039   15.8637 H   0  0  0  0  0  0
  -30.7448  -18.7922   16.3040 H   0  0  0  0  0  0
  -29.1623  -23.3430   21.9945 H   0  0  0  0  0  0
  -30.8749  -23.3389   21.6181 H   0  0  0  0  0  0
  -28.0662  -25.9462   21.9012 H   0  0  0  0  0  0
  -27.7025  -24.9313   20.5085 H   0  0  0  0  0  0
  -28.7593  -23.2384   19.3855 H   0  0  0  0  0  0
  -30.4674  -22.9004   19.2605 H   0  0  0  0  0  0
  -33.0927  -18.4515   18.2496 H   0  0  0  0  0  0
  -30.7346  -20.9021   18.9474 H   0  0  0  0  0  0
  -29.1219  -15.2850   21.3198 H   0  0  0  0  0  0
  1 25  1  0  0  0
  1 30  2  0  0  0
  1 83  1  0  0  0
  2  3  1  0  0  0
  2 25  1  0  0  0
  2 88  1  0  0  0
  2 89  1  0  0  0
  3  4  1  0  0  0
  3 90  1  0  0  0
  3 91  1  0  0  0
  4  5  1  0  0  0
  4 92  1  0  0  0
  4 93  1  0  0  0
  5  6  1  0  0  0
  5 26  1  0  0  0
  5 94  1  0  0  0
  6 25  1  0  0  0
  6 95  1  0  0  0
  6 96  1  0  0  0
  7  8  2  0  0  0
  7 26  1  0  0  0
  7 29  1  0  0  0
  8  9  1  0  0  0
  8 22  1  0  0  0
  9 10  1  0  0  0
  9 27  2  0  0  0
 10 11  2  0  0  0
 10 15  1  0  0  0
 11 12  1  0  0  0
 11 97  1  0  0  0
 12 13  2  0  0  0
 12 98  1  0  0  0
 13 14  1  0  0  0
 13 31  1  0  0  0
 14 15  2  0  0  0
 14 99  1  0  0  0
 15100  1  0  0  0
 16 17  2  0  0  0
 16 21  1  0  0  0
 16 31  1  0  0  0
 17 18  1  0  0  0
 17101  1  0  0  0
 18 19  2  0  0  0
 18102  1  0  0  0
 19 20  1  0  0  0
 19 24  1  0  0  0
 20 21  2  0  0  0
 20103  1  0  0  0
 21 23  1  0  0  0
 22 28  1  0  0  0
 22 32  2  0  0  0
 26 27  1  0  0  0
 28104  1  0  0  0
 28105  1  0  0  0
 29106  1  0  0  0
 29107  1  0  0  0
 33 34  1  0  0  0
 33 66  1  0  0  0
 33 70  2  0  0  0
 34 36  1  0  0  0
 34 59  1  0  0  0
 34108  1  0  0  0
 35 44  2  0  0  0
 35 45  1  0  0  0
 35 68  1  0  0  0
 36 56  1  0  0  0
 36109  1  0  0  0
 37 39  1  0  0  0
 37 47  1  0  0  0
 37 66  1  0  0  0
 37110  1  0  0  0
 38 43  2  0  0  0
 38 46  1  0  0  0
 38 47  1  0  0  0
 39 64  1  0  0  0
 39 67  2  0  0  0
 40 52  1  0  0  0
 40 53  2  0  0  0
 40 58  1  0  0  0
 41111  1  0  0  0
 41112  1  0  0  0
 41113  1  0  0  0
 41 48  1  0  0  0
 42 43  1  0  0  0
 42 66  1  0  0  0
 42114  1  0  0  0
 42115  1  0  0  0
 43 44  1  0  0  0
 44116  1  0  0  0
 45 46  2  0  0  0
 45117  1  0  0  0
 46118  1  0  0  0
 47119  1  0  0  0
 47120  1  0  0  0
 48 56  1  0  0  0
 48 65  1  0  0  0
 48121  1  0  0  0
 49 50  1  0  0  0
 49 53  1  0  0  0
 49 64  1  0  0  0
 49122  1  0  0  0
 50 51  1  0  0  0
 50123  1  0  0  0
 50124  1  0  0  0
 51 52  1  0  0  0
 51125  1  0  0  0
 51126  1  0  0  0
 52127  1  0  0  0
 52128  1  0  0  0
 53 54  1  0  0  0
 54 55  2  0  0  0
 54129  1  0  0  0
 55 57  1  0  0  0
 55130  1  0  0  0
 56 69  2  0  0  0
 57 58  2  0  0  0
 57131  1  0  0  0
 58132  1  0  0  0
 59 60  1  0  0  0
 59 61  1  0  0  0
 59 62  1  0  0  0
 60133  1  0  0  0
 60134  1  0  0  0
 60135  1  0  0  0
 61136  1  0  0  0
 61137  1  0  0  0
 61138  1  0  0  0
 62139  1  0  0  0
 62140  1  0  0  0
 62141  1  0  0  0
 63 65  1  0  0  0
 63142  1  0  0  0
 63143  1  0  0  0
 63144  1  0  0  0
 64145  1  0  0  0
 65146  1  0  0  0
 68 78  1  0  0  0
 71 72  2  0  0  0
 71 80  1  0  0  0
 71 81  1  0  0  0
 72 82  1  0  0  0
 72 87  1  0  0  0
 73 81  2  0  0  0
 73 83  1  0  0  0
 73 87  1  0  0  0
 74 77  1  0  0  0
 74 78  1  0  0  0
 74 84  2  0  0  0
 75 79  1  0  0  0
 75 82  1  0  0  0
 75 85  2  0  0  0
 76147  1  0  0  0
 76148  1  0  0  0
 76149  1  0  0  0
 76 80  1  0  0  0
 77 79  1  0  0  0
 77150  1  0  0  0
 77151  1  0  0  0
 78152  1  0  0  0
 78153  1  0  0  0
 79154  1  0  0  0
 79155  1  0  0  0
 80 86  1  0  0  0
 80156  1  0  0  0
 82157  1  0  0  0
 83158  1  0  0  0
M  ISO  4   1 100  68 101  78 101  83 100
M  END
> <chiral flag>
0

> <version>
0

> <s_m_source_file>
/data/baiqing/PycharmProjects/Reinvent-master-3.2/result/LINK_invent/BTK/process_docking_weight1_custom_product_contain_oxygen_bond_distance_aromatic_linkinvent_7_9_3/rearranged_h_0173.sdf

> <i_m_source_file_index>
63

> <r_mmod_Potential_Energy-OPLS-2005>
-182.220397949219

> <r_mmod_Stretch_Energy-OPLS-2005>
29.208797454834

> <r_mmod_Bend_Energy-OPLS-2005>
96.0804901123047

> <r_mmod_Torsional_Energy-OPLS-2005>
234.286239624023

> <r_mmod_Improper_Torsional_Energy-OPLS-2005>
5.21019124984741

> <r_mmod_Van_der_Waal_Energy-OPLS-2005>
143.240921020508

> <r_mmod_Electrostatic_Energy-OPLS-2005>
-452.085906982422

> <r_mmod_Solvation_Energy-OPLS-2005>
-253.362442016602

> <b_mmod_Minimization_Converged-OPLS-2005>
0

> <r_mmod_RMS_Derivative-OPLS-2005>
1.9135799407959

$$$$
63
                    3D
 Structure written by MMmdl.
158166  0  0  1  0            999 V2000
  -30.7217  -14.4232   20.5844 C   0  0  0  0  0  0
  -30.4119  -12.2785   19.4191 C   0  0  0  0  0  0
  -29.4896  -12.5079   18.2056 C   0  0  0  0  0  0
  -28.0107  -12.3766   18.6177 C   0  0  0  0  0  0
  -27.6647  -13.2056   19.8837 C   0  0  2  0  0  0
  -28.7036  -12.9662   21.0029 C   0  0  0  0  0  0
  -25.2584  -13.8166   20.5681 C   0  0  0  0  0  0
  -24.1835  -13.0439   20.9178 C   0  0  0  0  0  0
  -24.6397  -11.6908   20.8742 C   0  0  0  0  0  0
  -23.9062  -10.4288   21.0414 C   0  0  0  0  0  0
  -24.3617   -9.4204   21.9193 C   0  0  0  0  0  0
  -23.6287   -8.2241   22.0762 C   0  0  0  0  0  0
  -22.4275   -8.0273   21.3542 C   0  0  0  0  0  0
  -21.9904   -9.0255   20.4658 C   0  0  0  0  0  0
  -22.7236  -10.2131   20.3064 C   0  0  0  0  0  0
  -21.6849   -6.0728   22.5276 C   0  0  0  0  0  0
  -21.4019   -6.5636   23.8209 C   0  0  0  0  0  0
  -21.3668   -5.6788   24.9174 C   0  0  0  0  0  0
  -21.6035   -4.3046   24.7224 C   0  0  0  0  0  0
  -21.8823   -3.8142   23.4349 C   0  0  0  0  0  0
  -21.9193   -4.6956   22.3406 C   0  0  0  0  0  0
  -22.7866  -13.5232   21.1837 C   0  0  0  0  0  0
  -22.1655   -4.2143   21.0984 F   0  0  0  0  0  0
  -21.5634   -3.4539   25.7742 F   0  0  0  0  0  0
  -30.0399  -13.2546   20.4554 N   0  0  0  0  0  0
  -26.3030  -12.9335   20.3407 N   0  0  0  0  0  0
  -25.9322  -11.6490   20.5803 N   0  0  0  0  0  0
  -22.0504  -12.8226   22.0402 N   0  0  0  0  0  0
  -25.4285  -15.1884   20.4084 N   0  0  0  0  0  0
  -31.8261  -14.6024   20.0604 O   0  0  0  0  0  0
  -21.6631   -6.8876   21.4236 O   0  0  0  0  0  0
  -22.3553  -14.5540   20.6687 O   0  0  0  0  0  0
  -24.6106  -31.8680   23.2152 C   0  0  0  0  0  0
  -25.9010  -32.4835   23.8439 C   0  0  1  0  0  0
  -27.2365  -27.4661   20.0949 C   0  0  0  0  0  0
  -25.5874  -33.8636   24.2358 N   0  0  0  0  0  0
  -23.3997  -30.4895   21.5542 C   0  0  2  0  0  0
  -24.8491  -28.9611   20.1175 C   0  0  0  0  0  0
  -22.7405  -29.4629   22.5032 C   0  0  0  0  0  0
  -18.0255  -28.1367   22.8496 C   0  0  0  0  0  0
  -24.1472  -36.7301   23.2643 C   0  0  0  0  0  0
  -25.9236  -30.8443   21.3653 C   0  0  0  0  0  0
  -26.0069  -29.4817   20.7107 C   0  0  0  0  0  0
  -27.2080  -28.7407   20.6958 C   0  0  0  0  0  0
  -26.0672  -26.9479   19.5025 C   0  0  0  0  0  0
  -24.8725  -27.6929   19.5084 C   0  0  0  0  0  0
  -23.6062  -29.8203   20.1690 C   0  0  0  0  0  0
  -25.4104  -36.3132   24.0343 C   0  0  1  0  0  0
  -20.5835  -28.3632   23.1345 C   0  0  2  0  0  0
  -20.6740  -26.9380   22.5423 C   0  0  0  0  0  0
  -19.5731  -26.6385   21.5200 C   0  0  0  0  0  0
  -18.1907  -26.7917   22.1615 C   0  0  0  0  0  0
  -19.1498  -28.8822   23.2918 C   0  0  0  0  0  0
  -18.9429  -30.1426   23.8937 C   0  0  0  0  0  0
  -17.6435  -30.6587   24.0553 C   0  0  0  0  0  0
  -25.9019  -34.9484   23.5151 C   0  0  0  0  0  0
  -16.5325  -29.9081   23.6325 C   0  0  0  0  0  0
  -16.7244  -28.6484   23.0369 C   0  0  0  0  0  0
  -26.4470  -31.6606   25.0745 C   0  0  0  0  0  0
  -25.3739  -31.3669   26.1487 C   0  0  0  0  0  0
  -27.0313  -30.3068   24.6091 C   0  0  0  0  0  0
  -27.6088  -32.4309   25.7464 C   0  0  0  0  0  0
  -27.5573  -37.1810   24.8481 C   0  0  0  0  0  0
  -21.4132  -29.2994   22.3758 N   0  0  0  0  0  0
  -26.4301  -37.3807   23.9405 N   0  0  0  0  0  0
  -24.6622  -31.0802   22.1040 N   0  0  0  0  0  0
  -23.4184  -28.8142   23.3050 O   0  0  0  0  0  0
  -28.3824  -26.7179   20.0981 O   0  0  0  0  0  0
  -26.5594  -34.8924   22.4720 O   0  0  0  0  0  0
  -23.5301  -32.1394   23.7575 O   0  0  0  0  0  0
  -30.2099  -17.5249   22.4343 C   0  0  0  0  0  0
  -31.1311  -19.4037   21.4673 C   0  0  0  0  0  0
  -30.4286  -16.7765   21.2495 C   0  0  0  0  0  0
  -31.2969  -18.6906   20.2481 C   0  0  0  0  0  0
  -31.6352  -20.7684   21.7044 C   0  0  0  0  0  0
  -28.8763  -24.3772   20.6112 C   0  0  0  0  0  0
  -28.7450  -23.1882   21.5723 C   0  0  0  0  0  0
  -28.3816  -25.7312   21.1341 C   0  0  0  0  0  0
  -29.4583  -21.8899   21.1322 C   0  0  0  0  0  0
  -30.5702  -18.8277   22.5573 N   0  0  0  0  0  0
  -30.9378  -17.3932   20.1462 N   0  0  0  0  0  0
  -31.8555  -19.2343   19.0948 N   0  0  0  0  0  0
  -32.9054  -20.9334   22.1048 N   0  0  0  0  0  0
  -30.0994  -15.3938   21.2738 N   0  0  0  0  0  0
  -30.8694  -21.8678   21.5473 N   0  3  0  0  0  0
  -29.3576  -24.2527   19.4790 O   0  0  0  0  0  0
  -31.4594  -12.3581   19.1206 H   0  0  0  0  0  0
  -30.2924  -11.2646   19.8032 H   0  0  0  0  0  0
  -29.7206  -11.7940   17.4136 H   0  0  0  0  0  0
  -29.6694  -13.4996   17.7887 H   0  0  0  0  0  0
  -27.8139  -11.3206   18.8035 H   0  0  0  0  0  0
  -27.3609  -12.6641   17.7898 H   0  0  0  0  0  0
  -27.7158  -14.2578   19.6027 H   0  0  0  0  0  0
  -28.6696  -11.9273   21.3353 H   0  0  0  0  0  0
  -28.4698  -13.5575   21.8882 H   0  0  0  0  0  0
  -25.2767   -9.5667   22.4759 H   0  0  0  0  0  0
  -23.9989   -7.4634   22.7488 H   0  0  0  0  0  0
  -21.0829   -8.8791   19.8966 H   0  0  0  0  0  0
  -22.3710  -10.9675   19.6173 H   0  0  0  0  0  0
  -21.2006   -7.6148   23.9712 H   0  0  0  0  0  0
  -21.1488   -6.0524   25.9079 H   0  0  0  0  0  0
  -22.0593   -2.7603   23.2856 H   0  0  0  0  0  0
  -22.4108  -11.9874   22.4775 H   0  0  0  0  0  0
  -21.1144  -13.1289   22.2645 H   0  0  0  0  0  0
  -24.6576  -15.8405   20.5119 H   0  0  0  0  0  0
  -26.2770  -15.6302   20.0760 H   0  0  0  0  0  0
  -26.7083  -32.5571   23.1208 H   0  0  0  0  0  0
  -25.0058  -33.9815   25.0525 H   0  0  0  0  0  0
  -22.6854  -31.3044   21.4186 H   0  0  0  0  0  0
  -23.3747  -35.9619   23.3350 H   0  0  0  0  0  0
  -24.3559  -36.8874   22.2047 H   0  0  0  0  0  0
  -23.7188  -37.6507   23.6621 H   0  0  0  0  0  0
  -26.0364  -31.6171   20.6034 H   0  0  0  0  0  0
  -26.8114  -30.8956   21.9848 H   0  0  0  0  0  0
  -28.1047  -29.1374   21.1506 H   0  0  0  0  0  0
  -26.0817  -25.9708   19.0434 H   0  0  0  0  0  0
  -23.9807  -27.2912   19.0486 H   0  0  0  0  0  0
  -23.7050  -30.5931   19.4059 H   0  0  0  0  0  0
  -22.7342  -29.2309   19.8804 H   0  0  0  0  0  0
  -25.1271  -36.2028   25.0834 H   0  0  0  0  0  0
  -20.9923  -28.3171   24.1470 H   0  0  0  0  0  0
  -20.5620  -26.2225   23.3582 H   0  0  0  0  0  0
  -21.6608  -26.7410   22.1222 H   0  0  0  0  0  0
  -19.6889  -25.6301   21.1209 H   0  0  0  0  0  0
  -19.6690  -27.3208   20.6741 H   0  0  0  0  0  0
  -17.4166  -26.6661   21.4025 H   0  0  0  0  0  0
  -18.0336  -26.0048   22.9007 H   0  0  0  0  0  0
  -19.7898  -30.7225   24.2347 H   0  0  0  0  0  0
  -17.4983  -31.6286   24.5126 H   0  0  0  0  0  0
  -15.5324  -30.3001   23.7636 H   0  0  0  0  0  0
  -15.8630  -28.0809   22.7108 H   0  0  0  0  0  0
  -24.5916  -30.7037   25.7768 H   0  0  0  0  0  0
  -24.8924  -32.2808   26.4984 H   0  0  0  0  0  0
  -25.8086  -30.8763   27.0211 H   0  0  0  0  0  0
  -26.2842  -29.6810   24.1199 H   0  0  0  0  0  0
  -27.4171  -29.7328   25.4535 H   0  0  0  0  0  0
  -27.8640  -30.4429   23.9188 H   0  0  0  0  0  0
  -27.2764  -33.3601   26.2106 H   0  0  0  0  0  0
  -28.3836  -32.6883   25.0222 H   0  0  0  0  0  0
  -28.0831  -31.8385   26.5302 H   0  0  0  0  0  0
  -28.2642  -38.0063   24.7507 H   0  0  0  0  0  0
  -28.1027  -36.2601   24.6354 H   0  0  0  0  0  0
  -27.2292  -37.1513   25.8891 H   0  0  0  0  0  0
  -20.9293  -29.8728   21.6989 H   0  0  0  0  0  0
  -26.0211  -38.2893   24.1421 H   0  0  0  0  0  0
  -29.7787  -17.0619   23.3114 H   0  0  0  0  0  0
  -27.6835  -22.9833   21.7040 H   0  0  0  0  0  0
  -29.1132  -23.4976   22.5495 H   0  0  0  0  0  0
  -29.0280  -26.0627   21.9462 H   0  0  0  0  0  0
  -27.3851  -25.5926   21.5587 H   0  0  0  0  0  0
  -29.3846  -21.7310   20.0560 H   0  0  0  0  0  0
  -28.9484  -21.0462   21.5960 H   0  0  0  0  0  0
  -32.1210  -18.6203   18.3329 H   0  0  0  0  0  0
  -32.3271  -20.1319   19.1005 H   0  0  0  0  0  0
  -33.4757  -20.1207   22.2876 H   0  0  0  0  0  0
  -33.3222  -21.8342   22.2792 H   0  0  0  0  0  0
  -29.2966  -15.1241   21.8194 H   0  0  0  0  0  0
  -31.3016  -22.7719   21.6614 H   0  0  0  0  0  0
  1 25  1  0  0  0
  1 30  2  0  0  0
  1 84  1  0  0  0
  2  3  1  0  0  0
  2 25  1  0  0  0
  2 87  1  0  0  0
  2 88  1  0  0  0
  3  4  1  0  0  0
  3 89  1  0  0  0
  3 90  1  0  0  0
  4  5  1  0  0  0
  4 91  1  0  0  0
  4 92  1  0  0  0
  5  6  1  0  0  0
  5 26  1  0  0  0
  5 93  1  0  0  0
  6 25  1  0  0  0
  6 94  1  0  0  0
  6 95  1  0  0  0
  7  8  2  0  0  0
  7 26  1  0  0  0
  7 29  1  0  0  0
  8  9  1  0  0  0
  8 22  1  0  0  0
  9 10  1  0  0  0
  9 27  2  0  0  0
 10 11  2  0  0  0
 10 15  1  0  0  0
 11 12  1  0  0  0
 11 96  1  0  0  0
 12 13  2  0  0  0
 12 97  1  0  0  0
 13 14  1  0  0  0
 13 31  1  0  0  0
 14 15  2  0  0  0
 14 98  1  0  0  0
 15 99  1  0  0  0
 16 17  2  0  0  0
 16 21  1  0  0  0
 16 31  1  0  0  0
 17 18  1  0  0  0
 17100  1  0  0  0
 18 19  2  0  0  0
 18101  1  0  0  0
 19 20  1  0  0  0
 19 24  1  0  0  0
 20 21  2  0  0  0
 20102  1  0  0  0
 21 23  1  0  0  0
 22 28  1  0  0  0
 22 32  2  0  0  0
 26 27  1  0  0  0
 28103  1  0  0  0
 28104  1  0  0  0
 29105  1  0  0  0
 29106  1  0  0  0
 33 34  1  0  0  0
 33 66  1  0  0  0
 33 70  2  0  0  0
 34 36  1  0  0  0
 34 59  1  0  0  0
 34107  1  0  0  0
 35 44  2  0  0  0
 35 45  1  0  0  0
 35 68  1  0  0  0
 36 56  1  0  0  0
 36108  1  0  0  0
 37 39  1  0  0  0
 37 47  1  0  0  0
 37 66  1  0  0  0
 37109  1  0  0  0
 38 43  2  0  0  0
 38 46  1  0  0  0
 38 47  1  0  0  0
 39 64  1  0  0  0
 39 67  2  0  0  0
 40 52  1  0  0  0
 40 53  2  0  0  0
 40 58  1  0  0  0
 41110  1  0  0  0
 41111  1  0  0  0
 41112  1  0  0  0
 41 48  1  0  0  0
 42 43  1  0  0  0
 42 66  1  0  0  0
 42113  1  0  0  0
 42114  1  0  0  0
 43 44  1  0  0  0
 44115  1  0  0  0
 45 46  2  0  0  0
 45116  1  0  0  0
 46117  1  0  0  0
 47118  1  0  0  0
 47119  1  0  0  0
 48 56  1  0  0  0
 48 65  1  0  0  0
 48120  1  0  0  0
 49 50  1  0  0  0
 49 53  1  0  0  0
 49 64  1  0  0  0
 49121  1  0  0  0
 50 51  1  0  0  0
 50122  1  0  0  0
 50123  1  0  0  0
 51 52  1  0  0  0
 51124  1  0  0  0
 51125  1  0  0  0
 52126  1  0  0  0
 52127  1  0  0  0
 53 54  1  0  0  0
 54 55  2  0  0  0
 54128  1  0  0  0
 55 57  1  0  0  0
 55129  1  0  0  0
 56 69  2  0  0  0
 57 58  2  0  0  0
 57130  1  0  0  0
 58131  1  0  0  0
 59 60  1  0  0  0
 59 61  1  0  0  0
 59 62  1  0  0  0
 60132  1  0  0  0
 60133  1  0  0  0
 60134  1  0  0  0
 61135  1  0  0  0
 61136  1  0  0  0
 61137  1  0  0  0
 62138  1  0  0  0
 62139  1  0  0  0
 62140  1  0  0  0
 63 65  1  0  0  0
 63141  1  0  0  0
 63142  1  0  0  0
 63143  1  0  0  0
 64144  1  0  0  0
 65145  1  0  0  0
 68 78  1  0  0  0
 71 73  2  0  0  0
 71 80  1  0  0  0
 71146  1  0  0  0
 72 74  1  0  0  0
 72 75  1  0  0  0
 72 80  2  0  0  0
 73 81  1  0  0  0
 73 84  1  0  0  0
 74 81  2  0  0  0
 74 82  1  0  0  0
 75 83  1  0  0  0
 75 85  2  0  0  0
 76 77  1  0  0  0
 76 78  1  0  0  0
 76 86  2  0  0  0
 77 79  1  0  0  0
 77147  1  0  0  0
 77148  1  0  0  0
 78149  1  0  0  0
 78150  1  0  0  0
 79 85  1  0  0  0
 79151  1  0  0  0
 79152  1  0  0  0
 82153  1  0  0  0
 82154  1  0  0  0
 83155  1  0  0  0
 83156  1  0  0  0
 84157  1  0  0  0
 85158  1  0  0  0
M  CHG  1  85   1
M  ISO  4   1 100  68 101  78 101  84 100
M  END
> <chiral flag>
0

> <version>
0

> <s_m_source_file>
/data/baiqing/PycharmProjects/Reinvent-master-3.2/result/LINK_invent/BTK/process_docking_weight1_custom_product_contain_oxygen_bond_distance_aromatic_linkinvent_7_9_3/rearranged_h_0173.sdf

> <i_m_source_file_index>
64

> <r_mmod_Potential_Energy-OPLS-2005>
-112.530799865723

> <r_mmod_Stretch_Energy-OPLS-2005>
35.5990943908691

> <r_mmod_Bend_Energy-OPLS-2005>
99.8652038574219

> <r_mmod_Torsional_Energy-OPLS-2005>
241.402069091797

> <r_mmod_Improper_Torsional_Energy-OPLS-2005>
3.88466262817383

> <r_mmod_Van_der_Waal_Energy-OPLS-2005>
153.997329711914

> <r_mmod_Electrostatic_Energy-OPLS-2005>
-154.777130126953

> <r_mmod_Solvation_Energy-OPLS-2005>
-501.492889404297

> <b_mmod_Minimization_Converged-OPLS-2005>
0

> <r_mmod_RMS_Derivative-OPLS-2005>
2.71894407272339

$$$$
64
                    3D
 Structure written by MMmdl.
156164  0  0  1  0            999 V2000
  -30.6876  -14.5309   20.5442 C   0  0  0  0  0  0
  -30.4236  -12.3334   19.4402 C   0  0  0  0  0  0
  -29.4987  -12.4999   18.2163 C   0  0  0  0  0  0
  -28.0202  -12.3534   18.6268 C   0  0  0  0  0  0
  -27.6561  -13.2126   19.8678 C   0  0  2  0  0  0
  -28.6984  -13.0351   20.9955 C   0  0  0  0  0  0
  -25.2569  -13.8175   20.5677 C   0  0  0  0  0  0
  -24.1833  -13.0446   20.9189 C   0  0  0  0  0  0
  -24.6392  -11.6913   20.8742 C   0  0  0  0  0  0
  -23.9068  -10.4291   21.0402 C   0  0  0  0  0  0
  -24.3618   -9.4209   21.9181 C   0  0  0  0  0  0
  -23.6287   -8.2248   22.0756 C   0  0  0  0  0  0
  -22.4271   -8.0286   21.3545 C   0  0  0  0  0  0
  -21.9913   -9.0261   20.4650 C   0  0  0  0  0  0
  -22.7243  -10.2138   20.3055 C   0  0  0  0  0  0
  -21.6850   -6.0740   22.5276 C   0  0  0  0  0  0
  -21.4009   -6.5642   23.8211 C   0  0  0  0  0  0
  -21.3662   -5.6793   24.9176 C   0  0  0  0  0  0
  -21.6048   -4.3056   24.7221 C   0  0  0  0  0  0
  -21.8819   -3.8151   23.4340 C   0  0  0  0  0  0
  -21.9189   -4.6968   22.3397 C   0  0  0  0  0  0
  -22.7855  -13.5236   21.1847 C   0  0  0  0  0  0
  -22.1660   -4.2155   21.0973 F   0  0  0  0  0  0
  -21.5632   -3.4537   25.7733 F   0  0  0  0  0  0
  -30.0246  -13.3425   20.4364 N   0  0  0  0  0  0
  -26.2998  -12.9355   20.3334 N   0  0  0  0  0  0
  -25.9320  -11.6512   20.5767 N   0  0  0  0  0  0
  -22.0496  -12.8233   22.0404 N   0  0  0  0  0  0
  -25.4286  -15.1897   20.4066 N   0  0  0  0  0  0
  -31.8426  -14.6652   20.1281 O   0  0  0  0  0  0
  -21.6637   -6.8885   21.4239 O   0  0  0  0  0  0
  -22.3547  -14.5542   20.6689 O   0  0  0  0  0  0
  -24.6192  -31.8658   23.2101 C   0  0  0  0  0  0
  -25.9069  -32.4808   23.8398 C   0  0  1  0  0  0
  -27.2192  -27.3889   20.0961 C   0  0  0  0  0  0
  -25.5911  -33.8611   24.2327 N   0  0  0  0  0  0
  -23.4080  -30.4927   21.5512 C   0  0  2  0  0  0
  -24.8526  -28.9636   20.1081 C   0  0  0  0  0  0
  -22.7433  -29.4651   22.4970 C   0  0  0  0  0  0
  -18.0277  -28.1364   22.8483 C   0  0  0  0  0  0
  -24.1491  -36.7315   23.2641 C   0  0  0  0  0  0
  -25.9445  -30.8184   21.3716 C   0  0  0  0  0  0
  -26.0189  -29.4547   20.7076 C   0  0  0  0  0  0
  -27.2070  -28.6783   20.6925 C   0  0  0  0  0  0
  -26.0319  -26.9407   19.4678 C   0  0  0  0  0  0
  -24.8569  -27.7096   19.4815 C   0  0  0  0  0  0
  -23.6181  -29.8340   20.1637 C   0  0  0  0  0  0
  -25.4110  -36.3102   24.0335 C   0  0  1  0  0  0
  -20.5871  -28.3669   23.1301 C   0  0  2  0  0  0
  -20.6765  -26.9400   22.5413 C   0  0  0  0  0  0
  -19.5748  -26.6375   21.5202 C   0  0  0  0  0  0
  -18.1922  -26.7913   22.1612 C   0  0  0  0  0  0
  -19.1525  -28.8831   23.2884 C   0  0  0  0  0  0
  -18.9457  -30.1429   23.8911 C   0  0  0  0  0  0
  -17.6462  -30.6579   24.0555 C   0  0  0  0  0  0
  -25.9040  -34.9470   23.5134 C   0  0  0  0  0  0
  -16.5351  -29.9085   23.6315 C   0  0  0  0  0  0
  -16.7262  -28.6489   23.0352 C   0  0  0  0  0  0
  -26.4486  -31.6598   25.0739 C   0  0  0  0  0  0
  -25.3743  -31.3706   26.1479 C   0  0  0  0  0  0
  -27.0322  -30.3034   24.6145 C   0  0  0  0  0  0
  -27.6054  -32.4328   25.7506 C   0  0  0  0  0  0
  -27.5588  -37.1812   24.8462 C   0  0  0  0  0  0
  -21.4156  -29.3044   22.3718 N   0  0  0  0  0  0
  -26.4302  -37.3787   23.9403 N   0  0  0  0  0  0
  -24.6758  -31.0737   22.1017 N   0  0  0  0  0  0
  -23.4188  -28.8169   23.3006 O   0  0  0  0  0  0
  -28.3561  -26.5866   20.1582 O   0  0  0  0  0  0
  -26.5599  -34.8925   22.4694 O   0  0  0  0  0  0
  -23.5379  -32.1438   23.7476 O   0  0  0  0  0  0
  -31.5803  -18.8563   21.0156 C   0  0  0  0  0  0
  -30.4258  -19.4800   20.5865 C   0  0  0  0  0  0
  -30.2677  -16.9846   20.8929 C   0  0  0  0  0  0
  -29.3181  -21.6672   20.1846 C   0  0  0  0  0  0
  -32.8939  -19.5267   21.2852 C   0  0  0  0  0  0
  -27.3848  -24.7622   21.4875 C   0  0  0  0  0  0
  -29.5535  -22.9970   19.4157 C   0  0  0  0  0  0
  -29.5267  -24.3632   20.1864 C   0  0  0  0  0  0
  -28.1737  -25.1374   20.2162 C   0  0  2  0  0  0
  -31.4804  -17.4651   21.1873 N   0  0  0  0  0  0
  -30.3551  -20.8018   20.2216 N   0  0  0  0  0  0
  -29.9414  -15.5864   20.9537 N   0  0  0  0  0  0
  -28.2240  -21.4308   20.6974 O   0  0  0  0  0  0
  -29.1283  -18.2816   20.4702 S   0  0  0  0  0  0
  -31.4684  -12.4291   19.1402 H   0  0  0  0  0  0
  -30.3275  -11.3320   19.8620 H   0  0  0  0  0  0
  -29.7484  -11.7625   17.4525 H   0  0  0  0  0  0
  -29.6605  -13.4788   17.7619 H   0  0  0  0  0  0
  -27.8395  -11.2993   18.8419 H   0  0  0  0  0  0
  -27.3696  -12.6072   17.7885 H   0  0  0  0  0  0
  -27.6866  -14.2536   19.5439 H   0  0  0  0  0  0
  -28.6849  -12.0092   21.3682 H   0  0  0  0  0  0
  -28.4569  -13.6625   21.8549 H   0  0  0  0  0  0
  -25.2761   -9.5684   22.4761 H   0  0  0  0  0  0
  -23.9995   -7.4641   22.7475 H   0  0  0  0  0  0
  -21.0849   -8.8783   19.8949 H   0  0  0  0  0  0
  -22.3703  -10.9681   19.6168 H   0  0  0  0  0  0
  -21.1998   -7.6148   23.9716 H   0  0  0  0  0  0
  -21.1491   -6.0524   25.9080 H   0  0  0  0  0  0
  -22.0595   -2.7612   23.2836 H   0  0  0  0  0  0
  -22.4105  -11.9890   22.4787 H   0  0  0  0  0  0
  -21.1116  -13.1270   22.2604 H   0  0  0  0  0  0
  -24.6572  -15.8411   20.5044 H   0  0  0  0  0  0
  -26.2698  -15.6263   20.0518 H   0  0  0  0  0  0
  -26.7136  -32.5510   23.1155 H   0  0  0  0  0  0
  -25.0048  -33.9757   25.0466 H   0  0  0  0  0  0
  -22.6986  -31.3124   21.4162 H   0  0  0  0  0  0
  -23.3748  -35.9653   23.3292 H   0  0  0  0  0  0
  -24.3579  -36.8933   22.2052 H   0  0  0  0  0  0
  -23.7253  -37.6523   23.6666 H   0  0  0  0  0  0
  -26.0694  -31.5880   20.6086 H   0  0  0  0  0  0
  -26.8269  -30.8642   21.9975 H   0  0  0  0  0  0
  -28.1044  -29.0495   21.1683 H   0  0  0  0  0  0
  -25.9725  -25.9859   18.9698 H   0  0  0  0  0  0
  -23.9608  -27.3308   19.0083 H   0  0  0  0  0  0
  -23.7300  -30.6147   19.4102 H   0  0  0  0  0  0
  -22.7402  -29.2585   19.8639 H   0  0  0  0  0  0
  -25.1284  -36.1969   25.0832 H   0  0  0  0  0  0
  -20.9956  -28.3247   24.1424 H   0  0  0  0  0  0
  -20.5657  -26.2278   23.3606 H   0  0  0  0  0  0
  -21.6635  -26.7434   22.1213 H   0  0  0  0  0  0
  -19.6911  -25.6285   21.1235 H   0  0  0  0  0  0
  -19.6691  -27.3183   20.6729 H   0  0  0  0  0  0
  -17.4191  -26.6649   21.4019 H   0  0  0  0  0  0
  -18.0320  -26.0055   22.9010 H   0  0  0  0  0  0
  -19.7939  -30.7208   24.2319 H   0  0  0  0  0  0
  -17.5035  -31.6270   24.5134 H   0  0  0  0  0  0
  -15.5358  -30.2997   23.7639 H   0  0  0  0  0  0
  -15.8654  -28.0812   22.7087 H   0  0  0  0  0  0
  -24.5923  -30.7046   25.7814 H   0  0  0  0  0  0
  -24.8929  -32.2863   26.4926 H   0  0  0  0  0  0
  -25.8087  -30.8881   27.0241 H   0  0  0  0  0  0
  -26.2886  -29.6781   24.1194 H   0  0  0  0  0  0
  -27.4069  -29.7277   25.4613 H   0  0  0  0  0  0
  -27.8730  -30.4315   23.9324 H   0  0  0  0  0  0
  -27.2655  -33.3625   26.2084 H   0  0  0  0  0  0
  -28.3863  -32.6887   25.0331 H   0  0  0  0  0  0
  -28.0724  -31.8451   26.5418 H   0  0  0  0  0  0
  -28.2597  -38.0118   24.7511 H   0  0  0  0  0  0
  -28.1089  -36.2647   24.6284 H   0  0  0  0  0  0
  -27.2299  -37.1446   25.8863 H   0  0  0  0  0  0
  -20.9322  -29.8789   21.6954 H   0  0  0  0  0  0
  -26.0188  -38.2865   24.1401 H   0  0  0  0  0  0
  -32.7775  -20.3381   22.0043 H   0  0  0  0  0  0
  -33.3153  -19.9540   20.3755 H   0  0  0  0  0  0
  -33.6289  -18.8340   21.6941 H   0  0  0  0  0  0
  -27.2557  -23.6840   21.5665 H   0  0  0  0  0  0
  -26.3871  -25.1981   21.5049 H   0  0  0  0  0  0
  -27.9027  -25.1012   22.3854 H   0  0  0  0  0  0
  -28.8518  -23.0302   18.5823 H   0  0  0  0  0  0
  -30.5301  -22.9210   18.9358 H   0  0  0  0  0  0
  -30.2478  -25.0096   19.6860 H   0  0  0  0  0  0
  -29.9221  -24.2384   21.1949 H   0  0  0  0  0  0
  -27.6276  -24.8126   19.3329 H   0  0  0  0  0  0
  -31.2259  -21.1944   19.8912 H   0  0  0  0  0  0
  -28.9787  -15.3729   21.1597 H   0  0  0  0  0  0
  1 25  1  0  0  0
  1 30  2  0  0  0
  1 82  1  0  0  0
  2  3  1  0  0  0
  2 25  1  0  0  0
  2 85  1  0  0  0
  2 86  1  0  0  0
  3  4  1  0  0  0
  3 87  1  0  0  0
  3 88  1  0  0  0
  4  5  1  0  0  0
  4 89  1  0  0  0
  4 90  1  0  0  0
  5  6  1  0  0  0
  5 26  1  0  0  0
  5 91  1  0  0  0
  6 25  1  0  0  0
  6 92  1  0  0  0
  6 93  1  0  0  0
  7  8  2  0  0  0
  7 26  1  0  0  0
  7 29  1  0  0  0
  8  9  1  0  0  0
  8 22  1  0  0  0
  9 10  1  0  0  0
  9 27  2  0  0  0
 10 11  2  0  0  0
 10 15  1  0  0  0
 11 12  1  0  0  0
 11 94  1  0  0  0
 12 13  2  0  0  0
 12 95  1  0  0  0
 13 14  1  0  0  0
 13 31  1  0  0  0
 14 15  2  0  0  0
 14 96  1  0  0  0
 15 97  1  0  0  0
 16 17  2  0  0  0
 16 21  1  0  0  0
 16 31  1  0  0  0
 17 18  1  0  0  0
 17 98  1  0  0  0
 18 19  2  0  0  0
 18 99  1  0  0  0
 19 20  1  0  0  0
 19 24  1  0  0  0
 20 21  2  0  0  0
 20100  1  0  0  0
 21 23  1  0  0  0
 22 28  1  0  0  0
 22 32  2  0  0  0
 26 27  1  0  0  0
 28101  1  0  0  0
 28102  1  0  0  0
 29103  1  0  0  0
 29104  1  0  0  0
 33 34  1  0  0  0
 33 66  1  0  0  0
 33 70  2  0  0  0
 34 36  1  0  0  0
 34 59  1  0  0  0
 34105  1  0  0  0
 35 44  2  0  0  0
 35 45  1  0  0  0
 35 68  1  0  0  0
 36 56  1  0  0  0
 36106  1  0  0  0
 37 39  1  0  0  0
 37 47  1  0  0  0
 37 66  1  0  0  0
 37107  1  0  0  0
 38 43  2  0  0  0
 38 46  1  0  0  0
 38 47  1  0  0  0
 39 64  1  0  0  0
 39 67  2  0  0  0
 40 52  1  0  0  0
 40 53  2  0  0  0
 40 58  1  0  0  0
 41108  1  0  0  0
 41109  1  0  0  0
 41110  1  0  0  0
 41 48  1  0  0  0
 42 43  1  0  0  0
 42 66  1  0  0  0
 42111  1  0  0  0
 42112  1  0  0  0
 43 44  1  0  0  0
 44113  1  0  0  0
 45 46  2  0  0  0
 45114  1  0  0  0
 46115  1  0  0  0
 47116  1  0  0  0
 47117  1  0  0  0
 48 56  1  0  0  0
 48 65  1  0  0  0
 48118  1  0  0  0
 49 50  1  0  0  0
 49 53  1  0  0  0
 49 64  1  0  0  0
 49119  1  0  0  0
 50 51  1  0  0  0
 50120  1  0  0  0
 50121  1  0  0  0
 51 52  1  0  0  0
 51122  1  0  0  0
 51123  1  0  0  0
 52124  1  0  0  0
 52125  1  0  0  0
 53 54  1  0  0  0
 54 55  2  0  0  0
 54126  1  0  0  0
 55 57  1  0  0  0
 55127  1  0  0  0
 56 69  2  0  0  0
 57 58  2  0  0  0
 57128  1  0  0  0
 58129  1  0  0  0
 59 60  1  0  0  0
 59 61  1  0  0  0
 59 62  1  0  0  0
 60130  1  0  0  0
 60131  1  0  0  0
 60132  1  0  0  0
 61133  1  0  0  0
 61134  1  0  0  0
 61135  1  0  0  0
 62136  1  0  0  0
 62137  1  0  0  0
 62138  1  0  0  0
 63 65  1  0  0  0
 63139  1  0  0  0
 63140  1  0  0  0
 63141  1  0  0  0
 64142  1  0  0  0
 65143  1  0  0  0
 68 79  1  0  0  0
 71 72  2  0  0  0
 71 75  1  0  0  0
 71 80  1  0  0  0
 72 81  1  0  0  0
 72 84  1  0  0  0
 73 80  2  0  0  0
 73 82  1  0  0  0
 73 84  1  0  0  0
 74 77  1  0  0  0
 74 81  1  0  0  0
 74 83  2  0  0  0
 75144  1  0  0  0
 75145  1  0  0  0
 75146  1  0  0  0
 76147  1  0  0  0
 76148  1  0  0  0
 76149  1  0  0  0
 76 79  1  0  0  0
 77 78  1  0  0  0
 77150  1  0  0  0
 77151  1  0  0  0
 78 79  1  0  0  0
 78152  1  0  0  0
 78153  1  0  0  0
 79154  1  0  0  0
 81155  1  0  0  0
 82156  1  0  0  0
M  ISO  4   1 100  68 101  79 101  82 100
M  END
> <chiral flag>
0

> <version>
0

> <s_m_source_file>
/data/baiqing/PycharmProjects/Reinvent-master-3.2/result/LINK_invent/BTK/process_docking_weight1_custom_product_contain_oxygen_bond_distance_aromatic_linkinvent_7_9_3/rearranged_h_0173.sdf

> <i_m_source_file_index>
65

> <r_mmod_Potential_Energy-OPLS-2005>
-161.4111328125

> <r_mmod_Stretch_Energy-OPLS-2005>
46.4609832763672

> <r_mmod_Bend_Energy-OPLS-2005>
120.795623779297

> <r_mmod_Torsional_Energy-OPLS-2005>
227.568572998047

> <r_mmod_Improper_Torsional_Energy-OPLS-2005>
4.95691728591919

> <r_mmod_Van_der_Waal_Energy-OPLS-2005>
131.645309448242

> <r_mmod_Electrostatic_Energy-OPLS-2005>
-474.003265380859

> <r_mmod_Solvation_Energy-OPLS-2005>
-243.065505981445

> <b_mmod_Minimization_Converged-OPLS-2005>
0

> <r_mmod_RMS_Derivative-OPLS-2005>
1.4062956571579

$$$$
65
                    3D
 Structure written by MMmdl.
164172  0  0  1  0            999 V2000
  -30.7112  -14.4190   20.5002 C   0  0  0  0  0  0
  -30.4139  -12.2476   19.4354 C   0  0  0  0  0  0
  -29.5020  -12.4720   18.2116 C   0  0  0  0  0  0
  -28.0162  -12.3645   18.6120 C   0  0  0  0  0  0
  -27.6621  -13.2042   19.8691 C   0  0  2  0  0  0
  -28.6997  -12.9946   20.9943 C   0  0  0  0  0  0
  -25.2597  -13.8135   20.5674 C   0  0  0  0  0  0
  -24.1844  -13.0420   20.9180 C   0  0  0  0  0  0
  -24.6387  -11.6900   20.8717 C   0  0  0  0  0  0
  -23.9046  -10.4283   21.0414 C   0  0  0  0  0  0
  -24.3593   -9.4195   21.9189 C   0  0  0  0  0  0
  -23.6280   -8.2218   22.0735 C   0  0  0  0  0  0
  -22.4250   -8.0269   21.3533 C   0  0  0  0  0  0
  -21.9894   -9.0250   20.4639 C   0  0  0  0  0  0
  -22.7220  -10.2127   20.3060 C   0  0  0  0  0  0
  -21.6819   -6.0754   22.5289 C   0  0  0  0  0  0
  -21.4000   -6.5658   23.8230 C   0  0  0  0  0  0
  -21.3668   -5.6790   24.9192 C   0  0  0  0  0  0
  -21.6074   -4.3063   24.7239 C   0  0  0  0  0  0
  -21.8833   -3.8164   23.4340 C   0  0  0  0  0  0
  -21.9154   -4.6983   22.3407 C   0  0  0  0  0  0
  -22.7858  -13.5214   21.1850 C   0  0  0  0  0  0
  -22.1622   -4.2189   21.0980 F   0  0  0  0  0  0
  -21.5625   -3.4543   25.7736 F   0  0  0  0  0  0
  -30.0373  -13.2459   20.4422 N   0  0  0  0  0  0
  -26.3022  -12.9308   20.3301 N   0  0  0  0  0  0
  -25.9308  -11.6471   20.5715 N   0  0  0  0  0  0
  -22.0485  -12.8255   22.0439 N   0  0  0  0  0  0
  -25.4346  -15.1856   20.4168 N   0  0  0  0  0  0
  -31.9118  -14.5167   20.2416 O   0  0  0  0  0  0
  -21.6593   -6.8882   21.4232 O   0  0  0  0  0  0
  -22.3548  -14.5515   20.6685 O   0  0  0  0  0  0
  -24.6103  -31.8710   23.2116 C   0  0  0  0  0  0
  -25.9014  -32.4844   23.8393 C   0  0  1  0  0  0
  -27.2311  -27.4744   20.0842 C   0  0  0  0  0  0
  -25.5904  -33.8636   24.2364 N   0  0  0  0  0  0
  -23.3947  -30.4963   21.5537 C   0  0  2  0  0  0
  -24.8373  -28.9668   20.1159 C   0  0  0  0  0  0
  -22.7389  -29.4683   22.5012 C   0  0  0  0  0  0
  -18.0272  -28.1386   22.8487 C   0  0  0  0  0  0
  -24.1492  -36.7331   23.2630 C   0  0  0  0  0  0
  -25.9178  -30.8533   21.3509 C   0  0  0  0  0  0
  -25.9958  -29.4874   20.7064 C   0  0  0  0  0  0
  -27.1977  -28.7500   20.6842 C   0  0  0  0  0  0
  -26.0554  -26.9595   19.4913 C   0  0  0  0  0  0
  -24.8607  -27.7016   19.5047 C   0  0  0  0  0  0
  -23.5980  -29.8285   20.1668 C   0  0  0  0  0  0
  -25.4100  -36.3124   24.0349 C   0  0  1  0  0  0
  -20.5857  -28.3666   23.1341 C   0  0  2  0  0  0
  -20.6761  -26.9409   22.5422 C   0  0  0  0  0  0
  -19.5747  -26.6400   21.5207 C   0  0  0  0  0  0
  -18.1922  -26.7934   22.1619 C   0  0  0  0  0  0
  -19.1517  -28.8840   23.2923 C   0  0  0  0  0  0
  -18.9437  -30.1446   23.8924 C   0  0  0  0  0  0
  -17.6435  -30.6588   24.0567 C   0  0  0  0  0  0
  -25.9017  -34.9486   23.5149 C   0  0  0  0  0  0
  -16.5334  -29.9088   23.6316 C   0  0  0  0  0  0
  -16.7261  -28.6518   23.0327 C   0  0  0  0  0  0
  -26.4451  -31.6577   25.0686 C   0  0  0  0  0  0
  -25.3750  -31.3634   26.1460 C   0  0  0  0  0  0
  -27.0233  -30.3034   24.5956 C   0  0  0  0  0  0
  -27.6070  -32.4230   25.7451 C   0  0  0  0  0  0
  -27.5592  -37.1802   24.8456 C   0  0  0  0  0  0
  -21.4124  -29.3037   22.3759 N   0  0  0  0  0  0
  -26.4290  -37.3800   23.9440 N   0  0  0  0  0  0
  -24.6606  -31.0852   22.0994 N   0  0  0  0  0  0
  -23.4194  -28.8214   23.3017 O   0  0  0  0  0  0
  -28.4148  -26.7785   20.0679 O   0  0  0  0  0  0
  -26.5568  -34.8934   22.4704 O   0  0  0  0  0  0
  -23.5315  -32.1438   23.7569 O   0  0  0  0  0  0
  -29.2667  -17.7501   19.8703 C   0  0  0  0  0  0
  -29.6471  -18.7294   18.8943 C   0  0  0  0  0  0
  -30.6951  -18.3595   18.0907 C   0  0  0  0  0  0
  -30.0390  -16.6129   19.8087 C   0  0  0  0  0  0
  -32.0400  -20.3897   17.5091 C   0  0  0  0  0  0
  -28.2089  -24.4043   19.5032 C   0  0  0  0  0  0
  -27.9770  -20.5580   19.2656 C   0  0  0  0  0  0
  -33.4016  -20.2823   18.1771 C   0  0  0  0  0  0
  -30.5237  -19.3138   15.7428 C   0  0  0  0  0  0
  -27.8881  -22.9828   19.9653 C   0  0  0  0  0  0
  -28.3541  -25.4577   20.6063 C   0  0  0  0  0  0
  -27.6940  -21.9830   18.8099 C   0  0  0  0  0  0
  -31.4013  -19.0959   16.9885 C   0  0  2  0  0  0
  -29.0654  -20.0076   18.7169 N   0  0  0  0  0  0
  -29.9260  -15.5065   20.5983 N   0  0  0  0  0  0
  -31.4488  -21.4719   17.4387 O   0  0  0  0  0  0
  -28.3128  -24.7003   18.3074 O   0  0  0  0  0  0
  -27.2338  -20.0047   20.0794 O   0  0  0  0  0  0
  -31.1778  -16.7420   18.4676 S   0  0  0  0  0  0
  -31.4636  -12.3190   19.1443 H   0  0  0  0  0  0
  -30.2827  -11.2407   19.8355 H   0  0  0  0  0  0
  -29.7342  -11.7388   17.4382 H   0  0  0  0  0  0
  -29.6977  -13.4526   17.7733 H   0  0  0  0  0  0
  -27.7968  -11.3114   18.7967 H   0  0  0  0  0  0
  -27.3847  -12.6614   17.7741 H   0  0  0  0  0  0
  -27.7048  -14.2490   19.5614 H   0  0  0  0  0  0
  -28.6484  -11.9731   21.3750 H   0  0  0  0  0  0
  -28.4843  -13.6441   21.8447 H   0  0  0  0  0  0
  -25.2726   -9.5701   22.4776 H   0  0  0  0  0  0
  -24.0025   -7.4590   22.7431 H   0  0  0  0  0  0
  -21.0832   -8.8761   19.8937 H   0  0  0  0  0  0
  -22.3666  -10.9662   19.6181 H   0  0  0  0  0  0
  -21.2000   -7.6158   23.9765 H   0  0  0  0  0  0
  -21.1468   -6.0503   25.9093 H   0  0  0  0  0  0
  -22.0611   -2.7626   23.2818 H   0  0  0  0  0  0
  -22.4004  -11.9871   22.4823 H   0  0  0  0  0  0
  -21.1121  -13.1328   22.2651 H   0  0  0  0  0  0
  -24.6793  -15.8495   20.5468 H   0  0  0  0  0  0
  -26.2946  -15.6212   20.1095 H   0  0  0  0  0  0
  -26.7096  -32.5583   23.1176 H   0  0  0  0  0  0
  -25.0082  -33.9782   25.0533 H   0  0  0  0  0  0
  -22.6823  -31.3112   21.4184 H   0  0  0  0  0  0
  -23.3745  -35.9664   23.3255 H   0  0  0  0  0  0
  -24.3607  -36.8967   22.2048 H   0  0  0  0  0  0
  -23.7236  -37.6535   23.6644 H   0  0  0  0  0  0
  -26.0030  -31.6120   20.5718 H   0  0  0  0  0  0
  -26.8173  -30.9245   21.9486 H   0  0  0  0  0  0
  -28.0989  -29.1514   21.1272 H   0  0  0  0  0  0
  -26.0520  -26.0012   18.9942 H   0  0  0  0  0  0
  -23.9722  -27.2994   19.0372 H   0  0  0  0  0  0
  -23.7024  -30.6026   19.4063 H   0  0  0  0  0  0
  -22.7233  -29.2437   19.8761 H   0  0  0  0  0  0
  -25.1254  -36.1985   25.0833 H   0  0  0  0  0  0
  -20.9947  -28.3212   24.1462 H   0  0  0  0  0  0
  -20.5660  -26.2259   23.3595 H   0  0  0  0  0  0
  -21.6633  -26.7453   22.1212 H   0  0  0  0  0  0
  -19.6897  -25.6310   21.1228 H   0  0  0  0  0  0
  -19.6692  -27.3218   20.6745 H   0  0  0  0  0  0
  -17.4192  -26.6686   21.4026 H   0  0  0  0  0  0
  -18.0334  -26.0085   22.9028 H   0  0  0  0  0  0
  -19.7910  -30.7266   24.2309 H   0  0  0  0  0  0
  -17.4988  -31.6262   24.5173 H   0  0  0  0  0  0
  -15.5337  -30.2991   23.7625 H   0  0  0  0  0  0
  -15.8673  -28.0852   22.6997 H   0  0  0  0  0  0
  -24.5976  -30.6909   25.7810 H   0  0  0  0  0  0
  -24.8875  -32.2764   26.4895 H   0  0  0  0  0  0
  -25.8155  -30.8845   27.0221 H   0  0  0  0  0  0
  -26.2717  -29.6848   24.1042 H   0  0  0  0  0  0
  -27.4081  -29.7195   25.4327 H   0  0  0  0  0  0
  -27.8522  -30.4374   23.9000 H   0  0  0  0  0  0
  -27.2746  -33.3534   26.2065 H   0  0  0  0  0  0
  -28.3883  -32.6758   25.0268 H   0  0  0  0  0  0
  -28.0731  -31.8301   26.5340 H   0  0  0  0  0  0
  -28.2560  -38.0134   24.7559 H   0  0  0  0  0  0
  -28.1124  -36.2685   24.6190 H   0  0  0  0  0  0
  -27.2337  -37.1345   25.8852 H   0  0  0  0  0  0
  -20.9268  -29.8779   21.7006 H   0  0  0  0  0  0
  -26.0179  -38.2873   24.1451 H   0  0  0  0  0  0
  -28.4676  -17.9059   20.5817 H   0  0  0  0  0  0
  -33.8709  -19.3293   17.9336 H   0  0  0  0  0  0
  -33.3011  -20.3438   19.2601 H   0  0  0  0  0  0
  -34.0496  -21.0893   17.8396 H   0  0  0  0  0  0
  -30.2430  -18.3613   15.2922 H   0  0  0  0  0  0
  -31.0589  -19.8862   14.9843 H   0  0  0  0  0  0
  -29.6053  -19.8522   15.9784 H   0  0  0  0  0  0
  -26.9922  -23.0043   20.5839 H   0  0  0  0  0  0
  -28.7010  -22.6570   20.6161 H   0  0  0  0  0  0
  -29.2798  -25.2631   21.1476 H   0  0  0  0  0  0
  -27.5360  -25.3637   21.3242 H   0  0  0  0  0  0
  -26.6810  -22.0508   18.4141 H   0  0  0  0  0  0
  -28.3590  -22.2138   17.9752 H   0  0  0  0  0  0
  -32.2362  -18.4757   16.6657 H   0  0  0  0  0  0
  -29.5507  -20.6098   18.0647 H   0  0  0  0  0  0
  -29.0261  -15.3559   21.0278 H   0  0  0  0  0  0
  1 25  1  0  0  0
  1 30  2  0  0  0
  1 85  1  0  0  0
  2  3  1  0  0  0
  2 25  1  0  0  0
  2 90  1  0  0  0
  2 91  1  0  0  0
  3  4  1  0  0  0
  3 92  1  0  0  0
  3 93  1  0  0  0
  4  5  1  0  0  0
  4 94  1  0  0  0
  4 95  1  0  0  0
  5  6  1  0  0  0
  5 26  1  0  0  0
  5 96  1  0  0  0
  6 25  1  0  0  0
  6 97  1  0  0  0
  6 98  1  0  0  0
  7  8  2  0  0  0
  7 26  1  0  0  0
  7 29  1  0  0  0
  8  9  1  0  0  0
  8 22  1  0  0  0
  9 10  1  0  0  0
  9 27  2  0  0  0
 10 11  2  0  0  0
 10 15  1  0  0  0
 11 12  1  0  0  0
 11 99  1  0  0  0
 12 13  2  0  0  0
 12100  1  0  0  0
 13 14  1  0  0  0
 13 31  1  0  0  0
 14 15  2  0  0  0
 14101  1  0  0  0
 15102  1  0  0  0
 16 17  2  0  0  0
 16 21  1  0  0  0
 16 31  1  0  0  0
 17 18  1  0  0  0
 17103  1  0  0  0
 18 19  2  0  0  0
 18104  1  0  0  0
 19 20  1  0  0  0
 19 24  1  0  0  0
 20 21  2  0  0  0
 20105  1  0  0  0
 21 23  1  0  0  0
 22 28  1  0  0  0
 22 32  2  0  0  0
 26 27  1  0  0  0
 28106  1  0  0  0
 28107  1  0  0  0
 29108  1  0  0  0
 29109  1  0  0  0
 33 34  1  0  0  0
 33 66  1  0  0  0
 33 70  2  0  0  0
 34 36  1  0  0  0
 34 59  1  0  0  0
 34110  1  0  0  0
 35 44  2  0  0  0
 35 45  1  0  0  0
 35 68  1  0  0  0
 36 56  1  0  0  0
 36111  1  0  0  0
 37 39  1  0  0  0
 37 47  1  0  0  0
 37 66  1  0  0  0
 37112  1  0  0  0
 38 43  2  0  0  0
 38 46  1  0  0  0
 38 47  1  0  0  0
 39 64  1  0  0  0
 39 67  2  0  0  0
 40 52  1  0  0  0
 40 53  2  0  0  0
 40 58  1  0  0  0
 41113  1  0  0  0
 41114  1  0  0  0
 41115  1  0  0  0
 41 48  1  0  0  0
 42 43  1  0  0  0
 42 66  1  0  0  0
 42116  1  0  0  0
 42117  1  0  0  0
 43 44  1  0  0  0
 44118  1  0  0  0
 45 46  2  0  0  0
 45119  1  0  0  0
 46120  1  0  0  0
 47121  1  0  0  0
 47122  1  0  0  0
 48 56  1  0  0  0
 48 65  1  0  0  0
 48123  1  0  0  0
 49 50  1  0  0  0
 49 53  1  0  0  0
 49 64  1  0  0  0
 49124  1  0  0  0
 50 51  1  0  0  0
 50125  1  0  0  0
 50126  1  0  0  0
 51 52  1  0  0  0
 51127  1  0  0  0
 51128  1  0  0  0
 52129  1  0  0  0
 52130  1  0  0  0
 53 54  1  0  0  0
 54 55  2  0  0  0
 54131  1  0  0  0
 55 57  1  0  0  0
 55132  1  0  0  0
 56 69  2  0  0  0
 57 58  2  0  0  0
 57133  1  0  0  0
 58134  1  0  0  0
 59 60  1  0  0  0
 59 61  1  0  0  0
 59 62  1  0  0  0
 60135  1  0  0  0
 60136  1  0  0  0
 60137  1  0  0  0
 61138  1  0  0  0
 61139  1  0  0  0
 61140  1  0  0  0
 62141  1  0  0  0
 62142  1  0  0  0
 62143  1  0  0  0
 63 65  1  0  0  0
 63144  1  0  0  0
 63145  1  0  0  0
 63146  1  0  0  0
 64147  1  0  0  0
 65148  1  0  0  0
 68 81  1  0  0  0
 71 72  1  0  0  0
 71 74  2  0  0  0
 71149  1  0  0  0
 72 73  2  0  0  0
 72 84  1  0  0  0
 73 83  1  0  0  0
 73 89  1  0  0  0
 74 85  1  0  0  0
 74 89  1  0  0  0
 75 78  1  0  0  0
 75 83  1  0  0  0
 75 86  2  0  0  0
 76 80  1  0  0  0
 76 81  1  0  0  0
 76 87  2  0  0  0
 77 82  1  0  0  0
 77 84  1  0  0  0
 77 88  2  0  0  0
 78150  1  0  0  0
 78151  1  0  0  0
 78152  1  0  0  0
 79153  1  0  0  0
 79154  1  0  0  0
 79155  1  0  0  0
 79 83  1  0  0  0
 80 82  1  0  0  0
 80156  1  0  0  0
 80157  1  0  0  0
 81158  1  0  0  0
 81159  1  0  0  0
 82160  1  0  0  0
 82161  1  0  0  0
 83162  1  0  0  0
 84163  1  0  0  0
 85164  1  0  0  0
M  ISO  4   1 100  68 101  81 101  85 100
M  END
> <chiral flag>
0

> <version>
0

> <s_m_source_file>
/data/baiqing/PycharmProjects/Reinvent-master-3.2/result/LINK_invent/BTK/process_docking_weight1_custom_product_contain_oxygen_bond_distance_aromatic_linkinvent_7_9_3/rearranged_h_0173.sdf

> <i_m_source_file_index>
66

> <r_mmod_Potential_Energy-OPLS-2005>
-175.860946655273

> <r_mmod_Stretch_Energy-OPLS-2005>
31.1139068603516

> <r_mmod_Bend_Energy-OPLS-2005>
105.713760375977

> <r_mmod_Torsional_Energy-OPLS-2005>
247.188659667969

> <r_mmod_Improper_Torsional_Energy-OPLS-2005>
7.99060916900635

> <r_mmod_Van_der_Waal_Energy-OPLS-2005>
139.547103881836

> <r_mmod_Electrostatic_Energy-OPLS-2005>
-483.463012695312

> <r_mmod_Solvation_Energy-OPLS-2005>
-242.569717407227

> <b_mmod_Minimization_Converged-OPLS-2005>
0

> <r_mmod_RMS_Derivative-OPLS-2005>
3.34960126876831

$$$$
66
                    3D
 Structure written by MMmdl.
154162  0  0  1  0            999 V2000
  -30.6570  -14.5492   20.5093 C   0  0  0  0  0  0
  -30.4316  -12.3282   19.4495 C   0  0  0  0  0  0
  -29.5099  -12.5026   18.2225 C   0  0  0  0  0  0
  -28.0269  -12.3572   18.6229 C   0  0  0  0  0  0
  -27.6574  -13.2098   19.8664 C   0  0  2  0  0  0
  -28.6991  -13.0282   20.9920 C   0  0  0  0  0  0
  -25.2551  -13.8118   20.5687 C   0  0  0  0  0  0
  -24.1811  -13.0398   20.9172 C   0  0  0  0  0  0
  -24.6378  -11.6876   20.8723 C   0  0  0  0  0  0
  -23.9046  -10.4271   21.0390 C   0  0  0  0  0  0
  -24.3600   -9.4201   21.9177 C   0  0  0  0  0  0
  -23.6277   -8.2240   22.0758 C   0  0  0  0  0  0
  -22.4260   -8.0276   21.3546 C   0  0  0  0  0  0
  -21.9894   -9.0241   20.4642 C   0  0  0  0  0  0
  -22.7220  -10.2117   20.3041 C   0  0  0  0  0  0
  -21.6847   -6.0735   22.5280 C   0  0  0  0  0  0
  -21.4014   -6.5637   23.8215 C   0  0  0  0  0  0
  -21.3661   -5.6789   24.9174 C   0  0  0  0  0  0
  -21.6042   -4.3055   24.7224 C   0  0  0  0  0  0
  -21.8820   -3.8149   23.4345 C   0  0  0  0  0  0
  -21.9194   -4.6965   22.3401 C   0  0  0  0  0  0
  -22.7840  -13.5216   21.1844 C   0  0  0  0  0  0
  -22.1657   -4.2148   21.0977 F   0  0  0  0  0  0
  -21.5629   -3.4538   25.7737 F   0  0  0  0  0  0
  -30.0311  -13.3367   20.4447 N   0  0  0  0  0  0
  -26.2998  -12.9316   20.3325 N   0  0  0  0  0  0
  -25.9305  -11.6473   20.5737 N   0  0  0  0  0  0
  -22.0469  -12.8219   22.0400 N   0  0  0  0  0  0
  -25.4231  -15.1822   20.4144 N   0  0  0  0  0  0
  -31.8315  -14.6666   20.1480 O   0  0  0  0  0  0
  -21.6627   -6.8875   21.4242 O   0  0  0  0  0  0
  -22.3531  -14.5534   20.6709 O   0  0  0  0  0  0
  -24.6189  -31.8660   23.2079 C   0  0  0  0  0  0
  -25.9065  -32.4813   23.8389 C   0  0  1  0  0  0
  -27.2328  -27.3972   20.0892 C   0  0  0  0  0  0
  -25.5901  -33.8613   24.2319 N   0  0  0  0  0  0
  -23.4082  -30.4907   21.5499 C   0  0  2  0  0  0
  -24.8526  -28.9551   20.1130 C   0  0  0  0  0  0
  -22.7426  -29.4655   22.4974 C   0  0  0  0  0  0
  -18.0269  -28.1380   22.8499 C   0  0  0  0  0  0
  -24.1485  -36.7317   23.2639 C   0  0  0  0  0  0
  -25.9418  -30.8200   21.3657 C   0  0  0  0  0  0
  -26.0170  -29.4521   20.7108 C   0  0  0  0  0  0
  -27.2078  -28.6811   20.6951 C   0  0  0  0  0  0
  -26.0389  -26.9261   19.4903 C   0  0  0  0  0  0
  -24.8604  -27.6929   19.5003 C   0  0  0  0  0  0
  -23.6168  -29.8255   20.1644 C   0  0  0  0  0  0
  -25.4106  -36.3115   24.0336 C   0  0  1  0  0  0
  -20.5861  -28.3678   23.1307 C   0  0  2  0  0  0
  -20.6756  -26.9409   22.5422 C   0  0  0  0  0  0
  -19.5742  -26.6393   21.5214 C   0  0  0  0  0  0
  -18.1914  -26.7929   22.1625 C   0  0  0  0  0  0
  -19.1522  -28.8844   23.2899 C   0  0  0  0  0  0
  -18.9453  -30.1443   23.8915 C   0  0  0  0  0  0
  -17.6456  -30.6589   24.0566 C   0  0  0  0  0  0
  -25.9039  -34.9474   23.5132 C   0  0  0  0  0  0
  -16.5344  -29.9094   23.6327 C   0  0  0  0  0  0
  -16.7255  -28.6509   23.0354 C   0  0  0  0  0  0
  -26.4472  -31.6592   25.0728 C   0  0  0  0  0  0
  -25.3720  -31.3684   26.1457 C   0  0  0  0  0  0
  -27.0309  -30.3033   24.6119 C   0  0  0  0  0  0
  -27.6046  -32.4305   25.7497 C   0  0  0  0  0  0
  -27.5582  -37.1811   24.8461 C   0  0  0  0  0  0
  -21.4147  -29.3047   22.3718 N   0  0  0  0  0  0
  -26.4290  -37.3802   23.9407 N   0  0  0  0  0  0
  -24.6750  -31.0733   22.0995 N   0  0  0  0  0  0
  -23.4187  -28.8191   23.3023 O   0  0  0  0  0  0
  -28.3930  -26.6291   20.1216 O   0  0  0  0  0  0
  -26.5612  -34.8933   22.4698 O   0  0  0  0  0  0
  -23.5370  -32.1421   23.7457 O   0  0  0  0  0  0
  -27.9349  -17.7494   20.0519 C   0  0  0  0  0  0
  -27.3905  -20.1130   19.9592 C   0  0  0  0  0  0
  -29.2623  -18.0257   20.4457 C   0  0  0  0  0  0
  -29.6436  -19.4044   20.6135 C   0  0  0  0  0  0
  -28.7058  -20.4597   20.3452 C   0  0  0  0  0  0
  -27.0085  -18.7727   19.8138 C   0  0  0  0  0  0
  -30.1810  -16.8329   20.5751 C   0  0  0  0  0  0
  -28.3717  -25.3306   19.6321 C   0  0  0  0  0  0
  -28.7530  -24.2274   20.3274 C   0  0  0  0  0  0
  -28.6256  -22.8893   19.7168 C   0  0  0  0  0  0
  -31.0608  -19.7542   21.0533 C   0  0  0  0  0  0
  -29.7871  -15.6187   20.7800 N   0  0  0  0  0  0
  -29.0180  -21.8614   20.5134 N   0  0  0  0  0  0
  -28.2063  -22.6958   18.5719 O   0  0  0  0  0  0
  -29.2185  -24.3529   21.5801 O   0  0  0  0  0  0
  -25.7462  -18.4660   19.4303 F   0  0  0  0  0  0
  -31.4777  -12.4213   19.1541 H   0  0  0  0  0  0
  -30.3276  -11.3253   19.8669 H   0  0  0  0  0  0
  -29.7636  -11.7703   17.4552 H   0  0  0  0  0  0
  -29.6746  -13.4839   17.7744 H   0  0  0  0  0  0
  -27.8428  -11.3024   18.8303 H   0  0  0  0  0  0
  -27.3822  -12.6185   17.7828 H   0  0  0  0  0  0
  -27.6885  -14.2516   19.5499 H   0  0  0  0  0  0
  -28.6813  -12.0037   21.3662 H   0  0  0  0  0  0
  -28.4575  -13.6614   21.8478 H   0  0  0  0  0  0
  -25.2742   -9.5690   22.4747 H   0  0  0  0  0  0
  -23.9989   -7.4639   22.7482 H   0  0  0  0  0  0
  -21.0831   -8.8756   19.8941 H   0  0  0  0  0  0
  -22.3682  -10.9654   19.6145 H   0  0  0  0  0  0
  -21.2002   -7.6141   23.9725 H   0  0  0  0  0  0
  -21.1480   -6.0511   25.9078 H   0  0  0  0  0  0
  -22.0599   -2.7609   23.2845 H   0  0  0  0  0  0
  -22.4067  -11.9860   22.4771 H   0  0  0  0  0  0
  -21.1096  -13.1272   22.2615 H   0  0  0  0  0  0
  -24.6667  -15.8475   20.5279 H   0  0  0  0  0  0
  -26.2930  -15.6135   20.1386 H   0  0  0  0  0  0
  -26.7137  -32.5519   23.1153 H   0  0  0  0  0  0
  -25.0017  -33.9763   25.0438 H   0  0  0  0  0  0
  -22.6993  -31.3094   21.4100 H   0  0  0  0  0  0
  -23.3753  -35.9647   23.3307 H   0  0  0  0  0  0
  -24.3574  -36.8934   22.2053 H   0  0  0  0  0  0
  -23.7230  -37.6518   23.6651 H   0  0  0  0  0  0
  -26.0556  -31.5850   20.5963 H   0  0  0  0  0  0
  -26.8287  -30.8741   21.9852 H   0  0  0  0  0  0
  -28.1060  -29.0624   21.1602 H   0  0  0  0  0  0
  -25.9849  -25.9565   19.0183 H   0  0  0  0  0  0
  -23.9630  -27.3022   19.0399 H   0  0  0  0  0  0
  -23.7278  -30.6013   19.4060 H   0  0  0  0  0  0
  -22.7387  -29.2488   19.8676 H   0  0  0  0  0  0
  -25.1281  -36.1990   25.0827 H   0  0  0  0  0  0
  -20.9938  -28.3254   24.1432 H   0  0  0  0  0  0
  -20.5656  -26.2288   23.3615 H   0  0  0  0  0  0
  -21.6628  -26.7441   22.1222 H   0  0  0  0  0  0
  -19.6902  -25.6308   21.1239 H   0  0  0  0  0  0
  -19.6685  -27.3211   20.6752 H   0  0  0  0  0  0
  -17.4184  -26.6682   21.4022 H   0  0  0  0  0  0
  -18.0307  -26.0059   22.9010 H   0  0  0  0  0  0
  -19.7924  -30.7245   24.2307 H   0  0  0  0  0  0
  -17.5011  -31.6269   24.5169 H   0  0  0  0  0  0
  -15.5347  -30.3005   23.7631 H   0  0  0  0  0  0
  -15.8654  -28.0827   22.7063 H   0  0  0  0  0  0
  -24.5936  -30.6980   25.7791 H   0  0  0  0  0  0
  -24.8843  -32.2818   26.4872 H   0  0  0  0  0  0
  -25.8068  -30.8896   27.0237 H   0  0  0  0  0  0
  -26.2867  -29.6800   24.1148 H   0  0  0  0  0  0
  -27.4043  -29.7267   25.4595 H   0  0  0  0  0  0
  -27.8711  -30.4357   23.9295 H   0  0  0  0  0  0
  -27.2672  -33.3599   26.2100 H   0  0  0  0  0  0
  -28.3842  -32.6872   25.0310 H   0  0  0  0  0  0
  -28.0721  -31.8401   26.5389 H   0  0  0  0  0  0
  -28.2598  -38.0113   24.7518 H   0  0  0  0  0  0
  -28.1080  -36.2639   24.6280 H   0  0  0  0  0  0
  -27.2294  -37.1460   25.8865 H   0  0  0  0  0  0
  -20.9306  -29.8812   21.6975 H   0  0  0  0  0  0
  -26.0189  -38.2880   24.1430 H   0  0  0  0  0  0
  -27.6212  -16.7304   19.8958 H   0  0  0  0  0  0
  -26.6493  -20.8761   19.7723 H   0  0  0  0  0  0
  -31.2423  -17.0599   20.4305 H   0  0  0  0  0  0
  -28.0111  -25.2858   18.6119 H   0  0  0  0  0  0
  -31.4322  -19.0463   21.7946 H   0  0  0  0  0  0
  -31.1210  -20.7398   21.5126 H   0  0  0  0  0  0
  -31.7358  -19.7424   20.1970 H   0  0  0  0  0  0
  -29.4872  -22.1413   21.3647 H   0  0  0  0  0  0
  -29.1966  -25.2791   21.7861 H   0  0  0  0  0  0
  1 25  1  0  0  0
  1 30  2  0  0  0
  1 82  1  0  0  0
  2  3  1  0  0  0
  2 25  1  0  0  0
  2 87  1  0  0  0
  2 88  1  0  0  0
  3  4  1  0  0  0
  3 89  1  0  0  0
  3 90  1  0  0  0
  4  5  1  0  0  0
  4 91  1  0  0  0
  4 92  1  0  0  0
  5  6  1  0  0  0
  5 26  1  0  0  0
  5 93  1  0  0  0
  6 25  1  0  0  0
  6 94  1  0  0  0
  6 95  1  0  0  0
  7  8  2  0  0  0
  7 26  1  0  0  0
  7 29  1  0  0  0
  8  9  1  0  0  0
  8 22  1  0  0  0
  9 10  1  0  0  0
  9 27  2  0  0  0
 10 11  2  0  0  0
 10 15  1  0  0  0
 11 12  1  0  0  0
 11 96  1  0  0  0
 12 13  2  0  0  0
 12 97  1  0  0  0
 13 14  1  0  0  0
 13 31  1  0  0  0
 14 15  2  0  0  0
 14 98  1  0  0  0
 15 99  1  0  0  0
 16 17  2  0  0  0
 16 21  1  0  0  0
 16 31  1  0  0  0
 17 18  1  0  0  0
 17100  1  0  0  0
 18 19  2  0  0  0
 18101  1  0  0  0
 19 20  1  0  0  0
 19 24  1  0  0  0
 20 21  2  0  0  0
 20102  1  0  0  0
 21 23  1  0  0  0
 22 28  1  0  0  0
 22 32  2  0  0  0
 26 27  1  0  0  0
 28103  1  0  0  0
 28104  1  0  0  0
 29105  1  0  0  0
 29106  1  0  0  0
 33 34  1  0  0  0
 33 66  1  0  0  0
 33 70  2  0  0  0
 34 36  1  0  0  0
 34 59  1  0  0  0
 34107  1  0  0  0
 35 44  2  0  0  0
 35 45  1  0  0  0
 35 68  1  0  0  0
 36 56  1  0  0  0
 36108  1  0  0  0
 37 39  1  0  0  0
 37 47  1  0  0  0
 37 66  1  0  0  0
 37109  1  0  0  0
 38 43  2  0  0  0
 38 46  1  0  0  0
 38 47  1  0  0  0
 39 64  1  0  0  0
 39 67  2  0  0  0
 40 52  1  0  0  0
 40 53  2  0  0  0
 40 58  1  0  0  0
 41110  1  0  0  0
 41111  1  0  0  0
 41112  1  0  0  0
 41 48  1  0  0  0
 42 43  1  0  0  0
 42 66  1  0  0  0
 42113  1  0  0  0
 42114  1  0  0  0
 43 44  1  0  0  0
 44115  1  0  0  0
 45 46  2  0  0  0
 45116  1  0  0  0
 46117  1  0  0  0
 47118  1  0  0  0
 47119  1  0  0  0
 48 56  1  0  0  0
 48 65  1  0  0  0
 48120  1  0  0  0
 49 50  1  0  0  0
 49 53  1  0  0  0
 49 64  1  0  0  0
 49121  1  0  0  0
 50 51  1  0  0  0
 50122  1  0  0  0
 50123  1  0  0  0
 51 52  1  0  0  0
 51124  1  0  0  0
 51125  1  0  0  0
 52126  1  0  0  0
 52127  1  0  0  0
 53 54  1  0  0  0
 54 55  2  0  0  0
 54128  1  0  0  0
 55 57  1  0  0  0
 55129  1  0  0  0
 56 69  2  0  0  0
 57 58  2  0  0  0
 57130  1  0  0  0
 58131  1  0  0  0
 59 60  1  0  0  0
 59 61  1  0  0  0
 59 62  1  0  0  0
 60132  1  0  0  0
 60133  1  0  0  0
 60134  1  0  0  0
 61135  1  0  0  0
 61136  1  0  0  0
 61137  1  0  0  0
 62138  1  0  0  0
 62139  1  0  0  0
 62140  1  0  0  0
 63 65  1  0  0  0
 63141  1  0  0  0
 63142  1  0  0  0
 63143  1  0  0  0
 64144  1  0  0  0
 65145  1  0  0  0
 68 78  1  0  0  0
 71 73  2  0  0  0
 71 76  1  0  0  0
 71146  1  0  0  0
 72 75  1  0  0  0
 72 76  2  0  0  0
 72147  1  0  0  0
 73 74  1  0  0  0
 73 77  1  0  0  0
 74 75  2  0  0  0
 74 81  1  0  0  0
 75 83  1  0  0  0
 76 86  1  0  0  0
 77 82  2  0  0  0
 77148  1  0  0  0
 78 79  2  0  0  0
 78149  1  0  0  0
 79 80  1  0  0  0
 79 85  1  0  0  0
 80 83  1  0  0  0
 80 84  2  0  0  0
 81150  1  0  0  0
 81151  1  0  0  0
 81152  1  0  0  0
 83153  1  0  0  0
 85154  1  0  0  0
M  ISO  4   1 100  68 101  78 101  82 100
M  END
> <chiral flag>
0

> <version>
0

> <s_m_source_file>
/data/baiqing/PycharmProjects/Reinvent-master-3.2/result/LINK_invent/BTK/process_docking_weight1_custom_product_contain_oxygen_bond_distance_aromatic_linkinvent_7_9_3/rearranged_h_0173.sdf

> <i_m_source_file_index>
67

> <r_mmod_Potential_Energy-OPLS-2005>
-60.293888092041

> <r_mmod_Stretch_Energy-OPLS-2005>
54.3425636291504

> <r_mmod_Bend_Energy-OPLS-2005>
104.398941040039

> <r_mmod_Torsional_Energy-OPLS-2005>
195.770965576172

> <r_mmod_Improper_Torsional_Energy-OPLS-2005>
6.12180137634277

> <r_mmod_Van_der_Waal_Energy-OPLS-2005>
174.44792175293

> <r_mmod_Electrostatic_Energy-OPLS-2005>
-424.697052001953

> <r_mmod_Solvation_Energy-OPLS-2005>
-194.206802368164

> <b_mmod_Minimization_Converged-OPLS-2005>
0

> <r_mmod_RMS_Derivative-OPLS-2005>
1.29818344116211

$$$$
67
                    3D
 Structure written by MMmdl.
161169  0  0  1  0            999 V2000
  -30.6541  -14.4795   20.5797 C   0  0  0  0  0  0
  -30.4368  -12.3090   19.4154 C   0  0  0  0  0  0
  -29.5024  -12.5001   18.1996 C   0  0  0  0  0  0
  -28.0198  -12.3614   18.6079 C   0  0  0  0  0  0
  -27.6649  -13.1909   19.8708 C   0  0  2  0  0  0
  -28.7035  -12.9391   20.9871 C   0  0  0  0  0  0
  -25.2640  -13.8151   20.5633 C   0  0  0  0  0  0
  -24.1863  -13.0452   20.9125 C   0  0  0  0  0  0
  -24.6373  -11.6904   20.8704 C   0  0  0  0  0  0
  -23.9032  -10.4301   21.0400 C   0  0  0  0  0  0
  -24.3590   -9.4228   21.9184 C   0  0  0  0  0  0
  -23.6266   -8.2265   22.0759 C   0  0  0  0  0  0
  -22.4262   -8.0277   21.3523 C   0  0  0  0  0  0
  -21.9864   -9.0271   20.4657 C   0  0  0  0  0  0
  -22.7187  -10.2166   20.3066 C   0  0  0  0  0  0
  -21.6874   -6.0735   22.5269 C   0  0  0  0  0  0
  -21.4027   -6.5632   23.8193 C   0  0  0  0  0  0
  -21.3648   -5.6792   24.9156 C   0  0  0  0  0  0
  -21.6048   -4.3060   24.7194 C   0  0  0  0  0  0
  -21.8836   -3.8134   23.4332 C   0  0  0  0  0  0
  -21.9190   -4.6958   22.3388 C   0  0  0  0  0  0
  -22.7896  -13.5288   21.1807 C   0  0  0  0  0  0
  -22.1669   -4.2140   21.0963 F   0  0  0  0  0  0
  -21.5610   -3.4536   25.7719 F   0  0  0  0  0  0
  -30.0341  -13.2740   20.4475 N   0  0  0  0  0  0
  -26.3036  -12.9274   20.3312 N   0  0  0  0  0  0
  -25.9293  -11.6444   20.5716 N   0  0  0  0  0  0
  -22.0511  -12.8318   22.0364 N   0  0  0  0  0  0
  -25.4481  -15.1872   20.4130 N   0  0  0  0  0  0
  -31.7791  -14.7229   20.1298 O   0  0  0  0  0  0
  -21.6642   -6.8866   21.4223 O   0  0  0  0  0  0
  -22.3578  -14.5575   20.6621 O   0  0  0  0  0  0
  -24.6124  -31.8651   23.2103 C   0  0  0  0  0  0
  -25.9032  -32.4798   23.8385 C   0  0  1  0  0  0
  -27.2243  -27.4239   20.1117 C   0  0  0  0  0  0
  -25.5904  -33.8590   24.2315 N   0  0  0  0  0  0
  -23.4037  -30.4875   21.5483 C   0  0  2  0  0  0
  -24.8517  -28.9523   20.1169 C   0  0  0  0  0  0
  -22.7411  -29.4622   22.4963 C   0  0  0  0  0  0
  -18.0279  -28.1363   22.8479 C   0  0  0  0  0  0
  -24.1495  -36.7312   23.2626 C   0  0  0  0  0  0
  -25.9329  -30.8272   21.3698 C   0  0  0  0  0  0
  -26.0106  -29.4596   20.7201 C   0  0  0  0  0  0
  -27.2038  -28.7008   20.7191 C   0  0  0  0  0  0
  -26.0547  -26.9290   19.5042 C   0  0  0  0  0  0
  -24.8683  -27.6862   19.5072 C   0  0  0  0  0  0
  -23.6131  -29.8190   20.1626 C   0  0  0  0  0  0
  -25.4107  -36.3079   24.0324 C   0  0  1  0  0  0
  -20.5867  -28.3640   23.1323 C   0  0  2  0  0  0
  -20.6755  -26.9373   22.5419 C   0  0  0  0  0  0
  -19.5754  -26.6355   21.5199 C   0  0  0  0  0  0
  -18.1927  -26.7909   22.1605 C   0  0  0  0  0  0
  -19.1525  -28.8826   23.2898 C   0  0  0  0  0  0
  -18.9447  -30.1431   23.8905 C   0  0  0  0  0  0
  -17.6443  -30.6563   24.0565 C   0  0  0  0  0  0
  -25.9049  -34.9446   23.5124 C   0  0  0  0  0  0
  -16.5341  -29.9053   23.6329 C   0  0  0  0  0  0
  -16.7266  -28.6483   23.0338 C   0  0  0  0  0  0
  -26.4475  -31.6585   25.0706 C   0  0  0  0  0  0
  -25.3772  -31.3747   26.1498 C   0  0  0  0  0  0
  -27.0247  -30.2991   24.6096 C   0  0  0  0  0  0
  -27.6077  -32.4302   25.7422 C   0  0  0  0  0  0
  -27.5608  -37.1762   24.8424 C   0  0  0  0  0  0
  -21.4141  -29.2997   22.3714 N   0  0  0  0  0  0
  -26.4280  -37.3775   23.9429 N   0  0  0  0  0  0
  -24.6674  -31.0735   22.1013 N   0  0  0  0  0  0
  -23.4178  -28.8176   23.3019 O   0  0  0  0  0  0
  -28.3669  -26.6611   20.0598 O   0  0  0  0  0  0
  -26.5608  -34.8911   22.4685 O   0  0  0  0  0  0
  -23.5323  -32.1393   23.7508 O   0  0  0  0  0  0
  -30.7459  -17.6250   21.8146 C   0  0  0  0  0  0
  -29.0201  -17.4736   20.1120 C   0  0  0  0  0  0
  -30.6299  -19.0378   21.8154 C   0  0  0  0  0  0
  -29.9224  -16.8340   20.9885 C   0  0  0  0  0  0
  -29.6590  -19.6820   20.9920 C   0  0  0  0  0  0
  -28.9074  -18.8827   20.0866 C   0  0  0  0  0  0
  -28.4677  -24.3050   20.7680 C   0  0  0  0  0  0
  -28.5898  -23.2128   21.5714 C   0  0  0  0  0  0
  -28.3926  -21.8761   21.0073 C   0  0  0  0  0  0
  -31.5524  -19.8309   22.7392 C   0  0  0  0  0  0
  -28.8607  -23.2886   23.0680 C   0  0  0  0  0  0
  -29.9945  -26.1541   21.6675 C   0  0  0  0  0  0
  -28.5888  -25.7833   21.1727 C   0  0  1  0  0  0
  -29.5042  -21.1084   21.1173 N   0  0  0  0  0  0
  -29.8716  -15.4192   21.1439 N   0  0  0  0  0  0
  -27.3165  -21.4948   20.5422 O   0  0  0  0  0  0
  -28.0782  -19.4333   19.1655 F   0  0  0  0  0  0
  -31.4779  -12.4392   19.1191 H   0  0  0  0  0  0
  -30.3549  -11.2922   19.8051 H   0  0  0  0  0  0
  -29.7402  -11.7686   17.4240 H   0  0  0  0  0  0
  -29.6720  -13.4802   17.7518 H   0  0  0  0  0  0
  -27.8243  -11.3038   18.7882 H   0  0  0  0  0  0
  -27.3774  -12.6507   17.7757 H   0  0  0  0  0  0
  -27.7136  -14.2422   19.5850 H   0  0  0  0  0  0
  -28.6867  -11.8907   21.2902 H   0  0  0  0  0  0
  -28.4542  -13.4998   21.8885 H   0  0  0  0  0  0
  -25.2769   -9.5708   22.4714 H   0  0  0  0  0  0
  -23.9979   -7.4683   22.7505 H   0  0  0  0  0  0
  -21.0766   -8.8820   19.9000 H   0  0  0  0  0  0
  -22.3652  -10.9706   19.6165 H   0  0  0  0  0  0
  -21.2056   -7.6160   23.9696 H   0  0  0  0  0  0
  -21.1437   -6.0521   25.9052 H   0  0  0  0  0  0
  -22.0615   -2.7588   23.2854 H   0  0  0  0  0  0
  -22.4093  -12.0006   22.4829 H   0  0  0  0  0  0
  -21.1160  -13.1453   22.2541 H   0  0  0  0  0  0
  -24.7033  -15.8620   20.5487 H   0  0  0  0  0  0
  -26.3229  -15.6210   20.1474 H   0  0  0  0  0  0
  -26.7091  -32.5513   23.1145 H   0  0  0  0  0  0
  -25.0054  -33.9738   25.0461 H   0  0  0  0  0  0
  -22.6948  -31.3064   21.4097 H   0  0  0  0  0  0
  -23.3733  -35.9669   23.3232 H   0  0  0  0  0  0
  -24.3614  -36.8974   22.2056 H   0  0  0  0  0  0
  -23.7259  -37.6505   23.6676 H   0  0  0  0  0  0
  -26.0558  -31.5959   20.6064 H   0  0  0  0  0  0
  -26.8163  -30.8744   21.9928 H   0  0  0  0  0  0
  -28.1016  -29.0855   21.1836 H   0  0  0  0  0  0
  -26.0620  -25.9562   19.0341 H   0  0  0  0  0  0
  -23.9786  -27.2902   19.0387 H   0  0  0  0  0  0
  -23.7269  -30.5950   19.4052 H   0  0  0  0  0  0
  -22.7356  -29.2404   19.8628 H   0  0  0  0  0  0
  -25.1269  -36.1933   25.0806 H   0  0  0  0  0  0
  -20.9969  -28.3202   24.1449 H   0  0  0  0  0  0
  -20.5636  -26.2249   23.3602 H   0  0  0  0  0  0
  -21.6635  -26.7387   22.1258 H   0  0  0  0  0  0
  -19.6923  -25.6267   21.1212 H   0  0  0  0  0  0
  -19.6718  -27.3189   20.6750 H   0  0  0  0  0  0
  -17.4210  -26.6681   21.3991 H   0  0  0  0  0  0
  -18.0320  -26.0035   22.8987 H   0  0  0  0  0  0
  -19.7915  -30.7249   24.2280 H   0  0  0  0  0  0
  -17.4990  -31.6235   24.5157 H   0  0  0  0  0  0
  -15.5342  -30.2961   23.7625 H   0  0  0  0  0  0
  -15.8676  -28.0800   22.7043 H   0  0  0  0  0  0
  -24.5918  -30.7105   25.7883 H   0  0  0  0  0  0
  -24.9025  -32.2932   26.4946 H   0  0  0  0  0  0
  -25.8159  -30.8923   27.0238 H   0  0  0  0  0  0
  -26.2741  -29.6774   24.1194 H   0  0  0  0  0  0
  -27.4012  -29.7227   25.4554 H   0  0  0  0  0  0
  -27.8612  -30.4245   23.9221 H   0  0  0  0  0  0
  -27.2711  -33.3591   26.2040 H   0  0  0  0  0  0
  -28.3844  -32.6870   25.0207 H   0  0  0  0  0  0
  -28.0794  -31.8407   26.5291 H   0  0  0  0  0  0
  -28.2538  -38.0144   24.7560 H   0  0  0  0  0  0
  -28.1177  -36.2673   24.6082 H   0  0  0  0  0  0
  -27.2355  -37.1207   25.8828 H   0  0  0  0  0  0
  -20.9305  -29.8743   21.6952 H   0  0  0  0  0  0
  -26.0148  -38.2821   24.1515 H   0  0  0  0  0  0
  -31.4410  -17.1436   22.4879 H   0  0  0  0  0  0
  -28.3899  -16.8950   19.4527 H   0  0  0  0  0  0
  -28.2494  -24.1474   19.7205 H   0  0  0  0  0  0
  -32.1921  -19.1725   23.3295 H   0  0  0  0  0  0
  -30.9865  -20.4416   23.4432 H   0  0  0  0  0  0
  -32.2171  -20.4775   22.1644 H   0  0  0  0  0  0
  -28.2716  -24.0779   23.5362 H   0  0  0  0  0  0
  -29.9163  -23.4753   23.2582 H   0  0  0  0  0  0
  -28.5959  -22.3530   23.5668 H   0  0  0  0  0  0
  -30.2813  -25.6078   22.5630 H   0  0  0  0  0  0
  -30.0481  -27.2167   21.9093 H   0  0  0  0  0  0
  -30.7405  -25.9546   20.8982 H   0  0  0  0  0  0
  -27.8679  -25.9766   21.9718 H   0  0  0  0  0  0
  -30.2806  -21.5831   21.5541 H   0  0  0  0  0  0
  -28.9767  -15.0494   21.4229 H   0  0  0  0  0  0
  1 25  1  0  0  0
  1 30  2  0  0  0
  1 85  1  0  0  0
  2  3  1  0  0  0
  2 25  1  0  0  0
  2 88  1  0  0  0
  2 89  1  0  0  0
  3  4  1  0  0  0
  3 90  1  0  0  0
  3 91  1  0  0  0
  4  5  1  0  0  0
  4 92  1  0  0  0
  4 93  1  0  0  0
  5  6  1  0  0  0
  5 26  1  0  0  0
  5 94  1  0  0  0
  6 25  1  0  0  0
  6 95  1  0  0  0
  6 96  1  0  0  0
  7  8  2  0  0  0
  7 26  1  0  0  0
  7 29  1  0  0  0
  8  9  1  0  0  0
  8 22  1  0  0  0
  9 10  1  0  0  0
  9 27  2  0  0  0
 10 11  2  0  0  0
 10 15  1  0  0  0
 11 12  1  0  0  0
 11 97  1  0  0  0
 12 13  2  0  0  0
 12 98  1  0  0  0
 13 14  1  0  0  0
 13 31  1  0  0  0
 14 15  2  0  0  0
 14 99  1  0  0  0
 15100  1  0  0  0
 16 17  2  0  0  0
 16 21  1  0  0  0
 16 31  1  0  0  0
 17 18  1  0  0  0
 17101  1  0  0  0
 18 19  2  0  0  0
 18102  1  0  0  0
 19 20  1  0  0  0
 19 24  1  0  0  0
 20 21  2  0  0  0
 20103  1  0  0  0
 21 23  1  0  0  0
 22 28  1  0  0  0
 22 32  2  0  0  0
 26 27  1  0  0  0
 28104  1  0  0  0
 28105  1  0  0  0
 29106  1  0  0  0
 29107  1  0  0  0
 33 34  1  0  0  0
 33 66  1  0  0  0
 33 70  2  0  0  0
 34 36  1  0  0  0
 34 59  1  0  0  0
 34108  1  0  0  0
 35 44  2  0  0  0
 35 45  1  0  0  0
 35 68  1  0  0  0
 36 56  1  0  0  0
 36109  1  0  0  0
 37 39  1  0  0  0
 37 47  1  0  0  0
 37 66  1  0  0  0
 37110  1  0  0  0
 38 43  2  0  0  0
 38 46  1  0  0  0
 38 47  1  0  0  0
 39 64  1  0  0  0
 39 67  2  0  0  0
 40 52  1  0  0  0
 40 53  2  0  0  0
 40 58  1  0  0  0
 41111  1  0  0  0
 41112  1  0  0  0
 41113  1  0  0  0
 41 48  1  0  0  0
 42 43  1  0  0  0
 42 66  1  0  0  0
 42114  1  0  0  0
 42115  1  0  0  0
 43 44  1  0  0  0
 44116  1  0  0  0
 45 46  2  0  0  0
 45117  1  0  0  0
 46118  1  0  0  0
 47119  1  0  0  0
 47120  1  0  0  0
 48 56  1  0  0  0
 48 65  1  0  0  0
 48121  1  0  0  0
 49 50  1  0  0  0
 49 53  1  0  0  0
 49 64  1  0  0  0
 49122  1  0  0  0
 50 51  1  0  0  0
 50123  1  0  0  0
 50124  1  0  0  0
 51 52  1  0  0  0
 51125  1  0  0  0
 51126  1  0  0  0
 52127  1  0  0  0
 52128  1  0  0  0
 53 54  1  0  0  0
 54 55  2  0  0  0
 54129  1  0  0  0
 55 57  1  0  0  0
 55130  1  0  0  0
 56 69  2  0  0  0
 57 58  2  0  0  0
 57131  1  0  0  0
 58132  1  0  0  0
 59 60  1  0  0  0
 59 61  1  0  0  0
 59 62  1  0  0  0
 60133  1  0  0  0
 60134  1  0  0  0
 60135  1  0  0  0
 61136  1  0  0  0
 61137  1  0  0  0
 61138  1  0  0  0
 62139  1  0  0  0
 62140  1  0  0  0
 62141  1  0  0  0
 63 65  1  0  0  0
 63142  1  0  0  0
 63143  1  0  0  0
 63144  1  0  0  0
 64145  1  0  0  0
 65146  1  0  0  0
 68 83  1  0  0  0
 71 73  2  0  0  0
 71 74  1  0  0  0
 71147  1  0  0  0
 72 74  2  0  0  0
 72 76  1  0  0  0
 72148  1  0  0  0
 73 75  1  0  0  0
 73 80  1  0  0  0
 74 85  1  0  0  0
 75 76  2  0  0  0
 75 84  1  0  0  0
 76 87  1  0  0  0
 77 78  2  0  0  0
 77 83  1  0  0  0
 77149  1  0  0  0
 78 79  1  0  0  0
 78 81  1  0  0  0
 79 84  1  0  0  0
 79 86  2  0  0  0
 80150  1  0  0  0
 80151  1  0  0  0
 80152  1  0  0  0
 81153  1  0  0  0
 81154  1  0  0  0
 81155  1  0  0  0
 82156  1  0  0  0
 82157  1  0  0  0
 82158  1  0  0  0
 82 83  1  0  0  0
 83159  1  0  0  0
 84160  1  0  0  0
 85161  1  0  0  0
M  ISO  4   1 100  68 101  83 101  85 100
M  END
> <chiral flag>
0

> <version>
0

> <s_m_source_file>
/data/baiqing/PycharmProjects/Reinvent-master-3.2/result/LINK_invent/BTK/process_docking_weight1_custom_product_contain_oxygen_bond_distance_aromatic_linkinvent_7_9_3/rearranged_h_0173.sdf

> <i_m_source_file_index>
68

> <r_mmod_Potential_Energy-OPLS-2005>
-46.9348449707031

> <r_mmod_Stretch_Energy-OPLS-2005>
41.3849754333496

> <r_mmod_Bend_Energy-OPLS-2005>
103.673248291016

> <r_mmod_Torsional_Energy-OPLS-2005>
315.898406982422

> <r_mmod_Improper_Torsional_Energy-OPLS-2005>
5.91798257827759

> <r_mmod_Van_der_Waal_Energy-OPLS-2005>
146.92951965332

> <r_mmod_Electrostatic_Energy-OPLS-2005>
-446.73095703125

> <r_mmod_Solvation_Energy-OPLS-2005>
-228.150634765625

> <b_mmod_Minimization_Converged-OPLS-2005>
0

> <r_mmod_RMS_Derivative-OPLS-2005>
4.55035734176636

$$$$
68
                    3D
 Structure written by MMmdl.
152160  0  0  1  0            999 V2000
  -30.6943  -14.5368   20.5201 C   0  0  0  0  0  0
  -30.4176  -12.3311   19.4412 C   0  0  0  0  0  0
  -29.4968  -12.4911   18.2139 C   0  0  0  0  0  0
  -28.0191  -12.3470   18.6284 C   0  0  0  0  0  0
  -27.6540  -13.2119   19.8650 C   0  0  2  0  0  0
  -28.6980  -13.0555   20.9928 C   0  0  0  0  0  0
  -25.2571  -13.8167   20.5671 C   0  0  0  0  0  0
  -24.1835  -13.0441   20.9199 C   0  0  0  0  0  0
  -24.6391  -11.6907   20.8758 C   0  0  0  0  0  0
  -23.9065  -10.4289   21.0417 C   0  0  0  0  0  0
  -24.3620   -9.4205   21.9194 C   0  0  0  0  0  0
  -23.6299   -8.2239   22.0754 C   0  0  0  0  0  0
  -22.4279   -8.0283   21.3547 C   0  0  0  0  0  0
  -21.9914   -9.0258   20.4651 C   0  0  0  0  0  0
  -22.7235  -10.2140   20.3069 C   0  0  0  0  0  0
  -21.6854   -6.0737   22.5279 C   0  0  0  0  0  0
  -21.4010   -6.5641   23.8211 C   0  0  0  0  0  0
  -21.3658   -5.6796   24.9174 C   0  0  0  0  0  0
  -21.6047   -4.3059   24.7224 C   0  0  0  0  0  0
  -21.8823   -3.8148   23.4344 C   0  0  0  0  0  0
  -21.9193   -4.6965   22.3401 C   0  0  0  0  0  0
  -22.7860  -13.5244   21.1853 C   0  0  0  0  0  0
  -22.1667   -4.2149   21.0980 F   0  0  0  0  0  0
  -21.5631   -3.4544   25.7739 F   0  0  0  0  0  0
  -30.0180  -13.3555   20.4210 N   0  0  0  0  0  0
  -26.2992  -12.9338   20.3338 N   0  0  0  0  0  0
  -25.9320  -11.6498   20.5787 N   0  0  0  0  0  0
  -22.0501  -12.8233   22.0405 N   0  0  0  0  0  0
  -25.4307  -15.1876   20.4017 N   0  0  0  0  0  0
  -31.8674  -14.6233   20.1481 O   0  0  0  0  0  0
  -21.6643   -6.8879   21.4240 O   0  0  0  0  0  0
  -22.3546  -14.5549   20.6698 O   0  0  0  0  0  0
  -24.6178  -31.8656   23.2091 C   0  0  0  0  0  0
  -25.9055  -32.4811   23.8397 C   0  0  1  0  0  0
  -27.2283  -27.4074   20.1052 C   0  0  0  0  0  0
  -25.5895  -33.8611   24.2321 N   0  0  0  0  0  0
  -23.4085  -30.4905   21.5477 C   0  0  2  0  0  0
  -24.8575  -28.9595   20.1093 C   0  0  0  0  0  0
  -22.7430  -29.4643   22.4943 C   0  0  0  0  0  0
  -18.0281  -28.1373   22.8494 C   0  0  0  0  0  0
  -24.1490  -36.7326   23.2638 C   0  0  0  0  0  0
  -25.9409  -30.8256   21.3679 C   0  0  0  0  0  0
  -26.0203  -29.4593   20.7115 C   0  0  0  0  0  0
  -27.2126  -28.6910   20.7070 C   0  0  0  0  0  0
  -26.0527  -26.9389   19.4808 C   0  0  0  0  0  0
  -24.8704  -27.7006   19.4864 C   0  0  0  0  0  0
  -23.6204  -29.8282   20.1610 C   0  0  0  0  0  0
  -25.4110  -36.3108   24.0333 C   0  0  1  0  0  0
  -20.5878  -28.3670   23.1297 C   0  0  2  0  0  0
  -20.6769  -26.9394   22.5417 C   0  0  0  0  0  0
  -19.5748  -26.6386   21.5217 C   0  0  0  0  0  0
  -18.1926  -26.7919   22.1632 C   0  0  0  0  0  0
  -19.1538  -28.8838   23.2890 C   0  0  0  0  0  0
  -18.9456  -30.1451   23.8890 C   0  0  0  0  0  0
  -17.6457  -30.6580   24.0561 C   0  0  0  0  0  0
  -25.9033  -34.9469   23.5127 C   0  0  0  0  0  0
  -16.5347  -29.9077   23.6333 C   0  0  0  0  0  0
  -16.7271  -28.6497   23.0349 C   0  0  0  0  0  0
  -26.4480  -31.6598   25.0732 C   0  0  0  0  0  0
  -25.3751  -31.3696   26.1484 C   0  0  0  0  0  0
  -27.0307  -30.3035   24.6116 C   0  0  0  0  0  0
  -27.6052  -32.4324   25.7492 C   0  0  0  0  0  0
  -27.5578  -37.1818   24.8461 C   0  0  0  0  0  0
  -21.4152  -29.3031   22.3688 N   0  0  0  0  0  0
  -26.4297  -37.3792   23.9398 N   0  0  0  0  0  0
  -24.6733  -31.0755   22.0992 N   0  0  0  0  0  0
  -23.4191  -28.8177   23.2990 O   0  0  0  0  0  0
  -28.3381  -26.5814   20.1388 O   0  0  0  0  0  0
  -26.5594  -34.8922   22.4689 O   0  0  0  0  0  0
  -23.5361  -32.1408   23.7476 O   0  0  0  0  0  0
  -28.0108  -17.6888   21.5711 C   0  0  0  0  0  0
  -27.2917  -20.0137   21.3493 C   0  0  0  0  0  0
  -29.2869  -18.0054   21.0508 C   0  0  0  0  0  0
  -28.5670  -20.3913   20.8650 C   0  0  0  0  0  0
  -27.0223  -18.6800   21.7043 C   0  0  0  0  0  0
  -29.5454  -19.3710   20.6922 C   0  0  0  0  0  0
  -28.1169  -25.3210   20.6808 C   0  0  0  0  0  0
  -30.3542  -16.9238   20.9457 C   0  0  0  0  0  0
  -28.7379  -24.1659   20.3222 C   0  0  0  0  0  0
  -28.3427  -22.9033   20.9922 C   0  0  0  0  0  0
  -28.8776  -21.7556   20.4931 N   0  0  0  0  0  0
  -29.9446  -15.6273   20.8384 N   0  0  0  0  0  0
  -31.5424  -17.2636   20.9512 O   0  0  0  0  0  0
  -27.5782  -22.8815   21.9608 O   0  0  0  0  0  0
  -29.6882  -24.1842   19.3730 O   0  0  0  0  0  0
  -25.8003  -18.3503   22.1836 F   0  0  0  0  0  0
  -30.7420  -19.7393   20.1727 F   0  0  0  0  0  0
  -31.4634  -12.4161   19.1423 H   0  0  0  0  0  0
  -30.3137  -11.3349   19.8742 H   0  0  0  0  0  0
  -29.7438  -11.7493   17.4527 H   0  0  0  0  0  0
  -29.6600  -13.4668   17.7525 H   0  0  0  0  0  0
  -27.8426  -11.2935   18.8490 H   0  0  0  0  0  0
  -27.3665  -12.5956   17.7904 H   0  0  0  0  0  0
  -27.6790  -14.2495   19.5325 H   0  0  0  0  0  0
  -28.6857  -12.0390   21.3895 H   0  0  0  0  0  0
  -28.4653  -13.7072   21.8366 H   0  0  0  0  0  0
  -25.2767   -9.5677   22.4764 H   0  0  0  0  0  0
  -24.0006   -7.4626   22.7469 H   0  0  0  0  0  0
  -21.0846   -8.8783   19.8958 H   0  0  0  0  0  0
  -22.3700  -10.9686   19.6182 H   0  0  0  0  0  0
  -21.2004   -7.6148   23.9711 H   0  0  0  0  0  0
  -21.1477   -6.0529   25.9077 H   0  0  0  0  0  0
  -22.0602   -2.7609   23.2848 H   0  0  0  0  0  0
  -22.4123  -11.9897   22.4789 H   0  0  0  0  0  0
  -21.1121  -13.1266   22.2620 H   0  0  0  0  0  0
  -24.6601  -15.8392   20.4999 H   0  0  0  0  0  0
  -26.2564  -15.6133   20.0041 H   0  0  0  0  0  0
  -26.7130  -32.5523   23.1161 H   0  0  0  0  0  0
  -25.0035  -33.9771   25.0456 H   0  0  0  0  0  0
  -22.6973  -31.3069   21.4086 H   0  0  0  0  0  0
  -23.3738  -35.9675   23.3312 H   0  0  0  0  0  0
  -24.3586  -36.8933   22.2052 H   0  0  0  0  0  0
  -23.7264  -37.6539   23.6652 H   0  0  0  0  0  0
  -26.0592  -31.5930   20.6016 H   0  0  0  0  0  0
  -26.8265  -30.8773   21.9891 H   0  0  0  0  0  0
  -28.1068  -29.0630   21.1862 H   0  0  0  0  0  0
  -26.0486  -25.9694   19.0032 H   0  0  0  0  0  0
  -23.9803  -27.3125   19.0110 H   0  0  0  0  0  0
  -23.7304  -30.6053   19.4037 H   0  0  0  0  0  0
  -22.7442  -29.2496   19.8627 H   0  0  0  0  0  0
  -25.1292  -36.1970   25.0829 H   0  0  0  0  0  0
  -20.9978  -28.3248   24.1415 H   0  0  0  0  0  0
  -20.5676  -26.2274   23.3612 H   0  0  0  0  0  0
  -21.6634  -26.7426   22.1203 H   0  0  0  0  0  0
  -19.6894  -25.6298   21.1238 H   0  0  0  0  0  0
  -19.6704  -27.3213   20.6757 H   0  0  0  0  0  0
  -17.4188  -26.6673   21.4044 H   0  0  0  0  0  0
  -18.0313  -26.0054   22.9020 H   0  0  0  0  0  0
  -19.7930  -30.7276   24.2239 H   0  0  0  0  0  0
  -17.5008  -31.6268   24.5144 H   0  0  0  0  0  0
  -15.5346  -30.2983   23.7650 H   0  0  0  0  0  0
  -15.8666  -28.0834   22.7046 H   0  0  0  0  0  0
  -24.5926  -30.7037   25.7827 H   0  0  0  0  0  0
  -24.8941  -32.2842   26.4960 H   0  0  0  0  0  0
  -25.8122  -30.8849   27.0224 H   0  0  0  0  0  0
  -26.2848  -29.6802   24.1166 H   0  0  0  0  0  0
  -27.4061  -29.7272   25.4582 H   0  0  0  0  0  0
  -27.8698  -30.4346   23.9281 H   0  0  0  0  0  0
  -27.2664  -33.3614   26.2097 H   0  0  0  0  0  0
  -28.3846  -32.6908   25.0308 H   0  0  0  0  0  0
  -28.0738  -31.8433   26.5384 H   0  0  0  0  0  0
  -28.2606  -38.0102   24.7493 H   0  0  0  0  0  0
  -28.1064  -36.2635   24.6308 H   0  0  0  0  0  0
  -27.2294  -37.1498   25.8862 H   0  0  0  0  0  0
  -20.9314  -29.8713   21.6882 H   0  0  0  0  0  0
  -26.0185  -38.2873   24.1381 H   0  0  0  0  0  0
  -27.7683  -16.6833   21.8814 H   0  0  0  0  0  0
  -26.4943  -20.7329   21.4527 H   0  0  0  0  0  0
  -27.3546  -25.3486   21.4510 H   0  0  0  0  0  0
  -29.6033  -21.8399   19.7997 H   0  0  0  0  0  0
  -28.9602  -15.4643   20.9514 H   0  0  0  0  0  0
  -30.1117  -23.3384   19.3647 H   0  0  0  0  0  0
  1 25  1  0  0  0
  1 30  2  0  0  0
  1 82  1  0  0  0
  2  3  1  0  0  0
  2 25  1  0  0  0
  2 88  1  0  0  0
  2 89  1  0  0  0
  3  4  1  0  0  0
  3 90  1  0  0  0
  3 91  1  0  0  0
  4  5  1  0  0  0
  4 92  1  0  0  0
  4 93  1  0  0  0
  5  6  1  0  0  0
  5 26  1  0  0  0
  5 94  1  0  0  0
  6 25  1  0  0  0
  6 95  1  0  0  0
  6 96  1  0  0  0
  7  8  2  0  0  0
  7 26  1  0  0  0
  7 29  1  0  0  0
  8  9  1  0  0  0
  8 22  1  0  0  0
  9 10  1  0  0  0
  9 27  2  0  0  0
 10 11  2  0  0  0
 10 15  1  0  0  0
 11 12  1  0  0  0
 11 97  1  0  0  0
 12 13  2  0  0  0
 12 98  1  0  0  0
 13 14  1  0  0  0
 13 31  1  0  0  0
 14 15  2  0  0  0
 14 99  1  0  0  0
 15100  1  0  0  0
 16 17  2  0  0  0
 16 21  1  0  0  0
 16 31  1  0  0  0
 17 18  1  0  0  0
 17101  1  0  0  0
 18 19  2  0  0  0
 18102  1  0  0  0
 19 20  1  0  0  0
 19 24  1  0  0  0
 20 21  2  0  0  0
 20103  1  0  0  0
 21 23  1  0  0  0
 22 28  1  0  0  0
 22 32  2  0  0  0
 26 27  1  0  0  0
 28104  1  0  0  0
 28105  1  0  0  0
 29106  1  0  0  0
 29107  1  0  0  0
 33 34  1  0  0  0
 33 66  1  0  0  0
 33 70  2  0  0  0
 34 36  1  0  0  0
 34 59  1  0  0  0
 34108  1  0  0  0
 35 44  2  0  0  0
 35 45  1  0  0  0
 35 68  1  0  0  0
 36 56  1  0  0  0
 36109  1  0  0  0
 37 39  1  0  0  0
 37 47  1  0  0  0
 37 66  1  0  0  0
 37110  1  0  0  0
 38 43  2  0  0  0
 38 46  1  0  0  0
 38 47  1  0  0  0
 39 64  1  0  0  0
 39 67  2  0  0  0
 40 52  1  0  0  0
 40 53  2  0  0  0
 40 58  1  0  0  0
 41111  1  0  0  0
 41112  1  0  0  0
 41113  1  0  0  0
 41 48  1  0  0  0
 42 43  1  0  0  0
 42 66  1  0  0  0
 42114  1  0  0  0
 42115  1  0  0  0
 43 44  1  0  0  0
 44116  1  0  0  0
 45 46  2  0  0  0
 45117  1  0  0  0
 46118  1  0  0  0
 47119  1  0  0  0
 47120  1  0  0  0
 48 56  1  0  0  0
 48 65  1  0  0  0
 48121  1  0  0  0
 49 50  1  0  0  0
 49 53  1  0  0  0
 49 64  1  0  0  0
 49122  1  0  0  0
 50 51  1  0  0  0
 50123  1  0  0  0
 50124  1  0  0  0
 51 52  1  0  0  0
 51125  1  0  0  0
 51126  1  0  0  0
 52127  1  0  0  0
 52128  1  0  0  0
 53 54  1  0  0  0
 54 55  2  0  0  0
 54129  1  0  0  0
 55 57  1  0  0  0
 55130  1  0  0  0
 56 69  2  0  0  0
 57 58  2  0  0  0
 57131  1  0  0  0
 58132  1  0  0  0
 59 60  1  0  0  0
 59 61  1  0  0  0
 59 62  1  0  0  0
 60133  1  0  0  0
 60134  1  0  0  0
 60135  1  0  0  0
 61136  1  0  0  0
 61137  1  0  0  0
 61138  1  0  0  0
 62139  1  0  0  0
 62140  1  0  0  0
 62141  1  0  0  0
 63 65  1  0  0  0
 63142  1  0  0  0
 63143  1  0  0  0
 63144  1  0  0  0
 64145  1  0  0  0
 65146  1  0  0  0
 68 77  1  0  0  0
 71 73  2  0  0  0
 71 75  1  0  0  0
 71147  1  0  0  0
 72 74  1  0  0  0
 72 75  2  0  0  0
 72148  1  0  0  0
 73 76  1  0  0  0
 73 78  1  0  0  0
 74 76  2  0  0  0
 74 81  1  0  0  0
 75 86  1  0  0  0
 76 87  1  0  0  0
 77 79  2  0  0  0
 77149  1  0  0  0
 78 82  1  0  0  0
 78 83  2  0  0  0
 79 80  1  0  0  0
 79 85  1  0  0  0
 80 81  1  0  0  0
 80 84  2  0  0  0
 81150  1  0  0  0
 82151  1  0  0  0
 85152  1  0  0  0
M  ISO  4   1 100  68 101  77 101  82 100
M  END
> <chiral flag>
0

> <version>
0

> <s_m_source_file>
/data/baiqing/PycharmProjects/Reinvent-master-3.2/result/LINK_invent/BTK/process_docking_weight1_custom_product_contain_oxygen_bond_distance_aromatic_linkinvent_7_9_3/rearranged_h_0173.sdf

> <i_m_source_file_index>
69

> <r_mmod_Potential_Energy-OPLS-2005>
-188.517028808594

> <r_mmod_Stretch_Energy-OPLS-2005>
50.0524787902832

> <r_mmod_Bend_Energy-OPLS-2005>
102.404975891113

> <r_mmod_Torsional_Energy-OPLS-2005>
231.363693237305

> <r_mmod_Improper_Torsional_Energy-OPLS-2005>
5.20369672775269

> <r_mmod_Van_der_Waal_Energy-OPLS-2005>
167.091720581055

> <r_mmod_Electrostatic_Energy-OPLS-2005>
-513.568908691406

> <r_mmod_Solvation_Energy-OPLS-2005>
-256.246429443359

> <b_mmod_Minimization_Converged-OPLS-2005>
0

> <r_mmod_RMS_Derivative-OPLS-2005>
1.22762143611908

$$$$
69
                    3D
 Structure written by MMmdl.
163171  0  0  1  0            999 V2000
  -30.7383  -14.5386   20.5360 C   0  0  0  0  0  0
  -30.4046  -12.3377   19.4588 C   0  0  0  0  0  0
  -29.4951  -12.4978   18.2250 C   0  0  0  0  0  0
  -28.0195  -12.3527   18.6342 C   0  0  0  0  0  0
  -27.6517  -13.2264   19.8644 C   0  0  2  0  0  0
  -28.6943  -13.0976   21.0007 C   0  0  0  0  0  0
  -25.2549  -13.8210   20.5706 C   0  0  0  0  0  0
  -24.1828  -13.0453   20.9199 C   0  0  0  0  0  0
  -24.6408  -11.6926   20.8747 C   0  0  0  0  0  0
  -23.9082  -10.4304   21.0420 C   0  0  0  0  0  0
  -24.3637   -9.4215   21.9193 C   0  0  0  0  0  0
  -23.6307   -8.2250   22.0760 C   0  0  0  0  0  0
  -22.4281   -8.0295   21.3554 C   0  0  0  0  0  0
  -21.9932   -9.0270   20.4643 C   0  0  0  0  0  0
  -22.7266  -10.2147   20.3058 C   0  0  0  0  0  0
  -21.6854   -6.0751   22.5280 C   0  0  0  0  0  0
  -21.4014   -6.5652   23.8217 C   0  0  0  0  0  0
  -21.3659   -5.6802   24.9182 C   0  0  0  0  0  0
  -21.6042   -4.3062   24.7227 C   0  0  0  0  0  0
  -21.8814   -3.8157   23.4345 C   0  0  0  0  0  0
  -21.9192   -4.6978   22.3403 C   0  0  0  0  0  0
  -22.7841  -13.5239   21.1844 C   0  0  0  0  0  0
  -22.1659   -4.2170   21.0978 F   0  0  0  0  0  0
  -21.5628   -3.4537   25.7734 F   0  0  0  0  0  0
  -30.0208  -13.3790   20.4350 N   0  0  0  0  0  0
  -26.2983  -12.9415   20.3330 N   0  0  0  0  0  0
  -25.9339  -11.6554   20.5770 N   0  0  0  0  0  0
  -22.0478  -12.8225   22.0392 N   0  0  0  0  0  0
  -25.4233  -15.1939   20.4143 N   0  0  0  0  0  0
  -31.8793  -14.5989   20.0781 O   0  0  0  0  0  0
  -21.6642   -6.8895   21.4245 O   0  0  0  0  0  0
  -22.3526  -14.5550   20.6698 O   0  0  0  0  0  0
  -24.6209  -31.8655   23.2066 C   0  0  0  0  0  0
  -25.9088  -32.4814   23.8381 C   0  0  1  0  0  0
  -27.2166  -27.3803   20.1169 C   0  0  0  0  0  0
  -25.5941  -33.8608   24.2324 N   0  0  0  0  0  0
  -23.4138  -30.4877   21.5461 C   0  0  2  0  0  0
  -24.8653  -28.9616   20.0959 C   0  0  0  0  0  0
  -22.7472  -29.4633   22.4945 C   0  0  0  0  0  0
  -18.0284  -28.1367   22.8464 C   0  0  0  0  0  0
  -24.1498  -36.7297   23.2634 C   0  0  0  0  0  0
  -25.9482  -30.8131   21.3749 C   0  0  0  0  0  0
  -26.0250  -29.4479   20.7154 C   0  0  0  0  0  0
  -27.2075  -28.6600   20.7318 C   0  0  0  0  0  0
  -26.0597  -26.9500   19.4384 C   0  0  0  0  0  0
  -24.8803  -27.7153   19.4483 C   0  0  0  0  0  0
  -23.6256  -29.8277   20.1570 C   0  0  0  0  0  0
  -25.4117  -36.3103   24.0339 C   0  0  1  0  0  0
  -20.5884  -28.3674   23.1267 C   0  0  2  0  0  0
  -20.6782  -26.9402   22.5396 C   0  0  0  0  0  0
  -19.5760  -26.6373   21.5185 C   0  0  0  0  0  0
  -18.1936  -26.7915   22.1593 C   0  0  0  0  0  0
  -19.1536  -28.8845   23.2857 C   0  0  0  0  0  0
  -18.9463  -30.1447   23.8885 C   0  0  0  0  0  0
  -17.6465  -30.6579   24.0555 C   0  0  0  0  0  0
  -25.9057  -34.9476   23.5126 C   0  0  0  0  0  0
  -16.5352  -29.9074   23.6326 C   0  0  0  0  0  0
  -16.7272  -28.6488   23.0341 C   0  0  0  0  0  0
  -26.4493  -31.6597   25.0727 C   0  0  0  0  0  0
  -25.3739  -31.3704   26.1465 C   0  0  0  0  0  0
  -27.0317  -30.3026   24.6131 C   0  0  0  0  0  0
  -27.6077  -32.4316   25.7494 C   0  0  0  0  0  0
  -27.5590  -37.1794   24.8460 C   0  0  0  0  0  0
  -21.4191  -29.3029   22.3676 N   0  0  0  0  0  0
  -26.4301  -37.3788   23.9417 N   0  0  0  0  0  0
  -24.6783  -31.0710   22.0998 N   0  0  0  0  0  0
  -23.4221  -28.8191   23.3015 O   0  0  0  0  0  0
  -28.2700  -26.4846   20.2192 O   0  0  0  0  0  0
  -26.5603  -34.8949   22.4676 O   0  0  0  0  0  0
  -23.5382  -32.1435   23.7420 O   0  0  0  0  0  0
  -32.0555  -17.2737   20.9072 C   0  0  0  0  0  0
  -30.6577  -17.0287   20.9335 C   0  0  0  0  0  0
  -29.8150  -18.1913   20.8782 C   0  0  0  0  0  0
  -30.3635  -19.5097   20.6909 C   0  0  0  0  0  0
  -31.7760  -19.6034   20.5160 C   0  0  0  0  0  0
  -29.0212  -24.2520   21.2819 C   0  0  0  0  0  0
  -28.8165  -23.0113   20.7358 C   0  0  0  0  0  0
  -29.7194  -21.9081   21.1550 C   0  0  0  0  0  0
  -32.5160  -20.8591   20.0768 C   0  0  0  0  0  0
  -27.6885  -22.7167   19.7538 C   0  0  0  0  0  0
  -26.6908  -25.1224   21.7635 C   0  0  0  0  0  0
  -28.1226  -25.5134   21.3103 C   0  0  2  0  0  0
  -32.5415  -18.5065   20.6772 N   0  3  0  0  0  0
  -28.4332  -18.0333   21.0015 N   0  0  0  0  0  0
  -29.5124  -20.6862   20.5891 N   0  0  0  0  0  0
  -30.1249  -15.6656   20.9990 N   0  0  0  0  0  0
  -30.5798  -22.0436   22.0292 O   0  0  0  0  0  0
  -31.4529  -12.3924   19.1602 H   0  0  0  0  0  0
  -30.2808  -11.3463   19.8987 H   0  0  0  0  0  0
  -29.7481  -11.7549   17.4674 H   0  0  0  0  0  0
  -29.6582  -13.4736   17.7664 H   0  0  0  0  0  0
  -27.8426  -11.3002   18.8581 H   0  0  0  0  0  0
  -27.3698  -12.5950   17.7925 H   0  0  0  0  0  0
  -27.6710  -14.2608   19.5215 H   0  0  0  0  0  0
  -28.6765  -12.0925   21.4265 H   0  0  0  0  0  0
  -28.4534  -13.7761   21.8207 H   0  0  0  0  0  0
  -25.2787   -9.5679   22.4762 H   0  0  0  0  0  0
  -24.0010   -7.4642   22.7486 H   0  0  0  0  0  0
  -21.0863   -8.8798   19.8945 H   0  0  0  0  0  0
  -22.3744  -10.9687   19.6160 H   0  0  0  0  0  0
  -21.2008   -7.6157   23.9730 H   0  0  0  0  0  0
  -21.1483   -6.0528   25.9087 H   0  0  0  0  0  0
  -22.0593   -2.7618   23.2837 H   0  0  0  0  0  0
  -22.4098  -11.9896   22.4779 H   0  0  0  0  0  0
  -21.1089  -13.1241   22.2575 H   0  0  0  0  0  0
  -24.6552  -15.8445   20.5367 H   0  0  0  0  0  0
  -26.2702  -15.6421   20.0853 H   0  0  0  0  0  0
  -26.7183  -32.5531   23.1166 H   0  0  0  0  0  0
  -25.0143  -33.9760   25.0501 H   0  0  0  0  0  0
  -22.7057  -31.3076   21.4089 H   0  0  0  0  0  0
  -23.3789  -35.9601   23.3289 H   0  0  0  0  0  0
  -24.3599  -36.8912   22.2049 H   0  0  0  0  0  0
  -23.7219  -37.6482   23.6658 H   0  0  0  0  0  0
  -26.0769  -31.5831   20.6116 H   0  0  0  0  0  0
  -26.8279  -30.8579   22.0044 H   0  0  0  0  0  0
  -28.0886  -29.0082   21.2531 H   0  0  0  0  0  0
  -26.0560  -25.9840   18.9548 H   0  0  0  0  0  0
  -23.9938  -27.3390   18.9559 H   0  0  0  0  0  0
  -23.7355  -30.6093   19.4041 H   0  0  0  0  0  0
  -22.7502  -29.2461   19.8600 H   0  0  0  0  0  0
  -25.1286  -36.1973   25.0828 H   0  0  0  0  0  0
  -20.9939  -28.3261   24.1399 H   0  0  0  0  0  0
  -20.5682  -26.2282   23.3596 H   0  0  0  0  0  0
  -21.6649  -26.7449   22.1182 H   0  0  0  0  0  0
  -19.6941  -25.6278   21.1229 H   0  0  0  0  0  0
  -19.6716  -27.3193   20.6723 H   0  0  0  0  0  0
  -17.4198  -26.6653   21.4002 H   0  0  0  0  0  0
  -18.0338  -26.0065   22.9002 H   0  0  0  0  0  0
  -19.7952  -30.7234   24.2268 H   0  0  0  0  0  0
  -17.5034  -31.6269   24.5149 H   0  0  0  0  0  0
  -15.5354  -30.2967   23.7677 H   0  0  0  0  0  0
  -15.8667  -28.0817   22.7047 H   0  0  0  0  0  0
  -24.5926  -30.7049   25.7785 H   0  0  0  0  0  0
  -24.8914  -32.2848   26.4923 H   0  0  0  0  0  0
  -25.8061  -30.8860   27.0229 H   0  0  0  0  0  0
  -26.2843  -29.6797   24.1199 H   0  0  0  0  0  0
  -27.4072  -29.7278   25.4607 H   0  0  0  0  0  0
  -27.8715  -30.4333   23.9302 H   0  0  0  0  0  0
  -27.2713  -33.3642   26.2045 H   0  0  0  0  0  0
  -28.3885  -32.6818   25.0297 H   0  0  0  0  0  0
  -28.0747  -31.8447   26.5413 H   0  0  0  0  0  0
  -28.2577  -38.0129   24.7566 H   0  0  0  0  0  0
  -28.1117  -36.2656   24.6213 H   0  0  0  0  0  0
  -27.2313  -37.1352   25.8864 H   0  0  0  0  0  0
  -20.9383  -29.8745   21.6875 H   0  0  0  0  0  0
  -26.0205  -38.2863   24.1448 H   0  0  0  0  0  0
  -32.8250  -16.5229   21.0057 H   0  0  0  0  0  0
  -29.9024  -24.3932   21.8930 H   0  0  0  0  0  0
  -32.7437  -21.5006   20.9259 H   0  0  0  0  0  0
  -31.9274  -21.4221   19.3526 H   0  0  0  0  0  0
  -33.4619  -20.6156   19.5923 H   0  0  0  0  0  0
  -27.2652  -23.6355   19.3492 H   0  0  0  0  0  0
  -26.8892  -22.1494   20.2303 H   0  0  0  0  0  0
  -28.0552  -22.1545   18.8932 H   0  0  0  0  0  0
  -26.7335  -24.4271   22.6023 H   0  0  0  0  0  0
  -26.1091  -24.6388   20.9812 H   0  0  0  0  0  0
  -26.1238  -25.9855   22.1147 H   0  0  0  0  0  0
  -28.5194  -26.0645   22.1658 H   0  0  0  0  0  0
  -33.5551  -18.6040   20.5863 H   0  0  0  0  0  0
  -28.1569  -17.2493   21.5749 H   0  0  0  0  0  0
  -27.9617  -18.8710   21.3153 H   0  0  0  0  0  0
  -28.6622  -20.5796   20.0552 H   0  0  0  0  0  0
  -29.1571  -15.5673   21.2596 H   0  0  0  0  0  0
  1 25  1  0  0  0
  1 30  2  0  0  0
  1 86  1  0  0  0
  2  3  1  0  0  0
  2 25  1  0  0  0
  2 88  1  0  0  0
  2 89  1  0  0  0
  3  4  1  0  0  0
  3 90  1  0  0  0
  3 91  1  0  0  0
  4  5  1  0  0  0
  4 92  1  0  0  0
  4 93  1  0  0  0
  5  6  1  0  0  0
  5 26  1  0  0  0
  5 94  1  0  0  0
  6 25  1  0  0  0
  6 95  1  0  0  0
  6 96  1  0  0  0
  7  8  2  0  0  0
  7 26  1  0  0  0
  7 29  1  0  0  0
  8  9  1  0  0  0
  8 22  1  0  0  0
  9 10  1  0  0  0
  9 27  2  0  0  0
 10 11  2  0  0  0
 10 15  1  0  0  0
 11 12  1  0  0  0
 11 97  1  0  0  0
 12 13  2  0  0  0
 12 98  1  0  0  0
 13 14  1  0  0  0
 13 31  1  0  0  0
 14 15  2  0  0  0
 14 99  1  0  0  0
 15100  1  0  0  0
 16 17  2  0  0  0
 16 21  1  0  0  0
 16 31  1  0  0  0
 17 18  1  0  0  0
 17101  1  0  0  0
 18 19  2  0  0  0
 18102  1  0  0  0
 19 20  1  0  0  0
 19 24  1  0  0  0
 20 21  2  0  0  0
 20103  1  0  0  0
 21 23  1  0  0  0
 22 28  1  0  0  0
 22 32  2  0  0  0
 26 27  1  0  0  0
 28104  1  0  0  0
 28105  1  0  0  0
 29106  1  0  0  0
 29107  1  0  0  0
 33 34  1  0  0  0
 33 66  1  0  0  0
 33 70  2  0  0  0
 34 36  1  0  0  0
 34 59  1  0  0  0
 34108  1  0  0  0
 35 44  2  0  0  0
 35 45  1  0  0  0
 35 68  1  0  0  0
 36 56  1  0  0  0
 36109  1  0  0  0
 37 39  1  0  0  0
 37 47  1  0  0  0
 37 66  1  0  0  0
 37110  1  0  0  0
 38 43  2  0  0  0
 38 46  1  0  0  0
 38 47  1  0  0  0
 39 64  1  0  0  0
 39 67  2  0  0  0
 40 52  1  0  0  0
 40 53  2  0  0  0
 40 58  1  0  0  0
 41111  1  0  0  0
 41112  1  0  0  0
 41113  1  0  0  0
 41 48  1  0  0  0
 42 43  1  0  0  0
 42 66  1  0  0  0
 42114  1  0  0  0
 42115  1  0  0  0
 43 44  1  0  0  0
 44116  1  0  0  0
 45 46  2  0  0  0
 45117  1  0  0  0
 46118  1  0  0  0
 47119  1  0  0  0
 47120  1  0  0  0
 48 56  1  0  0  0
 48 65  1  0  0  0
 48121  1  0  0  0
 49 50  1  0  0  0
 49 53  1  0  0  0
 49 64  1  0  0  0
 49122  1  0  0  0
 50 51  1  0  0  0
 50123  1  0  0  0
 50124  1  0  0  0
 51 52  1  0  0  0
 51125  1  0  0  0
 51126  1  0  0  0
 52127  1  0  0  0
 52128  1  0  0  0
 53 54  1  0  0  0
 54 55  2  0  0  0
 54129  1  0  0  0
 55 57  1  0  0  0
 55130  1  0  0  0
 56 69  2  0  0  0
 57 58  2  0  0  0
 57131  1  0  0  0
 58132  1  0  0  0
 59 60  1  0  0  0
 59 61  1  0  0  0
 59 62  1  0  0  0
 60133  1  0  0  0
 60134  1  0  0  0
 60135  1  0  0  0
 61136  1  0  0  0
 61137  1  0  0  0
 61138  1  0  0  0
 62139  1  0  0  0
 62140  1  0  0  0
 62141  1  0  0  0
 63 65  1  0  0  0
 63142  1  0  0  0
 63143  1  0  0  0
 63144  1  0  0  0
 64145  1  0  0  0
 65146  1  0  0  0
 68 82  1  0  0  0
 71 72  2  0  0  0
 71 83  1  0  0  0
 71147  1  0  0  0
 72 73  1  0  0  0
 72 86  1  0  0  0
 73 74  2  0  0  0
 73 84  1  0  0  0
 74 75  1  0  0  0
 74 85  1  0  0  0
 75 79  1  0  0  0
 75 83  2  0  0  0
 76 77  2  0  0  0
 76 82  1  0  0  0
 76148  1  0  0  0
 77 78  1  0  0  0
 77 80  1  0  0  0
 78 85  1  0  0  0
 78 87  2  0  0  0
 79149  1  0  0  0
 79150  1  0  0  0
 79151  1  0  0  0
 80152  1  0  0  0
 80153  1  0  0  0
 80154  1  0  0  0
 81155  1  0  0  0
 81156  1  0  0  0
 81157  1  0  0  0
 81 82  1  0  0  0
 82158  1  0  0  0
 83159  1  0  0  0
 84160  1  0  0  0
 84161  1  0  0  0
 85162  1  0  0  0
 86163  1  0  0  0
M  CHG  1  83   1
M  ISO  4   1 100  68 101  82 101  86 100
M  END
> <chiral flag>
0

> <version>
0

> <s_m_source_file>
/data/baiqing/PycharmProjects/Reinvent-master-3.2/result/LINK_invent/BTK/process_docking_weight1_custom_product_contain_oxygen_bond_distance_aromatic_linkinvent_7_9_3/rearranged_h_0173.sdf

> <i_m_source_file_index>
70

> <r_mmod_Potential_Energy-OPLS-2005>
-282.554168701172

> <r_mmod_Stretch_Energy-OPLS-2005>
66.3315734863281

> <r_mmod_Bend_Energy-OPLS-2005>
131.56428527832

> <r_mmod_Torsional_Energy-OPLS-2005>
292.268676757812

> <r_mmod_Improper_Torsional_Energy-OPLS-2005>
11.4279022216797

> <r_mmod_Van_der_Waal_Energy-OPLS-2005>
181.556594848633

> <r_mmod_Electrostatic_Energy-OPLS-2005>
-570.812194824219

> <r_mmod_Solvation_Energy-OPLS-2005>
-431.518157958984

> <b_mmod_Minimization_Converged-OPLS-2005>
0

> <r_mmod_RMS_Derivative-OPLS-2005>
2.73016929626465

$$$$
70
                    3D
 Structure written by MMmdl.
156164  0  0  1  0            999 V2000
  -30.6647  -14.4576   20.6197 C   0  0  0  0  0  0
  -30.4361  -12.3237   19.3779 C   0  0  0  0  0  0
  -29.4888  -12.5504   18.1777 C   0  0  0  0  0  0
  -28.0004  -12.4496   18.5790 C   0  0  0  0  0  0
  -27.6705  -13.2135   19.8878 C   0  0  2  0  0  0
  -28.7166  -12.8946   20.9791 C   0  0  0  0  0  0
  -25.2603  -13.8168   20.5626 C   0  0  0  0  0  0
  -24.1864  -13.0431   20.9124 C   0  0  0  0  0  0
  -24.6422  -11.6888   20.8716 C   0  0  0  0  0  0
  -23.9076  -10.4284   21.0390 C   0  0  0  0  0  0
  -24.3611   -9.4190   21.9184 C   0  0  0  0  0  0
  -23.6273   -8.2236   22.0759 C   0  0  0  0  0  0
  -22.4264   -8.0256   21.3526 C   0  0  0  0  0  0
  -21.9906   -9.0243   20.4661 C   0  0  0  0  0  0
  -22.7245  -10.2130   20.3060 C   0  0  0  0  0  0
  -21.6844   -6.0728   22.5256 C   0  0  0  0  0  0
  -21.4034   -6.5638   23.8183 C   0  0  0  0  0  0
  -21.3644   -5.6783   24.9137 C   0  0  0  0  0  0
  -21.6021   -4.3040   24.7179 C   0  0  0  0  0  0
  -21.8825   -3.8146   23.4293 C   0  0  0  0  0  0
  -21.9202   -4.6972   22.3363 C   0  0  0  0  0  0
  -22.7897  -13.5233   21.1772 C   0  0  0  0  0  0
  -22.1670   -4.2161   21.0944 F   0  0  0  0  0  0
  -21.5622   -3.4521   25.7693 F   0  0  0  0  0  0
  -30.0484  -13.2522   20.4535 N   0  0  0  0  0  0
  -26.3083  -12.9376   20.3399 N   0  0  0  0  0  0
  -25.9361  -11.6518   20.5758 N   0  0  0  0  0  0
  -22.0560  -12.8254   22.0337 N   0  0  0  0  0  0
  -25.4305  -15.1879   20.4015 N   0  0  0  0  0  0
  -31.7372  -14.7253   20.0705 O   0  0  0  0  0  0
  -21.6637   -6.8837   21.4195 O   0  0  0  0  0  0
  -22.3582  -14.5544   20.6590 O   0  0  0  0  0  0
  -24.6115  -31.8682   23.2096 C   0  0  0  0  0  0
  -25.9026  -32.4823   23.8372 C   0  0  1  0  0  0
  -27.2527  -27.4558   20.0744 C   0  0  0  0  0  0
  -25.5910  -33.8615   24.2308 N   0  0  0  0  0  0
  -23.3982  -30.4907   21.5477 C   0  0  2  0  0  0
  -24.8475  -28.9489   20.1186 C   0  0  0  0  0  0
  -22.7394  -29.4657   22.4980 C   0  0  0  0  0  0
  -18.0290  -28.1392   22.8490 C   0  0  0  0  0  0
  -24.1488  -36.7304   23.2632 C   0  0  0  0  0  0
  -25.9258  -30.8320   21.3654 C   0  0  0  0  0  0
  -26.0020  -29.4667   20.7161 C   0  0  0  0  0  0
  -27.1990  -28.7197   20.7015 C   0  0  0  0  0  0
  -26.0702  -26.9316   19.5009 C   0  0  0  0  0  0
  -24.8727  -27.6757   19.5195 C   0  0  0  0  0  0
  -23.6065  -29.8145   20.1640 C   0  0  0  0  0  0
  -25.4113  -36.3106   24.0329 C   0  0  1  0  0  0
  -20.5869  -28.3672   23.1335 C   0  0  2  0  0  0
  -20.6756  -26.9393   22.5457 C   0  0  0  0  0  0
  -19.5753  -26.6384   21.5231 C   0  0  0  0  0  0
  -18.1932  -26.7957   22.1617 C   0  0  0  0  0  0
  -19.1531  -28.8843   23.2924 C   0  0  0  0  0  0
  -18.9464  -30.1451   23.8931 C   0  0  0  0  0  0
  -17.6461  -30.6590   24.0577 C   0  0  0  0  0  0
  -25.9028  -34.9466   23.5114 C   0  0  0  0  0  0
  -16.5352  -29.9092   23.6317 C   0  0  0  0  0  0
  -16.7280  -28.6508   23.0345 C   0  0  0  0  0  0
  -26.4459  -31.6615   25.0711 C   0  0  0  0  0  0
  -25.3723  -31.3836   26.1480 C   0  0  0  0  0  0
  -27.0206  -30.3002   24.6143 C   0  0  0  0  0  0
  -27.6095  -32.4299   25.7433 C   0  0  0  0  0  0
  -27.5606  -37.1791   24.8453 C   0  0  0  0  0  0
  -21.4121  -29.3036   22.3724 N   0  0  0  0  0  0
  -26.4308  -37.3780   23.9409 N   0  0  0  0  0  0
  -24.6620  -31.0798   22.0988 N   0  0  0  0  0  0
  -23.4173  -28.8218   23.3030 O   0  0  0  0  0  0
  -28.4685  -26.8006   20.0764 O   0  0  0  0  0  0
  -26.5589  -34.8921   22.4670 O   0  0  0  0  0  0
  -23.5315  -32.1435   23.7496 O   0  0  0  0  0  0
  -30.3864  -18.9091   20.5245 C   0  0  0  0  0  0
  -32.2705  -17.4372   21.0085 C   0  0  0  0  0  0
  -32.6508  -19.6386   20.0207 C   0  0  0  0  0  0
  -30.8739  -17.6482   20.9750 C   0  0  0  0  0  0
  -31.2680  -19.9189   20.0536 C   0  0  0  0  0  0
  -33.1482  -18.4167   20.5126 C   0  0  0  0  0  0
  -29.9003  -16.6487   21.5584 C   0  0  0  0  0  0
  -29.7348  -21.9246   19.8047 C   0  0  0  0  0  0
  -29.6776  -23.3214   19.1507 C   0  0  0  0  0  0
  -28.8998  -24.3991   19.9495 C   0  0  0  0  0  0
  -28.7470  -25.7265   19.1747 C   0  0  0  0  0  0
  -30.8564  -21.2069   19.5734 N   0  0  0  0  0  0
  -29.9332  -15.3118   21.3641 N   0  0  0  0  0  0
  -28.9533  -17.1050   22.2013 O   0  0  0  0  0  0
  -28.7828  -21.5231   20.4767 O   0  0  0  0  0  0
  -34.4832  -18.1901   20.5309 F   0  0  0  0  0  0
  -31.4717  -12.4645   19.0653 H   0  0  0  0  0  0
  -30.3692  -11.2926   19.7244 H   0  0  0  0  0  0
  -29.7029  -11.8353   17.3810 H   0  0  0  0  0  0
  -29.6799  -13.5380   17.7545 H   0  0  0  0  0  0
  -27.7384  -11.3972   18.6697 H   0  0  0  0  0  0
  -27.3786  -12.8391   17.7724 H   0  0  0  0  0  0
  -27.7393  -14.2796   19.6637 H   0  0  0  0  0  0
  -28.7002  -11.8258   21.2007 H   0  0  0  0  0  0
  -28.4680  -13.3819   21.9234 H   0  0  0  0  0  0
  -25.2768   -9.5657   22.4755 H   0  0  0  0  0  0
  -23.9981   -7.4631   22.7481 H   0  0  0  0  0  0
  -21.0829   -8.8738   19.8980 H   0  0  0  0  0  0
  -22.3682  -10.9636   19.6149 H   0  0  0  0  0  0
  -21.2066   -7.6166   23.9685 H   0  0  0  0  0  0
  -21.1464   -6.0516   25.9030 H   0  0  0  0  0  0
  -22.0645   -2.7619   23.2777 H   0  0  0  0  0  0
  -22.4212  -11.9911   22.4702 H   0  0  0  0  0  0
  -21.1172  -13.1268   22.2543 H   0  0  0  0  0  0
  -24.6606  -15.8353   20.5366 H   0  0  0  0  0  0
  -26.2779  -15.6365   20.0726 H   0  0  0  0  0  0
  -26.7097  -32.5523   23.1121 H   0  0  0  0  0  0
  -25.0090  -33.9761   25.0476 H   0  0  0  0  0  0
  -22.6866  -31.3067   21.4054 H   0  0  0  0  0  0
  -23.3742  -35.9648   23.3315 H   0  0  0  0  0  0
  -24.3582  -36.8891   22.2046 H   0  0  0  0  0  0
  -23.7250  -37.6518   23.6617 H   0  0  0  0  0  0
  -26.0439  -31.5976   20.5970 H   0  0  0  0  0  0
  -26.8099  -30.8809   21.9872 H   0  0  0  0  0  0
  -28.0907  -29.1154   21.1650 H   0  0  0  0  0  0
  -26.0514  -25.9503   19.0510 H   0  0  0  0  0  0
  -23.9792  -27.2599   19.0720 H   0  0  0  0  0  0
  -23.7100  -30.5814   19.3977 H   0  0  0  0  0  0
  -22.7319  -29.2293   19.8737 H   0  0  0  0  0  0
  -25.1290  -36.1964   25.0821 H   0  0  0  0  0  0
  -20.9998  -28.3266   24.1447 H   0  0  0  0  0  0
  -20.5620  -26.2288   23.3666 H   0  0  0  0  0  0
  -21.6644  -26.7412   22.1296 H   0  0  0  0  0  0
  -19.6906  -25.6291   21.1276 H   0  0  0  0  0  0
  -19.6734  -27.3185   20.6757 H   0  0  0  0  0  0
  -17.4227  -26.6752   21.3999 H   0  0  0  0  0  0
  -18.0295  -26.0098   22.8995 H   0  0  0  0  0  0
  -19.7917  -30.7279   24.2332 H   0  0  0  0  0  0
  -17.4992  -31.6279   24.5173 H   0  0  0  0  0  0
  -15.5342  -30.3007   23.7599 H   0  0  0  0  0  0
  -15.8690  -28.0828   22.7042 H   0  0  0  0  0  0
  -24.5975  -30.7034   25.7919 H   0  0  0  0  0  0
  -24.8801  -32.3020   26.4692 H   0  0  0  0  0  0
  -25.8090  -30.9268   27.0362 H   0  0  0  0  0  0
  -26.2716  -29.6840   24.1156 H   0  0  0  0  0  0
  -27.3833  -29.7212   25.4645 H   0  0  0  0  0  0
  -27.8638  -30.4219   23.9343 H   0  0  0  0  0  0
  -27.2776  -33.3608   26.2031 H   0  0  0  0  0  0
  -28.3878  -32.6831   25.0227 H   0  0  0  0  0  0
  -28.0768  -31.8393   26.5317 H   0  0  0  0  0  0
  -28.2634  -38.0071   24.7481 H   0  0  0  0  0  0
  -28.1086  -36.2614   24.6273 H   0  0  0  0  0  0
  -27.2350  -37.1459   25.8861 H   0  0  0  0  0  0
  -20.9277  -29.8737   21.6931 H   0  0  0  0  0  0
  -26.0206  -38.2851   24.1432 H   0  0  0  0  0  0
  -29.3223  -19.1002   20.5546 H   0  0  0  0  0  0
  -32.6816  -16.5311   21.4271 H   0  0  0  0  0  0
  -33.3498  -20.3719   19.6493 H   0  0  0  0  0  0
  -29.2259  -23.2126   18.1652 H   0  0  0  0  0  0
  -30.6960  -23.6753   18.9846 H   0  0  0  0  0  0
  -29.4336  -24.5942   20.8813 H   0  0  0  0  0  0
  -27.9103  -24.0423   20.2321 H   0  0  0  0  0  0
  -28.0453  -25.6369   18.3456 H   0  0  0  0  0  0
  -29.7027  -25.9737   18.7084 H   0  0  0  0  0  0
  -31.5488  -21.6896   19.0156 H   0  0  0  0  0  0
  -29.1514  -14.8576   21.8021 H   0  0  0  0  0  0
  1 25  1  0  0  0
  1 30  2  0  0  0
  1 83  1  0  0  0
  2  3  1  0  0  0
  2 25  1  0  0  0
  2 87  1  0  0  0
  2 88  1  0  0  0
  3  4  1  0  0  0
  3 89  1  0  0  0
  3 90  1  0  0  0
  4  5  1  0  0  0
  4 91  1  0  0  0
  4 92  1  0  0  0
  5  6  1  0  0  0
  5 26  1  0  0  0
  5 93  1  0  0  0
  6 25  1  0  0  0
  6 94  1  0  0  0
  6 95  1  0  0  0
  7  8  2  0  0  0
  7 26  1  0  0  0
  7 29  1  0  0  0
  8  9  1  0  0  0
  8 22  1  0  0  0
  9 10  1  0  0  0
  9 27  2  0  0  0
 10 11  2  0  0  0
 10 15  1  0  0  0
 11 12  1  0  0  0
 11 96  1  0  0  0
 12 13  2  0  0  0
 12 97  1  0  0  0
 13 14  1  0  0  0
 13 31  1  0  0  0
 14 15  2  0  0  0
 14 98  1  0  0  0
 15 99  1  0  0  0
 16 17  2  0  0  0
 16 21  1  0  0  0
 16 31  1  0  0  0
 17 18  1  0  0  0
 17100  1  0  0  0
 18 19  2  0  0  0
 18101  1  0  0  0
 19 20  1  0  0  0
 19 24  1  0  0  0
 20 21  2  0  0  0
 20102  1  0  0  0
 21 23  1  0  0  0
 22 28  1  0  0  0
 22 32  2  0  0  0
 26 27  1  0  0  0
 28103  1  0  0  0
 28104  1  0  0  0
 29105  1  0  0  0
 29106  1  0  0  0
 33 34  1  0  0  0
 33 66  1  0  0  0
 33 70  2  0  0  0
 34 36  1  0  0  0
 34 59  1  0  0  0
 34107  1  0  0  0
 35 44  2  0  0  0
 35 45  1  0  0  0
 35 68  1  0  0  0
 36 56  1  0  0  0
 36108  1  0  0  0
 37 39  1  0  0  0
 37 47  1  0  0  0
 37 66  1  0  0  0
 37109  1  0  0  0
 38 43  2  0  0  0
 38 46  1  0  0  0
 38 47  1  0  0  0
 39 64  1  0  0  0
 39 67  2  0  0  0
 40 52  1  0  0  0
 40 53  2  0  0  0
 40 58  1  0  0  0
 41110  1  0  0  0
 41111  1  0  0  0
 41112  1  0  0  0
 41 48  1  0  0  0
 42 43  1  0  0  0
 42 66  1  0  0  0
 42113  1  0  0  0
 42114  1  0  0  0
 43 44  1  0  0  0
 44115  1  0  0  0
 45 46  2  0  0  0
 45116  1  0  0  0
 46117  1  0  0  0
 47118  1  0  0  0
 47119  1  0  0  0
 48 56  1  0  0  0
 48 65  1  0  0  0
 48120  1  0  0  0
 49 50  1  0  0  0
 49 53  1  0  0  0
 49 64  1  0  0  0
 49121  1  0  0  0
 50 51  1  0  0  0
 50122  1  0  0  0
 50123  1  0  0  0
 51 52  1  0  0  0
 51124  1  0  0  0
 51125  1  0  0  0
 52126  1  0  0  0
 52127  1  0  0  0
 53 54  1  0  0  0
 54 55  2  0  0  0
 54128  1  0  0  0
 55 57  1  0  0  0
 55129  1  0  0  0
 56 69  2  0  0  0
 57 58  2  0  0  0
 57130  1  0  0  0
 58131  1  0  0  0
 59 60  1  0  0  0
 59 61  1  0  0  0
 59 62  1  0  0  0
 60132  1  0  0  0
 60133  1  0  0  0
 60134  1  0  0  0
 61135  1  0  0  0
 61136  1  0  0  0
 61137  1  0  0  0
 62138  1  0  0  0
 62139  1  0  0  0
 62140  1  0  0  0
 63 65  1  0  0  0
 63141  1  0  0  0
 63142  1  0  0  0
 63143  1  0  0  0
 64144  1  0  0  0
 65145  1  0  0  0
 68 81  1  0  0  0
 71 74  2  0  0  0
 71 75  1  0  0  0
 71146  1  0  0  0
 72 74  1  0  0  0
 72 76  2  0  0  0
 72147  1  0  0  0
 73 75  2  0  0  0
 73 76  1  0  0  0
 73148  1  0  0  0
 74 77  1  0  0  0
 75 82  1  0  0  0
 76 86  1  0  0  0
 77 83  1  0  0  0
 77 84  2  0  0  0
 78 79  1  0  0  0
 78 82  1  0  0  0
 78 85  2  0  0  0
 79 80  1  0  0  0
 79149  1  0  0  0
 79150  1  0  0  0
 80 81  1  0  0  0
 80151  1  0  0  0
 80152  1  0  0  0
 81153  1  0  0  0
 81154  1  0  0  0
 82155  1  0  0  0
 83156  1  0  0  0
M  ISO  4   1 100  68 101  81 101  83 100
M  END
> <chiral flag>
0

> <version>
0

> <s_m_source_file>
/data/baiqing/PycharmProjects/Reinvent-master-3.2/result/LINK_invent/BTK/process_docking_weight1_custom_product_contain_oxygen_bond_distance_aromatic_linkinvent_7_9_3/rearranged_h_0173.sdf

> <i_m_source_file_index>
71

> <r_mmod_Potential_Energy-OPLS-2005>
-202.568954467773

> <r_mmod_Stretch_Energy-OPLS-2005>
39.312068939209

> <r_mmod_Bend_Energy-OPLS-2005>
150.668167114258

> <r_mmod_Torsional_Energy-OPLS-2005>
223.080932617188

> <r_mmod_Improper_Torsional_Energy-OPLS-2005>
4.02045392990112

> <r_mmod_Van_der_Waal_Energy-OPLS-2005>
160.294692993164

> <r_mmod_Electrostatic_Energy-OPLS-2005>
-563.035034179688

> <r_mmod_Solvation_Energy-OPLS-2005>
-229.500442504883

> <b_mmod_Minimization_Converged-OPLS-2005>
0

> <r_mmod_RMS_Derivative-OPLS-2005>
4.4981107711792

$$$$
71
                    3D
 Structure written by MMmdl.
161169  0  0  1  0            999 V2000
  -30.7315  -14.5755   20.5099 C   0  0  0  0  0  0
  -30.3923  -12.3575   19.4787 C   0  0  0  0  0  0
  -29.5067  -12.5618   18.2339 C   0  0  0  0  0  0
  -28.0259  -12.3996   18.6227 C   0  0  0  0  0  0
  -27.6480  -13.2489   19.8686 C   0  0  2  0  0  0
  -28.6878  -13.1261   21.0105 C   0  0  0  0  0  0
  -25.2471  -13.8251   20.5683 C   0  0  0  0  0  0
  -24.1773  -13.0451   20.9144 C   0  0  0  0  0  0
  -24.6381  -11.6941   20.8654 C   0  0  0  0  0  0
  -23.9065  -10.4324   21.0382 C   0  0  0  0  0  0
  -24.3626   -9.4253   21.9158 C   0  0  0  0  0  0
  -23.6322   -8.2285   22.0741 C   0  0  0  0  0  0
  -22.4288   -8.0299   21.3565 C   0  0  0  0  0  0
  -21.9930   -9.0263   20.4645 C   0  0  0  0  0  0
  -22.7244  -10.2137   20.3035 C   0  0  0  0  0  0
  -21.6861   -6.0744   22.5271 C   0  0  0  0  0  0
  -21.4050   -6.5638   23.8213 C   0  0  0  0  0  0
  -21.3662   -5.6784   24.9168 C   0  0  0  0  0  0
  -21.6033   -4.3045   24.7224 C   0  0  0  0  0  0
  -21.8806   -3.8142   23.4342 C   0  0  0  0  0  0
  -21.9192   -4.6966   22.3392 C   0  0  0  0  0  0
  -22.7758  -13.5210   21.1823 C   0  0  0  0  0  0
  -22.1633   -4.2142   21.0966 F   0  0  0  0  0  0
  -21.5639   -3.4525   25.7739 F   0  0  0  0  0  0
  -30.0172  -13.4065   20.4541 N   0  0  0  0  0  0
  -26.2947  -12.9494   20.3320 N   0  0  0  0  0  0
  -25.9324  -11.6600   20.5660 N   0  0  0  0  0  0
  -22.0424  -12.8211   22.0415 N   0  0  0  0  0  0
  -25.4121  -15.1993   20.4163 N   0  0  0  0  0  0
  -31.8704  -14.6096   20.0347 O   0  0  0  0  0  0
  -21.6661   -6.8892   21.4237 O   0  0  0  0  0  0
  -22.3415  -14.5481   20.6634 O   0  0  0  0  0  0
  -24.6152  -31.8643   23.2047 C   0  0  0  0  0  0
  -25.9040  -32.4783   23.8339 C   0  0  1  0  0  0
  -27.2117  -27.3862   20.1182 C   0  0  0  0  0  0
  -25.5874  -33.8587   24.2270 N   0  0  0  0  0  0
  -23.3995  -30.4895   21.5495 C   0  0  2  0  0  0
  -24.8409  -28.9456   20.1093 C   0  0  0  0  0  0
  -22.7375  -29.4672   22.4990 C   0  0  0  0  0  0
  -18.0272  -28.1382   22.8470 C   0  0  0  0  0  0
  -24.1482  -36.7317   23.2655 C   0  0  0  0  0  0
  -25.9288  -30.8147   21.3583 C   0  0  0  0  0  0
  -25.9990  -29.4429   20.7189 C   0  0  0  0  0  0
  -27.1818  -28.6651   20.7292 C   0  0  0  0  0  0
  -26.0302  -26.9097   19.5038 C   0  0  0  0  0  0
  -24.8534  -27.6804   19.5014 C   0  0  0  0  0  0
  -23.5999  -29.8120   20.1659 C   0  0  0  0  0  0
  -25.4101  -36.3088   24.0337 C   0  0  1  0  0  0
  -20.5857  -28.3668   23.1318 C   0  0  2  0  0  0
  -20.6763  -26.9399   22.5437 C   0  0  0  0  0  0
  -19.5761  -26.6385   21.5212 C   0  0  0  0  0  0
  -18.1924  -26.7937   22.1594 C   0  0  0  0  0  0
  -19.1517  -28.8846   23.2896 C   0  0  0  0  0  0
  -18.9444  -30.1449   23.8899 C   0  0  0  0  0  0
  -17.6454  -30.6599   24.0566 C   0  0  0  0  0  0
  -25.9027  -34.9455   23.5105 C   0  0  0  0  0  0
  -16.5335  -29.9091   23.6338 C   0  0  0  0  0  0
  -16.7261  -28.6513   23.0342 C   0  0  0  0  0  0
  -26.4450  -31.6559   25.0683 C   0  0  0  0  0  0
  -25.3721  -31.3677   26.1443 C   0  0  0  0  0  0
  -27.0274  -30.2997   24.6024 C   0  0  0  0  0  0
  -27.5990  -32.4313   25.7470 C   0  0  0  0  0  0
  -27.5580  -37.1797   24.8449 C   0  0  0  0  0  0
  -21.4107  -29.3027   22.3713 N   0  0  0  0  0  0
  -26.4277  -37.3782   23.9412 N   0  0  0  0  0  0
  -24.6679  -31.0725   22.0953 N   0  0  0  0  0  0
  -23.4117  -28.8232   23.3074 O   0  0  0  0  0  0
  -28.3811  -26.6468   20.1740 O   0  0  0  0  0  0
  -26.5610  -34.8925   22.4675 O   0  0  0  0  0  0
  -23.5345  -32.1429   23.7425 O   0  0  0  0  0  0
  -29.2704  -19.2994   20.6007 C   0  0  0  0  0  0
  -30.3963  -21.2351   21.5632 C   0  0  0  0  0  0
  -30.3740  -18.4457   20.9216 C   0  0  0  0  0  0
  -31.5277  -19.0618   21.5035 C   0  0  0  0  0  0
  -29.2668  -20.6929   20.9202 C   0  0  0  0  0  0
  -31.5136  -20.4392   21.8517 C   0  0  0  0  0  0
  -30.5025  -17.0142   20.4672 C   0  0  0  0  0  0
  -30.1503  -15.8272   21.0596 C   0  0  0  0  0  0
  -28.1102  -24.1237   20.3527 C   0  0  0  0  0  0
  -33.7268  -18.4580   20.4156 C   0  0  0  0  0  0
  -32.8348  -18.2779   21.6519 C   0  0  0  0  0  0
  -28.4880  -22.7293   19.7808 C   0  0  0  0  0  0
  -28.4982  -25.3673   19.5000 C   0  0  0  0  0  0
  -32.6056  -21.0673   22.4592 N   0  0  0  0  0  0
  -28.1800  -21.5531   20.6294 N   0  0  0  0  0  0
  -27.5416  -24.2215   21.4460 O   0  0  0  0  0  0
  -31.4476  -12.3788   19.2124 H   0  0  0  0  0  0
  -30.2252  -11.3648   19.9013 H   0  0  0  0  0  0
  -29.7877  -11.8697   17.4396 H   0  0  0  0  0  0
  -29.6712  -13.5643   17.8310 H   0  0  0  0  0  0
  -27.8365  -11.3433   18.8123 H   0  0  0  0  0  0
  -27.3906  -12.6810   17.7799 H   0  0  0  0  0  0
  -27.6604  -14.2875   19.5366 H   0  0  0  0  0  0
  -28.6637  -12.1256   21.4450 H   0  0  0  0  0  0
  -28.4424  -13.8081   21.8244 H   0  0  0  0  0  0
  -25.2793   -9.5748   22.4688 H   0  0  0  0  0  0
  -24.0049   -7.4677   22.7452 H   0  0  0  0  0  0
  -21.0863   -8.8771   19.8929 H   0  0  0  0  0  0
  -22.3720  -10.9665   19.6103 H   0  0  0  0  0  0
  -21.2072   -7.6155   23.9714 H   0  0  0  0  0  0
  -21.1479   -6.0515   25.9065 H   0  0  0  0  0  0
  -22.0589   -2.7609   23.2822 H   0  0  0  0  0  0
  -22.4057  -11.9914   22.4908 H   0  0  0  0  0  0
  -21.1006  -13.1182   22.2540 H   0  0  0  0  0  0
  -24.6473  -15.8551   20.5331 H   0  0  0  0  0  0
  -26.2797  -15.6506   20.1541 H   0  0  0  0  0  0
  -26.7078  -32.5457   23.1075 H   0  0  0  0  0  0
  -24.9955  -33.9700   25.0357 H   0  0  0  0  0  0
  -22.6904  -31.3095   21.4123 H   0  0  0  0  0  0
  -23.3736  -35.9655   23.3293 H   0  0  0  0  0  0
  -24.3590  -36.8967   22.2078 H   0  0  0  0  0  0
  -23.7239  -37.6509   23.6701 H   0  0  0  0  0  0
  -26.0316  -31.5629   20.5701 H   0  0  0  0  0  0
  -26.8227  -30.8822   21.9666 H   0  0  0  0  0  0
  -28.0651  -29.0370   21.2292 H   0  0  0  0  0  0
  -25.9785  -25.9352   19.0442 H   0  0  0  0  0  0
  -23.9612  -27.2821   19.0410 H   0  0  0  0  0  0
  -23.6786  -30.5774   19.3939 H   0  0  0  0  0  0
  -22.7220  -29.2216   19.8969 H   0  0  0  0  0  0
  -25.1273  -36.1949   25.0830 H   0  0  0  0  0  0
  -20.9948  -28.3270   24.1446 H   0  0  0  0  0  0
  -20.5682  -26.2267   23.3622 H   0  0  0  0  0  0
  -21.6641  -26.7460   22.1243 H   0  0  0  0  0  0
  -19.6935  -25.6302   21.1242 H   0  0  0  0  0  0
  -19.6749  -27.3187   20.6745 H   0  0  0  0  0  0
  -17.4221  -26.6711   21.3968 H   0  0  0  0  0  0
  -18.0298  -26.0079   22.8980 H   0  0  0  0  0  0
  -19.7937  -30.7268   24.2245 H   0  0  0  0  0  0
  -17.5024  -31.6281   24.5167 H   0  0  0  0  0  0
  -15.5335  -30.2985   23.7708 H   0  0  0  0  0  0
  -15.8658  -28.0851   22.7025 H   0  0  0  0  0  0
  -24.5859  -30.7053   25.7792 H   0  0  0  0  0  0
  -24.8965  -32.2855   26.4916 H   0  0  0  0  0  0
  -25.8098  -30.8827   27.0175 H   0  0  0  0  0  0
  -26.2791  -29.6779   24.1087 H   0  0  0  0  0  0
  -27.4063  -29.7203   25.4449 H   0  0  0  0  0  0
  -27.8619  -30.4316   23.9133 H   0  0  0  0  0  0
  -27.2517  -33.3573   26.2064 H   0  0  0  0  0  0
  -28.3783  -32.6937   25.0310 H   0  0  0  0  0  0
  -28.0659  -31.8444   26.5382 H   0  0  0  0  0  0
  -28.2552  -38.0131   24.7506 H   0  0  0  0  0  0
  -28.1103  -36.2654   24.6228 H   0  0  0  0  0  0
  -27.2315  -37.1411   25.8853 H   0  0  0  0  0  0
  -20.9268  -29.8650   21.6857 H   0  0  0  0  0  0
  -26.0162  -38.2854   24.1405 H   0  0  0  0  0  0
  -28.4228  -18.8870   20.0735 H   0  0  0  0  0  0
  -30.4137  -22.2871   21.8182 H   0  0  0  0  0  0
  -31.0553  -16.9385   19.5401 H   0  0  0  0  0  0
  -29.5494  -15.8170   21.9562 H   0  0  0  0  0  0
  -34.6432  -17.8705   20.4894 H   0  0  0  0  0  0
  -34.0089  -19.5048   20.2821 H   0  0  0  0  0  0
  -33.2033  -18.1449   19.5125 H   0  0  0  0  0  0
  -32.6497  -17.2182   21.8199 H   0  0  0  0  0  0
  -33.3799  -18.6033   22.5360 H   0  0  0  0  0  0
  -29.5507  -22.7778   19.5458 H   0  0  0  0  0  0
  -27.9593  -22.6122   18.8347 H   0  0  0  0  0  0
  -27.9709  -25.3585   18.5491 H   0  0  0  0  0  0
  -29.5533  -25.2544   19.2529 H   0  0  0  0  0  0
  -32.6377  -22.0749   22.5786 H   0  0  0  0  0  0
  -33.4616  -20.5763   22.6951 H   0  0  0  0  0  0
  -27.7124  -21.8996   21.4696 H   0  0  0  0  0  0
  1 25  1  0  0  0
  1 30  2  0  0  0
  1 78  1  0  0  0
  2  3  1  0  0  0
  2 25  1  0  0  0
  2 87  1  0  0  0
  2 88  1  0  0  0
  3  4  1  0  0  0
  3 89  1  0  0  0
  3 90  1  0  0  0
  4  5  1  0  0  0
  4 91  1  0  0  0
  4 92  1  0  0  0
  5  6  1  0  0  0
  5 26  1  0  0  0
  5 93  1  0  0  0
  6 25  1  0  0  0
  6 94  1  0  0  0
  6 95  1  0  0  0
  7  8  2  0  0  0
  7 26  1  0  0  0
  7 29  1  0  0  0
  8  9  1  0  0  0
  8 22  1  0  0  0
  9 10  1  0  0  0
  9 27  2  0  0  0
 10 11  2  0  0  0
 10 15  1  0  0  0
 11 12  1  0  0  0
 11 96  1  0  0  0
 12 13  2  0  0  0
 12 97  1  0  0  0
 13 14  1  0  0  0
 13 31  1  0  0  0
 14 15  2  0  0  0
 14 98  1  0  0  0
 15 99  1  0  0  0
 16 17  2  0  0  0
 16 21  1  0  0  0
 16 31  1  0  0  0
 17 18  1  0  0  0
 17100  1  0  0  0
 18 19  2  0  0  0
 18101  1  0  0  0
 19 20  1  0  0  0
 19 24  1  0  0  0
 20 21  2  0  0  0
 20102  1  0  0  0
 21 23  1  0  0  0
 22 28  1  0  0  0
 22 32  2  0  0  0
 26 27  1  0  0  0
 28103  1  0  0  0
 28104  1  0  0  0
 29105  1  0  0  0
 29106  1  0  0  0
 33 34  1  0  0  0
 33 66  1  0  0  0
 33 70  2  0  0  0
 34 36  1  0  0  0
 34 59  1  0  0  0
 34107  1  0  0  0
 35 44  2  0  0  0
 35 45  1  0  0  0
 35 68  1  0  0  0
 36 56  1  0  0  0
 36108  1  0  0  0
 37 39  1  0  0  0
 37 47  1  0  0  0
 37 66  1  0  0  0
 37109  1  0  0  0
 38 43  2  0  0  0
 38 46  1  0  0  0
 38 47  1  0  0  0
 39 64  1  0  0  0
 39 67  2  0  0  0
 40 52  1  0  0  0
 40 53  2  0  0  0
 40 58  1  0  0  0
 41110  1  0  0  0
 41111  1  0  0  0
 41112  1  0  0  0
 41 48  1  0  0  0
 42 43  1  0  0  0
 42 66  1  0  0  0
 42113  1  0  0  0
 42114  1  0  0  0
 43 44  1  0  0  0
 44115  1  0  0  0
 45 46  2  0  0  0
 45116  1  0  0  0
 46117  1  0  0  0
 47118  1  0  0  0
 47119  1  0  0  0
 48 56  1  0  0  0
 48 65  1  0  0  0
 48120  1  0  0  0
 49 50  1  0  0  0
 49 53  1  0  0  0
 49 64  1  0  0  0
 49121  1  0  0  0
 50 51  1  0  0  0
 50122  1  0  0  0
 50123  1  0  0  0
 51 52  1  0  0  0
 51124  1  0  0  0
 51125  1  0  0  0
 52126  1  0  0  0
 52127  1  0  0  0
 53 54  1  0  0  0
 54 55  2  0  0  0
 54128  1  0  0  0
 55 57  1  0  0  0
 55129  1  0  0  0
 56 69  2  0  0  0
 57 58  2  0  0  0
 57130  1  0  0  0
 58131  1  0  0  0
 59 60  1  0  0  0
 59 61  1  0  0  0
 59 62  1  0  0  0
 60132  1  0  0  0
 60133  1  0  0  0
 60134  1  0  0  0
 61135  1  0  0  0
 61136  1  0  0  0
 61137  1  0  0  0
 62138  1  0  0  0
 62139  1  0  0  0
 62140  1  0  0  0
 63 65  1  0  0  0
 63141  1  0  0  0
 63142  1  0  0  0
 63143  1  0  0  0
 64144  1  0  0  0
 65145  1  0  0  0
 68 83  1  0  0  0
 71 73  2  0  0  0
 71 75  1  0  0  0
 71146  1  0  0  0
 72 75  2  0  0  0
 72 76  1  0  0  0
 72147  1  0  0  0
 73 74  1  0  0  0
 73 77  1  0  0  0
 74 76  2  0  0  0
 74 81  1  0  0  0
 75 85  1  0  0  0
 76 84  1  0  0  0
 77 78  2  0  0  0
 77148  1  0  0  0
 78149  1  0  0  0
 79 82  1  0  0  0
 79 83  1  0  0  0
 79 86  2  0  0  0
 80 81  1  0  0  0
 80150  1  0  0  0
 80151  1  0  0  0
 80152  1  0  0  0
 81153  1  0  0  0
 81154  1  0  0  0
 82 85  1  0  0  0
 82155  1  0  0  0
 82156  1  0  0  0
 83157  1  0  0  0
 83158  1  0  0  0
 84159  1  0  0  0
 84160  1  0  0  0
 85161  1  0  0  0
M  ISO  4   1 100  68 101  78 100  83 101
M  END
> <chiral flag>
0

> <version>
0

> <s_m_source_file>
/data/baiqing/PycharmProjects/Reinvent-master-3.2/result/LINK_invent/BTK/process_docking_weight1_custom_product_contain_oxygen_bond_distance_aromatic_linkinvent_7_9_3/rearranged_h_0173.sdf

> <i_m_source_file_index>
72

> <r_mmod_Potential_Energy-OPLS-2005>
131.051651000977

> <r_mmod_Stretch_Energy-OPLS-2005>
57.1127052307129

> <r_mmod_Bend_Energy-OPLS-2005>
144.993988037109

> <r_mmod_Torsional_Energy-OPLS-2005>
233.926696777344

> <r_mmod_Improper_Torsional_Energy-OPLS-2005>
12.1155433654785

> <r_mmod_Van_der_Waal_Energy-OPLS-2005>
153.882461547852

> <r_mmod_Electrostatic_Energy-OPLS-2005>
-272.714416503906

> <r_mmod_Solvation_Energy-OPLS-2005>
-229.862503051758

> <b_mmod_Minimization_Converged-OPLS-2005>
0

> <r_mmod_RMS_Derivative-OPLS-2005>
5.56472826004028

$$$$
72
                    3D
 Structure written by MMmdl.
158166  0  0  1  0            999 V2000
  -30.6842  -14.4765   20.5965 C   0  0  0  0  0  0
  -30.4273  -12.3174   19.4189 C   0  0  0  0  0  0
  -29.4946  -12.5122   18.2038 C   0  0  0  0  0  0
  -28.0169  -12.3581   18.6179 C   0  0  0  0  0  0
  -27.6601  -13.1994   19.8729 C   0  0  2  0  0  0
  -28.6996  -12.9699   20.9935 C   0  0  0  0  0  0
  -25.2601  -13.8142   20.5692 C   0  0  0  0  0  0
  -24.1837  -13.0424   20.9161 C   0  0  0  0  0  0
  -24.6378  -11.6893   20.8715 C   0  0  0  0  0  0
  -23.9048  -10.4291   21.0396 C   0  0  0  0  0  0
  -24.3612   -9.4213   21.9177 C   0  0  0  0  0  0
  -23.6295   -8.2242   22.0762 C   0  0  0  0  0  0
  -22.4277   -8.0276   21.3546 C   0  0  0  0  0  0
  -21.9907   -9.0243   20.4644 C   0  0  0  0  0  0
  -22.7225  -10.2122   20.3052 C   0  0  0  0  0  0
  -21.6844   -6.0741   22.5288 C   0  0  0  0  0  0
  -21.4006   -6.5647   23.8222 C   0  0  0  0  0  0
  -21.3657   -5.6801   24.9184 C   0  0  0  0  0  0
  -21.6043   -4.3068   24.7236 C   0  0  0  0  0  0
  -21.8818   -3.8158   23.4356 C   0  0  0  0  0  0
  -21.9191   -4.6973   22.3410 C   0  0  0  0  0  0
  -22.7869  -13.5237   21.1837 C   0  0  0  0  0  0
  -22.1659   -4.2164   21.0983 F   0  0  0  0  0  0
  -21.5630   -3.4556   25.7746 F   0  0  0  0  0  0
  -30.0307  -13.2909   20.4483 N   0  0  0  0  0  0
  -26.3013  -12.9290   20.3340 N   0  0  0  0  0  0
  -25.9296  -11.6458   20.5737 N   0  0  0  0  0  0
  -22.0507  -12.8223   22.0386 N   0  0  0  0  0  0
  -25.4340  -15.1867   20.4206 N   0  0  0  0  0  0
  -31.8077  -14.6846   20.1265 O   0  0  0  0  0  0
  -21.6627   -6.8881   21.4251 O   0  0  0  0  0  0
  -22.3561  -14.5548   20.6698 O   0  0  0  0  0  0
  -24.6153  -31.8689   23.2086 C   0  0  0  0  0  0
  -25.9050  -32.4827   23.8398 C   0  0  1  0  0  0
  -27.2395  -27.4342   20.1006 C   0  0  0  0  0  0
  -25.5913  -33.8627   24.2340 N   0  0  0  0  0  0
  -23.4039  -30.4877   21.5514 C   0  0  2  0  0  0
  -24.8515  -28.9450   20.1250 C   0  0  0  0  0  0
  -22.7415  -29.4652   22.5027 C   0  0  0  0  0  0
  -18.0279  -28.1348   22.8493 C   0  0  0  0  0  0
  -24.1480  -36.7295   23.2645 C   0  0  0  0  0  0
  -25.9324  -30.8309   21.3632 C   0  0  0  0  0  0
  -26.0115  -29.4616   20.7181 C   0  0  0  0  0  0
  -27.2104  -28.7124   20.7042 C   0  0  0  0  0  0
  -26.0663  -26.9275   19.5086 C   0  0  0  0  0  0
  -24.8712  -27.6737   19.5231 C   0  0  0  0  0  0
  -23.6133  -29.8137   20.1695 C   0  0  0  0  0  0
  -25.4105  -36.3117   24.0351 C   0  0  1  0  0  0
  -20.5865  -28.3637   23.1314 C   0  0  2  0  0  0
  -20.6752  -26.9367   22.5424 C   0  0  0  0  0  0
  -19.5724  -26.6368   21.5216 C   0  0  0  0  0  0
  -18.1904  -26.7911   22.1615 C   0  0  0  0  0  0
  -19.1528  -28.8815   23.2893 C   0  0  0  0  0  0
  -18.9460  -30.1435   23.8887 C   0  0  0  0  0  0
  -17.6464  -30.6563   24.0560 C   0  0  0  0  0  0
  -25.9046  -34.9485   23.5143 C   0  0  0  0  0  0
  -16.5359  -29.9050   23.6339 C   0  0  0  0  0  0
  -16.7273  -28.6469   23.0357 C   0  0  0  0  0  0
  -26.4474  -31.6589   25.0718 C   0  0  0  0  0  0
  -25.3732  -31.3690   26.1465 C   0  0  0  0  0  0
  -27.0306  -30.3031   24.6081 C   0  0  0  0  0  0
  -27.6057  -32.4299   25.7474 C   0  0  0  0  0  0
  -27.5589  -37.1786   24.8469 C   0  0  0  0  0  0
  -21.4150  -29.3009   22.3736 N   0  0  0  0  0  0
  -26.4291  -37.3807   23.9436 N   0  0  0  0  0  0
  -24.6687  -31.0774   22.0992 N   0  0  0  0  0  0
  -23.4181  -28.8218   23.3092 O   0  0  0  0  0  0
  -28.4004  -26.7002   20.0220 O   0  0  0  0  0  0
  -26.5607  -34.8938   22.4703 O   0  0  0  0  0  0
  -23.5337  -32.1455   23.7461 O   0  0  0  0  0  0
  -31.6147  -18.8263   21.5504 C   0  0  0  0  0  0
  -31.4588  -17.4226   21.4834 C   0  0  0  0  0  0
  -30.5163  -19.7041   21.3542 C   0  0  0  0  0  0
  -30.1950  -16.8569   21.2029 C   0  0  0  0  0  0
  -29.2546  -19.1325   21.0626 C   0  0  0  0  0  0
  -29.0987  -17.7262   20.9967 C   0  0  0  0  0  0
  -30.7050  -21.1737   21.4714 C   0  0  0  0  0  0
  -28.7519  -24.3203   20.5948 C   0  0  0  0  0  0
  -31.1094  -23.9818   19.7552 C   0  0  0  0  0  0
  -28.6332  -25.7793   21.0990 C   0  0  0  0  0  0
  -30.0904  -23.5764   20.8466 C   0  0  2  0  0  0
  -29.9553  -15.4471   21.1809 N   0  0  0  0  0  0
  -29.9129  -22.0921   20.8682 N   0  0  0  0  0  0
  -31.7250  -21.6385   22.2026 N   0  3  0  0  0  0
  -27.8080  -23.7784   20.0100 O   0  0  0  0  0  0
  -28.1830  -19.9348   20.8335 F   0  0  0  0  0  0
  -27.8805  -17.1944   20.7215 F   0  0  0  0  0  0
  -31.4715  -12.4251   19.1222 H   0  0  0  0  0  0
  -30.3339  -11.3033   19.8104 H   0  0  0  0  0  0
  -29.7400  -11.7936   17.4199 H   0  0  0  0  0  0
  -29.6507  -13.5022   17.7714 H   0  0  0  0  0  0
  -27.8403  -11.3008   18.8200 H   0  0  0  0  0  0
  -27.3621  -12.6210   17.7862 H   0  0  0  0  0  0
  -27.7053  -14.2480   19.5762 H   0  0  0  0  0  0
  -28.6804  -11.9267   21.3134 H   0  0  0  0  0  0
  -28.4536  -13.5467   21.8857 H   0  0  0  0  0  0
  -25.2762   -9.5691   22.4751 H   0  0  0  0  0  0
  -24.0010   -7.4639   22.7485 H   0  0  0  0  0  0
  -21.0846   -8.8748   19.8943 H   0  0  0  0  0  0
  -22.3684  -10.9661   19.6166 H   0  0  0  0  0  0
  -21.1988   -7.6149   23.9730 H   0  0  0  0  0  0
  -21.1476   -6.0530   25.9085 H   0  0  0  0  0  0
  -22.0597   -2.7626   23.2853 H   0  0  0  0  0  0
  -22.4124  -11.9869   22.4745 H   0  0  0  0  0  0
  -21.1126  -13.1244   22.2604 H   0  0  0  0  0  0
  -24.6748  -15.8421   20.5670 H   0  0  0  0  0  0
  -26.3068  -15.6453   20.1855 H   0  0  0  0  0  0
  -26.7126  -32.5545   23.1172 H   0  0  0  0  0  0
  -25.0114  -33.9802   25.0516 H   0  0  0  0  0  0
  -22.6945  -31.3051   21.4066 H   0  0  0  0  0  0
  -23.3777  -35.9591   23.3302 H   0  0  0  0  0  0
  -24.3590  -36.8911   22.2062 H   0  0  0  0  0  0
  -23.7165  -37.6474   23.6651 H   0  0  0  0  0  0
  -26.0458  -31.5925   20.5907 H   0  0  0  0  0  0
  -26.8204  -30.8887   21.9804 H   0  0  0  0  0  0
  -28.1110  -29.1139   21.1463 H   0  0  0  0  0  0
  -26.0809  -25.9567   19.0334 H   0  0  0  0  0  0
  -23.9781  -27.2649   19.0707 H   0  0  0  0  0  0
  -23.7227  -30.5862   19.4084 H   0  0  0  0  0  0
  -22.7359  -29.2345   19.8755 H   0  0  0  0  0  0
  -25.1261  -36.1996   25.0841 H   0  0  0  0  0  0
  -20.9962  -28.3189   24.1430 H   0  0  0  0  0  0
  -20.5637  -26.2252   23.3613 H   0  0  0  0  0  0
  -21.6612  -26.7375   22.1221 H   0  0  0  0  0  0
  -19.6892  -25.6291   21.1221 H   0  0  0  0  0  0
  -19.6661  -27.3215   20.6776 H   0  0  0  0  0  0
  -17.4182  -26.6707   21.3998 H   0  0  0  0  0  0
  -18.0257  -26.0022   22.8964 H   0  0  0  0  0  0
  -19.7941  -30.7262   24.2226 H   0  0  0  0  0  0
  -17.5013  -31.6242   24.5148 H   0  0  0  0  0  0
  -15.5356  -30.2941   23.7665 H   0  0  0  0  0  0
  -15.8673  -28.0797   22.7058 H   0  0  0  0  0  0
  -24.5937  -30.6991   25.7815 H   0  0  0  0  0  0
  -24.8886  -32.2835   26.4889 H   0  0  0  0  0  0
  -25.8099  -30.8896   27.0234 H   0  0  0  0  0  0
  -26.2841  -29.6779   24.1164 H   0  0  0  0  0  0
  -27.4125  -29.7275   25.4525 H   0  0  0  0  0  0
  -27.8651  -30.4386   23.9198 H   0  0  0  0  0  0
  -27.2719  -33.3630   26.2030 H   0  0  0  0  0  0
  -28.3874  -32.6800   25.0286 H   0  0  0  0  0  0
  -28.0700  -31.8414   26.5398 H   0  0  0  0  0  0
  -28.2577  -38.0113   24.7584 H   0  0  0  0  0  0
  -28.1113  -36.2650   24.6207 H   0  0  0  0  0  0
  -27.2329  -37.1341   25.8876 H   0  0  0  0  0  0
  -20.9336  -29.8735   21.6944 H   0  0  0  0  0  0
  -26.0187  -38.2880   24.1485 H   0  0  0  0  0  0
  -32.5995  -19.2168   21.7678 H   0  0  0  0  0  0
  -32.3152  -16.7888   21.6655 H   0  0  0  0  0  0
  -30.8391  -24.9070   19.2417 H   0  0  0  0  0  0
  -31.2092  -23.2150   18.9846 H   0  0  0  0  0  0
  -32.0985  -24.1374   20.1883 H   0  0  0  0  0  0
  -29.5588  -26.0593   21.6001 H   0  0  0  0  0  0
  -27.8406  -25.8370   21.8468 H   0  0  0  0  0  0
  -30.4572  -23.9055   21.8199 H   0  0  0  0  0  0
  -29.0158  -15.1730   21.4190 H   0  0  0  0  0  0
  -29.0675  -21.7390   20.4251 H   0  0  0  0  0  0
  -32.3221  -20.9990   22.7043 H   0  0  0  0  0  0
  -31.9045  -22.6250   22.2751 H   0  0  0  0  0  0
  1 25  1  0  0  0
  1 30  2  0  0  0
  1 82  1  0  0  0
  2  3  1  0  0  0
  2 25  1  0  0  0
  2 88  1  0  0  0
  2 89  1  0  0  0
  3  4  1  0  0  0
  3 90  1  0  0  0
  3 91  1  0  0  0
  4  5  1  0  0  0
  4 92  1  0  0  0
  4 93  1  0  0  0
  5  6  1  0  0  0
  5 26  1  0  0  0
  5 94  1  0  0  0
  6 25  1  0  0  0
  6 95  1  0  0  0
  6 96  1  0  0  0
  7  8  2  0  0  0
  7 26  1  0  0  0
  7 29  1  0  0  0
  8  9  1  0  0  0
  8 22  1  0  0  0
  9 10  1  0  0  0
  9 27  2  0  0  0
 10 11  2  0  0  0
 10 15  1  0  0  0
 11 12  1  0  0  0
 11 97  1  0  0  0
 12 13  2  0  0  0
 12 98  1  0  0  0
 13 14  1  0  0  0
 13 31  1  0  0  0
 14 15  2  0  0  0
 14 99  1  0  0  0
 15100  1  0  0  0
 16 17  2  0  0  0
 16 21  1  0  0  0
 16 31  1  0  0  0
 17 18  1  0  0  0
 17101  1  0  0  0
 18 19  2  0  0  0
 18102  1  0  0  0
 19 20  1  0  0  0
 19 24  1  0  0  0
 20 21  2  0  0  0
 20103  1  0  0  0
 21 23  1  0  0  0
 22 28  1  0  0  0
 22 32  2  0  0  0
 26 27  1  0  0  0
 28104  1  0  0  0
 28105  1  0  0  0
 29106  1  0  0  0
 29107  1  0  0  0
 33 34  1  0  0  0
 33 66  1  0  0  0
 33 70  2  0  0  0
 34 36  1  0  0  0
 34 59  1  0  0  0
 34108  1  0  0  0
 35 44  2  0  0  0
 35 45  1  0  0  0
 35 68  1  0  0  0
 36 56  1  0  0  0
 36109  1  0  0  0
 37 39  1  0  0  0
 37 47  1  0  0  0
 37 66  1  0  0  0
 37110  1  0  0  0
 38 43  2  0  0  0
 38 46  1  0  0  0
 38 47  1  0  0  0
 39 64  1  0  0  0
 39 67  2  0  0  0
 40 52  1  0  0  0
 40 53  2  0  0  0
 40 58  1  0  0  0
 41111  1  0  0  0
 41112  1  0  0  0
 41113  1  0  0  0
 41 48  1  0  0  0
 42 43  1  0  0  0
 42 66  1  0  0  0
 42114  1  0  0  0
 42115  1  0  0  0
 43 44  1  0  0  0
 44116  1  0  0  0
 45 46  2  0  0  0
 45117  1  0  0  0
 46118  1  0  0  0
 47119  1  0  0  0
 47120  1  0  0  0
 48 56  1  0  0  0
 48 65  1  0  0  0
 48121  1  0  0  0
 49 50  1  0  0  0
 49 53  1  0  0  0
 49 64  1  0  0  0
 49122  1  0  0  0
 50 51  1  0  0  0
 50123  1  0  0  0
 50124  1  0  0  0
 51 52  1  0  0  0
 51125  1  0  0  0
 51126  1  0  0  0
 52127  1  0  0  0
 52128  1  0  0  0
 53 54  1  0  0  0
 54 55  2  0  0  0
 54129  1  0  0  0
 55 57  1  0  0  0
 55130  1  0  0  0
 56 69  2  0  0  0
 57 58  2  0  0  0
 57131  1  0  0  0
 58132  1  0  0  0
 59 60  1  0  0  0
 59 61  1  0  0  0
 59 62  1  0  0  0
 60133  1  0  0  0
 60134  1  0  0  0
 60135  1  0  0  0
 61136  1  0  0  0
 61137  1  0  0  0
 61138  1  0  0  0
 62139  1  0  0  0
 62140  1  0  0  0
 62141  1  0  0  0
 63 65  1  0  0  0
 63142  1  0  0  0
 63143  1  0  0  0
 63144  1  0  0  0
 64145  1  0  0  0
 65146  1  0  0  0
 68 80  1  0  0  0
 71 72  2  0  0  0
 71 73  1  0  0  0
 71147  1  0  0  0
 72 74  1  0  0  0
 72148  1  0  0  0
 73 75  2  0  0  0
 73 77  1  0  0  0
 74 76  2  0  0  0
 74 82  1  0  0  0
 75 76  1  0  0  0
 75 86  1  0  0  0
 76 87  1  0  0  0
 77 83  1  0  0  0
 77 84  2  0  0  0
 78 80  1  0  0  0
 78 81  1  0  0  0
 78 85  2  0  0  0
 79149  1  0  0  0
 79150  1  0  0  0
 79151  1  0  0  0
 79 81  1  0  0  0
 80152  1  0  0  0
 80153  1  0  0  0
 81 83  1  0  0  0
 81154  1  0  0  0
 82155  1  0  0  0
 83156  1  0  0  0
 84157  1  0  0  0
 84158  1  0  0  0
M  CHG  1  84   1
M  ISO  4   1 100  68 101  80 101  82 100
M  END
> <chiral flag>
0

> <version>
0

> <s_m_source_file>
/data/baiqing/PycharmProjects/Reinvent-master-3.2/result/LINK_invent/BTK/process_docking_weight1_custom_product_contain_oxygen_bond_distance_aromatic_linkinvent_7_9_3/rearranged_h_0173.sdf

> <i_m_source_file_index>
73

> <r_mmod_Potential_Energy-OPLS-2005>
-275.046752929688

> <r_mmod_Stretch_Energy-OPLS-2005>
40.8645973205566

> <r_mmod_Bend_Energy-OPLS-2005>
95.2538681030273

> <r_mmod_Torsional_Energy-OPLS-2005>
250.989135742188

> <r_mmod_Improper_Torsional_Energy-OPLS-2005>
3.78788828849792

> <r_mmod_Van_der_Waal_Energy-OPLS-2005>
153.625381469727

> <r_mmod_Electrostatic_Energy-OPLS-2005>
-391.473724365234

> <r_mmod_Solvation_Energy-OPLS-2005>
-439.857391357422

> <b_mmod_Minimization_Converged-OPLS-2005>
0

> <r_mmod_RMS_Derivative-OPLS-2005>
2.24976325035095

$$$$
73
                    3D
 Structure written by MMmdl.
156164  0  0  1  0            999 V2000
  -30.7018  -14.4382   20.6376 C   0  0  0  0  0  0
  -30.4295  -12.3149   19.3932 C   0  0  0  0  0  0
  -29.4813  -12.5115   18.1908 C   0  0  0  0  0  0
  -28.0056  -12.3699   18.6117 C   0  0  0  0  0  0
  -27.6638  -13.1965   19.8812 C   0  0  2  0  0  0
  -28.7081  -12.9332   20.9879 C   0  0  0  0  0  0
  -25.2593  -13.8149   20.5705 C   0  0  0  0  0  0
  -24.1834  -13.0439   20.9168 C   0  0  0  0  0  0
  -24.6369  -11.6897   20.8720 C   0  0  0  0  0  0
  -23.9039  -10.4285   21.0381 C   0  0  0  0  0  0
  -24.3598   -9.4200   21.9152 C   0  0  0  0  0  0
  -23.6273   -8.2232   22.0735 C   0  0  0  0  0  0
  -22.4244   -8.0274   21.3538 C   0  0  0  0  0  0
  -21.9878   -9.0248   20.4636 C   0  0  0  0  0  0
  -22.7207  -10.2127   20.3031 C   0  0  0  0  0  0
  -21.6840   -6.0730   22.5274 C   0  0  0  0  0  0
  -21.4030   -6.5644   23.8207 C   0  0  0  0  0  0
  -21.3637   -5.6796   24.9172 C   0  0  0  0  0  0
  -21.6022   -4.3059   24.7232 C   0  0  0  0  0  0
  -21.8823   -3.8151   23.4352 C   0  0  0  0  0  0
  -21.9193   -4.6963   22.3405 C   0  0  0  0  0  0
  -22.7865  -13.5240   21.1832 C   0  0  0  0  0  0
  -22.1640   -4.2147   21.0986 F   0  0  0  0  0  0
  -21.5612   -3.4541   25.7740 F   0  0  0  0  0  0
  -30.0378  -13.2663   20.4419 N   0  0  0  0  0  0
  -26.3028  -12.9296   20.3414 N   0  0  0  0  0  0
  -25.9302  -11.6460   20.5789 N   0  0  0  0  0  0
  -22.0524  -12.8231   22.0395 N   0  0  0  0  0  0
  -25.4346  -15.1860   20.4116 N   0  0  0  0  0  0
  -31.7868  -14.7004   20.1063 O   0  0  0  0  0  0
  -21.6619   -6.8863   21.4227 O   0  0  0  0  0  0
  -22.3550  -14.5533   20.6659 O   0  0  0  0  0  0
  -24.6109  -31.8719   23.2104 C   0  0  0  0  0  0
  -25.9006  -32.4858   23.8398 C   0  0  1  0  0  0
  -27.2457  -27.4659   20.0920 C   0  0  0  0  0  0
  -25.5873  -33.8657   24.2337 N   0  0  0  0  0  0
  -23.3977  -30.4908   21.5535 C   0  0  2  0  0  0
  -24.8455  -28.9556   20.1190 C   0  0  0  0  0  0
  -22.7401  -29.4657   22.5047 C   0  0  0  0  0  0
  -18.0269  -28.1356   22.8507 C   0  0  0  0  0  0
  -24.1486  -36.7329   23.2629 C   0  0  0  0  0  0
  -25.9217  -30.8470   21.3551 C   0  0  0  0  0  0
  -26.0032  -29.4812   20.7071 C   0  0  0  0  0  0
  -27.2072  -28.7454   20.6849 C   0  0  0  0  0  0
  -26.0715  -26.9430   19.5071 C   0  0  0  0  0  0
  -24.8728  -27.6837   19.5180 C   0  0  0  0  0  0
  -23.6028  -29.8170   20.1705 C   0  0  0  0  0  0
  -25.4098  -36.3141   24.0348 C   0  0  1  0  0  0
  -20.5854  -28.3630   23.1356 C   0  0  2  0  0  0
  -20.6756  -26.9373   22.5431 C   0  0  0  0  0  0
  -19.5726  -26.6368   21.5224 C   0  0  0  0  0  0
  -18.1908  -26.7910   22.1634 C   0  0  0  0  0  0
  -19.1518  -28.8807   23.2928 C   0  0  0  0  0  0
  -18.9448  -30.1425   23.8917 C   0  0  0  0  0  0
  -17.6449  -30.6572   24.0559 C   0  0  0  0  0  0
  -25.9026  -34.9507   23.5145 C   0  0  0  0  0  0
  -16.5339  -29.9072   23.6321 C   0  0  0  0  0  0
  -16.7261  -28.6485   23.0353 C   0  0  0  0  0  0
  -26.4417  -31.6631   25.0728 C   0  0  0  0  0  0
  -25.3669  -31.3776   26.1476 C   0  0  0  0  0  0
  -27.0206  -30.3073   24.6065 C   0  0  0  0  0  0
  -27.6014  -32.4324   25.7483 C   0  0  0  0  0  0
  -27.5604  -37.1804   24.8449 C   0  0  0  0  0  0
  -21.4135  -29.3013   22.3781 N   0  0  0  0  0  0
  -26.4292  -37.3824   23.9427 N   0  0  0  0  0  0
  -24.6621  -31.0838   22.0985 N   0  0  0  0  0  0
  -23.4199  -28.8205   23.3070 O   0  0  0  0  0  0
  -28.4297  -26.7673   20.0698 O   0  0  0  0  0  0
  -26.5593  -34.8950   22.4711 O   0  0  0  0  0  0
  -23.5314  -32.1452   23.7523 O   0  0  0  0  0  0
  -30.5066  -17.7501   21.1839 C   0  0  0  0  0  0
  -30.9347  -16.5709   23.2837 C   0  0  0  0  0  0
  -30.5250  -16.5455   21.9340 C   0  0  0  0  0  0
  -30.9296  -18.9652   21.7768 C   0  0  0  0  0  0
  -31.3648  -17.7751   23.8710 C   0  0  0  0  0  0
  -31.3688  -18.9662   23.1189 C   0  0  0  0  0  0
  -29.6383  -22.2450   20.6312 C   0  0  0  0  0  0
  -28.7035  -24.3796   19.5834 C   0  0  0  0  0  0
  -28.4268  -22.9240   19.9739 C   0  0  0  0  0  0
  -29.6379  -20.7076   20.6701 C   0  0  0  0  0  0
  -28.3762  -25.4522   20.6313 C   0  0  0  0  0  0
  -30.0365  -15.3270   21.3951 N   0  0  0  0  0  0
  -30.9429  -20.1774   21.0659 N   0  0  0  0  0  0
  -30.5652  -22.8796   21.1523 O   0  0  0  0  0  0
  -29.1315  -24.6732   18.4605 O   0  0  0  0  0  0
  -31.7686  -17.7880   25.1646 F   0  0  0  0  0  0
  -31.7820  -20.1233   23.6917 F   0  0  0  0  0  0
  -31.4661  -12.4474   19.0782 H   0  0  0  0  0  0
  -30.3617  -11.2935   19.7713 H   0  0  0  0  0  0
  -29.7142  -11.7913   17.4049 H   0  0  0  0  0  0
  -29.6396  -13.4985   17.7536 H   0  0  0  0  0  0
  -27.8065  -11.3118   18.7929 H   0  0  0  0  0  0
  -27.3509  -12.6603   17.7894 H   0  0  0  0  0  0
  -27.7224  -14.2510   19.6083 H   0  0  0  0  0  0
  -28.6899  -11.8785   21.2695 H   0  0  0  0  0  0
  -28.4568  -13.4743   21.9004 H   0  0  0  0  0  0
  -25.2753   -9.5668   22.4713 H   0  0  0  0  0  0
  -23.9963   -7.4632   22.7483 H   0  0  0  0  0  0
  -21.0786   -8.8772   19.8974 H   0  0  0  0  0  0
  -22.3651  -10.9654   19.6129 H   0  0  0  0  0  0
  -21.2045   -7.6160   23.9707 H   0  0  0  0  0  0
  -21.1435   -6.0532   25.9068 H   0  0  0  0  0  0
  -22.0630   -2.7619   23.2864 H   0  0  0  0  0  0
  -22.4192  -11.9887   22.4734 H   0  0  0  0  0  0
  -21.1155  -13.1238   22.2680 H   0  0  0  0  0  0
  -24.6689  -15.8420   20.5221 H   0  0  0  0  0  0
  -26.2942  -15.6244   20.1049 H   0  0  0  0  0  0
  -26.7095  -32.5577   23.1183 H   0  0  0  0  0  0
  -25.0045  -33.9819   25.0495 H   0  0  0  0  0  0
  -22.6831  -31.3056   21.4161 H   0  0  0  0  0  0
  -23.3769  -35.9645   23.3272 H   0  0  0  0  0  0
  -24.3596  -36.8951   22.2050 H   0  0  0  0  0  0
  -23.7204  -37.6521   23.6634 H   0  0  0  0  0  0
  -26.0219  -31.6111   20.5834 H   0  0  0  0  0  0
  -26.8136  -30.9091   21.9665 H   0  0  0  0  0  0
  -28.1059  -29.1556   21.1261 H   0  0  0  0  0  0
  -26.0845  -25.9736   19.0308 H   0  0  0  0  0  0
  -23.9826  -27.2737   19.0607 H   0  0  0  0  0  0
  -23.7019  -30.5883   19.4061 H   0  0  0  0  0  0
  -22.7273  -29.2309   19.8838 H   0  0  0  0  0  0
  -25.1265  -36.2023   25.0843 H   0  0  0  0  0  0
  -20.9945  -28.3172   24.1474 H   0  0  0  0  0  0
  -20.5657  -26.2226   23.3605 H   0  0  0  0  0  0
  -21.6631  -26.7414   22.1217 H   0  0  0  0  0  0
  -19.6881  -25.6283   21.1237 H   0  0  0  0  0  0
  -19.6674  -27.3192   20.6765 H   0  0  0  0  0  0
  -17.4188  -26.6686   21.4029 H   0  0  0  0  0  0
  -18.0289  -26.0042   22.9012 H   0  0  0  0  0  0
  -19.7922  -30.7241   24.2303 H   0  0  0  0  0  0
  -17.4999  -31.6264   24.5139 H   0  0  0  0  0  0
  -15.5335  -30.2970   23.7629 H   0  0  0  0  0  0
  -15.8671  -28.0803   22.7054 H   0  0  0  0  0  0
  -24.5836  -30.7118   25.7830 H   0  0  0  0  0  0
  -24.8847  -32.2950   26.4874 H   0  0  0  0  0  0
  -25.7998  -30.8991   27.0266 H   0  0  0  0  0  0
  -26.2744  -29.6925   24.1019 H   0  0  0  0  0  0
  -27.3870  -29.7230   25.4510 H   0  0  0  0  0  0
  -27.8623  -30.4402   23.9265 H   0  0  0  0  0  0
  -27.2655  -33.3618   26.2096 H   0  0  0  0  0  0
  -28.3801  -32.6895   25.0292 H   0  0  0  0  0  0
  -28.0693  -31.8418   26.5366 H   0  0  0  0  0  0
  -28.2583  -38.0145   24.7586 H   0  0  0  0  0  0
  -28.1142  -36.2686   24.6151 H   0  0  0  0  0  0
  -27.2346  -37.1314   25.8855 H   0  0  0  0  0  0
  -20.9283  -29.8753   21.7030 H   0  0  0  0  0  0
  -26.0198  -38.2908   24.1452 H   0  0  0  0  0  0
  -30.1739  -17.7373   20.1556 H   0  0  0  0  0  0
  -30.9248  -15.6690   23.8782 H   0  0  0  0  0  0
  -27.5896  -22.8966   20.6698 H   0  0  0  0  0  0
  -28.1313  -22.3628   19.0876 H   0  0  0  0  0  0
  -29.3657  -20.3266   19.6851 H   0  0  0  0  0  0
  -28.8652  -20.3865   21.3723 H   0  0  0  0  0  0
  -29.1079  -25.3912   21.4372 H   0  0  0  0  0  0
  -27.4021  -25.2377   21.0693 H   0  0  0  0  0  0
  -29.1603  -14.9882   21.7628 H   0  0  0  0  0  0
  -31.4485  -20.9109   21.5616 H   0  0  0  0  0  0
  1 25  1  0  0  0
  1 30  2  0  0  0
  1 82  1  0  0  0
  2  3  1  0  0  0
  2 25  1  0  0  0
  2 88  1  0  0  0
  2 89  1  0  0  0
  3  4  1  0  0  0
  3 90  1  0  0  0
  3 91  1  0  0  0
  4  5  1  0  0  0
  4 92  1  0  0  0
  4 93  1  0  0  0
  5  6  1  0  0  0
  5 26  1  0  0  0
  5 94  1  0  0  0
  6 25  1  0  0  0
  6 95  1  0  0  0
  6 96  1  0  0  0
  7  8  2  0  0  0
  7 26  1  0  0  0
  7 29  1  0  0  0
  8  9  1  0  0  0
  8 22  1  0  0  0
  9 10  1  0  0  0
  9 27  2  0  0  0
 10 11  2  0  0  0
 10 15  1  0  0  0
 11 12  1  0  0  0
 11 97  1  0  0  0
 12 13  2  0  0  0
 12 98  1  0  0  0
 13 14  1  0  0  0
 13 31  1  0  0  0
 14 15  2  0  0  0
 14 99  1  0  0  0
 15100  1  0  0  0
 16 17  2  0  0  0
 16 21  1  0  0  0
 16 31  1  0  0  0
 17 18  1  0  0  0
 17101  1  0  0  0
 18 19  2  0  0  0
 18102  1  0  0  0
 19 20  1  0  0  0
 19 24  1  0  0  0
 20 21  2  0  0  0
 20103  1  0  0  0
 21 23  1  0  0  0
 22 28  1  0  0  0
 22 32  2  0  0  0
 26 27  1  0  0  0
 28104  1  0  0  0
 28105  1  0  0  0
 29106  1  0  0  0
 29107  1  0  0  0
 33 34  1  0  0  0
 33 66  1  0  0  0
 33 70  2  0  0  0
 34 36  1  0  0  0
 34 59  1  0  0  0
 34108  1  0  0  0
 35 44  2  0  0  0
 35 45  1  0  0  0
 35 68  1  0  0  0
 36 56  1  0  0  0
 36109  1  0  0  0
 37 39  1  0  0  0
 37 47  1  0  0  0
 37 66  1  0  0  0
 37110  1  0  0  0
 38 43  2  0  0  0
 38 46  1  0  0  0
 38 47  1  0  0  0
 39 64  1  0  0  0
 39 67  2  0  0  0
 40 52  1  0  0  0
 40 53  2  0  0  0
 40 58  1  0  0  0
 41111  1  0  0  0
 41112  1  0  0  0
 41113  1  0  0  0
 41 48  1  0  0  0
 42 43  1  0  0  0
 42 66  1  0  0  0
 42114  1  0  0  0
 42115  1  0  0  0
 43 44  1  0  0  0
 44116  1  0  0  0
 45 46  2  0  0  0
 45117  1  0  0  0
 46118  1  0  0  0
 47119  1  0  0  0
 47120  1  0  0  0
 48 56  1  0  0  0
 48 65  1  0  0  0
 48121  1  0  0  0
 49 50  1  0  0  0
 49 53  1  0  0  0
 49 64  1  0  0  0
 49122  1  0  0  0
 50 51  1  0  0  0
 50123  1  0  0  0
 50124  1  0  0  0
 51 52  1  0  0  0
 51125  1  0  0  0
 51126  1  0  0  0
 52127  1  0  0  0
 52128  1  0  0  0
 53 54  1  0  0  0
 54 55  2  0  0  0
 54129  1  0  0  0
 55 57  1  0  0  0
 55130  1  0  0  0
 56 69  2  0  0  0
 57 58  2  0  0  0
 57131  1  0  0  0
 58132  1  0  0  0
 59 60  1  0  0  0
 59 61  1  0  0  0
 59 62  1  0  0  0
 60133  1  0  0  0
 60134  1  0  0  0
 60135  1  0  0  0
 61136  1  0  0  0
 61137  1  0  0  0
 61138  1  0  0  0
 62139  1  0  0  0
 62140  1  0  0  0
 62141  1  0  0  0
 63 65  1  0  0  0
 63142  1  0  0  0
 63143  1  0  0  0
 63144  1  0  0  0
 64145  1  0  0  0
 65146  1  0  0  0
 68 81  1  0  0  0
 71 73  2  0  0  0
 71 74  1  0  0  0
 71147  1  0  0  0
 72 73  1  0  0  0
 72 75  2  0  0  0
 72148  1  0  0  0
 73 82  1  0  0  0
 74 76  2  0  0  0
 74 83  1  0  0  0
 75 76  1  0  0  0
 75 86  1  0  0  0
 76 87  1  0  0  0
 77 79  1  0  0  0
 77 80  1  0  0  0
 77 84  2  0  0  0
 78 79  1  0  0  0
 78 81  1  0  0  0
 78 85  2  0  0  0
 79149  1  0  0  0
 79150  1  0  0  0
 80 83  1  0  0  0
 80151  1  0  0  0
 80152  1  0  0  0
 81153  1  0  0  0
 81154  1  0  0  0
 82155  1  0  0  0
 83156  1  0  0  0
M  ISO  4   1 100  68 101  81 101  82 100
M  END
> <chiral flag>
0

> <version>
0

> <s_m_source_file>
/data/baiqing/PycharmProjects/Reinvent-master-3.2/result/LINK_invent/BTK/process_docking_weight1_custom_product_contain_oxygen_bond_distance_aromatic_linkinvent_7_9_3/rearranged_h_0173.sdf

> <i_m_source_file_index>
74

> <r_mmod_Potential_Energy-OPLS-2005>
-22.9941883087158

> <r_mmod_Stretch_Energy-OPLS-2005>
34.5346069335938

> <r_mmod_Bend_Energy-OPLS-2005>
90.2738342285156

> <r_mmod_Torsional_Energy-OPLS-2005>
261.652679443359

> <r_mmod_Improper_Torsional_Energy-OPLS-2005>
8.68078136444092

> <r_mmod_Van_der_Waal_Energy-OPLS-2005>
150.876800537109

> <r_mmod_Electrostatic_Energy-OPLS-2005>
-324.600372314453

> <r_mmod_Solvation_Energy-OPLS-2005>
-253.515243530273

> <b_mmod_Minimization_Converged-OPLS-2005>
0

> <r_mmod_RMS_Derivative-OPLS-2005>
2.7983033657074

$$$$
74
                    3D
 Structure written by MMmdl.
152160  0  0  1  0            999 V2000
  -30.7348  -14.4611   20.5435 C   0  0  0  0  0  0
  -30.4160  -12.2884   19.4357 C   0  0  0  0  0  0
  -29.4940  -12.4964   18.2158 C   0  0  0  0  0  0
  -28.0171  -12.3656   18.6295 C   0  0  0  0  0  0
  -27.6657  -13.2131   19.8814 C   0  0  2  0  0  0
  -28.7111  -13.0137   21.0068 C   0  0  0  0  0  0
  -25.2591  -13.8187   20.5684 C   0  0  0  0  0  0
  -24.1844  -13.0459   20.9169 C   0  0  0  0  0  0
  -24.6401  -11.6917   20.8745 C   0  0  0  0  0  0
  -23.9063  -10.4304   21.0395 C   0  0  0  0  0  0
  -24.3610   -9.4222   21.9185 C   0  0  0  0  0  0
  -23.6289   -8.2257   22.0755 C   0  0  0  0  0  0
  -22.4286   -8.0279   21.3526 C   0  0  0  0  0  0
  -21.9913   -9.0257   20.4636 C   0  0  0  0  0  0
  -22.7235  -10.2142   20.3045 C   0  0  0  0  0  0
  -21.6847   -6.0732   22.5263 C   0  0  0  0  0  0
  -21.4012   -6.5630   23.8198 C   0  0  0  0  0  0
  -21.3664   -5.6797   24.9162 C   0  0  0  0  0  0
  -21.6055   -4.3056   24.7230 C   0  0  0  0  0  0
  -21.8824   -3.8147   23.4341 C   0  0  0  0  0  0
  -21.9194   -4.6960   22.3389 C   0  0  0  0  0  0
  -22.7859  -13.5235   21.1833 C   0  0  0  0  0  0
  -22.1665   -4.2140   21.0969 F   0  0  0  0  0  0
  -21.5635   -3.4536   25.7751 F   0  0  0  0  0  0
  -30.0490  -13.2884   20.4517 N   0  0  0  0  0  0
  -26.3051  -12.9375   20.3424 N   0  0  0  0  0  0
  -25.9341  -11.6523   20.5808 N   0  0  0  0  0  0
  -22.0511  -12.8207   22.0383 N   0  0  0  0  0  0
  -25.4333  -15.1911   20.4083 N   0  0  0  0  0  0
  -31.8420  -14.6315   20.0294 O   0  0  0  0  0  0
  -21.6636   -6.8878   21.4228 O   0  0  0  0  0  0
  -22.3528  -14.5542   20.6696 O   0  0  0  0  0  0
  -24.6109  -31.8679   23.2107 C   0  0  0  0  0  0
  -25.9006  -32.4830   23.8381 C   0  0  1  0  0  0
  -27.2464  -27.4479   20.0798 C   0  0  0  0  0  0
  -25.5846  -33.8625   24.2307 N   0  0  0  0  0  0
  -23.3972  -30.4878   21.5521 C   0  0  2  0  0  0
  -24.8448  -28.9514   20.1137 C   0  0  0  0  0  0
  -22.7384  -29.4646   22.5038 C   0  0  0  0  0  0
  -18.0251  -28.1368   22.8509 C   0  0  0  0  0  0
  -24.1445  -36.7308   23.2637 C   0  0  0  0  0  0
  -25.9218  -30.8335   21.3604 C   0  0  0  0  0  0
  -25.9990  -29.4640   20.7170 C   0  0  0  0  0  0
  -27.1937  -28.7140   20.7081 C   0  0  0  0  0  0
  -26.0705  -26.9422   19.4779 C   0  0  0  0  0  0
  -24.8747  -27.6884   19.4955 C   0  0  0  0  0  0
  -23.6026  -29.8133   20.1680 C   0  0  0  0  0  0
  -25.4077  -36.3115   24.0339 C   0  0  1  0  0  0
  -20.5839  -28.3646   23.1352 C   0  0  2  0  0  0
  -20.6740  -26.9391   22.5441 C   0  0  0  0  0  0
  -19.5727  -26.6389   21.5229 C   0  0  0  0  0  0
  -18.1888  -26.7927   22.1614 C   0  0  0  0  0  0
  -19.1504  -28.8827   23.2917 C   0  0  0  0  0  0
  -18.9451  -30.1433   23.8939 C   0  0  0  0  0  0
  -17.6460  -30.6589   24.0566 C   0  0  0  0  0  0
  -25.9032  -34.9486   23.5135 C   0  0  0  0  0  0
  -16.5346  -29.9108   23.6315 C   0  0  0  0  0  0
  -16.7251  -28.6507   23.0368 C   0  0  0  0  0  0
  -26.4452  -31.6633   25.0718 C   0  0  0  0  0  0
  -25.3715  -31.3719   26.1457 C   0  0  0  0  0  0
  -27.0306  -30.3082   24.6084 C   0  0  0  0  0  0
  -27.6014  -32.4376   25.7476 C   0  0  0  0  0  0
  -27.5594  -37.1761   24.8436 C   0  0  0  0  0  0
  -21.4120  -29.3005   22.3763 N   0  0  0  0  0  0
  -26.4238  -37.3834   23.9477 N   0  0  0  0  0  0
  -24.6612  -31.0766   22.1011 N   0  0  0  0  0  0
  -23.4175  -28.8191   23.3063 O   0  0  0  0  0  0
  -28.4514  -26.7765   20.0951 O   0  0  0  0  0  0
  -26.5633  -34.8943   22.4725 O   0  0  0  0  0  0
  -23.5313  -32.1446   23.7509 O   0  0  0  0  0  0
  -29.8999  -19.1847   21.5368 C   0  0  0  0  0  0
  -30.8083  -17.3886   19.6708 C   0  0  0  0  0  0
  -30.2687  -16.8729   20.8752 C   0  0  0  0  0  0
  -29.8129  -17.8100   21.8191 C   0  0  0  0  0  0
  -30.4379  -19.5935   20.3053 C   0  0  0  0  0  0
  -29.2893  -23.0700   19.5091 C   0  0  0  0  0  0
  -28.5374  -24.3139   20.0623 C   0  0  0  0  0  0
  -29.5291  -21.8834   20.4578 C   0  0  0  0  0  0
  -28.6708  -25.6232   19.2674 C   0  0  0  0  0  0
  -30.8938  -18.7135   19.3963 N   0  0  0  0  0  0
  -30.1027  -15.4771   21.1515 N   0  0  0  0  0  0
  -30.5248  -20.9395   19.9351 N   0  0  0  0  0  0
  -29.6736  -23.0196   18.3318 O   0  0  0  0  0  0
  -27.8529  -24.2452   21.0933 O   0  0  0  0  0  0
  -29.2771  -17.3881   22.9895 F   0  0  0  0  0  0
  -31.4643  -12.3543   19.1373 H   0  0  0  0  0  0
  -30.2889  -11.2843   19.8438 H   0  0  0  0  0  0
  -29.7282  -11.7687   17.4381 H   0  0  0  0  0  0
  -29.6702  -13.4800   17.7800 H   0  0  0  0  0  0
  -27.8252  -11.3117   18.8342 H   0  0  0  0  0  0
  -27.3668  -12.6377   17.7976 H   0  0  0  0  0  0
  -27.7065  -14.2588   19.5763 H   0  0  0  0  0  0
  -28.6750  -11.9893   21.3819 H   0  0  0  0  0  0
  -28.4787  -13.6477   21.8644 H   0  0  0  0  0  0
  -25.2750   -9.5704   22.4758 H   0  0  0  0  0  0
  -24.0003   -7.4652   22.7479 H   0  0  0  0  0  0
  -21.0852   -8.8768   19.8938 H   0  0  0  0  0  0
  -22.3689  -10.9679   19.6148 H   0  0  0  0  0  0
  -21.1997   -7.6139   23.9699 H   0  0  0  0  0  0
  -21.1480   -6.0527   25.9077 H   0  0  0  0  0  0
  -22.0604   -2.7612   23.2854 H   0  0  0  0  0  0
  -22.4149  -11.9863   22.4755 H   0  0  0  0  0  0
  -21.1123  -13.1193   22.2606 H   0  0  0  0  0  0
  -24.6704  -15.8531   20.5015 H   0  0  0  0  0  0
  -26.2973  -15.6236   20.1069 H   0  0  0  0  0  0
  -26.7082  -32.5559   23.1150 H   0  0  0  0  0  0
  -24.9886  -33.9768   25.0368 H   0  0  0  0  0  0
  -22.6846  -31.3030   21.4125 H   0  0  0  0  0  0
  -23.3766  -35.9568   23.3164 H   0  0  0  0  0  0
  -24.3557  -36.9098   22.2085 H   0  0  0  0  0  0
  -23.7093  -37.6411   23.6770 H   0  0  0  0  0  0
  -26.0161  -31.5913   20.5818 H   0  0  0  0  0  0
  -26.8176  -30.9023   21.9671 H   0  0  0  0  0  0
  -28.0842  -29.1038   21.1807 H   0  0  0  0  0  0
  -26.0550  -25.9744   18.9985 H   0  0  0  0  0  0
  -23.9864  -27.2892   19.0267 H   0  0  0  0  0  0
  -23.6973  -30.5846   19.4036 H   0  0  0  0  0  0
  -22.7278  -29.2260   19.8827 H   0  0  0  0  0  0
  -25.1221  -36.1957   25.0821 H   0  0  0  0  0  0
  -20.9918  -28.3218   24.1478 H   0  0  0  0  0  0
  -20.5648  -26.2256   23.3621 H   0  0  0  0  0  0
  -21.6616  -26.7428   22.1257 H   0  0  0  0  0  0
  -19.6885  -25.6312   21.1232 H   0  0  0  0  0  0
  -19.6675  -27.3214   20.6768 H   0  0  0  0  0  0
  -17.4181  -26.6729   21.3981 H   0  0  0  0  0  0
  -18.0228  -26.0024   22.8962 H   0  0  0  0  0  0
  -19.7933  -30.7206   24.2365 H   0  0  0  0  0  0
  -17.5024  -31.6280   24.5148 H   0  0  0  0  0  0
  -15.5360  -30.3034   23.7602 H   0  0  0  0  0  0
  -15.8639  -28.0833   22.7103 H   0  0  0  0  0  0
  -24.5821  -30.7163   25.7741 H   0  0  0  0  0  0
  -24.8965  -32.2881   26.4978 H   0  0  0  0  0  0
  -25.8027  -30.8782   27.0173 H   0  0  0  0  0  0
  -26.2840  -29.6808   24.1190 H   0  0  0  0  0  0
  -27.4150  -29.7355   25.4528 H   0  0  0  0  0  0
  -27.8625  -30.4426   23.9163 H   0  0  0  0  0  0
  -27.2621  -33.3673   26.2054 H   0  0  0  0  0  0
  -28.3801  -32.6972   25.0292 H   0  0  0  0  0  0
  -28.0695  -31.8505   26.5394 H   0  0  0  0  0  0
  -28.2479  -38.0192   24.7733 H   0  0  0  0  0  0
  -28.1221  -36.2756   24.5934 H   0  0  0  0  0  0
  -27.2357  -37.1023   25.8830 H   0  0  0  0  0  0
  -20.9285  -29.8725   21.6980 H   0  0  0  0  0  0
  -26.0114  -38.2859   24.1670 H   0  0  0  0  0  0
  -29.5494  -19.8963   22.2680 H   0  0  0  0  0  0
  -31.1501  -16.7447   18.8746 H   0  0  0  0  0  0
  -28.5762  -21.3768   20.6171 H   0  0  0  0  0  0
  -29.8594  -22.2701   21.4238 H   0  0  0  0  0  0
  -28.0451  -25.6103   18.3764 H   0  0  0  0  0  0
  -29.7000  -25.6824   18.9112 H   0  0  0  0  0  0
  -29.3401  -15.2354   21.7667 H   0  0  0  0  0  0
  -30.8389  -21.1496   18.9930 H   0  0  0  0  0  0
  1 25  1  0  0  0
  1 30  2  0  0  0
  1 81  1  0  0  0
  2  3  1  0  0  0
  2 25  1  0  0  0
  2 86  1  0  0  0
  2 87  1  0  0  0
  3  4  1  0  0  0
  3 88  1  0  0  0
  3 89  1  0  0  0
  4  5  1  0  0  0
  4 90  1  0  0  0
  4 91  1  0  0  0
  5  6  1  0  0  0
  5 26  1  0  0  0
  5 92  1  0  0  0
  6 25  1  0  0  0
  6 93  1  0  0  0
  6 94  1  0  0  0
  7  8  2  0  0  0
  7 26  1  0  0  0
  7 29  1  0  0  0
  8  9  1  0  0  0
  8 22  1  0  0  0
  9 10  1  0  0  0
  9 27  2  0  0  0
 10 11  2  0  0  0
 10 15  1  0  0  0
 11 12  1  0  0  0
 11 95  1  0  0  0
 12 13  2  0  0  0
 12 96  1  0  0  0
 13 14  1  0  0  0
 13 31  1  0  0  0
 14 15  2  0  0  0
 14 97  1  0  0  0
 15 98  1  0  0  0
 16 17  2  0  0  0
 16 21  1  0  0  0
 16 31  1  0  0  0
 17 18  1  0  0  0
 17 99  1  0  0  0
 18 19  2  0  0  0
 18100  1  0  0  0
 19 20  1  0  0  0
 19 24  1  0  0  0
 20 21  2  0  0  0
 20101  1  0  0  0
 21 23  1  0  0  0
 22 28  1  0  0  0
 22 32  2  0  0  0
 26 27  1  0  0  0
 28102  1  0  0  0
 28103  1  0  0  0
 29104  1  0  0  0
 29105  1  0  0  0
 33 34  1  0  0  0
 33 66  1  0  0  0
 33 70  2  0  0  0
 34 36  1  0  0  0
 34 59  1  0  0  0
 34106  1  0  0  0
 35 44  2  0  0  0
 35 45  1  0  0  0
 35 68  1  0  0  0
 36 56  1  0  0  0
 36107  1  0  0  0
 37 39  1  0  0  0
 37 47  1  0  0  0
 37 66  1  0  0  0
 37108  1  0  0  0
 38 43  2  0  0  0
 38 46  1  0  0  0
 38 47  1  0  0  0
 39 64  1  0  0  0
 39 67  2  0  0  0
 40 52  1  0  0  0
 40 53  2  0  0  0
 40 58  1  0  0  0
 41109  1  0  0  0
 41110  1  0  0  0
 41111  1  0  0  0
 41 48  1  0  0  0
 42 43  1  0  0  0
 42 66  1  0  0  0
 42112  1  0  0  0
 42113  1  0  0  0
 43 44  1  0  0  0
 44114  1  0  0  0
 45 46  2  0  0  0
 45115  1  0  0  0
 46116  1  0  0  0
 47117  1  0  0  0
 47118  1  0  0  0
 48 56  1  0  0  0
 48 65  1  0  0  0
 48119  1  0  0  0
 49 50  1  0  0  0
 49 53  1  0  0  0
 49 64  1  0  0  0
 49120  1  0  0  0
 50 51  1  0  0  0
 50121  1  0  0  0
 50122  1  0  0  0
 51 52  1  0  0  0
 51123  1  0  0  0
 51124  1  0  0  0
 52125  1  0  0  0
 52126  1  0  0  0
 53 54  1  0  0  0
 54 55  2  0  0  0
 54127  1  0  0  0
 55 57  1  0  0  0
 55128  1  0  0  0
 56 69  2  0  0  0
 57 58  2  0  0  0
 57129  1  0  0  0
 58130  1  0  0  0
 59 60  1  0  0  0
 59 61  1  0  0  0
 59 62  1  0  0  0
 60131  1  0  0  0
 60132  1  0  0  0
 60133  1  0  0  0
 61134  1  0  0  0
 61135  1  0  0  0
 61136  1  0  0  0
 62137  1  0  0  0
 62138  1  0  0  0
 62139  1  0  0  0
 63 65  1  0  0  0
 63140  1  0  0  0
 63141  1  0  0  0
 63142  1  0  0  0
 64143  1  0  0  0
 65144  1  0  0  0
 68 79  1  0  0  0
 71 74  2  0  0  0
 71 75  1  0  0  0
 71145  1  0  0  0
 72 73  2  0  0  0
 72 80  1  0  0  0
 72146  1  0  0  0
 73 74  1  0  0  0
 73 81  1  0  0  0
 74 85  1  0  0  0
 75 80  2  0  0  0
 75 82  1  0  0  0
 76 77  1  0  0  0
 76 78  1  0  0  0
 76 83  2  0  0  0
 77 79  1  0  0  0
 77 84  2  0  0  0
 78 82  1  0  0  0
 78147  1  0  0  0
 78148  1  0  0  0
 79149  1  0  0  0
 79150  1  0  0  0
 81151  1  0  0  0
 82152  1  0  0  0
M  ISO  4   1 100  68 101  79 101  81 100
M  END
> <chiral flag>
0

> <version>
0

> <s_m_source_file>
/data/baiqing/PycharmProjects/Reinvent-master-3.2/result/LINK_invent/BTK/process_docking_weight1_custom_product_contain_oxygen_bond_distance_aromatic_linkinvent_7_9_3/rearranged_h_0173.sdf

> <i_m_source_file_index>
75

> <r_mmod_Potential_Energy-OPLS-2005>
-350.883178710938

> <r_mmod_Stretch_Energy-OPLS-2005>
36.7282562255859

> <r_mmod_Bend_Energy-OPLS-2005>
107.783012390137

> <r_mmod_Torsional_Energy-OPLS-2005>
210.509140014648

> <r_mmod_Improper_Torsional_Energy-OPLS-2005>
5.79283428192139

> <r_mmod_Van_der_Waal_Energy-OPLS-2005>
162.001892089844

> <r_mmod_Electrostatic_Energy-OPLS-2005>
-639.640930175781

> <r_mmod_Solvation_Energy-OPLS-2005>
-246.96745300293

> <b_mmod_Minimization_Converged-OPLS-2005>
0

> <r_mmod_RMS_Derivative-OPLS-2005>
3.23363137245178

$$$$
75
                    3D
 Structure written by MMmdl.
168177  0  0  1  0            999 V2000
  -30.7121  -14.5472   20.4658 C   0  0  0  0  0  0
  -30.4030  -12.3190   19.4241 C   0  0  0  0  0  0
  -29.4848  -12.4849   18.1926 C   0  0  0  0  0  0
  -28.0080  -12.3464   18.6169 C   0  0  0  0  0  0
  -27.6495  -13.2127   19.8540 C   0  0  2  0  0  0
  -28.7071  -13.0727   20.9759 C   0  0  0  0  0  0
  -25.2569  -13.8158   20.5708 C   0  0  0  0  0  0
  -24.1843  -13.0446   20.9219 C   0  0  0  0  0  0
  -24.6381  -11.6889   20.8751 C   0  0  0  0  0  0
  -23.9050  -10.4283   21.0422 C   0  0  0  0  0  0
  -24.3584   -9.4203   21.9193 C   0  0  0  0  0  0
  -23.6263   -8.2257   22.0770 C   0  0  0  0  0  0
  -22.4254   -8.0285   21.3566 C   0  0  0  0  0  0
  -21.9889   -9.0259   20.4677 C   0  0  0  0  0  0
  -22.7229  -10.2133   20.3076 C   0  0  0  0  0  0
  -21.6861   -6.0725   22.5295 C   0  0  0  0  0  0
  -21.4021   -6.5642   23.8216 C   0  0  0  0  0  0
  -21.3646   -5.6801   24.9175 C   0  0  0  0  0  0
  -21.6047   -4.3063   24.7233 C   0  0  0  0  0  0
  -21.8799   -3.8142   23.4359 C   0  0  0  0  0  0
  -21.9183   -4.6955   22.3421 C   0  0  0  0  0  0
  -22.7860  -13.5249   21.1851 C   0  0  0  0  0  0
  -22.1647   -4.2132   21.1000 F   0  0  0  0  0  0
  -21.5612   -3.4555   25.7751 F   0  0  0  0  0  0
  -30.0240  -13.3655   20.3907 N   0  0  0  0  0  0
  -26.2972  -12.9352   20.3308 N   0  0  0  0  0  0
  -25.9297  -11.6511   20.5733 N   0  0  0  0  0  0
  -22.0492  -12.8244   22.0399 N   0  0  0  0  0  0
  -25.4260  -15.1895   20.4062 N   0  0  0  0  0  0
  -31.9056  -14.6198   20.1699 O   0  0  0  0  0  0
  -21.6652   -6.8862   21.4254 O   0  0  0  0  0  0
  -22.3603  -14.5595   20.6735 O   0  0  0  0  0  0
  -24.6293  -31.8593   23.2035 C   0  0  0  0  0  0
  -25.9166  -32.4760   23.8363 C   0  0  1  0  0  0
  -27.2312  -27.3482   20.0510 C   0  0  0  0  0  0
  -25.5993  -33.8556   24.2294 N   0  0  0  0  0  0
  -23.4219  -30.4888   21.5477 C   0  0  2  0  0  0
  -24.8573  -28.9470   20.1131 C   0  0  0  0  0  0
  -22.7512  -29.4659   22.4937 C   0  0  0  0  0  0
  -18.0306  -28.1372   22.8490 C   0  0  0  0  0  0
  -24.1487  -36.7281   23.2642 C   0  0  0  0  0  0
  -25.9638  -30.7910   21.3747 C   0  0  0  0  0  0
  -26.0336  -29.4229   20.7109 C   0  0  0  0  0  0
  -27.2188  -28.6342   20.6785 C   0  0  0  0  0  0
  -26.0211  -26.9283   19.4412 C   0  0  0  0  0  0
  -24.8513  -27.7007   19.4783 C   0  0  0  0  0  0
  -23.6333  -29.8319   20.1617 C   0  0  0  0  0  0
  -25.4120  -36.3070   24.0347 C   0  0  1  0  0  0
  -20.5920  -28.3727   23.1266 C   0  0  2  0  0  0
  -20.6801  -26.9445   22.5399 C   0  0  0  0  0  0
  -19.5761  -26.6391   21.5215 C   0  0  0  0  0  0
  -18.1946  -26.7922   22.1625 C   0  0  0  0  0  0
  -19.1562  -28.8868   23.2864 C   0  0  0  0  0  0
  -18.9490  -30.1469   23.8872 C   0  0  0  0  0  0
  -17.6479  -30.6574   24.0584 C   0  0  0  0  0  0
  -25.9064  -34.9443   23.5122 C   0  0  0  0  0  0
  -16.5371  -29.9084   23.6325 C   0  0  0  0  0  0
  -16.7288  -28.6512   23.0333 C   0  0  0  0  0  0
  -26.4534  -31.6534   25.0719 C   0  0  0  0  0  0
  -25.3787  -31.3661   26.1463 C   0  0  0  0  0  0
  -27.0349  -30.2953   24.6165 C   0  0  0  0  0  0
  -27.6081  -32.4239   25.7493 C   0  0  0  0  0  0
  -27.5551  -37.1818   24.8476 C   0  0  0  0  0  0
  -21.4221  -29.3073   22.3669 N   0  0  0  0  0  0
  -26.4261  -37.3797   23.9412 N   0  0  0  0  0  0
  -24.6909  -31.0657   22.0962 N   0  0  0  0  0  0
  -23.4232  -28.8223   23.3020 O   0  0  0  0  0  0
  -28.3641  -26.5155   20.0288 O   0  0  0  0  0  0
  -26.5599  -34.8935   22.4660 O   0  0  0  0  0  0
  -23.5478  -32.1364   23.7394 O   0  0  0  0  0  0
  -31.2095  -17.5406   21.6124 C   0  0  0  0  0  0
  -31.5854  -18.8884   21.5735 C   0  0  0  0  0  0
  -30.3784  -17.0565   20.5836 C   0  0  0  0  0  0
  -30.3566  -19.2487   19.6977 C   0  0  0  0  0  0
  -29.2875  -24.0961   19.6269 C   0  0  0  0  0  0
  -31.0421  -22.3257   16.6741 C   0  0  0  0  0  0
  -30.4284  -21.0042   16.1693 C   0  0  0  0  0  0
  -31.3426  -22.2882   18.1907 C   0  0  0  0  0  0
  -29.9204  -20.2523   18.5799 C   0  0  2  0  0  0
  -30.6039  -19.8757   17.2055 C   0  0  1  0  0  0
  -30.2474  -18.5084   16.5695 C   0  0  0  0  0  0
  -29.0097  -22.6446   19.0584 C   0  0  0  0  0  0
  -28.1811  -25.1816   19.4155 C   0  0  0  0  0  0
  -31.1847  -19.7367   20.6194 N   0  0  0  0  0  0
  -29.9309  -17.9629   19.6629 N   0  0  0  0  0  0
  -32.3964  -19.4444   22.5446 N   0  0  0  0  0  0
  -29.9579  -15.6708   20.6122 N   0  0  0  0  0  0
  -30.2071  -21.7080   18.9752 N   0  3  2  0  0  0
  -30.3279  -24.3666   20.2400 O   0  0  0  0  0  0
  -31.4522  -12.3602   19.1354 H   0  0  0  0  0  0
  -30.2482  -11.3258   19.8595 H   0  0  0  0  0  0
  -29.7261  -11.7371   17.4380 H   0  0  0  0  0  0
  -29.6558  -13.4538   17.7176 H   0  0  0  0  0  0
  -27.8312  -11.2923   18.8419 H   0  0  0  0  0  0
  -27.3486  -12.5926   17.7840 H   0  0  0  0  0  0
  -27.6632  -14.2464   19.5091 H   0  0  0  0  0  0
  -28.6964  -12.0631   21.3974 H   0  0  0  0  0  0
  -28.4825  -13.7407   21.8046 H   0  0  0  0  0  0
  -25.2718   -9.5700   22.4741 H   0  0  0  0  0  0
  -23.9995   -7.4663   22.7484 H   0  0  0  0  0  0
  -21.0811   -8.8772   19.8965 H   0  0  0  0  0  0
  -22.3690  -10.9657   19.6164 H   0  0  0  0  0  0
  -21.2047   -7.6154   23.9711 H   0  0  0  0  0  0
  -21.1472   -6.0540   25.9074 H   0  0  0  0  0  0
  -22.0577   -2.7600   23.2897 H   0  0  0  0  0  0
  -22.4087  -11.9899   22.4824 H   0  0  0  0  0  0
  -21.1093  -13.1247   22.2508 H   0  0  0  0  0  0
  -24.6513  -15.8322   20.5171 H   0  0  0  0  0  0
  -26.2552  -15.6362   20.0345 H   0  0  0  0  0  0
  -26.7242  -32.5421   23.1104 H   0  0  0  0  0  0
  -25.0243  -33.9699   25.0535 H   0  0  0  0  0  0
  -22.7159  -31.3101   21.4133 H   0  0  0  0  0  0
  -23.3731  -35.9617   23.3303 H   0  0  0  0  0  0
  -24.3599  -36.8876   22.2043 H   0  0  0  0  0  0
  -23.7253  -37.6512   23.6645 H   0  0  0  0  0  0
  -26.1148  -31.5553   20.6097 H   0  0  0  0  0  0
  -26.8382  -30.8236   22.0124 H   0  0  0  0  0  0
  -28.1246  -29.0141   21.1336 H   0  0  0  0  0  0
  -25.9311  -25.9965   18.9029 H   0  0  0  0  0  0
  -23.9576  -27.3288   18.9953 H   0  0  0  0  0  0
  -23.7705  -30.6134   19.4114 H   0  0  0  0  0  0
  -22.7467  -29.2765   19.8465 H   0  0  0  0  0  0
  -25.1293  -36.1895   25.0835 H   0  0  0  0  0  0
  -21.0017  -28.3273   24.1391 H   0  0  0  0  0  0
  -20.5730  -26.2346   23.3623 H   0  0  0  0  0  0
  -21.6676  -26.7465   22.1199 H   0  0  0  0  0  0
  -19.6912  -25.6318   21.1225 H   0  0  0  0  0  0
  -19.6644  -27.3225   20.6768 H   0  0  0  0  0  0
  -17.4233  -26.6697   21.3995 H   0  0  0  0  0  0
  -18.0295  -26.0064   22.9017 H   0  0  0  0  0  0
  -19.7974  -30.7309   24.2178 H   0  0  0  0  0  0
  -17.5046  -31.6243   24.5205 H   0  0  0  0  0  0
  -15.5385  -30.2969   23.7660 H   0  0  0  0  0  0
  -15.8712  -28.0841   22.6983 H   0  0  0  0  0  0
  -24.6040  -30.6897   25.7862 H   0  0  0  0  0  0
  -24.8930  -32.2810   26.4840 H   0  0  0  0  0  0
  -25.8199  -30.8941   27.0255 H   0  0  0  0  0  0
  -26.2921  -29.6720   24.1192 H   0  0  0  0  0  0
  -27.4037  -29.7168   25.4652 H   0  0  0  0  0  0
  -27.8808  -30.4221   23.9410 H   0  0  0  0  0  0
  -27.2707  -33.3565   26.2021 H   0  0  0  0  0  0
  -28.3941  -32.6724   25.0346 H   0  0  0  0  0  0
  -28.0697  -31.8384   26.5448 H   0  0  0  0  0  0
  -28.2617  -38.0072   24.7503 H   0  0  0  0  0  0
  -28.0979  -36.2610   24.6297 H   0  0  0  0  0  0
  -27.2276  -37.1484   25.8885 H   0  0  0  0  0  0
  -20.9382  -29.8794   21.6891 H   0  0  0  0  0  0
  -26.0104  -38.2850   24.1406 H   0  0  0  0  0  0
  -31.5300  -16.8809   22.4093 H   0  0  0  0  0  0
  -30.3785  -23.1643   16.4341 H   0  0  0  0  0  0
  -31.9722  -22.5358   16.1386 H   0  0  0  0  0  0
  -30.9003  -20.7252   15.2274 H   0  0  0  0  0  0
  -29.3710  -21.1358   15.9359 H   0  0  0  0  0  0
  -31.6362  -23.2834   18.5123 H   0  0  0  0  0  0
  -32.2386  -21.6941   18.3909 H   0  0  0  0  0  0
  -28.8429  -20.1347   18.4648 H   0  0  0  0  0  0
  -31.6737  -19.7997   17.4053 H   0  0  0  0  0  0
  -29.1734  -18.3325   16.5025 H   0  0  0  0  0  0
  -30.6985  -17.6847   17.1219 H   0  0  0  0  0  0
  -30.6551  -18.4262   15.5575 H   0  0  0  0  0  0
  -28.5637  -22.7451   18.0675 H   0  0  0  0  0  0
  -28.2445  -22.1875   19.6861 H   0  0  0  0  0  0
  -28.0552  -25.3232   18.3404 H   0  0  0  0  0  0
  -27.2702  -24.7237   19.7974 H   0  0  0  0  0  0
  -32.5860  -20.4398   22.5550 H   0  0  0  0  0  0
  -32.5673  -18.9612   23.4163 H   0  0  0  0  0  0
  -28.9675  -15.5015   20.6099 H   0  0  0  0  0  0
  -30.5527  -21.5786   19.9215 H   0  0  0  0  0  0
  1 25  1  0  0  0
  1 30  2  0  0  0
  1 87  1  0  0  0
  2  3  1  0  0  0
  2 25  1  0  0  0
  2 90  1  0  0  0
  2 91  1  0  0  0
  3  4  1  0  0  0
  3 92  1  0  0  0
  3 93  1  0  0  0
  4  5  1  0  0  0
  4 94  1  0  0  0
  4 95  1  0  0  0
  5  6  1  0  0  0
  5 26  1  0  0  0
  5 96  1  0  0  0
  6 25  1  0  0  0
  6 97  1  0  0  0
  6 98  1  0  0  0
  7  8  2  0  0  0
  7 26  1  0  0  0
  7 29  1  0  0  0
  8  9  1  0  0  0
  8 22  1  0  0  0
  9 10  1  0  0  0
  9 27  2  0  0  0
 10 11  2  0  0  0
 10 15  1  0  0  0
 11 12  1  0  0  0
 11 99  1  0  0  0
 12 13  2  0  0  0
 12100  1  0  0  0
 13 14  1  0  0  0
 13 31  1  0  0  0
 14 15  2  0  0  0
 14101  1  0  0  0
 15102  1  0  0  0
 16 17  2  0  0  0
 16 21  1  0  0  0
 16 31  1  0  0  0
 17 18  1  0  0  0
 17103  1  0  0  0
 18 19  2  0  0  0
 18104  1  0  0  0
 19 20  1  0  0  0
 19 24  1  0  0  0
 20 21  2  0  0  0
 20105  1  0  0  0
 21 23  1  0  0  0
 22 28  1  0  0  0
 22 32  2  0  0  0
 26 27  1  0  0  0
 28106  1  0  0  0
 28107  1  0  0  0
 29108  1  0  0  0
 29109  1  0  0  0
 33 34  1  0  0  0
 33 66  1  0  0  0
 33 70  2  0  0  0
 34 36  1  0  0  0
 34 59  1  0  0  0
 34110  1  0  0  0
 35 44  2  0  0  0
 35 45  1  0  0  0
 35 68  1  0  0  0
 36 56  1  0  0  0
 36111  1  0  0  0
 37 39  1  0  0  0
 37 47  1  0  0  0
 37 66  1  0  0  0
 37112  1  0  0  0
 38 43  2  0  0  0
 38 46  1  0  0  0
 38 47  1  0  0  0
 39 64  1  0  0  0
 39 67  2  0  0  0
 40 52  1  0  0  0
 40 53  2  0  0  0
 40 58  1  0  0  0
 41113  1  0  0  0
 41114  1  0  0  0
 41115  1  0  0  0
 41 48  1  0  0  0
 42 43  1  0  0  0
 42 66  1  0  0  0
 42116  1  0  0  0
 42117  1  0  0  0
 43 44  1  0  0  0
 44118  1  0  0  0
 45 46  2  0  0  0
 45119  1  0  0  0
 46120  1  0  0  0
 47121  1  0  0  0
 47122  1  0  0  0
 48 56  1  0  0  0
 48 65  1  0  0  0
 48123  1  0  0  0
 49 50  1  0  0  0
 49 53  1  0  0  0
 49 64  1  0  0  0
 49124  1  0  0  0
 50 51  1  0  0  0
 50125  1  0  0  0
 50126  1  0  0  0
 51 52  1  0  0  0
 51127  1  0  0  0
 51128  1  0  0  0
 52129  1  0  0  0
 52130  1  0  0  0
 53 54  1  0  0  0
 54 55  2  0  0  0
 54131  1  0  0  0
 55 57  1  0  0  0
 55132  1  0  0  0
 56 69  2  0  0  0
 57 58  2  0  0  0
 57133  1  0  0  0
 58134  1  0  0  0
 59 60  1  0  0  0
 59 61  1  0  0  0
 59 62  1  0  0  0
 60135  1  0  0  0
 60136  1  0  0  0
 60137  1  0  0  0
 61138  1  0  0  0
 61139  1  0  0  0
 61140  1  0  0  0
 62141  1  0  0  0
 62142  1  0  0  0
 62143  1  0  0  0
 63 65  1  0  0  0
 63144  1  0  0  0
 63145  1  0  0  0
 63146  1  0  0  0
 64147  1  0  0  0
 65148  1  0  0  0
 68 83  1  0  0  0
 71 72  2  0  0  0
 71 73  1  0  0  0
 71149  1  0  0  0
 72 84  1  0  0  0
 72 86  1  0  0  0
 73 85  2  0  0  0
 73 87  1  0  0  0
 74 84  2  0  0  0
 74 85  1  0  0  0
 74 79  1  0  0  0
 75 82  1  0  0  0
 75 83  1  0  0  0
 75 89  2  0  0  0
 76 77  1  0  0  0
 76 78  1  0  0  0
 76150  1  0  0  0
 76151  1  0  0  0
 77 80  1  0  0  0
 77152  1  0  0  0
 77153  1  0  0  0
 78 88  1  0  0  0
 78154  1  0  0  0
 78155  1  0  0  0
 79 80  1  0  0  0
 79 88  1  0  0  0
 79156  1  0  0  0
 80 81  1  0  0  0
 80157  1  0  0  0
 81158  1  0  0  0
 81159  1  0  0  0
 81160  1  0  0  0
 82161  1  0  0  0
 82162  1  0  0  0
 82 88  1  0  0  0
 83163  1  0  0  0
 83164  1  0  0  0
 86165  1  0  0  0
 86166  1  0  0  0
 87167  1  0  0  0
 88168  1  0  0  0
M  CHG  1  88   1
M  ISO  4   1 100  68 101  83 101  87 100
M  END
> <chiral flag>
0

> <version>
0

> <s_m_source_file>
/data/baiqing/PycharmProjects/Reinvent-master-3.2/result/LINK_invent/BTK/process_docking_weight1_custom_product_contain_oxygen_bond_distance_aromatic_linkinvent_7_9_3/rearranged_h_0173.sdf

> <i_m_source_file_index>
76

> <r_mmod_Potential_Energy-OPLS-2005>
-636.099365234375

> <r_mmod_Stretch_Energy-OPLS-2005>
79.2374877929688

> <r_mmod_Bend_Energy-OPLS-2005>
148.112991333008

> <r_mmod_Torsional_Energy-OPLS-2005>
281.402069091797

> <r_mmod_Improper_Torsional_Energy-OPLS-2005>
8.03352355957031

> <r_mmod_Van_der_Waal_Energy-OPLS-2005>
177.460021972656

> <r_mmod_Electrostatic_Energy-OPLS-2005>
-907.498413085938

> <r_mmod_Solvation_Energy-OPLS-2005>
-459.22119140625

> <b_mmod_Minimization_Converged-OPLS-2005>
0

> <r_mmod_RMS_Derivative-OPLS-2005>
7.10213899612427

$$$$
76
                    3D
 Structure written by MMmdl.
166174  0  0  1  0            999 V2000
  -30.7060  -14.5737   20.4931 C   0  0  0  0  0  0
  -30.4099  -12.3513   19.4551 C   0  0  0  0  0  0
  -29.4968  -12.4861   18.2200 C   0  0  0  0  0  0
  -28.0197  -12.3422   18.6325 C   0  0  0  0  0  0
  -27.6454  -13.2267   19.8533 C   0  0  2  0  0  0
  -28.6889  -13.1159   20.9867 C   0  0  0  0  0  0
  -25.2513  -13.8202   20.5697 C   0  0  0  0  0  0
  -24.1798  -13.0449   20.9202 C   0  0  0  0  0  0
  -24.6386  -11.6926   20.8744 C   0  0  0  0  0  0
  -23.9063  -10.4299   21.0410 C   0  0  0  0  0  0
  -24.3620   -9.4210   21.9179 C   0  0  0  0  0  0
  -23.6294   -8.2247   22.0752 C   0  0  0  0  0  0
  -22.4273   -8.0283   21.3549 C   0  0  0  0  0  0
  -21.9907   -9.0252   20.4650 C   0  0  0  0  0  0
  -22.7239  -10.2132   20.3056 C   0  0  0  0  0  0
  -21.6846   -6.0744   22.5282 C   0  0  0  0  0  0
  -21.4013   -6.5644   23.8217 C   0  0  0  0  0  0
  -21.3657   -5.6792   24.9178 C   0  0  0  0  0  0
  -21.6047   -4.3059   24.7225 C   0  0  0  0  0  0
  -21.8816   -3.8149   23.4342 C   0  0  0  0  0  0
  -21.9189   -4.6969   22.3402 C   0  0  0  0  0  0
  -22.7820  -13.5233   21.1856 C   0  0  0  0  0  0
  -22.1663   -4.2163   21.0980 F   0  0  0  0  0  0
  -21.5622   -3.4537   25.7735 F   0  0  0  0  0  0
  -30.0064  -13.4034   20.4081 N   0  0  0  0  0  0
  -26.2945  -12.9409   20.3287 N   0  0  0  0  0  0
  -25.9314  -11.6553   20.5740 N   0  0  0  0  0  0
  -22.0466  -12.8236   22.0424 N   0  0  0  0  0  0
  -25.4197  -15.1925   20.4138 N   0  0  0  0  0  0
  -31.8944  -14.5961   20.1817 O   0  0  0  0  0  0
  -21.6634   -6.8885   21.4246 O   0  0  0  0  0  0
  -22.3511  -14.5535   20.6696 O   0  0  0  0  0  0
  -24.6196  -31.8633   23.2042 C   0  0  0  0  0  0
  -25.9074  -32.4790   23.8355 C   0  0  1  0  0  0
  -27.2269  -27.3699   20.1031 C   0  0  0  0  0  0
  -25.5910  -33.8587   24.2281 N   0  0  0  0  0  0
  -23.4100  -30.4864   21.5460 C   0  0  2  0  0  0
  -24.8545  -28.9437   20.1116 C   0  0  0  0  0  0
  -22.7440  -29.4632   22.4954 C   0  0  0  0  0  0
  -18.0277  -28.1386   22.8492 C   0  0  0  0  0  0
  -24.1483  -36.7298   23.2637 C   0  0  0  0  0  0
  -25.9444  -30.8102   21.3653 C   0  0  0  0  0  0
  -26.0176  -29.4395   20.7118 C   0  0  0  0  0  0
  -27.2032  -28.6596   20.7033 C   0  0  0  0  0  0
  -26.0385  -26.9028   19.4979 C   0  0  0  0  0  0
  -24.8634  -27.6784   19.5015 C   0  0  0  0  0  0
  -23.6210  -29.8191   20.1604 C   0  0  0  0  0  0
  -25.4108  -36.3085   24.0326 C   0  0  1  0  0  0
  -20.5870  -28.3672   23.1305 C   0  0  2  0  0  0
  -20.6763  -26.9402   22.5418 C   0  0  0  0  0  0
  -19.5738  -26.6389   21.5215 C   0  0  0  0  0  0
  -18.1920  -26.7932   22.1631 C   0  0  0  0  0  0
  -19.1530  -28.8849   23.2897 C   0  0  0  0  0  0
  -18.9459  -30.1449   23.8910 C   0  0  0  0  0  0
  -17.6459  -30.6589   24.0568 C   0  0  0  0  0  0
  -25.9047  -34.9453   23.5107 C   0  0  0  0  0  0
  -16.5351  -29.9094   23.6328 C   0  0  0  0  0  0
  -16.7267  -28.6510   23.0349 C   0  0  0  0  0  0
  -26.4486  -31.6591   25.0708 C   0  0  0  0  0  0
  -25.3743  -31.3732   26.1458 C   0  0  0  0  0  0
  -27.0317  -30.3018   24.6125 C   0  0  0  0  0  0
  -27.6045  -32.4326   25.7487 C   0  0  0  0  0  0
  -27.5575  -37.1805   24.8466 C   0  0  0  0  0  0
  -21.4161  -29.3030   22.3707 N   0  0  0  0  0  0
  -26.4289  -37.3776   23.9409 N   0  0  0  0  0  0
  -24.6766  -31.0695   22.0960 N   0  0  0  0  0  0
  -23.4192  -28.8179   23.3017 O   0  0  0  0  0  0
  -28.3928  -26.6122   20.1499 O   0  0  0  0  0  0
  -26.5615  -34.8917   22.4669 O   0  0  0  0  0  0
  -23.5375  -32.1409   23.7406 O   0  0  0  0  0  0
  -28.1855  -18.1387   19.7129 C   0  0  0  0  0  0
  -27.5780  -19.4338   19.7827 C   0  0  0  0  0  0
  -29.3459  -18.1788   20.4458 C   0  0  0  0  0  0
  -28.4175  -20.1964   20.5404 C   0  0  0  0  0  0
  -28.1692  -24.0834   20.4689 C   0  0  0  0  0  0
  -31.5291  -19.6463   18.5070 C   0  0  0  0  0  0
  -32.6607  -19.5933   20.7973 C   0  0  0  0  0  0
  -33.7164  -18.5545   18.8134 C   0  0  0  0  0  0
  -28.6641  -22.6532   20.0554 C   0  0  0  0  0  0
  -28.4878  -25.2914   19.5292 C   0  0  0  0  0  0
  -31.7283  -17.4070   19.7951 C   0  0  0  0  0  0
  -30.4698  -17.1714   20.7097 C   0  0  2  0  0  0
  -32.3575  -18.8072   19.5046 C   0  0  0  0  0  0
  -28.2163  -21.5387   20.9279 N   0  0  0  0  0  0
  -30.0076  -15.7285   20.7195 N   0  0  0  0  0  0
  -27.5231  -24.2397   21.5110 O   0  0  0  0  0  0
  -29.4741  -19.4478   20.9906 O   0  0  0  0  0  0
  -31.4576  -12.4245   19.1583 H   0  0  0  0  0  0
  -30.3000  -11.3651   19.9108 H   0  0  0  0  0  0
  -29.7545  -11.7316   17.4753 H   0  0  0  0  0  0
  -29.6575  -13.4530   17.7409 H   0  0  0  0  0  0
  -27.8492  -11.2918   18.8703 H   0  0  0  0  0  0
  -27.3691  -12.5717   17.7879 H   0  0  0  0  0  0
  -27.6564  -14.2565   19.4952 H   0  0  0  0  0  0
  -28.6790  -12.1152   21.4210 H   0  0  0  0  0  0
  -28.4531  -13.8034   21.8008 H   0  0  0  0  0  0
  -25.2772   -9.5682   22.4749 H   0  0  0  0  0  0
  -24.0007   -7.4632   22.7460 H   0  0  0  0  0  0
  -21.0838   -8.8769   19.8951 H   0  0  0  0  0  0
  -22.3697  -10.9669   19.6157 H   0  0  0  0  0  0
  -21.2016   -7.6152   23.9730 H   0  0  0  0  0  0
  -21.1480   -6.0523   25.9085 H   0  0  0  0  0  0
  -22.0598   -2.7614   23.2836 H   0  0  0  0  0  0
  -22.4082  -11.9909   22.4837 H   0  0  0  0  0  0
  -21.1069  -13.1244   22.2603 H   0  0  0  0  0  0
  -24.6511  -15.8437   20.5299 H   0  0  0  0  0  0
  -26.2692  -15.6364   20.0936 H   0  0  0  0  0  0
  -26.7146  -32.5485   23.1114 H   0  0  0  0  0  0
  -25.0059  -33.9736   25.0429 H   0  0  0  0  0  0
  -22.7009  -31.3044   21.4043 H   0  0  0  0  0  0
  -23.3732  -35.9645   23.3308 H   0  0  0  0  0  0
  -24.3575  -36.8911   22.2051 H   0  0  0  0  0  0
  -23.7252  -37.6509   23.6655 H   0  0  0  0  0  0
  -26.0668  -31.5739   20.5960 H   0  0  0  0  0  0
  -26.8278  -30.8613   21.9895 H   0  0  0  0  0  0
  -28.0997  -29.0359   21.1746 H   0  0  0  0  0  0
  -25.9852  -25.9295   19.0343 H   0  0  0  0  0  0
  -23.9677  -27.2897   19.0369 H   0  0  0  0  0  0
  -23.7373  -30.5938   19.4015 H   0  0  0  0  0  0
  -22.7425  -29.2458   19.8589 H   0  0  0  0  0  0
  -25.1286  -36.1938   25.0819 H   0  0  0  0  0  0
  -20.9966  -28.3246   24.1424 H   0  0  0  0  0  0
  -20.5664  -26.2279   23.3611 H   0  0  0  0  0  0
  -21.6632  -26.7437   22.1212 H   0  0  0  0  0  0
  -19.6893  -25.6304   21.1237 H   0  0  0  0  0  0
  -19.6676  -27.3203   20.6747 H   0  0  0  0  0  0
  -17.4187  -26.6675   21.4039 H   0  0  0  0  0  0
  -18.0320  -26.0082   22.9034 H   0  0  0  0  0  0
  -19.7937  -30.7261   24.2286 H   0  0  0  0  0  0
  -17.5019  -31.6271   24.5163 H   0  0  0  0  0  0
  -15.5351  -30.3000   23.7644 H   0  0  0  0  0  0
  -15.8667  -28.0835   22.7052 H   0  0  0  0  0  0
  -24.5903  -30.7086   25.7811 H   0  0  0  0  0  0
  -24.8957  -32.2905   26.4893 H   0  0  0  0  0  0
  -25.8094  -30.8919   27.0224 H   0  0  0  0  0  0
  -26.2872  -29.6788   24.1153 H   0  0  0  0  0  0
  -27.4035  -29.7248   25.4604 H   0  0  0  0  0  0
  -27.8730  -30.4306   23.9311 H   0  0  0  0  0  0
  -27.2636  -33.3609   26.2079 H   0  0  0  0  0  0
  -28.3854  -32.6918   25.0326 H   0  0  0  0  0  0
  -28.0713  -31.8451   26.5404 H   0  0  0  0  0  0
  -28.2599  -38.0096   24.7497 H   0  0  0  0  0  0
  -28.1064  -36.2626   24.6303 H   0  0  0  0  0  0
  -27.2300  -37.1472   25.8873 H   0  0  0  0  0  0
  -20.9324  -29.8764   21.6938 H   0  0  0  0  0  0
  -26.0167  -38.2851   24.1408 H   0  0  0  0  0  0
  -27.8231  -17.2803   19.1670 H   0  0  0  0  0  0
  -26.6546  -19.7560   19.3223 H   0  0  0  0  0  0
  -32.0665  -20.5477   18.2093 H   0  0  0  0  0  0
  -30.5785  -19.9834   18.9031 H   0  0  0  0  0  0
  -31.3162  -19.0848   17.5962 H   0  0  0  0  0  0
  -33.1858  -20.5245   20.5800 H   0  0  0  0  0  0
  -33.2950  -19.0181   21.4735 H   0  0  0  0  0  0
  -31.7699  -19.8647   21.3554 H   0  0  0  0  0  0
  -34.2174  -19.4889   18.5547 H   0  0  0  0  0  0
  -33.5988  -17.9841   17.8905 H   0  0  0  0  0  0
  -34.4004  -17.9935   19.4526 H   0  0  0  0  0  0
  -29.7542  -22.6653   20.0326 H   0  0  0  0  0  0
  -28.3350  -22.4668   19.0318 H   0  0  0  0  0  0
  -27.8958  -25.2236   18.6182 H   0  0  0  0  0  0
  -29.5224  -25.1707   19.2083 H   0  0  0  0  0  0
  -31.5287  -16.9393   18.8295 H   0  0  0  0  0  0
  -32.5436  -16.8449   20.2467 H   0  0  0  0  0  0
  -30.8021  -17.3547   21.7327 H   0  0  0  0  0  0
  -27.2467  -21.7028   21.1867 H   0  0  0  0  0  0
  -29.0277  -15.6000   20.9179 H   0  0  0  0  0  0
  1 25  1  0  0  0
  1 30  2  0  0  0
  1 85  1  0  0  0
  2  3  1  0  0  0
  2 25  1  0  0  0
  2 88  1  0  0  0
  2 89  1  0  0  0
  3  4  1  0  0  0
  3 90  1  0  0  0
  3 91  1  0  0  0
  4  5  1  0  0  0
  4 92  1  0  0  0
  4 93  1  0  0  0
  5  6  1  0  0  0
  5 26  1  0  0  0
  5 94  1  0  0  0
  6 25  1  0  0  0
  6 95  1  0  0  0
  6 96  1  0  0  0
  7  8  2  0  0  0
  7 26  1  0  0  0
  7 29  1  0  0  0
  8  9  1  0  0  0
  8 22  1  0  0  0
  9 10  1  0  0  0
  9 27  2  0  0  0
 10 11  2  0  0  0
 10 15  1  0  0  0
 11 12  1  0  0  0
 11 97  1  0  0  0
 12 13  2  0  0  0
 12 98  1  0  0  0
 13 14  1  0  0  0
 13 31  1  0  0  0
 14 15  2  0  0  0
 14 99  1  0  0  0
 15100  1  0  0  0
 16 17  2  0  0  0
 16 21  1  0  0  0
 16 31  1  0  0  0
 17 18  1  0  0  0
 17101  1  0  0  0
 18 19  2  0  0  0
 18102  1  0  0  0
 19 20  1  0  0  0
 19 24  1  0  0  0
 20 21  2  0  0  0
 20103  1  0  0  0
 21 23  1  0  0  0
 22 28  1  0  0  0
 22 32  2  0  0  0
 26 27  1  0  0  0
 28104  1  0  0  0
 28105  1  0  0  0
 29106  1  0  0  0
 29107  1  0  0  0
 33 34  1  0  0  0
 33 66  1  0  0  0
 33 70  2  0  0  0
 34 36  1  0  0  0
 34 59  1  0  0  0
 34108  1  0  0  0
 35 44  2  0  0  0
 35 45  1  0  0  0
 35 68  1  0  0  0
 36 56  1  0  0  0
 36109  1  0  0  0
 37 39  1  0  0  0
 37 47  1  0  0  0
 37 66  1  0  0  0
 37110  1  0  0  0
 38 43  2  0  0  0
 38 46  1  0  0  0
 38 47  1  0  0  0
 39 64  1  0  0  0
 39 67  2  0  0  0
 40 52  1  0  0  0
 40 53  2  0  0  0
 40 58  1  0  0  0
 41111  1  0  0  0
 41112  1  0  0  0
 41113  1  0  0  0
 41 48  1  0  0  0
 42 43  1  0  0  0
 42 66  1  0  0  0
 42114  1  0  0  0
 42115  1  0  0  0
 43 44  1  0  0  0
 44116  1  0  0  0
 45 46  2  0  0  0
 45117  1  0  0  0
 46118  1  0  0  0
 47119  1  0  0  0
 47120  1  0  0  0
 48 56  1  0  0  0
 48 65  1  0  0  0
 48121  1  0  0  0
 49 50  1  0  0  0
 49 53  1  0  0  0
 49 64  1  0  0  0
 49122  1  0  0  0
 50 51  1  0  0  0
 50123  1  0  0  0
 50124  1  0  0  0
 51 52  1  0  0  0
 51125  1  0  0  0
 51126  1  0  0  0
 52127  1  0  0  0
 52128  1  0  0  0
 53 54  1  0  0  0
 54 55  2  0  0  0
 54129  1  0  0  0
 55 57  1  0  0  0
 55130  1  0  0  0
 56 69  2  0  0  0
 57 58  2  0  0  0
 57131  1  0  0  0
 58132  1  0  0  0
 59 60  1  0  0  0
 59 61  1  0  0  0
 59 62  1  0  0  0
 60133  1  0  0  0
 60134  1  0  0  0
 60135  1  0  0  0
 61136  1  0  0  0
 61137  1  0  0  0
 61138  1  0  0  0
 62139  1  0  0  0
 62140  1  0  0  0
 62141  1  0  0  0
 63 65  1  0  0  0
 63142  1  0  0  0
 63143  1  0  0  0
 63144  1  0  0  0
 64145  1  0  0  0
 65146  1  0  0  0
 68 80  1  0  0  0
 71 72  1  0  0  0
 71 73  2  0  0  0
 71147  1  0  0  0
 72 74  2  0  0  0
 72148  1  0  0  0
 73 82  1  0  0  0
 73 87  1  0  0  0
 74 84  1  0  0  0
 74 87  1  0  0  0
 75 79  1  0  0  0
 75 80  1  0  0  0
 75 86  2  0  0  0
 76149  1  0  0  0
 76150  1  0  0  0
 76151  1  0  0  0
 76 83  1  0  0  0
 77 83  1  0  0  0
 77152  1  0  0  0
 77153  1  0  0  0
 77154  1  0  0  0
 78 83  1  0  0  0
 78155  1  0  0  0
 78156  1  0  0  0
 78157  1  0  0  0
 79 84  1  0  0  0
 79158  1  0  0  0
 79159  1  0  0  0
 80160  1  0  0  0
 80161  1  0  0  0
 81 83  1  0  0  0
 81162  1  0  0  0
 81163  1  0  0  0
 81 82  1  0  0  0
 82 85  1  0  0  0
 82164  1  0  0  0
 84165  1  0  0  0
 85166  1  0  0  0
M  ISO  4   1 100  68 101  80 101  85 100
M  END
> <chiral flag>
0

> <version>
0

> <s_m_source_file>
/data/baiqing/PycharmProjects/Reinvent-master-3.2/result/LINK_invent/BTK/process_docking_weight1_custom_product_contain_oxygen_bond_distance_aromatic_linkinvent_7_9_3/rearranged_h_0173.sdf

> <i_m_source_file_index>
77

> <r_mmod_Potential_Energy-OPLS-2005>
-23.1178035736084

> <r_mmod_Stretch_Energy-OPLS-2005>
61.6152610778809

> <r_mmod_Bend_Energy-OPLS-2005>
152.399383544922

> <r_mmod_Torsional_Energy-OPLS-2005>
220.296249389648

> <r_mmod_Improper_Torsional_Energy-OPLS-2005>
9.9441032409668

> <r_mmod_Van_der_Waal_Energy-OPLS-2005>
128.104553222656

> <r_mmod_Electrostatic_Energy-OPLS-2005>
-390.461273193359

> <r_mmod_Solvation_Energy-OPLS-2005>
-239.835006713867

> <b_mmod_Minimization_Converged-OPLS-2005>
0

> <r_mmod_RMS_Derivative-OPLS-2005>
1.54257047176361

$$$$
77
                    3D
 Structure written by MMmdl.
163171  0  0  1  0            999 V2000
  -30.7115  -14.4697   20.5680 C   0  0  0  0  0  0
  -30.4158  -12.3111   19.4129 C   0  0  0  0  0  0
  -29.4862  -12.5047   18.1985 C   0  0  0  0  0  0
  -28.0069  -12.3728   18.6127 C   0  0  0  0  0  0
  -27.6576  -13.2124   19.8709 C   0  0  2  0  0  0
  -28.7020  -13.0015   20.9889 C   0  0  0  0  0  0
  -25.2570  -13.8182   20.5697 C   0  0  0  0  0  0
  -24.1828  -13.0448   20.9179 C   0  0  0  0  0  0
  -24.6392  -11.6916   20.8742 C   0  0  0  0  0  0
  -23.9067  -10.4295   21.0407 C   0  0  0  0  0  0
  -24.3619   -9.4208   21.9184 C   0  0  0  0  0  0
  -23.6293   -8.2247   22.0751 C   0  0  0  0  0  0
  -22.4278   -8.0283   21.3544 C   0  0  0  0  0  0
  -21.9913   -9.0258   20.4646 C   0  0  0  0  0  0
  -22.7241  -10.2134   20.3053 C   0  0  0  0  0  0
  -21.6852   -6.0739   22.5283 C   0  0  0  0  0  0
  -21.4013   -6.5643   23.8215 C   0  0  0  0  0  0
  -21.3659   -5.6793   24.9178 C   0  0  0  0  0  0
  -21.6043   -4.3053   24.7232 C   0  0  0  0  0  0
  -21.8820   -3.8145   23.4344 C   0  0  0  0  0  0
  -21.9195   -4.6963   22.3401 C   0  0  0  0  0  0
  -22.7848  -13.5240   21.1848 C   0  0  0  0  0  0
  -22.1660   -4.2153   21.0976 F   0  0  0  0  0  0
  -21.5631   -3.4536   25.7741 F   0  0  0  0  0  0
  -30.0280  -13.3034   20.4268 N   0  0  0  0  0  0
  -26.3005  -12.9361   20.3373 N   0  0  0  0  0  0
  -25.9320  -11.6515   20.5773 N   0  0  0  0  0  0
  -22.0497  -12.8221   22.0406 N   0  0  0  0  0  0
  -25.4285  -15.1899   20.4110 N   0  0  0  0  0  0
  -31.8453  -14.6336   20.1102 O   0  0  0  0  0  0
  -21.6639   -6.8879   21.4240 O   0  0  0  0  0  0
  -22.3526  -14.5549   20.6708 O   0  0  0  0  0  0
  -24.6153  -31.8681   23.2078 C   0  0  0  0  0  0
  -25.9043  -32.4831   23.8381 C   0  0  1  0  0  0
  -27.2360  -27.4302   20.0914 C   0  0  0  0  0  0
  -25.5898  -33.8629   24.2312 N   0  0  0  0  0  0
  -23.4013  -30.4923   21.5485 C   0  0  2  0  0  0
  -24.8450  -28.9548   20.1126 C   0  0  0  0  0  0
  -22.7405  -29.4668   22.4979 C   0  0  0  0  0  0
  -18.0268  -28.1380   22.8490 C   0  0  0  0  0  0
  -24.1481  -36.7303   23.2639 C   0  0  0  0  0  0
  -25.9284  -30.8348   21.3574 C   0  0  0  0  0  0
  -26.0034  -29.4676   20.7056 C   0  0  0  0  0  0
  -27.1978  -28.7130   20.6875 C   0  0  0  0  0  0
  -26.0537  -26.9278   19.5030 C   0  0  0  0  0  0
  -24.8654  -27.6850   19.5097 C   0  0  0  0  0  0
  -23.6087  -29.8251   20.1622 C   0  0  0  0  0  0
  -25.4105  -36.3112   24.0331 C   0  0  1  0  0  0
  -20.5856  -28.3670   23.1307 C   0  0  2  0  0  0
  -20.6764  -26.9409   22.5410 C   0  0  0  0  0  0
  -19.5751  -26.6383   21.5208 C   0  0  0  0  0  0
  -18.1920  -26.7924   22.1611 C   0  0  0  0  0  0
  -19.1517  -28.8839   23.2899 C   0  0  0  0  0  0
  -18.9459  -30.1444   23.8921 C   0  0  0  0  0  0
  -17.6468  -30.6596   24.0569 C   0  0  0  0  0  0
  -25.9035  -34.9484   23.5113 C   0  0  0  0  0  0
  -16.5355  -29.9106   23.6328 C   0  0  0  0  0  0
  -16.7259  -28.6514   23.0357 C   0  0  0  0  0  0
  -26.4475  -31.6617   25.0716 C   0  0  0  0  0  0
  -25.3745  -31.3724   26.1471 C   0  0  0  0  0  0
  -27.0305  -30.3064   24.6068 C   0  0  0  0  0  0
  -27.6058  -32.4343   25.7474 C   0  0  0  0  0  0
  -27.5582  -37.1793   24.8466 C   0  0  0  0  0  0
  -21.4133  -29.3047   22.3720 N   0  0  0  0  0  0
  -26.4285  -37.3803   23.9427 N   0  0  0  0  0  0
  -24.6667  -31.0800   22.0965 N   0  0  0  0  0  0
  -23.4178  -28.8204   23.3012 O   0  0  0  0  0  0
  -28.4383  -26.7478   20.1305 O   0  0  0  0  0  0
  -26.5600  -34.8943   22.4674 O   0  0  0  0  0  0
  -23.5345  -32.1428   23.7477 O   0  0  0  0  0  0
  -28.1792  -19.8020   21.6567 C   0  0  0  0  0  0
  -30.1520  -18.7722   19.9505 C   0  0  0  0  0  0
  -28.7692  -18.5473   21.9446 C   0  0  0  0  0  0
  -29.7982  -18.0373   21.1066 C   0  0  0  0  0  0
  -28.5919  -20.5615   20.5398 C   0  0  0  0  0  0
  -29.5561  -20.0196   19.6645 C   0  0  0  0  0  0
  -28.4935  -23.0002   20.7996 C   0  0  0  0  0  0
  -28.9539  -18.3285   24.4652 C   0  0  0  0  0  0
  -28.6384  -25.2293   18.1878 C   0  0  0  0  0  0
  -28.2966  -17.8027   23.1840 C   0  0  0  0  0  0
  -30.6227  -16.7951   21.4755 C   0  0  0  0  0  0
  -27.7485  -24.3128   20.4650 C   0  0  0  0  0  0
  -28.6097  -25.3768   19.7187 C   0  0  2  0  0  0
  -28.0272  -21.8447   20.2883 N   0  0  0  0  0  0
  -30.0410  -15.4862   21.1424 N   0  0  0  0  0  0
  -29.4719  -23.0354   21.5517 O   0  0  0  0  0  0
  -29.9350  -20.7108   18.5610 F   0  0  0  0  0  0
  -31.4600  -12.4063   19.1078 H   0  0  0  0  0  0
  -30.3158  -11.3025   19.8181 H   0  0  0  0  0  0
  -29.7216  -11.7750   17.4224 H   0  0  0  0  0  0
  -29.6563  -13.4872   17.7558 H   0  0  0  0  0  0
  -27.8083  -11.3172   18.8023 H   0  0  0  0  0  0
  -27.3588  -12.6574   17.7830 H   0  0  0  0  0  0
  -27.6979  -14.2605   19.5717 H   0  0  0  0  0  0
  -28.6814  -11.9684   21.3386 H   0  0  0  0  0  0
  -28.4685  -13.6104   21.8635 H   0  0  0  0  0  0
  -25.2769   -9.5687   22.4751 H   0  0  0  0  0  0
  -24.0011   -7.4635   22.7466 H   0  0  0  0  0  0
  -21.0848   -8.8773   19.8946 H   0  0  0  0  0  0
  -22.3706  -10.9673   19.6155 H   0  0  0  0  0  0
  -21.1998   -7.6152   23.9724 H   0  0  0  0  0  0
  -21.1481   -6.0521   25.9084 H   0  0  0  0  0  0
  -22.0595   -2.7608   23.2847 H   0  0  0  0  0  0
  -22.4112  -11.9879   22.4783 H   0  0  0  0  0  0
  -21.1114  -13.1238   22.2626 H   0  0  0  0  0  0
  -24.6633  -15.8463   20.5239 H   0  0  0  0  0  0
  -26.2837  -15.6314   20.0961 H   0  0  0  0  0  0
  -26.7113  -32.5549   23.1146 H   0  0  0  0  0  0
  -25.0116  -33.9803   25.0500 H   0  0  0  0  0  0
  -22.6908  -31.3105   21.4100 H   0  0  0  0  0  0
  -23.3756  -35.9625   23.3310 H   0  0  0  0  0  0
  -24.3580  -36.8914   22.2055 H   0  0  0  0  0  0
  -23.7215  -37.6495   23.6651 H   0  0  0  0  0  0
  -26.0385  -31.6004   20.5872 H   0  0  0  0  0  0
  -26.8156  -30.8890   21.9764 H   0  0  0  0  0  0
  -28.0955  -29.1103   21.1395 H   0  0  0  0  0  0
  -26.0229  -25.9570   19.0376 H   0  0  0  0  0  0
  -23.9722  -27.2819   19.0521 H   0  0  0  0  0  0
  -23.7219  -30.6030   19.4055 H   0  0  0  0  0  0
  -22.7300  -29.2516   19.8618 H   0  0  0  0  0  0
  -25.1273  -36.1963   25.0814 H   0  0  0  0  0  0
  -20.9960  -28.3235   24.1424 H   0  0  0  0  0  0
  -20.5666  -26.2288   23.3593 H   0  0  0  0  0  0
  -21.6635  -26.7452   22.1213 H   0  0  0  0  0  0
  -19.6925  -25.6295   21.1246 H   0  0  0  0  0  0
  -19.6702  -27.3194   20.6734 H   0  0  0  0  0  0
  -17.4198  -26.6690   21.4003 H   0  0  0  0  0  0
  -18.0315  -26.0046   22.8983 H   0  0  0  0  0  0
  -19.7941  -30.7241   24.2308 H   0  0  0  0  0  0
  -17.5036  -31.6291   24.5148 H   0  0  0  0  0  0
  -15.5364  -30.3040   23.7624 H   0  0  0  0  0  0
  -15.8645  -28.0845   22.7077 H   0  0  0  0  0  0
  -24.5934  -30.7043   25.7819 H   0  0  0  0  0  0
  -24.8925  -32.2889   26.4897 H   0  0  0  0  0  0
  -25.8104  -30.8926   27.0246 H   0  0  0  0  0  0
  -26.2835  -29.6831   24.1142 H   0  0  0  0  0  0
  -27.4126  -29.7283   25.4494 H   0  0  0  0  0  0
  -27.8639  -30.4400   23.9166 H   0  0  0  0  0  0
  -27.2678  -33.3654   26.2037 H   0  0  0  0  0  0
  -28.3865  -32.6894   25.0293 H   0  0  0  0  0  0
  -28.0726  -31.8488   26.5404 H   0  0  0  0  0  0
  -28.2572  -38.0119   24.7562 H   0  0  0  0  0  0
  -28.1096  -36.2655   24.6207 H   0  0  0  0  0  0
  -27.2319  -37.1338   25.8873 H   0  0  0  0  0  0
  -20.9286  -29.8789   21.6969 H   0  0  0  0  0  0
  -26.0167  -38.2861   24.1487 H   0  0  0  0  0  0
  -27.4213  -20.1981   22.3177 H   0  0  0  0  0  0
  -30.9241  -18.4041   19.2909 H   0  0  0  0  0  0
  -28.6004  -17.7743   25.3344 H   0  0  0  0  0  0
  -28.7178  -19.3806   24.6270 H   0  0  0  0  0  0
  -30.0387  -18.2331   24.4270 H   0  0  0  0  0  0
  -28.9153  -24.2144   17.9022 H   0  0  0  0  0  0
  -29.3806  -25.9001   17.7533 H   0  0  0  0  0  0
  -27.6810  -25.4504   17.7205 H   0  0  0  0  0  0
  -28.4724  -16.7326   23.0847 H   0  0  0  0  0  0
  -27.2132  -17.9083   23.2597 H   0  0  0  0  0  0
  -30.8184  -16.8070   22.5477 H   0  0  0  0  0  0
  -31.6094  -16.9115   21.0231 H   0  0  0  0  0  0
  -27.4318  -24.7304   21.4213 H   0  0  0  0  0  0
  -26.8324  -24.0939   19.9176 H   0  0  0  0  0  0
  -29.6402  -25.1973   20.0297 H   0  0  0  0  0  0
  -27.2541  -21.8866   19.6388 H   0  0  0  0  0  0
  -29.0925  -15.3097   21.4327 H   0  0  0  0  0  0
  1 25  1  0  0  0
  1 30  2  0  0  0
  1 85  1  0  0  0
  2  3  1  0  0  0
  2 25  1  0  0  0
  2 88  1  0  0  0
  2 89  1  0  0  0
  3  4  1  0  0  0
  3 90  1  0  0  0
  3 91  1  0  0  0
  4  5  1  0  0  0
  4 92  1  0  0  0
  4 93  1  0  0  0
  5  6  1  0  0  0
  5 26  1  0  0  0
  5 94  1  0  0  0
  6 25  1  0  0  0
  6 95  1  0  0  0
  6 96  1  0  0  0
  7  8  2  0  0  0
  7 26  1  0  0  0
  7 29  1  0  0  0
  8  9  1  0  0  0
  8 22  1  0  0  0
  9 10  1  0  0  0
  9 27  2  0  0  0
 10 11  2  0  0  0
 10 15  1  0  0  0
 11 12  1  0  0  0
 11 97  1  0  0  0
 12 13  2  0  0  0
 12 98  1  0  0  0
 13 14  1  0  0  0
 13 31  1  0  0  0
 14 15  2  0  0  0
 14 99  1  0  0  0
 15100  1  0  0  0
 16 17  2  0  0  0
 16 21  1  0  0  0
 16 31  1  0  0  0
 17 18  1  0  0  0
 17101  1  0  0  0
 18 19  2  0  0  0
 18102  1  0  0  0
 19 20  1  0  0  0
 19 24  1  0  0  0
 20 21  2  0  0  0
 20103  1  0  0  0
 21 23  1  0  0  0
 22 28  1  0  0  0
 22 32  2  0  0  0
 26 27  1  0  0  0
 28104  1  0  0  0
 28105  1  0  0  0
 29106  1  0  0  0
 29107  1  0  0  0
 33 34  1  0  0  0
 33 66  1  0  0  0
 33 70  2  0  0  0
 34 36  1  0  0  0
 34 59  1  0  0  0
 34108  1  0  0  0
 35 44  2  0  0  0
 35 45  1  0  0  0
 35 68  1  0  0  0
 36 56  1  0  0  0
 36109  1  0  0  0
 37 39  1  0  0  0
 37 47  1  0  0  0
 37 66  1  0  0  0
 37110  1  0  0  0
 38 43  2  0  0  0
 38 46  1  0  0  0
 38 47  1  0  0  0
 39 64  1  0  0  0
 39 67  2  0  0  0
 40 52  1  0  0  0
 40 53  2  0  0  0
 40 58  1  0  0  0
 41111  1  0  0  0
 41112  1  0  0  0
 41113  1  0  0  0
 41 48  1  0  0  0
 42 43  1  0  0  0
 42 66  1  0  0  0
 42114  1  0  0  0
 42115  1  0  0  0
 43 44  1  0  0  0
 44116  1  0  0  0
 45 46  2  0  0  0
 45117  1  0  0  0
 46118  1  0  0  0
 47119  1  0  0  0
 47120  1  0  0  0
 48 56  1  0  0  0
 48 65  1  0  0  0
 48121  1  0  0  0
 49 50  1  0  0  0
 49 53  1  0  0  0
 49 64  1  0  0  0
 49122  1  0  0  0
 50 51  1  0  0  0
 50123  1  0  0  0
 50124  1  0  0  0
 51 52  1  0  0  0
 51125  1  0  0  0
 51126  1  0  0  0
 52127  1  0  0  0
 52128  1  0  0  0
 53 54  1  0  0  0
 54 55  2  0  0  0
 54129  1  0  0  0
 55 57  1  0  0  0
 55130  1  0  0  0
 56 69  2  0  0  0
 57 58  2  0  0  0
 57131  1  0  0  0
 58132  1  0  0  0
 59 60  1  0  0  0
 59 61  1  0  0  0
 59 62  1  0  0  0
 60133  1  0  0  0
 60134  1  0  0  0
 60135  1  0  0  0
 61136  1  0  0  0
 61137  1  0  0  0
 61138  1  0  0  0
 62139  1  0  0  0
 62140  1  0  0  0
 62141  1  0  0  0
 63 65  1  0  0  0
 63142  1  0  0  0
 63143  1  0  0  0
 63144  1  0  0  0
 64145  1  0  0  0
 65146  1  0  0  0
 68 83  1  0  0  0
 71 73  2  0  0  0
 71 75  1  0  0  0
 71147  1  0  0  0
 72 74  2  0  0  0
 72 76  1  0  0  0
 72148  1  0  0  0
 73 74  1  0  0  0
 73 80  1  0  0  0
 74 81  1  0  0  0
 75 76  2  0  0  0
 75 84  1  0  0  0
 76 87  1  0  0  0
 77 82  1  0  0  0
 77 84  1  0  0  0
 77 86  2  0  0  0
 78 80  1  0  0  0
 78149  1  0  0  0
 78150  1  0  0  0
 78151  1  0  0  0
 79152  1  0  0  0
 79153  1  0  0  0
 79154  1  0  0  0
 79 83  1  0  0  0
 80155  1  0  0  0
 80156  1  0  0  0
 81 85  1  0  0  0
 81157  1  0  0  0
 81158  1  0  0  0
 82 83  1  0  0  0
 82159  1  0  0  0
 82160  1  0  0  0
 83161  1  0  0  0
 84162  1  0  0  0
 85163  1  0  0  0
M  ISO  4   1 100  68 101  83 101  85 100
M  END
> <chiral flag>
0

> <version>
0

> <s_m_source_file>
/data/baiqing/PycharmProjects/Reinvent-master-3.2/result/LINK_invent/BTK/process_docking_weight1_custom_product_contain_oxygen_bond_distance_aromatic_linkinvent_7_9_3/rearranged_h_0173.sdf

> <i_m_source_file_index>
78

> <r_mmod_Potential_Energy-OPLS-2005>
-141.803787231445

> <r_mmod_Stretch_Energy-OPLS-2005>
38.6168327331543

> <r_mmod_Bend_Energy-OPLS-2005>
118.078346252441

> <r_mmod_Torsional_Energy-OPLS-2005>
227.064315795898

> <r_mmod_Improper_Torsional_Energy-OPLS-2005>
3.07122373580933

> <r_mmod_Van_der_Waal_Energy-OPLS-2005>
147.011993408203

> <r_mmod_Electrostatic_Energy-OPLS-2005>
-462.890045166016

> <r_mmod_Solvation_Energy-OPLS-2005>
-226.751586914062

> <b_mmod_Minimization_Converged-OPLS-2005>
0

> <r_mmod_RMS_Derivative-OPLS-2005>
1.74119687080383

$$$$
78
                    3D
 Structure written by MMmdl.
156164  0  0  1  0            999 V2000
  -30.6755  -14.4749   20.5743 C   0  0  0  0  0  0
  -30.4387  -12.3075   19.4170 C   0  0  0  0  0  0
  -29.5007  -12.4861   18.2041 C   0  0  0  0  0  0
  -28.0226  -12.3418   18.6206 C   0  0  0  0  0  0
  -27.6647  -13.1907   19.8695 C   0  0  2  0  0  0
  -28.7053  -12.9625   20.9894 C   0  0  0  0  0  0
  -25.2623  -13.8121   20.5642 C   0  0  0  0  0  0
  -24.1863  -13.0428   20.9145 C   0  0  0  0  0  0
  -24.6385  -11.6880   20.8715 C   0  0  0  0  0  0
  -23.9037  -10.4285   21.0392 C   0  0  0  0  0  0
  -24.3604   -9.4212   21.9172 C   0  0  0  0  0  0
  -23.6287   -8.2247   22.0756 C   0  0  0  0  0  0
  -22.4269   -8.0280   21.3546 C   0  0  0  0  0  0
  -21.9895   -9.0241   20.4638 C   0  0  0  0  0  0
  -22.7213  -10.2122   20.3040 C   0  0  0  0  0  0
  -21.6842   -6.0733   22.5285 C   0  0  0  0  0  0
  -21.4007   -6.5643   23.8216 C   0  0  0  0  0  0
  -21.3655   -5.6797   24.9179 C   0  0  0  0  0  0
  -21.6044   -4.3059   24.7225 C   0  0  0  0  0  0
  -21.8822   -3.8150   23.4348 C   0  0  0  0  0  0
  -21.9195   -4.6964   22.3405 C   0  0  0  0  0  0
  -22.7892  -13.5249   21.1828 C   0  0  0  0  0  0
  -22.1665   -4.2157   21.0978 F   0  0  0  0  0  0
  -21.5630   -3.4539   25.7735 F   0  0  0  0  0  0
  -30.0348  -13.2826   20.4398 N   0  0  0  0  0  0
  -26.3036  -12.9255   20.3314 N   0  0  0  0  0  0
  -25.9304  -11.6433   20.5733 N   0  0  0  0  0  0
  -22.0523  -12.8242   22.0372 N   0  0  0  0  0  0
  -25.4371  -15.1840   20.4058 N   0  0  0  0  0  0
  -31.8095  -14.6839   20.1348 O   0  0  0  0  0  0
  -21.6641   -6.8873   21.4246 O   0  0  0  0  0  0
  -22.3582  -14.5557   20.6673 O   0  0  0  0  0  0
  -24.6157  -31.8659   23.2104 C   0  0  0  0  0  0
  -25.9038  -32.4816   23.8401 C   0  0  1  0  0  0
  -27.2456  -27.4344   20.1008 C   0  0  0  0  0  0
  -25.5890  -33.8610   24.2320 N   0  0  0  0  0  0
  -23.4054  -30.4873   21.5506 C   0  0  2  0  0  0
  -24.8566  -28.9482   20.1194 C   0  0  0  0  0  0
  -22.7417  -29.4644   22.5002 C   0  0  0  0  0  0
  -18.0277  -28.1377   22.8462 C   0  0  0  0  0  0
  -24.1493  -36.7314   23.2641 C   0  0  0  0  0  0
  -25.9339  -30.8333   21.3618 C   0  0  0  0  0  0
  -26.0153  -29.4641   20.7137 C   0  0  0  0  0  0
  -27.2148  -28.7143   20.7002 C   0  0  0  0  0  0
  -26.0719  -26.9280   19.5057 C   0  0  0  0  0  0
  -24.8785  -27.6774   19.5149 C   0  0  0  0  0  0
  -23.6173  -29.8143   20.1671 C   0  0  0  0  0  0
  -25.4109  -36.3102   24.0338 C   0  0  1  0  0  0
  -20.5871  -28.3653   23.1312 C   0  0  2  0  0  0
  -20.6771  -26.9391   22.5409 C   0  0  0  0  0  0
  -19.5752  -26.6385   21.5203 C   0  0  0  0  0  0
  -18.1925  -26.7924   22.1606 C   0  0  0  0  0  0
  -19.1526  -28.8830   23.2883 C   0  0  0  0  0  0
  -18.9460  -30.1445   23.8885 C   0  0  0  0  0  0
  -17.6457  -30.6570   24.0559 C   0  0  0  0  0  0
  -25.9035  -34.9462   23.5129 C   0  0  0  0  0  0
  -16.5343  -29.9074   23.6326 C   0  0  0  0  0  0
  -16.7268  -28.6508   23.0311 C   0  0  0  0  0  0
  -26.4465  -31.6602   25.0718 C   0  0  0  0  0  0
  -25.3718  -31.3709   26.1461 C   0  0  0  0  0  0
  -27.0329  -30.3060   24.6092 C   0  0  0  0  0  0
  -27.6045  -32.4316   25.7460 C   0  0  0  0  0  0
  -27.5580  -37.1811   24.8456 C   0  0  0  0  0  0
  -21.4146  -29.3013   22.3715 N   0  0  0  0  0  0
  -26.4298  -37.3780   23.9394 N   0  0  0  0  0  0
  -24.6700  -31.0750   22.1009 N   0  0  0  0  0  0
  -23.4183  -28.8171   23.3041 O   0  0  0  0  0  0
  -28.4036  -26.6922   20.0607 O   0  0  0  0  0  0
  -26.5590  -34.8913   22.4688 O   0  0  0  0  0  0
  -23.5342  -32.1397   23.7490 O   0  0  0  0  0  0
  -31.4774  -18.7961   21.7986 C   0  0  0  0  0  0
  -31.3400  -17.3993   21.6455 C   0  0  0  0  0  0
  -30.4423  -19.6892   21.4218 C   0  0  0  0  0  0
  -30.1481  -16.8590   21.1174 C   0  0  0  0  0  0
  -29.2627  -19.1447   20.8577 C   0  0  0  0  0  0
  -29.1182  -17.7430   20.7172 C   0  0  0  0  0  0
  -30.5799  -21.1601   21.7514 C   0  0  0  0  0  0
  -29.0926  -24.3216   20.2751 C   0  0  0  0  0  0
  -31.5607  -24.0705   20.8403 C   0  0  0  0  0  0
  -28.4061  -25.5437   20.9277 C   0  0  0  0  0  0
  -30.1364  -23.5434   21.1139 C   0  0  2  0  0  0
  -29.9029  -15.4546   21.0801 N   0  0  0  0  0  0
  -30.0731  -22.0796   20.9063 N   0  0  0  0  0  0
  -31.1965  -21.4908   22.7674 O   0  0  0  0  0  0
  -28.8119  -23.9912   19.1177 O   0  0  0  0  0  0
  -28.2402  -19.9534   20.4860 F   0  0  0  0  0  0
  -27.9648  -17.2405   20.2118 F   0  0  0  0  0  0
  -31.4795  -12.4320   19.1100 H   0  0  0  0  0  0
  -30.3672  -11.2940   19.8152 H   0  0  0  0  0  0
  -29.7444  -11.7513   17.4345 H   0  0  0  0  0  0
  -29.6629  -13.4659   17.7512 H   0  0  0  0  0  0
  -27.8449  -11.2857   18.8304 H   0  0  0  0  0  0
  -27.3690  -12.5964   17.7865 H   0  0  0  0  0  0
  -27.7115  -14.2365   19.5659 H   0  0  0  0  0  0
  -28.6869  -11.9216   21.3164 H   0  0  0  0  0  0
  -28.4596  -13.5452   21.8788 H   0  0  0  0  0  0
  -25.2755   -9.5697   22.4736 H   0  0  0  0  0  0
  -24.0005   -7.4638   22.7479 H   0  0  0  0  0  0
  -21.0835   -8.8729   19.8940 H   0  0  0  0  0  0
  -22.3664  -10.9645   19.6146 H   0  0  0  0  0  0
  -21.1992   -7.6148   23.9719 H   0  0  0  0  0  0
  -21.1475   -6.0524   25.9081 H   0  0  0  0  0  0
  -22.0605   -2.7613   23.2841 H   0  0  0  0  0  0
  -22.4143  -11.9915   22.4773 H   0  0  0  0  0  0
  -21.1130  -13.1255   22.2550 H   0  0  0  0  0  0
  -24.6687  -15.8364   20.5143 H   0  0  0  0  0  0
  -26.2928  -15.6299   20.0973 H   0  0  0  0  0  0
  -26.7095  -32.5529   23.1154 H   0  0  0  0  0  0
  -25.0021  -33.9768   25.0453 H   0  0  0  0  0  0
  -22.6927  -31.3019   21.4078 H   0  0  0  0  0  0
  -23.3737  -35.9671   23.3304 H   0  0  0  0  0  0
  -24.3588  -36.8922   22.2057 H   0  0  0  0  0  0
  -23.7266  -37.6527   23.6649 H   0  0  0  0  0  0
  -26.0382  -31.5974   20.5909 H   0  0  0  0  0  0
  -26.8228  -30.8902   21.9781 H   0  0  0  0  0  0
  -28.1120  -29.1139   21.1523 H   0  0  0  0  0  0
  -26.0853  -25.9568   19.0309 H   0  0  0  0  0  0
  -23.9869  -27.2687   19.0584 H   0  0  0  0  0  0
  -23.7256  -30.5858   19.4049 H   0  0  0  0  0  0
  -22.7428  -29.2314   19.8724 H   0  0  0  0  0  0
  -25.1294  -36.1971   25.0835 H   0  0  0  0  0  0
  -20.9943  -28.3228   24.1444 H   0  0  0  0  0  0
  -20.5711  -26.2244   23.3590 H   0  0  0  0  0  0
  -21.6642  -26.7458   22.1186 H   0  0  0  0  0  0
  -19.6914  -25.6311   21.1199 H   0  0  0  0  0  0
  -19.6715  -27.3226   20.6765 H   0  0  0  0  0  0
  -17.4203  -26.6664   21.4000 H   0  0  0  0  0  0
  -18.0310  -26.0088   22.9024 H   0  0  0  0  0  0
  -19.7948  -30.7247   24.2250 H   0  0  0  0  0  0
  -17.5020  -31.6257   24.5156 H   0  0  0  0  0  0
  -15.5343  -30.2949   23.7688 H   0  0  0  0  0  0
  -15.8670  -28.0843   22.6990 H   0  0  0  0  0  0
  -24.5869  -30.7091   25.7763 H   0  0  0  0  0  0
  -24.8938  -32.2883   26.4912 H   0  0  0  0  0  0
  -25.8058  -30.8842   27.0210 H   0  0  0  0  0  0
  -26.2896  -29.6772   24.1179 H   0  0  0  0  0  0
  -27.4147  -29.7335   25.4553 H   0  0  0  0  0  0
  -27.8691  -30.4387   23.9221 H   0  0  0  0  0  0
  -27.2674  -33.3601   26.2072 H   0  0  0  0  0  0
  -28.3835  -32.6896   25.0270 H   0  0  0  0  0  0
  -28.0732  -31.8413   26.5340 H   0  0  0  0  0  0
  -28.2596  -38.0114   24.7496 H   0  0  0  0  0  0
  -28.1090  -36.2639   24.6298 H   0  0  0  0  0  0
  -27.2292  -37.1463   25.8863 H   0  0  0  0  0  0
  -20.9306  -29.8715   21.6922 H   0  0  0  0  0  0
  -26.0188  -38.2862   24.1393 H   0  0  0  0  0  0
  -32.3818  -19.1795   22.2501 H   0  0  0  0  0  0
  -32.1346  -16.7459   21.9812 H   0  0  0  0  0  0
  -32.2919  -23.6128   21.5051 H   0  0  0  0  0  0
  -31.6205  -25.1486   20.9985 H   0  0  0  0  0  0
  -31.8759  -23.8681   19.8158 H   0  0  0  0  0  0
  -28.9239  -25.8018   21.8514 H   0  0  0  0  0  0
  -27.3910  -25.2536   21.2008 H   0  0  0  0  0  0
  -29.9064  -23.7310   22.1653 H   0  0  0  0  0  0
  -28.9553  -15.1724   21.2778 H   0  0  0  0  0  0
  -29.5652  -21.7532   20.0939 H   0  0  0  0  0  0
  1 25  1  0  0  0
  1 30  2  0  0  0
  1 82  1  0  0  0
  2  3  1  0  0  0
  2 25  1  0  0  0
  2 88  1  0  0  0
  2 89  1  0  0  0
  3  4  1  0  0  0
  3 90  1  0  0  0
  3 91  1  0  0  0
  4  5  1  0  0  0
  4 92  1  0  0  0
  4 93  1  0  0  0
  5  6  1  0  0  0
  5 26  1  0  0  0
  5 94  1  0  0  0
  6 25  1  0  0  0
  6 95  1  0  0  0
  6 96  1  0  0  0
  7  8  2  0  0  0
  7 26  1  0  0  0
  7 29  1  0  0  0
  8  9  1  0  0  0
  8 22  1  0  0  0
  9 10  1  0  0  0
  9 27  2  0  0  0
 10 11  2  0  0  0
 10 15  1  0  0  0
 11 12  1  0  0  0
 11 97  1  0  0  0
 12 13  2  0  0  0
 12 98  1  0  0  0
 13 14  1  0  0  0
 13 31  1  0  0  0
 14 15  2  0  0  0
 14 99  1  0  0  0
 15100  1  0  0  0
 16 17  2  0  0  0
 16 21  1  0  0  0
 16 31  1  0  0  0
 17 18  1  0  0  0
 17101  1  0  0  0
 18 19  2  0  0  0
 18102  1  0  0  0
 19 20  1  0  0  0
 19 24  1  0  0  0
 20 21  2  0  0  0
 20103  1  0  0  0
 21 23  1  0  0  0
 22 28  1  0  0  0
 22 32  2  0  0  0
 26 27  1  0  0  0
 28104  1  0  0  0
 28105  1  0  0  0
 29106  1  0  0  0
 29107  1  0  0  0
 33 34  1  0  0  0
 33 66  1  0  0  0
 33 70  2  0  0  0
 34 36  1  0  0  0
 34 59  1  0  0  0
 34108  1  0  0  0
 35 44  2  0  0  0
 35 45  1  0  0  0
 35 68  1  0  0  0
 36 56  1  0  0  0
 36109  1  0  0  0
 37 39  1  0  0  0
 37 47  1  0  0  0
 37 66  1  0  0  0
 37110  1  0  0  0
 38 43  2  0  0  0
 38 46  1  0  0  0
 38 47  1  0  0  0
 39 64  1  0  0  0
 39 67  2  0  0  0
 40 52  1  0  0  0
 40 53  2  0  0  0
 40 58  1  0  0  0
 41111  1  0  0  0
 41112  1  0  0  0
 41113  1  0  0  0
 41 48  1  0  0  0
 42 43  1  0  0  0
 42 66  1  0  0  0
 42114  1  0  0  0
 42115  1  0  0  0
 43 44  1  0  0  0
 44116  1  0  0  0
 45 46  2  0  0  0
 45117  1  0  0  0
 46118  1  0  0  0
 47119  1  0  0  0
 47120  1  0  0  0
 48 56  1  0  0  0
 48 65  1  0  0  0
 48121  1  0  0  0
 49 50  1  0  0  0
 49 53  1  0  0  0
 49 64  1  0  0  0
 49122  1  0  0  0
 50 51  1  0  0  0
 50123  1  0  0  0
 50124  1  0  0  0
 51 52  1  0  0  0
 51125  1  0  0  0
 51126  1  0  0  0
 52127  1  0  0  0
 52128  1  0  0  0
 53 54  1  0  0  0
 54 55  2  0  0  0
 54129  1  0  0  0
 55 57  1  0  0  0
 55130  1  0  0  0
 56 69  2  0  0  0
 57 58  2  0  0  0
 57131  1  0  0  0
 58132  1  0  0  0
 59 60  1  0  0  0
 59 61  1  0  0  0
 59 62  1  0  0  0
 60133  1  0  0  0
 60134  1  0  0  0
 60135  1  0  0  0
 61136  1  0  0  0
 61137  1  0  0  0
 61138  1  0  0  0
 62139  1  0  0  0
 62140  1  0  0  0
 62141  1  0  0  0
 63 65  1  0  0  0
 63142  1  0  0  0
 63143  1  0  0  0
 63144  1  0  0  0
 64145  1  0  0  0
 65146  1  0  0  0
 68 80  1  0  0  0
 71 72  2  0  0  0
 71 73  1  0  0  0
 71147  1  0  0  0
 72 74  1  0  0  0
 72148  1  0  0  0
 73 75  2  0  0  0
 73 77  1  0  0  0
 74 76  2  0  0  0
 74 82  1  0  0  0
 75 76  1  0  0  0
 75 86  1  0  0  0
 76 87  1  0  0  0
 77 83  1  0  0  0
 77 84  2  0  0  0
 78 80  1  0  0  0
 78 81  1  0  0  0
 78 85  2  0  0  0
 79149  1  0  0  0
 79150  1  0  0  0
 79151  1  0  0  0
 79 81  1  0  0  0
 80152  1  0  0  0
 80153  1  0  0  0
 81 83  1  0  0  0
 81154  1  0  0  0
 82155  1  0  0  0
 83156  1  0  0  0
M  ISO  4   1 100  68 101  80 101  82 100
M  END
> <chiral flag>
0

> <version>
0

> <s_m_source_file>
/data/baiqing/PycharmProjects/Reinvent-master-3.2/result/LINK_invent/BTK/process_docking_weight1_custom_product_contain_oxygen_bond_distance_aromatic_linkinvent_7_9_3/rearranged_h_0173.sdf

> <i_m_source_file_index>
79

> <r_mmod_Potential_Energy-OPLS-2005>
-82.5118103027344

> <r_mmod_Stretch_Energy-OPLS-2005>
38.7156639099121

> <r_mmod_Bend_Energy-OPLS-2005>
92.5895767211914

> <r_mmod_Torsional_Energy-OPLS-2005>
270.083831787109

> <r_mmod_Improper_Torsional_Energy-OPLS-2005>
4.97339630126953

> <r_mmod_Van_der_Waal_Energy-OPLS-2005>
149.182586669922

> <r_mmod_Electrostatic_Energy-OPLS-2005>
-428.253173828125

> <r_mmod_Solvation_Energy-OPLS-2005>
-222.562774658203

> <b_mmod_Minimization_Converged-OPLS-2005>
0

> <r_mmod_RMS_Derivative-OPLS-2005>
2.42672753334045

$$$$
79
                    3D
 Structure written by MMmdl.
149157  0  0  1  0            999 V2000
  -30.5935  -14.8241   20.4279 C   0  0  0  0  0  0
  -30.4339  -12.5012   19.5030 C   0  0  0  0  0  0
  -29.5205  -12.5257   18.2577 C   0  0  0  0  0  0
  -28.0514  -12.3260   18.6681 C   0  0  0  0  0  0
  -27.6403  -13.2406   19.8514 C   0  0  2  0  0  0
  -28.6787  -13.2190   20.9954 C   0  0  0  0  0  0
  -25.2491  -13.8201   20.5689 C   0  0  0  0  0  0
  -24.1781  -13.0452   20.9210 C   0  0  0  0  0  0
  -24.6374  -11.6933   20.8723 C   0  0  0  0  0  0
  -23.9051  -10.4298   21.0383 C   0  0  0  0  0  0
  -24.3606   -9.4216   21.9167 C   0  0  0  0  0  0
  -23.6291   -8.2246   22.0743 C   0  0  0  0  0  0
  -22.4267   -8.0275   21.3544 C   0  0  0  0  0  0
  -21.9877   -9.0246   20.4653 C   0  0  0  0  0  0
  -22.7206  -10.2133   20.3056 C   0  0  0  0  0  0
  -21.6856   -6.0721   22.5272 C   0  0  0  0  0  0
  -21.4014   -6.5621   23.8208 C   0  0  0  0  0  0
  -21.3669   -5.6783   24.9168 C   0  0  0  0  0  0
  -21.6046   -4.3045   24.7218 C   0  0  0  0  0  0
  -21.8818   -3.8137   23.4342 C   0  0  0  0  0  0
  -21.9199   -4.6952   22.3396 C   0  0  0  0  0  0
  -22.7806  -13.5246   21.1878 C   0  0  0  0  0  0
  -22.1663   -4.2147   21.0970 F   0  0  0  0  0  0
  -21.5644   -3.4531   25.7724 F   0  0  0  0  0  0
  -29.9804  -13.5811   20.4185 N   0  0  0  0  0  0
  -26.2928  -12.9430   20.3260 N   0  0  0  0  0  0
  -25.9310  -11.6571   20.5715 N   0  0  0  0  0  0
  -22.0436  -12.8249   22.0431 N   0  0  0  0  0  0
  -25.4188  -15.1917   20.4097 N   0  0  0  0  0  0
  -31.7787  -14.8894   20.0844 O   0  0  0  0  0  0
  -21.6655   -6.8861   21.4235 O   0  0  0  0  0  0
  -22.3504  -14.5562   20.6734 O   0  0  0  0  0  0
  -24.6380  -31.8508   23.1961 C   0  0  0  0  0  0
  -25.9179  -32.4729   23.8320 C   0  0  1  0  0  0
  -27.2126  -27.1947   20.1221 C   0  0  0  0  0  0
  -25.5963  -33.8533   24.2243 N   0  0  0  0  0  0
  -23.4389  -30.4750   21.5413 C   0  0  2  0  0  0
  -24.8850  -28.9181   20.1090 C   0  0  0  0  0  0
  -22.7542  -29.4581   22.4884 C   0  0  0  0  0  0
  -18.0307  -28.1395   22.8468 C   0  0  0  0  0  0
  -24.1510  -36.7286   23.2634 C   0  0  0  0  0  0
  -25.9915  -30.7351   21.3948 C   0  0  0  0  0  0
  -26.0589  -29.3534   20.7360 C   0  0  0  0  0  0
  -27.2187  -28.5014   20.7428 C   0  0  0  0  0  0
  -26.0209  -26.8689   19.4317 C   0  0  0  0  0  0
  -24.8744  -27.6863   19.4467 C   0  0  0  0  0  0
  -23.6629  -29.8152   20.1568 C   0  0  0  0  0  0
  -25.4129  -36.3057   24.0320 C   0  0  1  0  0  0
  -20.5913  -28.3725   23.1251 C   0  0  2  0  0  0
  -20.6804  -26.9433   22.5417 C   0  0  0  0  0  0
  -19.5782  -26.6386   21.5218 C   0  0  0  0  0  0
  -18.1954  -26.7941   22.1611 C   0  0  0  0  0  0
  -19.1558  -28.8876   23.2860 C   0  0  0  0  0  0
  -18.9474  -30.1466   23.8899 C   0  0  0  0  0  0
  -17.6472  -30.6595   24.0565 C   0  0  0  0  0  0
  -25.9064  -34.9424   23.5084 C   0  0  0  0  0  0
  -16.5367  -29.9093   23.6324 C   0  0  0  0  0  0
  -16.7287  -28.6511   23.0343 C   0  0  0  0  0  0
  -26.4524  -31.6563   25.0737 C   0  0  0  0  0  0
  -25.3723  -31.3760   26.1447 C   0  0  0  0  0  0
  -27.0345  -30.2948   24.6281 C   0  0  0  0  0  0
  -27.6095  -32.4296   25.7499 C   0  0  0  0  0  0
  -27.5596  -37.1794   24.8446 C   0  0  0  0  0  0
  -21.4244  -29.3052   22.3616 N   0  0  0  0  0  0
  -26.4296  -37.3766   23.9404 N   0  0  0  0  0  0
  -24.7087  -31.0400   22.0993 N   0  0  0  0  0  0
  -23.4200  -28.8101   23.3003 O   0  0  0  0  0  0
  -28.2855  -26.2464   20.1805 O   0  0  0  0  0  0
  -26.5637  -34.8906   22.4651 O   0  0  0  0  0  0
  -23.5512  -32.1383   23.7206 O   0  0  0  0  0  0
  -30.1540  -18.5333   17.9130 C   0  0  0  0  0  0
  -30.1743  -17.3466   18.6640 C   0  0  0  0  0  0
  -29.8535  -19.7646   18.5191 C   0  0  0  0  0  0
  -29.8921  -17.3488   20.0439 C   0  0  0  0  0  0
  -29.5414  -19.8256   19.8981 C   0  0  0  0  0  0
  -28.0869  -24.8169   20.0133 C   0  0  0  0  0  0
  -28.9177  -23.7262   20.2996 C   0  0  0  0  0  0
  -28.5566  -22.2745   19.9682 C   0  0  0  0  0  0
  -29.5751  -18.6041   20.6211 N   0  0  0  0  0  0
  -29.3661  -21.2253   20.4220 N   0  0  0  0  0  0
  -29.8503  -15.9883   20.6854 N   0  0  0  0  0  0
  -27.5358  -22.0055   19.3297 O   0  0  0  0  0  0
  -30.1100  -23.9545   20.8654 O   0  0  0  0  0  0
  -29.9197  -20.8901   17.7620 F   0  0  0  0  0  0
  -31.4769  -12.6199   19.2018 H   0  0  0  0  0  0
  -30.3816  -11.5332   20.0044 H   0  0  0  0  0  0
  -29.8210  -11.7504   17.5510 H   0  0  0  0  0  0
  -29.6283  -13.4793   17.7360 H   0  0  0  0  0  0
  -27.9263  -11.2795   18.9483 H   0  0  0  0  0  0
  -27.3970  -12.4936   17.8137 H   0  0  0  0  0  0
  -27.6254  -14.2520   19.4446 H   0  0  0  0  0  0
  -28.7228  -12.2363   21.4661 H   0  0  0  0  0  0
  -28.3952  -13.9212   21.7813 H   0  0  0  0  0  0
  -25.2737   -9.5720   22.4759 H   0  0  0  0  0  0
  -24.0011   -7.4625   22.7445 H   0  0  0  0  0  0
  -21.0819   -8.8757   19.8948 H   0  0  0  0  0  0
  -22.3635  -10.9667   19.6187 H   0  0  0  0  0  0
  -21.1983   -7.6125   23.9712 H   0  0  0  0  0  0
  -21.1509   -6.0506   25.9074 H   0  0  0  0  0  0
  -22.0586   -2.7602   23.2861 H   0  0  0  0  0  0
  -22.4055  -11.9938   22.4872 H   0  0  0  0  0  0
  -21.1060  -13.1295   22.2640 H   0  0  0  0  0  0
  -24.6486  -15.8427   20.5070 H   0  0  0  0  0  0
  -26.2624  -15.6259   20.0574 H   0  0  0  0  0  0
  -26.7231  -32.5352   23.1038 H   0  0  0  0  0  0
  -25.0107  -33.9647   25.0391 H   0  0  0  0  0  0
  -22.7403  -31.3017   21.3937 H   0  0  0  0  0  0
  -23.3772  -35.9618   23.3272 H   0  0  0  0  0  0
  -24.3612  -36.8934   22.2053 H   0  0  0  0  0  0
  -23.7262  -37.6480   23.6679 H   0  0  0  0  0  0
  -26.1441  -31.4899   20.6226 H   0  0  0  0  0  0
  -26.8633  -30.7827   22.0362 H   0  0  0  0  0  0
  -28.1090  -28.8221   21.2650 H   0  0  0  0  0  0
  -25.9255  -25.9607   18.8613 H   0  0  0  0  0  0
  -23.9833  -27.3593   18.9294 H   0  0  0  0  0  0
  -23.8046  -30.5948   19.4075 H   0  0  0  0  0  0
  -22.7787  -29.2600   19.8409 H   0  0  0  0  0  0
  -25.1310  -36.1905   25.0813 H   0  0  0  0  0  0
  -20.9991  -28.3319   24.1378 H   0  0  0  0  0  0
  -20.5709  -26.2339   23.3630 H   0  0  0  0  0  0
  -21.6678  -26.7469   22.1217 H   0  0  0  0  0  0
  -19.6958  -25.6290   21.1269 H   0  0  0  0  0  0
  -19.6716  -27.3188   20.6738 H   0  0  0  0  0  0
  -17.4228  -26.6690   21.4002 H   0  0  0  0  0  0
  -18.0338  -26.0085   22.9005 H   0  0  0  0  0  0
  -19.7943  -30.7282   24.2279 H   0  0  0  0  0  0
  -17.5025  -31.6267   24.5170 H   0  0  0  0  0  0
  -15.5369  -30.2996   23.7644 H   0  0  0  0  0  0
  -15.8689  -28.0827   22.7069 H   0  0  0  0  0  0
  -24.5906  -30.7089   25.7790 H   0  0  0  0  0  0
  -24.8902  -32.2943   26.4813 H   0  0  0  0  0  0
  -25.8017  -30.8982   27.0264 H   0  0  0  0  0  0
  -26.2916  -29.6699   24.1303 H   0  0  0  0  0  0
  -27.3966  -29.7227   25.4839 H   0  0  0  0  0  0
  -27.8853  -30.4169   23.9571 H   0  0  0  0  0  0
  -27.2721  -33.3603   26.2078 H   0  0  0  0  0  0
  -28.3902  -32.6829   25.0311 H   0  0  0  0  0  0
  -28.0772  -31.8412   26.5410 H   0  0  0  0  0  0
  -28.2591  -38.0114   24.7522 H   0  0  0  0  0  0
  -28.1116  -36.2649   24.6228 H   0  0  0  0  0  0
  -27.2324  -37.1391   25.8848 H   0  0  0  0  0  0
  -20.9449  -29.8772   21.6805 H   0  0  0  0  0  0
  -26.0178  -38.2842   24.1407 H   0  0  0  0  0  0
  -30.3799  -18.5013   16.8559 H   0  0  0  0  0  0
  -30.3969  -16.4265   18.1411 H   0  0  0  0  0  0
  -27.1319  -24.5815   19.5780 H   0  0  0  0  0  0
  -30.0759  -21.5242   21.0735 H   0  0  0  0  0  0
  -29.0307  -15.8266   21.2482 H   0  0  0  0  0  0
  -30.1951  -24.8954   20.9564 H   0  0  0  0  0  0
  1 25  1  0  0  0
  1 30  2  0  0  0
  1 81  1  0  0  0
  2  3  1  0  0  0
  2 25  1  0  0  0
  2 85  1  0  0  0
  2 86  1  0  0  0
  3  4  1  0  0  0
  3 87  1  0  0  0
  3 88  1  0  0  0
  4  5  1  0  0  0
  4 89  1  0  0  0
  4 90  1  0  0  0
  5  6  1  0  0  0
  5 26  1  0  0  0
  5 91  1  0  0  0
  6 25  1  0  0  0
  6 92  1  0  0  0
  6 93  1  0  0  0
  7  8  2  0  0  0
  7 26  1  0  0  0
  7 29  1  0  0  0
  8  9  1  0  0  0
  8 22  1  0  0  0
  9 10  1  0  0  0
  9 27  2  0  0  0
 10 11  2  0  0  0
 10 15  1  0  0  0
 11 12  1  0  0  0
 11 94  1  0  0  0
 12 13  2  0  0  0
 12 95  1  0  0  0
 13 14  1  0  0  0
 13 31  1  0  0  0
 14 15  2  0  0  0
 14 96  1  0  0  0
 15 97  1  0  0  0
 16 17  2  0  0  0
 16 21  1  0  0  0
 16 31  1  0  0  0
 17 18  1  0  0  0
 17 98  1  0  0  0
 18 19  2  0  0  0
 18 99  1  0  0  0
 19 20  1  0  0  0
 19 24  1  0  0  0
 20 21  2  0  0  0
 20100  1  0  0  0
 21 23  1  0  0  0
 22 28  1  0  0  0
 22 32  2  0  0  0
 26 27  1  0  0  0
 28101  1  0  0  0
 28102  1  0  0  0
 29103  1  0  0  0
 29104  1  0  0  0
 33 34  1  0  0  0
 33 66  1  0  0  0
 33 70  2  0  0  0
 34 36  1  0  0  0
 34 59  1  0  0  0
 34105  1  0  0  0
 35 44  2  0  0  0
 35 45  1  0  0  0
 35 68  1  0  0  0
 36 56  1  0  0  0
 36106  1  0  0  0
 37 39  1  0  0  0
 37 47  1  0  0  0
 37 66  1  0  0  0
 37107  1  0  0  0
 38 43  2  0  0  0
 38 46  1  0  0  0
 38 47  1  0  0  0
 39 64  1  0  0  0
 39 67  2  0  0  0
 40 52  1  0  0  0
 40 53  2  0  0  0
 40 58  1  0  0  0
 41108  1  0  0  0
 41109  1  0  0  0
 41110  1  0  0  0
 41 48  1  0  0  0
 42 43  1  0  0  0
 42 66  1  0  0  0
 42111  1  0  0  0
 42112  1  0  0  0
 43 44  1  0  0  0
 44113  1  0  0  0
 45 46  2  0  0  0
 45114  1  0  0  0
 46115  1  0  0  0
 47116  1  0  0  0
 47117  1  0  0  0
 48 56  1  0  0  0
 48 65  1  0  0  0
 48118  1  0  0  0
 49 50  1  0  0  0
 49 53  1  0  0  0
 49 64  1  0  0  0
 49119  1  0  0  0
 50 51  1  0  0  0
 50120  1  0  0  0
 50121  1  0  0  0
 51 52  1  0  0  0
 51122  1  0  0  0
 51123  1  0  0  0
 52124  1  0  0  0
 52125  1  0  0  0
 53 54  1  0  0  0
 54 55  2  0  0  0
 54126  1  0  0  0
 55 57  1  0  0  0
 55127  1  0  0  0
 56 69  2  0  0  0
 57 58  2  0  0  0
 57128  1  0  0  0
 58129  1  0  0  0
 59 60  1  0  0  0
 59 61  1  0  0  0
 59 62  1  0  0  0
 60130  1  0  0  0
 60131  1  0  0  0
 60132  1  0  0  0
 61133  1  0  0  0
 61134  1  0  0  0
 61135  1  0  0  0
 62136  1  0  0  0
 62137  1  0  0  0
 62138  1  0  0  0
 63 65  1  0  0  0
 63139  1  0  0  0
 63140  1  0  0  0
 63141  1  0  0  0
 64142  1  0  0  0
 65143  1  0  0  0
 68 76  1  0  0  0
 71 72  2  0  0  0
 71 73  1  0  0  0
 71144  1  0  0  0
 72 74  1  0  0  0
 72145  1  0  0  0
 73 75  2  0  0  0
 73 84  1  0  0  0
 74 79  2  0  0  0
 74 81  1  0  0  0
 75 79  1  0  0  0
 75 80  1  0  0  0
 76 77  2  0  0  0
 76146  1  0  0  0
 77 78  1  0  0  0
 77 83  1  0  0  0
 78 80  1  0  0  0
 78 82  2  0  0  0
 80147  1  0  0  0
 81148  1  0  0  0
 83149  1  0  0  0
M  ISO  4   1 100  68 101  76 101  81 100
M  END
> <chiral flag>
0

> <version>
0

> <s_m_source_file>
/data/baiqing/PycharmProjects/Reinvent-master-3.2/result/LINK_invent/BTK/process_docking_weight1_custom_product_contain_oxygen_bond_distance_aromatic_linkinvent_7_9_3/rearranged_h_0173.sdf

> <i_m_source_file_index>
80

> <r_mmod_Potential_Energy-OPLS-2005>
91.3842620849609

> <r_mmod_Stretch_Energy-OPLS-2005>
166.129653930664

> <r_mmod_Bend_Energy-OPLS-2005>
177.711578369141

> <r_mmod_Torsional_Energy-OPLS-2005>
258.189819335938

> <r_mmod_Improper_Torsional_Energy-OPLS-2005>
5.4138617515564

> <r_mmod_Van_der_Waal_Energy-OPLS-2005>
148.024536132812

> <r_mmod_Electrostatic_Energy-OPLS-2005>
-556.401794433594

> <r_mmod_Solvation_Energy-OPLS-2005>
-235.411270141602

> <b_mmod_Minimization_Converged-OPLS-2005>
0

> <r_mmod_RMS_Derivative-OPLS-2005>
2.88451910018921

$$$$
80
                    3D
 Structure written by MMmdl.
160168  0  0  1  0            999 V2000
  -30.7213  -14.5311   20.4682 C   0  0  0  0  0  0
  -30.4141  -12.3093   19.4583 C   0  0  0  0  0  0
  -29.4929  -12.4163   18.2259 C   0  0  0  0  0  0
  -28.0132  -12.3154   18.6408 C   0  0  0  0  0  0
  -27.6457  -13.2140   19.8536 C   0  0  2  0  0  0
  -28.6938  -13.1116   20.9842 C   0  0  0  0  0  0
  -25.2522  -13.8177   20.5702 C   0  0  0  0  0  0
  -24.1796  -13.0430   20.9225 C   0  0  0  0  0  0
  -24.6375  -11.6913   20.8784 C   0  0  0  0  0  0
  -23.9050  -10.4297   21.0439 C   0  0  0  0  0  0
  -24.3610   -9.4210   21.9206 C   0  0  0  0  0  0
  -23.6283   -8.2248   22.0759 C   0  0  0  0  0  0
  -22.4266   -8.0284   21.3546 C   0  0  0  0  0  0
  -21.9908   -9.0266   20.4653 C   0  0  0  0  0  0
  -22.7235  -10.2151   20.3067 C   0  0  0  0  0  0
  -21.6841   -6.0749   22.5285 C   0  0  0  0  0  0
  -21.4024   -6.5648   23.8227 C   0  0  0  0  0  0
  -21.3651   -5.6792   24.9190 C   0  0  0  0  0  0
  -21.6034   -4.3048   24.7223 C   0  0  0  0  0  0
  -21.8813   -3.8154   23.4338 C   0  0  0  0  0  0
  -21.9191   -4.6980   22.3408 C   0  0  0  0  0  0
  -22.7823  -13.5229   21.1864 C   0  0  0  0  0  0
  -22.1647   -4.2174   21.0977 F   0  0  0  0  0  0
  -21.5631   -3.4518   25.7725 F   0  0  0  0  0  0
  -30.0129  -13.3698   20.3968 N   0  0  0  0  0  0
  -26.2947  -12.9363   20.3331 N   0  0  0  0  0  0
  -25.9298  -11.6514   20.5818 N   0  0  0  0  0  0
  -22.0461  -12.8232   22.0425 N   0  0  0  0  0  0
  -25.4225  -15.1887   20.4088 N   0  0  0  0  0  0
  -31.9327  -14.5558   20.2218 O   0  0  0  0  0  0
  -21.6630   -6.8885   21.4238 O   0  0  0  0  0  0
  -22.3511  -14.5525   20.6709 O   0  0  0  0  0  0
  -24.6182  -31.8655   23.2103 C   0  0  0  0  0  0
  -25.9069  -32.4815   23.8392 C   0  0  1  0  0  0
  -27.1997  -27.3944   20.1093 C   0  0  0  0  0  0
  -25.5916  -33.8610   24.2311 N   0  0  0  0  0  0
  -23.4063  -30.4952   21.5508 C   0  0  2  0  0  0
  -24.8485  -28.9726   20.0971 C   0  0  0  0  0  0
  -22.7416  -29.4661   22.4949 C   0  0  0  0  0  0
  -18.0263  -28.1379   22.8467 C   0  0  0  0  0  0
  -24.1491  -36.7310   23.2632 C   0  0  0  0  0  0
  -25.9404  -30.8224   21.3710 C   0  0  0  0  0  0
  -26.0137  -29.4605   20.7058 C   0  0  0  0  0  0
  -27.1999  -28.6802   20.7068 C   0  0  0  0  0  0
  -26.0303  -26.9522   19.4544 C   0  0  0  0  0  0
  -24.8549  -27.7225   19.4599 C   0  0  0  0  0  0
  -23.6133  -29.8429   20.1597 C   0  0  0  0  0  0
  -25.4114  -36.3100   24.0323 C   0  0  1  0  0  0
  -20.5862  -28.3684   23.1283 C   0  0  2  0  0  0
  -20.6763  -26.9422   22.5397 C   0  0  0  0  0  0
  -19.5748  -26.6376   21.5191 C   0  0  0  0  0  0
  -18.1913  -26.7912   22.1597 C   0  0  0  0  0  0
  -19.1520  -28.8841   23.2869 C   0  0  0  0  0  0
  -18.9457  -30.1435   23.8908 C   0  0  0  0  0  0
  -17.6469  -30.6595   24.0560 C   0  0  0  0  0  0
  -25.9055  -34.9465   23.5115 C   0  0  0  0  0  0
  -16.5350  -29.9098   23.6338 C   0  0  0  0  0  0
  -16.7257  -28.6505   23.0364 C   0  0  0  0  0  0
  -26.4493  -31.6603   25.0742 C   0  0  0  0  0  0
  -25.3739  -31.3708   26.1482 C   0  0  0  0  0  0
  -27.0322  -30.3027   24.6155 C   0  0  0  0  0  0
  -27.6075  -32.4324   25.7499 C   0  0  0  0  0  0
  -27.5590  -37.1788   24.8444 C   0  0  0  0  0  0
  -21.4144  -29.3044   22.3684 N   0  0  0  0  0  0
  -26.4278  -37.3800   23.9437 N   0  0  0  0  0  0
  -24.6742  -31.0750   22.1013 N   0  0  0  0  0  0
  -23.4157  -28.8184   23.3003 O   0  0  0  0  0  0
  -28.2643  -26.5141   20.2240 O   0  0  0  0  0  0
  -26.5623  -34.8892   22.4679 O   0  0  0  0  0  0
  -23.5376  -32.1425   23.7494 O   0  0  0  0  0  0
  -30.7540  -19.2357   22.4085 C   0  0  0  0  0  0
  -29.3391  -18.0386   20.8503 C   0  0  0  0  0  0
  -29.7129  -19.2715   21.4655 C   0  0  0  0  0  0
  -30.1192  -16.8488   21.0975 C   0  0  0  0  0  0
  -31.3728  -18.0174   22.6993 C   0  0  0  0  0  0
  -28.8062  -24.1260   20.9923 C   0  0  0  0  0  0
  -28.4276  -22.8098   21.0564 C   0  0  0  0  0  0
  -29.4801  -21.7671   21.0973 C   0  0  0  0  0  0
  -28.1224  -18.0358   19.9258 C   0  0  0  0  0  0
  -26.9628  -22.3567   21.1185 C   0  0  0  0  0  0
  -29.9409  -15.9771   18.7916 C   0  0  0  0  0  0
  -27.8972  -25.3692   21.0482 C   0  0  0  0  0  0
  -31.0637  -16.8731   22.0661 N   0  0  0  0  0  0
  -29.0072  -20.4990   21.2000 N   0  0  0  0  0  0
  -30.0056  -15.6761   20.2390 N   0  0  0  0  0  0
  -30.6894  -22.0059   21.0351 O   0  0  0  0  0  0
  -32.3453  -17.9771   23.6393 F   0  0  0  0  0  0
  -31.4589  -12.3895   19.1526 H   0  0  0  0  0  0
  -30.3188  -11.3327   19.9375 H   0  0  0  0  0  0
  -29.7329  -11.6174   17.5229 H   0  0  0  0  0  0
  -29.6653  -13.3472   17.6900 H   0  0  0  0  0  0
  -27.8237  -11.2717   18.8869 H   0  0  0  0  0  0
  -27.3674  -12.5448   17.7929 H   0  0  0  0  0  0
  -27.6481  -14.2393   19.4885 H   0  0  0  0  0  0
  -28.6753  -12.1227   21.4433 H   0  0  0  0  0  0
  -28.4699  -13.8274   21.7759 H   0  0  0  0  0  0
  -25.2764   -9.5675   22.4786 H   0  0  0  0  0  0
  -24.0000   -7.4627   22.7462 H   0  0  0  0  0  0
  -21.0859   -8.8771   19.8946 H   0  0  0  0  0  0
  -22.3698  -10.9694   19.6165 H   0  0  0  0  0  0
  -21.2021   -7.6155   23.9723 H   0  0  0  0  0  0
  -21.1473   -6.0535   25.9091 H   0  0  0  0  0  0
  -22.0604   -2.7615   23.2831 H   0  0  0  0  0  0
  -22.4038  -11.9887   22.4834 H   0  0  0  0  0  0
  -21.1074  -13.1289   22.2575 H   0  0  0  0  0  0
  -24.6569  -15.8463   20.5134 H   0  0  0  0  0  0
  -26.2729  -15.6156   20.0693 H   0  0  0  0  0  0
  -26.7140  -32.5509   23.1148 H   0  0  0  0  0  0
  -25.0053  -33.9759   25.0451 H   0  0  0  0  0  0
  -22.6977  -31.3165   21.4182 H   0  0  0  0  0  0
  -23.3753  -35.9638   23.3276 H   0  0  0  0  0  0
  -24.3601  -36.8970   22.2055 H   0  0  0  0  0  0
  -23.7218  -37.6487   23.6680 H   0  0  0  0  0  0
  -26.0629  -31.5937   20.6085 H   0  0  0  0  0  0
  -26.8240  -30.8644   21.9969 H   0  0  0  0  0  0
  -28.0895  -29.0339   21.2076 H   0  0  0  0  0  0
  -26.0147  -25.9839   18.9725 H   0  0  0  0  0  0
  -23.9611  -27.3542   18.9738 H   0  0  0  0  0  0
  -23.7163  -30.6263   19.4068 H   0  0  0  0  0  0
  -22.7343  -29.2656   19.8647 H   0  0  0  0  0  0
  -25.1281  -36.1957   25.0809 H   0  0  0  0  0  0
  -20.9946  -28.3281   24.1412 H   0  0  0  0  0  0
  -20.5657  -26.2319   23.3598 H   0  0  0  0  0  0
  -21.6638  -26.7452   22.1213 H   0  0  0  0  0  0
  -19.6943  -25.6279   21.1233 H   0  0  0  0  0  0
  -19.6708  -27.3180   20.6714 H   0  0  0  0  0  0
  -17.4190  -26.6655   21.3993 H   0  0  0  0  0  0
  -18.0333  -26.0041   22.8989 H   0  0  0  0  0  0
  -19.7943  -30.7214   24.2313 H   0  0  0  0  0  0
  -17.5039  -31.6283   24.5141 H   0  0  0  0  0  0
  -15.5356  -30.3018   23.7661 H   0  0  0  0  0  0
  -15.8641  -28.0822   22.7131 H   0  0  0  0  0  0
  -24.5921  -30.7061   25.7802 H   0  0  0  0  0  0
  -24.8924  -32.2863   26.4924 H   0  0  0  0  0  0
  -25.8079  -30.8867   27.0240 H   0  0  0  0  0  0
  -26.2882  -29.6777   24.1203 H   0  0  0  0  0  0
  -27.4069  -29.7284   25.4635 H   0  0  0  0  0  0
  -27.8724  -30.4318   23.9326 H   0  0  0  0  0  0
  -27.2709  -33.3626   26.2070 H   0  0  0  0  0  0
  -28.3876  -32.6875   25.0320 H   0  0  0  0  0  0
  -28.0728  -31.8439   26.5413 H   0  0  0  0  0  0
  -28.2542  -38.0147   24.7595 H   0  0  0  0  0  0
  -28.1146  -36.2689   24.6134 H   0  0  0  0  0  0
  -27.2322  -37.1268   25.8838 H   0  0  0  0  0  0
  -20.9314  -29.8783   21.6920 H   0  0  0  0  0  0
  -26.0164  -38.2864   24.1497 H   0  0  0  0  0  0
  -31.0736  -20.1229   22.9352 H   0  0  0  0  0  0
  -29.8590  -24.3699   20.9457 H   0  0  0  0  0  0
  -27.3768  -18.7722   20.2233 H   0  0  0  0  0  0
  -27.6155  -17.0724   19.9367 H   0  0  0  0  0  0
  -28.4120  -18.2722   18.9023 H   0  0  0  0  0  0
  -26.2735  -23.1461   21.4050 H   0  0  0  0  0  0
  -26.8064  -21.5713   21.8585 H   0  0  0  0  0  0
  -26.6410  -21.9788   20.1483 H   0  0  0  0  0  0
  -30.5580  -15.3278   18.1680 H   0  0  0  0  0  0
  -28.9234  -15.8960   18.4143 H   0  0  0  0  0  0
  -30.3165  -16.9799   18.5806 H   0  0  0  0  0  0
  -27.9085  -25.7103   22.0835 H   0  0  0  0  0  0
  -26.8722  -25.0580   20.8663 H   0  0  0  0  0  0
  -28.0084  -20.4211   21.0810 H   0  0  0  0  0  0
  1 25  1  0  0  0
  1 30  2  0  0  0
  1 85  1  0  0  0
  2  3  1  0  0  0
  2 25  1  0  0  0
  2 88  1  0  0  0
  2 89  1  0  0  0
  3  4  1  0  0  0
  3 90  1  0  0  0
  3 91  1  0  0  0
  4  5  1  0  0  0
  4 92  1  0  0  0
  4 93  1  0  0  0
  5  6  1  0  0  0
  5 26  1  0  0  0
  5 94  1  0  0  0
  6 25  1  0  0  0
  6 95  1  0  0  0
  6 96  1  0  0  0
  7  8  2  0  0  0
  7 26  1  0  0  0
  7 29  1  0  0  0
  8  9  1  0  0  0
  8 22  1  0  0  0
  9 10  1  0  0  0
  9 27  2  0  0  0
 10 11  2  0  0  0
 10 15  1  0  0  0
 11 12  1  0  0  0
 11 97  1  0  0  0
 12 13  2  0  0  0
 12 98  1  0  0  0
 13 14  1  0  0  0
 13 31  1  0  0  0
 14 15  2  0  0  0
 14 99  1  0  0  0
 15100  1  0  0  0
 16 17  2  0  0  0
 16 21  1  0  0  0
 16 31  1  0  0  0
 17 18  1  0  0  0
 17101  1  0  0  0
 18 19  2  0  0  0
 18102  1  0  0  0
 19 20  1  0  0  0
 19 24  1  0  0  0
 20 21  2  0  0  0
 20103  1  0  0  0
 21 23  1  0  0  0
 22 28  1  0  0  0
 22 32  2  0  0  0
 26 27  1  0  0  0
 28104  1  0  0  0
 28105  1  0  0  0
 29106  1  0  0  0
 29107  1  0  0  0
 33 34  1  0  0  0
 33 66  1  0  0  0
 33 70  2  0  0  0
 34 36  1  0  0  0
 34 59  1  0  0  0
 34108  1  0  0  0
 35 44  2  0  0  0
 35 45  1  0  0  0
 35 68  1  0  0  0
 36 56  1  0  0  0
 36109  1  0  0  0
 37 39  1  0  0  0
 37 47  1  0  0  0
 37 66  1  0  0  0
 37110  1  0  0  0
 38 43  2  0  0  0
 38 46  1  0  0  0
 38 47  1  0  0  0
 39 64  1  0  0  0
 39 67  2  0  0  0
 40 52  1  0  0  0
 40 53  2  0  0  0
 40 58  1  0  0  0
 41111  1  0  0  0
 41112  1  0  0  0
 41113  1  0  0  0
 41 48  1  0  0  0
 42 43  1  0  0  0
 42 66  1  0  0  0
 42114  1  0  0  0
 42115  1  0  0  0
 43 44  1  0  0  0
 44116  1  0  0  0
 45 46  2  0  0  0
 45117  1  0  0  0
 46118  1  0  0  0
 47119  1  0  0  0
 47120  1  0  0  0
 48 56  1  0  0  0
 48 65  1  0  0  0
 48121  1  0  0  0
 49 50  1  0  0  0
 49 53  1  0  0  0
 49 64  1  0  0  0
 49122  1  0  0  0
 50 51  1  0  0  0
 50123  1  0  0  0
 50124  1  0  0  0
 51 52  1  0  0  0
 51125  1  0  0  0
 51126  1  0  0  0
 52127  1  0  0  0
 52128  1  0  0  0
 53 54  1  0  0  0
 54 55  2  0  0  0
 54129  1  0  0  0
 55 57  1  0  0  0
 55130  1  0  0  0
 56 69  2  0  0  0
 57 58  2  0  0  0
 57131  1  0  0  0
 58132  1  0  0  0
 59 60  1  0  0  0
 59 61  1  0  0  0
 59 62  1  0  0  0
 60133  1  0  0  0
 60134  1  0  0  0
 60135  1  0  0  0
 61136  1  0  0  0
 61137  1  0  0  0
 61138  1  0  0  0
 62139  1  0  0  0
 62140  1  0  0  0
 62141  1  0  0  0
 63 65  1  0  0  0
 63142  1  0  0  0
 63143  1  0  0  0
 63144  1  0  0  0
 64145  1  0  0  0
 65146  1  0  0  0
 68 82  1  0  0  0
 71 73  2  0  0  0
 71 75  1  0  0  0
 71147  1  0  0  0
 72 73  1  0  0  0
 72 74  2  0  0  0
 72 79  1  0  0  0
 73 84  1  0  0  0
 74 83  1  0  0  0
 74 85  1  0  0  0
 75 83  2  0  0  0
 75 87  1  0  0  0
 76 77  2  0  0  0
 76 82  1  0  0  0
 76148  1  0  0  0
 77 78  1  0  0  0
 77 80  1  0  0  0
 78 84  1  0  0  0
 78 86  2  0  0  0
 79149  1  0  0  0
 79150  1  0  0  0
 79151  1  0  0  0
 80152  1  0  0  0
 80153  1  0  0  0
 80154  1  0  0  0
 81 85  1  0  0  0
 81155  1  0  0  0
 81156  1  0  0  0
 81157  1  0  0  0
 82158  1  0  0  0
 82159  1  0  0  0
 84160  1  0  0  0
M  ISO  4   1 100  68 101  82 101  85 100
M  END
> <chiral flag>
0

> <version>
0

> <s_m_source_file>
/data/baiqing/PycharmProjects/Reinvent-master-3.2/result/LINK_invent/BTK/process_docking_weight1_custom_product_contain_oxygen_bond_distance_aromatic_linkinvent_7_9_3/rearranged_h_0173.sdf

> <i_m_source_file_index>
81

> <r_mmod_Potential_Energy-OPLS-2005>
58.0808639526367

> <r_mmod_Stretch_Energy-OPLS-2005>
57.9435958862305

> <r_mmod_Bend_Energy-OPLS-2005>
120.399528503418

> <r_mmod_Torsional_Energy-OPLS-2005>
338.163177490234

> <r_mmod_Improper_Torsional_Energy-OPLS-2005>
23.8894748687744

> <r_mmod_Van_der_Waal_Energy-OPLS-2005>
187.287231445312

> <r_mmod_Electrostatic_Energy-OPLS-2005>
-488.860443115234

> <r_mmod_Solvation_Energy-OPLS-2005>
-224.229095458984

> <b_mmod_Minimization_Converged-OPLS-2005>
0

> <r_mmod_RMS_Derivative-OPLS-2005>
3.20960903167725

$$$$
81
                    3D
 Structure written by MMmdl.
153161  0  0  1  0            999 V2000
  -30.6793  -14.4796   20.5322 C   0  0  0  0  0  0
  -30.4211  -12.2898   19.4489 C   0  0  0  0  0  0
  -29.5059  -12.4947   18.2224 C   0  0  0  0  0  0
  -28.0207  -12.3685   18.6203 C   0  0  0  0  0  0
  -27.6608  -13.2097   19.8742 C   0  0  2  0  0  0
  -28.6950  -12.9988   21.0032 C   0  0  0  0  0  0
  -25.2560  -13.8163   20.5648 C   0  0  0  0  0  0
  -24.1820  -13.0439   20.9189 C   0  0  0  0  0  0
  -24.6383  -11.6916   20.8735 C   0  0  0  0  0  0
  -23.9063  -10.4290   21.0401 C   0  0  0  0  0  0
  -24.3609   -9.4199   21.9180 C   0  0  0  0  0  0
  -23.6299   -8.2228   22.0740 C   0  0  0  0  0  0
  -22.4276   -8.0266   21.3532 C   0  0  0  0  0  0
  -21.9903   -9.0254   20.4649 C   0  0  0  0  0  0
  -22.7224  -10.2136   20.3066 C   0  0  0  0  0  0
  -21.6850   -6.0739   22.5289 C   0  0  0  0  0  0
  -21.4010   -6.5638   23.8219 C   0  0  0  0  0  0
  -21.3660   -5.6785   24.9183 C   0  0  0  0  0  0
  -21.6051   -4.3061   24.7225 C   0  0  0  0  0  0
  -21.8811   -3.8151   23.4348 C   0  0  0  0  0  0
  -21.9176   -4.6969   22.3400 C   0  0  0  0  0  0
  -22.7828  -13.5239   21.1843 C   0  0  0  0  0  0
  -22.1647   -4.2153   21.0985 F   0  0  0  0  0  0
  -21.5635   -3.4544   25.7740 F   0  0  0  0  0  0
  -30.0300  -13.2881   20.4569 N   0  0  0  0  0  0
  -26.3006  -12.9348   20.3347 N   0  0  0  0  0  0
  -25.9310  -11.6511   20.5764 N   0  0  0  0  0  0
  -22.0470  -12.8259   22.0416 N   0  0  0  0  0  0
  -25.4306  -15.1881   20.4050 N   0  0  0  0  0  0
  -31.8297  -14.6400   20.1163 O   0  0  0  0  0  0
  -21.6629   -6.8879   21.4246 O   0  0  0  0  0  0
  -22.3515  -14.5529   20.6669 O   0  0  0  0  0  0
  -24.6177  -31.8667   23.2088 C   0  0  0  0  0  0
  -25.9073  -32.4815   23.8360 C   0  0  1  0  0  0
  -27.2275  -27.4092   20.0853 C   0  0  0  0  0  0
  -25.5917  -33.8607   24.2283 N   0  0  0  0  0  0
  -23.4042  -30.4918   21.5511 C   0  0  2  0  0  0
  -24.8463  -28.9602   20.1092 C   0  0  0  0  0  0
  -22.7422  -29.4665   22.4989 C   0  0  0  0  0  0
  -18.0287  -28.1399   22.8483 C   0  0  0  0  0  0
  -24.1493  -36.7336   23.2624 C   0  0  0  0  0  0
  -25.9365  -30.8202   21.3674 C   0  0  0  0  0  0
  -26.0103  -29.4549   20.7115 C   0  0  0  0  0  0
  -27.2021  -28.6874   20.6992 C   0  0  0  0  0  0
  -26.0436  -26.9517   19.4558 C   0  0  0  0  0  0
  -24.8604  -27.7086   19.4777 C   0  0  0  0  0  0
  -23.6103  -29.8292   20.1645 C   0  0  0  0  0  0
  -25.4114  -36.3103   24.0310 C   0  0  1  0  0  0
  -20.5875  -28.3687   23.1307 C   0  0  2  0  0  0
  -20.6789  -26.9429   22.5405 C   0  0  0  0  0  0
  -19.5757  -26.6400   21.5211 C   0  0  0  0  0  0
  -18.1940  -26.7940   22.1623 C   0  0  0  0  0  0
  -19.1537  -28.8852   23.2890 C   0  0  0  0  0  0
  -18.9464  -30.1464   23.8897 C   0  0  0  0  0  0
  -17.6465  -30.6597   24.0571 C   0  0  0  0  0  0
  -25.9049  -34.9473   23.5095 C   0  0  0  0  0  0
  -16.5357  -29.9101   23.6335 C   0  0  0  0  0  0
  -16.7274  -28.6525   23.0337 C   0  0  0  0  0  0
  -26.4468  -31.6614   25.0723 C   0  0  0  0  0  0
  -25.3710  -31.3785   26.1469 C   0  0  0  0  0  0
  -27.0279  -30.3031   24.6134 C   0  0  0  0  0  0
  -27.6019  -32.4342   25.7501 C   0  0  0  0  0  0
  -27.5586  -37.1818   24.8450 C   0  0  0  0  0  0
  -21.4150  -29.3041   22.3706 N   0  0  0  0  0  0
  -26.4299  -37.3793   23.9400 N   0  0  0  0  0  0
  -24.6709  -31.0748   22.1012 N   0  0  0  0  0  0
  -23.4187  -28.8208   23.3041 O   0  0  0  0  0  0
  -28.3790  -26.6334   20.1295 O   0  0  0  0  0  0
  -26.5608  -34.8935   22.4658 O   0  0  0  0  0  0
  -23.5372  -32.1426   23.7480 O   0  0  0  0  0  0
  -29.5535  -17.9765   21.1616 C   0  0  0  0  0  0
  -30.3961  -17.0882   19.0516 C   0  0  0  0  0  0
  -29.9689  -19.4776   19.2847 C   0  0  0  0  0  0
  -29.9756  -16.8599   20.3851 C   0  0  0  0  0  0
  -29.6006  -19.2967   20.6368 C   0  0  0  0  0  0
  -30.3732  -18.3839   18.5018 C   0  0  0  0  0  0
  -28.8259  -22.7831   20.6331 C   0  0  0  0  0  0
  -29.2461  -24.2883   20.4742 C   0  0  0  0  0  0
  -29.8489  -21.7503   21.1674 C   0  0  0  0  0  0
  -28.1973  -25.2238   19.8411 C   0  0  0  0  0  0
  -29.9273  -15.5313   20.9307 N   0  0  0  0  0  0
  -29.2974  -20.4024   21.4608 N   0  0  0  0  0  0
  -27.6805  -22.4179   20.3364 O   0  0  0  0  0  0
  -30.3602  -24.6975   20.8299 O   0  0  0  0  0  0
  -30.7536  -18.5784   17.2173 F   0  0  0  0  0  0
  -31.4709  -12.3765   19.1622 H   0  0  0  0  0  0
  -30.3072  -11.2837   19.8577 H   0  0  0  0  0  0
  -29.7479  -11.7672   17.4470 H   0  0  0  0  0  0
  -29.6866  -13.4770   17.7838 H   0  0  0  0  0  0
  -27.8163  -11.3164   18.8163 H   0  0  0  0  0  0
  -27.3806  -12.6489   17.7830 H   0  0  0  0  0  0
  -27.7043  -14.2574   19.5731 H   0  0  0  0  0  0
  -28.6563  -11.9684   21.3646 H   0  0  0  0  0  0
  -28.4614  -13.6187   21.8709 H   0  0  0  0  0  0
  -25.2762   -9.5675   22.4749 H   0  0  0  0  0  0
  -24.0019   -7.4605   22.7448 H   0  0  0  0  0  0
  -21.0831   -8.8787   19.8964 H   0  0  0  0  0  0
  -22.3687  -10.9679   19.6185 H   0  0  0  0  0  0
  -21.2010   -7.6146   23.9738 H   0  0  0  0  0  0
  -21.1493   -6.0514   25.9087 H   0  0  0  0  0  0
  -22.0587   -2.7617   23.2847 H   0  0  0  0  0  0
  -22.4083  -11.9976   22.4894 H   0  0  0  0  0  0
  -21.1087  -13.1316   22.2594 H   0  0  0  0  0  0
  -24.6731  -15.8522   20.5190 H   0  0  0  0  0  0
  -26.2903  -15.6192   20.0888 H   0  0  0  0  0  0
  -26.7147  -32.5500   23.1125 H   0  0  0  0  0  0
  -25.0077  -33.9759   25.0425 H   0  0  0  0  0  0
  -22.6935  -31.3102   21.4173 H   0  0  0  0  0  0
  -23.3736  -35.9690   23.3285 H   0  0  0  0  0  0
  -24.3582  -36.8960   22.2043 H   0  0  0  0  0  0
  -23.7284  -37.6548   23.6651 H   0  0  0  0  0  0
  -26.0564  -31.5833   20.5968 H   0  0  0  0  0  0
  -26.8245  -30.8682   21.9864 H   0  0  0  0  0  0
  -28.0947  -29.0637   21.1780 H   0  0  0  0  0  0
  -26.0001  -26.0082   18.9293 H   0  0  0  0  0  0
  -23.9733  -27.3234   18.9934 H   0  0  0  0  0  0
  -23.7149  -30.6055   19.4051 H   0  0  0  0  0  0
  -22.7312  -29.2505   19.8720 H   0  0  0  0  0  0
  -25.1299  -36.1947   25.0800 H   0  0  0  0  0  0
  -20.9971  -28.3283   24.1422 H   0  0  0  0  0  0
  -20.5739  -26.2302   23.3605 H   0  0  0  0  0  0
  -21.6664  -26.7507   22.1176 H   0  0  0  0  0  0
  -19.6935  -25.6315   21.1238 H   0  0  0  0  0  0
  -19.6698  -27.3216   20.6752 H   0  0  0  0  0  0
  -17.4218  -26.6680   21.4024 H   0  0  0  0  0  0
  -18.0346  -26.0089   22.9026 H   0  0  0  0  0  0
  -19.7947  -30.7282   24.2257 H   0  0  0  0  0  0
  -17.5032  -31.6270   24.5191 H   0  0  0  0  0  0
  -15.5368  -30.3006   23.7659 H   0  0  0  0  0  0
  -15.8677  -28.0859   22.7030 H   0  0  0  0  0  0
  -24.5867  -30.7139   25.7842 H   0  0  0  0  0  0
  -24.8928  -32.2974   26.4861 H   0  0  0  0  0  0
  -25.8046  -30.9003   27.0257 H   0  0  0  0  0  0
  -26.2829  -29.6834   24.1135 H   0  0  0  0  0  0
  -27.3954  -29.7249   25.4621 H   0  0  0  0  0  0
  -27.8708  -30.4322   23.9344 H   0  0  0  0  0  0
  -27.2601  -33.3616   26.2101 H   0  0  0  0  0  0
  -28.3827  -32.6945   25.0349 H   0  0  0  0  0  0
  -28.0684  -31.8461   26.5412 H   0  0  0  0  0  0
  -28.2595  -38.0121   24.7504 H   0  0  0  0  0  0
  -28.1087  -36.2656   24.6257 H   0  0  0  0  0  0
  -27.2304  -37.1452   25.8849 H   0  0  0  0  0  0
  -20.9335  -29.8725   21.6877 H   0  0  0  0  0  0
  -26.0178  -38.2862   24.1397 H   0  0  0  0  0  0
  -29.2118  -17.8116   22.1769 H   0  0  0  0  0  0
  -30.7249  -16.2776   18.4168 H   0  0  0  0  0  0
  -29.9522  -20.4526   18.8224 H   0  0  0  0  0  0
  -30.2786  -22.1477   22.0870 H   0  0  0  0  0  0
  -30.6846  -21.6940   20.4663 H   0  0  0  0  0  0
  -27.2358  -24.8841   20.2231 H   0  0  0  0  0  0
  -28.2077  -25.0664   18.7634 H   0  0  0  0  0  0
  -29.1094  -15.3060   21.4765 H   0  0  0  0  0  0
  -29.0344  -20.2246   22.4283 H   0  0  0  0  0  0
  1 25  1  0  0  0
  1 30  2  0  0  0
  1 81  1  0  0  0
  2  3  1  0  0  0
  2 25  1  0  0  0
  2 86  1  0  0  0
  2 87  1  0  0  0
  3  4  1  0  0  0
  3 88  1  0  0  0
  3 89  1  0  0  0
  4  5  1  0  0  0
  4 90  1  0  0  0
  4 91  1  0  0  0
  5  6  1  0  0  0
  5 26  1  0  0  0
  5 92  1  0  0  0
  6 25  1  0  0  0
  6 93  1  0  0  0
  6 94  1  0  0  0
  7  8  2  0  0  0
  7 26  1  0  0  0
  7 29  1  0  0  0
  8  9  1  0  0  0
  8 22  1  0  0  0
  9 10  1  0  0  0
  9 27  2  0  0  0
 10 11  2  0  0  0
 10 15  1  0  0  0
 11 12  1  0  0  0
 11 95  1  0  0  0
 12 13  2  0  0  0
 12 96  1  0  0  0
 13 14  1  0  0  0
 13 31  1  0  0  0
 14 15  2  0  0  0
 14 97  1  0  0  0
 15 98  1  0  0  0
 16 17  2  0  0  0
 16 21  1  0  0  0
 16 31  1  0  0  0
 17 18  1  0  0  0
 17 99  1  0  0  0
 18 19  2  0  0  0
 18100  1  0  0  0
 19 20  1  0  0  0
 19 24  1  0  0  0
 20 21  2  0  0  0
 20101  1  0  0  0
 21 23  1  0  0  0
 22 28  1  0  0  0
 22 32  2  0  0  0
 26 27  1  0  0  0
 28102  1  0  0  0
 28103  1  0  0  0
 29104  1  0  0  0
 29105  1  0  0  0
 33 34  1  0  0  0
 33 66  1  0  0  0
 33 70  2  0  0  0
 34 36  1  0  0  0
 34 59  1  0  0  0
 34106  1  0  0  0
 35 44  2  0  0  0
 35 45  1  0  0  0
 35 68  1  0  0  0
 36 56  1  0  0  0
 36107  1  0  0  0
 37 39  1  0  0  0
 37 47  1  0  0  0
 37 66  1  0  0  0
 37108  1  0  0  0
 38 43  2  0  0  0
 38 46  1  0  0  0
 38 47  1  0  0  0
 39 64  1  0  0  0
 39 67  2  0  0  0
 40 52  1  0  0  0
 40 53  2  0  0  0
 40 58  1  0  0  0
 41109  1  0  0  0
 41110  1  0  0  0
 41111  1  0  0  0
 41 48  1  0  0  0
 42 43  1  0  0  0
 42 66  1  0  0  0
 42112  1  0  0  0
 42113  1  0  0  0
 43 44  1  0  0  0
 44114  1  0  0  0
 45 46  2  0  0  0
 45115  1  0  0  0
 46116  1  0  0  0
 47117  1  0  0  0
 47118  1  0  0  0
 48 56  1  0  0  0
 48 65  1  0  0  0
 48119  1  0  0  0
 49 50  1  0  0  0
 49 53  1  0  0  0
 49 64  1  0  0  0
 49120  1  0  0  0
 50 51  1  0  0  0
 50121  1  0  0  0
 50122  1  0  0  0
 51 52  1  0  0  0
 51123  1  0  0  0
 51124  1  0  0  0
 52125  1  0  0  0
 52126  1  0  0  0
 53 54  1  0  0  0
 54 55  2  0  0  0
 54127  1  0  0  0
 55 57  1  0  0  0
 55128  1  0  0  0
 56 69  2  0  0  0
 57 58  2  0  0  0
 57129  1  0  0  0
 58130  1  0  0  0
 59 60  1  0  0  0
 59 61  1  0  0  0
 59 62  1  0  0  0
 60131  1  0  0  0
 60132  1  0  0  0
 60133  1  0  0  0
 61134  1  0  0  0
 61135  1  0  0  0
 61136  1  0  0  0
 62137  1  0  0  0
 62138  1  0  0  0
 62139  1  0  0  0
 63 65  1  0  0  0
 63140  1  0  0  0
 63141  1  0  0  0
 63142  1  0  0  0
 64143  1  0  0  0
 65144  1  0  0  0
 68 80  1  0  0  0
 71 74  2  0  0  0
 71 75  1  0  0  0
 71145  1  0  0  0
 72 74  1  0  0  0
 72 76  2  0  0  0
 72146  1  0  0  0
 73 75  2  0  0  0
 73 76  1  0  0  0
 73147  1  0  0  0
 74 81  1  0  0  0
 75 82  1  0  0  0
 76 85  1  0  0  0
 77 78  1  0  0  0
 77 79  1  0  0  0
 77 83  2  0  0  0
 78 80  1  0  0  0
 78 84  2  0  0  0
 79 82  1  0  0  0
 79148  1  0  0  0
 79149  1  0  0  0
 80150  1  0  0  0
 80151  1  0  0  0
 81152  1  0  0  0
 82153  1  0  0  0
M  ISO  4   1 100  68 101  80 101  81 100
M  END
> <chiral flag>
0

> <version>
0

> <s_m_source_file>
/data/baiqing/PycharmProjects/Reinvent-master-3.2/result/LINK_invent/BTK/process_docking_weight1_custom_product_contain_oxygen_bond_distance_aromatic_linkinvent_7_9_3/rearranged_h_0173.sdf

> <i_m_source_file_index>
82

> <r_mmod_Potential_Energy-OPLS-2005>
113.573013305664

> <r_mmod_Stretch_Energy-OPLS-2005>
45.698371887207

> <r_mmod_Bend_Energy-OPLS-2005>
103.048454284668

> <r_mmod_Torsional_Energy-OPLS-2005>
221.582717895508

> <r_mmod_Improper_Torsional_Energy-OPLS-2005>
6.22140693664551

> <r_mmod_Van_der_Waal_Energy-OPLS-2005>
161.770324707031

> <r_mmod_Electrostatic_Energy-OPLS-2005>
-194.280151367188

> <r_mmod_Solvation_Energy-OPLS-2005>
-248.405624389648

> <b_mmod_Minimization_Converged-OPLS-2005>
0

> <r_mmod_RMS_Derivative-OPLS-2005>
3.81995558738708

$$$$
82
                    3D
 Structure written by MMmdl.
162170  0  0  1  0            999 V2000
  -30.7286  -14.5853   20.4889 C   0  0  0  0  0  0
  -30.4038  -12.3556   19.4782 C   0  0  0  0  0  0
  -29.5056  -12.5046   18.2343 C   0  0  0  0  0  0
  -28.0259  -12.3628   18.6345 C   0  0  0  0  0  0
  -27.6522  -13.2348   19.8651 C   0  0  2  0  0  0
  -28.6930  -13.1274   21.0032 C   0  0  0  0  0  0
  -25.2555  -13.8209   20.5712 C   0  0  0  0  0  0
  -24.1826  -13.0457   20.9188 C   0  0  0  0  0  0
  -24.6421  -11.6934   20.8743 C   0  0  0  0  0  0
  -23.9087  -10.4308   21.0387 C   0  0  0  0  0  0
  -24.3636   -9.4225   21.9170 C   0  0  0  0  0  0
  -23.6313   -8.2258   22.0752 C   0  0  0  0  0  0
  -22.4293   -8.0294   21.3546 C   0  0  0  0  0  0
  -21.9925   -9.0260   20.4649 C   0  0  0  0  0  0
  -22.7250  -10.2138   20.3045 C   0  0  0  0  0  0
  -21.6853   -6.0747   22.5282 C   0  0  0  0  0  0
  -21.4020   -6.5645   23.8221 C   0  0  0  0  0  0
  -21.3657   -5.6795   24.9178 C   0  0  0  0  0  0
  -21.6040   -4.3062   24.7221 C   0  0  0  0  0  0
  -21.8819   -3.8154   23.4345 C   0  0  0  0  0  0
  -21.9200   -4.6975   22.3406 C   0  0  0  0  0  0
  -22.7845  -13.5237   21.1835 C   0  0  0  0  0  0
  -22.1660   -4.2162   21.0980 F   0  0  0  0  0  0
  -21.5639   -3.4543   25.7731 F   0  0  0  0  0  0
  -30.0172  -13.4137   20.4408 N   0  0  0  0  0  0
  -26.3001  -12.9432   20.3345 N   0  0  0  0  0  0
  -25.9361  -11.6563   20.5757 N   0  0  0  0  0  0
  -22.0479  -12.8240   22.0394 N   0  0  0  0  0  0
  -25.4297  -15.1927   20.4146 N   0  0  0  0  0  0
  -31.8665  -14.6132   20.0147 O   0  0  0  0  0  0
  -21.6653   -6.8890   21.4240 O   0  0  0  0  0  0
  -22.3532  -14.5535   20.6677 O   0  0  0  0  0  0
  -24.6207  -31.8625   23.2063 C   0  0  0  0  0  0
  -25.9070  -32.4794   23.8370 C   0  0  1  0  0  0
  -27.2189  -27.3776   20.0982 C   0  0  0  0  0  0
  -25.5896  -33.8593   24.2297 N   0  0  0  0  0  0
  -23.4132  -30.4856   21.5489 C   0  0  2  0  0  0
  -24.8622  -28.9588   20.0972 C   0  0  0  0  0  0
  -22.7455  -29.4609   22.4958 C   0  0  0  0  0  0
  -18.0269  -28.1371   22.8488 C   0  0  0  0  0  0
  -24.1490  -36.7318   23.2632 C   0  0  0  0  0  0
  -25.9481  -30.8134   21.3673 C   0  0  0  0  0  0
  -26.0285  -29.4482   20.7026 C   0  0  0  0  0  0
  -27.2161  -28.6652   20.7030 C   0  0  0  0  0  0
  -26.0441  -26.9342   19.4569 C   0  0  0  0  0  0
  -24.8684  -27.7058   19.4646 C   0  0  0  0  0  0
  -23.6227  -29.8254   20.1608 C   0  0  0  0  0  0
  -25.4111  -36.3105   24.0330 C   0  0  1  0  0  0
  -20.5869  -28.3665   23.1304 C   0  0  2  0  0  0
  -20.6759  -26.9389   22.5417 C   0  0  0  0  0  0
  -19.5739  -26.6378   21.5211 C   0  0  0  0  0  0
  -18.1917  -26.7918   22.1622 C   0  0  0  0  0  0
  -19.1519  -28.8833   23.2898 C   0  0  0  0  0  0
  -18.9448  -30.1442   23.8904 C   0  0  0  0  0  0
  -17.6452  -30.6585   24.0546 C   0  0  0  0  0  0
  -25.9039  -34.9463   23.5121 C   0  0  0  0  0  0
  -16.5339  -29.9086   23.6321 C   0  0  0  0  0  0
  -16.7255  -28.6496   23.0349 C   0  0  0  0  0  0
  -26.4473  -31.6571   25.0710 C   0  0  0  0  0  0
  -25.3735  -31.3671   26.1456 C   0  0  0  0  0  0
  -27.0286  -30.2994   24.6108 C   0  0  0  0  0  0
  -27.6048  -32.4274   25.7485 C   0  0  0  0  0  0
  -27.5593  -37.1801   24.8452 C   0  0  0  0  0  0
  -21.4170  -29.3031   22.3714 N   0  0  0  0  0  0
  -26.4291  -37.3800   23.9420 N   0  0  0  0  0  0
  -24.6789  -31.0678   22.0993 N   0  0  0  0  0  0
  -23.4204  -28.8130   23.3001 O   0  0  0  0  0  0
  -28.2348  -26.4426   20.2627 O   0  0  0  0  0  0
  -26.5619  -34.8928   22.4692 O   0  0  0  0  0  0
  -23.5380  -32.1401   23.7418 O   0  0  0  0  0  0
  -29.5718  -19.4746   20.6139 C   0  0  0  0  0  0
  -31.1885  -21.2359   21.1256 C   0  0  0  0  0  0
  -30.5777  -18.4645   20.7987 C   0  0  0  0  0  0
  -31.8892  -18.8987   21.1494 C   0  0  0  0  0  0
  -29.8694  -20.8725   20.7874 C   0  0  0  0  0  0
  -32.2048  -20.2715   21.2903 C   0  0  0  0  0  0
  -30.5061  -17.0111   20.3889 C   0  0  0  0  0  0
  -30.1681  -15.8486   21.0370 C   0  0  0  0  0  0
  -27.8258  -25.4368   21.1434 C   0  0  0  0  0  0
  -28.0760  -24.0942   21.2544 C   0  0  0  0  0  0
  -29.0085  -23.2557   20.4704 C   0  0  0  0  0  0
  -33.0123  -17.8747   21.3196 C   0  0  0  0  0  0
  -35.4155  -22.0744   21.6398 C   0  0  0  0  0  0
  -33.8941  -21.9790   21.5351 C   0  0  0  0  0  0
  -28.8688  -21.9212   20.7489 N   0  0  0  0  0  0
  -29.8234  -23.6820   19.6487 O   0  0  0  0  0  0
  -27.3885  -23.4629   22.2250 O   0  0  0  0  0  0
  -33.5157  -20.6081   21.5688 O   0  0  0  0  0  0
  -31.4549  -12.3990   19.1879 H   0  0  0  0  0  0
  -30.2738  -11.3706   19.9277 H   0  0  0  0  0  0
  -29.7678  -11.7531   17.4878 H   0  0  0  0  0  0
  -29.6770  -13.4754   17.7665 H   0  0  0  0  0  0
  -27.8477  -11.3101   18.8550 H   0  0  0  0  0  0
  -27.3812  -12.6076   17.7896 H   0  0  0  0  0  0
  -27.6658  -14.2683   19.5212 H   0  0  0  0  0  0
  -28.6852  -12.1266   21.4378 H   0  0  0  0  0  0
  -28.4488  -13.8129   21.8146 H   0  0  0  0  0  0
  -25.2774   -9.5719   22.4746 H   0  0  0  0  0  0
  -24.0036   -7.4648   22.7462 H   0  0  0  0  0  0
  -21.0864   -8.8768   19.8944 H   0  0  0  0  0  0
  -22.3696  -10.9682   19.6163 H   0  0  0  0  0  0
  -21.2003   -7.6150   23.9728 H   0  0  0  0  0  0
  -21.1477   -6.0520   25.9079 H   0  0  0  0  0  0
  -22.0602   -2.7619   23.2832 H   0  0  0  0  0  0
  -22.4082  -11.9915   22.4824 H   0  0  0  0  0  0
  -21.1081  -13.1269   22.2536 H   0  0  0  0  0  0
  -24.6761  -15.8590   20.5376 H   0  0  0  0  0  0
  -26.2983  -15.6263   20.1285 H   0  0  0  0  0  0
  -26.7140  -32.5486   23.1125 H   0  0  0  0  0  0
  -24.9981  -33.9737   25.0391 H   0  0  0  0  0  0
  -22.7045  -31.3044   21.4107 H   0  0  0  0  0  0
  -23.3760  -35.9637   23.3255 H   0  0  0  0  0  0
  -24.3594  -36.8980   22.2058 H   0  0  0  0  0  0
  -23.7229  -37.6498   23.6674 H   0  0  0  0  0  0
  -26.0685  -31.5812   20.6013 H   0  0  0  0  0  0
  -26.8326  -30.8625   21.9914 H   0  0  0  0  0  0
  -28.1015  -29.0125   21.2168 H   0  0  0  0  0  0
  -26.0212  -25.9517   19.0068 H   0  0  0  0  0  0
  -23.9725  -27.3208   18.9969 H   0  0  0  0  0  0
  -23.7243  -30.6042   19.4033 H   0  0  0  0  0  0
  -22.7465  -29.2438   19.8658 H   0  0  0  0  0  0
  -25.1285  -36.1957   25.0820 H   0  0  0  0  0  0
  -20.9950  -28.3222   24.1432 H   0  0  0  0  0  0
  -20.5650  -26.2262   23.3606 H   0  0  0  0  0  0
  -21.6628  -26.7429   22.1207 H   0  0  0  0  0  0
  -19.6897  -25.6296   21.1230 H   0  0  0  0  0  0
  -19.6687  -27.3194   20.6744 H   0  0  0  0  0  0
  -17.4190  -26.6659   21.4022 H   0  0  0  0  0  0
  -18.0321  -26.0056   22.9014 H   0  0  0  0  0  0
  -19.7919  -30.7246   24.2279 H   0  0  0  0  0  0
  -17.5005  -31.6267   24.5136 H   0  0  0  0  0  0
  -15.5337  -30.2991   23.7636 H   0  0  0  0  0  0
  -15.8653  -28.0816   22.7070 H   0  0  0  0  0  0
  -24.5919  -30.7011   25.7787 H   0  0  0  0  0  0
  -24.8907  -32.2812   26.4916 H   0  0  0  0  0  0
  -25.8083  -30.8832   27.0211 H   0  0  0  0  0  0
  -26.2822  -29.6772   24.1161 H   0  0  0  0  0  0
  -27.4018  -29.7218   25.4572 H   0  0  0  0  0  0
  -27.8682  -30.4267   23.9277 H   0  0  0  0  0  0
  -27.2674  -33.3571   26.2080 H   0  0  0  0  0  0
  -28.3862  -32.6838   25.0318 H   0  0  0  0  0  0
  -28.0714  -31.8383   26.5393 H   0  0  0  0  0  0
  -28.2566  -38.0147   24.7575 H   0  0  0  0  0  0
  -28.1142  -36.2684   24.6177 H   0  0  0  0  0  0
  -27.2325  -37.1324   25.8855 H   0  0  0  0  0  0
  -20.9322  -29.8803   21.6982 H   0  0  0  0  0  0
  -26.0178  -38.2863   24.1457 H   0  0  0  0  0  0
  -28.5749  -19.1777   20.3185 H   0  0  0  0  0  0
  -31.4088  -22.2799   21.2805 H   0  0  0  0  0  0
  -30.9511  -16.8799   19.4118 H   0  0  0  0  0  0
  -29.6359  -15.8569   21.9764 H   0  0  0  0  0  0
  -27.1359  -25.8622   21.8632 H   0  0  0  0  0  0
  -32.6818  -17.0254   21.9178 H   0  0  0  0  0  0
  -33.8889  -18.2782   21.8228 H   0  0  0  0  0  0
  -33.3308  -17.5036   20.3457 H   0  0  0  0  0  0
  -35.7380  -23.1160   21.6560 H   0  0  0  0  0  0
  -35.8975  -21.5919   20.7895 H   0  0  0  0  0  0
  -35.7778  -21.5969   22.5499 H   0  0  0  0  0  0
  -33.5722  -22.4482   20.6038 H   0  0  0  0  0  0
  -33.4317  -22.5145   22.3655 H   0  0  0  0  0  0
  -28.0255  -21.7351   21.2774 H   0  0  0  0  0  0
  -26.8331  -24.1049   22.6464 H   0  0  0  0  0  0
  1 25  1  0  0  0
  1 30  2  0  0  0
  1 78  1  0  0  0
  2  3  1  0  0  0
  2 25  1  0  0  0
  2 89  1  0  0  0
  2 90  1  0  0  0
  3  4  1  0  0  0
  3 91  1  0  0  0
  3 92  1  0  0  0
  4  5  1  0  0  0
  4 93  1  0  0  0
  4 94  1  0  0  0
  5  6  1  0  0  0
  5 26  1  0  0  0
  5 95  1  0  0  0
  6 25  1  0  0  0
  6 96  1  0  0  0
  6 97  1  0  0  0
  7  8  2  0  0  0
  7 26  1  0  0  0
  7 29  1  0  0  0
  8  9  1  0  0  0
  8 22  1  0  0  0
  9 10  1  0  0  0
  9 27  2  0  0  0
 10 11  2  0  0  0
 10 15  1  0  0  0
 11 12  1  0  0  0
 11 98  1  0  0  0
 12 13  2  0  0  0
 12 99  1  0  0  0
 13 14  1  0  0  0
 13 31  1  0  0  0
 14 15  2  0  0  0
 14100  1  0  0  0
 15101  1  0  0  0
 16 17  2  0  0  0
 16 21  1  0  0  0
 16 31  1  0  0  0
 17 18  1  0  0  0
 17102  1  0  0  0
 18 19  2  0  0  0
 18103  1  0  0  0
 19 20  1  0  0  0
 19 24  1  0  0  0
 20 21  2  0  0  0
 20104  1  0  0  0
 21 23  1  0  0  0
 22 28  1  0  0  0
 22 32  2  0  0  0
 26 27  1  0  0  0
 28105  1  0  0  0
 28106  1  0  0  0
 29107  1  0  0  0
 29108  1  0  0  0
 33 34  1  0  0  0
 33 66  1  0  0  0
 33 70  2  0  0  0
 34 36  1  0  0  0
 34 59  1  0  0  0
 34109  1  0  0  0
 35 44  2  0  0  0
 35 45  1  0  0  0
 35 68  1  0  0  0
 36 56  1  0  0  0
 36110  1  0  0  0
 37 39  1  0  0  0
 37 47  1  0  0  0
 37 66  1  0  0  0
 37111  1  0  0  0
 38 43  2  0  0  0
 38 46  1  0  0  0
 38 47  1  0  0  0
 39 64  1  0  0  0
 39 67  2  0  0  0
 40 52  1  0  0  0
 40 53  2  0  0  0
 40 58  1  0  0  0
 41112  1  0  0  0
 41113  1  0  0  0
 41114  1  0  0  0
 41 48  1  0  0  0
 42 43  1  0  0  0
 42 66  1  0  0  0
 42115  1  0  0  0
 42116  1  0  0  0
 43 44  1  0  0  0
 44117  1  0  0  0
 45 46  2  0  0  0
 45118  1  0  0  0
 46119  1  0  0  0
 47120  1  0  0  0
 47121  1  0  0  0
 48 56  1  0  0  0
 48 65  1  0  0  0
 48122  1  0  0  0
 49 50  1  0  0  0
 49 53  1  0  0  0
 49 64  1  0  0  0
 49123  1  0  0  0
 50 51  1  0  0  0
 50124  1  0  0  0
 50125  1  0  0  0
 51 52  1  0  0  0
 51126  1  0  0  0
 51127  1  0  0  0
 52128  1  0  0  0
 52129  1  0  0  0
 53 54  1  0  0  0
 54 55  2  0  0  0
 54130  1  0  0  0
 55 57  1  0  0  0
 55131  1  0  0  0
 56 69  2  0  0  0
 57 58  2  0  0  0
 57132  1  0  0  0
 58133  1  0  0  0
 59 60  1  0  0  0
 59 61  1  0  0  0
 59 62  1  0  0  0
 60134  1  0  0  0
 60135  1  0  0  0
 60136  1  0  0  0
 61137  1  0  0  0
 61138  1  0  0  0
 61139  1  0  0  0
 62140  1  0  0  0
 62141  1  0  0  0
 62142  1  0  0  0
 63 65  1  0  0  0
 63143  1  0  0  0
 63144  1  0  0  0
 63145  1  0  0  0
 64146  1  0  0  0
 65147  1  0  0  0
 68 79  1  0  0  0
 71 73  2  0  0  0
 71 75  1  0  0  0
 71148  1  0  0  0
 72 75  2  0  0  0
 72 76  1  0  0  0
 72149  1  0  0  0
 73 74  1  0  0  0
 73 77  1  0  0  0
 74 76  2  0  0  0
 74 82  1  0  0  0
 75 85  1  0  0  0
 76 88  1  0  0  0
 77 78  2  0  0  0
 77150  1  0  0  0
 78151  1  0  0  0
 79 80  2  0  0  0
 79152  1  0  0  0
 80 81  1  0  0  0
 80 87  1  0  0  0
 81 85  1  0  0  0
 81 86  2  0  0  0
 82153  1  0  0  0
 82154  1  0  0  0
 82155  1  0  0  0
 83 84  1  0  0  0
 83156  1  0  0  0
 83157  1  0  0  0
 83158  1  0  0  0
 84 88  1  0  0  0
 84159  1  0  0  0
 84160  1  0  0  0
 85161  1  0  0  0
 87162  1  0  0  0
M  ISO  4   1 100  68 101  78 100  79 101
M  END
> <chiral flag>
0

> <version>
0

> <s_m_source_file>
/data/baiqing/PycharmProjects/Reinvent-master-3.2/result/LINK_invent/BTK/process_docking_weight1_custom_product_contain_oxygen_bond_distance_aromatic_linkinvent_7_9_3/rearranged_h_0173.sdf

> <i_m_source_file_index>
83

> <r_mmod_Potential_Energy-OPLS-2005>
146.804748535156

> <r_mmod_Stretch_Energy-OPLS-2005>
65.4853515625

> <r_mmod_Bend_Energy-OPLS-2005>
180.139450073242

> <r_mmod_Torsional_Energy-OPLS-2005>
273.478820800781

> <r_mmod_Improper_Torsional_Energy-OPLS-2005>
11.5523662567139

> <r_mmod_Van_der_Waal_Energy-OPLS-2005>
175.761138916016

> <r_mmod_Electrostatic_Energy-OPLS-2005>
-384.802215576172

> <r_mmod_Solvation_Energy-OPLS-2005>
-222.65478515625

> <b_mmod_Minimization_Converged-OPLS-2005>
0

> <r_mmod_RMS_Derivative-OPLS-2005>
2.15900373458862

$$$$
83
                    3D
 Structure written by MMmdl.
168176  0  0  1  0            999 V2000
  -30.7138  -14.4036   20.6047 C   0  0  0  0  0  0
  -30.4216  -12.2768   19.4033 C   0  0  0  0  0  0
  -29.4899  -12.5126   18.1972 C   0  0  0  0  0  0
  -28.0101  -12.3789   18.6095 C   0  0  0  0  0  0
  -27.6664  -13.1977   19.8816 C   0  0  2  0  0  0
  -28.7056  -12.9339   20.9946 C   0  0  0  0  0  0
  -25.2611  -13.8130   20.5678 C   0  0  0  0  0  0
  -24.1849  -13.0428   20.9187 C   0  0  0  0  0  0
  -24.6386  -11.6894   20.8739 C   0  0  0  0  0  0
  -23.9046  -10.4289   21.0409 C   0  0  0  0  0  0
  -24.3602   -9.4205   21.9184 C   0  0  0  0  0  0
  -23.6286   -8.2236   22.0753 C   0  0  0  0  0  0
  -22.4266   -8.0276   21.3541 C   0  0  0  0  0  0
  -21.9895   -9.0251   20.4646 C   0  0  0  0  0  0
  -22.7222  -10.2131   20.3056 C   0  0  0  0  0  0
  -21.6849   -6.0732   22.5278 C   0  0  0  0  0  0
  -21.4011   -6.5636   23.8211 C   0  0  0  0  0  0
  -21.3655   -5.6792   24.9173 C   0  0  0  0  0  0
  -21.6045   -4.3055   24.7225 C   0  0  0  0  0  0
  -21.8818   -3.8145   23.4347 C   0  0  0  0  0  0
  -21.9193   -4.6961   22.3406 C   0  0  0  0  0  0
  -22.7875  -13.5244   21.1849 C   0  0  0  0  0  0
  -22.1663   -4.2147   21.0981 F   0  0  0  0  0  0
  -21.5626   -3.4536   25.7738 F   0  0  0  0  0  0
  -30.0437  -13.2329   20.4525 N   0  0  0  0  0  0
  -26.3041  -12.9285   20.3385 N   0  0  0  0  0  0
  -25.9307  -11.6453   20.5768 N   0  0  0  0  0  0
  -22.0504  -12.8243   22.0399 N   0  0  0  0  0  0
  -25.4373  -15.1832   20.4044 N   0  0  0  0  0  0
  -31.8213  -14.6227   20.1036 O   0  0  0  0  0  0
  -21.6634   -6.8874   21.4238 O   0  0  0  0  0  0
  -22.3577  -14.5558   20.6704 O   0  0  0  0  0  0
  -24.6104  -31.8706   23.2141 C   0  0  0  0  0  0
  -25.9021  -32.4831   23.8422 C   0  0  1  0  0  0
  -27.2411  -27.4752   20.0698 C   0  0  0  0  0  0
  -25.5899  -33.8632   24.2350 N   0  0  0  0  0  0
  -23.3948  -30.4936   21.5551 C   0  0  2  0  0  0
  -24.8392  -28.9583   20.1205 C   0  0  0  0  0  0
  -22.7376  -29.4673   22.5042 C   0  0  0  0  0  0
  -18.0258  -28.1372   22.8495 C   0  0  0  0  0  0
  -24.1486  -36.7333   23.2638 C   0  0  0  0  0  0
  -25.9200  -30.8414   21.3643 C   0  0  0  0  0  0
  -25.9948  -29.4767   20.7159 C   0  0  0  0  0  0
  -27.1927  -28.7353   20.6999 C   0  0  0  0  0  0
  -26.0630  -26.9522   19.4866 C   0  0  0  0  0  0
  -24.8640  -27.6910   19.5121 C   0  0  0  0  0  0
  -23.5993  -29.8210   20.1710 C   0  0  0  0  0  0
  -25.4101  -36.3120   24.0339 C   0  0  1  0  0  0
  -20.5844  -28.3650   23.1349 C   0  0  2  0  0  0
  -20.6748  -26.9394   22.5433 C   0  0  0  0  0  0
  -19.5735  -26.6380   21.5218 C   0  0  0  0  0  0
  -18.1908  -26.7926   22.1612 C   0  0  0  0  0  0
  -19.1505  -28.8825   23.2915 C   0  0  0  0  0  0
  -18.9437  -30.1437   23.8915 C   0  0  0  0  0  0
  -17.6442  -30.6584   24.0561 C   0  0  0  0  0  0
  -25.9027  -34.9481   23.5138 C   0  0  0  0  0  0
  -16.5333  -29.9086   23.6326 C   0  0  0  0  0  0
  -16.7250  -28.6503   23.0346 C   0  0  0  0  0  0
  -26.4456  -31.6604   25.0746 C   0  0  0  0  0  0
  -25.3729  -31.3724   26.1506 C   0  0  0  0  0  0
  -27.0268  -30.3036   24.6124 C   0  0  0  0  0  0
  -27.6058  -32.4301   25.7496 C   0  0  0  0  0  0
  -27.5581  -37.1816   24.8452 C   0  0  0  0  0  0
  -21.4113  -29.3026   22.3768 N   0  0  0  0  0  0
  -26.4290  -37.3798   23.9405 N   0  0  0  0  0  0
  -24.6598  -31.0833   22.1029 N   0  0  0  0  0  0
  -23.4168  -28.8223   23.3070 O   0  0  0  0  0  0
  -28.4501  -26.8234   20.0490 O   0  0  0  0  0  0
  -26.5587  -34.8924   22.4697 O   0  0  0  0  0  0
  -23.5308  -32.1461   23.7552 O   0  0  0  0  0  0
  -29.0997  -17.4346   20.4056 C   0  0  0  0  0  0
  -31.3530  -17.4264   21.3198 C   0  0  0  0  0  0
  -29.2081  -18.8053   20.0661 C   0  0  0  0  0  0
  -30.4159  -19.4961   20.3889 C   0  0  0  0  0  0
  -30.1686  -16.7387   21.0000 C   0  0  0  0  0  0
  -31.4747  -18.7906   21.0118 C   0  0  0  0  0  0
  -28.0669  -19.4492   19.3571 C   0  0  0  0  0  0
  -30.1060  -25.4428   19.0015 C   0  0  0  0  0  0
  -28.2004  -23.3861   22.0626 C   0  0  0  0  0  0
  -30.7200  -21.5886   22.5269 C   0  0  0  0  0  0
  -30.6528  -20.9722   20.0443 C   0  0  0  0  0  0
  -28.6117  -25.7275   19.1564 C   0  0  0  0  0  0
  -30.5473  -23.9868   19.0552 C   0  0  0  0  0  0
  -28.7153  -22.2569   21.1485 C   0  0  0  0  0  0
  -30.2531  -22.0257   21.1246 C   0  0  1  0  0  0
  -26.9362  -18.9222   19.1447 N   0  0  0  0  0  0
  -30.0269  -15.3541   21.2554 N   0  0  0  0  0  0
  -30.9296  -26.3539   18.8572 O   0  0  0  0  0  0
  -32.6384  -19.4196   21.3047 F   0  0  0  0  0  0
  -31.1237  -23.5823   20.7373 S   0  0  0  0  0  0
  -31.4657  -12.3755   19.1014 H   0  0  0  0  0  0
  -30.3166  -11.2562   19.7742 H   0  0  0  0  0  0
  -29.7188  -11.8053   17.3992 H   0  0  0  0  0  0
  -29.6670  -13.5069   17.7837 H   0  0  0  0  0  0
  -27.8095  -11.3216   18.7852 H   0  0  0  0  0  0
  -27.3612  -12.6768   17.7851 H   0  0  0  0  0  0
  -27.7242  -14.2520   19.6101 H   0  0  0  0  0  0
  -28.6696  -11.8871   21.3001 H   0  0  0  0  0  0
  -28.4688  -13.5005   21.8958 H   0  0  0  0  0  0
  -25.2744   -9.5683   22.4759 H   0  0  0  0  0  0
  -23.9997   -7.4625   22.7462 H   0  0  0  0  0  0
  -21.0828   -8.8767   19.8954 H   0  0  0  0  0  0
  -22.3679  -10.9669   19.6168 H   0  0  0  0  0  0
  -21.1999   -7.6144   23.9715 H   0  0  0  0  0  0
  -21.1477   -6.0519   25.9076 H   0  0  0  0  0  0
  -22.0600   -2.7607   23.2845 H   0  0  0  0  0  0
  -22.4093  -11.9892   22.4783 H   0  0  0  0  0  0
  -21.1128  -13.1288   22.2610 H   0  0  0  0  0  0
  -24.6703  -15.8415   20.4885 H   0  0  0  0  0  0
  -26.2799  -15.5956   20.0307 H   0  0  0  0  0  0
  -26.7096  -32.5545   23.1196 H   0  0  0  0  0  0
  -25.0047  -33.9798   25.0492 H   0  0  0  0  0  0
  -22.6818  -31.3093   21.4178 H   0  0  0  0  0  0
  -23.3731  -35.9683   23.3297 H   0  0  0  0  0  0
  -24.3580  -36.8950   22.2054 H   0  0  0  0  0  0
  -23.7254  -37.6547   23.6648 H   0  0  0  0  0  0
  -26.0287  -31.6059   20.5939 H   0  0  0  0  0  0
  -26.8098  -30.8956   21.9800 H   0  0  0  0  0  0
  -28.0889  -29.1354   21.1533 H   0  0  0  0  0  0
  -26.0493  -25.9845   19.0069 H   0  0  0  0  0  0
  -23.9719  -27.2822   19.0579 H   0  0  0  0  0  0
  -23.7011  -30.5918   19.4063 H   0  0  0  0  0  0
  -22.7241  -29.2355   19.8827 H   0  0  0  0  0  0
  -25.1274  -36.1992   25.0833 H   0  0  0  0  0  0
  -20.9928  -28.3209   24.1470 H   0  0  0  0  0  0
  -20.5641  -26.2262   23.3614 H   0  0  0  0  0  0
  -21.6622  -26.7445   22.1239 H   0  0  0  0  0  0
  -19.6898  -25.6295   21.1241 H   0  0  0  0  0  0
  -19.6687  -27.3193   20.6754 H   0  0  0  0  0  0
  -17.4195  -26.6690   21.3998 H   0  0  0  0  0  0
  -18.0290  -26.0056   22.8994 H   0  0  0  0  0  0
  -19.7913  -30.7240   24.2293 H   0  0  0  0  0  0
  -17.5001  -31.6266   24.5161 H   0  0  0  0  0  0
  -15.5332  -30.2987   23.7651 H   0  0  0  0  0  0
  -15.8647  -28.0828   22.7051 H   0  0  0  0  0  0
  -24.5920  -30.7036   25.7868 H   0  0  0  0  0  0
  -24.8892  -32.2881   26.4922 H   0  0  0  0  0  0
  -25.8095  -30.8942   27.0285 H   0  0  0  0  0  0
  -26.2817  -29.6822   24.1142 H   0  0  0  0  0  0
  -27.3981  -29.7250   25.4597 H   0  0  0  0  0  0
  -27.8682  -30.4333   23.9308 H   0  0  0  0  0  0
  -27.2706  -33.3586   26.2128 H   0  0  0  0  0  0
  -28.3843  -32.6878   25.0303 H   0  0  0  0  0  0
  -28.0757  -31.8387   26.5365 H   0  0  0  0  0  0
  -28.2607  -38.0104   24.7485 H   0  0  0  0  0  0
  -28.1068  -36.2639   24.6275 H   0  0  0  0  0  0
  -27.2311  -37.1474   25.8859 H   0  0  0  0  0  0
  -20.9272  -29.8744   21.6987 H   0  0  0  0  0  0
  -26.0183  -38.2883   24.1388 H   0  0  0  0  0  0
  -28.2003  -16.8877   20.1641 H   0  0  0  0  0  0
  -32.1815  -16.9123   21.7850 H   0  0  0  0  0  0
  -28.2233  -20.4627   18.9868 H   0  0  0  0  0  0
  -27.1158  -23.4711   21.9858 H   0  0  0  0  0  0
  -28.6143  -24.3580   21.7975 H   0  0  0  0  0  0
  -28.4319  -23.2009   23.1107 H   0  0  0  0  0  0
  -30.2178  -20.6811   22.8623 H   0  0  0  0  0  0
  -30.5294  -22.3584   23.2735 H   0  0  0  0  0  0
  -31.7938  -21.4027   22.5434 H   0  0  0  0  0  0
  -30.2175  -21.2067   19.0755 H   0  0  0  0  0  0
  -31.7224  -21.0772   19.8567 H   0  0  0  0  0  0
  -28.0932  -24.8472   19.5352 H   0  0  0  0  0  0
  -28.2055  -25.9652   18.1728 H   0  0  0  0  0  0
  -31.3505  -23.8164   18.3388 H   0  0  0  0  0  0
  -29.7139  -23.3570   18.7531 H   0  0  0  0  0  0
  -28.3467  -22.4480   20.1423 H   0  0  0  0  0  0
  -28.2256  -21.3357   21.4640 H   0  0  0  0  0  0
  -26.8747  -17.9861   19.5245 H   0  0  0  0  0  0
  -29.1232  -15.0473   21.5826 H   0  0  0  0  0  0
  1 25  1  0  0  0
  1 30  2  0  0  0
  1 87  1  0  0  0
  2  3  1  0  0  0
  2 25  1  0  0  0
  2 91  1  0  0  0
  2 92  1  0  0  0
  3  4  1  0  0  0
  3 93  1  0  0  0
  3 94  1  0  0  0
  4  5  1  0  0  0
  4 95  1  0  0  0
  4 96  1  0  0  0
  5  6  1  0  0  0
  5 26  1  0  0  0
  5 97  1  0  0  0
  6 25  1  0  0  0
  6 98  1  0  0  0
  6 99  1  0  0  0
  7  8  2  0  0  0
  7 26  1  0  0  0
  7 29  1  0  0  0
  8  9  1  0  0  0
  8 22  1  0  0  0
  9 10  1  0  0  0
  9 27  2  0  0  0
 10 11  2  0  0  0
 10 15  1  0  0  0
 11 12  1  0  0  0
 11100  1  0  0  0
 12 13  2  0  0  0
 12101  1  0  0  0
 13 14  1  0  0  0
 13 31  1  0  0  0
 14 15  2  0  0  0
 14102  1  0  0  0
 15103  1  0  0  0
 16 17  2  0  0  0
 16 21  1  0  0  0
 16 31  1  0  0  0
 17 18  1  0  0  0
 17104  1  0  0  0
 18 19  2  0  0  0
 18105  1  0  0  0
 19 20  1  0  0  0
 19 24  1  0  0  0
 20 21  2  0  0  0
 20106  1  0  0  0
 21 23  1  0  0  0
 22 28  1  0  0  0
 22 32  2  0  0  0
 26 27  1  0  0  0
 28107  1  0  0  0
 28108  1  0  0  0
 29109  1  0  0  0
 29110  1  0  0  0
 33 34  1  0  0  0
 33 66  1  0  0  0
 33 70  2  0  0  0
 34 36  1  0  0  0
 34 59  1  0  0  0
 34111  1  0  0  0
 35 44  2  0  0  0
 35 45  1  0  0  0
 35 68  1  0  0  0
 36 56  1  0  0  0
 36112  1  0  0  0
 37 39  1  0  0  0
 37 47  1  0  0  0
 37 66  1  0  0  0
 37113  1  0  0  0
 38 43  2  0  0  0
 38 46  1  0  0  0
 38 47  1  0  0  0
 39 64  1  0  0  0
 39 67  2  0  0  0
 40 52  1  0  0  0
 40 53  2  0  0  0
 40 58  1  0  0  0
 41114  1  0  0  0
 41115  1  0  0  0
 41116  1  0  0  0
 41 48  1  0  0  0
 42 43  1  0  0  0
 42 66  1  0  0  0
 42117  1  0  0  0
 42118  1  0  0  0
 43 44  1  0  0  0
 44119  1  0  0  0
 45 46  2  0  0  0
 45120  1  0  0  0
 46121  1  0  0  0
 47122  1  0  0  0
 47123  1  0  0  0
 48 56  1  0  0  0
 48 65  1  0  0  0
 48124  1  0  0  0
 49 50  1  0  0  0
 49 53  1  0  0  0
 49 64  1  0  0  0
 49125  1  0  0  0
 50 51  1  0  0  0
 50126  1  0  0  0
 50127  1  0  0  0
 51 52  1  0  0  0
 51128  1  0  0  0
 51129  1  0  0  0
 52130  1  0  0  0
 52131  1  0  0  0
 53 54  1  0  0  0
 54 55  2  0  0  0
 54132  1  0  0  0
 55 57  1  0  0  0
 55133  1  0  0  0
 56 69  2  0  0  0
 57 58  2  0  0  0
 57134  1  0  0  0
 58135  1  0  0  0
 59 60  1  0  0  0
 59 61  1  0  0  0
 59 62  1  0  0  0
 60136  1  0  0  0
 60137  1  0  0  0
 60138  1  0  0  0
 61139  1  0  0  0
 61140  1  0  0  0
 61141  1  0  0  0
 62142  1  0  0  0
 62143  1  0  0  0
 62144  1  0  0  0
 63 65  1  0  0  0
 63145  1  0  0  0
 63146  1  0  0  0
 63147  1  0  0  0
 64148  1  0  0  0
 65149  1  0  0  0
 68 82  1  0  0  0
 71 73  2  0  0  0
 71 75  1  0  0  0
 71150  1  0  0  0
 72 75  2  0  0  0
 72 76  1  0  0  0
 72151  1  0  0  0
 73 74  1  0  0  0
 73 77  1  0  0  0
 74 76  2  0  0  0
 74 81  1  0  0  0
 75 87  1  0  0  0
 76 89  1  0  0  0
 77 86  2  0  0  0
 77152  1  0  0  0
 78 82  1  0  0  0
 78 83  1  0  0  0
 78 88  2  0  0  0
 79 84  1  0  0  0
 79153  1  0  0  0
 79154  1  0  0  0
 79155  1  0  0  0
 80156  1  0  0  0
 80157  1  0  0  0
 80158  1  0  0  0
 80 85  1  0  0  0
 81 85  1  0  0  0
 81159  1  0  0  0
 81160  1  0  0  0
 82161  1  0  0  0
 82162  1  0  0  0
 83 90  1  0  0  0
 83163  1  0  0  0
 83164  1  0  0  0
 84 85  1  0  0  0
 84165  1  0  0  0
 84166  1  0  0  0
 85 90  1  0  0  0
 86167  1  0  0  0
 87168  1  0  0  0
M  ISO  4   1 100  68 101  82 101  87 100
M  END
> <chiral flag>
0

> <version>
0

> <s_m_source_file>
/data/baiqing/PycharmProjects/Reinvent-master-3.2/result/LINK_invent/BTK/process_docking_weight1_custom_product_contain_oxygen_bond_distance_aromatic_linkinvent_7_9_3/rearranged_h_0173.sdf

> <i_m_source_file_index>
84

> <r_mmod_Potential_Energy-OPLS-2005>
-41.2610473632812

> <r_mmod_Stretch_Energy-OPLS-2005>
36.0254173278809

> <r_mmod_Bend_Energy-OPLS-2005>
102.907066345215

> <r_mmod_Torsional_Energy-OPLS-2005>
245.209686279297

> <r_mmod_Improper_Torsional_Energy-OPLS-2005>
5.06244134902954

> <r_mmod_Van_der_Waal_Energy-OPLS-2005>
156.913238525391

> <r_mmod_Electrostatic_Energy-OPLS-2005>
-347.243133544922

> <r_mmod_Solvation_Energy-OPLS-2005>
-249.210311889648

> <b_mmod_Minimization_Converged-OPLS-2005>
0

> <r_mmod_RMS_Derivative-OPLS-2005>
1.06937456130981

$$$$
84
                    3D
 Structure written by MMmdl.
159167  0  0  1  0            999 V2000
  -30.6167  -14.6401   20.5286 C   0  0  0  0  0  0
  -30.4507  -12.3965   19.4574 C   0  0  0  0  0  0
  -29.5157  -12.4960   18.2302 C   0  0  0  0  0  0
  -28.0381  -12.3350   18.6413 C   0  0  0  0  0  0
  -27.6588  -13.2093   19.8659 C   0  0  2  0  0  0
  -28.7013  -13.0519   20.9966 C   0  0  0  0  0  0
  -25.2594  -13.8159   20.5675 C   0  0  0  0  0  0
  -24.1846  -13.0438   20.9178 C   0  0  0  0  0  0
  -24.6399  -11.6900   20.8727 C   0  0  0  0  0  0
  -23.9055  -10.4294   21.0407 C   0  0  0  0  0  0
  -24.3609   -9.4212   21.9187 C   0  0  0  0  0  0
  -23.6282   -8.2244   22.0754 C   0  0  0  0  0  0
  -22.4270   -8.0281   21.3538 C   0  0  0  0  0  0
  -21.9894   -9.0262   20.4651 C   0  0  0  0  0  0
  -22.7216  -10.2145   20.3061 C   0  0  0  0  0  0
  -21.6855   -6.0735   22.5275 C   0  0  0  0  0  0
  -21.4022   -6.5642   23.8209 C   0  0  0  0  0  0
  -21.3652   -5.6789   24.9166 C   0  0  0  0  0  0
  -21.6042   -4.3055   24.7218 C   0  0  0  0  0  0
  -21.8819   -3.8146   23.4341 C   0  0  0  0  0  0
  -21.9198   -4.6960   22.3397 C   0  0  0  0  0  0
  -22.7872  -13.5246   21.1836 C   0  0  0  0  0  0
  -22.1662   -4.2147   21.0975 F   0  0  0  0  0  0
  -21.5621   -3.4534   25.7730 F   0  0  0  0  0  0
  -30.0206  -13.4072   20.4448 N   0  0  0  0  0  0
  -26.3015  -12.9321   20.3317 N   0  0  0  0  0  0
  -25.9330  -11.6488   20.5760 N   0  0  0  0  0  0
  -22.0505  -12.8264   22.0405 N   0  0  0  0  0  0
  -25.4344  -15.1875   20.4092 N   0  0  0  0  0  0
  -31.7461  -14.8442   20.0727 O   0  0  0  0  0  0
  -21.6632   -6.8877   21.4237 O   0  0  0  0  0  0
  -22.3562  -14.5544   20.6662 O   0  0  0  0  0  0
  -24.6253  -31.8588   23.2017 C   0  0  0  0  0  0
  -25.9104  -32.4767   23.8338 C   0  0  1  0  0  0
  -27.2298  -27.3141   20.1078 C   0  0  0  0  0  0
  -25.5923  -33.8573   24.2258 N   0  0  0  0  0  0
  -23.4188  -30.4821   21.5442 C   0  0  2  0  0  0
  -24.8648  -28.9344   20.1099 C   0  0  0  0  0  0
  -22.7470  -29.4614   22.4924 C   0  0  0  0  0  0
  -18.0291  -28.1384   22.8493 C   0  0  0  0  0  0
  -24.1494  -36.7296   23.2625 C   0  0  0  0  0  0
  -25.9600  -30.7854   21.3753 C   0  0  0  0  0  0
  -26.0321  -29.4127   20.7164 C   0  0  0  0  0  0
  -27.2116  -28.6119   20.7085 C   0  0  0  0  0  0
  -26.0322  -26.8829   19.4896 C   0  0  0  0  0  0
  -24.8668  -27.6746   19.4918 C   0  0  0  0  0  0
  -23.6337  -29.8164   20.1591 C   0  0  0  0  0  0
  -25.4109  -36.3068   24.0321 C   0  0  1  0  0  0
  -20.5890  -28.3686   23.1287 C   0  0  2  0  0  0
  -20.6777  -26.9408   22.5415 C   0  0  0  0  0  0
  -19.5755  -26.6382   21.5218 C   0  0  0  0  0  0
  -18.1935  -26.7928   22.1628 C   0  0  0  0  0  0
  -19.1542  -28.8853   23.2889 C   0  0  0  0  0  0
  -18.9459  -30.1453   23.8902 C   0  0  0  0  0  0
  -17.6462  -30.6588   24.0562 C   0  0  0  0  0  0
  -25.9056  -34.9444   23.5086 C   0  0  0  0  0  0
  -16.5355  -29.9086   23.6333 C   0  0  0  0  0  0
  -16.7278  -28.6505   23.0353 C   0  0  0  0  0  0
  -26.4492  -31.6590   25.0714 C   0  0  0  0  0  0
  -25.3737  -31.3769   26.1461 C   0  0  0  0  0  0
  -27.0310  -30.2995   24.6185 C   0  0  0  0  0  0
  -27.6046  -32.4338   25.7478 C   0  0  0  0  0  0
  -27.5603  -37.1761   24.8432 C   0  0  0  0  0  0
  -21.4181  -29.3036   22.3671 N   0  0  0  0  0  0
  -26.4274  -37.3781   23.9439 N   0  0  0  0  0  0
  -24.6865  -31.0594   22.0965 N   0  0  0  0  0  0
  -23.4197  -28.8155   23.3005 O   0  0  0  0  0  0
  -28.3805  -26.5094   20.1725 O   0  0  0  0  0  0
  -26.5632  -34.8917   22.4658 O   0  0  0  0  0  0
  -23.5415  -32.1388   23.7344 O   0  0  0  0  0  0
  -29.6092  -17.8195   22.1994 C   0  0  0  0  0  0
  -29.9904  -17.8757   19.8355 C   0  0  0  0  0  0
  -29.4495  -19.2410   22.2405 C   0  0  0  0  0  0
  -29.8844  -17.0957   21.0166 C   0  0  0  0  0  0
  -29.5272  -20.0325   21.0403 C   0  0  0  0  0  0
  -29.8018  -19.2956   19.8443 C   0  0  0  0  0  0
  -29.1693  -19.8598   23.5695 C   0  0  0  0  0  0
  -30.6517  -22.6790   19.3408 C   0  0  0  0  0  0
  -28.7990  -23.9645   20.5742 C   0  0  0  0  0  0
  -30.6507  -22.9797   17.8473 C   0  0  0  0  0  0
  -28.4658  -25.1507   19.5783 C   0  0  0  0  0  0
  -29.2818  -22.5278   20.0346 C   0  0  2  0  0  0
  -29.1774  -19.2646   24.6905 N   0  0  0  0  0  0
  -29.8454  -15.6330   21.0694 N   0  0  0  0  0  0
  -29.3206  -21.4661   21.1004 N   0  0  0  0  0  0
  -31.7283  -22.5560   19.9324 O   0  0  0  0  0  0
  -28.6605  -24.1553   21.7897 O   0  0  0  0  0  0
  -29.8593  -19.9471   18.6574 F   0  0  0  0  0  0
  -31.4881  -12.5389   19.1507 H   0  0  0  0  0  0
  -30.4064  -11.3991   19.8982 H   0  0  0  0  0  0
  -29.7809  -11.7322   17.4974 H   0  0  0  0  0  0
  -29.6567  -13.4582   17.7356 H   0  0  0  0  0  0
  -27.8812  -11.2824   18.8809 H   0  0  0  0  0  0
  -27.3820  -12.5519   17.7973 H   0  0  0  0  0  0
  -27.6822  -14.2455   19.5292 H   0  0  0  0  0  0
  -28.7164  -12.0226   21.3583 H   0  0  0  0  0  0
  -28.4341  -13.6600   21.8616 H   0  0  0  0  0  0
  -25.2772   -9.5673   22.4744 H   0  0  0  0  0  0
  -23.9988   -7.4640   22.7474 H   0  0  0  0  0  0
  -21.0818   -8.8779   19.8971 H   0  0  0  0  0  0
  -22.3673  -10.9685   19.6161 H   0  0  0  0  0  0
  -21.2020   -7.6151   23.9709 H   0  0  0  0  0  0
  -21.1470   -6.0524   25.9070 H   0  0  0  0  0  0
  -22.0608   -2.7608   23.2842 H   0  0  0  0  0  0
  -22.4117  -11.9938   22.4820 H   0  0  0  0  0  0
  -21.1127  -13.1310   22.2596 H   0  0  0  0  0  0
  -24.6711  -15.8467   20.5200 H   0  0  0  0  0  0
  -26.2887  -15.6237   20.0864 H   0  0  0  0  0  0
  -26.7163  -32.5431   23.1077 H   0  0  0  0  0  0
  -25.0062  -33.9716   25.0394 H   0  0  0  0  0  0
  -22.7130  -31.3028   21.4015 H   0  0  0  0  0  0
  -23.3764  -35.9614   23.3218 H   0  0  0  0  0  0
  -24.3606  -36.8989   22.2055 H   0  0  0  0  0  0
  -23.7227  -37.6465   23.6699 H   0  0  0  0  0  0
  -26.0962  -31.5493   20.6085 H   0  0  0  0  0  0
  -26.8385  -30.8295   22.0075 H   0  0  0  0  0  0
  -28.1071  -28.9749   21.1924 H   0  0  0  0  0  0
  -25.9437  -25.9215   19.0115 H   0  0  0  0  0  0
  -23.9680  -27.3009   19.0194 H   0  0  0  0  0  0
  -23.7538  -30.5935   19.4035 H   0  0  0  0  0  0
  -22.7529  -29.2476   19.8552 H   0  0  0  0  0  0
  -25.1275  -36.1890   25.0807 H   0  0  0  0  0  0
  -20.9994  -28.3267   24.1405 H   0  0  0  0  0  0
  -20.5680  -26.2295   23.3614 H   0  0  0  0  0  0
  -21.6647  -26.7436   22.1209 H   0  0  0  0  0  0
  -19.6912  -25.6295   21.1241 H   0  0  0  0  0  0
  -19.6694  -27.3196   20.6753 H   0  0  0  0  0  0
  -17.4205  -26.6684   21.4031 H   0  0  0  0  0  0
  -18.0332  -26.0069   22.9023 H   0  0  0  0  0  0
  -19.7934  -30.7271   24.2277 H   0  0  0  0  0  0
  -17.5012  -31.6269   24.5163 H   0  0  0  0  0  0
  -15.5353  -30.2986   23.7652 H   0  0  0  0  0  0
  -15.8684  -28.0819   22.7065 H   0  0  0  0  0  0
  -24.5891  -30.7128   25.7821 H   0  0  0  0  0  0
  -24.8964  -32.2963   26.4868 H   0  0  0  0  0  0
  -25.8074  -30.8971   27.0243 H   0  0  0  0  0  0
  -26.2872  -29.6764   24.1203 H   0  0  0  0  0  0
  -27.3969  -29.7238   25.4697 H   0  0  0  0  0  0
  -27.8770  -30.4243   23.9421 H   0  0  0  0  0  0
  -27.2623  -33.3610   26.2087 H   0  0  0  0  0  0
  -28.3836  -32.6956   25.0306 H   0  0  0  0  0  0
  -28.0743  -31.8462   26.5372 H   0  0  0  0  0  0
  -28.2511  -38.0166   24.7631 H   0  0  0  0  0  0
  -28.1209  -36.2708   24.6045 H   0  0  0  0  0  0
  -27.2360  -37.1147   25.8835 H   0  0  0  0  0  0
  -20.9352  -29.8758   21.6882 H   0  0  0  0  0  0
  -26.0137  -38.2821   24.1552 H   0  0  0  0  0  0
  -29.4943  -17.2487   23.1094 H   0  0  0  0  0  0
  -30.1612  -17.3877   18.8872 H   0  0  0  0  0  0
  -28.9347  -20.9269   23.5677 H   0  0  0  0  0  0
  -29.7249  -22.6337   17.3887 H   0  0  0  0  0  0
  -31.4829  -22.4737   17.3586 H   0  0  0  0  0  0
  -30.7485  -24.0498   17.6710 H   0  0  0  0  0  0
  -27.5905  -24.8640   19.0039 H   0  0  0  0  0  0
  -29.2717  -25.1950   18.8477 H   0  0  0  0  0  0
  -28.5579  -22.1982   19.2895 H   0  0  0  0  0  0
  -29.4085  -18.2811   24.6023 H   0  0  0  0  0  0
  -29.0453  -15.2606   21.5599 H   0  0  0  0  0  0
  -29.2266  -21.8857   22.0190 H   0  0  0  0  0  0
  1 25  1  0  0  0
  1 30  2  0  0  0
  1 84  1  0  0  0
  2  3  1  0  0  0
  2 25  1  0  0  0
  2 89  1  0  0  0
  2 90  1  0  0  0
  3  4  1  0  0  0
  3 91  1  0  0  0
  3 92  1  0  0  0
  4  5  1  0  0  0
  4 93  1  0  0  0
  4 94  1  0  0  0
  5  6  1  0  0  0
  5 26  1  0  0  0
  5 95  1  0  0  0
  6 25  1  0  0  0
  6 96  1  0  0  0
  6 97  1  0  0  0
  7  8  2  0  0  0
  7 26  1  0  0  0
  7 29  1  0  0  0
  8  9  1  0  0  0
  8 22  1  0  0  0
  9 10  1  0  0  0
  9 27  2  0  0  0
 10 11  2  0  0  0
 10 15  1  0  0  0
 11 12  1  0  0  0
 11 98  1  0  0  0
 12 13  2  0  0  0
 12 99  1  0  0  0
 13 14  1  0  0  0
 13 31  1  0  0  0
 14 15  2  0  0  0
 14100  1  0  0  0
 15101  1  0  0  0
 16 17  2  0  0  0
 16 21  1  0  0  0
 16 31  1  0  0  0
 17 18  1  0  0  0
 17102  1  0  0  0
 18 19  2  0  0  0
 18103  1  0  0  0
 19 20  1  0  0  0
 19 24  1  0  0  0
 20 21  2  0  0  0
 20104  1  0  0  0
 21 23  1  0  0  0
 22 28  1  0  0  0
 22 32  2  0  0  0
 26 27  1  0  0  0
 28105  1  0  0  0
 28106  1  0  0  0
 29107  1  0  0  0
 29108  1  0  0  0
 33 34  1  0  0  0
 33 66  1  0  0  0
 33 70  2  0  0  0
 34 36  1  0  0  0
 34 59  1  0  0  0
 34109  1  0  0  0
 35 44  2  0  0  0
 35 45  1  0  0  0
 35 68  1  0  0  0
 36 56  1  0  0  0
 36110  1  0  0  0
 37 39  1  0  0  0
 37 47  1  0  0  0
 37 66  1  0  0  0
 37111  1  0  0  0
 38 43  2  0  0  0
 38 46  1  0  0  0
 38 47  1  0  0  0
 39 64  1  0  0  0
 39 67  2  0  0  0
 40 52  1  0  0  0
 40 53  2  0  0  0
 40 58  1  0  0  0
 41112  1  0  0  0
 41113  1  0  0  0
 41114  1  0  0  0
 41 48  1  0  0  0
 42 43  1  0  0  0
 42 66  1  0  0  0
 42115  1  0  0  0
 42116  1  0  0  0
 43 44  1  0  0  0
 44117  1  0  0  0
 45 46  2  0  0  0
 45118  1  0  0  0
 46119  1  0  0  0
 47120  1  0  0  0
 47121  1  0  0  0
 48 56  1  0  0  0
 48 65  1  0  0  0
 48122  1  0  0  0
 49 50  1  0  0  0
 49 53  1  0  0  0
 49 64  1  0  0  0
 49123  1  0  0  0
 50 51  1  0  0  0
 50124  1  0  0  0
 50125  1  0  0  0
 51 52  1  0  0  0
 51126  1  0  0  0
 51127  1  0  0  0
 52128  1  0  0  0
 52129  1  0  0  0
 53 54  1  0  0  0
 54 55  2  0  0  0
 54130  1  0  0  0
 55 57  1  0  0  0
 55131  1  0  0  0
 56 69  2  0  0  0
 57 58  2  0  0  0
 57132  1  0  0  0
 58133  1  0  0  0
 59 60  1  0  0  0
 59 61  1  0  0  0
 59 62  1  0  0  0
 60134  1  0  0  0
 60135  1  0  0  0
 60136  1  0  0  0
 61137  1  0  0  0
 61138  1  0  0  0
 61139  1  0  0  0
 62140  1  0  0  0
 62141  1  0  0  0
 62142  1  0  0  0
 63 65  1  0  0  0
 63143  1  0  0  0
 63144  1  0  0  0
 63145  1  0  0  0
 64146  1  0  0  0
 65147  1  0  0  0
 68 81  1  0  0  0
 71 73  2  0  0  0
 71 74  1  0  0  0
 71148  1  0  0  0
 72 74  2  0  0  0
 72 76  1  0  0  0
 72149  1  0  0  0
 73 75  1  0  0  0
 73 77  1  0  0  0
 74 84  1  0  0  0
 75 76  2  0  0  0
 75 85  1  0  0  0
 76 88  1  0  0  0
 77 83  2  0  0  0
 77150  1  0  0  0
 78 80  1  0  0  0
 78 82  1  0  0  0
 78 86  2  0  0  0
 79 81  1  0  0  0
 79 82  1  0  0  0
 79 87  2  0  0  0
 80151  1  0  0  0
 80152  1  0  0  0
 80153  1  0  0  0
 81154  1  0  0  0
 81155  1  0  0  0
 82 85  1  0  0  0
 82156  1  0  0  0
 83157  1  0  0  0
 84158  1  0  0  0
 85159  1  0  0  0
M  ISO  4   1 100  68 101  81 101  84 100
M  END
> <chiral flag>
0

> <version>
0

> <s_m_source_file>
/data/baiqing/PycharmProjects/Reinvent-master-3.2/result/LINK_invent/BTK/process_docking_weight1_custom_product_contain_oxygen_bond_distance_aromatic_linkinvent_7_9_3/rearranged_h_0173.sdf

> <i_m_source_file_index>
85

> <r_mmod_Potential_Energy-OPLS-2005>
119.475280761719

> <r_mmod_Stretch_Energy-OPLS-2005>
90.3936614990234

> <r_mmod_Bend_Energy-OPLS-2005>
171.981872558594

> <r_mmod_Torsional_Energy-OPLS-2005>
225.604797363281

> <r_mmod_Improper_Torsional_Energy-OPLS-2005>
3.58602666854858

> <r_mmod_Van_der_Waal_Energy-OPLS-2005>
148.552169799805

> <r_mmod_Electrostatic_Energy-OPLS-2005>
-296.014465332031

> <r_mmod_Solvation_Energy-OPLS-2005>
-272.386688232422

> <b_mmod_Minimization_Converged-OPLS-2005>
0

> <r_mmod_RMS_Derivative-OPLS-2005>
1.87245488166809

$$$$
85
                    3D
 Structure written by MMmdl.
156164  0  0  1  0            999 V2000
  -30.7394  -14.4509   20.5777 C   0  0  0  0  0  0
  -30.4072  -12.2994   19.4233 C   0  0  0  0  0  0
  -29.4875  -12.4908   18.2025 C   0  0  0  0  0  0
  -28.0087  -12.3583   18.6173 C   0  0  0  0  0  0
  -27.6538  -13.2121   19.8658 C   0  0  2  0  0  0
  -28.6952  -13.0251   20.9916 C   0  0  0  0  0  0
  -25.2537  -13.8187   20.5669 C   0  0  0  0  0  0
  -24.1813  -13.0451   20.9193 C   0  0  0  0  0  0
  -24.6379  -11.6920   20.8743 C   0  0  0  0  0  0
  -23.9060  -10.4296   21.0398 C   0  0  0  0  0  0
  -24.3597   -9.4216   21.9183 C   0  0  0  0  0  0
  -23.6279   -8.2251   22.0759 C   0  0  0  0  0  0
  -22.4270   -8.0280   21.3546 C   0  0  0  0  0  0
  -21.9895   -9.0250   20.4649 C   0  0  0  0  0  0
  -22.7218  -10.2137   20.3056 C   0  0  0  0  0  0
  -21.6853   -6.0735   22.5279 C   0  0  0  0  0  0
  -21.4010   -6.5639   23.8211 C   0  0  0  0  0  0
  -21.3659   -5.6794   24.9178 C   0  0  0  0  0  0
  -21.6048   -4.3057   24.7229 C   0  0  0  0  0  0
  -21.8819   -3.8144   23.4351 C   0  0  0  0  0  0
  -21.9186   -4.6962   22.3402 C   0  0  0  0  0  0
  -22.7833  -13.5247   21.1860 C   0  0  0  0  0  0
  -22.1660   -4.2142   21.0986 F   0  0  0  0  0  0
  -21.5628   -3.4541   25.7748 F   0  0  0  0  0  0
  -30.0217  -13.3064   20.4234 N   0  0  0  0  0  0
  -26.2977  -12.9360   20.3324 N   0  0  0  0  0  0
  -25.9299  -11.6520   20.5748 N   0  0  0  0  0  0
  -22.0471  -12.8241   22.0408 N   0  0  0  0  0  0
  -25.4255  -15.1904   20.4086 N   0  0  0  0  0  0
  -31.8887  -14.5476   20.1334 O   0  0  0  0  0  0
  -21.6644   -6.8871   21.4240 O   0  0  0  0  0  0
  -22.3525  -14.5547   20.6703 O   0  0  0  0  0  0
  -24.6132  -31.8672   23.2118 C   0  0  0  0  0  0
  -25.9036  -32.4827   23.8399 C   0  0  1  0  0  0
  -27.2254  -27.4438   20.0938 C   0  0  0  0  0  0
  -25.5903  -33.8621   24.2331 N   0  0  0  0  0  0
  -23.3993  -30.4934   21.5494 C   0  0  2  0  0  0
  -24.8459  -28.9539   20.1192 C   0  0  0  0  0  0
  -22.7385  -29.4682   22.4984 C   0  0  0  0  0  0
  -18.0272  -28.1376   22.8502 C   0  0  0  0  0  0
  -24.1486  -36.7332   23.2639 C   0  0  0  0  0  0
  -25.9261  -30.8352   21.3641 C   0  0  0  0  0  0
  -26.0039  -29.4679   20.7176 C   0  0  0  0  0  0
  -27.1999  -28.7164   20.7071 C   0  0  0  0  0  0
  -26.0560  -26.9388   19.4938 C   0  0  0  0  0  0
  -24.8645  -27.6870   19.5101 C   0  0  0  0  0  0
  -23.6097  -29.8226   20.1644 C   0  0  0  0  0  0
  -25.4101  -36.3113   24.0335 C   0  0  1  0  0  0
  -20.5859  -28.3668   23.1314 C   0  0  2  0  0  0
  -20.6764  -26.9403   22.5416 C   0  0  0  0  0  0
  -19.5738  -26.6393   21.5212 C   0  0  0  0  0  0
  -18.1920  -26.7928   22.1631 C   0  0  0  0  0  0
  -19.1517  -28.8834   23.2916 C   0  0  0  0  0  0
  -18.9455  -30.1443   23.8916 C   0  0  0  0  0  0
  -17.6456  -30.6585   24.0575 C   0  0  0  0  0  0
  -25.9032  -34.9476   23.5128 C   0  0  0  0  0  0
  -16.5346  -29.9089   23.6327 C   0  0  0  0  0  0
  -16.7263  -28.6509   23.0345 C   0  0  0  0  0  0
  -26.4492  -31.6595   25.0711 C   0  0  0  0  0  0
  -25.3776  -31.3707   26.1475 C   0  0  0  0  0  0
  -27.0323  -30.3030   24.6092 C   0  0  0  0  0  0
  -27.6086  -32.4302   25.7456 C   0  0  0  0  0  0
  -27.5577  -37.1804   24.8459 C   0  0  0  0  0  0
  -21.4116  -29.3046   22.3723 N   0  0  0  0  0  0
  -26.4293  -37.3792   23.9402 N   0  0  0  0  0  0
  -24.6645  -31.0794   22.1005 N   0  0  0  0  0  0
  -23.4167  -28.8232   23.3028 O   0  0  0  0  0  0
  -28.3915  -26.7230   20.0290 O   0  0  0  0  0  0
  -26.5586  -34.8929   22.4679 O   0  0  0  0  0  0
  -23.5334  -32.1448   23.7506 O   0  0  0  0  0  0
  -28.9171  -18.1517   20.1987 C   0  0  0  0  0  0
  -28.3112  -19.4070   19.9623 C   0  0  0  0  0  0
  -29.2343  -20.2285   22.0455 C   0  0  0  0  0  0
  -29.7511  -17.9388   21.3240 C   0  0  0  0  0  0
  -29.8734  -18.9936   22.2761 C   0  0  0  0  0  0
  -28.5153  -20.4807   20.8548 C   0  0  0  0  0  0
  -30.6238  -16.7027   21.3847 C   0  0  0  0  0  0
  -28.5818  -22.9735   20.8283 C   0  0  0  0  0  0
  -30.7344  -18.8909   23.5288 C   0  0  0  0  0  0
  -27.9499  -24.2438   20.2247 C   0  0  0  0  0  0
  -28.4591  -25.5654   20.8692 C   0  0  0  0  0  0
  -28.0227  -21.7818   20.5172 N   0  0  0  0  0  0
  -30.0671  -15.5170   21.0614 N   0  0  0  0  0  0
  -31.8091  -16.8339   21.7158 O   0  0  0  0  0  0
  -29.5804  -23.0782   21.5472 O   0  0  0  0  0  0
  -31.4524  -12.3728   19.1170 H   0  0  0  0  0  0
  -30.2954  -11.2963   19.8374 H   0  0  0  0  0  0
  -29.7245  -11.7542   17.4336 H   0  0  0  0  0  0
  -29.6623  -13.4693   17.7526 H   0  0  0  0  0  0
  -27.8169  -11.3054   18.8229 H   0  0  0  0  0  0
  -27.3598  -12.6270   17.7836 H   0  0  0  0  0  0
  -27.6889  -14.2549   19.5504 H   0  0  0  0  0  0
  -28.6696  -12.0044   21.3762 H   0  0  0  0  0  0
  -28.4635  -13.6655   21.8438 H   0  0  0  0  0  0
  -25.2739   -9.5708   22.4760 H   0  0  0  0  0  0
  -23.9991   -7.4650   22.7480 H   0  0  0  0  0  0
  -21.0823   -8.8761   19.8953 H   0  0  0  0  0  0
  -22.3659  -10.9674   19.6164 H   0  0  0  0  0  0
  -21.2002   -7.6145   23.9714 H   0  0  0  0  0  0
  -21.1481   -6.0527   25.9081 H   0  0  0  0  0  0
  -22.0592   -2.7605   23.2858 H   0  0  0  0  0  0
  -22.4062  -11.9904   22.4801 H   0  0  0  0  0  0
  -21.1087  -13.1274   22.2602 H   0  0  0  0  0  0
  -24.6545  -15.8408   20.5195 H   0  0  0  0  0  0
  -26.2708  -15.6346   20.0755 H   0  0  0  0  0  0
  -26.7096  -32.5552   23.1165 H   0  0  0  0  0  0
  -25.0048  -33.9781   25.0474 H   0  0  0  0  0  0
  -22.6876  -31.3099   21.4077 H   0  0  0  0  0  0
  -23.3726  -35.9695   23.3324 H   0  0  0  0  0  0
  -24.3578  -36.8922   22.2053 H   0  0  0  0  0  0
  -23.7273  -37.6556   23.6639 H   0  0  0  0  0  0
  -26.0323  -31.5982   20.5922 H   0  0  0  0  0  0
  -26.8153  -30.8921   21.9788 H   0  0  0  0  0  0
  -28.0974  -29.1054   21.1671 H   0  0  0  0  0  0
  -26.0719  -25.9777   18.9999 H   0  0  0  0  0  0
  -23.9748  -27.2841   19.0463 H   0  0  0  0  0  0
  -23.7217  -30.5961   19.4038 H   0  0  0  0  0  0
  -22.7342  -29.2432   19.8675 H   0  0  0  0  0  0
  -25.1278  -36.1977   25.0830 H   0  0  0  0  0  0
  -20.9963  -28.3235   24.1426 H   0  0  0  0  0  0
  -20.5668  -26.2271   23.3608 H   0  0  0  0  0  0
  -21.6635  -26.7455   22.1197 H   0  0  0  0  0  0
  -19.6898  -25.6308   21.1225 H   0  0  0  0  0  0
  -19.6663  -27.3219   20.6752 H   0  0  0  0  0  0
  -17.4187  -26.6680   21.4034 H   0  0  0  0  0  0
  -18.0320  -26.0060   22.9014 H   0  0  0  0  0  0
  -19.7929  -30.7264   24.2280 H   0  0  0  0  0  0
  -17.5011  -31.6264   24.5181 H   0  0  0  0  0  0
  -15.5345  -30.2998   23.7642 H   0  0  0  0  0  0
  -15.8668  -28.0846   22.7023 H   0  0  0  0  0  0
  -24.6004  -30.6964   25.7858 H   0  0  0  0  0  0
  -24.8902  -32.2860   26.4846 H   0  0  0  0  0  0
  -25.8170  -30.8982   27.0274 H   0  0  0  0  0  0
  -26.2873  -29.6774   24.1163 H   0  0  0  0  0  0
  -27.4103  -29.7279   25.4558 H   0  0  0  0  0  0
  -27.8705  -30.4340   23.9243 H   0  0  0  0  0  0
  -27.2716  -33.3566   26.2128 H   0  0  0  0  0  0
  -28.3846  -32.6918   25.0244 H   0  0  0  0  0  0
  -28.0829  -31.8365   26.5293 H   0  0  0  0  0  0
  -28.2613  -38.0084   24.7485 H   0  0  0  0  0  0
  -28.1051  -36.2611   24.6302 H   0  0  0  0  0  0
  -27.2298  -37.1484   25.8867 H   0  0  0  0  0  0
  -20.9259  -29.8773   21.6961 H   0  0  0  0  0  0
  -26.0188  -38.2873   24.1382 H   0  0  0  0  0  0
  -28.8039  -17.3736   19.4572 H   0  0  0  0  0  0
  -27.7460  -19.5578   19.0526 H   0  0  0  0  0  0
  -29.3565  -21.0145   22.7756 H   0  0  0  0  0  0
  -31.7812  -19.0749   23.2828 H   0  0  0  0  0  0
  -30.6543  -17.9139   24.0056 H   0  0  0  0  0  0
  -30.4379  -19.6380   24.2656 H   0  0  0  0  0  0
  -26.8641  -24.1814   20.3068 H   0  0  0  0  0  0
  -28.1897  -24.2405   19.1613 H   0  0  0  0  0  0
  -29.5154  -25.4832   21.1245 H   0  0  0  0  0  0
  -27.9378  -25.7449   21.8109 H   0  0  0  0  0  0
  -27.2621  -21.8127   19.8506 H   0  0  0  0  0  0
  -29.0649  -15.4506   21.0925 H   0  0  0  0  0  0
  1 25  1  0  0  0
  1 30  2  0  0  0
  1 83  1  0  0  0
  2  3  1  0  0  0
  2 25  1  0  0  0
  2 86  1  0  0  0
  2 87  1  0  0  0
  3  4  1  0  0  0
  3 88  1  0  0  0
  3 89  1  0  0  0
  4  5  1  0  0  0
  4 90  1  0  0  0
  4 91  1  0  0  0
  5  6  1  0  0  0
  5 26  1  0  0  0
  5 92  1  0  0  0
  6 25  1  0  0  0
  6 93  1  0  0  0
  6 94  1  0  0  0
  7  8  2  0  0  0
  7 26  1  0  0  0
  7 29  1  0  0  0
  8  9  1  0  0  0
  8 22  1  0  0  0
  9 10  1  0  0  0
  9 27  2  0  0  0
 10 11  2  0  0  0
 10 15  1  0  0  0
 11 12  1  0  0  0
 11 95  1  0  0  0
 12 13  2  0  0  0
 12 96  1  0  0  0
 13 14  1  0  0  0
 13 31  1  0  0  0
 14 15  2  0  0  0
 14 97  1  0  0  0
 15 98  1  0  0  0
 16 17  2  0  0  0
 16 21  1  0  0  0
 16 31  1  0  0  0
 17 18  1  0  0  0
 17 99  1  0  0  0
 18 19  2  0  0  0
 18100  1  0  0  0
 19 20  1  0  0  0
 19 24  1  0  0  0
 20 21  2  0  0  0
 20101  1  0  0  0
 21 23  1  0  0  0
 22 28  1  0  0  0
 22 32  2  0  0  0
 26 27  1  0  0  0
 28102  1  0  0  0
 28103  1  0  0  0
 29104  1  0  0  0
 29105  1  0  0  0
 33 34  1  0  0  0
 33 66  1  0  0  0
 33 70  2  0  0  0
 34 36  1  0  0  0
 34 59  1  0  0  0
 34106  1  0  0  0
 35 44  2  0  0  0
 35 45  1  0  0  0
 35 68  1  0  0  0
 36 56  1  0  0  0
 36107  1  0  0  0
 37 39  1  0  0  0
 37 47  1  0  0  0
 37 66  1  0  0  0
 37108  1  0  0  0
 38 43  2  0  0  0
 38 46  1  0  0  0
 38 47  1  0  0  0
 39 64  1  0  0  0
 39 67  2  0  0  0
 40 52  1  0  0  0
 40 53  2  0  0  0
 40 58  1  0  0  0
 41109  1  0  0  0
 41110  1  0  0  0
 41111  1  0  0  0
 41 48  1  0  0  0
 42 43  1  0  0  0
 42 66  1  0  0  0
 42112  1  0  0  0
 42113  1  0  0  0
 43 44  1  0  0  0
 44114  1  0  0  0
 45 46  2  0  0  0
 45115  1  0  0  0
 46116  1  0  0  0
 47117  1  0  0  0
 47118  1  0  0  0
 48 56  1  0  0  0
 48 65  1  0  0  0
 48119  1  0  0  0
 49 50  1  0  0  0
 49 53  1  0  0  0
 49 64  1  0  0  0
 49120  1  0  0  0
 50 51  1  0  0  0
 50121  1  0  0  0
 50122  1  0  0  0
 51 52  1  0  0  0
 51123  1  0  0  0
 51124  1  0  0  0
 52125  1  0  0  0
 52126  1  0  0  0
 53 54  1  0  0  0
 54 55  2  0  0  0
 54127  1  0  0  0
 55 57  1  0  0  0
 55128  1  0  0  0
 56 69  2  0  0  0
 57 58  2  0  0  0
 57129  1  0  0  0
 58130  1  0  0  0
 59 60  1  0  0  0
 59 61  1  0  0  0
 59 62  1  0  0  0
 60131  1  0  0  0
 60132  1  0  0  0
 60133  1  0  0  0
 61134  1  0  0  0
 61135  1  0  0  0
 61136  1  0  0  0
 62137  1  0  0  0
 62138  1  0  0  0
 62139  1  0  0  0
 63 65  1  0  0  0
 63140  1  0  0  0
 63141  1  0  0  0
 63142  1  0  0  0
 64143  1  0  0  0
 65144  1  0  0  0
 68 81  1  0  0  0
 71 72  2  0  0  0
 71 74  1  0  0  0
 71145  1  0  0  0
 72 76  1  0  0  0
 72146  1  0  0  0
 73 75  1  0  0  0
 73 76  2  0  0  0
 73147  1  0  0  0
 74 75  2  0  0  0
 74 77  1  0  0  0
 75 79  1  0  0  0
 76 82  1  0  0  0
 77 83  1  0  0  0
 77 84  2  0  0  0
 78 80  1  0  0  0
 78 82  1  0  0  0
 78 85  2  0  0  0
 79148  1  0  0  0
 79149  1  0  0  0
 79150  1  0  0  0
 80 81  1  0  0  0
 80151  1  0  0  0
 80152  1  0  0  0
 81153  1  0  0  0
 81154  1  0  0  0
 82155  1  0  0  0
 83156  1  0  0  0
M  ISO  4   1 100  68 101  81 101  83 100
M  END
> <chiral flag>
0

> <version>
0

> <s_m_source_file>
/data/baiqing/PycharmProjects/Reinvent-master-3.2/result/LINK_invent/BTK/process_docking_weight1_custom_product_contain_oxygen_bond_distance_aromatic_linkinvent_7_9_3/rearranged_h_0173.sdf

> <i_m_source_file_index>
86

> <r_mmod_Potential_Energy-OPLS-2005>
-85.6227416992188

> <r_mmod_Stretch_Energy-OPLS-2005>
37.8083572387695

> <r_mmod_Bend_Energy-OPLS-2005>
96.5199432373047

> <r_mmod_Torsional_Energy-OPLS-2005>
269.92724609375

> <r_mmod_Improper_Torsional_Energy-OPLS-2005>
5.54360246658325

> <r_mmod_Van_der_Waal_Energy-OPLS-2005>
172.201110839844

> <r_mmod_Electrostatic_Energy-OPLS-2005>
-436.142883300781

> <r_mmod_Solvation_Energy-OPLS-2005>
-245.549346923828

> <b_mmod_Minimization_Converged-OPLS-2005>
0

> <r_mmod_RMS_Derivative-OPLS-2005>
2.77794623374939

$$$$
86
                    3D
 Structure written by MMmdl.
152160  0  0  1  0            999 V2000
  -30.6677  -14.6182   20.4078 C   0  0  0  0  0  0
  -30.4197  -12.3601   19.4522 C   0  0  0  0  0  0
  -29.4974  -12.4705   18.2181 C   0  0  0  0  0  0
  -28.0210  -12.3221   18.6332 C   0  0  0  0  0  0
  -27.6456  -13.2173   19.8463 C   0  0  2  0  0  0
  -28.6964  -13.1227   20.9774 C   0  0  0  0  0  0
  -25.2564  -13.8160   20.5685 C   0  0  0  0  0  0
  -24.1831  -13.0434   20.9204 C   0  0  0  0  0  0
  -24.6402  -11.6912   20.8733 C   0  0  0  0  0  0
  -23.9049  -10.4305   21.0369 C   0  0  0  0  0  0
  -24.3608   -9.4224   21.9137 C   0  0  0  0  0  0
  -23.6293   -8.2248   22.0730 C   0  0  0  0  0  0
  -22.4284   -8.0279   21.3516 C   0  0  0  0  0  0
  -21.9899   -9.0245   20.4608 C   0  0  0  0  0  0
  -22.7222  -10.2134   20.3009 C   0  0  0  0  0  0
  -21.6847   -6.0713   22.5263 C   0  0  0  0  0  0
  -21.4013   -6.5615   23.8207 C   0  0  0  0  0  0
  -21.3671   -5.6784   24.9158 C   0  0  0  0  0  0
  -21.6068   -4.3042   24.7218 C   0  0  0  0  0  0
  -21.8833   -3.8128   23.4337 C   0  0  0  0  0  0
  -21.9207   -4.6929   22.3395 C   0  0  0  0  0  0
  -22.7856  -13.5215   21.1867 C   0  0  0  0  0  0
  -22.1682   -4.2086   21.0973 F   0  0  0  0  0  0
  -21.5636   -3.4543   25.7723 F   0  0  0  0  0  0
  -30.0132  -13.4170   20.3977 N   0  0  0  0  0  0
  -26.2974  -12.9361   20.3259 N   0  0  0  0  0  0
  -25.9312  -11.6522   20.5695 N   0  0  0  0  0  0
  -22.0506  -12.8163   22.0392 N   0  0  0  0  0  0
  -25.4214  -15.1877   20.4101 N   0  0  0  0  0  0
  -31.8692  -14.6844   20.1271 O   0  0  0  0  0  0
  -21.6644   -6.8858   21.4245 O   0  0  0  0  0  0
  -22.3534  -14.5525   20.6728 O   0  0  0  0  0  0
  -24.6264  -31.8676   23.2096 C   0  0  0  0  0  0
  -25.9171  -32.4828   23.8394 C   0  0  1  0  0  0
  -27.2167  -27.3699   20.0770 C   0  0  0  0  0  0
  -25.6041  -33.8641   24.2372 N   0  0  0  0  0  0
  -23.4143  -30.4891   21.5533 C   0  0  2  0  0  0
  -24.8610  -28.9584   20.1005 C   0  0  0  0  0  0
  -22.7440  -29.4630   22.5008 C   0  0  0  0  0  0
  -18.0288  -28.1379   22.8483 C   0  0  0  0  0  0
  -24.1469  -36.7252   23.2605 C   0  0  0  0  0  0
  -25.9522  -30.8057   21.3691 C   0  0  0  0  0  0
  -26.0303  -29.4426   20.7035 C   0  0  0  0  0  0
  -27.2185  -28.6579   20.6890 C   0  0  0  0  0  0
  -26.0329  -26.9297   19.4538 C   0  0  0  0  0  0
  -24.8583  -27.7044   19.4697 C   0  0  0  0  0  0
  -23.6234  -29.8277   20.1660 C   0  0  0  0  0  0
  -25.4086  -36.3056   24.0320 C   0  0  1  0  0  0
  -20.5882  -28.3673   23.1261 C   0  0  2  0  0  0
  -20.6776  -26.9419   22.5383 C   0  0  0  0  0  0
  -19.5769  -26.6389   21.5191 C   0  0  0  0  0  0
  -18.1940  -26.7933   22.1576 C   0  0  0  0  0  0
  -19.1543  -28.8858   23.2856 C   0  0  0  0  0  0
  -18.9466  -30.1465   23.8880 C   0  0  0  0  0  0
  -17.6459  -30.6613   24.0551 C   0  0  0  0  0  0
  -25.9043  -34.9460   23.5087 C   0  0  0  0  0  0
  -16.5349  -29.9096   23.6370 C   0  0  0  0  0  0
  -16.7284  -28.6505   23.0400 C   0  0  0  0  0  0
  -26.4625  -31.6588   25.0711 C   0  0  0  0  0  0
  -25.3919  -31.3771   26.1479 C   0  0  0  0  0  0
  -27.0430  -30.2965   24.6120 C   0  0  0  0  0  0
  -27.6187  -32.4278   25.7521 C   0  0  0  0  0  0
  -27.5564  -37.1730   24.8471 C   0  0  0  0  0  0
  -21.4192  -29.3029   22.3690 N   0  0  0  0  0  0
  -26.4231  -37.3756   23.9477 N   0  0  0  0  0  0
  -24.6818  -31.0684   22.1030 N   0  0  0  0  0  0
  -23.4172  -28.8158   23.3054 O   0  0  0  0  0  0
  -28.2616  -26.4516   20.1681 O   0  0  0  0  0  0
  -26.5576  -34.8921   22.4619 O   0  0  0  0  0  0
  -23.5431  -32.1498   23.7420 O   0  0  0  0  0  0
  -31.0413  -18.4955   18.3476 C   0  0  0  0  0  0
  -29.7082  -19.5350   20.0977 C   0  0  0  0  0  0
  -30.4946  -19.6570   18.9311 C   0  0  0  0  0  0
  -29.5192  -18.1985   20.6038 C   0  0  0  0  0  0
  -30.1375  -17.0674   19.9777 C   0  0  0  0  0  0
  -27.9706  -25.4432   21.0878 C   0  0  0  0  0  0
  -28.1107  -24.0773   21.0910 C   0  0  0  0  0  0
  -28.7604  -23.1920   20.0937 C   0  0  0  0  0  0
  -29.2098  -20.7940   20.8748 C   0  0  0  0  0  0
  -30.8759  -17.2489   18.8505 N   0  0  0  0  0  0
  -29.9093  -15.7441   20.5397 N   0  0  0  0  0  0
  -28.4080  -21.8808   20.2254 N   0  0  0  0  0  0
  -29.5852  -23.5526   19.2567 O   0  0  0  0  0  0
  -27.6018  -23.4589   22.1738 O   0  0  0  0  0  0
  -30.7673  -20.8685   18.3885 F   0  0  0  0  0  0
  -28.7701  -17.9990   21.7151 F   0  0  0  0  0  0
  -31.4653  -12.4449   19.1513 H   0  0  0  0  0  0
  -30.3202  -11.3797   19.9216 H   0  0  0  0  0  0
  -29.7583  -11.7025   17.4872 H   0  0  0  0  0  0
  -29.6434  -13.4304   17.7197 H   0  0  0  0  0  0
  -27.8621  -11.2725   18.8841 H   0  0  0  0  0  0
  -27.3666  -12.5320   17.7850 H   0  0  0  0  0  0
  -27.6484  -14.2409   19.4722 H   0  0  0  0  0  0
  -28.6971  -12.1273   21.4259 H   0  0  0  0  0  0
  -28.4547  -13.8189   21.7827 H   0  0  0  0  0  0
  -25.2743   -9.5723   22.4710 H   0  0  0  0  0  0
  -24.0017   -7.4638   22.7433 H   0  0  0  0  0  0
  -21.0830   -8.8720   19.8896 H   0  0  0  0  0  0
  -22.3630  -10.9662   19.6113 H   0  0  0  0  0  0
  -21.2001   -7.6124   23.9693 H   0  0  0  0  0  0
  -21.1490   -6.0498   25.9059 H   0  0  0  0  0  0
  -22.0605   -2.7595   23.2850 H   0  0  0  0  0  0
  -22.4192  -11.9848   22.4786 H   0  0  0  0  0  0
  -21.1102  -13.1114   22.2578 H   0  0  0  0  0  0
  -24.6452  -15.8307   20.5110 H   0  0  0  0  0  0
  -26.2568  -15.6372   20.0592 H   0  0  0  0  0  0
  -26.7196  -32.5484   23.1107 H   0  0  0  0  0  0
  -25.0499  -33.9809   25.0717 H   0  0  0  0  0  0
  -22.7024  -31.3041   21.4174 H   0  0  0  0  0  0
  -23.3746  -35.9564   23.3287 H   0  0  0  0  0  0
  -24.3567  -36.8831   22.1998 H   0  0  0  0  0  0
  -23.7122  -37.6401   23.6655 H   0  0  0  0  0  0
  -26.0642  -31.5661   20.5949 H   0  0  0  0  0  0
  -26.8386  -30.8530   21.9911 H   0  0  0  0  0  0
  -28.1137  -29.0147   21.1805 H   0  0  0  0  0  0
  -26.0070  -25.9541   18.9839 H   0  0  0  0  0  0
  -23.9531  -27.3296   19.0091 H   0  0  0  0  0  0
  -23.7179  -30.6092   19.4134 H   0  0  0  0  0  0
  -22.7462  -29.2489   19.8649 H   0  0  0  0  0  0
  -25.1196  -36.1887   25.0784 H   0  0  0  0  0  0
  -20.9918  -28.3259   24.1401 H   0  0  0  0  0  0
  -20.5697  -26.2318   23.3589 H   0  0  0  0  0  0
  -21.6629  -26.7507   22.1141 H   0  0  0  0  0  0
  -19.6949  -25.6295   21.1229 H   0  0  0  0  0  0
  -19.6693  -27.3211   20.6737 H   0  0  0  0  0  0
  -17.4193  -26.6727   21.3972 H   0  0  0  0  0  0
  -18.0344  -26.0059   22.8957 H   0  0  0  0  0  0
  -19.7947  -30.7283   24.2219 H   0  0  0  0  0  0
  -17.5041  -31.6298   24.5127 H   0  0  0  0  0  0
  -15.5347  -30.2997   23.7730 H   0  0  0  0  0  0
  -15.8672  -28.0822   22.7156 H   0  0  0  0  0  0
  -24.6061  -30.7146   25.7855 H   0  0  0  0  0  0
  -24.9191  -32.2996   26.4828 H   0  0  0  0  0  0
  -25.8295  -30.8980   27.0252 H   0  0  0  0  0  0
  -26.2953  -29.6674   24.1257 H   0  0  0  0  0  0
  -27.4209  -29.7228   25.4615 H   0  0  0  0  0  0
  -27.8834  -30.4239   23.9274 H   0  0  0  0  0  0
  -27.2847  -33.3639   26.2024 H   0  0  0  0  0  0
  -28.4114  -32.6687   25.0433 H   0  0  0  0  0  0
  -28.0757  -31.8393   26.5477 H   0  0  0  0  0  0
  -28.2506  -38.0086   24.7538 H   0  0  0  0  0  0
  -28.1089  -36.2593   24.6252 H   0  0  0  0  0  0
  -27.2344  -37.1295   25.8878 H   0  0  0  0  0  0
  -20.9428  -29.8720   21.6840 H   0  0  0  0  0  0
  -26.0114  -38.2793   24.1579 H   0  0  0  0  0  0
  -31.6538  -18.5726   17.4564 H   0  0  0  0  0  0
  -27.5080  -25.8995   21.9528 H   0  0  0  0  0  0
  -30.0697  -21.2410   21.3747 H   0  0  0  0  0  0
  -28.5755  -20.4361   21.6889 H   0  0  0  0  0  0
  -29.0030  -15.6165   20.9596 H   0  0  0  0  0  0
  -27.4676  -21.8398   20.5925 H   0  0  0  0  0  0
  -27.2477  -24.1306   22.7427 H   0  0  0  0  0  0
  1 25  1  0  0  0
  1 30  2  0  0  0
  1 81  1  0  0  0
  2  3  1  0  0  0
  2 25  1  0  0  0
  2 87  1  0  0  0
  2 88  1  0  0  0
  3  4  1  0  0  0
  3 89  1  0  0  0
  3 90  1  0  0  0
  4  5  1  0  0  0
  4 91  1  0  0  0
  4 92  1  0  0  0
  5  6  1  0  0  0
  5 26  1  0  0  0
  5 93  1  0  0  0
  6 25  1  0  0  0
  6 94  1  0  0  0
  6 95  1  0  0  0
  7  8  2  0  0  0
  7 26  1  0  0  0
  7 29  1  0  0  0
  8  9  1  0  0  0
  8 22  1  0  0  0
  9 10  1  0  0  0
  9 27  2  0  0  0
 10 11  2  0  0  0
 10 15  1  0  0  0
 11 12  1  0  0  0
 11 96  1  0  0  0
 12 13  2  0  0  0
 12 97  1  0  0  0
 13 14  1  0  0  0
 13 31  1  0  0  0
 14 15  2  0  0  0
 14 98  1  0  0  0
 15 99  1  0  0  0
 16 17  2  0  0  0
 16 21  1  0  0  0
 16 31  1  0  0  0
 17 18  1  0  0  0
 17100  1  0  0  0
 18 19  2  0  0  0
 18101  1  0  0  0
 19 20  1  0  0  0
 19 24  1  0  0  0
 20 21  2  0  0  0
 20102  1  0  0  0
 21 23  1  0  0  0
 22 28  1  0  0  0
 22 32  2  0  0  0
 26 27  1  0  0  0
 28103  1  0  0  0
 28104  1  0  0  0
 29105  1  0  0  0
 29106  1  0  0  0
 33 34  1  0  0  0
 33 66  1  0  0  0
 33 70  2  0  0  0
 34 36  1  0  0  0
 34 59  1  0  0  0
 34107  1  0  0  0
 35 44  2  0  0  0
 35 45  1  0  0  0
 35 68  1  0  0  0
 36 56  1  0  0  0
 36108  1  0  0  0
 37 39  1  0  0  0
 37 47  1  0  0  0
 37 66  1  0  0  0
 37109  1  0  0  0
 38 43  2  0  0  0
 38 46  1  0  0  0
 38 47  1  0  0  0
 39 64  1  0  0  0
 39 67  2  0  0  0
 40 52  1  0  0  0
 40 53  2  0  0  0
 40 58  1  0  0  0
 41110  1  0  0  0
 41111  1  0  0  0
 41112  1  0  0  0
 41 48  1  0  0  0
 42 43  1  0  0  0
 42 66  1  0  0  0
 42113  1  0  0  0
 42114  1  0  0  0
 43 44  1  0  0  0
 44115  1  0  0  0
 45 46  2  0  0  0
 45116  1  0  0  0
 46117  1  0  0  0
 47118  1  0  0  0
 47119  1  0  0  0
 48 56  1  0  0  0
 48 65  1  0  0  0
 48120  1  0  0  0
 49 50  1  0  0  0
 49 53  1  0  0  0
 49 64  1  0  0  0
 49121  1  0  0  0
 50 51  1  0  0  0
 50122  1  0  0  0
 50123  1  0  0  0
 51 52  1  0  0  0
 51124  1  0  0  0
 51125  1  0  0  0
 52126  1  0  0  0
 52127  1  0  0  0
 53 54  1  0  0  0
 54 55  2  0  0  0
 54128  1  0  0  0
 55 57  1  0  0  0
 55129  1  0  0  0
 56 69  2  0  0  0
 57 58  2  0  0  0
 57130  1  0  0  0
 58131  1  0  0  0
 59 60  1  0  0  0
 59 61  1  0  0  0
 59 62  1  0  0  0
 60132  1  0  0  0
 60133  1  0  0  0
 60134  1  0  0  0
 61135  1  0  0  0
 61136  1  0  0  0
 61137  1  0  0  0
 62138  1  0  0  0
 62139  1  0  0  0
 62140  1  0  0  0
 63 65  1  0  0  0
 63141  1  0  0  0
 63142  1  0  0  0
 63143  1  0  0  0
 64144  1  0  0  0
 65145  1  0  0  0
 68 76  1  0  0  0
 71 73  2  0  0  0
 71 80  1  0  0  0
 71146  1  0  0  0
 72 73  1  0  0  0
 72 74  2  0  0  0
 72 79  1  0  0  0
 73 85  1  0  0  0
 74 75  1  0  0  0
 74 86  1  0  0  0
 75 80  2  0  0  0
 75 81  1  0  0  0
 76 77  2  0  0  0
 76147  1  0  0  0
 77 78  1  0  0  0
 77 84  1  0  0  0
 78 82  1  0  0  0
 78 83  2  0  0  0
 79 82  1  0  0  0
 79148  1  0  0  0
 79149  1  0  0  0
 81150  1  0  0  0
 82151  1  0  0  0
 84152  1  0  0  0
M  ISO  4   1 100  68 101  76 101  81 100
M  END
> <chiral flag>
0

> <version>
0

> <s_m_source_file>
/data/baiqing/PycharmProjects/Reinvent-master-3.2/result/LINK_invent/BTK/process_docking_weight1_custom_product_contain_oxygen_bond_distance_aromatic_linkinvent_7_9_3/rearranged_h_0173.sdf

> <i_m_source_file_index>
87

> <r_mmod_Potential_Energy-OPLS-2005>
-77.4811096191406

> <r_mmod_Stretch_Energy-OPLS-2005>
64.444465637207

> <r_mmod_Bend_Energy-OPLS-2005>
157.716186523438

> <r_mmod_Torsional_Energy-OPLS-2005>
282.808532714844

> <r_mmod_Improper_Torsional_Energy-OPLS-2005>
11.0871620178223

> <r_mmod_Van_der_Waal_Energy-OPLS-2005>
146.826538085938

> <r_mmod_Electrostatic_Energy-OPLS-2005>
-524.525451660156

> <r_mmod_Solvation_Energy-OPLS-2005>
-266.77099609375

> <b_mmod_Minimization_Converged-OPLS-2005>
0

> <r_mmod_RMS_Derivative-OPLS-2005>
7.04082679748535

$$$$
87
                    3D
 Structure written by MMmdl.
151159  0  0  1  0            999 V2000
  -30.6150  -14.7211   20.4427 C   0  0  0  0  0  0
  -30.4302  -12.4309   19.4819 C   0  0  0  0  0  0
  -29.5136  -12.5054   18.2397 C   0  0  0  0  0  0
  -28.0358  -12.3416   18.6447 C   0  0  0  0  0  0
  -27.6462  -13.2327   19.8551 C   0  0  2  0  0  0
  -28.6882  -13.1515   20.9930 C   0  0  0  0  0  0
  -25.2523  -13.8204   20.5688 C   0  0  0  0  0  0
  -24.1809  -13.0448   20.9198 C   0  0  0  0  0  0
  -24.6402  -11.6926   20.8736 C   0  0  0  0  0  0
  -23.9079  -10.4299   21.0397 C   0  0  0  0  0  0
  -24.3630   -9.4210   21.9175 C   0  0  0  0  0  0
  -23.6300   -8.2247   22.0749 C   0  0  0  0  0  0
  -22.4280   -8.0285   21.3543 C   0  0  0  0  0  0
  -21.9916   -9.0258   20.4644 C   0  0  0  0  0  0
  -22.7249  -10.2138   20.3049 C   0  0  0  0  0  0
  -21.6857   -6.0734   22.5275 C   0  0  0  0  0  0
  -21.4016   -6.5634   23.8209 C   0  0  0  0  0  0
  -21.3664   -5.6792   24.9173 C   0  0  0  0  0  0
  -21.6050   -4.3054   24.7225 C   0  0  0  0  0  0
  -21.8818   -3.8144   23.4349 C   0  0  0  0  0  0
  -21.9194   -4.6961   22.3405 C   0  0  0  0  0  0
  -22.7829  -13.5227   21.1861 C   0  0  0  0  0  0
  -22.1659   -4.2142   21.0984 F   0  0  0  0  0  0
  -21.5637   -3.4540   25.7739 F   0  0  0  0  0  0
  -29.9983  -13.4900   20.4232 N   0  0  0  0  0  0
  -26.2960  -12.9418   20.3295 N   0  0  0  0  0  0
  -25.9338  -11.6555   20.5748 N   0  0  0  0  0  0
  -22.0481  -12.8214   22.0418 N   0  0  0  0  0  0
  -25.4215  -15.1927   20.4108 N   0  0  0  0  0  0
  -31.7931  -14.8260   20.0899 O   0  0  0  0  0  0
  -21.6651   -6.8878   21.4235 O   0  0  0  0  0  0
  -22.3504  -14.5531   20.6704 O   0  0  0  0  0  0
  -24.6312  -31.8559   23.2002 C   0  0  0  0  0  0
  -25.9144  -32.4755   23.8339 C   0  0  1  0  0  0
  -27.2178  -27.2645   20.1199 C   0  0  0  0  0  0
  -25.5942  -33.8558   24.2255 N   0  0  0  0  0  0
  -23.4273  -30.4796   21.5440 C   0  0  2  0  0  0
  -24.8739  -28.9315   20.1078 C   0  0  0  0  0  0
  -22.7496  -29.4607   22.4920 C   0  0  0  0  0  0
  -18.0288  -28.1390   22.8482 C   0  0  0  0  0  0
  -24.1489  -36.7282   23.2638 C   0  0  0  0  0  0
  -25.9738  -30.7667   21.3835 C   0  0  0  0  0  0
  -26.0450  -29.3909   20.7229 C   0  0  0  0  0  0
  -27.2171  -28.5680   20.7233 C   0  0  0  0  0  0
  -26.0267  -26.8852   19.4573 C   0  0  0  0  0  0
  -24.8702  -27.6866   19.4648 C   0  0  0  0  0  0
  -23.6445  -29.8174   20.1585 C   0  0  0  0  0  0
  -25.4120  -36.3073   24.0322 C   0  0  1  0  0  0
  -20.5891  -28.3703   23.1272 C   0  0  2  0  0  0
  -20.6782  -26.9422   22.5410 C   0  0  0  0  0  0
  -19.5758  -26.6385   21.5215 C   0  0  0  0  0  0
  -18.1937  -26.7934   22.1620 C   0  0  0  0  0  0
  -19.1540  -28.8864   23.2874 C   0  0  0  0  0  0
  -18.9460  -30.1460   23.8897 C   0  0  0  0  0  0
  -17.6460  -30.6593   24.0563 C   0  0  0  0  0  0
  -25.9062  -34.9441   23.5093 C   0  0  0  0  0  0
  -16.5350  -29.9089   23.6338 C   0  0  0  0  0  0
  -16.7272  -28.6505   23.0360 C   0  0  0  0  0  0
  -26.4504  -31.6585   25.0732 C   0  0  0  0  0  0
  -25.3726  -31.3737   26.1453 C   0  0  0  0  0  0
  -27.0349  -30.2997   24.6236 C   0  0  0  0  0  0
  -27.6069  -32.4319   25.7502 C   0  0  0  0  0  0
  -27.5586  -37.1794   24.8458 C   0  0  0  0  0  0
  -21.4204  -29.3047   22.3657 N   0  0  0  0  0  0
  -26.4290  -37.3780   23.9409 N   0  0  0  0  0  0
  -24.6963  -31.0518   22.0986 N   0  0  0  0  0  0
  -23.4192  -28.8148   23.3025 O   0  0  0  0  0  0
  -28.3067  -26.3623   20.2002 O   0  0  0  0  0  0
  -26.5634  -34.8918   22.4660 O   0  0  0  0  0  0
  -23.5462  -32.1385   23.7297 O   0  0  0  0  0  0
  -29.7122  -19.6499   18.6060 C   0  0  0  0  0  0
  -29.9339  -18.4247   17.9469 C   0  0  0  0  0  0
  -29.5474  -19.7272   20.0075 C   0  0  0  0  0  0
  -29.8678  -17.1673   20.0564 C   0  0  0  0  0  0
  -30.0056  -17.2070   18.6483 C   0  0  0  0  0  0
  -29.6222  -18.4457   20.7121 C   0  0  0  0  0  0
  -29.0405  -22.3401   19.9867 C   0  0  0  0  0  0
  -29.3461  -21.1397   20.6322 C   0  0  0  0  0  0
  -28.9462  -23.7821   20.5537 C   0  0  0  0  0  0
  -28.1021  -24.9195   19.8153 C   0  0  0  0  0  0
  -29.8596  -15.8441   20.7300 N   0  0  0  0  0  0
  -29.5290  -24.1049   21.5944 O   0  0  0  0  0  0
  -29.5446  -21.1353   21.9585 O   0  0  0  0  0  0
  -30.1576  -16.0658   17.9331 F   0  0  0  0  0  0
  -29.4620  -18.4429   22.0586 F   0  0  0  0  0  0
  -31.4738  -12.5414   19.1851 H   0  0  0  0  0  0
  -30.3593  -11.4492   19.9525 H   0  0  0  0  0  0
  -29.7918  -11.7349   17.5199 H   0  0  0  0  0  0
  -29.6536  -13.4615   17.7331 H   0  0  0  0  0  0
  -27.8796  -11.2918   18.8941 H   0  0  0  0  0  0
  -27.3841  -12.5521   17.7959 H   0  0  0  0  0  0
  -27.6462  -14.2585   19.4861 H   0  0  0  0  0  0
  -28.7098  -12.1517   21.4289 H   0  0  0  0  0  0
  -28.4248  -13.8303   21.8043 H   0  0  0  0  0  0
  -25.2774   -9.5694   22.4749 H   0  0  0  0  0  0
  -24.0012   -7.4646   22.7477 H   0  0  0  0  0  0
  -21.0844   -8.8775   19.8957 H   0  0  0  0  0  0
  -22.3698  -10.9674   19.6158 H   0  0  0  0  0  0
  -21.1997   -7.6140   23.9707 H   0  0  0  0  0  0
  -21.1493   -6.0524   25.9077 H   0  0  0  0  0  0
  -22.0593   -2.7604   23.2852 H   0  0  0  0  0  0
  -22.4105  -11.9881   22.4807 H   0  0  0  0  0  0
  -21.1091  -13.1224   22.2621 H   0  0  0  0  0  0
  -24.6535  -15.8464   20.5200 H   0  0  0  0  0  0
  -26.2703  -15.6314   20.0781 H   0  0  0  0  0  0
  -26.7206  -32.5396   23.1073 H   0  0  0  0  0  0
  -25.0090  -33.9689   25.0403 H   0  0  0  0  0  0
  -22.7245  -31.3029   21.4004 H   0  0  0  0  0  0
  -23.3763  -35.9602   23.3279 H   0  0  0  0  0  0
  -24.3594  -36.8927   22.2058 H   0  0  0  0  0  0
  -23.7217  -37.6466   23.6676 H   0  0  0  0  0  0
  -26.1173  -31.5286   20.6160 H   0  0  0  0  0  0
  -26.8499  -30.8114   22.0186 H   0  0  0  0  0  0
  -28.1096  -28.9108   21.2275 H   0  0  0  0  0  0
  -25.9475  -25.9486   18.9281 H   0  0  0  0  0  0
  -23.9777  -27.3344   18.9657 H   0  0  0  0  0  0
  -23.7675  -30.5963   19.4050 H   0  0  0  0  0  0
  -22.7629  -29.2506   19.8534 H   0  0  0  0  0  0
  -25.1303  -36.1920   25.0815 H   0  0  0  0  0  0
  -20.9980  -28.3282   24.1392 H   0  0  0  0  0  0
  -20.5691  -26.2311   23.3615 H   0  0  0  0  0  0
  -21.6649  -26.7459   22.1198 H   0  0  0  0  0  0
  -19.6926  -25.6294   21.1252 H   0  0  0  0  0  0
  -19.6702  -27.3191   20.6741 H   0  0  0  0  0  0
  -17.4209  -26.6678   21.4021 H   0  0  0  0  0  0
  -18.0340  -26.0073   22.9017 H   0  0  0  0  0  0
  -19.7934  -30.7278   24.2269 H   0  0  0  0  0  0
  -17.5013  -31.6281   24.5157 H   0  0  0  0  0  0
  -15.5352  -30.2993   23.7666 H   0  0  0  0  0  0
  -15.8669  -28.0822   22.7089 H   0  0  0  0  0  0
  -24.5897  -30.7094   25.7771 H   0  0  0  0  0  0
  -24.8921  -32.2903   26.4881 H   0  0  0  0  0  0
  -25.8034  -30.8902   27.0229 H   0  0  0  0  0  0
  -26.2933  -29.6740   24.1253 H   0  0  0  0  0  0
  -27.4005  -29.7271   25.4769 H   0  0  0  0  0  0
  -27.8828  -30.4255   23.9501 H   0  0  0  0  0  0
  -27.2692  -33.3627   26.2069 H   0  0  0  0  0  0
  -28.3889  -32.6858   25.0334 H   0  0  0  0  0  0
  -28.0727  -31.8444   26.5423 H   0  0  0  0  0  0
  -28.2583  -38.0114   24.7552 H   0  0  0  0  0  0
  -28.1104  -36.2650   24.6228 H   0  0  0  0  0  0
  -27.2313  -37.1375   25.8861 H   0  0  0  0  0  0
  -20.9387  -29.8757   21.6852 H   0  0  0  0  0  0
  -26.0166  -38.2845   24.1441 H   0  0  0  0  0  0
  -29.6849  -20.5421   17.9994 H   0  0  0  0  0  0
  -30.0400  -18.4146   16.8718 H   0  0  0  0  0  0
  -28.8536  -22.3001   18.9248 H   0  0  0  0  0  0
  -27.0709  -24.6331   20.0149 H   0  0  0  0  0  0
  -28.2534  -24.8209   18.7403 H   0  0  0  0  0  0
  -29.0330  -15.6664   21.2781 H   0  0  0  0  0  0
  -29.6727  -20.2302   22.2249 H   0  0  0  0  0  0
  1 25  1  0  0  0
  1 30  2  0  0  0
  1 81  1  0  0  0
  2  3  1  0  0  0
  2 25  1  0  0  0
  2 86  1  0  0  0
  2 87  1  0  0  0
  3  4  1  0  0  0
  3 88  1  0  0  0
  3 89  1  0  0  0
  4  5  1  0  0  0
  4 90  1  0  0  0
  4 91  1  0  0  0
  5  6  1  0  0  0
  5 26  1  0  0  0
  5 92  1  0  0  0
  6 25  1  0  0  0
  6 93  1  0  0  0
  6 94  1  0  0  0
  7  8  2  0  0  0
  7 26  1  0  0  0
  7 29  1  0  0  0
  8  9  1  0  0  0
  8 22  1  0  0  0
  9 10  1  0  0  0
  9 27  2  0  0  0
 10 11  2  0  0  0
 10 15  1  0  0  0
 11 12  1  0  0  0
 11 95  1  0  0  0
 12 13  2  0  0  0
 12 96  1  0  0  0
 13 14  1  0  0  0
 13 31  1  0  0  0
 14 15  2  0  0  0
 14 97  1  0  0  0
 15 98  1  0  0  0
 16 17  2  0  0  0
 16 21  1  0  0  0
 16 31  1  0  0  0
 17 18  1  0  0  0
 17 99  1  0  0  0
 18 19  2  0  0  0
 18100  1  0  0  0
 19 20  1  0  0  0
 19 24  1  0  0  0
 20 21  2  0  0  0
 20101  1  0  0  0
 21 23  1  0  0  0
 22 28  1  0  0  0
 22 32  2  0  0  0
 26 27  1  0  0  0
 28102  1  0  0  0
 28103  1  0  0  0
 29104  1  0  0  0
 29105  1  0  0  0
 33 34  1  0  0  0
 33 66  1  0  0  0
 33 70  2  0  0  0
 34 36  1  0  0  0
 34 59  1  0  0  0
 34106  1  0  0  0
 35 44  2  0  0  0
 35 45  1  0  0  0
 35 68  1  0  0  0
 36 56  1  0  0  0
 36107  1  0  0  0
 37 39  1  0  0  0
 37 47  1  0  0  0
 37 66  1  0  0  0
 37108  1  0  0  0
 38 43  2  0  0  0
 38 46  1  0  0  0
 38 47  1  0  0  0
 39 64  1  0  0  0
 39 67  2  0  0  0
 40 52  1  0  0  0
 40 53  2  0  0  0
 40 58  1  0  0  0
 41109  1  0  0  0
 41110  1  0  0  0
 41111  1  0  0  0
 41 48  1  0  0  0
 42 43  1  0  0  0
 42 66  1  0  0  0
 42112  1  0  0  0
 42113  1  0  0  0
 43 44  1  0  0  0
 44114  1  0  0  0
 45 46  2  0  0  0
 45115  1  0  0  0
 46116  1  0  0  0
 47117  1  0  0  0
 47118  1  0  0  0
 48 56  1  0  0  0
 48 65  1  0  0  0
 48119  1  0  0  0
 49 50  1  0  0  0
 49 53  1  0  0  0
 49 64  1  0  0  0
 49120  1  0  0  0
 50 51  1  0  0  0
 50121  1  0  0  0
 50122  1  0  0  0
 51 52  1  0  0  0
 51123  1  0  0  0
 51124  1  0  0  0
 52125  1  0  0  0
 52126  1  0  0  0
 53 54  1  0  0  0
 54 55  2  0  0  0
 54127  1  0  0  0
 55 57  1  0  0  0
 55128  1  0  0  0
 56 69  2  0  0  0
 57 58  2  0  0  0
 57129  1  0  0  0
 58130  1  0  0  0
 59 60  1  0  0  0
 59 61  1  0  0  0
 59 62  1  0  0  0
 60131  1  0  0  0
 60132  1  0  0  0
 60133  1  0  0  0
 61134  1  0  0  0
 61135  1  0  0  0
 61136  1  0  0  0
 62137  1  0  0  0
 62138  1  0  0  0
 62139  1  0  0  0
 63 65  1  0  0  0
 63140  1  0  0  0
 63141  1  0  0  0
 63142  1  0  0  0
 64143  1  0  0  0
 65144  1  0  0  0
 68 80  1  0  0  0
 71 72  2  0  0  0
 71 73  1  0  0  0
 71145  1  0  0  0
 72 75  1  0  0  0
 72146  1  0  0  0
 73 76  2  0  0  0
 73 78  1  0  0  0
 74 75  2  0  0  0
 74 76  1  0  0  0
 74 81  1  0  0  0
 75 84  1  0  0  0
 76 85  1  0  0  0
 77 78  2  0  0  0
 77 79  1  0  0  0
 77147  1  0  0  0
 78 83  1  0  0  0
 79 80  1  0  0  0
 79 82  2  0  0  0
 80148  1  0  0  0
 80149  1  0  0  0
 81150  1  0  0  0
 83151  1  0  0  0
M  ISO  4   1 100  68 101  80 101  81 100
M  END
> <chiral flag>
0

> <version>
0

> <s_m_source_file>
/data/baiqing/PycharmProjects/Reinvent-master-3.2/result/LINK_invent/BTK/process_docking_weight1_custom_product_contain_oxygen_bond_distance_aromatic_linkinvent_7_9_3/rearranged_h_0173.sdf

> <i_m_source_file_index>
88

> <r_mmod_Potential_Energy-OPLS-2005>
121.114723205566

> <r_mmod_Stretch_Energy-OPLS-2005>
124.872253417969

> <r_mmod_Bend_Energy-OPLS-2005>
147.087051391602

> <r_mmod_Torsional_Energy-OPLS-2005>
236.997863769531

> <r_mmod_Improper_Torsional_Energy-OPLS-2005>
4.70806932449341

> <r_mmod_Van_der_Waal_Energy-OPLS-2005>
148.23420715332

> <r_mmod_Electrostatic_Energy-OPLS-2005>
-365.498779296875

> <r_mmod_Solvation_Energy-OPLS-2005>
-255.834503173828

> <b_mmod_Minimization_Converged-OPLS-2005>
0

> <r_mmod_RMS_Derivative-OPLS-2005>
1.13048803806305

$$$$
88
                    3D
 Structure written by MMmdl.
155163  0  0  1  0            999 V2000
  -30.6124  -14.7363   20.4930 C   0  0  0  0  0  0
  -30.4422  -12.4529   19.4851 C   0  0  0  0  0  0
  -29.5171  -12.5175   18.2471 C   0  0  0  0  0  0
  -28.0417  -12.3465   18.6541 C   0  0  0  0  0  0
  -27.6527  -13.2282   19.8697 C   0  0  2  0  0  0
  -28.6958  -13.1334   21.0059 C   0  0  0  0  0  0
  -25.2537  -13.8192   20.5693 C   0  0  0  0  0  0
  -24.1815  -13.0436   20.9206 C   0  0  0  0  0  0
  -24.6413  -11.6921   20.8753 C   0  0  0  0  0  0
  -23.9085  -10.4299   21.0421 C   0  0  0  0  0  0
  -24.3636   -9.4208   21.9194 C   0  0  0  0  0  0
  -23.6304   -8.2241   22.0763 C   0  0  0  0  0  0
  -22.4277   -8.0292   21.3559 C   0  0  0  0  0  0
  -21.9921   -9.0268   20.4653 C   0  0  0  0  0  0
  -22.7261  -10.2143   20.3067 C   0  0  0  0  0  0
  -21.6850   -6.0744   22.5283 C   0  0  0  0  0  0
  -21.4007   -6.5642   23.8217 C   0  0  0  0  0  0
  -21.3658   -5.6797   24.9179 C   0  0  0  0  0  0
  -21.6042   -4.3060   24.7228 C   0  0  0  0  0  0
  -21.8820   -3.8156   23.4348 C   0  0  0  0  0  0
  -21.9191   -4.6973   22.3406 C   0  0  0  0  0  0
  -22.7837  -13.5225   21.1854 C   0  0  0  0  0  0
  -22.1657   -4.2156   21.0981 F   0  0  0  0  0  0
  -21.5634   -3.4540   25.7739 F   0  0  0  0  0  0
  -30.0056  -13.4969   20.4457 N   0  0  0  0  0  0
  -26.2991  -12.9397   20.3360 N   0  0  0  0  0  0
  -25.9352  -11.6545   20.5792 N   0  0  0  0  0  0
  -22.0467  -12.8227   22.0408 N   0  0  0  0  0  0
  -25.4218  -15.1908   20.4062 N   0  0  0  0  0  0
  -31.7536  -14.8783   20.0451 O   0  0  0  0  0  0
  -21.6640   -6.8888   21.4248 O   0  0  0  0  0  0
  -22.3527  -14.5525   20.6691 O   0  0  0  0  0  0
  -24.6341  -31.8543   23.2017 C   0  0  0  0  0  0
  -25.9148  -32.4754   23.8367 C   0  0  1  0  0  0
  -27.2032  -27.2256   20.1426 C   0  0  0  0  0  0
  -25.5938  -33.8558   24.2281 N   0  0  0  0  0  0
  -23.4343  -30.4801   21.5435 C   0  0  2  0  0  0
  -24.8827  -28.9349   20.1080 C   0  0  0  0  0  0
  -22.7528  -29.4590   22.4885 C   0  0  0  0  0  0
  -18.0299  -28.1383   22.8474 C   0  0  0  0  0  0
  -24.1492  -36.7296   23.2644 C   0  0  0  0  0  0
  -25.9849  -30.7508   21.3990 C   0  0  0  0  0  0
  -26.0524  -29.3723   20.7421 C   0  0  0  0  0  0
  -27.2149  -28.5264   20.7605 C   0  0  0  0  0  0
  -26.0446  -26.9245   19.3959 C   0  0  0  0  0  0
  -24.8868  -27.7185   19.4183 C   0  0  0  0  0  0
  -23.6562  -29.8229   20.1572 C   0  0  0  0  0  0
  -25.4118  -36.3076   24.0333 C   0  0  1  0  0  0
  -20.5904  -28.3699   23.1246 C   0  0  2  0  0  0
  -20.6776  -26.9409   22.5398 C   0  0  0  0  0  0
  -19.5750  -26.6376   21.5202 C   0  0  0  0  0  0
  -18.1939  -26.7921   22.1625 C   0  0  0  0  0  0
  -19.1552  -28.8860   23.2855 C   0  0  0  0  0  0
  -18.9469  -30.1460   23.8878 C   0  0  0  0  0  0
  -17.6464  -30.6578   24.0559 C   0  0  0  0  0  0
  -25.9054  -34.9440   23.5109 C   0  0  0  0  0  0
  -16.5358  -29.9071   23.6331 C   0  0  0  0  0  0
  -16.7285  -28.6492   23.0347 C   0  0  0  0  0  0
  -26.4500  -31.6587   25.0772 C   0  0  0  0  0  0
  -25.3705  -31.3738   26.1484 C   0  0  0  0  0  0
  -27.0375  -30.3002   24.6306 C   0  0  0  0  0  0
  -27.6051  -32.4334   25.7531 C   0  0  0  0  0  0
  -27.5585  -37.1812   24.8463 C   0  0  0  0  0  0
  -21.4230  -29.3045   22.3638 N   0  0  0  0  0  0
  -26.4298  -37.3772   23.9402 N   0  0  0  0  0  0
  -24.7030  -31.0476   22.1030 N   0  0  0  0  0  0
  -23.4219  -28.8110   23.2974 O   0  0  0  0  0  0
  -28.2487  -26.2592   20.2015 O   0  0  0  0  0  0
  -26.5620  -34.8908   22.4676 O   0  0  0  0  0  0
  -23.5481  -32.1383   23.7280 O   0  0  0  0  0  0
  -28.9269  -19.5982   19.0026 C   0  0  0  0  0  0
  -28.7850  -18.3414   18.3777 C   0  0  0  0  0  0
  -29.4613  -19.7218   20.3035 C   0  0  0  0  0  0
  -29.6874  -17.1515   20.3311 C   0  0  0  0  0  0
  -29.1627  -17.1452   19.0187 C   0  0  0  0  0  0
  -29.8229  -18.4629   20.9642 C   0  0  0  0  0  0
  -29.6998  -21.1629   20.8139 C   0  0  0  0  0  0
  -29.1713  -23.7638   20.7165 C   0  0  0  0  0  0
  -26.7036  -24.1081   20.1094 C   0  0  0  0  0  0
  -27.9556  -24.8265   20.6698 C   0  0  2  0  0  0
  -29.9068  -15.8267   20.9730 N   0  0  0  0  0  0
  -28.9154  -22.2856   20.5188 N   0  0  0  0  0  0
  -30.7926  -21.3523   21.5600 N   0  3  0  0  0  0
  -30.3143  -24.1510   20.9852 O   0  0  0  0  0  0
  -28.9668  -15.9720   18.3690 F   0  0  0  0  0  0
  -30.3327  -18.5114   22.2202 F   0  0  0  0  0  0
  -31.4817  -12.5839   19.1792 H   0  0  0  0  0  0
  -30.3982  -11.4684   19.9529 H   0  0  0  0  0  0
  -29.7976  -11.7465   17.5281 H   0  0  0  0  0  0
  -29.6476  -13.4729   17.7365 H   0  0  0  0  0  0
  -27.8887  -11.2946   18.8982 H   0  0  0  0  0  0
  -27.3889  -12.5596   17.8064 H   0  0  0  0  0  0
  -27.6536  -14.2556   19.5131 H   0  0  0  0  0  0
  -28.7256  -12.1219   21.4138 H   0  0  0  0  0  0
  -28.4240  -13.7840   21.8375 H   0  0  0  0  0  0
  -25.2792   -9.5656   22.4762 H   0  0  0  0  0  0
  -24.0005   -7.4621   22.7487 H   0  0  0  0  0  0
  -21.0851   -8.8810   19.8953 H   0  0  0  0  0  0
  -22.3755  -10.9684   19.6164 H   0  0  0  0  0  0
  -21.1998   -7.6146   23.9721 H   0  0  0  0  0  0
  -21.1472   -6.0521   25.9077 H   0  0  0  0  0  0
  -22.0600   -2.7612   23.2848 H   0  0  0  0  0  0
  -22.4088  -11.9892   22.4799 H   0  0  0  0  0  0
  -21.1077  -13.1251   22.2599 H   0  0  0  0  0  0
  -24.6509  -15.8417   20.5120 H   0  0  0  0  0  0
  -26.2624  -15.6233   20.0458 H   0  0  0  0  0  0
  -26.7209  -32.5389   23.1104 H   0  0  0  0  0  0
  -25.0080  -33.9689   25.0422 H   0  0  0  0  0  0
  -22.7336  -31.3050   21.3987 H   0  0  0  0  0  0
  -23.3751  -35.9630   23.3297 H   0  0  0  0  0  0
  -24.3588  -36.8927   22.2060 H   0  0  0  0  0  0
  -23.7239  -37.6499   23.6663 H   0  0  0  0  0  0
  -26.1379  -31.5069   20.6282 H   0  0  0  0  0  0
  -26.8581  -30.7959   22.0372 H   0  0  0  0  0  0
  -28.1003  -28.8470   21.2915 H   0  0  0  0  0  0
  -26.0065  -26.0494   18.7691 H   0  0  0  0  0  0
  -24.0111  -27.4010   18.8679 H   0  0  0  0  0  0
  -23.7863  -30.6029   19.4061 H   0  0  0  0  0  0
  -22.7752  -29.2585   19.8470 H   0  0  0  0  0  0
  -25.1294  -36.1951   25.0826 H   0  0  0  0  0  0
  -20.9999  -28.3275   24.1362 H   0  0  0  0  0  0
  -20.5659  -26.2310   23.3608 H   0  0  0  0  0  0
  -21.6645  -26.7405   22.1206 H   0  0  0  0  0  0
  -19.6906  -25.6279   21.1249 H   0  0  0  0  0  0
  -19.6694  -27.3167   20.6717 H   0  0  0  0  0  0
  -17.4205  -26.6655   21.4040 H   0  0  0  0  0  0
  -18.0349  -26.0069   22.9029 H   0  0  0  0  0  0
  -19.7945  -30.7278   24.2244 H   0  0  0  0  0  0
  -17.5016  -31.6256   24.5158 H   0  0  0  0  0  0
  -15.5355  -30.2961   23.7659 H   0  0  0  0  0  0
  -15.8691  -28.0806   22.7058 H   0  0  0  0  0  0
  -24.5870  -30.7106   25.7796 H   0  0  0  0  0  0
  -24.8915  -32.2908   26.4924 H   0  0  0  0  0  0
  -25.8014  -30.8895   27.0257 H   0  0  0  0  0  0
  -26.3000  -29.6735   24.1285 H   0  0  0  0  0  0
  -27.3983  -29.7289   25.4865 H   0  0  0  0  0  0
  -27.8900  -30.4274   23.9632 H   0  0  0  0  0  0
  -27.2656  -33.3617   26.2135 H   0  0  0  0  0  0
  -28.3840  -32.6928   25.0346 H   0  0  0  0  0  0
  -28.0748  -31.8456   26.5430 H   0  0  0  0  0  0
  -28.2602  -38.0111   24.7507 H   0  0  0  0  0  0
  -28.1087  -36.2644   24.6293 H   0  0  0  0  0  0
  -27.2304  -37.1460   25.8866 H   0  0  0  0  0  0
  -20.9410  -29.8827   21.6891 H   0  0  0  0  0  0
  -26.0191  -38.2859   24.1375 H   0  0  0  0  0  0
  -28.6415  -20.4792   18.4454 H   0  0  0  0  0  0
  -28.3732  -18.2894   17.3803 H   0  0  0  0  0  0
  -25.7851  -24.6164   20.3932 H   0  0  0  0  0  0
  -26.5620  -23.1115   20.5259 H   0  0  0  0  0  0
  -26.7497  -24.0061   19.0250 H   0  0  0  0  0  0
  -27.7385  -24.9712   21.7281 H   0  0  0  0  0  0
  -29.1494  -15.5574   21.5807 H   0  0  0  0  0  0
  -28.0033  -21.9961   20.2005 H   0  0  0  0  0  0
  -31.0646  -22.2896   21.8226 H   0  0  0  0  0  0
  -31.3454  -20.5632   21.8602 H   0  0  0  0  0  0
  1 25  1  0  0  0
  1 30  2  0  0  0
  1 81  1  0  0  0
  2  3  1  0  0  0
  2 25  1  0  0  0
  2 87  1  0  0  0
  2 88  1  0  0  0
  3  4  1  0  0  0
  3 89  1  0  0  0
  3 90  1  0  0  0
  4  5  1  0  0  0
  4 91  1  0  0  0
  4 92  1  0  0  0
  5  6  1  0  0  0
  5 26  1  0  0  0
  5 93  1  0  0  0
  6 25  1  0  0  0
  6 94  1  0  0  0
  6 95  1  0  0  0
  7  8  2  0  0  0
  7 26  1  0  0  0
  7 29  1  0  0  0
  8  9  1  0  0  0
  8 22  1  0  0  0
  9 10  1  0  0  0
  9 27  2  0  0  0
 10 11  2  0  0  0
 10 15  1  0  0  0
 11 12  1  0  0  0
 11 96  1  0  0  0
 12 13  2  0  0  0
 12 97  1  0  0  0
 13 14  1  0  0  0
 13 31  1  0  0  0
 14 15  2  0  0  0
 14 98  1  0  0  0
 15 99  1  0  0  0
 16 17  2  0  0  0
 16 21  1  0  0  0
 16 31  1  0  0  0
 17 18  1  0  0  0
 17100  1  0  0  0
 18 19  2  0  0  0
 18101  1  0  0  0
 19 20  1  0  0  0
 19 24  1  0  0  0
 20 21  2  0  0  0
 20102  1  0  0  0
 21 23  1  0  0  0
 22 28  1  0  0  0
 22 32  2  0  0  0
 26 27  1  0  0  0
 28103  1  0  0  0
 28104  1  0  0  0
 29105  1  0  0  0
 29106  1  0  0  0
 33 34  1  0  0  0
 33 66  1  0  0  0
 33 70  2  0  0  0
 34 36  1  0  0  0
 34 59  1  0  0  0
 34107  1  0  0  0
 35 44  2  0  0  0
 35 45  1  0  0  0
 35 68  1  0  0  0
 36 56  1  0  0  0
 36108  1  0  0  0
 37 39  1  0  0  0
 37 47  1  0  0  0
 37 66  1  0  0  0
 37109  1  0  0  0
 38 43  2  0  0  0
 38 46  1  0  0  0
 38 47  1  0  0  0
 39 64  1  0  0  0
 39 67  2  0  0  0
 40 52  1  0  0  0
 40 53  2  0  0  0
 40 58  1  0  0  0
 41110  1  0  0  0
 41111  1  0  0  0
 41112  1  0  0  0
 41 48  1  0  0  0
 42 43  1  0  0  0
 42 66  1  0  0  0
 42113  1  0  0  0
 42114  1  0  0  0
 43 44  1  0  0  0
 44115  1  0  0  0
 45 46  2  0  0  0
 45116  1  0  0  0
 46117  1  0  0  0
 47118  1  0  0  0
 47119  1  0  0  0
 48 56  1  0  0  0
 48 65  1  0  0  0
 48120  1  0  0  0
 49 50  1  0  0  0
 49 53  1  0  0  0
 49 64  1  0  0  0
 49121  1  0  0  0
 50 51  1  0  0  0
 50122  1  0  0  0
 50123  1  0  0  0
 51 52  1  0  0  0
 51124  1  0  0  0
 51125  1  0  0  0
 52126  1  0  0  0
 52127  1  0  0  0
 53 54  1  0  0  0
 54 55  2  0  0  0
 54128  1  0  0  0
 55 57  1  0  0  0
 55129  1  0  0  0
 56 69  2  0  0  0
 57 58  2  0  0  0
 57130  1  0  0  0
 58131  1  0  0  0
 59 60  1  0  0  0
 59 61  1  0  0  0
 59 62  1  0  0  0
 60132  1  0  0  0
 60133  1  0  0  0
 60134  1  0  0  0
 61135  1  0  0  0
 61136  1  0  0  0
 61137  1  0  0  0
 62138  1  0  0  0
 62139  1  0  0  0
 62140  1  0  0  0
 63 65  1  0  0  0
 63141  1  0  0  0
 63142  1  0  0  0
 63143  1  0  0  0
 64144  1  0  0  0
 65145  1  0  0  0
 68 80  1  0  0  0
 71 72  2  0  0  0
 71 73  1  0  0  0
 71146  1  0  0  0
 72 75  1  0  0  0
 72147  1  0  0  0
 73 76  2  0  0  0
 73 77  1  0  0  0
 74 75  2  0  0  0
 74 76  1  0  0  0
 74 81  1  0  0  0
 75 85  1  0  0  0
 76 86  1  0  0  0
 77 82  1  0  0  0
 77 83  2  0  0  0
 78 80  1  0  0  0
 78 82  1  0  0  0
 78 84  2  0  0  0
 79148  1  0  0  0
 79149  1  0  0  0
 79150  1  0  0  0
 79 80  1  0  0  0
 80151  1  0  0  0
 81152  1  0  0  0
 82153  1  0  0  0
 83154  1  0  0  0
 83155  1  0  0  0
M  CHG  1  83   1
M  ISO  4   1 100  68 101  80 101  81 100
M  END
> <chiral flag>
0

> <version>
0

> <s_m_source_file>
/data/baiqing/PycharmProjects/Reinvent-master-3.2/result/LINK_invent/BTK/process_docking_weight1_custom_product_contain_oxygen_bond_distance_aromatic_linkinvent_7_9_3/rearranged_h_0173.sdf

> <i_m_source_file_index>
89

> <r_mmod_Potential_Energy-OPLS-2005>
-94.9091186523438

> <r_mmod_Stretch_Energy-OPLS-2005>
145.704849243164

> <r_mmod_Bend_Energy-OPLS-2005>
183.340423583984

> <r_mmod_Torsional_Energy-OPLS-2005>
279.45556640625

> <r_mmod_Improper_Torsional_Energy-OPLS-2005>
6.13783931732178

> <r_mmod_Van_der_Waal_Energy-OPLS-2005>
155.668212890625

> <r_mmod_Electrostatic_Energy-OPLS-2005>
-485.116668701172

> <r_mmod_Solvation_Energy-OPLS-2005>
-479.168151855469

> <b_mmod_Minimization_Converged-OPLS-2005>
0

> <r_mmod_RMS_Derivative-OPLS-2005>
2.14761209487915

$$$$
89
                    3D
 Structure written by MMmdl.
153161  0  0  1  0            999 V2000
  -30.5958  -14.7740   20.4394 C   0  0  0  0  0  0
  -30.4299  -12.4663   19.4932 C   0  0  0  0  0  0
  -29.5172  -12.5185   18.2469 C   0  0  0  0  0  0
  -28.0405  -12.3400   18.6505 C   0  0  0  0  0  0
  -27.6411  -13.2377   19.8528 C   0  0  2  0  0  0
  -28.6810  -13.1828   20.9941 C   0  0  0  0  0  0
  -25.2499  -13.8210   20.5680 C   0  0  0  0  0  0
  -24.1799  -13.0448   20.9200 C   0  0  0  0  0  0
  -24.6403  -11.6930   20.8746 C   0  0  0  0  0  0
  -23.9082  -10.4302   21.0399 C   0  0  0  0  0  0
  -24.3633   -9.4218   21.9175 C   0  0  0  0  0  0
  -23.6308   -8.2252   22.0750 C   0  0  0  0  0  0
  -22.4289   -8.0287   21.3541 C   0  0  0  0  0  0
  -21.9925   -9.0260   20.4641 C   0  0  0  0  0  0
  -22.7255  -10.2139   20.3047 C   0  0  0  0  0  0
  -21.6860   -6.0742   22.5280 C   0  0  0  0  0  0
  -21.4016   -6.5641   23.8212 C   0  0  0  0  0  0
  -21.3661   -5.6791   24.9174 C   0  0  0  0  0  0
  -21.6046   -4.3054   24.7221 C   0  0  0  0  0  0
  -21.8819   -3.8151   23.4342 C   0  0  0  0  0  0
  -21.9193   -4.6969   22.3402 C   0  0  0  0  0  0
  -22.7816  -13.5220   21.1859 C   0  0  0  0  0  0
  -22.1658   -4.2153   21.0977 F   0  0  0  0  0  0
  -21.5632   -3.4537   25.7734 F   0  0  0  0  0  0
  -29.9848  -13.5357   20.4213 N   0  0  0  0  0  0
  -26.2931  -12.9430   20.3275 N   0  0  0  0  0  0
  -25.9331  -11.6566   20.5743 N   0  0  0  0  0  0
  -22.0467  -12.8214   22.0423 N   0  0  0  0  0  0
  -25.4182  -15.1934   20.4098 N   0  0  0  0  0  0
  -31.7839  -14.8522   20.1061 O   0  0  0  0  0  0
  -21.6649   -6.8886   21.4241 O   0  0  0  0  0  0
  -22.3496  -14.5522   20.6707 O   0  0  0  0  0  0
  -24.6313  -31.8533   23.1948 C   0  0  0  0  0  0
  -25.9136  -32.4742   23.8299 C   0  0  1  0  0  0
  -27.2242  -27.2470   20.1315 C   0  0  0  0  0  0
  -25.5935  -33.8544   24.2230 N   0  0  0  0  0  0
  -23.4277  -30.4727   21.5388 C   0  0  2  0  0  0
  -24.8750  -28.9135   20.1060 C   0  0  0  0  0  0
  -22.7499  -29.4586   22.4917 C   0  0  0  0  0  0
  -18.0293  -28.1373   22.8492 C   0  0  0  0  0  0
  -24.1493  -36.7273   23.2641 C   0  0  0  0  0  0
  -25.9721  -30.7611   21.3748 C   0  0  0  0  0  0
  -26.0437  -29.3820   20.7170 C   0  0  0  0  0  0
  -27.2151  -28.5593   20.7207 C   0  0  0  0  0  0
  -26.0307  -26.8436   19.4932 C   0  0  0  0  0  0
  -24.8749  -27.6542   19.4833 C   0  0  0  0  0  0
  -23.6446  -29.8006   20.1558 C   0  0  0  0  0  0
  -25.4123  -36.3059   24.0324 C   0  0  1  0  0  0
  -20.5896  -28.3680   23.1280 C   0  0  2  0  0  0
  -20.6778  -26.9399   22.5412 C   0  0  0  0  0  0
  -19.5758  -26.6372   21.5212 C   0  0  0  0  0  0
  -18.1938  -26.7918   22.1621 C   0  0  0  0  0  0
  -19.1546  -28.8845   23.2880 C   0  0  0  0  0  0
  -18.9466  -30.1450   23.8892 C   0  0  0  0  0  0
  -17.6465  -30.6581   24.0554 C   0  0  0  0  0  0
  -25.9062  -34.9434   23.5081 C   0  0  0  0  0  0
  -16.5356  -29.9073   23.6334 C   0  0  0  0  0  0
  -16.7278  -28.6487   23.0364 C   0  0  0  0  0  0
  -26.4500  -31.6571   25.0694 C   0  0  0  0  0  0
  -25.3719  -31.3722   26.1410 C   0  0  0  0  0  0
  -27.0355  -30.2993   24.6181 C   0  0  0  0  0  0
  -27.6051  -32.4314   25.7473 C   0  0  0  0  0  0
  -27.5584  -37.1793   24.8469 C   0  0  0  0  0  0
  -21.4205  -29.3030   22.3667 N   0  0  0  0  0  0
  -26.4296  -37.3763   23.9407 N   0  0  0  0  0  0
  -24.6961  -31.0487   22.0922 N   0  0  0  0  0  0
  -23.4196  -28.8146   23.3032 O   0  0  0  0  0  0
  -28.3354  -26.3763   20.2396 O   0  0  0  0  0  0
  -26.5643  -34.8917   22.4655 O   0  0  0  0  0  0
  -23.5465  -32.1358   23.7248 O   0  0  0  0  0  0
  -30.2524  -18.4618   17.9349 C   0  0  0  0  0  0
  -30.3314  -17.2922   18.7071 C   0  0  0  0  0  0
  -29.7345  -19.6475   18.4807 C   0  0  0  0  0  0
  -29.8764  -17.2704   20.0409 C   0  0  0  0  0  0
  -29.3617  -19.6895   19.8442 C   0  0  0  0  0  0
  -28.3396  -23.6655   20.4624 C   0  0  0  0  0  0
  -30.4921  -22.6479   19.3268 C   0  0  0  0  0  0
  -28.4578  -25.0193   19.5855 C   0  0  0  0  0  0
  -29.3529  -22.3728   20.3269 C   0  0  2  0  0  0
  -29.3997  -18.4868   20.5742 N   0  0  0  0  0  0
  -29.8323  -15.9200   20.6793 N   0  0  0  0  0  0
  -28.8237  -20.9272   20.4032 N   0  0  0  0  0  0
  -27.4250  -23.6118   21.2885 O   0  0  0  0  0  0
  -29.5365  -20.6998   17.6532 F   0  0  0  0  0  0
  -31.4741  -12.5820   19.1976 H   0  0  0  0  0  0
  -30.3652  -11.4910   19.9777 H   0  0  0  0  0  0
  -29.8071  -11.7470   17.5327 H   0  0  0  0  0  0
  -29.6461  -13.4739   17.7352 H   0  0  0  0  0  0
  -27.8963  -11.2898   18.9082 H   0  0  0  0  0  0
  -27.3887  -12.5354   17.7979 H   0  0  0  0  0  0
  -27.6327  -14.2587   19.4714 H   0  0  0  0  0  0
  -28.7165  -12.1892   21.4432 H   0  0  0  0  0  0
  -28.4081  -13.8701   21.7966 H   0  0  0  0  0  0
  -25.2775   -9.5697   22.4752 H   0  0  0  0  0  0
  -24.0017   -7.4645   22.7474 H   0  0  0  0  0  0
  -21.0853   -8.8780   19.8950 H   0  0  0  0  0  0
  -22.3707  -10.9676   19.6161 H   0  0  0  0  0  0
  -21.2005   -7.6149   23.9716 H   0  0  0  0  0  0
  -21.1482   -6.0519   25.9074 H   0  0  0  0  0  0
  -22.0596   -2.7612   23.2840 H   0  0  0  0  0  0
  -22.4085  -11.9878   22.4819 H   0  0  0  0  0  0
  -21.1075  -13.1221   22.2614 H   0  0  0  0  0  0
  -24.6473  -15.8446   20.5149 H   0  0  0  0  0  0
  -26.2633  -15.6361   20.0740 H   0  0  0  0  0  0
  -26.7198  -32.5379   23.1032 H   0  0  0  0  0  0
  -25.0076  -33.9673   25.0371 H   0  0  0  0  0  0
  -22.7244  -31.2952   21.3912 H   0  0  0  0  0  0
  -23.3762  -35.9598   23.3297 H   0  0  0  0  0  0
  -24.3582  -36.8902   22.2056 H   0  0  0  0  0  0
  -23.7235  -37.6468   23.6670 H   0  0  0  0  0  0
  -26.1136  -31.5225   20.6065 H   0  0  0  0  0  0
  -26.8486  -30.8095   22.0092 H   0  0  0  0  0  0
  -28.1074  -28.9121   21.2185 H   0  0  0  0  0  0
  -25.9499  -25.8714   19.0326 H   0  0  0  0  0  0
  -23.9764  -27.2882   19.0052 H   0  0  0  0  0  0
  -23.7630  -30.5739   19.3960 H   0  0  0  0  0  0
  -22.7625  -29.2316   19.8573 H   0  0  0  0  0  0
  -25.1307  -36.1903   25.0818 H   0  0  0  0  0  0
  -20.9988  -28.3250   24.1401 H   0  0  0  0  0  0
  -20.5671  -26.2289   23.3613 H   0  0  0  0  0  0
  -21.6649  -26.7422   22.1212 H   0  0  0  0  0  0
  -19.6919  -25.6282   21.1250 H   0  0  0  0  0  0
  -19.6699  -27.3178   20.6739 H   0  0  0  0  0  0
  -17.4210  -26.6678   21.4019 H   0  0  0  0  0  0
  -18.0329  -26.0051   22.9006 H   0  0  0  0  0  0
  -19.7941  -30.7270   24.2254 H   0  0  0  0  0  0
  -17.5017  -31.6266   24.5145 H   0  0  0  0  0  0
  -15.5353  -30.2969   23.7656 H   0  0  0  0  0  0
  -15.8681  -28.0792   22.7091 H   0  0  0  0  0  0
  -24.5909  -30.7055   25.7734 H   0  0  0  0  0  0
  -24.8891  -32.2889   26.4808 H   0  0  0  0  0  0
  -25.8034  -30.8918   27.0200 H   0  0  0  0  0  0
  -26.2936  -29.6728   24.1214 H   0  0  0  0  0  0
  -27.4056  -29.7268   25.4695 H   0  0  0  0  0  0
  -27.8805  -30.4276   23.9411 H   0  0  0  0  0  0
  -27.2662  -33.3626   26.2024 H   0  0  0  0  0  0
  -28.3879  -32.6849   25.0311 H   0  0  0  0  0  0
  -28.0697  -31.8450   26.5408 H   0  0  0  0  0  0
  -28.2600  -38.0091   24.7523 H   0  0  0  0  0  0
  -28.1084  -36.2625   24.6292 H   0  0  0  0  0  0
  -27.2306  -37.1435   25.8873 H   0  0  0  0  0  0
  -20.9388  -29.8734   21.6859 H   0  0  0  0  0  0
  -26.0176  -38.2840   24.1394 H   0  0  0  0  0  0
  -30.5461  -18.4366   16.8962 H   0  0  0  0  0  0
  -30.6919  -16.3956   18.2224 H   0  0  0  0  0  0
  -31.0512  -23.5355   19.6251 H   0  0  0  0  0  0
  -30.1223  -22.8328   18.3182 H   0  0  0  0  0  0
  -31.2194  -21.8366   19.2972 H   0  0  0  0  0  0
  -27.7653  -24.9360   18.7503 H   0  0  0  0  0  0
  -29.4400  -25.0176   19.1181 H   0  0  0  0  0  0
  -29.8841  -22.4032   21.2786 H   0  0  0  0  0  0
  -28.9890  -15.7451   21.2021 H   0  0  0  0  0  0
  -28.3030  -20.7758   21.2591 H   0  0  0  0  0  0
  1 25  1  0  0  0
  1 30  2  0  0  0
  1 81  1  0  0  0
  2  3  1  0  0  0
  2 25  1  0  0  0
  2 85  1  0  0  0
  2 86  1  0  0  0
  3  4  1  0  0  0
  3 87  1  0  0  0
  3 88  1  0  0  0
  4  5  1  0  0  0
  4 89  1  0  0  0
  4 90  1  0  0  0
  5  6  1  0  0  0
  5 26  1  0  0  0
  5 91  1  0  0  0
  6 25  1  0  0  0
  6 92  1  0  0  0
  6 93  1  0  0  0
  7  8  2  0  0  0
  7 26  1  0  0  0
  7 29  1  0  0  0
  8  9  1  0  0  0
  8 22  1  0  0  0
  9 10  1  0  0  0
  9 27  2  0  0  0
 10 11  2  0  0  0
 10 15  1  0  0  0
 11 12  1  0  0  0
 11 94  1  0  0  0
 12 13  2  0  0  0
 12 95  1  0  0  0
 13 14  1  0  0  0
 13 31  1  0  0  0
 14 15  2  0  0  0
 14 96  1  0  0  0
 15 97  1  0  0  0
 16 17  2  0  0  0
 16 21  1  0  0  0
 16 31  1  0  0  0
 17 18  1  0  0  0
 17 98  1  0  0  0
 18 19  2  0  0  0
 18 99  1  0  0  0
 19 20  1  0  0  0
 19 24  1  0  0  0
 20 21  2  0  0  0
 20100  1  0  0  0
 21 23  1  0  0  0
 22 28  1  0  0  0
 22 32  2  0  0  0
 26 27  1  0  0  0
 28101  1  0  0  0
 28102  1  0  0  0
 29103  1  0  0  0
 29104  1  0  0  0
 33 34  1  0  0  0
 33 66  1  0  0  0
 33 70  2  0  0  0
 34 36  1  0  0  0
 34 59  1  0  0  0
 34105  1  0  0  0
 35 44  2  0  0  0
 35 45  1  0  0  0
 35 68  1  0  0  0
 36 56  1  0  0  0
 36106  1  0  0  0
 37 39  1  0  0  0
 37 47  1  0  0  0
 37 66  1  0  0  0
 37107  1  0  0  0
 38 43  2  0  0  0
 38 46  1  0  0  0
 38 47  1  0  0  0
 39 64  1  0  0  0
 39 67  2  0  0  0
 40 52  1  0  0  0
 40 53  2  0  0  0
 40 58  1  0  0  0
 41108  1  0  0  0
 41109  1  0  0  0
 41110  1  0  0  0
 41 48  1  0  0  0
 42 43  1  0  0  0
 42 66  1  0  0  0
 42111  1  0  0  0
 42112  1  0  0  0
 43 44  1  0  0  0
 44113  1  0  0  0
 45 46  2  0  0  0
 45114  1  0  0  0
 46115  1  0  0  0
 47116  1  0  0  0
 47117  1  0  0  0
 48 56  1  0  0  0
 48 65  1  0  0  0
 48118  1  0  0  0
 49 50  1  0  0  0
 49 53  1  0  0  0
 49 64  1  0  0  0
 49119  1  0  0  0
 50 51  1  0  0  0
 50120  1  0  0  0
 50121  1  0  0  0
 51 52  1  0  0  0
 51122  1  0  0  0
 51123  1  0  0  0
 52124  1  0  0  0
 52125  1  0  0  0
 53 54  1  0  0  0
 54 55  2  0  0  0
 54126  1  0  0  0
 55 57  1  0  0  0
 55127  1  0  0  0
 56 69  2  0  0  0
 57 58  2  0  0  0
 57128  1  0  0  0
 58129  1  0  0  0
 59 60  1  0  0  0
 59 61  1  0  0  0
 59 62  1  0  0  0
 60130  1  0  0  0
 60131  1  0  0  0
 60132  1  0  0  0
 61133  1  0  0  0
 61134  1  0  0  0
 61135  1  0  0  0
 62136  1  0  0  0
 62137  1  0  0  0
 62138  1  0  0  0
 63 65  1  0  0  0
 63139  1  0  0  0
 63140  1  0  0  0
 63141  1  0  0  0
 64142  1  0  0  0
 65143  1  0  0  0
 68 78  1  0  0  0
 71 72  2  0  0  0
 71 73  1  0  0  0
 71144  1  0  0  0
 72 74  1  0  0  0
 72145  1  0  0  0
 73 75  2  0  0  0
 73 84  1  0  0  0
 74 80  2  0  0  0
 74 81  1  0  0  0
 75 80  1  0  0  0
 75 82  1  0  0  0
 76 78  1  0  0  0
 76 79  1  0  0  0
 76 83  2  0  0  0
 77146  1  0  0  0
 77147  1  0  0  0
 77148  1  0  0  0
 77 79  1  0  0  0
 78149  1  0  0  0
 78150  1  0  0  0
 79 82  1  0  0  0
 79151  1  0  0  0
 81152  1  0  0  0
 82153  1  0  0  0
M  ISO  4   1 100  68 101  78 101  81 100
M  END
> <chiral flag>
0

> <version>
0

> <s_m_source_file>
/data/baiqing/PycharmProjects/Reinvent-master-3.2/result/LINK_invent/BTK/process_docking_weight1_custom_product_contain_oxygen_bond_distance_aromatic_linkinvent_7_9_3/rearranged_h_0173.sdf

> <i_m_source_file_index>
90

> <r_mmod_Potential_Energy-OPLS-2005>
148.037521362305

> <r_mmod_Stretch_Energy-OPLS-2005>
151.79411315918

> <r_mmod_Bend_Energy-OPLS-2005>
216.632904052734

> <r_mmod_Torsional_Energy-OPLS-2005>
249.689895629883

> <r_mmod_Improper_Torsional_Energy-OPLS-2005>
7.43975830078125

> <r_mmod_Van_der_Waal_Energy-OPLS-2005>
143.55354309082

> <r_mmod_Electrostatic_Energy-OPLS-2005>
-474.483062744141

> <r_mmod_Solvation_Energy-OPLS-2005>
-241.560180664062

> <b_mmod_Minimization_Converged-OPLS-2005>
0

> <r_mmod_RMS_Derivative-OPLS-2005>
1.11483550071716

$$$$
90
                    3D
 Structure written by MMmdl.
166174  0  0  1  0            999 V2000
  -30.7289  -14.5030   20.5720 C   0  0  0  0  0  0
  -30.4163  -12.3377   19.4241 C   0  0  0  0  0  0
  -29.4786  -12.4919   18.2092 C   0  0  0  0  0  0
  -28.0090  -12.3412   18.6361 C   0  0  0  0  0  0
  -27.6545  -13.2069   19.8714 C   0  0  2  0  0  0
  -28.6999  -13.0431   20.9962 C   0  0  0  0  0  0
  -25.2566  -13.8153   20.5692 C   0  0  0  0  0  0
  -24.1830  -13.0444   20.9202 C   0  0  0  0  0  0
  -24.6385  -11.6906   20.8764 C   0  0  0  0  0  0
  -23.9058  -10.4289   21.0402 C   0  0  0  0  0  0
  -24.3594   -9.4220   21.9202 C   0  0  0  0  0  0
  -23.6267   -8.2253   22.0774 C   0  0  0  0  0  0
  -22.4270   -8.0280   21.3540 C   0  0  0  0  0  0
  -21.9921   -9.0249   20.4620 C   0  0  0  0  0  0
  -22.7245  -10.2120   20.3038 C   0  0  0  0  0  0
  -21.6843   -6.0751   22.5274 C   0  0  0  0  0  0
  -21.3994   -6.5645   23.8211 C   0  0  0  0  0  0
  -21.3656   -5.6801   24.9168 C   0  0  0  0  0  0
  -21.6049   -4.3058   24.7224 C   0  0  0  0  0  0
  -21.8821   -3.8156   23.4344 C   0  0  0  0  0  0
  -21.9180   -4.6979   22.3393 C   0  0  0  0  0  0
  -22.7846  -13.5244   21.1834 C   0  0  0  0  0  0
  -22.1660   -4.2159   21.0970 F   0  0  0  0  0  0
  -21.5634   -3.4541   25.7747 F   0  0  0  0  0  0
  -30.0244  -13.3429   20.4275 N   0  0  0  0  0  0
  -26.2991  -12.9327   20.3396 N   0  0  0  0  0  0
  -25.9304  -11.6490   20.5831 N   0  0  0  0  0  0
  -22.0448  -12.8185   22.0301 N   0  0  0  0  0  0
  -25.4306  -15.1858   20.4050 N   0  0  0  0  0  0
  -31.8560  -14.6501   20.0905 O   0  0  0  0  0  0
  -21.6619   -6.8894   21.4248 O   0  0  0  0  0  0
  -22.3553  -14.5592   20.6739 O   0  0  0  0  0  0
  -24.6190  -31.8613   23.2141 C   0  0  0  0  0  0
  -25.9102  -32.4781   23.8368 C   0  0  1  0  0  0
  -27.2209  -27.3773   20.0950 C   0  0  0  0  0  0
  -25.5949  -33.8577   24.2306 N   0  0  0  0  0  0
  -23.4062  -30.4930   21.5516 C   0  0  2  0  0  0
  -24.8573  -28.9599   20.1148 C   0  0  0  0  0  0
  -22.7423  -29.4652   22.4962 C   0  0  0  0  0  0
  -18.0266  -28.1352   22.8471 C   0  0  0  0  0  0
  -24.1473  -36.7270   23.2636 C   0  0  0  0  0  0
  -25.9451  -30.8088   21.3830 C   0  0  0  0  0  0
  -26.0212  -29.4374   20.7336 C   0  0  0  0  0  0
  -27.2060  -28.6476   20.7352 C   0  0  0  0  0  0
  -26.0588  -26.9723   19.4143 C   0  0  0  0  0  0
  -24.8735  -27.7258   19.4510 C   0  0  0  0  0  0
  -23.6206  -29.8323   20.1638 C   0  0  0  0  0  0
  -25.4096  -36.3075   24.0339 C   0  0  1  0  0  0
  -20.5871  -28.3649   23.1274 C   0  0  2  0  0  0
  -20.6755  -26.9386   22.5381 C   0  0  0  0  0  0
  -19.5748  -26.6379   21.5168 C   0  0  0  0  0  0
  -18.1911  -26.7905   22.1578 C   0  0  0  0  0  0
  -19.1524  -28.8812   23.2868 C   0  0  0  0  0  0
  -18.9474  -30.1407   23.8906 C   0  0  0  0  0  0
  -17.6486  -30.6585   24.0527 C   0  0  0  0  0  0
  -25.9045  -34.9442   23.5116 C   0  0  0  0  0  0
  -16.5367  -29.9085   23.6320 C   0  0  0  0  0  0
  -16.7268  -28.6490   23.0362 C   0  0  0  0  0  0
  -26.4533  -31.6568   25.0684 C   0  0  0  0  0  0
  -25.3799  -31.3558   26.1382 C   0  0  0  0  0  0
  -27.0511  -30.3078   24.6064 C   0  0  0  0  0  0
  -27.6028  -32.4335   25.7534 C   0  0  0  0  0  0
  -27.5564  -37.1781   24.8461 C   0  0  0  0  0  0
  -21.4156  -29.3033   22.3706 N   0  0  0  0  0  0
  -26.4250  -37.3792   23.9432 N   0  0  0  0  0  0
  -24.6742  -31.0675   22.1080 N   0  0  0  0  0  0
  -23.4180  -28.8174   23.3003 O   0  0  0  0  0  0
  -28.3330  -26.5423   20.0610 O   0  0  0  0  0  0
  -26.5608  -34.8909   22.4665 O   0  0  0  0  0  0
  -23.5388  -32.1394   23.7564 O   0  0  0  0  0  0
  -31.2149  -18.0709   19.7996 C   0  0  0  0  0  0
  -29.1618  -19.1448   20.5438 C   0  0  0  0  0  0
  -31.0237  -20.5088   19.7753 C   0  0  0  0  0  0
  -29.9099  -17.9509   20.3225 C   0  0  0  0  0  0
  -31.7797  -19.3362   19.5381 C   0  0  0  0  0  0
  -29.7007  -20.4424   20.2811 C   0  0  0  0  0  0
  -29.1366  -22.9589   20.4426 C   0  0  0  0  0  0
  -27.2705  -23.4516   22.0669 C   0  0  0  0  0  0
  -26.9156  -23.8300   19.6453 C   0  0  0  0  0  0
  -30.8428  -16.0135   22.4502 C   0  0  0  0  0  0
  -29.3058  -16.5456   20.5734 C   0  0  0  0  0  0
  -28.3817  -25.4820   21.0635 C   0  0  0  0  0  0
  -33.1982  -19.4479   18.9888 C   0  0  0  0  0  0
  -27.9608  -23.9572   20.7721 C   0  0  0  0  0  0
  -28.8774  -21.6174   20.5176 N   0  0  0  0  0  0
  -30.1438  -15.5201   21.2583 N   0  0  0  0  0  0
  -30.2402  -23.4099   20.1293 O   0  0  0  0  0  0
  -33.8514  -18.2868   19.0561 F   0  0  0  0  0  0
  -33.1644  -19.8352   17.7134 F   0  0  0  0  0  0
  -33.8860  -20.3514   19.6881 F   0  0  0  0  0  0
  -31.4547  -12.4451   19.1025 H   0  0  0  0  0  0
  -30.3421  -11.3373   19.8519 H   0  0  0  0  0  0
  -29.7229  -11.7419   17.4549 H   0  0  0  0  0  0
  -29.6257  -13.4636   17.7342 H   0  0  0  0  0  0
  -27.8423  -11.2885   18.8679 H   0  0  0  0  0  0
  -27.3447  -12.5796   17.8046 H   0  0  0  0  0  0
  -27.6822  -14.2469   19.5487 H   0  0  0  0  0  0
  -28.6811  -12.0258   21.3911 H   0  0  0  0  0  0
  -28.4512  -13.6934   21.8367 H   0  0  0  0  0  0
  -25.2719   -9.5697   22.4804 H   0  0  0  0  0  0
  -23.9953   -7.4663   22.7523 H   0  0  0  0  0  0
  -21.0866   -8.8779   19.8890 H   0  0  0  0  0  0
  -22.3739  -10.9677   19.6131 H   0  0  0  0  0  0
  -21.1984   -7.6152   23.9724 H   0  0  0  0  0  0
  -21.1473   -6.0522   25.9079 H   0  0  0  0  0  0
  -22.0599   -2.7625   23.2847 H   0  0  0  0  0  0
  -22.4014  -11.9766   22.4584 H   0  0  0  0  0  0
  -21.1058  -13.1196   22.2500 H   0  0  0  0  0  0
  -24.6659  -15.8449   20.5026 H   0  0  0  0  0  0
  -26.2758  -15.6122   20.0495 H   0  0  0  0  0  0
  -26.7156  -32.5506   23.1118 H   0  0  0  0  0  0
  -25.0116  -33.9688   25.0458 H   0  0  0  0  0  0
  -22.6962  -31.3102   21.4116 H   0  0  0  0  0  0
  -23.3778  -35.9548   23.3250 H   0  0  0  0  0  0
  -24.3594  -36.8953   22.2066 H   0  0  0  0  0  0
  -23.7149  -37.6424   23.6694 H   0  0  0  0  0  0
  -26.0533  -31.5785   20.6166 H   0  0  0  0  0  0
  -26.8304  -30.8645   22.0033 H   0  0  0  0  0  0
  -28.1001  -28.9980   21.2322 H   0  0  0  0  0  0
  -26.0541  -26.0834   18.8090 H   0  0  0  0  0  0
  -23.9966  -27.3707   18.9289 H   0  0  0  0  0  0
  -23.7316  -30.6066   19.4030 H   0  0  0  0  0  0
  -22.7419  -29.2583   19.8648 H   0  0  0  0  0  0
  -25.1265  -36.1930   25.0832 H   0  0  0  0  0  0
  -20.9909  -28.3219   24.1422 H   0  0  0  0  0  0
  -20.5666  -26.2237   23.3551 H   0  0  0  0  0  0
  -21.6612  -26.7418   22.1161 H   0  0  0  0  0  0
  -19.6897  -25.6292   21.1207 H   0  0  0  0  0  0
  -19.6704  -27.3166   20.6682 H   0  0  0  0  0  0
  -17.4153  -26.6627   21.4020 H   0  0  0  0  0  0
  -18.0347  -26.0000   22.8954 H   0  0  0  0  0  0
  -19.7963  -30.7160   24.2339 H   0  0  0  0  0  0
  -17.5065  -31.6303   24.5075 H   0  0  0  0  0  0
  -15.5378  -30.2987   23.7687 H   0  0  0  0  0  0
  -15.8638  -28.0830   22.7113 H   0  0  0  0  0  0
  -24.5973  -30.6953   25.7628 H   0  0  0  0  0  0
  -24.8976  -32.2660   26.4955 H   0  0  0  0  0  0
  -25.8102  -30.8585   27.0074 H   0  0  0  0  0  0
  -26.3114  -29.6700   24.1198 H   0  0  0  0  0  0
  -27.4495  -29.7425   25.4502 H   0  0  0  0  0  0
  -27.8818  -30.4536   23.9136 H   0  0  0  0  0  0
  -27.2603  -33.3684   26.1996 H   0  0  0  0  0  0
  -28.3929  -32.6812   25.0429 H   0  0  0  0  0  0
  -28.0557  -31.8498   26.5561 H   0  0  0  0  0  0
  -28.2473  -38.0190   24.7645 H   0  0  0  0  0  0
  -28.1158  -36.2706   24.6138 H   0  0  0  0  0  0
  -27.2262  -37.1260   25.8850 H   0  0  0  0  0  0
  -20.9327  -29.8762   21.6943 H   0  0  0  0  0  0
  -26.0142  -38.2846   24.1522 H   0  0  0  0  0  0
  -31.7878  -17.1820   19.5835 H   0  0  0  0  0  0
  -28.1495  -19.0610   20.9157 H   0  0  0  0  0  0
  -31.4943  -21.4498   19.5354 H   0  0  0  0  0  0
  -26.8437  -22.4529   21.9508 H   0  0  0  0  0  0
  -26.4477  -24.1068   22.3592 H   0  0  0  0  0  0
  -27.9668  -23.4252   22.9070 H   0  0  0  0  0  0
  -26.6573  -22.7909   19.4408 H   0  0  0  0  0  0
  -27.2785  -24.2600   18.7095 H   0  0  0  0  0  0
  -25.9759  -24.3094   19.9239 H   0  0  0  0  0  0
  -30.2042  -16.6754   23.0366 H   0  0  0  0  0  0
  -31.7431  -16.5651   22.1716 H   0  0  0  0  0  0
  -31.1487  -15.1897   23.1001 H   0  0  0  0  0  0
  -28.9962  -16.1538   19.6009 H   0  0  0  0  0  0
  -28.3831  -16.6521   21.1479 H   0  0  0  0  0  0
  -29.4008  -25.4911   21.4538 H   0  0  0  0  0  0
  -27.8009  -25.8502   21.9118 H   0  0  0  0  0  0
  -27.9259  -21.4156   20.7895 H   0  0  0  0  0  0
  1 25  1  0  0  0
  1 30  2  0  0  0
  1 86  1  0  0  0
  2  3  1  0  0  0
  2 25  1  0  0  0
  2 91  1  0  0  0
  2 92  1  0  0  0
  3  4  1  0  0  0
  3 93  1  0  0  0
  3 94  1  0  0  0
  4  5  1  0  0  0
  4 95  1  0  0  0
  4 96  1  0  0  0
  5  6  1  0  0  0
  5 26  1  0  0  0
  5 97  1  0  0  0
  6 25  1  0  0  0
  6 98  1  0  0  0
  6 99  1  0  0  0
  7  8  2  0  0  0
  7 26  1  0  0  0
  7 29  1  0  0  0
  8  9  1  0  0  0
  8 22  1  0  0  0
  9 10  1  0  0  0
  9 27  2  0  0  0
 10 11  2  0  0  0
 10 15  1  0  0  0
 11 12  1  0  0  0
 11100  1  0  0  0
 12 13  2  0  0  0
 12101  1  0  0  0
 13 14  1  0  0  0
 13 31  1  0  0  0
 14 15  2  0  0  0
 14102  1  0  0  0
 15103  1  0  0  0
 16 17  2  0  0  0
 16 21  1  0  0  0
 16 31  1  0  0  0
 17 18  1  0  0  0
 17104  1  0  0  0
 18 19  2  0  0  0
 18105  1  0  0  0
 19 20  1  0  0  0
 19 24  1  0  0  0
 20 21  2  0  0  0
 20106  1  0  0  0
 21 23  1  0  0  0
 22 28  1  0  0  0
 22 32  2  0  0  0
 26 27  1  0  0  0
 28107  1  0  0  0
 28108  1  0  0  0
 29109  1  0  0  0
 29110  1  0  0  0
 33 34  1  0  0  0
 33 66  1  0  0  0
 33 70  2  0  0  0
 34 36  1  0  0  0
 34 59  1  0  0  0
 34111  1  0  0  0
 35 44  2  0  0  0
 35 45  1  0  0  0
 35 68  1  0  0  0
 36 56  1  0  0  0
 36112  1  0  0  0
 37 39  1  0  0  0
 37 47  1  0  0  0
 37 66  1  0  0  0
 37113  1  0  0  0
 38 43  2  0  0  0
 38 46  1  0  0  0
 38 47  1  0  0  0
 39 64  1  0  0  0
 39 67  2  0  0  0
 40 52  1  0  0  0
 40 53  2  0  0  0
 40 58  1  0  0  0
 41114  1  0  0  0
 41115  1  0  0  0
 41116  1  0  0  0
 41 48  1  0  0  0
 42 43  1  0  0  0
 42 66  1  0  0  0
 42117  1  0  0  0
 42118  1  0  0  0
 43 44  1  0  0  0
 44119  1  0  0  0
 45 46  2  0  0  0
 45120  1  0  0  0
 46121  1  0  0  0
 47122  1  0  0  0
 47123  1  0  0  0
 48 56  1  0  0  0
 48 65  1  0  0  0
 48124  1  0  0  0
 49 50  1  0  0  0
 49 53  1  0  0  0
 49 64  1  0  0  0
 49125  1  0  0  0
 50 51  1  0  0  0
 50126  1  0  0  0
 50127  1  0  0  0
 51 52  1  0  0  0
 51128  1  0  0  0
 51129  1  0  0  0
 52130  1  0  0  0
 52131  1  0  0  0
 53 54  1  0  0  0
 54 55  2  0  0  0
 54132  1  0  0  0
 55 57  1  0  0  0
 55133  1  0  0  0
 56 69  2  0  0  0
 57 58  2  0  0  0
 57134  1  0  0  0
 58135  1  0  0  0
 59 60  1  0  0  0
 59 61  1  0  0  0
 59 62  1  0  0  0
 60136  1  0  0  0
 60137  1  0  0  0
 60138  1  0  0  0
 61139  1  0  0  0
 61140  1  0  0  0
 61141  1  0  0  0
 62142  1  0  0  0
 62143  1  0  0  0
 62144  1  0  0  0
 63 65  1  0  0  0
 63145  1  0  0  0
 63146  1  0  0  0
 63147  1  0  0  0
 64148  1  0  0  0
 65149  1  0  0  0
 68 82  1  0  0  0
 71 74  2  0  0  0
 71 75  1  0  0  0
 71150  1  0  0  0
 72 74  1  0  0  0
 72 76  2  0  0  0
 72151  1  0  0  0
 73 75  2  0  0  0
 73 76  1  0  0  0
 73152  1  0  0  0
 74 81  1  0  0  0
 75 83  1  0  0  0
 76 85  1  0  0  0
 77 84  1  0  0  0
 77 85  1  0  0  0
 77 87  2  0  0  0
 78153  1  0  0  0
 78154  1  0  0  0
 78155  1  0  0  0
 78 84  1  0  0  0
 79 84  1  0  0  0
 79156  1  0  0  0
 79157  1  0  0  0
 79158  1  0  0  0
 80 86  1  0  0  0
 80159  1  0  0  0
 80160  1  0  0  0
 80161  1  0  0  0
 81 86  1  0  0  0
 81162  1  0  0  0
 81163  1  0  0  0
 82 84  1  0  0  0
 82164  1  0  0  0
 82165  1  0  0  0
 83 88  1  0  0  0
 83 89  1  0  0  0
 83 90  1  0  0  0
 85166  1  0  0  0
M  ISO  4   1 100  68 101  82 101  86 100
M  END
> <chiral flag>
0

> <version>
0

> <s_m_source_file>
/data/baiqing/PycharmProjects/Reinvent-master-3.2/result/LINK_invent/BTK/process_docking_weight1_custom_product_contain_oxygen_bond_distance_aromatic_linkinvent_7_9_3/rearranged_h_0173.sdf

> <i_m_source_file_index>
91

> <r_mmod_Potential_Energy-OPLS-2005>
169.954254150391

> <r_mmod_Stretch_Energy-OPLS-2005>
64.6531448364258

> <r_mmod_Bend_Energy-OPLS-2005>
136.866806030273

> <r_mmod_Torsional_Energy-OPLS-2005>
325.016143798828

> <r_mmod_Improper_Torsional_Energy-OPLS-2005>
4.22417831420898

> <r_mmod_Van_der_Waal_Energy-OPLS-2005>
158.313659667969

> <r_mmod_Electrostatic_Energy-OPLS-2005>
-328.212371826172

> <r_mmod_Solvation_Energy-OPLS-2005>
-214.506988525391

> <b_mmod_Minimization_Converged-OPLS-2005>
0

> <r_mmod_RMS_Derivative-OPLS-2005>
4.55892848968506

$$$$
91
                    3D
 Structure written by MMmdl.
157165  0  0  1  0            999 V2000
  -30.7517  -14.4371   20.5970 C   0  0  0  0  0  0
  -30.4111  -12.2974   19.4199 C   0  0  0  0  0  0
  -29.4854  -12.5050   18.2055 C   0  0  0  0  0  0
  -28.0104  -12.3657   18.6239 C   0  0  0  0  0  0
  -27.6607  -13.2122   19.8770 C   0  0  2  0  0  0
  -28.7046  -13.0064   20.9993 C   0  0  0  0  0  0
  -25.2552  -13.8161   20.5649 C   0  0  0  0  0  0
  -24.1827  -13.0429   20.9152 C   0  0  0  0  0  0
  -24.6404  -11.6903   20.8740 C   0  0  0  0  0  0
  -23.9072  -10.4292   21.0409 C   0  0  0  0  0  0
  -24.3618   -9.4202   21.9186 C   0  0  0  0  0  0
  -23.6288   -8.2240   22.0756 C   0  0  0  0  0  0
  -22.4274   -8.0279   21.3547 C   0  0  0  0  0  0
  -21.9908   -9.0255   20.4651 C   0  0  0  0  0  0
  -22.7243  -10.2134   20.3059 C   0  0  0  0  0  0
  -21.6851   -6.0729   22.5278 C   0  0  0  0  0  0
  -21.4017   -6.5636   23.8209 C   0  0  0  0  0  0
  -21.3659   -5.6789   24.9174 C   0  0  0  0  0  0
  -21.6042   -4.3050   24.7226 C   0  0  0  0  0  0
  -21.8821   -3.8142   23.4349 C   0  0  0  0  0  0
  -21.9196   -4.6957   22.3405 C   0  0  0  0  0  0
  -22.7852  -13.5216   21.1826 C   0  0  0  0  0  0
  -22.1663   -4.2139   21.0980 F   0  0  0  0  0  0
  -21.5626   -3.4538   25.7741 F   0  0  0  0  0  0
  -30.0399  -13.2875   20.4443 N   0  0  0  0  0  0
  -26.3024  -12.9360   20.3411 N   0  0  0  0  0  0
  -25.9338  -11.6512   20.5807 N   0  0  0  0  0  0
  -22.0516  -12.8219   22.0405 N   0  0  0  0  0  0
  -25.4218  -15.1870   20.3997 N   0  0  0  0  0  0
  -31.8519  -14.6084   20.0661 O   0  0  0  0  0  0
  -21.6641   -6.8877   21.4243 O   0  0  0  0  0  0
  -22.3519  -14.5519   20.6674 O   0  0  0  0  0  0
  -24.6159  -31.8682   23.2119 C   0  0  0  0  0  0
  -25.9049  -32.4828   23.8412 C   0  0  1  0  0  0
  -27.2191  -27.4198   20.0951 C   0  0  0  0  0  0
  -25.5899  -33.8628   24.2329 N   0  0  0  0  0  0
  -23.4038  -30.4958   21.5541 C   0  0  2  0  0  0
  -24.8467  -28.9691   20.1129 C   0  0  0  0  0  0
  -22.7418  -29.4662   22.4989 C   0  0  0  0  0  0
  -18.0277  -28.1359   22.8478 C   0  0  0  0  0  0
  -24.1489  -36.7313   23.2637 C   0  0  0  0  0  0
  -25.9369  -30.8295   21.3705 C   0  0  0  0  0  0
  -26.0116  -29.4665   20.7111 C   0  0  0  0  0  0
  -27.2030  -28.7010   20.6984 C   0  0  0  0  0  0
  -26.0397  -26.9603   19.4617 C   0  0  0  0  0  0
  -24.8570  -27.7160   19.4827 C   0  0  0  0  0  0
  -23.6111  -29.8366   20.1664 C   0  0  0  0  0  0
  -25.4112  -36.3114   24.0329 C   0  0  1  0  0  0
  -20.5865  -28.3657   23.1297 C   0  0  2  0  0  0
  -20.6771  -26.9391   22.5406 C   0  0  0  0  0  0
  -19.5751  -26.6372   21.5195 C   0  0  0  0  0  0
  -18.1927  -26.7910   22.1601 C   0  0  0  0  0  0
  -19.1525  -28.8825   23.2888 C   0  0  0  0  0  0
  -18.9456  -30.1428   23.8912 C   0  0  0  0  0  0
  -17.6460  -30.6581   24.0547 C   0  0  0  0  0  0
  -25.9032  -34.9474   23.5121 C   0  0  0  0  0  0
  -16.5347  -29.9075   23.6318 C   0  0  0  0  0  0
  -16.7266  -28.6483   23.0345 C   0  0  0  0  0  0
  -26.4475  -31.6608   25.0734 C   0  0  0  0  0  0
  -25.3740  -31.3715   26.1481 C   0  0  0  0  0  0
  -27.0304  -30.3050   24.6106 C   0  0  0  0  0  0
  -27.6051  -32.4326   25.7496 C   0  0  0  0  0  0
  -27.5594  -37.1808   24.8456 C   0  0  0  0  0  0
  -21.4144  -29.3026   22.3714 N   0  0  0  0  0  0
  -26.4296  -37.3798   23.9413 N   0  0  0  0  0  0
  -24.6709  -31.0780   22.1032 N   0  0  0  0  0  0
  -23.4193  -28.8198   23.3027 O   0  0  0  0  0  0
  -28.3533  -26.6267   20.1371 O   0  0  0  0  0  0
  -26.5591  -34.8907   22.4681 O   0  0  0  0  0  0
  -23.5347  -32.1438   23.7503 O   0  0  0  0  0  0
  -31.9455  -17.0280   21.7818 C   0  0  0  0  0  0
  -31.6334  -19.4224   21.5162 C   0  0  0  0  0  0
  -29.7517  -17.8997   21.0911 C   0  0  0  0  0  0
  -30.6129  -16.7889   21.3741 C   0  0  0  0  0  0
  -30.2801  -19.2402   21.1425 C   0  0  0  0  0  0
  -32.4518  -18.3329   21.8499 C   0  0  0  0  0  0
  -28.9061  -22.8211   20.7107 C   0  0  0  0  0  0
  -29.3033  -24.2994   20.4941 C   0  0  0  0  0  0
  -30.0234  -21.7619   20.7794 C   0  0  0  0  0  0
  -28.0969  -25.2658   20.5580 C   0  0  0  0  0  0
  -28.2881  -17.5971   20.7122 C   0  0  0  0  0  0
  -30.1498  -15.4291   21.2803 N   0  0  0  0  0  0
  -29.5018  -20.3845   20.8356 N   0  0  0  0  0  0
  -27.7239  -22.4739   20.8221 O   0  0  0  0  0  0
  -33.7348  -18.5407   22.2327 F   0  0  0  0  0  0
  -28.2501  -17.0079   19.5148 F   0  0  0  0  0  0
  -27.7620  -16.7496   21.6008 F   0  0  0  0  0  0
  -27.4821  -18.6591   20.6710 F   0  0  0  0  0  0
  -31.4562  -12.3742   19.1149 H   0  0  0  0  0  0
  -30.2966  -11.2879   19.8185 H   0  0  0  0  0  0
  -29.7188  -11.7799   17.4247 H   0  0  0  0  0  0
  -29.6570  -13.4909   17.7697 H   0  0  0  0  0  0
  -27.8249  -11.3103   18.8279 H   0  0  0  0  0  0
  -27.3553  -12.6332   17.7946 H   0  0  0  0  0  0
  -27.7013  -14.2588   19.5736 H   0  0  0  0  0  0
  -28.6733  -11.9787   21.3635 H   0  0  0  0  0  0
  -28.4670  -13.6272   21.8639 H   0  0  0  0  0  0
  -25.2766   -9.5670   22.4757 H   0  0  0  0  0  0
  -23.9996   -7.4634   22.7475 H   0  0  0  0  0  0
  -21.0837   -8.8776   19.8957 H   0  0  0  0  0  0
  -22.3703  -10.9671   19.6165 H   0  0  0  0  0  0
  -21.2013   -7.6143   23.9709 H   0  0  0  0  0  0
  -21.1477   -6.0521   25.9075 H   0  0  0  0  0  0
  -22.0603   -2.7603   23.2853 H   0  0  0  0  0  0
  -22.4143  -11.9875   22.4781 H   0  0  0  0  0  0
  -21.1148  -13.1258   22.2656 H   0  0  0  0  0  0
  -24.6581  -15.8419   20.5224 H   0  0  0  0  0  0
  -26.2922  -15.6370   20.1472 H   0  0  0  0  0  0
  -26.7119  -32.5528   23.1180 H   0  0  0  0  0  0
  -25.0070  -33.9794   25.0485 H   0  0  0  0  0  0
  -22.6922  -31.3137   21.4213 H   0  0  0  0  0  0
  -23.3741  -35.9655   23.3291 H   0  0  0  0  0  0
  -24.3600  -36.8929   22.2058 H   0  0  0  0  0  0
  -23.7228  -37.6505   23.6652 H   0  0  0  0  0  0
  -26.0500  -31.5992   20.6059 H   0  0  0  0  0  0
  -26.8247  -30.8790   21.9893 H   0  0  0  0  0  0
  -28.0988  -29.0761   21.1725 H   0  0  0  0  0  0
  -26.0087  -26.0193   18.9334 H   0  0  0  0  0  0
  -23.9684  -27.3347   18.9990 H   0  0  0  0  0  0
  -23.7230  -30.6164   19.4123 H   0  0  0  0  0  0
  -22.7347  -29.2574   19.8692 H   0  0  0  0  0  0
  -25.1292  -36.1987   25.0820 H   0  0  0  0  0  0
  -20.9953  -28.3233   24.1413 H   0  0  0  0  0  0
  -20.5665  -26.2271   23.3600 H   0  0  0  0  0  0
  -21.6645  -26.7444   22.1204 H   0  0  0  0  0  0
  -19.6908  -25.6283   21.1222 H   0  0  0  0  0  0
  -19.6683  -27.3187   20.6729 H   0  0  0  0  0  0
  -17.4196  -26.6637   21.4005 H   0  0  0  0  0  0
  -18.0329  -26.0055   22.9008 H   0  0  0  0  0  0
  -19.7943  -30.7215   24.2301 H   0  0  0  0  0  0
  -17.5023  -31.6264   24.5139 H   0  0  0  0  0  0
  -15.5345  -30.2977   23.7639 H   0  0  0  0  0  0
  -15.8661  -28.0806   22.7060 H   0  0  0  0  0  0
  -24.5903  -30.7074   25.7819 H   0  0  0  0  0  0
  -24.8944  -32.2873   26.4947 H   0  0  0  0  0  0
  -25.8103  -30.8874   27.0227 H   0  0  0  0  0  0
  -26.2851  -29.6811   24.1162 H   0  0  0  0  0  0
  -27.4066  -29.7292   25.4569 H   0  0  0  0  0  0
  -27.8694  -30.4354   23.9264 H   0  0  0  0  0  0
  -27.2671  -33.3613   26.2110 H   0  0  0  0  0  0
  -28.3854  -32.6912   25.0323 H   0  0  0  0  0  0
  -28.0723  -31.8416   26.5378 H   0  0  0  0  0  0
  -28.2596  -38.0129   24.7561 H   0  0  0  0  0  0
  -28.1105  -36.2661   24.6222 H   0  0  0  0  0  0
  -27.2312  -37.1397   25.8855 H   0  0  0  0  0  0
  -20.9292  -29.8773   21.6969 H   0  0  0  0  0  0
  -26.0178  -38.2863   24.1446 H   0  0  0  0  0  0
  -32.6013  -16.2080   22.0366 H   0  0  0  0  0  0
  -32.0780  -20.4033   21.5691 H   0  0  0  0  0  0
  -29.7790  -24.3683   19.5166 H   0  0  0  0  0  0
  -30.0522  -24.5799   21.2345 H   0  0  0  0  0  0
  -30.6190  -21.9840   21.6642 H   0  0  0  0  0  0
  -30.6677  -21.8766   19.9066 H   0  0  0  0  0  0
  -27.7205  -25.2920   21.5830 H   0  0  0  0  0  0
  -27.3100  -24.8136   19.9592 H   0  0  0  0  0  0
  -29.2001  -15.2474   21.5729 H   0  0  0  0  0  0
  -28.5051  -20.2853   20.6426 H   0  0  0  0  0  0
  1 25  1  0  0  0
  1 30  2  0  0  0
  1 82  1  0  0  0
  2  3  1  0  0  0
  2 25  1  0  0  0
  2 89  1  0  0  0
  2 90  1  0  0  0
  3  4  1  0  0  0
  3 91  1  0  0  0
  3 92  1  0  0  0
  4  5  1  0  0  0
  4 93  1  0  0  0
  4 94  1  0  0  0
  5  6  1  0  0  0
  5 26  1  0  0  0
  5 95  1  0  0  0
  6 25  1  0  0  0
  6 96  1  0  0  0
  6 97  1  0  0  0
  7  8  2  0  0  0
  7 26  1  0  0  0
  7 29  1  0  0  0
  8  9  1  0  0  0
  8 22  1  0  0  0
  9 10  1  0  0  0
  9 27  2  0  0  0
 10 11  2  0  0  0
 10 15  1  0  0  0
 11 12  1  0  0  0
 11 98  1  0  0  0
 12 13  2  0  0  0
 12 99  1  0  0  0
 13 14  1  0  0  0
 13 31  1  0  0  0
 14 15  2  0  0  0
 14100  1  0  0  0
 15101  1  0  0  0
 16 17  2  0  0  0
 16 21  1  0  0  0
 16 31  1  0  0  0
 17 18  1  0  0  0
 17102  1  0  0  0
 18 19  2  0  0  0
 18103  1  0  0  0
 19 20  1  0  0  0
 19 24  1  0  0  0
 20 21  2  0  0  0
 20104  1  0  0  0
 21 23  1  0  0  0
 22 28  1  0  0  0
 22 32  2  0  0  0
 26 27  1  0  0  0
 28105  1  0  0  0
 28106  1  0  0  0
 29107  1  0  0  0
 29108  1  0  0  0
 33 34  1  0  0  0
 33 66  1  0  0  0
 33 70  2  0  0  0
 34 36  1  0  0  0
 34 59  1  0  0  0
 34109  1  0  0  0
 35 44  2  0  0  0
 35 45  1  0  0  0
 35 68  1  0  0  0
 36 56  1  0  0  0
 36110  1  0  0  0
 37 39  1  0  0  0
 37 47  1  0  0  0
 37 66  1  0  0  0
 37111  1  0  0  0
 38 43  2  0  0  0
 38 46  1  0  0  0
 38 47  1  0  0  0
 39 64  1  0  0  0
 39 67  2  0  0  0
 40 52  1  0  0  0
 40 53  2  0  0  0
 40 58  1  0  0  0
 41112  1  0  0  0
 41113  1  0  0  0
 41114  1  0  0  0
 41 48  1  0  0  0
 42 43  1  0  0  0
 42 66  1  0  0  0
 42115  1  0  0  0
 42116  1  0  0  0
 43 44  1  0  0  0
 44117  1  0  0  0
 45 46  2  0  0  0
 45118  1  0  0  0
 46119  1  0  0  0
 47120  1  0  0  0
 47121  1  0  0  0
 48 56  1  0  0  0
 48 65  1  0  0  0
 48122  1  0  0  0
 49 50  1  0  0  0
 49 53  1  0  0  0
 49 64  1  0  0  0
 49123  1  0  0  0
 50 51  1  0  0  0
 50124  1  0  0  0
 50125  1  0  0  0
 51 52  1  0  0  0
 51126  1  0  0  0
 51127  1  0  0  0
 52128  1  0  0  0
 52129  1  0  0  0
 53 54  1  0  0  0
 54 55  2  0  0  0
 54130  1  0  0  0
 55 57  1  0  0  0
 55131  1  0  0  0
 56 69  2  0  0  0
 57 58  2  0  0  0
 57132  1  0  0  0
 58133  1  0  0  0
 59 60  1  0  0  0
 59 61  1  0  0  0
 59 62  1  0  0  0
 60134  1  0  0  0
 60135  1  0  0  0
 60136  1  0  0  0
 61137  1  0  0  0
 61138  1  0  0  0
 61139  1  0  0  0
 62140  1  0  0  0
 62141  1  0  0  0
 62142  1  0  0  0
 63 65  1  0  0  0
 63143  1  0  0  0
 63144  1  0  0  0
 63145  1  0  0  0
 64146  1  0  0  0
 65147  1  0  0  0
 68 80  1  0  0  0
 71 74  2  0  0  0
 71 76  1  0  0  0
 71148  1  0  0  0
 72 75  1  0  0  0
 72 76  2  0  0  0
 72149  1  0  0  0
 73 74  1  0  0  0
 73 75  2  0  0  0
 73 81  1  0  0  0
 74 82  1  0  0  0
 75 83  1  0  0  0
 76 85  1  0  0  0
 77 78  1  0  0  0
 77 79  1  0  0  0
 77 84  2  0  0  0
 78 80  1  0  0  0
 78150  1  0  0  0
 78151  1  0  0  0
 79 83  1  0  0  0
 79152  1  0  0  0
 79153  1  0  0  0
 80154  1  0  0  0
 80155  1  0  0  0
 81 86  1  0  0  0
 81 87  1  0  0  0
 81 88  1  0  0  0
 82156  1  0  0  0
 83157  1  0  0  0
M  ISO  4   1 100  68 101  80 101  82 100
M  END
> <chiral flag>
0

> <version>
0

> <s_m_source_file>
/data/baiqing/PycharmProjects/Reinvent-master-3.2/result/LINK_invent/BTK/process_docking_weight1_custom_product_contain_oxygen_bond_distance_aromatic_linkinvent_7_9_3/rearranged_h_0173.sdf

> <i_m_source_file_index>
92

> <r_mmod_Potential_Energy-OPLS-2005>
141.694137573242

> <r_mmod_Stretch_Energy-OPLS-2005>
46.2355155944824

> <r_mmod_Bend_Energy-OPLS-2005>
108.923728942871

> <r_mmod_Torsional_Energy-OPLS-2005>
219.751678466797

> <r_mmod_Improper_Torsional_Energy-OPLS-2005>
2.78070282936096

> <r_mmod_Van_der_Waal_Energy-OPLS-2005>
172.025100708008

> <r_mmod_Electrostatic_Energy-OPLS-2005>
-213.636749267578

> <r_mmod_Solvation_Energy-OPLS-2005>
-209.007904052734

> <b_mmod_Minimization_Converged-OPLS-2005>
0

> <r_mmod_RMS_Derivative-OPLS-2005>
1.78319227695465

$$$$
92
                    3D
 Structure written by MMmdl.
157165  0  0  1  0            999 V2000
  -30.6384  -14.7721   20.4353 C   0  0  0  0  0  0
  -30.4480  -12.4860   19.4469 C   0  0  0  0  0  0
  -29.5119  -12.4927   18.2229 C   0  0  0  0  0  0
  -28.0427  -12.3000   18.6523 C   0  0  0  0  0  0
  -27.6460  -13.2155   19.8432 C   0  0  2  0  0  0
  -28.7045  -13.1936   20.9679 C   0  0  0  0  0  0
  -25.2611  -13.8171   20.5726 C   0  0  0  0  0  0
  -24.1858  -13.0471   20.9226 C   0  0  0  0  0  0
  -24.6393  -11.6942   20.8752 C   0  0  0  0  0  0
  -23.9026  -10.4334   21.0398 C   0  0  0  0  0  0
  -24.3575   -9.4261   21.9182 C   0  0  0  0  0  0
  -23.6288   -8.2272   22.0728 C   0  0  0  0  0  0
  -22.4297   -8.0253   21.3489 C   0  0  0  0  0  0
  -21.9919   -9.0233   20.4604 C   0  0  0  0  0  0
  -22.7204  -10.2151   20.3037 C   0  0  0  0  0  0
  -21.6869   -6.0711   22.5259 C   0  0  0  0  0  0
  -21.4001   -6.5606   23.8198 C   0  0  0  0  0  0
  -21.3697   -5.6768   24.9167 C   0  0  0  0  0  0
  -21.6071   -4.3028   24.7207 C   0  0  0  0  0  0
  -21.8834   -3.8112   23.4332 C   0  0  0  0  0  0
  -21.9198   -4.6932   22.3389 C   0  0  0  0  0  0
  -22.7893  -13.5301   21.1830 C   0  0  0  0  0  0
  -22.1665   -4.2122   21.0972 F   0  0  0  0  0  0
  -21.5660   -3.4515   25.7711 F   0  0  0  0  0  0
  -29.9803  -13.5612   20.3470 N   0  0  0  0  0  0
  -26.2998  -12.9324   20.3307 N   0  0  0  0  0  0
  -25.9325  -11.6502   20.5799 N   0  0  0  0  0  0
  -22.0444  -12.8358   22.0355 N   0  0  0  0  0  0
  -25.4390  -15.1883   20.4109 N   0  0  0  0  0  0
  -31.8611  -14.7799   20.2773 O   0  0  0  0  0  0
  -21.6658   -6.8855   21.4201 O   0  0  0  0  0  0
  -22.3667  -14.5616   20.6637 O   0  0  0  0  0  0
  -24.6339  -31.8495   23.1972 C   0  0  0  0  0  0
  -25.9152  -32.4697   23.8348 C   0  0  1  0  0  0
  -27.2098  -27.2165   20.1272 C   0  0  0  0  0  0
  -25.6003  -33.8511   24.2275 N   0  0  0  0  0  0
  -23.4329  -30.4752   21.5350 C   0  0  2  0  0  0
  -24.8834  -28.9128   20.1063 C   0  0  0  0  0  0
  -22.7532  -29.4559   22.4824 C   0  0  0  0  0  0
  -18.0321  -28.1415   22.8485 C   0  0  0  0  0  0
  -24.1464  -36.7221   23.2627 C   0  0  0  0  0  0
  -25.9827  -30.7427   21.3909 C   0  0  0  0  0  0
  -26.0529  -29.3568   20.7402 C   0  0  0  0  0  0
  -27.2160  -28.5160   20.7560 C   0  0  0  0  0  0
  -26.0416  -26.8877   19.4117 C   0  0  0  0  0  0
  -24.8825  -27.6862   19.4325 C   0  0  0  0  0  0
  -23.6584  -29.8048   20.1515 C   0  0  0  0  0  0
  -25.4081  -36.3004   24.0330 C   0  0  1  0  0  0
  -20.5917  -28.3685   23.1261 C   0  0  2  0  0  0
  -20.6743  -26.9397   22.5382 C   0  0  0  0  0  0
  -19.5704  -26.6365   21.5199 C   0  0  0  0  0  0
  -18.1911  -26.7957   22.1630 C   0  0  0  0  0  0
  -19.1560  -28.8876   23.2866 C   0  0  0  0  0  0
  -18.9480  -30.1489   23.8863 C   0  0  0  0  0  0
  -17.6456  -30.6580   24.0555 C   0  0  0  0  0  0
  -25.9039  -34.9400   23.5078 C   0  0  0  0  0  0
  -16.5346  -29.9079   23.6357 C   0  0  0  0  0  0
  -16.7283  -28.6498   23.0363 C   0  0  0  0  0  0
  -26.4539  -31.6573   25.0768 C   0  0  0  0  0  0
  -25.3793  -31.3738   26.1509 C   0  0  0  0  0  0
  -27.0393  -30.3000   24.6272 C   0  0  0  0  0  0
  -27.6086  -32.4334   25.7538 C   0  0  0  0  0  0
  -27.5551  -37.1733   24.8466 C   0  0  0  0  0  0
  -21.4206  -29.3052   22.3647 N   0  0  0  0  0  0
  -26.4211  -37.3762   23.9469 N   0  0  0  0  0  0
  -24.7011  -31.0444   22.0967 N   0  0  0  0  0  0
  -23.4248  -28.8069   23.2860 O   0  0  0  0  0  0
  -28.2938  -26.2916   20.1283 O   0  0  0  0  0  0
  -26.5506  -34.8877   22.4594 O   0  0  0  0  0  0
  -23.5473  -32.1305   23.7275 O   0  0  0  0  0  0
  -29.6928  -18.5761   20.0663 C   0  0  0  0  0  0
  -29.4677  -18.9276   18.7356 C   0  0  0  0  0  0
  -29.2152  -20.8141   19.9479 C   0  0  0  0  0  0
  -30.3502  -17.2524   20.6365 C   0  0  0  0  0  0
  -26.7138  -24.2921   20.7234 C   0  0  0  0  0  0
  -28.9046  -21.0871   17.4634 C   0  0  0  0  0  0
  -28.9716  -23.6228   19.7416 C   0  0  0  0  0  0
  -28.1549  -24.8114   20.5174 C   0  0  1  0  0  0
  -29.5862  -18.0876   17.4797 C   0  0  0  0  0  0
  -29.5118  -19.8039   20.7973 N   0  0  0  0  0  0
  -29.1669  -20.3237   18.6801 N   0  0  0  0  0  0
  -28.9904  -22.2043   20.3191 N   0  0  0  0  0  0
  -29.9015  -15.9574   20.3841 N   0  0  0  0  0  0
  -31.3104  -17.4133   21.3968 O   0  0  0  0  0  0
  -29.9461  -16.8308   17.7225 F   0  0  0  0  0  0
  -28.4287  -18.0237   16.8180 F   0  0  0  0  0  0
  -30.4950  -18.5830   16.6363 F   0  0  0  0  0  0
  -31.4783  -12.6357   19.1180 H   0  0  0  0  0  0
  -30.4272  -11.5191   19.9522 H   0  0  0  0  0  0
  -29.8046  -11.7042   17.5276 H   0  0  0  0  0  0
  -29.6204  -13.4360   17.6844 H   0  0  0  0  0  0
  -27.9260  -11.2524   18.9410 H   0  0  0  0  0  0
  -27.3753  -12.4569   17.8047 H   0  0  0  0  0  0
  -27.6304  -14.2290   19.4444 H   0  0  0  0  0  0
  -28.7844  -12.2039   21.4229 H   0  0  0  0  0  0
  -28.4407  -13.8823   21.7718 H   0  0  0  0  0  0
  -25.2690   -9.5793   22.4791 H   0  0  0  0  0  0
  -23.9991   -7.4705   22.7472 H   0  0  0  0  0  0
  -21.0841   -8.8760   19.8932 H   0  0  0  0  0  0
  -22.3606  -10.9701   19.6172 H   0  0  0  0  0  0
  -21.1958   -7.6115   23.9699 H   0  0  0  0  0  0
  -21.1523   -6.0483   25.9089 H   0  0  0  0  0  0
  -22.0581   -2.7568   23.2837 H   0  0  0  0  0  0
  -22.3996  -12.0027   22.4826 H   0  0  0  0  0  0
  -21.1043  -13.1420   22.2398 H   0  0  0  0  0  0
  -24.6757  -15.8475   20.5231 H   0  0  0  0  0  0
  -26.2815  -15.6184   20.0556 H   0  0  0  0  0  0
  -26.7235  -32.5331   23.1107 H   0  0  0  0  0  0
  -25.0478  -33.9730   25.0630 H   0  0  0  0  0  0
  -22.7267  -31.2959   21.3856 H   0  0  0  0  0  0
  -23.3739  -35.9540   23.3228 H   0  0  0  0  0  0
  -24.3541  -36.8854   22.2045 H   0  0  0  0  0  0
  -23.7222  -37.6412   23.6665 H   0  0  0  0  0  0
  -26.1263  -31.4965   20.6169 H   0  0  0  0  0  0
  -26.8650  -30.8037   22.0180 H   0  0  0  0  0  0
  -28.1010  -28.8324   21.2938 H   0  0  0  0  0  0
  -26.0112  -25.9855   18.8197 H   0  0  0  0  0  0
  -23.9995  -27.3615   18.8970 H   0  0  0  0  0  0
  -23.7941  -30.5798   19.3969 H   0  0  0  0  0  0
  -22.7770  -29.2432   19.8353 H   0  0  0  0  0  0
  -25.1281  -36.1746   25.0813 H   0  0  0  0  0  0
  -21.0047  -28.3208   24.1358 H   0  0  0  0  0  0
  -20.5636  -26.2300   23.3594 H   0  0  0  0  0  0
  -21.6613  -26.7361   22.1186 H   0  0  0  0  0  0
  -19.6828  -25.6276   21.1242 H   0  0  0  0  0  0
  -19.6632  -27.3169   20.6723 H   0  0  0  0  0  0
  -17.4182  -26.6754   21.4026 H   0  0  0  0  0  0
  -18.0268  -26.0108   22.9027 H   0  0  0  0  0  0
  -19.7948  -30.7380   24.2128 H   0  0  0  0  0  0
  -17.4995  -31.6245   24.5212 H   0  0  0  0  0  0
  -15.5361  -30.2963   23.7688 H   0  0  0  0  0  0
  -15.8691  -28.0824   22.7063 H   0  0  0  0  0  0
  -24.5998  -30.7042   25.7894 H   0  0  0  0  0  0
  -24.8993  -32.2938   26.4849 H   0  0  0  0  0  0
  -25.8166  -30.9015   27.0320 H   0  0  0  0  0  0
  -26.2983  -29.6692   24.1370 H   0  0  0  0  0  0
  -27.4197  -29.7304   25.4751 H   0  0  0  0  0  0
  -27.8817  -30.4303   23.9482 H   0  0  0  0  0  0
  -27.2704  -33.3691   26.1986 H   0  0  0  0  0  0
  -28.3971  -32.6733   25.0411 H   0  0  0  0  0  0
  -28.0675  -31.8534   26.5543 H   0  0  0  0  0  0
  -28.2490  -38.0097   24.7569 H   0  0  0  0  0  0
  -28.1106  -36.2625   24.6187 H   0  0  0  0  0  0
  -27.2286  -37.1257   25.8866 H   0  0  0  0  0  0
  -20.9353  -29.8885   21.6990 H   0  0  0  0  0  0
  -26.0012  -38.2773   24.1596 H   0  0  0  0  0  0
  -26.7104  -23.3486   21.2710 H   0  0  0  0  0  0
  -26.2205  -24.0840   19.7749 H   0  0  0  0  0  0
  -26.1045  -24.9825   21.3051 H   0  0  0  0  0  0
  -28.6916  -20.4361   16.6141 H   0  0  0  0  0  0
  -29.7769  -21.6916   17.2150 H   0  0  0  0  0  0
  -28.0432  -21.7385   17.6028 H   0  0  0  0  0  0
  -30.0182  -23.9265   19.6666 H   0  0  0  0  0  0
  -28.6188  -23.5736   18.7137 H   0  0  0  0  0  0
  -28.5820  -24.8217   21.5215 H   0  0  0  0  0  0
  -29.0227  -22.2749   21.3317 H   0  0  0  0  0  0
  -28.9552  -15.8737   20.0619 H   0  0  0  0  0  0
  1 25  1  0  0  0
  1 30  2  0  0  0
  1 83  1  0  0  0
  2  3  1  0  0  0
  2 25  1  0  0  0
  2 88  1  0  0  0
  2 89  1  0  0  0
  3  4  1  0  0  0
  3 90  1  0  0  0
  3 91  1  0  0  0
  4  5  1  0  0  0
  4 92  1  0  0  0
  4 93  1  0  0  0
  5  6  1  0  0  0
  5 26  1  0  0  0
  5 94  1  0  0  0
  6 25  1  0  0  0
  6 95  1  0  0  0
  6 96  1  0  0  0
  7  8  2  0  0  0
  7 26  1  0  0  0
  7 29  1  0  0  0
  8  9  1  0  0  0
  8 22  1  0  0  0
  9 10  1  0  0  0
  9 27  2  0  0  0
 10 11  2  0  0  0
 10 15  1  0  0  0
 11 12  1  0  0  0
 11 97  1  0  0  0
 12 13  2  0  0  0
 12 98  1  0  0  0
 13 14  1  0  0  0
 13 31  1  0  0  0
 14 15  2  0  0  0
 14 99  1  0  0  0
 15100  1  0  0  0
 16 17  2  0  0  0
 16 21  1  0  0  0
 16 31  1  0  0  0
 17 18  1  0  0  0
 17101  1  0  0  0
 18 19  2  0  0  0
 18102  1  0  0  0
 19 20  1  0  0  0
 19 24  1  0  0  0
 20 21  2  0  0  0
 20103  1  0  0  0
 21 23  1  0  0  0
 22 28  1  0  0  0
 22 32  2  0  0  0
 26 27  1  0  0  0
 28104  1  0  0  0
 28105  1  0  0  0
 29106  1  0  0  0
 29107  1  0  0  0
 33 34  1  0  0  0
 33 66  1  0  0  0
 33 70  2  0  0  0
 34 36  1  0  0  0
 34 59  1  0  0  0
 34108  1  0  0  0
 35 44  2  0  0  0
 35 45  1  0  0  0
 35 68  1  0  0  0
 36 56  1  0  0  0
 36109  1  0  0  0
 37 39  1  0  0  0
 37 47  1  0  0  0
 37 66  1  0  0  0
 37110  1  0  0  0
 38 43  2  0  0  0
 38 46  1  0  0  0
 38 47  1  0  0  0
 39 64  1  0  0  0
 39 67  2  0  0  0
 40 52  1  0  0  0
 40 53  2  0  0  0
 40 58  1  0  0  0
 41111  1  0  0  0
 41112  1  0  0  0
 41113  1  0  0  0
 41 48  1  0  0  0
 42 43  1  0  0  0
 42 66  1  0  0  0
 42114  1  0  0  0
 42115  1  0  0  0
 43 44  1  0  0  0
 44116  1  0  0  0
 45 46  2  0  0  0
 45117  1  0  0  0
 46118  1  0  0  0
 47119  1  0  0  0
 47120  1  0  0  0
 48 56  1  0  0  0
 48 65  1  0  0  0
 48121  1  0  0  0
 49 50  1  0  0  0
 49 53  1  0  0  0
 49 64  1  0  0  0
 49122  1  0  0  0
 50 51  1  0  0  0
 50123  1  0  0  0
 50124  1  0  0  0
 51 52  1  0  0  0
 51125  1  0  0  0
 51126  1  0  0  0
 52127  1  0  0  0
 52128  1  0  0  0
 53 54  1  0  0  0
 54 55  2  0  0  0
 54129  1  0  0  0
 55 57  1  0  0  0
 55130  1  0  0  0
 56 69  2  0  0  0
 57 58  2  0  0  0
 57131  1  0  0  0
 58132  1  0  0  0
 59 60  1  0  0  0
 59 61  1  0  0  0
 59 62  1  0  0  0
 60133  1  0  0  0
 60134  1  0  0  0
 60135  1  0  0  0
 61136  1  0  0  0
 61137  1  0  0  0
 61138  1  0  0  0
 62139  1  0  0  0
 62140  1  0  0  0
 62141  1  0  0  0
 63 65  1  0  0  0
 63142  1  0  0  0
 63143  1  0  0  0
 63144  1  0  0  0
 64145  1  0  0  0
 65146  1  0  0  0
 68 78  1  0  0  0
 71 72  2  0  0  0
 71 74  1  0  0  0
 71 80  1  0  0  0
 72 79  1  0  0  0
 72 81  1  0  0  0
 73 80  2  0  0  0
 73 81  1  0  0  0
 73 82  1  0  0  0
 74 83  1  0  0  0
 74 84  2  0  0  0
 75147  1  0  0  0
 75148  1  0  0  0
 75149  1  0  0  0
 75 78  1  0  0  0
 76 81  1  0  0  0
 76150  1  0  0  0
 76151  1  0  0  0
 76152  1  0  0  0
 77 78  1  0  0  0
 77 82  1  0  0  0
 77153  1  0  0  0
 77154  1  0  0  0
 78155  1  0  0  0
 79 85  1  0  0  0
 79 86  1  0  0  0
 79 87  1  0  0  0
 82156  1  0  0  0
 83157  1  0  0  0
M  ISO  4   1 100  68 101  78 101  83 100
M  END
> <chiral flag>
0

> <version>
0

> <s_m_source_file>
/data/baiqing/PycharmProjects/Reinvent-master-3.2/result/LINK_invent/BTK/process_docking_weight1_custom_product_contain_oxygen_bond_distance_aromatic_linkinvent_7_9_3/rearranged_h_0173.sdf

> <i_m_source_file_index>
93

> <r_mmod_Potential_Energy-OPLS-2005>
36.6368827819824

> <r_mmod_Stretch_Energy-OPLS-2005>
144.207611083984

> <r_mmod_Bend_Energy-OPLS-2005>
203.139450073242

> <r_mmod_Torsional_Energy-OPLS-2005>
276.703887939453

> <r_mmod_Improper_Torsional_Energy-OPLS-2005>
10.3967065811157

> <r_mmod_Van_der_Waal_Energy-OPLS-2005>
126.051315307617

> <r_mmod_Electrostatic_Energy-OPLS-2005>
-599.91455078125

> <r_mmod_Solvation_Energy-OPLS-2005>
-235.314605712891

> <b_mmod_Minimization_Converged-OPLS-2005>
0

> <r_mmod_RMS_Derivative-OPLS-2005>
6.87667608261108

$$$$
93
                    3D
 Structure written by MMmdl.
156164  0  0  1  0            999 V2000
  -30.7153  -14.4521   20.6049 C   0  0  0  0  0  0
  -30.4301  -12.3094   19.4062 C   0  0  0  0  0  0
  -29.4849  -12.5004   18.2004 C   0  0  0  0  0  0
  -28.0084  -12.3634   18.6213 C   0  0  0  0  0  0
  -27.6627  -13.2050   19.8783 C   0  0  2  0  0  0
  -28.7097  -12.9635   20.9901 C   0  0  0  0  0  0
  -25.2521  -13.8123   20.5637 C   0  0  0  0  0  0
  -24.1785  -13.0385   20.9109 C   0  0  0  0  0  0
  -24.6381  -11.6873   20.8715 C   0  0  0  0  0  0
  -23.9060  -10.4255   21.0391 C   0  0  0  0  0  0
  -24.3612   -9.4180   21.9171 C   0  0  0  0  0  0
  -23.6283   -8.2214   22.0754 C   0  0  0  0  0  0
  -22.4267   -8.0257   21.3546 C   0  0  0  0  0  0
  -21.9898   -9.0231   20.4644 C   0  0  0  0  0  0
  -22.7227  -10.2098   20.3044 C   0  0  0  0  0  0
  -21.6842   -6.0719   22.5283 C   0  0  0  0  0  0
  -21.4007   -6.5630   23.8217 C   0  0  0  0  0  0
  -21.3651   -5.6785   24.9178 C   0  0  0  0  0  0
  -21.6048   -4.3049   24.7231 C   0  0  0  0  0  0
  -21.8826   -3.8138   23.4353 C   0  0  0  0  0  0
  -21.9191   -4.6950   22.3403 C   0  0  0  0  0  0
  -22.7814  -13.5170   21.1815 C   0  0  0  0  0  0
  -22.1653   -4.2136   21.0976 F   0  0  0  0  0  0
  -21.5630   -3.4534   25.7742 F   0  0  0  0  0  0
  -30.0485  -13.2750   20.4485 N   0  0  0  0  0  0
  -26.3025  -12.9335   20.3438 N   0  0  0  0  0  0
  -25.9328  -11.6486   20.5830 N   0  0  0  0  0  0
  -22.0495  -12.8166   22.0410 N   0  0  0  0  0  0
  -25.4137  -15.1837   20.4071 N   0  0  0  0  0  0
  -31.8028  -14.6886   20.0696 O   0  0  0  0  0  0
  -21.6624   -6.8859   21.4242 O   0  0  0  0  0  0
  -22.3467  -14.5472   20.6685 O   0  0  0  0  0  0
  -24.6162  -31.8691   23.2104 C   0  0  0  0  0  0
  -25.9054  -32.4827   23.8390 C   0  0  1  0  0  0
  -27.2317  -27.4133   20.0899 C   0  0  0  0  0  0
  -25.5926  -33.8624   24.2319 N   0  0  0  0  0  0
  -23.4053  -30.4939   21.5531 C   0  0  2  0  0  0
  -24.8496  -28.9637   20.1110 C   0  0  0  0  0  0
  -22.7419  -29.4675   22.5005 C   0  0  0  0  0  0
  -18.0272  -28.1407   22.8434 C   0  0  0  0  0  0
  -24.1505  -36.7297   23.2644 C   0  0  0  0  0  0
  -25.9393  -30.8219   21.3740 C   0  0  0  0  0  0
  -26.0120  -29.4593   20.7136 C   0  0  0  0  0  0
  -27.2026  -28.6903   20.7039 C   0  0  0  0  0  0
  -26.0470  -26.9494   19.4655 C   0  0  0  0  0  0
  -24.8623  -27.7068   19.4875 C   0  0  0  0  0  0
  -23.6121  -29.8328   20.1655 C   0  0  0  0  0  0
  -25.4132  -36.3116   24.0337 C   0  0  1  0  0  0
  -20.5863  -28.3674   23.1311 C   0  0  2  0  0  0
  -20.6796  -26.9411   22.5423 C   0  0  0  0  0  0
  -19.5785  -26.6395   21.5223 C   0  0  0  0  0  0
  -18.1937  -26.7940   22.1606 C   0  0  0  0  0  0
  -19.1518  -28.8855   23.2860 C   0  0  0  0  0  0
  -18.9458  -30.1451   23.8895 C   0  0  0  0  0  0
  -17.6469  -30.6596   24.0552 C   0  0  0  0  0  0
  -25.9049  -34.9483   23.5118 C   0  0  0  0  0  0
  -16.5347  -29.9096   23.6343 C   0  0  0  0  0  0
  -16.7259  -28.6525   23.0321 C   0  0  0  0  0  0
  -26.4470  -31.6621   25.0727 C   0  0  0  0  0  0
  -25.3718  -31.3734   26.1458 C   0  0  0  0  0  0
  -27.0323  -30.3071   24.6145 C   0  0  0  0  0  0
  -27.6063  -32.4320   25.7474 C   0  0  0  0  0  0
  -27.5589  -37.1797   24.8452 C   0  0  0  0  0  0
  -21.4155  -29.3030   22.3718 N   0  0  0  0  0  0
  -26.4316  -37.3793   23.9394 N   0  0  0  0  0  0
  -24.6714  -31.0756   22.1036 N   0  0  0  0  0  0
  -23.4172  -28.8232   23.3069 O   0  0  0  0  0  0
  -28.3895  -26.6478   20.1244 O   0  0  0  0  0  0
  -26.5587  -34.8925   22.4660 O   0  0  0  0  0  0
  -23.5350  -32.1479   23.7480 O   0  0  0  0  0  0
  -28.3883  -18.6300   20.8521 C   0  0  0  0  0  0
  -31.0109  -17.6379   20.7809 C   0  0  0  0  0  0
  -29.4376  -19.5249   20.5337 C   0  0  0  0  0  0
  -29.9433  -16.7548   21.0749 C   0  0  0  0  0  0
  -28.6391  -17.2751   21.1315 C   0  0  0  0  0  0
  -30.7602  -19.0087   20.5155 C   0  0  0  0  0  0
  -29.0903  -20.9411   20.2057 C   0  0  0  0  0  0
  -29.3258  -24.3548   20.5188 C   0  0  0  0  0  0
  -29.1307  -23.5119   22.8575 C   0  0  0  0  0  0
  -28.2074  -25.2284   19.9116 C   0  0  0  0  0  0
  -28.8521  -23.1502   21.3858 C   0  0  2  0  0  0
  -30.0811  -15.3630   21.3587 N   0  0  0  0  0  0
  -29.5317  -21.8645   21.1047 N   0  0  0  0  0  0
  -30.5161  -24.6217   20.3188 O   0  0  0  0  0  0
  -27.6156  -16.4481   21.4434 F   0  0  0  0  0  0
  -31.8040  -19.8208   20.2198 F   0  0  0  0  0  0
  -28.1054  -21.2811   18.8934 S   0  0  0  0  0  0
  -31.4682  -12.4278   19.0882 H   0  0  0  0  0  0
  -30.3549  -11.2935   19.7973 H   0  0  0  0  0  0
  -29.7144  -11.7664   17.4266 H   0  0  0  0  0  0
  -29.6473  -13.4803   17.7509 H   0  0  0  0  0  0
  -27.8153  -11.3080   18.8179 H   0  0  0  0  0  0
  -27.3521  -12.6349   17.7935 H   0  0  0  0  0  0
  -27.7105  -14.2545   19.5879 H   0  0  0  0  0  0
  -28.6866  -11.9180   21.2984 H   0  0  0  0  0  0
  -28.4605  -13.5306   21.8879 H   0  0  0  0  0  0
  -25.2766   -9.5631   22.4739 H   0  0  0  0  0  0
  -23.9987   -7.4597   22.7468 H   0  0  0  0  0  0
  -21.0829   -8.8743   19.8948 H   0  0  0  0  0  0
  -22.3703  -10.9628   19.6141 H   0  0  0  0  0  0
  -21.2001   -7.6138   23.9712 H   0  0  0  0  0  0
  -21.1464   -6.0515   25.9077 H   0  0  0  0  0  0
  -22.0620   -2.7605   23.2861 H   0  0  0  0  0  0
  -22.4150  -11.9822   22.4765 H   0  0  0  0  0  0
  -21.1119  -13.1173   22.2671 H   0  0  0  0  0  0
  -24.6601  -15.8265   20.6206 H   0  0  0  0  0  0
  -26.3265  -15.6273   20.4402 H   0  0  0  0  0  0
  -26.7114  -32.5529   23.1141 H   0  0  0  0  0  0
  -25.0086  -33.9794   25.0467 H   0  0  0  0  0  0
  -22.6966  -31.3139   21.4169 H   0  0  0  0  0  0
  -23.3792  -35.9603   23.3314 H   0  0  0  0  0  0
  -24.3600  -36.8900   22.2056 H   0  0  0  0  0  0
  -23.7224  -37.6493   23.6641 H   0  0  0  0  0  0
  -26.0648  -31.5903   20.6108 H   0  0  0  0  0  0
  -26.8226  -30.8618   21.9997 H   0  0  0  0  0  0
  -28.0922  -29.0632   21.1908 H   0  0  0  0  0  0
  -26.0069  -26.0013   18.9484 H   0  0  0  0  0  0
  -23.9681  -27.3218   19.0170 H   0  0  0  0  0  0
  -23.7171  -30.6128   19.4104 H   0  0  0  0  0  0
  -22.7347  -29.2560   19.8688 H   0  0  0  0  0  0
  -25.1316  -36.2002   25.0835 H   0  0  0  0  0  0
  -20.9905  -28.3256   24.1456 H   0  0  0  0  0  0
  -20.5795  -26.2259   23.3602 H   0  0  0  0  0  0
  -21.6656  -26.7527   22.1163 H   0  0  0  0  0  0
  -19.6970  -25.6319   21.1234 H   0  0  0  0  0  0
  -19.6773  -27.3233   20.6779 H   0  0  0  0  0  0
  -17.4224  -26.6652   21.3992 H   0  0  0  0  0  0
  -18.0319  -26.0134   22.9058 H   0  0  0  0  0  0
  -19.7945  -30.7224   24.2305 H   0  0  0  0  0  0
  -17.5038  -31.6296   24.5128 H   0  0  0  0  0  0
  -15.5347  -30.2986   23.7721 H   0  0  0  0  0  0
  -15.8654  -28.0866   22.7030 H   0  0  0  0  0  0
  -24.5879  -30.7113   25.7763 H   0  0  0  0  0  0
  -24.8919  -32.2892   26.4920 H   0  0  0  0  0  0
  -25.8040  -30.8867   27.0207 H   0  0  0  0  0  0
  -26.2891  -29.6813   24.1194 H   0  0  0  0  0  0
  -27.4087  -29.7344   25.4629 H   0  0  0  0  0  0
  -27.8724  -30.4410   23.9323 H   0  0  0  0  0  0
  -27.2725  -33.3621   26.2078 H   0  0  0  0  0  0
  -28.3846  -32.6868   25.0269 H   0  0  0  0  0  0
  -28.0751  -31.8413   26.5353 H   0  0  0  0  0  0
  -28.2593  -38.0111   24.7524 H   0  0  0  0  0  0
  -28.1098  -36.2632   24.6271 H   0  0  0  0  0  0
  -27.2267  -37.1418   25.8842 H   0  0  0  0  0  0
  -20.9346  -29.8692   21.6873 H   0  0  0  0  0  0
  -26.0224  -38.2865   24.1443 H   0  0  0  0  0  0
  -27.3682  -18.9826   20.8779 H   0  0  0  0  0  0
  -32.0279  -17.2772   20.7570 H   0  0  0  0  0  0
  -28.6673  -24.4626   23.1249 H   0  0  0  0  0  0
  -30.1989  -23.5975   23.0632 H   0  0  0  0  0  0
  -28.7202  -22.7590   23.5311 H   0  0  0  0  0  0
  -27.2699  -24.9018   20.3631 H   0  0  0  0  0  0
  -28.1495  -25.0256   18.8421 H   0  0  0  0  0  0
  -27.7778  -23.0113   21.2585 H   0  0  0  0  0  0
  -29.2682  -14.9710   21.8124 H   0  0  0  0  0  0
  -30.1847  -21.5403   21.8035 H   0  0  0  0  0  0
  1 25  1  0  0  0
  1 30  2  0  0  0
  1 82  1  0  0  0
  2  3  1  0  0  0
  2 25  1  0  0  0
  2 88  1  0  0  0
  2 89  1  0  0  0
  3  4  1  0  0  0
  3 90  1  0  0  0
  3 91  1  0  0  0
  4  5  1  0  0  0
  4 92  1  0  0  0
  4 93  1  0  0  0
  5  6  1  0  0  0
  5 26  1  0  0  0
  5 94  1  0  0  0
  6 25  1  0  0  0
  6 95  1  0  0  0
  6 96  1  0  0  0
  7  8  2  0  0  0
  7 26  1  0  0  0
  7 29  1  0  0  0
  8  9  1  0  0  0
  8 22  1  0  0  0
  9 10  1  0  0  0
  9 27  2  0  0  0
 10 11  2  0  0  0
 10 15  1  0  0  0
 11 12  1  0  0  0
 11 97  1  0  0  0
 12 13  2  0  0  0
 12 98  1  0  0  0
 13 14  1  0  0  0
 13 31  1  0  0  0
 14 15  2  0  0  0
 14 99  1  0  0  0
 15100  1  0  0  0
 16 17  2  0  0  0
 16 21  1  0  0  0
 16 31  1  0  0  0
 17 18  1  0  0  0
 17101  1  0  0  0
 18 19  2  0  0  0
 18102  1  0  0  0
 19 20  1  0  0  0
 19 24  1  0  0  0
 20 21  2  0  0  0
 20103  1  0  0  0
 21 23  1  0  0  0
 22 28  1  0  0  0
 22 32  2  0  0  0
 26 27  1  0  0  0
 28104  1  0  0  0
 28105  1  0  0  0
 29106  1  0  0  0
 29107  1  0  0  0
 33 34  1  0  0  0
 33 66  1  0  0  0
 33 70  2  0  0  0
 34 36  1  0  0  0
 34 59  1  0  0  0
 34108  1  0  0  0
 35 44  2  0  0  0
 35 45  1  0  0  0
 35 68  1  0  0  0
 36 56  1  0  0  0
 36109  1  0  0  0
 37 39  1  0  0  0
 37 47  1  0  0  0
 37 66  1  0  0  0
 37110  1  0  0  0
 38 43  2  0  0  0
 38 46  1  0  0  0
 38 47  1  0  0  0
 39 64  1  0  0  0
 39 67  2  0  0  0
 40 52  1  0  0  0
 40 53  2  0  0  0
 40 58  1  0  0  0
 41111  1  0  0  0
 41112  1  0  0  0
 41113  1  0  0  0
 41 48  1  0  0  0
 42 43  1  0  0  0
 42 66  1  0  0  0
 42114  1  0  0  0
 42115  1  0  0  0
 43 44  1  0  0  0
 44116  1  0  0  0
 45 46  2  0  0  0
 45117  1  0  0  0
 46118  1  0  0  0
 47119  1  0  0  0
 47120  1  0  0  0
 48 56  1  0  0  0
 48 65  1  0  0  0
 48121  1  0  0  0
 49 50  1  0  0  0
 49 53  1  0  0  0
 49 64  1  0  0  0
 49122  1  0  0  0
 50 51  1  0  0  0
 50123  1  0  0  0
 50124  1  0  0  0
 51 52  1  0  0  0
 51125  1  0  0  0
 51126  1  0  0  0
 52127  1  0  0  0
 52128  1  0  0  0
 53 54  1  0  0  0
 54 55  2  0  0  0
 54129  1  0  0  0
 55 57  1  0  0  0
 55130  1  0  0  0
 56 69  2  0  0  0
 57 58  2  0  0  0
 57131  1  0  0  0
 58132  1  0  0  0
 59 60  1  0  0  0
 59 61  1  0  0  0
 59 62  1  0  0  0
 60133  1  0  0  0
 60134  1  0  0  0
 60135  1  0  0  0
 61136  1  0  0  0
 61137  1  0  0  0
 61138  1  0  0  0
 62139  1  0  0  0
 62140  1  0  0  0
 62141  1  0  0  0
 63 65  1  0  0  0
 63142  1  0  0  0
 63143  1  0  0  0
 63144  1  0  0  0
 64145  1  0  0  0
 65146  1  0  0  0
 68 80  1  0  0  0
 71 73  2  0  0  0
 71 75  1  0  0  0
 71147  1  0  0  0
 72 74  1  0  0  0
 72 76  2  0  0  0
 72148  1  0  0  0
 73 76  1  0  0  0
 73 77  1  0  0  0
 74 75  2  0  0  0
 74 82  1  0  0  0
 75 85  1  0  0  0
 76 86  1  0  0  0
 77 83  1  0  0  0
 77 87  2  0  0  0
 78 80  1  0  0  0
 78 81  1  0  0  0
 78 84  2  0  0  0
 79149  1  0  0  0
 79150  1  0  0  0
 79151  1  0  0  0
 79 81  1  0  0  0
 80152  1  0  0  0
 80153  1  0  0  0
 81 83  1  0  0  0
 81154  1  0  0  0
 82155  1  0  0  0
 83156  1  0  0  0
M  ISO  4   1 100  68 101  80 101  82 100
M  END
> <chiral flag>
0

> <version>
0

> <s_m_source_file>
/data/baiqing/PycharmProjects/Reinvent-master-3.2/result/LINK_invent/BTK/process_docking_weight1_custom_product_contain_oxygen_bond_distance_aromatic_linkinvent_7_9_3/rearranged_h_0173.sdf

> <i_m_source_file_index>
94

> <r_mmod_Potential_Energy-OPLS-2005>
-83.2786254882812

> <r_mmod_Stretch_Energy-OPLS-2005>
42.3648414611816

> <r_mmod_Bend_Energy-OPLS-2005>
99.7012634277344

> <r_mmod_Torsional_Energy-OPLS-2005>
268.307952880859

> <r_mmod_Improper_Torsional_Energy-OPLS-2005>
7.94889640808105

> <r_mmod_Van_der_Waal_Energy-OPLS-2005>
161.016296386719

> <r_mmod_Electrostatic_Energy-OPLS-2005>
-441.512512207031

> <r_mmod_Solvation_Energy-OPLS-2005>
-234.500762939453

> <b_mmod_Minimization_Converged-OPLS-2005>
0

> <r_mmod_RMS_Derivative-OPLS-2005>
2.14395570755005

$$$$
94
                    3D
 Structure written by MMmdl.
154162  0  0  1  0            999 V2000
  -30.7462  -14.4673   20.6113 C   0  0  0  0  0  0
  -30.4155  -12.3223   19.4266 C   0  0  0  0  0  0
  -29.4883  -12.5092   18.2097 C   0  0  0  0  0  0
  -28.0129  -12.3651   18.6256 C   0  0  0  0  0  0
  -27.6591  -13.2149   19.8750 C   0  0  2  0  0  0
  -28.7022  -13.0209   20.9993 C   0  0  0  0  0  0
  -25.2552  -13.8172   20.5667 C   0  0  0  0  0  0
  -24.1823  -13.0441   20.9192 C   0  0  0  0  0  0
  -24.6395  -11.6914   20.8757 C   0  0  0  0  0  0
  -23.9068  -10.4294   21.0417 C   0  0  0  0  0  0
  -24.3616   -9.4205   21.9190 C   0  0  0  0  0  0
  -23.6293   -8.2241   22.0753 C   0  0  0  0  0  0
  -22.4277   -8.0281   21.3546 C   0  0  0  0  0  0
  -21.9916   -9.0256   20.4647 C   0  0  0  0  0  0
  -22.7243  -10.2136   20.3062 C   0  0  0  0  0  0
  -21.6850   -6.0738   22.5280 C   0  0  0  0  0  0
  -21.4007   -6.5638   23.8214 C   0  0  0  0  0  0
  -21.3660   -5.6793   24.9177 C   0  0  0  0  0  0
  -21.6048   -4.3059   24.7226 C   0  0  0  0  0  0
  -21.8817   -3.8150   23.4348 C   0  0  0  0  0  0
  -21.9190   -4.6966   22.3405 C   0  0  0  0  0  0
  -22.7848  -13.5235   21.1853 C   0  0  0  0  0  0
  -22.1660   -4.2150   21.0982 F   0  0  0  0  0  0
  -21.5635   -3.4543   25.7741 F   0  0  0  0  0  0
  -30.0341  -13.3171   20.4449 N   0  0  0  0  0  0
  -26.3014  -12.9367   20.3388 N   0  0  0  0  0  0
  -25.9330  -11.6518   20.5804 N   0  0  0  0  0  0
  -22.0491  -12.8224   22.0410 N   0  0  0  0  0  0
  -25.4229  -15.1876   20.3975 N   0  0  0  0  0  0
  -31.8420  -14.6449   20.0737 O   0  0  0  0  0  0
  -21.6640   -6.8880   21.4244 O   0  0  0  0  0  0
  -22.3529  -14.5543   20.6706 O   0  0  0  0  0  0
  -24.6172  -31.8658   23.2098 C   0  0  0  0  0  0
  -25.9051  -32.4810   23.8397 C   0  0  1  0  0  0
  -27.2228  -27.3997   20.0992 C   0  0  0  0  0  0
  -25.5908  -33.8614   24.2325 N   0  0  0  0  0  0
  -23.4061  -30.4925   21.5517 C   0  0  2  0  0  0
  -24.8505  -28.9632   20.1102 C   0  0  0  0  0  0
  -22.7429  -29.4643   22.4972 C   0  0  0  0  0  0
  -18.0270  -28.1354   22.8490 C   0  0  0  0  0  0
  -24.1483  -36.7309   23.2637 C   0  0  0  0  0  0
  -25.9398  -30.8225   21.3685 C   0  0  0  0  0  0
  -26.0153  -29.4571   20.7111 C   0  0  0  0  0  0
  -27.2051  -28.6842   20.7006 C   0  0  0  0  0  0
  -26.0381  -26.9451   19.4707 C   0  0  0  0  0  0
  -24.8592  -27.7088   19.4839 C   0  0  0  0  0  0
  -23.6147  -29.8329   20.1638 C   0  0  0  0  0  0
  -25.4102  -36.3103   24.0335 C   0  0  1  0  0  0
  -20.5867  -28.3653   23.1301 C   0  0  2  0  0  0
  -20.6758  -26.9382   22.5411 C   0  0  0  0  0  0
  -19.5738  -26.6366   21.5208 C   0  0  0  0  0  0
  -18.1915  -26.7898   22.1621 C   0  0  0  0  0  0
  -19.1521  -28.8820   23.2891 C   0  0  0  0  0  0
  -18.9455  -30.1432   23.8894 C   0  0  0  0  0  0
  -17.6459  -30.6568   24.0562 C   0  0  0  0  0  0
  -25.9036  -34.9471   23.5123 C   0  0  0  0  0  0
  -16.5348  -29.9067   23.6326 C   0  0  0  0  0  0
  -16.7259  -28.6486   23.0340 C   0  0  0  0  0  0
  -26.4471  -31.6594   25.0733 C   0  0  0  0  0  0
  -25.3742  -31.3700   26.1490 C   0  0  0  0  0  0
  -27.0299  -30.3032   24.6112 C   0  0  0  0  0  0
  -27.6039  -32.4323   25.7488 C   0  0  0  0  0  0
  -27.5587  -37.1788   24.8448 C   0  0  0  0  0  0
  -21.4150  -29.3029   22.3721 N   0  0  0  0  0  0
  -26.4275  -37.3802   23.9432 N   0  0  0  0  0  0
  -24.6729  -31.0744   22.1013 N   0  0  0  0  0  0
  -23.4192  -28.8168   23.3006 O   0  0  0  0  0  0
  -28.3612  -26.6025   20.1530 O   0  0  0  0  0  0
  -26.5601  -34.8926   22.4686 O   0  0  0  0  0  0
  -23.5357  -32.1421   23.7474 O   0  0  0  0  0  0
  -28.5334  -19.7141   21.5137 C   0  0  0  0  0  0
  -28.8074  -18.3265   21.7652 C   0  0  0  0  0  0
  -30.1233  -17.9927   21.5440 C   0  0  0  0  0  0
  -29.6219  -20.4652   21.1215 C   0  0  0  0  0  0
  -28.8114  -22.7867   20.9444 C   0  0  0  0  0  0
  -27.7672  -17.3660   22.2566 C   0  0  0  0  0  0
  -30.8544  -16.6822   21.7884 C   0  0  0  0  0  0
  -29.2529  -24.2554   20.6795 C   0  0  0  0  0  0
  -28.1275  -25.1689   20.1049 C   0  0  0  0  0  0
  -29.7431  -21.8067   20.8559 N   0  0  0  0  0  0
  -30.1829  -15.4365   21.3610 N   0  0  0  0  0  0
  -27.6361  -22.5542   21.2382 O   0  0  0  0  0  0
  -31.0150  -19.4067   21.0089 S   0  0  0  0  0  0
  -31.4596  -12.4103   19.1211 H   0  0  0  0  0  0
  -30.3140  -11.3160   19.8354 H   0  0  0  0  0  0
  -29.7297  -11.7776   17.4376 H   0  0  0  0  0  0
  -29.6513  -13.4918   17.7647 H   0  0  0  0  0  0
  -27.8302  -11.3093   18.8315 H   0  0  0  0  0  0
  -27.3585  -12.6290   17.7941 H   0  0  0  0  0  0
  -27.6975  -14.2598   19.5664 H   0  0  0  0  0  0
  -28.6806  -11.9928   21.3634 H   0  0  0  0  0  0
  -28.4560  -13.6413   21.8618 H   0  0  0  0  0  0
  -25.2761   -9.5684   22.4764 H   0  0  0  0  0  0
  -24.0005   -7.4632   22.7466 H   0  0  0  0  0  0
  -21.0853   -8.8774   19.8948 H   0  0  0  0  0  0
  -22.3705  -10.9677   19.6172 H   0  0  0  0  0  0
  -21.1988   -7.6143   23.9717 H   0  0  0  0  0  0
  -21.1489   -6.0524   25.9078 H   0  0  0  0  0  0
  -22.0595   -2.7612   23.2850 H   0  0  0  0  0  0
  -22.4114  -11.9880   22.4785 H   0  0  0  0  0  0
  -21.1115  -13.1245   22.2627 H   0  0  0  0  0  0
  -24.6507  -15.8392   20.4837 H   0  0  0  0  0  0
  -26.2634  -15.6162   20.0323 H   0  0  0  0  0  0
  -26.7122  -32.5501   23.1153 H   0  0  0  0  0  0
  -25.0072  -33.9784   25.0477 H   0  0  0  0  0  0
  -22.6961  -31.3109   21.4162 H   0  0  0  0  0  0
  -23.3752  -35.9630   23.3262 H   0  0  0  0  0  0
  -24.3593  -36.8959   22.2061 H   0  0  0  0  0  0
  -23.7224  -37.6498   23.6673 H   0  0  0  0  0  0
  -26.0581  -31.5895   20.6017 H   0  0  0  0  0  0
  -26.8254  -30.8719   21.9900 H   0  0  0  0  0  0
  -28.0997  -29.0560   21.1796 H   0  0  0  0  0  0
  -25.9965  -25.9904   18.9674 H   0  0  0  0  0  0
  -23.9665  -27.3276   19.0072 H   0  0  0  0  0  0
  -23.7246  -30.6125   19.4096 H   0  0  0  0  0  0
  -22.7362  -29.2587   19.8653 H   0  0  0  0  0  0
  -25.1265  -36.1951   25.0821 H   0  0  0  0  0  0
  -20.9965  -28.3207   24.1421 H   0  0  0  0  0  0
  -20.5648  -26.2254   23.3597 H   0  0  0  0  0  0
  -21.6626  -26.7398   22.1214 H   0  0  0  0  0  0
  -19.6899  -25.6283   21.1219 H   0  0  0  0  0  0
  -19.6673  -27.3195   20.6753 H   0  0  0  0  0  0
  -17.4187  -26.6651   21.4021 H   0  0  0  0  0  0
  -18.0310  -26.0024   22.8999 H   0  0  0  0  0  0
  -19.7936  -30.7249   24.2243 H   0  0  0  0  0  0
  -17.5015  -31.6245   24.5170 H   0  0  0  0  0  0
  -15.5355  -30.2977   23.7643 H   0  0  0  0  0  0
  -15.8655  -28.0820   22.7032 H   0  0  0  0  0  0
  -24.5921  -30.7026   25.7849 H   0  0  0  0  0  0
  -24.8925  -32.2853   26.4945 H   0  0  0  0  0  0
  -25.8111  -30.8887   27.0249 H   0  0  0  0  0  0
  -26.2847  -29.6800   24.1158 H   0  0  0  0  0  0
  -27.4063  -29.7259   25.4566 H   0  0  0  0  0  0
  -27.8678  -30.4345   23.9258 H   0  0  0  0  0  0
  -27.2649  -33.3623   26.2062 H   0  0  0  0  0  0
  -28.3846  -32.6889   25.0314 H   0  0  0  0  0  0
  -28.0706  -31.8452   26.5408 H   0  0  0  0  0  0
  -28.2538  -38.0149   24.7595 H   0  0  0  0  0  0
  -28.1148  -36.2692   24.6133 H   0  0  0  0  0  0
  -27.2326  -37.1266   25.8848 H   0  0  0  0  0  0
  -20.9305  -29.8791   21.6982 H   0  0  0  0  0  0
  -26.0147  -38.2852   24.1516 H   0  0  0  0  0  0
  -27.5382  -20.1082   21.6623 H   0  0  0  0  0  0
  -26.8332  -17.8716   22.5031 H   0  0  0  0  0  0
  -28.0991  -16.8448   23.1548 H   0  0  0  0  0  0
  -27.5408  -16.6136   21.5030 H   0  0  0  0  0  0
  -31.0349  -16.5875   22.8599 H   0  0  0  0  0  0
  -31.8512  -16.7536   21.3501 H   0  0  0  0  0  0
  -30.1163  -24.2718   20.0146 H   0  0  0  0  0  0
  -29.5876  -24.6638   21.6336 H   0  0  0  0  0  0
  -27.2131  -24.9544   20.6608 H   0  0  0  0  0  0
  -27.9470  -24.8767   19.0694 H   0  0  0  0  0  0
  -30.6703  -22.1163   20.5949 H   0  0  0  0  0  0
  -29.2786  -15.2380   21.7588 H   0  0  0  0  0  0
  1 25  1  0  0  0
  1 30  2  0  0  0
  1 81  1  0  0  0
  2  3  1  0  0  0
  2 25  1  0  0  0
  2 84  1  0  0  0
  2 85  1  0  0  0
  3  4  1  0  0  0
  3 86  1  0  0  0
  3 87  1  0  0  0
  4  5  1  0  0  0
  4 88  1  0  0  0
  4 89  1  0  0  0
  5  6  1  0  0  0
  5 26  1  0  0  0
  5 90  1  0  0  0
  6 25  1  0  0  0
  6 91  1  0  0  0
  6 92  1  0  0  0
  7  8  2  0  0  0
  7 26  1  0  0  0
  7 29  1  0  0  0
  8  9  1  0  0  0
  8 22  1  0  0  0
  9 10  1  0  0  0
  9 27  2  0  0  0
 10 11  2  0  0  0
 10 15  1  0  0  0
 11 12  1  0  0  0
 11 93  1  0  0  0
 12 13  2  0  0  0
 12 94  1  0  0  0
 13 14  1  0  0  0
 13 31  1  0  0  0
 14 15  2  0  0  0
 14 95  1  0  0  0
 15 96  1  0  0  0
 16 17  2  0  0  0
 16 21  1  0  0  0
 16 31  1  0  0  0
 17 18  1  0  0  0
 17 97  1  0  0  0
 18 19  2  0  0  0
 18 98  1  0  0  0
 19 20  1  0  0  0
 19 24  1  0  0  0
 20 21  2  0  0  0
 20 99  1  0  0  0
 21 23  1  0  0  0
 22 28  1  0  0  0
 22 32  2  0  0  0
 26 27  1  0  0  0
 28100  1  0  0  0
 28101  1  0  0  0
 29102  1  0  0  0
 29103  1  0  0  0
 33 34  1  0  0  0
 33 66  1  0  0  0
 33 70  2  0  0  0
 34 36  1  0  0  0
 34 59  1  0  0  0
 34104  1  0  0  0
 35 44  2  0  0  0
 35 45  1  0  0  0
 35 68  1  0  0  0
 36 56  1  0  0  0
 36105  1  0  0  0
 37 39  1  0  0  0
 37 47  1  0  0  0
 37 66  1  0  0  0
 37106  1  0  0  0
 38 43  2  0  0  0
 38 46  1  0  0  0
 38 47  1  0  0  0
 39 64  1  0  0  0
 39 67  2  0  0  0
 40 52  1  0  0  0
 40 53  2  0  0  0
 40 58  1  0  0  0
 41107  1  0  0  0
 41108  1  0  0  0
 41109  1  0  0  0
 41 48  1  0  0  0
 42 43  1  0  0  0
 42 66  1  0  0  0
 42110  1  0  0  0
 42111  1  0  0  0
 43 44  1  0  0  0
 44112  1  0  0  0
 45 46  2  0  0  0
 45113  1  0  0  0
 46114  1  0  0  0
 47115  1  0  0  0
 47116  1  0  0  0
 48 56  1  0  0  0
 48 65  1  0  0  0
 48117  1  0  0  0
 49 50  1  0  0  0
 49 53  1  0  0  0
 49 64  1  0  0  0
 49118  1  0  0  0
 50 51  1  0  0  0
 50119  1  0  0  0
 50120  1  0  0  0
 51 52  1  0  0  0
 51121  1  0  0  0
 51122  1  0  0  0
 52123  1  0  0  0
 52124  1  0  0  0
 53 54  1  0  0  0
 54 55  2  0  0  0
 54125  1  0  0  0
 55 57  1  0  0  0
 55126  1  0  0  0
 56 69  2  0  0  0
 57 58  2  0  0  0
 57127  1  0  0  0
 58128  1  0  0  0
 59 60  1  0  0  0
 59 61  1  0  0  0
 59 62  1  0  0  0
 60129  1  0  0  0
 60130  1  0  0  0
 60131  1  0  0  0
 61132  1  0  0  0
 61133  1  0  0  0
 61134  1  0  0  0
 62135  1  0  0  0
 62136  1  0  0  0
 62137  1  0  0  0
 63 65  1  0  0  0
 63138  1  0  0  0
 63139  1  0  0  0
 63140  1  0  0  0
 64141  1  0  0  0
 65142  1  0  0  0
 68 79  1  0  0  0
 71 72  1  0  0  0
 71 74  2  0  0  0
 71143  1  0  0  0
 72 73  2  0  0  0
 72 76  1  0  0  0
 73 77  1  0  0  0
 73 83  1  0  0  0
 74 80  1  0  0  0
 74 83  1  0  0  0
 75 78  1  0  0  0
 75 80  1  0  0  0
 75 82  2  0  0  0
 76144  1  0  0  0
 76145  1  0  0  0
 76146  1  0  0  0
 77 81  1  0  0  0
 77147  1  0  0  0
 77148  1  0  0  0
 78 79  1  0  0  0
 78149  1  0  0  0
 78150  1  0  0  0
 79151  1  0  0  0
 79152  1  0  0  0
 80153  1  0  0  0
 81154  1  0  0  0
M  ISO  4   1 100  68 101  79 101  81 100
M  END
> <chiral flag>
0

> <version>
0

> <s_m_source_file>
/data/baiqing/PycharmProjects/Reinvent-master-3.2/result/LINK_invent/BTK/process_docking_weight1_custom_product_contain_oxygen_bond_distance_aromatic_linkinvent_7_9_3/rearranged_h_0173.sdf

> <i_m_source_file_index>
95

> <r_mmod_Potential_Energy-OPLS-2005>
-160.636413574219

> <r_mmod_Stretch_Energy-OPLS-2005>
42.527458190918

> <r_mmod_Bend_Energy-OPLS-2005>
109.534713745117

> <r_mmod_Torsional_Energy-OPLS-2005>
200.195114135742

> <r_mmod_Improper_Torsional_Energy-OPLS-2005>
2.43101978302002

> <r_mmod_Van_der_Waal_Energy-OPLS-2005>
138.49723815918

> <r_mmod_Electrostatic_Energy-OPLS-2005>
-443.619232177734

> <r_mmod_Solvation_Energy-OPLS-2005>
-227.621078491211

> <b_mmod_Minimization_Converged-OPLS-2005>
0

> <r_mmod_RMS_Derivative-OPLS-2005>
1.07951629161835

$$$$
95
                    3D
 Structure written by MMmdl.
157165  0  0  1  0            999 V2000
  -30.7536  -14.4244   20.5554 C   0  0  0  0  0  0
  -30.4034  -12.2716   19.4295 C   0  0  0  0  0  0
  -29.4889  -12.4878   18.2088 C   0  0  0  0  0  0
  -28.0102  -12.3639   18.6204 C   0  0  0  0  0  0
  -27.6603  -13.2118   19.8736 C   0  0  2  0  0  0
  -28.7015  -13.0130   20.9992 C   0  0  0  0  0  0
  -25.2586  -13.8179   20.5692 C   0  0  0  0  0  0
  -24.1837  -13.0451   20.9175 C   0  0  0  0  0  0
  -24.6391  -11.6918   20.8734 C   0  0  0  0  0  0
  -23.9055  -10.4301   21.0403 C   0  0  0  0  0  0
  -24.3609   -9.4218   21.9183 C   0  0  0  0  0  0
  -23.6292   -8.2249   22.0753 C   0  0  0  0  0  0
  -22.4277   -8.0281   21.3542 C   0  0  0  0  0  0
  -21.9906   -9.0253   20.4644 C   0  0  0  0  0  0
  -22.7225  -10.2138   20.3054 C   0  0  0  0  0  0
  -21.6854   -6.0735   22.5278 C   0  0  0  0  0  0
  -21.4013   -6.5642   23.8210 C   0  0  0  0  0  0
  -21.3657   -5.6796   24.9174 C   0  0  0  0  0  0
  -21.6044   -4.3058   24.7227 C   0  0  0  0  0  0
  -21.8821   -3.8148   23.4349 C   0  0  0  0  0  0
  -21.9197   -4.6964   22.3403 C   0  0  0  0  0  0
  -22.7860  -13.5246   21.1841 C   0  0  0  0  0  0
  -22.1665   -4.2149   21.0981 F   0  0  0  0  0  0
  -21.5629   -3.4544   25.7740 F   0  0  0  0  0  0
  -30.0365  -13.2763   20.4407 N   0  0  0  0  0  0
  -26.3023  -12.9358   20.3376 N   0  0  0  0  0  0
  -25.9322  -11.6512   20.5773 N   0  0  0  0  0  0
  -22.0495  -12.8238   22.0393 N   0  0  0  0  0  0
  -25.4327  -15.1892   20.4104 N   0  0  0  0  0  0
  -31.8920  -14.5181   20.0981 O   0  0  0  0  0  0
  -21.6644   -6.8878   21.4240 O   0  0  0  0  0  0
  -22.3545  -14.5551   20.6690 O   0  0  0  0  0  0
  -24.6101  -31.8704   23.2134 C   0  0  0  0  0  0
  -25.9015  -32.4834   23.8411 C   0  0  1  0  0  0
  -27.2324  -27.4723   20.1008 C   0  0  0  0  0  0
  -25.5894  -33.8630   24.2356 N   0  0  0  0  0  0
  -23.3954  -30.4936   21.5522 C   0  0  2  0  0  0
  -24.8439  -28.9637   20.1132 C   0  0  0  0  0  0
  -22.7383  -29.4664   22.5007 C   0  0  0  0  0  0
  -18.0263  -28.1366   22.8495 C   0  0  0  0  0  0
  -24.1484  -36.7318   23.2639 C   0  0  0  0  0  0
  -25.9181  -30.8495   21.3589 C   0  0  0  0  0  0
  -25.9978  -29.4838   20.7144 C   0  0  0  0  0  0
  -27.1958  -28.7413   20.7148 C   0  0  0  0  0  0
  -26.0746  -26.9625   19.4821 C   0  0  0  0  0  0
  -24.8742  -27.6988   19.4971 C   0  0  0  0  0  0
  -23.6022  -29.8243   20.1658 C   0  0  0  0  0  0
  -25.4102  -36.3118   24.0343 C   0  0  1  0  0  0
  -20.5849  -28.3644   23.1338 C   0  0  2  0  0  0
  -20.6755  -26.9388   22.5426 C   0  0  0  0  0  0
  -19.5738  -26.6384   21.5211 C   0  0  0  0  0  0
  -18.1911  -26.7913   22.1621 C   0  0  0  0  0  0
  -19.1511  -28.8823   23.2912 C   0  0  0  0  0  0
  -18.9445  -30.1430   23.8921 C   0  0  0  0  0  0
  -17.6450  -30.6580   24.0568 C   0  0  0  0  0  0
  -25.9024  -34.9479   23.5144 C   0  0  0  0  0  0
  -16.5340  -29.9088   23.6324 C   0  0  0  0  0  0
  -16.7256  -28.6500   23.0348 C   0  0  0  0  0  0
  -26.4467  -31.6596   25.0716 C   0  0  0  0  0  0
  -25.3756  -31.3686   26.1486 C   0  0  0  0  0  0
  -27.0300  -30.3057   24.6040 C   0  0  0  0  0  0
  -27.6056  -32.4304   25.7474 C   0  0  0  0  0  0
  -27.5577  -37.1812   24.8467 C   0  0  0  0  0  0
  -21.4115  -29.3018   22.3751 N   0  0  0  0  0  0
  -26.4292  -37.3797   23.9406 N   0  0  0  0  0  0
  -24.6592  -31.0842   22.1011 N   0  0  0  0  0  0
  -23.4180  -28.8214   23.3035 O   0  0  0  0  0  0
  -28.3811  -26.7270   20.0935 O   0  0  0  0  0  0
  -26.5577  -34.8926   22.4700 O   0  0  0  0  0  0
  -23.5307  -32.1436   23.7562 O   0  0  0  0  0  0
  -31.6185  -17.3669   20.3131 C   0  0  0  0  0  0
  -31.0431  -19.6559   20.8872 C   0  0  0  0  0  0
  -30.4736  -16.8761   20.9988 C   0  0  0  0  0  0
  -29.8870  -19.2089   21.5683 C   0  0  0  0  0  0
  -31.8996  -18.7400   20.2630 C   0  0  0  0  0  0
  -29.6141  -17.8163   21.6190 C   0  0  0  0  0  0
  -28.2221  -22.4571   22.7432 C   0  0  0  0  0  0
  -28.5054  -23.9626   22.7274 C   0  0  0  0  0  0
  -29.3191  -21.5536   22.1725 C   0  0  0  0  0  0
  -28.6729  -26.1139   21.3509 C   0  0  0  0  0  0
  -28.1784  -24.6533   21.3851 C   0  0  0  0  0  0
  -30.1123  -15.4857   21.0794 N   0  0  0  0  0  0
  -29.0082  -20.1215   22.1838 N   0  0  0  0  0  0
  -27.1812  -21.9880   23.2178 O   0  0  0  0  0  0
  -32.9987  -19.1819   19.6054 F   0  0  0  0  0  0
  -28.5061  -17.3735   22.2651 F   0  0  0  0  0  0
  -28.7648  -24.0038   20.3778 F   0  0  0  0  0  0
  -26.8576  -24.6082   21.2052 F   0  0  0  0  0  0
  -31.4513  -12.3252   19.1292 H   0  0  0  0  0  0
  -30.2687  -11.2682   19.8361 H   0  0  0  0  0  0
  -29.7199  -11.7586   17.4310 H   0  0  0  0  0  0
  -29.6739  -13.4711   17.7728 H   0  0  0  0  0  0
  -27.8125  -11.3103   18.8198 H   0  0  0  0  0  0
  -27.3631  -12.6398   17.7872 H   0  0  0  0  0  0
  -27.7013  -14.2567   19.5657 H   0  0  0  0  0  0
  -28.6630  -11.9901   21.3771 H   0  0  0  0  0  0
  -28.4764  -13.6516   21.8544 H   0  0  0  0  0  0
  -25.2750   -9.5705   22.4760 H   0  0  0  0  0  0
  -24.0005   -7.4645   22.7475 H   0  0  0  0  0  0
  -21.0836   -8.8763   19.8952 H   0  0  0  0  0  0
  -22.3671  -10.9677   19.6168 H   0  0  0  0  0  0
  -21.2001   -7.6150   23.9710 H   0  0  0  0  0  0
  -21.1479   -6.0529   25.9075 H   0  0  0  0  0  0
  -22.0602   -2.7611   23.2850 H   0  0  0  0  0  0
  -22.4104  -11.9902   22.4790 H   0  0  0  0  0  0
  -21.1109  -13.1267   22.2581 H   0  0  0  0  0  0
  -24.6746  -15.8516   20.5319 H   0  0  0  0  0  0
  -26.2966  -15.6275   20.1162 H   0  0  0  0  0  0
  -26.7092  -32.5570   23.1188 H   0  0  0  0  0  0
  -25.0076  -33.9795   25.0524 H   0  0  0  0  0  0
  -22.6818  -31.3088   21.4151 H   0  0  0  0  0  0
  -23.3740  -35.9657   23.3311 H   0  0  0  0  0  0
  -24.3585  -36.8918   22.2052 H   0  0  0  0  0  0
  -23.7243  -37.6528   23.6647 H   0  0  0  0  0  0
  -26.0150  -31.6134   20.5856 H   0  0  0  0  0  0
  -26.8116  -30.9128   21.9672 H   0  0  0  0  0  0
  -28.0868  -29.1356   21.1826 H   0  0  0  0  0  0
  -26.1017  -25.9918   19.0073 H   0  0  0  0  0  0
  -23.9876  -27.2912   19.0312 H   0  0  0  0  0  0
  -23.7057  -30.5998   19.4059 H   0  0  0  0  0  0
  -22.7276  -29.2396   19.8736 H   0  0  0  0  0  0
  -25.1277  -36.1988   25.0836 H   0  0  0  0  0  0
  -20.9932  -28.3209   24.1460 H   0  0  0  0  0  0
  -20.5656  -26.2251   23.3606 H   0  0  0  0  0  0
  -21.6630  -26.7442   22.1222 H   0  0  0  0  0  0
  -19.6907  -25.6304   21.1222 H   0  0  0  0  0  0
  -19.6681  -27.3216   20.6756 H   0  0  0  0  0  0
  -17.4187  -26.6666   21.4019 H   0  0  0  0  0  0
  -18.0306  -26.0045   22.9007 H   0  0  0  0  0  0
  -19.7924  -30.7229   24.2310 H   0  0  0  0  0  0
  -17.5012  -31.6264   24.5163 H   0  0  0  0  0  0
  -15.5342  -30.3002   23.7632 H   0  0  0  0  0  0
  -15.8649  -28.0834   22.7051 H   0  0  0  0  0  0
  -24.5922  -30.7034   25.7837 H   0  0  0  0  0  0
  -24.8954  -32.2838   26.4964 H   0  0  0  0  0  0
  -25.8128  -30.8846   27.0228 H   0  0  0  0  0  0
  -26.2829  -29.6808   24.1133 H   0  0  0  0  0  0
  -27.4154  -29.7293   25.4459 H   0  0  0  0  0  0
  -27.8622  -30.4406   23.9122 H   0  0  0  0  0  0
  -27.2686  -33.3590   26.2092 H   0  0  0  0  0  0
  -28.3848  -32.6878   25.0288 H   0  0  0  0  0  0
  -28.0741  -31.8398   26.5356 H   0  0  0  0  0  0
  -28.2612  -38.0094   24.7506 H   0  0  0  0  0  0
  -28.1055  -36.2628   24.6302 H   0  0  0  0  0  0
  -27.2298  -37.1479   25.8872 H   0  0  0  0  0  0
  -20.9266  -29.8737   21.6981 H   0  0  0  0  0  0
  -26.0185  -38.2878   24.1402 H   0  0  0  0  0  0
  -32.3192  -16.7350   19.7959 H   0  0  0  0  0  0
  -31.3041  -20.7001   20.8169 H   0  0  0  0  0  0
  -29.5600  -24.1030   22.9635 H   0  0  0  0  0  0
  -27.9448  -24.4325   23.5353 H   0  0  0  0  0  0
  -30.2343  -21.7318   22.7391 H   0  0  0  0  0  0
  -29.5048  -21.8740   21.1474 H   0  0  0  0  0  0
  -29.7553  -26.1369   21.4842 H   0  0  0  0  0  0
  -28.2541  -26.6741   22.1899 H   0  0  0  0  0  0
  -29.2074  -15.2991   21.4857 H   0  0  0  0  0  0
  -28.2054  -19.7972   22.7190 H   0  0  0  0  0  0
  1 25  1  0  0  0
  1 30  2  0  0  0
  1 82  1  0  0  0
  2  3  1  0  0  0
  2 25  1  0  0  0
  2 89  1  0  0  0
  2 90  1  0  0  0
  3  4  1  0  0  0
  3 91  1  0  0  0
  3 92  1  0  0  0
  4  5  1  0  0  0
  4 93  1  0  0  0
  4 94  1  0  0  0
  5  6  1  0  0  0
  5 26  1  0  0  0
  5 95  1  0  0  0
  6 25  1  0  0  0
  6 96  1  0  0  0
  6 97  1  0  0  0
  7  8  2  0  0  0
  7 26  1  0  0  0
  7 29  1  0  0  0
  8  9  1  0  0  0
  8 22  1  0  0  0
  9 10  1  0  0  0
  9 27  2  0  0  0
 10 11  2  0  0  0
 10 15  1  0  0  0
 11 12  1  0  0  0
 11 98  1  0  0  0
 12 13  2  0  0  0
 12 99  1  0  0  0
 13 14  1  0  0  0
 13 31  1  0  0  0
 14 15  2  0  0  0
 14100  1  0  0  0
 15101  1  0  0  0
 16 17  2  0  0  0
 16 21  1  0  0  0
 16 31  1  0  0  0
 17 18  1  0  0  0
 17102  1  0  0  0
 18 19  2  0  0  0
 18103  1  0  0  0
 19 20  1  0  0  0
 19 24  1  0  0  0
 20 21  2  0  0  0
 20104  1  0  0  0
 21 23  1  0  0  0
 22 28  1  0  0  0
 22 32  2  0  0  0
 26 27  1  0  0  0
 28105  1  0  0  0
 28106  1  0  0  0
 29107  1  0  0  0
 29108  1  0  0  0
 33 34  1  0  0  0
 33 66  1  0  0  0
 33 70  2  0  0  0
 34 36  1  0  0  0
 34 59  1  0  0  0
 34109  1  0  0  0
 35 44  2  0  0  0
 35 45  1  0  0  0
 35 68  1  0  0  0
 36 56  1  0  0  0
 36110  1  0  0  0
 37 39  1  0  0  0
 37 47  1  0  0  0
 37 66  1  0  0  0
 37111  1  0  0  0
 38 43  2  0  0  0
 38 46  1  0  0  0
 38 47  1  0  0  0
 39 64  1  0  0  0
 39 67  2  0  0  0
 40 52  1  0  0  0
 40 53  2  0  0  0
 40 58  1  0  0  0
 41112  1  0  0  0
 41113  1  0  0  0
 41114  1  0  0  0
 41 48  1  0  0  0
 42 43  1  0  0  0
 42 66  1  0  0  0
 42115  1  0  0  0
 42116  1  0  0  0
 43 44  1  0  0  0
 44117  1  0  0  0
 45 46  2  0  0  0
 45118  1  0  0  0
 46119  1  0  0  0
 47120  1  0  0  0
 47121  1  0  0  0
 48 56  1  0  0  0
 48 65  1  0  0  0
 48122  1  0  0  0
 49 50  1  0  0  0
 49 53  1  0  0  0
 49 64  1  0  0  0
 49123  1  0  0  0
 50 51  1  0  0  0
 50124  1  0  0  0
 50125  1  0  0  0
 51 52  1  0  0  0
 51126  1  0  0  0
 51127  1  0  0  0
 52128  1  0  0  0
 52129  1  0  0  0
 53 54  1  0  0  0
 54 55  2  0  0  0
 54130  1  0  0  0
 55 57  1  0  0  0
 55131  1  0  0  0
 56 69  2  0  0  0
 57 58  2  0  0  0
 57132  1  0  0  0
 58133  1  0  0  0
 59 60  1  0  0  0
 59 61  1  0  0  0
 59 62  1  0  0  0
 60134  1  0  0  0
 60135  1  0  0  0
 60136  1  0  0  0
 61137  1  0  0  0
 61138  1  0  0  0
 61139  1  0  0  0
 62140  1  0  0  0
 62141  1  0  0  0
 62142  1  0  0  0
 63 65  1  0  0  0
 63143  1  0  0  0
 63144  1  0  0  0
 63145  1  0  0  0
 64146  1  0  0  0
 65147  1  0  0  0
 68 80  1  0  0  0
 71 73  2  0  0  0
 71 75  1  0  0  0
 71148  1  0  0  0
 72 74  1  0  0  0
 72 75  2  0  0  0
 72149  1  0  0  0
 73 76  1  0  0  0
 73 82  1  0  0  0
 74 76  2  0  0  0
 74 83  1  0  0  0
 75 85  1  0  0  0
 76 86  1  0  0  0
 77 78  1  0  0  0
 77 79  1  0  0  0
 77 84  2  0  0  0
 78 81  1  0  0  0
 78150  1  0  0  0
 78151  1  0  0  0
 79 83  1  0  0  0
 79152  1  0  0  0
 79153  1  0  0  0
 80 81  1  0  0  0
 80154  1  0  0  0
 80155  1  0  0  0
 81 87  1  0  0  0
 81 88  1  0  0  0
 82156  1  0  0  0
 83157  1  0  0  0
M  ISO  4   1 100  68 101  80 101  82 100
M  END
> <chiral flag>
0

> <version>
0

> <s_m_source_file>
/data/baiqing/PycharmProjects/Reinvent-master-3.2/result/LINK_invent/BTK/process_docking_weight1_custom_product_contain_oxygen_bond_distance_aromatic_linkinvent_7_9_3/rearranged_h_0173.sdf

> <i_m_source_file_index>
96

> <r_mmod_Potential_Energy-OPLS-2005>
-35.569393157959

> <r_mmod_Stretch_Energy-OPLS-2005>
35.2444381713867

> <r_mmod_Bend_Energy-OPLS-2005>
103.456260681152

> <r_mmod_Torsional_Energy-OPLS-2005>
201.912063598633

> <r_mmod_Improper_Torsional_Energy-OPLS-2005>
3.05564045906067

> <r_mmod_Van_der_Waal_Energy-OPLS-2005>
167.561187744141

> <r_mmod_Electrostatic_Energy-OPLS-2005>
-340.121368408203

> <r_mmod_Solvation_Energy-OPLS-2005>
-219.763977050781

> <b_mmod_Minimization_Converged-OPLS-2005>
0

> <r_mmod_RMS_Derivative-OPLS-2005>
0.81366491317749

$$$$
96
                    3D
 Structure written by MMmdl.
160168  0  0  1  0            999 V2000
  -30.6716  -14.5371   20.5001 C   0  0  0  0  0  0
  -30.4202  -12.3258   19.4484 C   0  0  0  0  0  0
  -29.5012  -12.4960   18.2198 C   0  0  0  0  0  0
  -28.0213  -12.3556   18.6279 C   0  0  0  0  0  0
  -27.6557  -13.2146   19.8684 C   0  0  2  0  0  0
  -28.6957  -13.0440   20.9991 C   0  0  0  0  0  0
  -25.2566  -13.8174   20.5690 C   0  0  0  0  0  0
  -24.1829  -13.0445   20.9195 C   0  0  0  0  0  0
  -24.6388  -11.6916   20.8739 C   0  0  0  0  0  0
  -23.9058  -10.4300   21.0406 C   0  0  0  0  0  0
  -24.3614   -9.4214   21.9182 C   0  0  0  0  0  0
  -23.6294   -8.2246   22.0751 C   0  0  0  0  0  0
  -22.4277   -8.0281   21.3542 C   0  0  0  0  0  0
  -21.9910   -9.0253   20.4642 C   0  0  0  0  0  0
  -22.7232  -10.2137   20.3052 C   0  0  0  0  0  0
  -21.6853   -6.0741   22.5283 C   0  0  0  0  0  0
  -21.4011   -6.5647   23.8218 C   0  0  0  0  0  0
  -21.3657   -5.6795   24.9176 C   0  0  0  0  0  0
  -21.6044   -4.3060   24.7226 C   0  0  0  0  0  0
  -21.8817   -3.8154   23.4346 C   0  0  0  0  0  0
  -21.9195   -4.6969   22.3403 C   0  0  0  0  0  0
  -22.7852  -13.5240   21.1865 C   0  0  0  0  0  0
  -22.1665   -4.2160   21.0979 F   0  0  0  0  0  0
  -21.5629   -3.4539   25.7736 F   0  0  0  0  0  0
  -30.0229  -13.3398   20.4412 N   0  0  0  0  0  0
  -26.2992  -12.9355   20.3332 N   0  0  0  0  0  0
  -25.9315  -11.6510   20.5758 N   0  0  0  0  0  0
  -22.0486  -12.8228   22.0407 N   0  0  0  0  0  0
  -25.4292  -15.1887   20.4120 N   0  0  0  0  0  0
  -31.8386  -14.6653   20.1188 O   0  0  0  0  0  0
  -21.6638   -6.8880   21.4243 O   0  0  0  0  0  0
  -22.3545  -14.5557   20.6725 O   0  0  0  0  0  0
  -24.6188  -31.8646   23.2056 C   0  0  0  0  0  0
  -25.9064  -32.4801   23.8369 C   0  0  1  0  0  0
  -27.2340  -27.3906   20.0986 C   0  0  0  0  0  0
  -25.5914  -33.8600   24.2301 N   0  0  0  0  0  0
  -23.4081  -30.4878   21.5470 C   0  0  2  0  0  0
  -24.8533  -28.9469   20.1123 C   0  0  0  0  0  0
  -22.7425  -29.4650   22.4967 C   0  0  0  0  0  0
  -18.0274  -28.1385   22.8491 C   0  0  0  0  0  0
  -24.1488  -36.7297   23.2640 C   0  0  0  0  0  0
  -25.9404  -30.8175   21.3631 C   0  0  0  0  0  0
  -26.0154  -29.4478   20.7102 C   0  0  0  0  0  0
  -27.2039  -28.6761   20.7013 C   0  0  0  0  0  0
  -26.0451  -26.9105   19.5013 C   0  0  0  0  0  0
  -24.8652  -27.6795   19.5063 C   0  0  0  0  0  0
  -23.6176  -29.8183   20.1623 C   0  0  0  0  0  0
  -25.4112  -36.3096   24.0335 C   0  0  1  0  0  0
  -20.5871  -28.3670   23.1315 C   0  0  2  0  0  0
  -20.6772  -26.9406   22.5416 C   0  0  0  0  0  0
  -19.5747  -26.6393   21.5216 C   0  0  0  0  0  0
  -18.1922  -26.7933   22.1624 C   0  0  0  0  0  0
  -19.1526  -28.8843   23.2900 C   0  0  0  0  0  0
  -18.9450  -30.1455   23.8904 C   0  0  0  0  0  0
  -17.6449  -30.6588   24.0568 C   0  0  0  0  0  0
  -25.9045  -34.9466   23.5114 C   0  0  0  0  0  0
  -16.5343  -29.9090   23.6331 C   0  0  0  0  0  0
  -16.7263  -28.6513   23.0346 C   0  0  0  0  0  0
  -26.4480  -31.6592   25.0713 C   0  0  0  0  0  0
  -25.3733  -31.3709   26.1449 C   0  0  0  0  0  0
  -27.0313  -30.3032   24.6106 C   0  0  0  0  0  0
  -27.6061  -32.4306   25.7474 C   0  0  0  0  0  0
  -27.5577  -37.1807   24.8469 C   0  0  0  0  0  0
  -21.4148  -29.3036   22.3711 N   0  0  0  0  0  0
  -26.4297  -37.3781   23.9406 N   0  0  0  0  0  0
  -24.6745  -31.0719   22.0966 N   0  0  0  0  0  0
  -23.4181  -28.8206   23.3030 O   0  0  0  0  0  0
  -28.4111  -26.6530   20.1390 O   0  0  0  0  0  0
  -26.5597  -34.8922   22.4670 O   0  0  0  0  0  0
  -23.5371  -32.1412   23.7429 O   0  0  0  0  0  0
  -29.6125  -18.1146   20.9673 C   0  0  0  0  0  0
  -30.2655  -19.5466   19.1072 C   0  0  0  0  0  0
  -30.5483  -17.1307   18.9453 C   0  0  0  0  0  0
  -29.7321  -19.4294   20.4066 C   0  0  0  0  0  0
  -30.0430  -16.9519   20.2569 C   0  0  0  0  0  0
  -30.6569  -18.4122   18.3779 C   0  0  0  0  0  0
  -28.3327  -24.1168   20.3007 C   0  0  0  0  0  0
  -29.0213  -20.5160   22.6361 C   0  0  0  0  0  0
  -28.5450  -25.3934   19.4264 C   0  0  0  0  0  0
  -29.3911  -20.7410   21.1625 C   0  0  2  0  0  0
  -28.6698  -22.7052   19.6835 C   0  0  2  0  0  0
  -27.9822  -22.5496   18.2988 C   0  0  0  0  0  0
  -29.9195  -15.6231   20.8211 N   0  0  0  0  0  0
  -28.3068  -21.5461   20.5727 N   0  0  0  0  0  0
  -27.9160  -24.2270   21.4602 O   0  0  0  0  0  0
  -31.1512  -18.5552   17.1250 F   0  0  0  0  0  0
  -28.1154  -21.3056   17.8377 F   0  0  0  0  0  0
  -28.5331  -23.3683   17.4029 F   0  0  0  0  0  0
  -26.6797  -22.8295   18.3810 F   0  0  0  0  0  0
  -31.4672  -12.4153   19.1530 H   0  0  0  0  0  0
  -30.3152  -11.3257   19.8713 H   0  0  0  0  0  0
  -29.7506  -11.7571   17.4570 H   0  0  0  0  0  0
  -29.6684  -13.4732   17.7638 H   0  0  0  0  0  0
  -27.8377  -11.3023   18.8423 H   0  0  0  0  0  0
  -27.3730  -12.6094   17.7889 H   0  0  0  0  0  0
  -27.6855  -14.2549   19.5440 H   0  0  0  0  0  0
  -28.6763  -12.0240   21.3866 H   0  0  0  0  0  0
  -28.4594  -13.6897   21.8461 H   0  0  0  0  0  0
  -25.2758   -9.5700   22.4758 H   0  0  0  0  0  0
  -24.0017   -7.4634   22.7465 H   0  0  0  0  0  0
  -21.0846   -8.8759   19.8941 H   0  0  0  0  0  0
  -22.3684  -10.9672   19.6161 H   0  0  0  0  0  0
  -21.1996   -7.6153   23.9723 H   0  0  0  0  0  0
  -21.1483   -6.0524   25.9081 H   0  0  0  0  0  0
  -22.0596   -2.7617   23.2839 H   0  0  0  0  0  0
  -22.4097  -11.9886   22.4794 H   0  0  0  0  0  0
  -21.1095  -13.1247   22.2597 H   0  0  0  0  0  0
  -24.6633  -15.8448   20.5200 H   0  0  0  0  0  0
  -26.2832  -15.6275   20.0907 H   0  0  0  0  0  0
  -26.7137  -32.5490   23.1130 H   0  0  0  0  0  0
  -25.0100  -33.9763   25.0472 H   0  0  0  0  0  0
  -22.6992  -31.3065   21.4073 H   0  0  0  0  0  0
  -23.3747  -35.9633   23.3316 H   0  0  0  0  0  0
  -24.3587  -36.8888   22.2051 H   0  0  0  0  0  0
  -23.7240  -37.6510   23.6639 H   0  0  0  0  0  0
  -26.0580  -31.5823   20.5934 H   0  0  0  0  0  0
  -26.8264  -30.8696   21.9846 H   0  0  0  0  0  0
  -28.0999  -29.0612   21.1686 H   0  0  0  0  0  0
  -25.9910  -25.9352   19.0430 H   0  0  0  0  0  0
  -23.9680  -27.2847   19.0497 H   0  0  0  0  0  0
  -23.7291  -30.5915   19.4014 H   0  0  0  0  0  0
  -22.7396  -29.2411   19.8669 H   0  0  0  0  0  0
  -25.1294  -36.1958   25.0830 H   0  0  0  0  0  0
  -20.9969  -28.3227   24.1433 H   0  0  0  0  0  0
  -20.5684  -26.2271   23.3597 H   0  0  0  0  0  0
  -21.6643  -26.7461   22.1203 H   0  0  0  0  0  0
  -19.6905  -25.6305   21.1240 H   0  0  0  0  0  0
  -19.6693  -27.3215   20.6753 H   0  0  0  0  0  0
  -17.4204  -26.6687   21.4015 H   0  0  0  0  0  0
  -18.0318  -26.0075   22.9019 H   0  0  0  0  0  0
  -19.7925  -30.7276   24.2267 H   0  0  0  0  0  0
  -17.5006  -31.6266   24.5175 H   0  0  0  0  0  0
  -15.5342  -30.2991   23.7656 H   0  0  0  0  0  0
  -15.8665  -28.0842   22.7043 H   0  0  0  0  0  0
  -24.5914  -30.7050   25.7783 H   0  0  0  0  0  0
  -24.8917  -32.2866   26.4885 H   0  0  0  0  0  0
  -25.8072  -30.8886   27.0215 H   0  0  0  0  0  0
  -26.2865  -29.6787   24.1158 H   0  0  0  0  0  0
  -27.4082  -29.7274   25.4570 H   0  0  0  0  0  0
  -27.8699  -30.4355   23.9264 H   0  0  0  0  0  0
  -27.2706  -33.3614   26.2056 H   0  0  0  0  0  0
  -28.3864  -32.6837   25.0287 H   0  0  0  0  0  0
  -28.0731  -31.8419   26.5379 H   0  0  0  0  0  0
  -28.2611  -38.0090   24.7498 H   0  0  0  0  0  0
  -28.1055  -36.2618   24.6316 H   0  0  0  0  0  0
  -27.2297  -37.1480   25.8876 H   0  0  0  0  0  0
  -20.9305  -29.8739   21.6920 H   0  0  0  0  0  0
  -26.0178  -38.2862   24.1392 H   0  0  0  0  0  0
  -29.2151  -17.9901   21.9636 H   0  0  0  0  0  0
  -30.3880  -20.5200   18.6585 H   0  0  0  0  0  0
  -30.8595  -16.2875   18.3467 H   0  0  0  0  0  0
  -29.8235  -19.9996   23.1655 H   0  0  0  0  0  0
  -28.1126  -19.9227   22.7449 H   0  0  0  0  0  0
  -28.8620  -21.4629   23.1542 H   0  0  0  0  0  0
  -27.9073  -25.3674   18.5456 H   0  0  0  0  0  0
  -29.5663  -25.3514   19.0485 H   0  0  0  0  0  0
  -30.3042  -21.3405   21.1720 H   0  0  0  0  0  0
  -29.7443  -22.6720   19.5036 H   0  0  0  0  0  0
  -29.0672  -15.4306   21.3264 H   0  0  0  0  0  0
  -27.6571  -21.8523   21.2889 H   0  0  0  0  0  0
  1 25  1  0  0  0
  1 30  2  0  0  0
  1 83  1  0  0  0
  2  3  1  0  0  0
  2 25  1  0  0  0
  2 90  1  0  0  0
  2 91  1  0  0  0
  3  4  1  0  0  0
  3 92  1  0  0  0
  3 93  1  0  0  0
  4  5  1  0  0  0
  4 94  1  0  0  0
  4 95  1  0  0  0
  5  6  1  0  0  0
  5 26  1  0  0  0
  5 96  1  0  0  0
  6 25  1  0  0  0
  6 97  1  0  0  0
  6 98  1  0  0  0
  7  8  2  0  0  0
  7 26  1  0  0  0
  7 29  1  0  0  0
  8  9  1  0  0  0
  8 22  1  0  0  0
  9 10  1  0  0  0
  9 27  2  0  0  0
 10 11  2  0  0  0
 10 15  1  0  0  0
 11 12  1  0  0  0
 11 99  1  0  0  0
 12 13  2  0  0  0
 12100  1  0  0  0
 13 14  1  0  0  0
 13 31  1  0  0  0
 14 15  2  0  0  0
 14101  1  0  0  0
 15102  1  0  0  0
 16 17  2  0  0  0
 16 21  1  0  0  0
 16 31  1  0  0  0
 17 18  1  0  0  0
 17103  1  0  0  0
 18 19  2  0  0  0
 18104  1  0  0  0
 19 20  1  0  0  0
 19 24  1  0  0  0
 20 21  2  0  0  0
 20105  1  0  0  0
 21 23  1  0  0  0
 22 28  1  0  0  0
 22 32  2  0  0  0
 26 27  1  0  0  0
 28106  1  0  0  0
 28107  1  0  0  0
 29108  1  0  0  0
 29109  1  0  0  0
 33 34  1  0  0  0
 33 66  1  0  0  0
 33 70  2  0  0  0
 34 36  1  0  0  0
 34 59  1  0  0  0
 34110  1  0  0  0
 35 44  2  0  0  0
 35 45  1  0  0  0
 35 68  1  0  0  0
 36 56  1  0  0  0
 36111  1  0  0  0
 37 39  1  0  0  0
 37 47  1  0  0  0
 37 66  1  0  0  0
 37112  1  0  0  0
 38 43  2  0  0  0
 38 46  1  0  0  0
 38 47  1  0  0  0
 39 64  1  0  0  0
 39 67  2  0  0  0
 40 52  1  0  0  0
 40 53  2  0  0  0
 40 58  1  0  0  0
 41113  1  0  0  0
 41114  1  0  0  0
 41115  1  0  0  0
 41 48  1  0  0  0
 42 43  1  0  0  0
 42 66  1  0  0  0
 42116  1  0  0  0
 42117  1  0  0  0
 43 44  1  0  0  0
 44118  1  0  0  0
 45 46  2  0  0  0
 45119  1  0  0  0
 46120  1  0  0  0
 47121  1  0  0  0
 47122  1  0  0  0
 48 56  1  0  0  0
 48 65  1  0  0  0
 48123  1  0  0  0
 49 50  1  0  0  0
 49 53  1  0  0  0
 49 64  1  0  0  0
 49124  1  0  0  0
 50 51  1  0  0  0
 50125  1  0  0  0
 50126  1  0  0  0
 51 52  1  0  0  0
 51127  1  0  0  0
 51128  1  0  0  0
 52129  1  0  0  0
 52130  1  0  0  0
 53 54  1  0  0  0
 54 55  2  0  0  0
 54131  1  0  0  0
 55 57  1  0  0  0
 55132  1  0  0  0
 56 69  2  0  0  0
 57 58  2  0  0  0
 57133  1  0  0  0
 58134  1  0  0  0
 59 60  1  0  0  0
 59 61  1  0  0  0
 59 62  1  0  0  0
 60135  1  0  0  0
 60136  1  0  0  0
 60137  1  0  0  0
 61138  1  0  0  0
 61139  1  0  0  0
 61140  1  0  0  0
 62141  1  0  0  0
 62142  1  0  0  0
 62143  1  0  0  0
 63 65  1  0  0  0
 63144  1  0  0  0
 63145  1  0  0  0
 63146  1  0  0  0
 64147  1  0  0  0
 65148  1  0  0  0
 68 79  1  0  0  0
 71 74  2  0  0  0
 71 75  1  0  0  0
 71149  1  0  0  0
 72 74  1  0  0  0
 72 76  2  0  0  0
 72150  1  0  0  0
 73 75  2  0  0  0
 73 76  1  0  0  0
 73151  1  0  0  0
 74 80  1  0  0  0
 75 83  1  0  0  0
 76 86  1  0  0  0
 77 79  1  0  0  0
 77 81  1  0  0  0
 77 85  2  0  0  0
 78152  1  0  0  0
 78153  1  0  0  0
 78154  1  0  0  0
 78 80  1  0  0  0
 79155  1  0  0  0
 79156  1  0  0  0
 80 84  1  0  0  0
 80157  1  0  0  0
 81 82  1  0  0  0
 81 84  1  0  0  0
 81158  1  0  0  0
 82 87  1  0  0  0
 82 88  1  0  0  0
 82 89  1  0  0  0
 83159  1  0  0  0
 84160  1  0  0  0
M  ISO  4   1 100  68 101  79 101  83 100
M  END
> <chiral flag>
0

> <version>
0

> <s_m_source_file>
/data/baiqing/PycharmProjects/Reinvent-master-3.2/result/LINK_invent/BTK/process_docking_weight1_custom_product_contain_oxygen_bond_distance_aromatic_linkinvent_7_9_3/rearranged_h_0173.sdf

> <i_m_source_file_index>
97

> <r_mmod_Potential_Energy-OPLS-2005>
1.67617177963257

> <r_mmod_Stretch_Energy-OPLS-2005>
56.0731086730957

> <r_mmod_Bend_Energy-OPLS-2005>
118.146530151367

> <r_mmod_Torsional_Energy-OPLS-2005>
235.213668823242

> <r_mmod_Improper_Torsional_Energy-OPLS-2005>
5.00160360336304

> <r_mmod_Van_der_Waal_Energy-OPLS-2005>
153.168685913086

> <r_mmod_Electrostatic_Energy-OPLS-2005>
-372.314331054688

> <r_mmod_Solvation_Energy-OPLS-2005>
-216.801467895508

> <b_mmod_Minimization_Converged-OPLS-2005>
0

> <r_mmod_RMS_Derivative-OPLS-2005>
1.08090817928314

$$$$
97
                    3D
 Structure written by MMmdl.
154162  0  0  1  0            999 V2000
  -30.6839  -14.5632   20.4566 C   0  0  0  0  0  0
  -30.4045  -12.3271   19.4627 C   0  0  0  0  0  0
  -29.4965  -12.4808   18.2257 C   0  0  0  0  0  0
  -28.0126  -12.3514   18.6265 C   0  0  0  0  0  0
  -27.6417  -13.2228   19.8573 C   0  0  2  0  0  0
  -28.6832  -13.0935   20.9904 C   0  0  0  0  0  0
  -25.2478  -13.8187   20.5680 C   0  0  0  0  0  0
  -24.1745  -13.0466   20.9225 C   0  0  0  0  0  0
  -24.6297  -11.6933   20.8746 C   0  0  0  0  0  0
  -23.8971  -10.4320   21.0414 C   0  0  0  0  0  0
  -24.3543   -9.4245   21.9185 C   0  0  0  0  0  0
  -23.6267   -8.2239   22.0716 C   0  0  0  0  0  0
  -22.4245   -8.0251   21.3518 C   0  0  0  0  0  0
  -21.9871   -9.0228   20.4626 C   0  0  0  0  0  0
  -22.7153  -10.2134   20.3065 C   0  0  0  0  0  0
  -21.6842   -6.0722   22.5291 C   0  0  0  0  0  0
  -21.4000   -6.5625   23.8220 C   0  0  0  0  0  0
  -21.3686   -5.6771   24.9179 C   0  0  0  0  0  0
  -21.6056   -4.3043   24.7229 C   0  0  0  0  0  0
  -21.8821   -3.8134   23.4348 C   0  0  0  0  0  0
  -21.9188   -4.6949   22.3407 C   0  0  0  0  0  0
  -22.7772  -13.5279   21.1919 C   0  0  0  0  0  0
  -22.1649   -4.2150   21.0973 F   0  0  0  0  0  0
  -21.5655   -3.4527   25.7752 F   0  0  0  0  0  0
  -30.0051  -13.3786   20.4167 N   0  0  0  0  0  0
  -26.2890  -12.9379   20.3278 N   0  0  0  0  0  0
  -25.9226  -11.6535   20.5733 N   0  0  0  0  0  0
  -22.0382  -12.8266   22.0455 N   0  0  0  0  0  0
  -25.4263  -15.1887   20.4014 N   0  0  0  0  0  0
  -31.8968  -14.5833   20.2454 O   0  0  0  0  0  0
  -21.6616   -6.8848   21.4239 O   0  0  0  0  0  0
  -22.3472  -14.5613   20.6803 O   0  0  0  0  0  0
  -24.6223  -31.8581   23.2081 C   0  0  0  0  0  0
  -25.9080  -32.4773   23.8375 C   0  0  1  0  0  0
  -27.2357  -27.3622   20.0862 C   0  0  0  0  0  0
  -25.5907  -33.8573   24.2301 N   0  0  0  0  0  0
  -23.4153  -30.4853   21.5469 C   0  0  2  0  0  0
  -24.8626  -28.9523   20.1065 C   0  0  0  0  0  0
  -22.7459  -29.4604   22.4921 C   0  0  0  0  0  0
  -18.0269  -28.1369   22.8507 C   0  0  0  0  0  0
  -24.1483  -36.7297   23.2645 C   0  0  0  0  0  0
  -25.9556  -30.8024   21.3749 C   0  0  0  0  0  0
  -26.0290  -29.4380   20.7064 C   0  0  0  0  0  0
  -27.2164  -28.6532   20.6909 C   0  0  0  0  0  0
  -26.0247  -26.8997   19.5187 C   0  0  0  0  0  0
  -24.8582  -27.6837   19.5088 C   0  0  0  0  0  0
  -23.6292  -29.8269   20.1591 C   0  0  0  0  0  0
  -25.4103  -36.3083   24.0345 C   0  0  1  0  0  0
  -20.5886  -28.3655   23.1309 C   0  0  2  0  0  0
  -20.6757  -26.9367   22.5427 C   0  0  0  0  0  0
  -19.5728  -26.6356   21.5226 C   0  0  0  0  0  0
  -18.1910  -26.7918   22.1630 C   0  0  0  0  0  0
  -19.1533  -28.8824   23.2911 C   0  0  0  0  0  0
  -18.9452  -30.1438   23.8909 C   0  0  0  0  0  0
  -17.6461  -30.6587   24.0537 C   0  0  0  0  0  0
  -25.9038  -34.9451   23.5129 C   0  0  0  0  0  0
  -16.5344  -29.9079   23.6330 C   0  0  0  0  0  0
  -16.7265  -28.6486   23.0367 C   0  0  0  0  0  0
  -26.4485  -31.6579   25.0739 C   0  0  0  0  0  0
  -25.3746  -31.3703   26.1488 C   0  0  0  0  0  0
  -27.0300  -30.3003   24.6160 C   0  0  0  0  0  0
  -27.6047  -32.4311   25.7492 C   0  0  0  0  0  0
  -27.5590  -37.1793   24.8454 C   0  0  0  0  0  0
  -21.4164  -29.3020   22.3705 N   0  0  0  0  0  0
  -26.4274  -37.3788   23.9435 N   0  0  0  0  0  0
  -24.6826  -31.0645   22.0999 N   0  0  0  0  0  0
  -23.4217  -28.8091   23.2940 O   0  0  0  0  0  0
  -28.3589  -26.5380   20.2087 O   0  0  0  0  0  0
  -26.5613  -34.8906   22.4697 O   0  0  0  0  0  0
  -23.5398  -32.1333   23.7453 O   0  0  0  0  0  0
  -31.6885  -18.4131   18.5396 C   0  0  0  0  0  0
  -30.9574  -19.5425   18.9176 C   0  0  0  0  0  0
  -31.3377  -17.1708   19.0742 C   0  0  0  0  0  0
  -29.8760  -19.4197   19.8131 C   0  0  0  0  0  0
  -30.2740  -17.0427   19.9984 C   0  0  0  0  0  0
  -29.2855  -24.2726   19.8485 C   0  0  0  0  0  0
  -28.7274  -23.0174   19.8603 C   0  0  0  0  0  0
  -29.5696  -21.8735   20.3100 C   0  0  0  0  0  0
  -27.2998  -22.7249   19.4103 C   0  0  0  0  0  0
  -28.7940  -25.6251   19.2594 C   0  0  0  0  0  0
  -29.5482  -18.1759   20.3183 N   0  0  0  0  0  0
  -29.0985  -20.6246   20.0163 N   0  0  0  0  0  0
  -29.9421  -15.7153   20.5119 N   0  0  0  0  0  0
  -30.6294  -22.0186   20.9233 O   0  0  0  0  0  0
  -27.8952  -25.3990   18.2722 F   0  0  0  0  0  0
  -29.8532  -26.1860   18.6290 F   0  0  0  0  0  0
  -31.4571  -12.3958   19.1748 H   0  0  0  0  0  0
  -30.2777  -11.3386   19.9092 H   0  0  0  0  0  0
  -29.7473  -11.7342   17.4700 H   0  0  0  0  0  0
  -29.6659  -13.4540   17.7642 H   0  0  0  0  0  0
  -27.8145  -11.2991   18.8389 H   0  0  0  0  0  0
  -27.3760  -12.6156   17.7829 H   0  0  0  0  0  0
  -27.6593  -14.2568   19.5113 H   0  0  0  0  0  0
  -28.6662  -12.0854   21.4098 H   0  0  0  0  0  0
  -28.4481  -13.7682   21.8175 H   0  0  0  0  0  0
  -25.2663   -9.5775   22.4780 H   0  0  0  0  0  0
  -24.0018   -7.4633   22.7391 H   0  0  0  0  0  0
  -21.0824   -8.8733   19.8920 H   0  0  0  0  0  0
  -22.3575  -10.9676   19.6199 H   0  0  0  0  0  0
  -21.1955   -7.6131   23.9728 H   0  0  0  0  0  0
  -21.1526   -6.0486   25.9087 H   0  0  0  0  0  0
  -22.0581   -2.7600   23.2829 H   0  0  0  0  0  0
  -22.3900  -11.9912   22.4905 H   0  0  0  0  0  0
  -21.1011  -13.1379   22.2655 H   0  0  0  0  0  0
  -24.6671  -15.8551   20.4940 H   0  0  0  0  0  0
  -26.2801  -15.6153   20.0648 H   0  0  0  0  0  0
  -26.7137  -32.5435   23.1106 H   0  0  0  0  0  0
  -25.0023  -33.9706   25.0427 H   0  0  0  0  0  0
  -22.7064  -31.3056   21.4090 H   0  0  0  0  0  0
  -23.3759  -35.9611   23.3259 H   0  0  0  0  0  0
  -24.3586  -36.8957   22.2068 H   0  0  0  0  0  0
  -23.7208  -37.6478   23.6680 H   0  0  0  0  0  0
  -26.0970  -31.5752   20.6183 H   0  0  0  0  0  0
  -26.8344  -30.8405   22.0085 H   0  0  0  0  0  0
  -28.1088  -29.0179   21.1797 H   0  0  0  0  0  0
  -25.9283  -25.9023   19.1208 H   0  0  0  0  0  0
  -23.9557  -27.2861   19.0668 H   0  0  0  0  0  0
  -23.7520  -30.6066   19.4065 H   0  0  0  0  0  0
  -22.7524  -29.2555   19.8520 H   0  0  0  0  0  0
  -25.1272  -36.1936   25.0838 H   0  0  0  0  0  0
  -21.0000  -28.3211   24.1424 H   0  0  0  0  0  0
  -20.5639  -26.2239   23.3613 H   0  0  0  0  0  0
  -21.6619  -26.7370   22.1223 H   0  0  0  0  0  0
  -19.6861  -25.6260   21.1252 H   0  0  0  0  0  0
  -19.6687  -27.3171   20.6760 H   0  0  0  0  0  0
  -17.4176  -26.6696   21.4021 H   0  0  0  0  0  0
  -18.0280  -26.0049   22.9012 H   0  0  0  0  0  0
  -19.7925  -30.7247   24.2297 H   0  0  0  0  0  0
  -17.5006  -31.6286   24.5091 H   0  0  0  0  0  0
  -15.5342  -30.2975   23.7658 H   0  0  0  0  0  0
  -15.8661  -28.0801   22.7105 H   0  0  0  0  0  0
  -24.5923  -30.7034   25.7846 H   0  0  0  0  0  0
  -24.8929  -32.2853   26.4936 H   0  0  0  0  0  0
  -25.8111  -30.8878   27.0239 H   0  0  0  0  0  0
  -26.2841  -29.6779   24.1198 H   0  0  0  0  0  0
  -27.4013  -29.7240   25.4642 H   0  0  0  0  0  0
  -27.8714  -30.4284   23.9352 H   0  0  0  0  0  0
  -27.2654  -33.3606   26.2059 H   0  0  0  0  0  0
  -28.3848  -32.6865   25.0321 H   0  0  0  0  0  0
  -28.0703  -31.8434   26.5401 H   0  0  0  0  0  0
  -28.2566  -38.0131   24.7564 H   0  0  0  0  0  0
  -28.1119  -36.2672   24.6169 H   0  0  0  0  0  0
  -27.2321  -37.1329   25.8855 H   0  0  0  0  0  0
  -20.9310  -29.8797   21.6989 H   0  0  0  0  0  0
  -26.0155  -38.2847   24.1483 H   0  0  0  0  0  0
  -32.5040  -18.4882   17.8317 H   0  0  0  0  0  0
  -31.2201  -20.4967   18.4821 H   0  0  0  0  0  0
  -31.9185  -16.3293   18.7308 H   0  0  0  0  0  0
  -30.2857  -24.3745   20.2464 H   0  0  0  0  0  0
  -26.7231  -23.6293   19.2314 H   0  0  0  0  0  0
  -26.7633  -22.1802   20.1861 H   0  0  0  0  0  0
  -27.2912  -22.1265   18.4988 H   0  0  0  0  0  0
  -28.1500  -20.5844   19.6779 H   0  0  0  0  0  0
  -28.9920  -15.6032   20.8240 H   0  0  0  0  0  0
  1 25  1  0  0  0
  1 30  2  0  0  0
  1 83  1  0  0  0
  2  3  1  0  0  0
  2 25  1  0  0  0
  2 87  1  0  0  0
  2 88  1  0  0  0
  3  4  1  0  0  0
  3 89  1  0  0  0
  3 90  1  0  0  0
  4  5  1  0  0  0
  4 91  1  0  0  0
  4 92  1  0  0  0
  5  6  1  0  0  0
  5 26  1  0  0  0
  5 93  1  0  0  0
  6 25  1  0  0  0
  6 94  1  0  0  0
  6 95  1  0  0  0
  7  8  2  0  0  0
  7 26  1  0  0  0
  7 29  1  0  0  0
  8  9  1  0  0  0
  8 22  1  0  0  0
  9 10  1  0  0  0
  9 27  2  0  0  0
 10 11  2  0  0  0
 10 15  1  0  0  0
 11 12  1  0  0  0
 11 96  1  0  0  0
 12 13  2  0  0  0
 12 97  1  0  0  0
 13 14  1  0  0  0
 13 31  1  0  0  0
 14 15  2  0  0  0
 14 98  1  0  0  0
 15 99  1  0  0  0
 16 17  2  0  0  0
 16 21  1  0  0  0
 16 31  1  0  0  0
 17 18  1  0  0  0
 17100  1  0  0  0
 18 19  2  0  0  0
 18101  1  0  0  0
 19 20  1  0  0  0
 19 24  1  0  0  0
 20 21  2  0  0  0
 20102  1  0  0  0
 21 23  1  0  0  0
 22 28  1  0  0  0
 22 32  2  0  0  0
 26 27  1  0  0  0
 28103  1  0  0  0
 28104  1  0  0  0
 29105  1  0  0  0
 29106  1  0  0  0
 33 34  1  0  0  0
 33 66  1  0  0  0
 33 70  2  0  0  0
 34 36  1  0  0  0
 34 59  1  0  0  0
 34107  1  0  0  0
 35 44  2  0  0  0
 35 45  1  0  0  0
 35 68  1  0  0  0
 36 56  1  0  0  0
 36108  1  0  0  0
 37 39  1  0  0  0
 37 47  1  0  0  0
 37 66  1  0  0  0
 37109  1  0  0  0
 38 43  2  0  0  0
 38 46  1  0  0  0
 38 47  1  0  0  0
 39 64  1  0  0  0
 39 67  2  0  0  0
 40 52  1  0  0  0
 40 53  2  0  0  0
 40 58  1  0  0  0
 41110  1  0  0  0
 41111  1  0  0  0
 41112  1  0  0  0
 41 48  1  0  0  0
 42 43  1  0  0  0
 42 66  1  0  0  0
 42113  1  0  0  0
 42114  1  0  0  0
 43 44  1  0  0  0
 44115  1  0  0  0
 45 46  2  0  0  0
 45116  1  0  0  0
 46117  1  0  0  0
 47118  1  0  0  0
 47119  1  0  0  0
 48 56  1  0  0  0
 48 65  1  0  0  0
 48120  1  0  0  0
 49 50  1  0  0  0
 49 53  1  0  0  0
 49 64  1  0  0  0
 49121  1  0  0  0
 50 51  1  0  0  0
 50122  1  0  0  0
 50123  1  0  0  0
 51 52  1  0  0  0
 51124  1  0  0  0
 51125  1  0  0  0
 52126  1  0  0  0
 52127  1  0  0  0
 53 54  1  0  0  0
 54 55  2  0  0  0
 54128  1  0  0  0
 55 57  1  0  0  0
 55129  1  0  0  0
 56 69  2  0  0  0
 57 58  2  0  0  0
 57130  1  0  0  0
 58131  1  0  0  0
 59 60  1  0  0  0
 59 61  1  0  0  0
 59 62  1  0  0  0
 60132  1  0  0  0
 60133  1  0  0  0
 60134  1  0  0  0
 61135  1  0  0  0
 61136  1  0  0  0
 61137  1  0  0  0
 62138  1  0  0  0
 62139  1  0  0  0
 62140  1  0  0  0
 63 65  1  0  0  0
 63141  1  0  0  0
 63142  1  0  0  0
 63143  1  0  0  0
 64144  1  0  0  0
 65145  1  0  0  0
 68 80  1  0  0  0
 71 72  2  0  0  0
 71 73  1  0  0  0
 71146  1  0  0  0
 72 74  1  0  0  0
 72147  1  0  0  0
 73 75  2  0  0  0
 73148  1  0  0  0
 74 81  2  0  0  0
 74 82  1  0  0  0
 75 81  1  0  0  0
 75 83  1  0  0  0
 76 77  2  0  0  0
 76 80  1  0  0  0
 76149  1  0  0  0
 77 78  1  0  0  0
 77 79  1  0  0  0
 78 82  1  0  0  0
 78 84  2  0  0  0
 79150  1  0  0  0
 79151  1  0  0  0
 79152  1  0  0  0
 80 85  1  0  0  0
 80 86  1  0  0  0
 82153  1  0  0  0
 83154  1  0  0  0
M  ISO  4   1 100  68 101  80 101  83 100
M  END
> <chiral flag>
0

> <version>
0

> <s_m_source_file>
/data/baiqing/PycharmProjects/Reinvent-master-3.2/result/LINK_invent/BTK/process_docking_weight1_custom_product_contain_oxygen_bond_distance_aromatic_linkinvent_7_9_3/rearranged_h_0173.sdf

> <i_m_source_file_index>
98

> <r_mmod_Potential_Energy-OPLS-2005>
-142.603759765625

> <r_mmod_Stretch_Energy-OPLS-2005>
67.4299774169922

> <r_mmod_Bend_Energy-OPLS-2005>
136.040573120117

> <r_mmod_Torsional_Energy-OPLS-2005>
269.9912109375

> <r_mmod_Improper_Torsional_Energy-OPLS-2005>
8.1669807434082

> <r_mmod_Van_der_Waal_Energy-OPLS-2005>
175.904586791992

> <r_mmod_Electrostatic_Energy-OPLS-2005>
-617.983764648438

> <r_mmod_Solvation_Energy-OPLS-2005>
-224.532669067383

> <b_mmod_Minimization_Converged-OPLS-2005>
0

> <r_mmod_RMS_Derivative-OPLS-2005>
4.30030870437622

$$$$
