0
                    3D
 Structure written by MMmdl.
161169  0  0  1  0            999 V2000
  -30.7189  -14.4631   20.6341 C   0  0  0  0  0  0
  -30.4275  -12.3237   19.4242 C   0  0  0  0  0  0
  -29.5015  -12.5319   18.2099 C   0  0  0  0  0  0
  -28.0217  -12.3757   18.6138 C   0  0  0  0  0  0
  -27.6612  -13.2058   19.8749 C   0  0  2  0  0  0
  -28.6994  -12.9828   20.9965 C   0  0  0  0  0  0
  -25.2578  -13.8150   20.5668 C   0  0  0  0  0  0
  -24.1821  -13.0434   20.9167 C   0  0  0  0  0  0
  -24.6370  -11.6902   20.8708 C   0  0  0  0  0  0
  -23.9026  -10.4292   21.0373 C   0  0  0  0  0  0
  -24.3584   -9.4217   21.9151 C   0  0  0  0  0  0
  -23.6281   -8.2238   22.0732 C   0  0  0  0  0  0
  -22.4262   -8.0257   21.3533 C   0  0  0  0  0  0
  -21.9886   -9.0219   20.4629 C   0  0  0  0  0  0
  -22.7195  -10.2113   20.3034 C   0  0  0  0  0  0
  -21.6857   -6.0714   22.5269 C   0  0  0  0  0  0
  -21.4017   -6.5623   23.8202 C   0  0  0  0  0  0
  -21.3669   -5.6782   24.9167 C   0  0  0  0  0  0
  -21.6046   -4.3044   24.7220 C   0  0  0  0  0  0
  -21.8818   -3.8131   23.4343 C   0  0  0  0  0  0
  -21.9195   -4.6939   22.3399 C   0  0  0  0  0  0
  -22.7841  -13.5229   21.1833 C   0  0  0  0  0  0
  -22.1662   -4.2129   21.0973 F   0  0  0  0  0  0
  -21.5634   -3.4524   25.7732 F   0  0  0  0  0  0
  -30.0352  -13.2973   20.4561 N   0  0  0  0  0  0
  -26.3011  -12.9310   20.3335 N   0  0  0  0  0  0
  -25.9300  -11.6470   20.5729 N   0  0  0  0  0  0
  -22.0474  -12.8247   22.0394 N   0  0  0  0  0  0
  -25.4317  -15.1872   20.4088 N   0  0  0  0  0  0
  -31.8406  -14.6607   20.1555 O   0  0  0  0  0  0
  -21.6639   -6.8848   21.4235 O   0  0  0  0  0  0
  -22.3541  -14.5529   20.6666 O   0  0  0  0  0  0
  -24.6179  -31.8663   23.2121 C   0  0  0  0  0  0
  -25.9085  -32.4818   23.8391 C   0  0  1  0  0  0
  -27.2370  -27.4181   20.0966 C   0  0  0  0  0  0
  -25.5939  -33.8610   24.2330 N   0  0  0  0  0  0
  -23.4057  -30.4928   21.5508 C   0  0  2  0  0  0
  -24.8483  -28.9528   20.1187 C   0  0  0  0  0  0
  -22.7413  -29.4668   22.4973 C   0  0  0  0  0  0
  -18.0277  -28.1392   22.8493 C   0  0  0  0  0  0
  -24.1478  -36.7295   23.2643 C   0  0  0  0  0  0
  -25.9369  -30.8253   21.3694 C   0  0  0  0  0  0
  -26.0092  -29.4599   20.7139 C   0  0  0  0  0  0
  -27.1998  -28.6975   20.7026 C   0  0  0  0  0  0
  -26.0446  -26.9186   19.5175 C   0  0  0  0  0  0
  -24.8595  -27.6811   19.5235 C   0  0  0  0  0  0
  -23.6170  -29.8290   20.1635 C   0  0  0  0  0  0
  -25.4106  -36.3094   24.0336 C   0  0  1  0  0  0
  -20.5869  -28.3684   23.1312 C   0  0  2  0  0  0
  -20.6778  -26.9422   22.5420 C   0  0  0  0  0  0
  -19.5756  -26.6396   21.5215 C   0  0  0  0  0  0
  -18.1928  -26.7945   22.1615 C   0  0  0  0  0  0
  -19.1527  -28.8851   23.2902 C   0  0  0  0  0  0
  -18.9457  -30.1460   23.8912 C   0  0  0  0  0  0
  -17.6461  -30.6597   24.0566 C   0  0  0  0  0  0
  -25.9036  -34.9471   23.5120 C   0  0  0  0  0  0
  -16.5349  -29.9101   23.6334 C   0  0  0  0  0  0
  -16.7269  -28.6515   23.0358 C   0  0  0  0  0  0
  -26.4523  -31.6619   25.0735 C   0  0  0  0  0  0
  -25.3812  -31.3731   26.1508 C   0  0  0  0  0  0
  -27.0393  -30.3061   24.6155 C   0  0  0  0  0  0
  -27.6069  -32.4388   25.7497 C   0  0  0  0  0  0
  -27.5581  -37.1805   24.8466 C   0  0  0  0  0  0
  -21.4147  -29.3036   22.3702 N   0  0  0  0  0  0
  -26.4290  -37.3786   23.9414 N   0  0  0  0  0  0
  -24.6715  -31.0766   22.1018 N   0  0  0  0  0  0
  -23.4179  -28.8212   23.3036 O   0  0  0  0  0  0
  -28.4356  -26.7238   20.1184 O   0  0  0  0  0  0
  -26.5568  -34.8931   22.4663 O   0  0  0  0  0  0
  -23.5378  -32.1415   23.7534 O   0  0  0  0  0  0
  -29.8185  -17.8619   20.8272 C   0  0  0  0  0  0
  -31.2248  -19.4768   21.9888 C   0  0  0  0  0  0
  -31.5022  -17.0763   22.4036 C   0  0  0  0  0  0
  -30.2064  -19.2110   21.0455 C   0  0  0  0  0  0
  -30.4673  -16.7875   21.4848 C   0  0  0  0  0  0
  -31.8658  -18.4156   22.6638 C   0  0  0  0  0  0
  -28.8084  -24.2674   20.3562 C   0  0  0  0  0  0
  -29.4997  -22.8380   18.3698 C   0  0  0  0  0  0
  -27.3194  -22.4275   19.5400 C   0  0  0  0  0  0
  -29.5882  -20.3124   20.1683 C   0  0  0  0  0  0
  -28.5944  -25.4783   19.4095 C   0  0  0  0  0  0
  -29.5120  -21.7824   20.7031 C   0  0  0  0  0  0
  -28.7979  -22.8235   19.7509 C   0  0  0  0  0  0
  -30.0359  -15.4424   21.2596 N   0  0  0  0  0  0
  -28.9545  -24.4404   21.5711 O   0  0  0  0  0  0
  -32.8478  -18.6834   23.5566 F   0  0  0  0  0  0
  -31.4700  -12.4380   19.1229 H   0  0  0  0  0  0
  -30.3383  -11.3067   19.8111 H   0  0  0  0  0  0
  -29.7548  -11.8262   17.4179 H   0  0  0  0  0  0
  -29.6648  -13.5285   17.7956 H   0  0  0  0  0  0
  -27.8349  -11.3179   18.7992 H   0  0  0  0  0  0
  -27.3740  -12.6562   17.7842 H   0  0  0  0  0  0
  -27.7049  -14.2553   19.5851 H   0  0  0  0  0  0
  -28.6746  -11.9461   21.3315 H   0  0  0  0  0  0
  -28.4462  -13.5752   21.8764 H   0  0  0  0  0  0
  -25.2719   -9.5708   22.4730 H   0  0  0  0  0  0
  -23.9993   -7.4629   22.7456 H   0  0  0  0  0  0
  -21.0805   -8.8714   19.8948 H   0  0  0  0  0  0
  -22.3611  -10.9634   19.6147 H   0  0  0  0  0  0
  -21.2016   -7.6130   23.9705 H   0  0  0  0  0  0
  -21.1504   -6.0506   25.9071 H   0  0  0  0  0  0
  -22.0602   -2.7591   23.2843 H   0  0  0  0  0  0
  -22.4087  -11.9931   22.4832 H   0  0  0  0  0  0
  -21.1081  -13.1267   22.2542 H   0  0  0  0  0  0
  -24.6657  -15.8447   20.5053 H   0  0  0  0  0  0
  -26.2837  -15.6209   20.0751 H   0  0  0  0  0  0
  -26.7155  -32.5505   23.1145 H   0  0  0  0  0  0
  -25.0195  -33.9769   25.0546 H   0  0  0  0  0  0
  -22.6975  -31.3123   21.4132 H   0  0  0  0  0  0
  -23.3744  -35.9623   23.3312 H   0  0  0  0  0  0
  -24.3577  -36.8897   22.2057 H   0  0  0  0  0  0
  -23.7221  -37.6494   23.6663 H   0  0  0  0  0  0
  -26.0653  -31.5965   20.6087 H   0  0  0  0  0  0
  -26.8174  -30.8672   21.9984 H   0  0  0  0  0  0
  -28.0956  -29.0885   21.1651 H   0  0  0  0  0  0
  -25.9837  -25.9380   19.0737 H   0  0  0  0  0  0
  -23.9601  -27.2768   19.0779 H   0  0  0  0  0  0
  -23.7457  -30.6074   19.4103 H   0  0  0  0  0  0
  -22.7374  -29.2622   19.8534 H   0  0  0  0  0  0
  -25.1294  -36.1944   25.0827 H   0  0  0  0  0  0
  -20.9968  -28.3253   24.1430 H   0  0  0  0  0  0
  -20.5702  -26.2287   23.3603 H   0  0  0  0  0  0
  -21.6649  -26.7497   22.1192 H   0  0  0  0  0  0
  -19.6914  -25.6303   21.1251 H   0  0  0  0  0  0
  -19.6702  -27.3203   20.6739 H   0  0  0  0  0  0
  -17.4216  -26.6723   21.3994 H   0  0  0  0  0  0
  -18.0305  -26.0072   22.8992 H   0  0  0  0  0  0
  -19.7938  -30.7269   24.2275 H   0  0  0  0  0  0
  -17.5027  -31.6274   24.5183 H   0  0  0  0  0  0
  -15.5357  -30.3017   23.7653 H   0  0  0  0  0  0
  -15.8664  -28.0844   22.7075 H   0  0  0  0  0  0
  -24.5925  -30.7152   25.7857 H   0  0  0  0  0  0
  -24.9108  -32.2907   26.5052 H   0  0  0  0  0  0
  -25.8187  -30.8821   27.0211 H   0  0  0  0  0  0
  -26.2949  -29.6755   24.1287 H   0  0  0  0  0  0
  -27.4234  -29.7375   25.4635 H   0  0  0  0  0  0
  -27.8755  -30.4372   23.9281 H   0  0  0  0  0  0
  -27.2627  -33.3639   26.2138 H   0  0  0  0  0  0
  -28.3837  -32.7043   25.0315 H   0  0  0  0  0  0
  -28.0809  -31.8511   26.5368 H   0  0  0  0  0  0
  -28.2605  -38.0099   24.7518 H   0  0  0  0  0  0
  -28.1068  -36.2633   24.6282 H   0  0  0  0  0  0
  -27.2314  -37.1447   25.8874 H   0  0  0  0  0  0
  -20.9311  -29.8737   21.6894 H   0  0  0  0  0  0
  -26.0168  -38.2854   24.1433 H   0  0  0  0  0  0
  -29.0360  -17.6486   20.1122 H   0  0  0  0  0  0
  -31.5494  -20.4882   22.1909 H   0  0  0  0  0  0
  -32.0182  -16.2806   22.9207 H   0  0  0  0  0  0
  -29.0187  -23.5156   17.6625 H   0  0  0  0  0  0
  -29.4690  -21.8619   17.8871 H   0  0  0  0  0  0
  -30.5466  -23.1310   18.4525 H   0  0  0  0  0  0
  -26.7669  -23.1909   18.9888 H   0  0  0  0  0  0
  -26.8063  -22.2859   20.4914 H   0  0  0  0  0  0
  -27.2210  -21.5027   18.9701 H   0  0  0  0  0  0
  -28.5914  -19.9773   19.8858 H   0  0  0  0  0  0
  -30.1787  -20.2985   19.2527 H   0  0  0  0  0  0
  -27.8082  -25.2672   18.6892 H   0  0  0  0  0  0
  -29.5058  -25.5817   18.8211 H   0  0  0  0  0  0
  -30.5248  -22.1376   20.9027 H   0  0  0  0  0  0
  -29.0088  -21.7791   21.6711 H   0  0  0  0  0  0
  -29.0762  -15.2256   21.4807 H   0  0  0  0  0  0
  1 25  1  0  0  0
  1 30  2  0  0  0
  1 84  1  0  0  0
  2  3  1  0  0  0
  2 25  1  0  0  0
  2 87  1  0  0  0
  2 88  1  0  0  0
  3  4  1  0  0  0
  3 89  1  0  0  0
  3 90  1  0  0  0
  4  5  1  0  0  0
  4 91  1  0  0  0
  4 92  1  0  0  0
  5  6  1  0  0  0
  5 26  1  0  0  0
  5 93  1  0  0  0
  6 25  1  0  0  0
  6 94  1  0  0  0
  6 95  1  0  0  0
  7  8  2  0  0  0
  7 26  1  0  0  0
  7 29  1  0  0  0
  8  9  1  0  0  0
  8 22  1  0  0  0
  9 10  1  0  0  0
  9 27  2  0  0  0
 10 11  2  0  0  0
 10 15  1  0  0  0
 11 12  1  0  0  0
 11 96  1  0  0  0
 12 13  2  0  0  0
 12 97  1  0  0  0
 13 14  1  0  0  0
 13 31  1  0  0  0
 14 15  2  0  0  0
 14 98  1  0  0  0
 15 99  1  0  0  0
 16 17  2  0  0  0
 16 21  1  0  0  0
 16 31  1  0  0  0
 17 18  1  0  0  0
 17100  1  0  0  0
 18 19  2  0  0  0
 18101  1  0  0  0
 19 20  1  0  0  0
 19 24  1  0  0  0
 20 21  2  0  0  0
 20102  1  0  0  0
 21 23  1  0  0  0
 22 28  1  0  0  0
 22 32  2  0  0  0
 26 27  1  0  0  0
 28103  1  0  0  0
 28104  1  0  0  0
 29105  1  0  0  0
 29106  1  0  0  0
 33 34  1  0  0  0
 33 66  1  0  0  0
 33 70  2  0  0  0
 34 36  1  0  0  0
 34 59  1  0  0  0
 34107  1  0  0  0
 35 44  2  0  0  0
 35 45  1  0  0  0
 35 68  1  0  0  0
 36 56  1  0  0  0
 36108  1  0  0  0
 37 39  1  0  0  0
 37 47  1  0  0  0
 37 66  1  0  0  0
 37109  1  0  0  0
 38 43  2  0  0  0
 38 46  1  0  0  0
 38 47  1  0  0  0
 39 64  1  0  0  0
 39 67  2  0  0  0
 40 52  1  0  0  0
 40 53  2  0  0  0
 40 58  1  0  0  0
 41110  1  0  0  0
 41111  1  0  0  0
 41112  1  0  0  0
 41 48  1  0  0  0
 42 43  1  0  0  0
 42 66  1  0  0  0
 42113  1  0  0  0
 42114  1  0  0  0
 43 44  1  0  0  0
 44115  1  0  0  0
 45 46  2  0  0  0
 45116  1  0  0  0
 46117  1  0  0  0
 47118  1  0  0  0
 47119  1  0  0  0
 48 56  1  0  0  0
 48 65  1  0  0  0
 48120  1  0  0  0
 49 50  1  0  0  0
 49 53  1  0  0  0
 49 64  1  0  0  0
 49121  1  0  0  0
 50 51  1  0  0  0
 50122  1  0  0  0
 50123  1  0  0  0
 51 52  1  0  0  0
 51124  1  0  0  0
 51125  1  0  0  0
 52126  1  0  0  0
 52127  1  0  0  0
 53 54  1  0  0  0
 54 55  2  0  0  0
 54128  1  0  0  0
 55 57  1  0  0  0
 55129  1  0  0  0
 56 69  2  0  0  0
 57 58  2  0  0  0
 57130  1  0  0  0
 58131  1  0  0  0
 59 60  1  0  0  0
 59 61  1  0  0  0
 59 62  1  0  0  0
 60132  1  0  0  0
 60133  1  0  0  0
 60134  1  0  0  0
 61135  1  0  0  0
 61136  1  0  0  0
 61137  1  0  0  0
 62138  1  0  0  0
 62139  1  0  0  0
 62140  1  0  0  0
 63 65  1  0  0  0
 63141  1  0  0  0
 63142  1  0  0  0
 63143  1  0  0  0
 64144  1  0  0  0
 65145  1  0  0  0
 68 81  1  0  0  0
 71 74  2  0  0  0
 71 75  1  0  0  0
 71146  1  0  0  0
 72 74  1  0  0  0
 72 76  2  0  0  0
 72147  1  0  0  0
 73 75  2  0  0  0
 73 76  1  0  0  0
 73148  1  0  0  0
 74 80  1  0  0  0
 75 84  1  0  0  0
 76 86  1  0  0  0
 77 81  1  0  0  0
 77 83  1  0  0  0
 77 85  2  0  0  0
 78149  1  0  0  0
 78150  1  0  0  0
 78151  1  0  0  0
 78 83  1  0  0  0
 79 83  1  0  0  0
 79152  1  0  0  0
 79153  1  0  0  0
 79154  1  0  0  0
 80 82  1  0  0  0
 80155  1  0  0  0
 80156  1  0  0  0
 81157  1  0  0  0
 81158  1  0  0  0
 82 83  1  0  0  0
 82159  1  0  0  0
 82160  1  0  0  0
 84161  1  0  0  0
M  ISO  4   1 100  68 101  81 101  84 100
M  END
> <chiral flag>
0

> <version>
0

> <s_m_source_file>
/data/baiqing/PycharmProjects/Reinvent-master-3.2/result/LINK_invent/BTK/process_docking_weight1_custom_product_contain_oxygen_bond_distance_aromatic_linkinvent_7_9_3/rearranged_h_0139.sdf

> <i_m_source_file_index>
1

> <r_mmod_Potential_Energy-OPLS-2005>
52.7014389038086

> <r_mmod_Stretch_Energy-OPLS-2005>
46.6340255737305

> <r_mmod_Bend_Energy-OPLS-2005>
112.27165222168

> <r_mmod_Torsional_Energy-OPLS-2005>
240.365112304688

> <r_mmod_Improper_Torsional_Energy-OPLS-2005>
3.43779444694519

> <r_mmod_Van_der_Waal_Energy-OPLS-2005>
155.965240478516

> <r_mmod_Electrostatic_Energy-OPLS-2005>
-297.836395263672

> <r_mmod_Solvation_Energy-OPLS-2005>
-222.025604248047

> <b_mmod_Minimization_Converged-OPLS-2005>
0

> <r_mmod_RMS_Derivative-OPLS-2005>
2.99447989463806

$$$$
1
                    3D
 Structure written by MMmdl.
158166  0  0  1  0            999 V2000
  -30.5890  -14.7053   20.5011 C   0  0  0  0  0  0
  -30.4469  -12.4403   19.4507 C   0  0  0  0  0  0
  -29.5088  -12.5024   18.2241 C   0  0  0  0  0  0
  -28.0362  -12.3197   18.6455 C   0  0  0  0  0  0
  -27.6457  -13.2136   19.8527 C   0  0  2  0  0  0
  -28.6923  -13.1116   20.9831 C   0  0  0  0  0  0
  -25.2543  -13.8150   20.5680 C   0  0  0  0  0  0
  -24.1813  -13.0418   20.9206 C   0  0  0  0  0  0
  -24.6379  -11.6894   20.8750 C   0  0  0  0  0  0
  -23.9055  -10.4287   21.0413 C   0  0  0  0  0  0
  -24.3607   -9.4201   21.9189 C   0  0  0  0  0  0
  -23.6284   -8.2234   22.0758 C   0  0  0  0  0  0
  -22.4268   -8.0269   21.3539 C   0  0  0  0  0  0
  -21.9902   -9.0246   20.4645 C   0  0  0  0  0  0
  -22.7232  -10.2128   20.3059 C   0  0  0  0  0  0
  -21.6853   -6.0729   22.5275 C   0  0  0  0  0  0
  -21.4006   -6.5636   23.8209 C   0  0  0  0  0  0
  -21.3664   -5.6791   24.9172 C   0  0  0  0  0  0
  -21.6042   -4.3054   24.7225 C   0  0  0  0  0  0
  -21.8822   -3.8145   23.4348 C   0  0  0  0  0  0
  -21.9192   -4.6957   22.3400 C   0  0  0  0  0  0
  -22.7834  -13.5219   21.1858 C   0  0  0  0  0  0
  -22.1662   -4.2143   21.0978 F   0  0  0  0  0  0
  -21.5636   -3.4540   25.7740 F   0  0  0  0  0  0
  -29.9933  -13.4730   20.4037 N   0  0  0  0  0  0
  -26.2955  -12.9325   20.3284 N   0  0  0  0  0  0
  -25.9300  -11.6489   20.5754 N   0  0  0  0  0  0
  -22.0472  -12.8216   22.0414 N   0  0  0  0  0  0
  -25.4239  -15.1876   20.4081 N   0  0  0  0  0  0
  -31.7849  -14.8562   20.2300 O   0  0  0  0  0  0
  -21.6633   -6.8864   21.4231 O   0  0  0  0  0  0
  -22.3528  -14.5533   20.6715 O   0  0  0  0  0  0
  -24.6267  -31.8566   23.2023 C   0  0  0  0  0  0
  -25.9102  -32.4758   23.8365 C   0  0  1  0  0  0
  -27.2161  -27.2811   20.1354 C   0  0  0  0  0  0
  -25.5911  -33.8569   24.2279 N   0  0  0  0  0  0
  -23.4226  -30.4807   21.5452 C   0  0  2  0  0  0
  -24.8717  -28.9365   20.1127 C   0  0  0  0  0  0
  -22.7475  -29.4603   22.4925 C   0  0  0  0  0  0
  -18.0279  -28.1372   22.8472 C   0  0  0  0  0  0
  -24.1487  -36.7299   23.2637 C   0  0  0  0  0  0
  -25.9673  -30.7805   21.3767 C   0  0  0  0  0  0
  -26.0432  -29.4040   20.7206 C   0  0  0  0  0  0
  -27.2204  -28.5915   20.7179 C   0  0  0  0  0  0
  -26.0189  -26.8787   19.4978 C   0  0  0  0  0  0
  -24.8645  -27.6810   19.4899 C   0  0  0  0  0  0
  -23.6410  -29.8191   20.1602 C   0  0  0  0  0  0
  -25.4110  -36.3072   24.0321 C   0  0  1  0  0  0
  -20.5887  -28.3682   23.1275 C   0  0  2  0  0  0
  -20.6773  -26.9401   22.5405 C   0  0  0  0  0  0
  -19.5751  -26.6381   21.5192 C   0  0  0  0  0  0
  -18.1928  -26.7921   22.1607 C   0  0  0  0  0  0
  -19.1536  -28.8839   23.2866 C   0  0  0  0  0  0
  -18.9459  -30.1437   23.8888 C   0  0  0  0  0  0
  -17.6464  -30.6580   24.0555 C   0  0  0  0  0  0
  -25.9041  -34.9439   23.5103 C   0  0  0  0  0  0
  -16.5349  -29.9078   23.6329 C   0  0  0  0  0  0
  -16.7263  -28.6493   23.0349 C   0  0  0  0  0  0
  -26.4489  -31.6572   25.0734 C   0  0  0  0  0  0
  -25.3727  -31.3690   26.1460 C   0  0  0  0  0  0
  -27.0320  -30.2992   24.6188 C   0  0  0  0  0  0
  -27.6058  -32.4306   25.7501 C   0  0  0  0  0  0
  -27.5576  -37.1799   24.8453 C   0  0  0  0  0  0
  -21.4190  -29.3042   22.3677 N   0  0  0  0  0  0
  -26.4287  -37.3770   23.9405 N   0  0  0  0  0  0
  -24.6918  -31.0564   22.0983 N   0  0  0  0  0  0
  -23.4192  -28.8123   23.2990 O   0  0  0  0  0  0
  -28.3115  -26.3922   20.2005 O   0  0  0  0  0  0
  -26.5616  -34.8903   22.4675 O   0  0  0  0  0  0
  -23.5425  -32.1385   23.7317 O   0  0  0  0  0  0
  -29.7071  -18.4673   23.1991 C   0  0  0  0  0  0
  -29.6482  -19.6690   22.4630 C   0  0  0  0  0  0
  -29.8069  -17.2158   22.5587 C   0  0  0  0  0  0
  -29.7619  -18.3678   20.4138 C   0  0  0  0  0  0
  -29.6809  -19.6779   21.0487 C   0  0  0  0  0  0
  -29.8386  -17.1213   21.1527 C   0  0  0  0  0  0
  -28.8114  -22.2970   20.7223 C   0  0  0  0  0  0
  -29.6343  -20.9068   18.7837 C   0  0  0  0  0  0
  -31.2379  -21.5869   20.5768 C   0  0  0  0  0  0
  -29.1863  -23.8299   20.4472 C   0  0  0  0  0  0
  -28.0248  -24.9211   20.2501 C   0  0  0  0  0  0
  -29.7991  -21.0949   20.3064 C   0  0  0  0  0  0
  -29.7209  -15.7750   20.5792 N   0  0  0  0  0  0
  -27.7228  -22.0367   21.2400 O   0  0  0  0  0  0
  -31.4823  -12.5979   19.1407 H   0  0  0  0  0  0
  -30.4167  -11.4539   19.9160 H   0  0  0  0  0  0
  -29.7869  -11.7366   17.4988 H   0  0  0  0  0  0
  -29.6277  -13.4608   17.7177 H   0  0  0  0  0  0
  -27.8995  -11.2706   18.9090 H   0  0  0  0  0  0
  -27.3725  -12.5106   17.8017 H   0  0  0  0  0  0
  -27.6468  -14.2378   19.4809 H   0  0  0  0  0  0
  -28.7261  -12.1021   21.3941 H   0  0  0  0  0  0
  -28.4331  -13.7690   21.8152 H   0  0  0  0  0  0
  -25.2751   -9.5677   22.4770 H   0  0  0  0  0  0
  -23.9999   -7.4623   22.7478 H   0  0  0  0  0  0
  -21.0838   -8.8754   19.8948 H   0  0  0  0  0  0
  -22.3683  -10.9662   19.6168 H   0  0  0  0  0  0
  -21.1994   -7.6143   23.9706 H   0  0  0  0  0  0
  -21.1485   -6.0524   25.9075 H   0  0  0  0  0  0
  -22.0600   -2.7603   23.2851 H   0  0  0  0  0  0
  -22.4089  -11.9872   22.4797 H   0  0  0  0  0  0
  -21.1089  -13.1229   22.2616 H   0  0  0  0  0  0
  -24.6524  -15.8367   20.5189 H   0  0  0  0  0  0
  -26.2624  -15.6318   20.0570 H   0  0  0  0  0  0
  -26.7164  -32.5407   23.1115 H   0  0  0  0  0  0
  -25.0031  -33.9711   25.0404 H   0  0  0  0  0  0
  -22.7178  -31.3021   21.4028 H   0  0  0  0  0  0
  -23.3733  -35.9646   23.3292 H   0  0  0  0  0  0
  -24.3574  -36.8925   22.2051 H   0  0  0  0  0  0
  -23.7265  -37.6512   23.6669 H   0  0  0  0  0  0
  -26.0940  -31.5400   20.6046 H   0  0  0  0  0  0
  -26.8497  -30.8389   22.0011 H   0  0  0  0  0  0
  -28.1174  -28.9462   21.2085 H   0  0  0  0  0  0
  -25.9363  -25.9235   19.0054 H   0  0  0  0  0  0
  -23.9674  -27.3167   19.0090 H   0  0  0  0  0  0
  -23.7621  -30.5971   19.4052 H   0  0  0  0  0  0
  -22.7603  -29.2490   19.8561 H   0  0  0  0  0  0
  -25.1292  -36.1936   25.0813 H   0  0  0  0  0  0
  -20.9964  -28.3247   24.1402 H   0  0  0  0  0  0
  -20.5649  -26.2275   23.3595 H   0  0  0  0  0  0
  -21.6643  -26.7403   22.1214 H   0  0  0  0  0  0
  -19.6910  -25.6287   21.1221 H   0  0  0  0  0  0
  -19.6708  -27.3185   20.6715 H   0  0  0  0  0  0
  -17.4199  -26.6635   21.4015 H   0  0  0  0  0  0
  -18.0348  -26.0058   22.9002 H   0  0  0  0  0  0
  -19.7930  -30.7242   24.2268 H   0  0  0  0  0  0
  -17.5021  -31.6265   24.5147 H   0  0  0  0  0  0
  -15.5351  -30.2984   23.7666 H   0  0  0  0  0  0
  -15.8654  -28.0817   22.7079 H   0  0  0  0  0  0
  -24.5959  -30.6962   25.7811 H   0  0  0  0  0  0
  -24.8843  -32.2828   26.4857 H   0  0  0  0  0  0
  -25.8084  -30.8925   27.0249 H   0  0  0  0  0  0
  -26.2888  -29.6753   24.1211 H   0  0  0  0  0  0
  -27.4016  -29.7234   25.4689 H   0  0  0  0  0  0
  -27.8762  -30.4279   23.9410 H   0  0  0  0  0  0
  -27.2712  -33.3648   26.2044 H   0  0  0  0  0  0
  -28.3907  -32.6807   25.0339 H   0  0  0  0  0  0
  -28.0687  -31.8432   26.5443 H   0  0  0  0  0  0
  -28.2575  -38.0111   24.7520 H   0  0  0  0  0  0
  -28.1095  -36.2646   24.6271 H   0  0  0  0  0  0
  -27.2291  -37.1437   25.8852 H   0  0  0  0  0  0
  -20.9351  -29.8785   21.6919 H   0  0  0  0  0  0
  -26.0153  -38.2835   24.1442 H   0  0  0  0  0  0
  -29.6693  -18.5024   24.2789 H   0  0  0  0  0  0
  -29.6026  -20.6039   23.0055 H   0  0  0  0  0  0
  -29.8138  -16.3205   23.1655 H   0  0  0  0  0  0
  -29.7700  -18.3070   19.3361 H   0  0  0  0  0  0
  -28.6778  -20.4385   18.5463 H   0  0  0  0  0  0
  -30.4275  -20.2834   18.3690 H   0  0  0  0  0  0
  -29.6696  -21.8592   18.2523 H   0  0  0  0  0  0
  -31.3811  -21.8349   21.6296 H   0  0  0  0  0  0
  -31.5000  -22.4718   19.9984 H   0  0  0  0  0  0
  -31.9693  -20.8204   20.3236 H   0  0  0  0  0  0
  -29.8311  -23.8644   19.5704 H   0  0  0  0  0  0
  -29.8072  -24.1426   21.2860 H   0  0  0  0  0  0
  -27.2805  -24.7639   21.0327 H   0  0  0  0  0  0
  -27.5437  -24.6347   19.3159 H   0  0  0  0  0  0
  -28.7659  -15.4585   20.5213 H   0  0  0  0  0  0
  1 25  1  0  0  0
  1 30  2  0  0  0
  1 83  1  0  0  0
  2  3  1  0  0  0
  2 25  1  0  0  0
  2 85  1  0  0  0
  2 86  1  0  0  0
  3  4  1  0  0  0
  3 87  1  0  0  0
  3 88  1  0  0  0
  4  5  1  0  0  0
  4 89  1  0  0  0
  4 90  1  0  0  0
  5  6  1  0  0  0
  5 26  1  0  0  0
  5 91  1  0  0  0
  6 25  1  0  0  0
  6 92  1  0  0  0
  6 93  1  0  0  0
  7  8  2  0  0  0
  7 26  1  0  0  0
  7 29  1  0  0  0
  8  9  1  0  0  0
  8 22  1  0  0  0
  9 10  1  0  0  0
  9 27  2  0  0  0
 10 11  2  0  0  0
 10 15  1  0  0  0
 11 12  1  0  0  0
 11 94  1  0  0  0
 12 13  2  0  0  0
 12 95  1  0  0  0
 13 14  1  0  0  0
 13 31  1  0  0  0
 14 15  2  0  0  0
 14 96  1  0  0  0
 15 97  1  0  0  0
 16 17  2  0  0  0
 16 21  1  0  0  0
 16 31  1  0  0  0
 17 18  1  0  0  0
 17 98  1  0  0  0
 18 19  2  0  0  0
 18 99  1  0  0  0
 19 20  1  0  0  0
 19 24  1  0  0  0
 20 21  2  0  0  0
 20100  1  0  0  0
 21 23  1  0  0  0
 22 28  1  0  0  0
 22 32  2  0  0  0
 26 27  1  0  0  0
 28101  1  0  0  0
 28102  1  0  0  0
 29103  1  0  0  0
 29104  1  0  0  0
 33 34  1  0  0  0
 33 66  1  0  0  0
 33 70  2  0  0  0
 34 36  1  0  0  0
 34 59  1  0  0  0
 34105  1  0  0  0
 35 44  2  0  0  0
 35 45  1  0  0  0
 35 68  1  0  0  0
 36 56  1  0  0  0
 36106  1  0  0  0
 37 39  1  0  0  0
 37 47  1  0  0  0
 37 66  1  0  0  0
 37107  1  0  0  0
 38 43  2  0  0  0
 38 46  1  0  0  0
 38 47  1  0  0  0
 39 64  1  0  0  0
 39 67  2  0  0  0
 40 52  1  0  0  0
 40 53  2  0  0  0
 40 58  1  0  0  0
 41108  1  0  0  0
 41109  1  0  0  0
 41110  1  0  0  0
 41 48  1  0  0  0
 42 43  1  0  0  0
 42 66  1  0  0  0
 42111  1  0  0  0
 42112  1  0  0  0
 43 44  1  0  0  0
 44113  1  0  0  0
 45 46  2  0  0  0
 45114  1  0  0  0
 46115  1  0  0  0
 47116  1  0  0  0
 47117  1  0  0  0
 48 56  1  0  0  0
 48 65  1  0  0  0
 48118  1  0  0  0
 49 50  1  0  0  0
 49 53  1  0  0  0
 49 64  1  0  0  0
 49119  1  0  0  0
 50 51  1  0  0  0
 50120  1  0  0  0
 50121  1  0  0  0
 51 52  1  0  0  0
 51122  1  0  0  0
 51123  1  0  0  0
 52124  1  0  0  0
 52125  1  0  0  0
 53 54  1  0  0  0
 54 55  2  0  0  0
 54126  1  0  0  0
 55 57  1  0  0  0
 55127  1  0  0  0
 56 69  2  0  0  0
 57 58  2  0  0  0
 57128  1  0  0  0
 58129  1  0  0  0
 59 60  1  0  0  0
 59 61  1  0  0  0
 59 62  1  0  0  0
 60130  1  0  0  0
 60131  1  0  0  0
 60132  1  0  0  0
 61133  1  0  0  0
 61134  1  0  0  0
 61135  1  0  0  0
 62136  1  0  0  0
 62137  1  0  0  0
 62138  1  0  0  0
 63 65  1  0  0  0
 63139  1  0  0  0
 63140  1  0  0  0
 63141  1  0  0  0
 64142  1  0  0  0
 65143  1  0  0  0
 68 81  1  0  0  0
 71 72  2  0  0  0
 71 73  1  0  0  0
 71144  1  0  0  0
 72 75  1  0  0  0
 72145  1  0  0  0
 73 76  2  0  0  0
 73146  1  0  0  0
 74 75  2  0  0  0
 74 76  1  0  0  0
 74147  1  0  0  0
 75 82  1  0  0  0
 76 83  1  0  0  0
 77 80  1  0  0  0
 77 82  1  0  0  0
 77 84  2  0  0  0
 78148  1  0  0  0
 78149  1  0  0  0
 78150  1  0  0  0
 78 82  1  0  0  0
 79 82  1  0  0  0
 79151  1  0  0  0
 79152  1  0  0  0
 79153  1  0  0  0
 80 81  1  0  0  0
 80154  1  0  0  0
 80155  1  0  0  0
 81156  1  0  0  0
 81157  1  0  0  0
 83158  1  0  0  0
M  ISO  4   1 100  68 101  81 101  83 100
M  END
> <chiral flag>
0

> <version>
0

> <s_m_source_file>
/data/baiqing/PycharmProjects/Reinvent-master-3.2/result/LINK_invent/BTK/process_docking_weight1_custom_product_contain_oxygen_bond_distance_aromatic_linkinvent_7_9_3/rearranged_h_0139.sdf

> <i_m_source_file_index>
2

> <r_mmod_Potential_Energy-OPLS-2005>
179.472610473633

> <r_mmod_Stretch_Energy-OPLS-2005>
111.716270446777

> <r_mmod_Bend_Energy-OPLS-2005>
154.706146240234

> <r_mmod_Torsional_Energy-OPLS-2005>
266.90234375

> <r_mmod_Improper_Torsional_Energy-OPLS-2005>
11.745756149292

> <r_mmod_Van_der_Waal_Energy-OPLS-2005>
142.865203857422

> <r_mmod_Electrostatic_Energy-OPLS-2005>
-364.587493896484

> <r_mmod_Solvation_Energy-OPLS-2005>
-218.601669311523

> <b_mmod_Minimization_Converged-OPLS-2005>
0

> <r_mmod_RMS_Derivative-OPLS-2005>
2.28884339332581

$$$$
2
                    3D
 Structure written by MMmdl.
157165  0  0  1  0            999 V2000
  -30.6240  -14.7306   20.4572 C   0  0  0  0  0  0
  -30.4274  -12.4442   19.4784 C   0  0  0  0  0  0
  -29.5102  -12.5051   18.2376 C   0  0  0  0  0  0
  -28.0355  -12.3342   18.6491 C   0  0  0  0  0  0
  -27.6413  -13.2342   19.8510 C   0  0  2  0  0  0
  -28.6844  -13.1706   20.9884 C   0  0  0  0  0  0
  -25.2485  -13.8191   20.5660 C   0  0  0  0  0  0
  -24.1798  -13.0436   20.9223 C   0  0  0  0  0  0
  -24.6399  -11.6918   20.8767 C   0  0  0  0  0  0
  -23.9077  -10.4292   21.0419 C   0  0  0  0  0  0
  -24.3624   -9.4202   21.9191 C   0  0  0  0  0  0
  -23.6294   -8.2241   22.0759 C   0  0  0  0  0  0
  -22.4278   -8.0282   21.3547 C   0  0  0  0  0  0
  -21.9916   -9.0259   20.4651 C   0  0  0  0  0  0
  -22.7250  -10.2136   20.3063 C   0  0  0  0  0  0
  -21.6853   -6.0735   22.5277 C   0  0  0  0  0  0
  -21.4014   -6.5639   23.8210 C   0  0  0  0  0  0
  -21.3660   -5.6791   24.9173 C   0  0  0  0  0  0
  -21.6045   -4.3055   24.7224 C   0  0  0  0  0  0
  -21.8818   -3.8145   23.4345 C   0  0  0  0  0  0
  -21.9192   -4.6961   22.3400 C   0  0  0  0  0  0
  -22.7820  -13.5220   21.1876 C   0  0  0  0  0  0
  -22.1660   -4.2145   21.0980 F   0  0  0  0  0  0
  -21.5628   -3.4540   25.7739 F   0  0  0  0  0  0
  -29.9877  -13.5113   20.4070 N   0  0  0  0  0  0
  -26.2929  -12.9414   20.3274 N   0  0  0  0  0  0
  -25.9330  -11.6555   20.5763 N   0  0  0  0  0  0
  -22.0464  -12.8212   22.0432 N   0  0  0  0  0  0
  -25.4111  -15.1898   20.3955 N   0  0  0  0  0  0
  -31.8113  -14.8143   20.1323 O   0  0  0  0  0  0
  -21.6640   -6.8880   21.4242 O   0  0  0  0  0  0
  -22.3505  -14.5523   20.6718 O   0  0  0  0  0  0
  -24.6303  -31.8555   23.1989 C   0  0  0  0  0  0
  -25.9133  -32.4756   23.8333 C   0  0  1  0  0  0
  -27.2186  -27.2720   20.1384 C   0  0  0  0  0  0
  -25.5932  -33.8559   24.2262 N   0  0  0  0  0  0
  -23.4275  -30.4770   21.5415 C   0  0  2  0  0  0
  -24.8771  -28.9239   20.1102 C   0  0  0  0  0  0
  -22.7499  -29.4601   22.4915 C   0  0  0  0  0  0
  -18.0293  -28.1383   22.8487 C   0  0  0  0  0  0
  -24.1489  -36.7282   23.2640 C   0  0  0  0  0  0
  -25.9718  -30.7716   21.3781 C   0  0  0  0  0  0
  -26.0466  -29.3938   20.7233 C   0  0  0  0  0  0
  -27.2237  -28.5796   20.7272 C   0  0  0  0  0  0
  -26.0376  -26.8722   19.4814 C   0  0  0  0  0  0
  -24.8767  -27.6703   19.4777 C   0  0  0  0  0  0
  -23.6464  -29.8092   20.1580 C   0  0  0  0  0  0
  -25.4115  -36.3069   24.0329 C   0  0  1  0  0  0
  -20.5894  -28.3695   23.1267 C   0  0  2  0  0  0
  -20.6782  -26.9416   22.5400 C   0  0  0  0  0  0
  -19.5754  -26.6386   21.5205 C   0  0  0  0  0  0
  -18.1938  -26.7928   22.1621 C   0  0  0  0  0  0
  -19.1546  -28.8856   23.2873 C   0  0  0  0  0  0
  -18.9469  -30.1455   23.8895 C   0  0  0  0  0  0
  -17.6467  -30.6586   24.0565 C   0  0  0  0  0  0
  -25.9053  -34.9439   23.5097 C   0  0  0  0  0  0
  -16.5359  -29.9082   23.6332 C   0  0  0  0  0  0
  -16.7281  -28.6498   23.0358 C   0  0  0  0  0  0
  -26.4501  -31.6580   25.0721 C   0  0  0  0  0  0
  -25.3721  -31.3739   26.1441 C   0  0  0  0  0  0
  -27.0354  -30.2997   24.6211 C   0  0  0  0  0  0
  -27.6051  -32.4325   25.7497 C   0  0  0  0  0  0
  -27.5578  -37.1797   24.8466 C   0  0  0  0  0  0
  -21.4207  -29.3043   22.3658 N   0  0  0  0  0  0
  -26.4290  -37.3767   23.9407 N   0  0  0  0  0  0
  -24.6954  -31.0527   22.0961 N   0  0  0  0  0  0
  -23.4199  -28.8148   23.3022 O   0  0  0  0  0  0
  -28.2971  -26.3626   20.1644 O   0  0  0  0  0  0
  -26.5624  -34.8913   22.4665 O   0  0  0  0  0  0
  -23.5454  -32.1377   23.7288 O   0  0  0  0  0  0
  -27.9188  -20.1774   21.5332 C   0  0  0  0  0  0
  -28.3462  -18.7904   21.4246 C   0  0  0  0  0  0
  -29.4771  -18.6123   20.6523 C   0  0  0  0  0  0
  -28.6569  -21.1424   20.8750 C   0  0  0  0  0  0
  -28.6698  -23.6889   20.3127 C   0  0  0  0  0  0
  -26.3590  -18.0009   22.8539 C   0  0  0  0  0  0
  -26.8832  -24.9261   21.7672 C   0  0  0  0  0  0
  -27.6538  -17.6399   22.1120 C   0  0  0  0  0  0
  -30.3296  -17.3120   20.3461 C   0  0  0  0  0  0
  -28.2013  -25.0888   20.9711 C   0  0  2  0  0  0
  -28.4053  -22.5200   21.0041 N   0  0  0  0  0  0
  -29.8740  -15.8826   20.6406 N   0  0  0  0  0  0
  -29.2632  -23.6847   19.2313 O   0  0  0  0  0  0
  -29.9485  -20.2431   20.0333 S   0  0  0  0  0  0
  -31.4712  -12.5557   19.1797 H   0  0  0  0  0  0
  -30.3596  -11.4684   19.9615 H   0  0  0  0  0  0
  -29.7909  -11.7324   17.5207 H   0  0  0  0  0  0
  -29.6427  -13.4602   17.7268 H   0  0  0  0  0  0
  -27.8887  -11.2857   18.9113 H   0  0  0  0  0  0
  -27.3806  -12.5288   17.7987 H   0  0  0  0  0  0
  -27.6350  -14.2559   19.4710 H   0  0  0  0  0  0
  -28.7138  -12.1759   21.4352 H   0  0  0  0  0  0
  -28.4227  -13.8603   21.7924 H   0  0  0  0  0  0
  -25.2767   -9.5673   22.4769 H   0  0  0  0  0  0
  -23.9997   -7.4631   22.7479 H   0  0  0  0  0  0
  -21.0846   -8.8786   19.8955 H   0  0  0  0  0  0
  -22.3714  -10.9680   19.6174 H   0  0  0  0  0  0
  -21.2009   -7.6146   23.9713 H   0  0  0  0  0  0
  -21.1483   -6.0523   25.9077 H   0  0  0  0  0  0
  -22.0597   -2.7606   23.2848 H   0  0  0  0  0  0
  -22.4078  -11.9875   22.4821 H   0  0  0  0  0  0
  -21.1081  -13.1240   22.2634 H   0  0  0  0  0  0
  -24.6289  -15.8293   20.4816 H   0  0  0  0  0  0
  -26.2255  -15.6174   19.9764 H   0  0  0  0  0  0
  -26.7201  -32.5411   23.1076 H   0  0  0  0  0  0
  -25.0082  -33.9695   25.0410 H   0  0  0  0  0  0
  -22.7236  -31.2989   21.3944 H   0  0  0  0  0  0
  -23.3749  -35.9616   23.3302 H   0  0  0  0  0  0
  -24.3581  -36.8906   22.2055 H   0  0  0  0  0  0
  -23.7241  -37.6484   23.6665 H   0  0  0  0  0  0
  -26.1090  -31.5317   20.6079 H   0  0  0  0  0  0
  -26.8496  -30.8224   22.0105 H   0  0  0  0  0  0
  -28.1192  -28.9322   21.2193 H   0  0  0  0  0  0
  -26.0041  -25.9072   18.9958 H   0  0  0  0  0  0
  -23.9839  -27.3066   18.9883 H   0  0  0  0  0  0
  -23.7688  -30.5849   19.4009 H   0  0  0  0  0  0
  -22.7655  -29.2406   19.8541 H   0  0  0  0  0  0
  -25.1294  -36.1917   25.0821 H   0  0  0  0  0  0
  -20.9986  -28.3270   24.1388 H   0  0  0  0  0  0
  -20.5686  -26.2308   23.3603 H   0  0  0  0  0  0
  -21.6649  -26.7441   22.1190 H   0  0  0  0  0  0
  -19.6915  -25.6296   21.1236 H   0  0  0  0  0  0
  -19.6688  -27.3196   20.6733 H   0  0  0  0  0  0
  -17.4205  -26.6680   21.4025 H   0  0  0  0  0  0
  -18.0334  -26.0068   22.9015 H   0  0  0  0  0  0
  -19.7945  -30.7269   24.2264 H   0  0  0  0  0  0
  -17.5018  -31.6267   24.5160 H   0  0  0  0  0  0
  -15.5357  -30.2981   23.7649 H   0  0  0  0  0  0
  -15.8682  -28.0813   22.7075 H   0  0  0  0  0  0
  -24.5891  -30.7094   25.7769 H   0  0  0  0  0  0
  -24.8916  -32.2913   26.4850 H   0  0  0  0  0  0
  -25.8030  -30.8923   27.0228 H   0  0  0  0  0  0
  -26.2946  -29.6738   24.1220 H   0  0  0  0  0  0
  -27.4023  -29.7266   25.4736 H   0  0  0  0  0  0
  -27.8825  -30.4271   23.9467 H   0  0  0  0  0  0
  -27.2654  -33.3627   26.2063 H   0  0  0  0  0  0
  -28.3867  -32.6886   25.0331 H   0  0  0  0  0  0
  -28.0712  -31.8460   26.5424 H   0  0  0  0  0  0
  -28.2596  -38.0094   24.7505 H   0  0  0  0  0  0
  -28.1074  -36.2624   24.6299 H   0  0  0  0  0  0
  -27.2298  -37.1454   25.8871 H   0  0  0  0  0  0
  -20.9397  -29.8756   21.6851 H   0  0  0  0  0  0
  -26.0169  -38.2842   24.1401 H   0  0  0  0  0  0
  -27.0596  -20.4371   22.1354 H   0  0  0  0  0  0
  -26.5438  -18.7055   23.6650 H   0  0  0  0  0  0
  -25.9097  -17.1095   23.2930 H   0  0  0  0  0  0
  -25.6218  -18.4379   22.1797 H   0  0  0  0  0  0
  -26.6419  -25.8296   22.3275 H   0  0  0  0  0  0
  -26.9496  -24.1269   22.5048 H   0  0  0  0  0  0
  -26.0413  -24.6937   21.1156 H   0  0  0  0  0  0
  -28.3395  -17.1709   22.8185 H   0  0  0  0  0  0
  -27.4124  -16.8735   21.3774 H   0  0  0  0  0  0
  -31.2898  -17.4342   20.8495 H   0  0  0  0  0  0
  -30.5794  -17.3308   19.2844 H   0  0  0  0  0  0
  -28.9620  -25.2526   21.7351 H   0  0  0  0  0  0
  -27.8429  -22.7311   21.8170 H   0  0  0  0  0  0
  -28.8996  -15.7500   20.8580 H   0  0  0  0  0  0
  1 25  1  0  0  0
  1 30  2  0  0  0
  1 82  1  0  0  0
  2  3  1  0  0  0
  2 25  1  0  0  0
  2 85  1  0  0  0
  2 86  1  0  0  0
  3  4  1  0  0  0
  3 87  1  0  0  0
  3 88  1  0  0  0
  4  5  1  0  0  0
  4 89  1  0  0  0
  4 90  1  0  0  0
  5  6  1  0  0  0
  5 26  1  0  0  0
  5 91  1  0  0  0
  6 25  1  0  0  0
  6 92  1  0  0  0
  6 93  1  0  0  0
  7  8  2  0  0  0
  7 26  1  0  0  0
  7 29  1  0  0  0
  8  9  1  0  0  0
  8 22  1  0  0  0
  9 10  1  0  0  0
  9 27  2  0  0  0
 10 11  2  0  0  0
 10 15  1  0  0  0
 11 12  1  0  0  0
 11 94  1  0  0  0
 12 13  2  0  0  0
 12 95  1  0  0  0
 13 14  1  0  0  0
 13 31  1  0  0  0
 14 15  2  0  0  0
 14 96  1  0  0  0
 15 97  1  0  0  0
 16 17  2  0  0  0
 16 21  1  0  0  0
 16 31  1  0  0  0
 17 18  1  0  0  0
 17 98  1  0  0  0
 18 19  2  0  0  0
 18 99  1  0  0  0
 19 20  1  0  0  0
 19 24  1  0  0  0
 20 21  2  0  0  0
 20100  1  0  0  0
 21 23  1  0  0  0
 22 28  1  0  0  0
 22 32  2  0  0  0
 26 27  1  0  0  0
 28101  1  0  0  0
 28102  1  0  0  0
 29103  1  0  0  0
 29104  1  0  0  0
 33 34  1  0  0  0
 33 66  1  0  0  0
 33 70  2  0  0  0
 34 36  1  0  0  0
 34 59  1  0  0  0
 34105  1  0  0  0
 35 44  2  0  0  0
 35 45  1  0  0  0
 35 68  1  0  0  0
 36 56  1  0  0  0
 36106  1  0  0  0
 37 39  1  0  0  0
 37 47  1  0  0  0
 37 66  1  0  0  0
 37107  1  0  0  0
 38 43  2  0  0  0
 38 46  1  0  0  0
 38 47  1  0  0  0
 39 64  1  0  0  0
 39 67  2  0  0  0
 40 52  1  0  0  0
 40 53  2  0  0  0
 40 58  1  0  0  0
 41108  1  0  0  0
 41109  1  0  0  0
 41110  1  0  0  0
 41 48  1  0  0  0
 42 43  1  0  0  0
 42 66  1  0  0  0
 42111  1  0  0  0
 42112  1  0  0  0
 43 44  1  0  0  0
 44113  1  0  0  0
 45 46  2  0  0  0
 45114  1  0  0  0
 46115  1  0  0  0
 47116  1  0  0  0
 47117  1  0  0  0
 48 56  1  0  0  0
 48 65  1  0  0  0
 48118  1  0  0  0
 49 50  1  0  0  0
 49 53  1  0  0  0
 49 64  1  0  0  0
 49119  1  0  0  0
 50 51  1  0  0  0
 50120  1  0  0  0
 50121  1  0  0  0
 51 52  1  0  0  0
 51122  1  0  0  0
 51123  1  0  0  0
 52124  1  0  0  0
 52125  1  0  0  0
 53 54  1  0  0  0
 54 55  2  0  0  0
 54126  1  0  0  0
 55 57  1  0  0  0
 55127  1  0  0  0
 56 69  2  0  0  0
 57 58  2  0  0  0
 57128  1  0  0  0
 58129  1  0  0  0
 59 60  1  0  0  0
 59 61  1  0  0  0
 59 62  1  0  0  0
 60130  1  0  0  0
 60131  1  0  0  0
 60132  1  0  0  0
 61133  1  0  0  0
 61134  1  0  0  0
 61135  1  0  0  0
 62136  1  0  0  0
 62137  1  0  0  0
 62138  1  0  0  0
 63 65  1  0  0  0
 63139  1  0  0  0
 63140  1  0  0  0
 63141  1  0  0  0
 64142  1  0  0  0
 65143  1  0  0  0
 68 80  1  0  0  0
 71 72  1  0  0  0
 71 74  2  0  0  0
 71144  1  0  0  0
 72 73  2  0  0  0
 72 78  1  0  0  0
 73 79  1  0  0  0
 73 84  1  0  0  0
 74 81  1  0  0  0
 74 84  1  0  0  0
 75 80  1  0  0  0
 75 81  1  0  0  0
 75 83  2  0  0  0
 76 78  1  0  0  0
 76145  1  0  0  0
 76146  1  0  0  0
 76147  1  0  0  0
 77148  1  0  0  0
 77149  1  0  0  0
 77150  1  0  0  0
 77 80  1  0  0  0
 78151  1  0  0  0
 78152  1  0  0  0
 79 82  1  0  0  0
 79153  1  0  0  0
 79154  1  0  0  0
 80155  1  0  0  0
 81156  1  0  0  0
 82157  1  0  0  0
M  ISO  4   1 100  68 101  80 101  82 100
M  END
> <chiral flag>
0

> <version>
0

> <s_m_source_file>
/data/baiqing/PycharmProjects/Reinvent-master-3.2/result/LINK_invent/BTK/process_docking_weight1_custom_product_contain_oxygen_bond_distance_aromatic_linkinvent_7_9_3/rearranged_h_0139.sdf

> <i_m_source_file_index>
3

> <r_mmod_Potential_Energy-OPLS-2005>
105.160697937012

> <r_mmod_Stretch_Energy-OPLS-2005>
113.46070098877

> <r_mmod_Bend_Energy-OPLS-2005>
201.764724731445

> <r_mmod_Torsional_Energy-OPLS-2005>
239.76530456543

> <r_mmod_Improper_Torsional_Energy-OPLS-2005>
6.24132299423218

> <r_mmod_Van_der_Waal_Energy-OPLS-2005>
113.570808410645

> <r_mmod_Electrostatic_Energy-OPLS-2005>
-412.422027587891

> <r_mmod_Solvation_Energy-OPLS-2005>
-238.435241699219

> <b_mmod_Minimization_Converged-OPLS-2005>
0

> <r_mmod_RMS_Derivative-OPLS-2005>
0.578270614147186

$$$$
3
                    3D
 Structure written by MMmdl.
164172  0  0  1  0            999 V2000
  -30.6837  -14.5596   20.4789 C   0  0  0  0  0  0
  -30.4151  -12.3393   19.4482 C   0  0  0  0  0  0
  -29.4975  -12.4862   18.2169 C   0  0  0  0  0  0
  -28.0192  -12.3433   18.6286 C   0  0  0  0  0  0
  -27.6484  -13.2186   19.8566 C   0  0  2  0  0  0
  -28.6921  -13.0888   20.9887 C   0  0  0  0  0  0
  -25.2532  -13.8171   20.5667 C   0  0  0  0  0  0
  -24.1817  -13.0434   20.9202 C   0  0  0  0  0  0
  -24.6390  -11.6907   20.8753 C   0  0  0  0  0  0
  -23.9059  -10.4291   21.0414 C   0  0  0  0  0  0
  -24.3616   -9.4207   21.9184 C   0  0  0  0  0  0
  -23.6292   -8.2242   22.0754 C   0  0  0  0  0  0
  -22.4274   -8.0283   21.3547 C   0  0  0  0  0  0
  -21.9908   -9.0253   20.4646 C   0  0  0  0  0  0
  -22.7234  -10.2132   20.3059 C   0  0  0  0  0  0
  -21.6855   -6.0734   22.5276 C   0  0  0  0  0  0
  -21.4014   -6.5639   23.8209 C   0  0  0  0  0  0
  -21.3659   -5.6794   24.9172 C   0  0  0  0  0  0
  -21.6043   -4.3056   24.7224 C   0  0  0  0  0  0
  -21.8822   -3.8148   23.4347 C   0  0  0  0  0  0
  -21.9191   -4.6962   22.3401 C   0  0  0  0  0  0
  -22.7841  -13.5229   21.1859 C   0  0  0  0  0  0
  -22.1663   -4.2149   21.0978 F   0  0  0  0  0  0
  -21.5628   -3.4537   25.7737 F   0  0  0  0  0  0
  -30.0114  -13.3763   20.4142 N   0  0  0  0  0  0
  -26.2961  -12.9364   20.3294 N   0  0  0  0  0  0
  -25.9316  -11.6517   20.5757 N   0  0  0  0  0  0
  -22.0483  -12.8224   22.0418 N   0  0  0  0  0  0
  -25.4213  -15.1884   20.4027 N   0  0  0  0  0  0
  -31.8786  -14.6370   20.1861 O   0  0  0  0  0  0
  -21.6642   -6.8880   21.4240 O   0  0  0  0  0  0
  -22.3526  -14.5532   20.6702 O   0  0  0  0  0  0
  -24.6178  -31.8645   23.2070 C   0  0  0  0  0  0
  -25.9056  -32.4803   23.8376 C   0  0  1  0  0  0
  -27.2321  -27.3909   20.1249 C   0  0  0  0  0  0
  -25.5899  -33.8600   24.2310 N   0  0  0  0  0  0
  -23.4085  -30.4853   21.5471 C   0  0  2  0  0  0
  -24.8590  -28.9408   20.1190 C   0  0  0  0  0  0
  -22.7438  -29.4624   22.4970 C   0  0  0  0  0  0
  -18.0279  -28.1363   22.8484 C   0  0  0  0  0  0
  -24.1490  -36.7305   23.2639 C   0  0  0  0  0  0
  -25.9405  -30.8187   21.3657 C   0  0  0  0  0  0
  -26.0197  -29.4471   20.7185 C   0  0  0  0  0  0
  -27.2129  -28.6810   20.7153 C   0  0  0  0  0  0
  -26.0601  -26.9085   19.5128 C   0  0  0  0  0  0
  -24.8754  -27.6721   19.5112 C   0  0  0  0  0  0
  -23.6231  -29.8138   20.1632 C   0  0  0  0  0  0
  -25.4109  -36.3094   24.0336 C   0  0  1  0  0  0
  -20.5875  -28.3645   23.1313 C   0  0  2  0  0  0
  -20.6767  -26.9378   22.5408 C   0  0  0  0  0  0
  -19.5748  -26.6370   21.5201 C   0  0  0  0  0  0
  -18.1926  -26.7907   22.1619 C   0  0  0  0  0  0
  -19.1531  -28.8821   23.2892 C   0  0  0  0  0  0
  -18.9456  -30.1433   23.8893 C   0  0  0  0  0  0
  -17.6458  -30.6569   24.0554 C   0  0  0  0  0  0
  -25.9036  -34.9464   23.5123 C   0  0  0  0  0  0
  -16.5349  -29.9066   23.6323 C   0  0  0  0  0  0
  -16.7270  -28.6486   23.0339 C   0  0  0  0  0  0
  -26.4475  -31.6595   25.0711 C   0  0  0  0  0  0
  -25.3735  -31.3706   26.1456 C   0  0  0  0  0  0
  -27.0303  -30.3036   24.6091 C   0  0  0  0  0  0
  -27.6046  -32.4319   25.7476 C   0  0  0  0  0  0
  -27.5583  -37.1812   24.8466 C   0  0  0  0  0  0
  -21.4160  -29.3009   22.3721 N   0  0  0  0  0  0
  -26.4296  -37.3781   23.9406 N   0  0  0  0  0  0
  -24.6737  -31.0711   22.0985 N   0  0  0  0  0  0
  -23.4197  -28.8166   23.3025 O   0  0  0  0  0  0
  -28.3779  -26.6145   20.0754 O   0  0  0  0  0  0
  -26.5598  -34.8927   22.4685 O   0  0  0  0  0  0
  -23.5362  -32.1414   23.7443 O   0  0  0  0  0  0
  -28.1500  -18.2499   20.4264 C   0  0  0  0  0  0
  -27.9760  -20.6718   20.8242 C   0  0  0  0  0  0
  -29.5532  -18.2946   20.5671 C   0  0  0  0  0  0
  -29.3758  -20.7578   20.9742 C   0  0  0  0  0  0
  -30.1481  -19.5596   20.8725 C   0  0  0  0  0  0
  -27.3730  -19.4218   20.5608 C   0  0  0  0  0  0
  -29.9295  -23.3031   21.2832 C   0  0  0  0  0  0
  -30.6901  -17.1249   18.6916 C   0  0  0  0  0  0
  -27.7766  -25.7680   22.3864 C   0  0  0  0  0  0
  -31.9491  -19.3623   22.3509 C   0  0  0  0  0  0
  -28.7549  -24.1117   20.6371 C   0  0  0  0  0  0
  -30.4245  -17.0565   20.2116 C   0  0  2  0  0  0
  -28.6392  -25.6250   21.1144 C   0  0  1  0  0  0
  -30.0944  -21.9538   21.3166 N   0  0  0  0  0  0
  -29.9356  -15.6933   20.5885 N   0  0  0  0  0  0
  -30.8458  -23.9450   21.7981 O   0  0  0  0  0  0
  -31.5085  -19.6512   21.0289 O   0  0  0  0  0  0
  -26.0287  -19.3484   20.4189 F   0  0  0  0  0  0
  -31.4619  -12.4243   19.1505 H   0  0  0  0  0  0
  -30.3104  -11.3481   19.8923 H   0  0  0  0  0  0
  -29.7503  -11.7360   17.4661 H   0  0  0  0  0  0
  -29.6587  -13.4575   17.7465 H   0  0  0  0  0  0
  -27.8446  -11.2916   18.8577 H   0  0  0  0  0  0
  -27.3689  -12.5816   17.7862 H   0  0  0  0  0  0
  -27.6644  -14.2511   19.5084 H   0  0  0  0  0  0
  -28.6817  -12.0843   21.4138 H   0  0  0  0  0  0
  -28.4619  -13.7702   21.8095 H   0  0  0  0  0  0
  -25.2759   -9.5686   22.4758 H   0  0  0  0  0  0
  -23.9999   -7.4638   22.7476 H   0  0  0  0  0  0
  -21.0838   -8.8772   19.8956 H   0  0  0  0  0  0
  -22.3688  -10.9675   19.6171 H   0  0  0  0  0  0
  -21.2010   -7.6147   23.9713 H   0  0  0  0  0  0
  -21.1478   -6.0523   25.9076 H   0  0  0  0  0  0
  -22.0601   -2.7607   23.2844 H   0  0  0  0  0  0
  -22.4097  -11.9882   22.4806 H   0  0  0  0  0  0
  -21.1100  -13.1254   22.2626 H   0  0  0  0  0  0
  -24.6450  -15.8348   20.4947 H   0  0  0  0  0  0
  -26.2461  -15.6158   20.0057 H   0  0  0  0  0  0
  -26.7131  -32.5501   23.1137 H   0  0  0  0  0  0
  -25.0048  -33.9755   25.0456 H   0  0  0  0  0  0
  -22.6975  -31.3013   21.4034 H   0  0  0  0  0  0
  -23.3746  -35.9647   23.3306 H   0  0  0  0  0  0
  -24.3587  -36.8910   22.2053 H   0  0  0  0  0  0
  -23.7263  -37.6518   23.6656 H   0  0  0  0  0  0
  -26.0552  -31.5816   20.5943 H   0  0  0  0  0  0
  -26.8271  -30.8757   21.9851 H   0  0  0  0  0  0
  -28.1128  -29.0691   21.1721 H   0  0  0  0  0  0
  -26.0652  -25.9368   19.0390 H   0  0  0  0  0  0
  -23.9850  -27.2773   19.0419 H   0  0  0  0  0  0
  -23.7396  -30.5882   19.4040 H   0  0  0  0  0  0
  -22.7456  -29.2375   19.8643 H   0  0  0  0  0  0
  -25.1293  -36.1951   25.0831 H   0  0  0  0  0  0
  -20.9967  -28.3200   24.1432 H   0  0  0  0  0  0
  -20.5651  -26.2247   23.3595 H   0  0  0  0  0  0
  -21.6642  -26.7401   22.1208 H   0  0  0  0  0  0
  -19.6898  -25.6282   21.1222 H   0  0  0  0  0  0
  -19.6690  -27.3187   20.6740 H   0  0  0  0  0  0
  -17.4195  -26.6658   21.4019 H   0  0  0  0  0  0
  -18.0322  -26.0043   22.9011 H   0  0  0  0  0  0
  -19.7934  -30.7250   24.2254 H   0  0  0  0  0  0
  -17.5012  -31.6250   24.5152 H   0  0  0  0  0  0
  -15.5349  -30.2962   23.7645 H   0  0  0  0  0  0
  -15.8674  -28.0810   22.7037 H   0  0  0  0  0  0
  -24.5906  -30.7057   25.7788 H   0  0  0  0  0  0
  -24.8925  -32.2865   26.4904 H   0  0  0  0  0  0
  -25.8082  -30.8875   27.0219 H   0  0  0  0  0  0
  -26.2845  -29.6802   24.1147 H   0  0  0  0  0  0
  -27.4065  -29.7265   25.4548 H   0  0  0  0  0  0
  -27.8687  -30.4338   23.9244 H   0  0  0  0  0  0
  -27.2665  -33.3616   26.2071 H   0  0  0  0  0  0
  -28.3862  -32.6886   25.0309 H   0  0  0  0  0  0
  -28.0721  -31.8435   26.5384 H   0  0  0  0  0  0
  -28.2602  -38.0105   24.7500 H   0  0  0  0  0  0
  -28.1079  -36.2639   24.6307 H   0  0  0  0  0  0
  -27.2300  -37.1464   25.8869 H   0  0  0  0  0  0
  -20.9321  -29.8746   21.6957 H   0  0  0  0  0  0
  -26.0181  -38.2854   24.1408 H   0  0  0  0  0  0
  -27.6595  -17.3236   20.1696 H   0  0  0  0  0  0
  -27.3418  -21.5355   20.9316 H   0  0  0  0  0  0
  -31.1281  -18.0859   18.4187 H   0  0  0  0  0  0
  -29.7676  -17.0137   18.1212 H   0  0  0  0  0  0
  -31.3857  -16.3606   18.3477 H   0  0  0  0  0  0
  -28.1200  -25.0862   23.1651 H   0  0  0  0  0  0
  -26.7272  -25.5458   22.1908 H   0  0  0  0  0  0
  -27.8387  -26.7755   22.7991 H   0  0  0  0  0  0
  -33.0382  -19.3319   22.3749 H   0  0  0  0  0  0
  -31.5823  -18.3981   22.7057 H   0  0  0  0  0  0
  -31.6217  -20.1304   23.0530 H   0  0  0  0  0  0
  -28.9312  -24.0947   19.5617 H   0  0  0  0  0  0
  -27.8033  -23.6120   20.7954 H   0  0  0  0  0  0
  -31.3842  -17.1766   20.7140 H   0  0  0  0  0  0
  -29.6288  -25.9555   21.4266 H   0  0  0  0  0  0
  -31.0159  -21.7316   21.6659 H   0  0  0  0  0  0
  -28.9577  -15.5846   20.8061 H   0  0  0  0  0  0
  1 25  1  0  0  0
  1 30  2  0  0  0
  1 85  1  0  0  0
  2  3  1  0  0  0
  2 25  1  0  0  0
  2 89  1  0  0  0
  2 90  1  0  0  0
  3  4  1  0  0  0
  3 91  1  0  0  0
  3 92  1  0  0  0
  4  5  1  0  0  0
  4 93  1  0  0  0
  4 94  1  0  0  0
  5  6  1  0  0  0
  5 26  1  0  0  0
  5 95  1  0  0  0
  6 25  1  0  0  0
  6 96  1  0  0  0
  6 97  1  0  0  0
  7  8  2  0  0  0
  7 26  1  0  0  0
  7 29  1  0  0  0
  8  9  1  0  0  0
  8 22  1  0  0  0
  9 10  1  0  0  0
  9 27  2  0  0  0
 10 11  2  0  0  0
 10 15  1  0  0  0
 11 12  1  0  0  0
 11 98  1  0  0  0
 12 13  2  0  0  0
 12 99  1  0  0  0
 13 14  1  0  0  0
 13 31  1  0  0  0
 14 15  2  0  0  0
 14100  1  0  0  0
 15101  1  0  0  0
 16 17  2  0  0  0
 16 21  1  0  0  0
 16 31  1  0  0  0
 17 18  1  0  0  0
 17102  1  0  0  0
 18 19  2  0  0  0
 18103  1  0  0  0
 19 20  1  0  0  0
 19 24  1  0  0  0
 20 21  2  0  0  0
 20104  1  0  0  0
 21 23  1  0  0  0
 22 28  1  0  0  0
 22 32  2  0  0  0
 26 27  1  0  0  0
 28105  1  0  0  0
 28106  1  0  0  0
 29107  1  0  0  0
 29108  1  0  0  0
 33 34  1  0  0  0
 33 66  1  0  0  0
 33 70  2  0  0  0
 34 36  1  0  0  0
 34 59  1  0  0  0
 34109  1  0  0  0
 35 44  2  0  0  0
 35 45  1  0  0  0
 35 68  1  0  0  0
 36 56  1  0  0  0
 36110  1  0  0  0
 37 39  1  0  0  0
 37 47  1  0  0  0
 37 66  1  0  0  0
 37111  1  0  0  0
 38 43  2  0  0  0
 38 46  1  0  0  0
 38 47  1  0  0  0
 39 64  1  0  0  0
 39 67  2  0  0  0
 40 52  1  0  0  0
 40 53  2  0  0  0
 40 58  1  0  0  0
 41112  1  0  0  0
 41113  1  0  0  0
 41114  1  0  0  0
 41 48  1  0  0  0
 42 43  1  0  0  0
 42 66  1  0  0  0
 42115  1  0  0  0
 42116  1  0  0  0
 43 44  1  0  0  0
 44117  1  0  0  0
 45 46  2  0  0  0
 45118  1  0  0  0
 46119  1  0  0  0
 47120  1  0  0  0
 47121  1  0  0  0
 48 56  1  0  0  0
 48 65  1  0  0  0
 48122  1  0  0  0
 49 50  1  0  0  0
 49 53  1  0  0  0
 49 64  1  0  0  0
 49123  1  0  0  0
 50 51  1  0  0  0
 50124  1  0  0  0
 50125  1  0  0  0
 51 52  1  0  0  0
 51126  1  0  0  0
 51127  1  0  0  0
 52128  1  0  0  0
 52129  1  0  0  0
 53 54  1  0  0  0
 54 55  2  0  0  0
 54130  1  0  0  0
 55 57  1  0  0  0
 55131  1  0  0  0
 56 69  2  0  0  0
 57 58  2  0  0  0
 57132  1  0  0  0
 58133  1  0  0  0
 59 60  1  0  0  0
 59 61  1  0  0  0
 59 62  1  0  0  0
 60134  1  0  0  0
 60135  1  0  0  0
 60136  1  0  0  0
 61137  1  0  0  0
 61138  1  0  0  0
 61139  1  0  0  0
 62140  1  0  0  0
 62141  1  0  0  0
 62142  1  0  0  0
 63 65  1  0  0  0
 63143  1  0  0  0
 63144  1  0  0  0
 63145  1  0  0  0
 64146  1  0  0  0
 65147  1  0  0  0
 68 83  1  0  0  0
 71 73  2  0  0  0
 71 76  1  0  0  0
 71148  1  0  0  0
 72 74  1  0  0  0
 72 76  2  0  0  0
 72149  1  0  0  0
 73 75  1  0  0  0
 73 82  1  0  0  0
 74 75  2  0  0  0
 74 84  1  0  0  0
 75 87  1  0  0  0
 76 88  1  0  0  0
 77 81  1  0  0  0
 77 84  1  0  0  0
 77 86  2  0  0  0
 78150  1  0  0  0
 78151  1  0  0  0
 78152  1  0  0  0
 78 82  1  0  0  0
 79153  1  0  0  0
 79154  1  0  0  0
 79155  1  0  0  0
 79 83  1  0  0  0
 80 87  1  0  0  0
 80156  1  0  0  0
 80157  1  0  0  0
 80158  1  0  0  0
 81 83  1  0  0  0
 81159  1  0  0  0
 81160  1  0  0  0
 82 85  1  0  0  0
 82161  1  0  0  0
 83162  1  0  0  0
 84163  1  0  0  0
 85164  1  0  0  0
M  ISO  4   1 100  68 101  83 101  85 100
M  END
> <chiral flag>
0

> <version>
0

> <s_m_source_file>
/data/baiqing/PycharmProjects/Reinvent-master-3.2/result/LINK_invent/BTK/process_docking_weight1_custom_product_contain_oxygen_bond_distance_aromatic_linkinvent_7_9_3/rearranged_h_0139.sdf

> <i_m_source_file_index>
4

> <r_mmod_Potential_Energy-OPLS-2005>
1.39241480827332

> <r_mmod_Stretch_Energy-OPLS-2005>
56.6434020996094

> <r_mmod_Bend_Energy-OPLS-2005>
170.379913330078

> <r_mmod_Torsional_Energy-OPLS-2005>
282.671203613281

> <r_mmod_Improper_Torsional_Energy-OPLS-2005>
8.68523120880127

> <r_mmod_Van_der_Waal_Energy-OPLS-2005>
142.419067382812

> <r_mmod_Electrostatic_Energy-OPLS-2005>
-472.656524658203

> <r_mmod_Solvation_Energy-OPLS-2005>
-215.408584594727

> <b_mmod_Minimization_Converged-OPLS-2005>
0

> <r_mmod_RMS_Derivative-OPLS-2005>
1.13164627552032

$$$$
4
                    3D
 Structure written by MMmdl.
160168  0  0  1  0            999 V2000
  -30.5608  -14.7864   20.4580 C   0  0  0  0  0  0
  -30.4497  -12.4820   19.5201 C   0  0  0  0  0  0
  -29.5332  -12.5343   18.2752 C   0  0  0  0  0  0
  -28.0791  -12.2751   18.6976 C   0  0  0  0  0  0
  -27.6459  -13.2169   19.8489 C   0  0  2  0  0  0
  -28.6615  -13.2135   21.0119 C   0  0  0  0  0  0
  -25.2545  -13.8155   20.5599 C   0  0  0  0  0  0
  -24.1787  -13.0420   20.9163 C   0  0  0  0  0  0
  -24.6389  -11.6921   20.8745 C   0  0  0  0  0  0
  -23.9057  -10.4289   21.0401 C   0  0  0  0  0  0
  -24.3622   -9.4224   21.9185 C   0  0  0  0  0  0
  -23.6307   -8.2251   22.0763 C   0  0  0  0  0  0
  -22.4275   -8.0285   21.3555 C   0  0  0  0  0  0
  -21.9900   -9.0243   20.4657 C   0  0  0  0  0  0
  -22.7228  -10.2145   20.3058 C   0  0  0  0  0  0
  -21.6875   -6.0755   22.5279 C   0  0  0  0  0  0
  -21.4010   -6.5649   23.8199 C   0  0  0  0  0  0
  -21.3651   -5.6825   24.9159 C   0  0  0  0  0  0
  -21.6034   -4.3067   24.7231 C   0  0  0  0  0  0
  -21.8837   -3.8162   23.4335 C   0  0  0  0  0  0
  -21.9200   -4.6983   22.3393 C   0  0  0  0  0  0
  -22.7839  -13.5235   21.1840 C   0  0  0  0  0  0
  -22.1676   -4.2151   21.0984 F   0  0  0  0  0  0
  -21.5625   -3.4548   25.7745 F   0  0  0  0  0  0
  -29.9871  -13.5360   20.4631 N   0  0  0  0  0  0
  -26.2938  -12.9345   20.3195 N   0  0  0  0  0  0
  -25.9305  -11.6508   20.5701 N   0  0  0  0  0  0
  -22.0492  -12.8189   22.0407 N   0  0  0  0  0  0
  -25.4196  -15.1883   20.3947 N   0  0  0  0  0  0
  -31.7112  -14.9248   20.0182 O   0  0  0  0  0  0
  -21.6648   -6.8875   21.4235 O   0  0  0  0  0  0
  -22.3544  -14.5508   20.6706 O   0  0  0  0  0  0
  -24.6423  -31.8497   23.1874 C   0  0  0  0  0  0
  -25.9143  -32.4807   23.8284 C   0  0  1  0  0  0
  -27.2305  -27.2313   20.1659 C   0  0  0  0  0  0
  -25.5889  -33.8599   24.2259 N   0  0  0  0  0  0
  -23.4458  -30.4600   21.5480 C   0  0  2  0  0  0
  -24.8823  -28.8793   20.1523 C   0  0  0  0  0  0
  -22.7530  -29.4579   22.4991 C   0  0  0  0  0  0
  -18.0390  -28.1241   22.8488 C   0  0  0  0  0  0
  -24.1487  -36.7378   23.2645 C   0  0  0  0  0  0
  -25.9836  -30.7693   21.3447 C   0  0  0  0  0  0
  -26.0679  -29.3762   20.7166 C   0  0  0  0  0  0
  -27.2504  -28.5755   20.6885 C   0  0  0  0  0  0
  -26.0152  -26.7868   19.6260 C   0  0  0  0  0  0
  -24.8572  -27.5873   19.6042 C   0  0  0  0  0  0
  -23.6677  -29.7765   20.1751 C   0  0  0  0  0  0
  -25.4093  -36.3163   24.0361 C   0  0  1  0  0  0
  -20.5956  -28.3678   23.1253 C   0  0  2  0  0  0
  -20.7030  -26.9511   22.5041 C   0  0  0  0  0  0
  -19.5792  -26.6208   21.5154 C   0  0  0  0  0  0
  -18.2058  -26.7751   22.1684 C   0  0  0  0  0  0
  -19.1596  -28.8749   23.2893 C   0  0  0  0  0  0
  -18.9498  -30.1309   23.8955 C   0  0  0  0  0  0
  -17.6480  -30.6448   24.0614 C   0  0  0  0  0  0
  -25.9028  -34.9518   23.5152 C   0  0  0  0  0  0
  -16.5410  -29.8928   23.6340 C   0  0  0  0  0  0
  -16.7359  -28.6372   23.0348 C   0  0  0  0  0  0
  -26.4509  -31.6648   25.0712 C   0  0  0  0  0  0
  -25.3733  -31.3805   26.1448 C   0  0  0  0  0  0
  -27.0271  -30.3070   24.6118 C   0  0  0  0  0  0
  -27.6128  -32.4331   25.7513 C   0  0  0  0  0  0
  -27.5586  -37.1852   24.8441 C   0  0  0  0  0  0
  -21.4178  -29.3312   22.3940 N   0  0  0  0  0  0
  -26.4282  -37.3847   23.9424 N   0  0  0  0  0  0
  -24.7185  -31.0453   22.0883 N   0  0  0  0  0  0
  -23.4188  -28.7817   23.2912 O   0  0  0  0  0  0
  -28.3412  -26.3514   20.1128 O   0  0  0  0  0  0
  -26.5642  -34.8973   22.4737 O   0  0  0  0  0  0
  -23.5558  -32.1254   23.7138 O   0  0  0  0  0  0
  -29.1286  -17.1567   18.7946 C   0  0  0  0  0  0
  -28.7268  -19.5960   18.7621 C   0  0  0  0  0  0
  -29.4272  -18.4753   20.8014 C   0  0  0  0  0  0
  -28.6868  -18.3296   18.1244 C   0  0  0  0  0  0
  -29.5313  -17.1747   20.1607 C   0  0  0  0  0  0
  -29.0590  -19.7143   20.1284 C   0  0  0  0  0  0
  -28.0547  -18.2333   16.7416 C   0  0  0  0  0  0
  -27.6447  -23.6270   18.6202 C   0  0  0  0  0  0
  -26.7001  -23.0484   20.8173 C   0  0  0  0  0  0
  -28.3305  -24.9860   20.7697 C   0  0  0  0  0  0
  -29.1212  -22.3158   20.2473 C   0  0  0  0  0  0
  -27.9951  -23.5059   20.1151 C   0  0  0  0  0  0
  -29.8017  -15.8844   20.8638 N   0  0  0  0  0  0
  -28.8814  -20.9461   20.8191 O   0  0  0  0  0  0
  -31.4893  -12.6250   19.2068 H   0  0  0  0  0  0
  -30.4275  -11.4988   19.9983 H   0  0  0  0  0  0
  -29.8605  -11.8168   17.5218 H   0  0  0  0  0  0
  -29.6087  -13.5230   17.8182 H   0  0  0  0  0  0
  -28.0190  -11.2379   19.0364 H   0  0  0  0  0  0
  -27.4062  -12.3488   17.8447 H   0  0  0  0  0  0
  -27.6323  -14.2215   19.4259 H   0  0  0  0  0  0
  -28.6734  -12.2641   21.5489 H   0  0  0  0  0  0
  -28.3539  -13.9634   21.7446 H   0  0  0  0  0  0
  -25.2770   -9.5731   22.4732 H   0  0  0  0  0  0
  -24.0035   -7.4669   22.7489 H   0  0  0  0  0  0
  -21.0820   -8.8766   19.8960 H   0  0  0  0  0  0
  -22.3667  -10.9685   19.6154 H   0  0  0  0  0  0
  -21.2003   -7.6153   23.9698 H   0  0  0  0  0  0
  -21.1449   -6.0536   25.9064 H   0  0  0  0  0  0
  -22.0614   -2.7610   23.2842 H   0  0  0  0  0  0
  -22.4110  -11.9873   22.4813 H   0  0  0  0  0  0
  -21.1109  -13.1231   22.2590 H   0  0  0  0  0  0
  -24.6398  -15.8297   20.4921 H   0  0  0  0  0  0
  -26.2616  -15.6387   20.0530 H   0  0  0  0  0  0
  -26.7223  -32.5394   23.1025 H   0  0  0  0  0  0
  -24.9949  -33.9720   25.0356 H   0  0  0  0  0  0
  -22.7530  -31.2887   21.3867 H   0  0  0  0  0  0
  -23.3764  -35.9700   23.3290 H   0  0  0  0  0  0
  -24.3572  -36.9009   22.2060 H   0  0  0  0  0  0
  -23.7199  -37.6568   23.6653 H   0  0  0  0  0  0
  -26.0621  -31.5021   20.5438 H   0  0  0  0  0  0
  -26.8823  -30.8600   21.9454 H   0  0  0  0  0  0
  -28.1688  -28.9770   21.0922 H   0  0  0  0  0  0
  -25.9482  -25.7764   19.2596 H   0  0  0  0  0  0
  -23.9397  -27.1683   19.2177 H   0  0  0  0  0  0
  -23.8223  -30.5457   19.4191 H   0  0  0  0  0  0
  -22.7856  -29.2258   19.8446 H   0  0  0  0  0  0
  -25.1267  -36.2091   25.0865 H   0  0  0  0  0  0
  -21.0062  -28.3089   24.1357 H   0  0  0  0  0  0
  -20.6551  -26.2198   23.3117 H   0  0  0  0  0  0
  -21.6789  -26.7988   22.0403 H   0  0  0  0  0  0
  -19.6986  -25.6014   21.1437 H   0  0  0  0  0  0
  -19.6558  -27.2776   20.6475 H   0  0  0  0  0  0
  -17.4226  -26.6376   21.4221 H   0  0  0  0  0  0
  -18.0662  -25.9924   22.9167 H   0  0  0  0  0  0
  -19.7979  -30.7087   24.2408 H   0  0  0  0  0  0
  -17.5024  -31.6057   24.5306 H   0  0  0  0  0  0
  -15.5406  -30.2759   23.7678 H   0  0  0  0  0  0
  -15.8774  -28.0629   22.7091 H   0  0  0  0  0  0
  -24.5990  -30.7075   25.7774 H   0  0  0  0  0  0
  -24.8833  -32.2965   26.4764 H   0  0  0  0  0  0
  -25.8050  -30.9086   27.0278 H   0  0  0  0  0  0
  -26.2764  -29.6913   24.1182 H   0  0  0  0  0  0
  -27.3975  -29.7276   25.4564 H   0  0  0  0  0  0
  -27.8626  -30.4351   23.9246 H   0  0  0  0  0  0
  -27.2818  -33.3643   26.2103 H   0  0  0  0  0  0
  -28.3962  -32.6836   25.0369 H   0  0  0  0  0  0
  -28.0768  -31.8421   26.5416 H   0  0  0  0  0  0
  -28.2638  -38.0126   24.7508 H   0  0  0  0  0  0
  -28.1055  -36.2672   24.6248 H   0  0  0  0  0  0
  -27.2318  -37.1494   25.8843 H   0  0  0  0  0  0
  -20.9288  -29.9681   21.7750 H   0  0  0  0  0  0
  -26.0222  -38.2959   24.1392 H   0  0  0  0  0  0
  -29.0904  -16.2133   18.2677 H   0  0  0  0  0  0
  -28.4198  -20.4751   18.2104 H   0  0  0  0  0  0
  -29.6224  -18.5301   21.8608 H   0  0  0  0  0  0
  -27.8520  -17.2004   16.4610 H   0  0  0  0  0  0
  -28.6779  -18.6735   15.9642 H   0  0  0  0  0  0
  -27.0920  -18.7531   16.7353 H   0  0  0  0  0  0
  -26.6361  -24.0038   18.4745 H   0  0  0  0  0  0
  -27.6660  -22.6483   18.1429 H   0  0  0  0  0  0
  -28.3380  -24.2758   18.0853 H   0  0  0  0  0  0
  -26.8854  -22.7909   21.8633 H   0  0  0  0  0  0
  -26.2191  -22.1980   20.3300 H   0  0  0  0  0  0
  -25.9745  -23.8623   20.8037 H   0  0  0  0  0  0
  -27.7274  -25.1040   21.6736 H   0  0  0  0  0  0
  -29.3174  -24.8987   21.2187 H   0  0  0  0  0  0
  -29.8695  -22.7212   20.9250 H   0  0  0  0  0  0
  -29.6901  -22.2143   19.3228 H   0  0  0  0  0  0
  -29.0833  -15.6221   21.5214 H   0  0  0  0  0  0
  1 25  1  0  0  0
  1 30  2  0  0  0
  1 83  1  0  0  0
  2  3  1  0  0  0
  2 25  1  0  0  0
  2 85  1  0  0  0
  2 86  1  0  0  0
  3  4  1  0  0  0
  3 87  1  0  0  0
  3 88  1  0  0  0
  4  5  1  0  0  0
  4 89  1  0  0  0
  4 90  1  0  0  0
  5  6  1  0  0  0
  5 26  1  0  0  0
  5 91  1  0  0  0
  6 25  1  0  0  0
  6 92  1  0  0  0
  6 93  1  0  0  0
  7  8  2  0  0  0
  7 26  1  0  0  0
  7 29  1  0  0  0
  8  9  1  0  0  0
  8 22  1  0  0  0
  9 10  1  0  0  0
  9 27  2  0  0  0
 10 11  2  0  0  0
 10 15  1  0  0  0
 11 12  1  0  0  0
 11 94  1  0  0  0
 12 13  2  0  0  0
 12 95  1  0  0  0
 13 14  1  0  0  0
 13 31  1  0  0  0
 14 15  2  0  0  0
 14 96  1  0  0  0
 15 97  1  0  0  0
 16 17  2  0  0  0
 16 21  1  0  0  0
 16 31  1  0  0  0
 17 18  1  0  0  0
 17 98  1  0  0  0
 18 19  2  0  0  0
 18 99  1  0  0  0
 19 20  1  0  0  0
 19 24  1  0  0  0
 20 21  2  0  0  0
 20100  1  0  0  0
 21 23  1  0  0  0
 22 28  1  0  0  0
 22 32  2  0  0  0
 26 27  1  0  0  0
 28101  1  0  0  0
 28102  1  0  0  0
 29103  1  0  0  0
 29104  1  0  0  0
 33 34  1  0  0  0
 33 66  1  0  0  0
 33 70  2  0  0  0
 34 36  1  0  0  0
 34 59  1  0  0  0
 34105  1  0  0  0
 35 44  2  0  0  0
 35 45  1  0  0  0
 35 68  1  0  0  0
 36 56  1  0  0  0
 36106  1  0  0  0
 37 39  1  0  0  0
 37 47  1  0  0  0
 37 66  1  0  0  0
 37107  1  0  0  0
 38 43  2  0  0  0
 38 46  1  0  0  0
 38 47  1  0  0  0
 39 64  1  0  0  0
 39 67  2  0  0  0
 40 52  1  0  0  0
 40 53  2  0  0  0
 40 58  1  0  0  0
 41108  1  0  0  0
 41109  1  0  0  0
 41110  1  0  0  0
 41 48  1  0  0  0
 42 43  1  0  0  0
 42 66  1  0  0  0
 42111  1  0  0  0
 42112  1  0  0  0
 43 44  1  0  0  0
 44113  1  0  0  0
 45 46  2  0  0  0
 45114  1  0  0  0
 46115  1  0  0  0
 47116  1  0  0  0
 47117  1  0  0  0
 48 56  1  0  0  0
 48 65  1  0  0  0
 48118  1  0  0  0
 49 50  1  0  0  0
 49 53  1  0  0  0
 49 64  1  0  0  0
 49119  1  0  0  0
 50 51  1  0  0  0
 50120  1  0  0  0
 50121  1  0  0  0
 51 52  1  0  0  0
 51122  1  0  0  0
 51123  1  0  0  0
 52124  1  0  0  0
 52125  1  0  0  0
 53 54  1  0  0  0
 54 55  2  0  0  0
 54126  1  0  0  0
 55 57  1  0  0  0
 55127  1  0  0  0
 56 69  2  0  0  0
 57 58  2  0  0  0
 57128  1  0  0  0
 58129  1  0  0  0
 59 60  1  0  0  0
 59 61  1  0  0  0
 59 62  1  0  0  0
 60130  1  0  0  0
 60131  1  0  0  0
 60132  1  0  0  0
 61133  1  0  0  0
 61134  1  0  0  0
 61135  1  0  0  0
 62136  1  0  0  0
 62137  1  0  0  0
 62138  1  0  0  0
 63 65  1  0  0  0
 63139  1  0  0  0
 63140  1  0  0  0
 63141  1  0  0  0
 64142  1  0  0  0
 65143  1  0  0  0
 68 80  1  0  0  0
 71 74  2  0  0  0
 71 75  1  0  0  0
 71144  1  0  0  0
 72 74  1  0  0  0
 72 76  2  0  0  0
 72145  1  0  0  0
 73 75  2  0  0  0
 73 76  1  0  0  0
 73146  1  0  0  0
 74 77  1  0  0  0
 75 83  1  0  0  0
 76 84  1  0  0  0
 77147  1  0  0  0
 77148  1  0  0  0
 77149  1  0  0  0
 78150  1  0  0  0
 78151  1  0  0  0
 78152  1  0  0  0
 78 82  1  0  0  0
 79 82  1  0  0  0
 79153  1  0  0  0
 79154  1  0  0  0
 79155  1  0  0  0
 80 82  1  0  0  0
 80156  1  0  0  0
 80157  1  0  0  0
 81 82  1  0  0  0
 81 84  1  0  0  0
 81158  1  0  0  0
 81159  1  0  0  0
 83160  1  0  0  0
M  ISO  4   1 100  68 101  80 101  83 100
M  END
> <chiral flag>
0

> <version>
0

> <s_m_source_file>
/data/baiqing/PycharmProjects/Reinvent-master-3.2/result/LINK_invent/BTK/process_docking_weight1_custom_product_contain_oxygen_bond_distance_aromatic_linkinvent_7_9_3/rearranged_h_0139.sdf

> <i_m_source_file_index>
5

> <r_mmod_Potential_Energy-OPLS-2005>
364.525054931641

> <r_mmod_Stretch_Energy-OPLS-2005>
145.093276977539

> <r_mmod_Bend_Energy-OPLS-2005>
214.847991943359

> <r_mmod_Torsional_Energy-OPLS-2005>
315.375091552734

> <r_mmod_Improper_Torsional_Energy-OPLS-2005>
6.75856065750122

> <r_mmod_Van_der_Waal_Energy-OPLS-2005>
130.140213012695

> <r_mmod_Electrostatic_Energy-OPLS-2005>
-352.952178955078

> <r_mmod_Solvation_Energy-OPLS-2005>
-206.00114440918

> <b_mmod_Minimization_Converged-OPLS-2005>
0

> <r_mmod_RMS_Derivative-OPLS-2005>
12.3332052230835

$$$$
5
                    3D
 Structure written by MMmdl.
151159  0  0  1  0            999 V2000
  -30.6981  -14.4640   20.5725 C   0  0  0  0  0  0
  -30.4244  -12.2998   19.4237 C   0  0  0  0  0  0
  -29.4964  -12.5057   18.2082 C   0  0  0  0  0  0
  -28.0170  -12.3661   18.6193 C   0  0  0  0  0  0
  -27.6639  -13.2042   19.8770 C   0  0  2  0  0  0
  -28.7038  -12.9758   20.9977 C   0  0  0  0  0  0
  -25.2599  -13.8158   20.5677 C   0  0  0  0  0  0
  -24.1845  -13.0439   20.9173 C   0  0  0  0  0  0
  -24.6391  -11.6903   20.8730 C   0  0  0  0  0  0
  -23.9054  -10.4294   21.0405 C   0  0  0  0  0  0
  -24.3610   -9.4208   21.9181 C   0  0  0  0  0  0
  -23.6289   -8.2242   22.0750 C   0  0  0  0  0  0
  -22.4270   -8.0281   21.3546 C   0  0  0  0  0  0
  -21.9901   -9.0255   20.4650 C   0  0  0  0  0  0
  -22.7226  -10.2136   20.3057 C   0  0  0  0  0  0
  -21.6852   -6.0736   22.5281 C   0  0  0  0  0  0
  -21.4014   -6.5639   23.8214 C   0  0  0  0  0  0
  -21.3659   -5.6792   24.9177 C   0  0  0  0  0  0
  -21.6043   -4.3055   24.7226 C   0  0  0  0  0  0
  -21.8820   -3.8147   23.4347 C   0  0  0  0  0  0
  -21.9192   -4.6965   22.3404 C   0  0  0  0  0  0
  -22.7869  -13.5243   21.1840 C   0  0  0  0  0  0
  -22.1661   -4.2150   21.0982 F   0  0  0  0  0  0
  -21.5629   -3.4539   25.7737 F   0  0  0  0  0  0
  -30.0381  -13.2799   20.4509 N   0  0  0  0  0  0
  -26.3034  -12.9323   20.3369 N   0  0  0  0  0  0
  -25.9317  -11.6484   20.5758 N   0  0  0  0  0  0
  -22.0507  -12.8247   22.0405 N   0  0  0  0  0  0
  -25.4339  -15.1875   20.4092 N   0  0  0  0  0  0
  -31.8227  -14.6472   20.0963 O   0  0  0  0  0  0
  -21.6635   -6.8877   21.4240 O   0  0  0  0  0  0
  -22.3557  -14.5551   20.6688 O   0  0  0  0  0  0
  -24.6136  -31.8683   23.2106 C   0  0  0  0  0  0
  -25.9027  -32.4828   23.8406 C   0  0  1  0  0  0
  -27.2330  -27.4416   20.1022 C   0  0  0  0  0  0
  -25.5882  -33.8626   24.2332 N   0  0  0  0  0  0
  -23.4026  -30.4916   21.5502 C   0  0  2  0  0  0
  -24.8511  -28.9595   20.1133 C   0  0  0  0  0  0
  -22.7410  -29.4654   22.4984 C   0  0  0  0  0  0
  -18.0272  -28.1381   22.8491 C   0  0  0  0  0  0
  -24.1485  -36.7324   23.2640 C   0  0  0  0  0  0
  -25.9311  -30.8370   21.3636 C   0  0  0  0  0  0
  -26.0107  -29.4726   20.7096 C   0  0  0  0  0  0
  -27.2089  -28.7219   20.6986 C   0  0  0  0  0  0
  -26.0620  -26.9440   19.4930 C   0  0  0  0  0  0
  -24.8712  -27.6942   19.5006 C   0  0  0  0  0  0
  -23.6118  -29.8245   20.1644 C   0  0  0  0  0  0
  -25.4105  -36.3118   24.0340 C   0  0  1  0  0  0
  -20.5862  -28.3663   23.1322 C   0  0  2  0  0  0
  -20.6758  -26.9398   22.5426 C   0  0  0  0  0  0
  -19.5740  -26.6387   21.5217 C   0  0  0  0  0  0
  -18.1919  -26.7926   22.1625 C   0  0  0  0  0  0
  -19.1522  -28.8838   23.2905 C   0  0  0  0  0  0
  -18.9448  -30.1443   23.8917 C   0  0  0  0  0  0
  -17.6451  -30.6584   24.0570 C   0  0  0  0  0  0
  -25.9027  -34.9479   23.5135 C   0  0  0  0  0  0
  -16.5342  -29.9090   23.6325 C   0  0  0  0  0  0
  -16.7262  -28.6508   23.0342 C   0  0  0  0  0  0
  -26.4453  -31.6610   25.0735 C   0  0  0  0  0  0
  -25.3723  -31.3741   26.1497 C   0  0  0  0  0  0
  -27.0268  -30.3043   24.6118 C   0  0  0  0  0  0
  -27.6047  -32.4322   25.7477 C   0  0  0  0  0  0
  -27.5585  -37.1813   24.8462 C   0  0  0  0  0  0
  -21.4138  -29.3031   22.3727 N   0  0  0  0  0  0
  -26.4296  -37.3797   23.9406 N   0  0  0  0  0  0
  -24.6672  -31.0795   22.0999 N   0  0  0  0  0  0
  -23.4184  -28.8194   23.3023 O   0  0  0  0  0  0
  -28.3744  -26.6725   20.1158 O   0  0  0  0  0  0
  -26.5595  -34.8924   22.4700 O   0  0  0  0  0  0
  -23.5327  -32.1427   23.7500 O   0  0  0  0  0  0
  -30.9656  -18.9515   20.4862 C   0  0  0  0  0  0
  -31.1800  -17.5393   20.4741 C   0  0  0  0  0  0
  -29.7702  -19.3336   21.0486 C   0  0  0  0  0  0
  -30.1509  -16.8066   21.0221 C   0  0  0  0  0  0
  -29.6433  -21.7654   20.7440 C   0  0  0  0  0  0
  -28.8592  -23.0048   21.2144 C   0  0  0  0  0  0
  -29.0451  -24.2865   20.3557 C   0  0  0  0  0  0
  -28.2598  -25.4888   20.9232 C   0  0  0  0  0  0
  -29.2386  -20.5768   21.2393 N   0  0  0  0  0  0
  -29.9885  -15.4555   21.1499 N   0  0  0  0  0  0
  -30.5832  -21.8945   19.9558 O   0  0  0  0  0  0
  -28.9086  -17.9051   21.5892 S   0  0  0  0  0  0
  -31.4692  -12.3970   19.1231 H   0  0  0  0  0  0
  -30.3224  -11.2868   19.8161 H   0  0  0  0  0  0
  -29.7362  -11.7856   17.4247 H   0  0  0  0  0  0
  -29.6664  -13.4936   17.7772 H   0  0  0  0  0  0
  -27.8273  -11.3100   18.8145 H   0  0  0  0  0  0
  -27.3669  -12.6414   17.7878 H   0  0  0  0  0  0
  -27.7115  -14.2531   19.5831 H   0  0  0  0  0  0
  -28.6766  -11.9374   21.3311 H   0  0  0  0  0  0
  -28.4632  -13.5671   21.8820 H   0  0  0  0  0  0
  -25.2758   -9.5684   22.4747 H   0  0  0  0  0  0
  -24.0004   -7.4633   22.7464 H   0  0  0  0  0  0
  -21.0832   -8.8775   19.8960 H   0  0  0  0  0  0
  -22.3684  -10.9674   19.6167 H   0  0  0  0  0  0
  -21.2005   -7.6146   23.9717 H   0  0  0  0  0  0
  -21.1481   -6.0521   25.9079 H   0  0  0  0  0  0
  -22.0598   -2.7609   23.2847 H   0  0  0  0  0  0
  -22.4117  -11.9908   22.4800 H   0  0  0  0  0  0
  -21.1129  -13.1287   22.2611 H   0  0  0  0  0  0
  -24.6688  -15.8448   20.5154 H   0  0  0  0  0  0
  -26.2894  -15.6249   20.0904 H   0  0  0  0  0  0
  -26.7102  -32.5543   23.1179 H   0  0  0  0  0  0
  -25.0017  -33.9790   25.0466 H   0  0  0  0  0  0
  -22.6912  -31.3083   21.4113 H   0  0  0  0  0  0
  -23.3735  -35.9672   23.3325 H   0  0  0  0  0  0
  -24.3579  -36.8912   22.2049 H   0  0  0  0  0  0
  -23.7252  -37.6545   23.6634 H   0  0  0  0  0  0
  -26.0447  -31.6046   20.5967 H   0  0  0  0  0  0
  -26.8181  -30.8889   21.9836 H   0  0  0  0  0  0
  -28.1044  -29.1109   21.1627 H   0  0  0  0  0  0
  -26.0711  -25.9714   19.0210 H   0  0  0  0  0  0
  -23.9805  -27.2941   19.0360 H   0  0  0  0  0  0
  -23.7191  -30.5999   19.4050 H   0  0  0  0  0  0
  -22.7366  -29.2433   19.8690 H   0  0  0  0  0  0
  -25.1281  -36.1991   25.0835 H   0  0  0  0  0  0
  -20.9959  -28.3228   24.1441 H   0  0  0  0  0  0
  -20.5650  -26.2270   23.3613 H   0  0  0  0  0  0
  -21.6629  -26.7433   22.1229 H   0  0  0  0  0  0
  -19.6899  -25.6300   21.1239 H   0  0  0  0  0  0
  -19.6685  -27.3205   20.6753 H   0  0  0  0  0  0
  -17.4190  -26.6679   21.4024 H   0  0  0  0  0  0
  -18.0316  -26.0068   22.9021 H   0  0  0  0  0  0
  -19.7924  -30.7253   24.2297 H   0  0  0  0  0  0
  -17.5008  -31.6265   24.5172 H   0  0  0  0  0  0
  -15.5343  -30.2998   23.7638 H   0  0  0  0  0  0
  -15.8663  -28.0839   22.7037 H   0  0  0  0  0  0
  -24.5869  -30.7110   25.7849 H   0  0  0  0  0  0
  -24.8941  -32.2908   26.4957 H   0  0  0  0  0  0
  -25.8073  -30.8902   27.0250 H   0  0  0  0  0  0
  -26.2812  -29.6827   24.1144 H   0  0  0  0  0  0
  -27.3991  -29.7262   25.4587 H   0  0  0  0  0  0
  -27.8673  -30.4351   23.9298 H   0  0  0  0  0  0
  -27.2682  -33.3605   26.2106 H   0  0  0  0  0  0
  -28.3816  -32.6911   25.0271 H   0  0  0  0  0  0
  -28.0763  -31.8417   26.5341 H   0  0  0  0  0  0
  -28.2621  -38.0092   24.7487 H   0  0  0  0  0  0
  -28.1058  -36.2623   24.6303 H   0  0  0  0  0  0
  -27.2308  -37.1495   25.8868 H   0  0  0  0  0  0
  -20.9291  -29.8764   21.6965 H   0  0  0  0  0  0
  -26.0191  -38.2881   24.1393 H   0  0  0  0  0  0
  -31.7060  -19.6262   20.0810 H   0  0  0  0  0  0
  -32.0853  -17.1277   20.0513 H   0  0  0  0  0  0
  -29.1606  -23.2127   22.2417 H   0  0  0  0  0  0
  -27.7993  -22.7503   21.2513 H   0  0  0  0  0  0
  -28.7151  -24.0887   19.3353 H   0  0  0  0  0  0
  -30.1026  -24.5456   20.2946 H   0  0  0  0  0  0
  -28.6340  -25.7295   21.9190 H   0  0  0  0  0  0
  -27.2200  -25.1875   21.0644 H   0  0  0  0  0  0
  -28.4188  -20.6137   21.8308 H   0  0  0  0  0  0
  -29.1155  -15.1567   21.5583 H   0  0  0  0  0  0
  1 25  1  0  0  0
  1 30  2  0  0  0
  1 80  1  0  0  0
  2  3  1  0  0  0
  2 25  1  0  0  0
  2 83  1  0  0  0
  2 84  1  0  0  0
  3  4  1  0  0  0
  3 85  1  0  0  0
  3 86  1  0  0  0
  4  5  1  0  0  0
  4 87  1  0  0  0
  4 88  1  0  0  0
  5  6  1  0  0  0
  5 26  1  0  0  0
  5 89  1  0  0  0
  6 25  1  0  0  0
  6 90  1  0  0  0
  6 91  1  0  0  0
  7  8  2  0  0  0
  7 26  1  0  0  0
  7 29  1  0  0  0
  8  9  1  0  0  0
  8 22  1  0  0  0
  9 10  1  0  0  0
  9 27  2  0  0  0
 10 11  2  0  0  0
 10 15  1  0  0  0
 11 12  1  0  0  0
 11 92  1  0  0  0
 12 13  2  0  0  0
 12 93  1  0  0  0
 13 14  1  0  0  0
 13 31  1  0  0  0
 14 15  2  0  0  0
 14 94  1  0  0  0
 15 95  1  0  0  0
 16 17  2  0  0  0
 16 21  1  0  0  0
 16 31  1  0  0  0
 17 18  1  0  0  0
 17 96  1  0  0  0
 18 19  2  0  0  0
 18 97  1  0  0  0
 19 20  1  0  0  0
 19 24  1  0  0  0
 20 21  2  0  0  0
 20 98  1  0  0  0
 21 23  1  0  0  0
 22 28  1  0  0  0
 22 32  2  0  0  0
 26 27  1  0  0  0
 28 99  1  0  0  0
 28100  1  0  0  0
 29101  1  0  0  0
 29102  1  0  0  0
 33 34  1  0  0  0
 33 66  1  0  0  0
 33 70  2  0  0  0
 34 36  1  0  0  0
 34 59  1  0  0  0
 34103  1  0  0  0
 35 44  2  0  0  0
 35 45  1  0  0  0
 35 68  1  0  0  0
 36 56  1  0  0  0
 36104  1  0  0  0
 37 39  1  0  0  0
 37 47  1  0  0  0
 37 66  1  0  0  0
 37105  1  0  0  0
 38 43  2  0  0  0
 38 46  1  0  0  0
 38 47  1  0  0  0
 39 64  1  0  0  0
 39 67  2  0  0  0
 40 52  1  0  0  0
 40 53  2  0  0  0
 40 58  1  0  0  0
 41106  1  0  0  0
 41107  1  0  0  0
 41108  1  0  0  0
 41 48  1  0  0  0
 42 43  1  0  0  0
 42 66  1  0  0  0
 42109  1  0  0  0
 42110  1  0  0  0
 43 44  1  0  0  0
 44111  1  0  0  0
 45 46  2  0  0  0
 45112  1  0  0  0
 46113  1  0  0  0
 47114  1  0  0  0
 47115  1  0  0  0
 48 56  1  0  0  0
 48 65  1  0  0  0
 48116  1  0  0  0
 49 50  1  0  0  0
 49 53  1  0  0  0
 49 64  1  0  0  0
 49117  1  0  0  0
 50 51  1  0  0  0
 50118  1  0  0  0
 50119  1  0  0  0
 51 52  1  0  0  0
 51120  1  0  0  0
 51121  1  0  0  0
 52122  1  0  0  0
 52123  1  0  0  0
 53 54  1  0  0  0
 54 55  2  0  0  0
 54124  1  0  0  0
 55 57  1  0  0  0
 55125  1  0  0  0
 56 69  2  0  0  0
 57 58  2  0  0  0
 57126  1  0  0  0
 58127  1  0  0  0
 59 60  1  0  0  0
 59 61  1  0  0  0
 59 62  1  0  0  0
 60128  1  0  0  0
 60129  1  0  0  0
 60130  1  0  0  0
 61131  1  0  0  0
 61132  1  0  0  0
 61133  1  0  0  0
 62134  1  0  0  0
 62135  1  0  0  0
 62136  1  0  0  0
 63 65  1  0  0  0
 63137  1  0  0  0
 63138  1  0  0  0
 63139  1  0  0  0
 64140  1  0  0  0
 65141  1  0  0  0
 68 78  1  0  0  0
 71 72  1  0  0  0
 71 73  2  0  0  0
 71142  1  0  0  0
 72 74  2  0  0  0
 72143  1  0  0  0
 73 79  1  0  0  0
 73 82  1  0  0  0
 74 80  1  0  0  0
 74 82  1  0  0  0
 75 76  1  0  0  0
 75 79  1  0  0  0
 75 81  2  0  0  0
 76 77  1  0  0  0
 76144  1  0  0  0
 76145  1  0  0  0
 77 78  1  0  0  0
 77146  1  0  0  0
 77147  1  0  0  0
 78148  1  0  0  0
 78149  1  0  0  0
 79150  1  0  0  0
 80151  1  0  0  0
M  ISO  4   1 100  68 101  78 101  80 100
M  END
> <chiral flag>
0

> <version>
0

> <s_m_source_file>
/data/baiqing/PycharmProjects/Reinvent-master-3.2/result/LINK_invent/BTK/process_docking_weight1_custom_product_contain_oxygen_bond_distance_aromatic_linkinvent_7_9_3/rearranged_h_0139.sdf

> <i_m_source_file_index>
6

> <r_mmod_Potential_Energy-OPLS-2005>
-128.622650146484

> <r_mmod_Stretch_Energy-OPLS-2005>
34.6965484619141

> <r_mmod_Bend_Energy-OPLS-2005>
102.030227661133

> <r_mmod_Torsional_Energy-OPLS-2005>
236.178344726562

> <r_mmod_Improper_Torsional_Energy-OPLS-2005>
3.33467268943787

> <r_mmod_Van_der_Waal_Energy-OPLS-2005>
136.293426513672

> <r_mmod_Electrostatic_Energy-OPLS-2005>
-425.963653564453

> <r_mmod_Solvation_Energy-OPLS-2005>
-227.439437866211

> <b_mmod_Minimization_Converged-OPLS-2005>
0

> <r_mmod_RMS_Derivative-OPLS-2005>
0.517617881298065

$$$$
6
                    3D
 Structure written by MMmdl.
158166  0  0  1  0            999 V2000
  -30.6250  -14.6879   20.5288 C   0  0  0  0  0  0
  -30.4365  -12.4284   19.4686 C   0  0  0  0  0  0
  -29.5126  -12.5082   18.2339 C   0  0  0  0  0  0
  -28.0373  -12.3332   18.6443 C   0  0  0  0  0  0
  -27.6479  -13.2209   19.8566 C   0  0  2  0  0  0
  -28.6893  -13.1143   20.9925 C   0  0  0  0  0  0
  -25.2537  -13.8190   20.5682 C   0  0  0  0  0  0
  -24.1813  -13.0444   20.9203 C   0  0  0  0  0  0
  -24.6390  -11.6915   20.8750 C   0  0  0  0  0  0
  -23.9064  -10.4295   21.0407 C   0  0  0  0  0  0
  -24.3611   -9.4211   21.9190 C   0  0  0  0  0  0
  -23.6288   -8.2245   22.0758 C   0  0  0  0  0  0
  -22.4274   -8.0276   21.3549 C   0  0  0  0  0  0
  -21.9913   -9.0243   20.4648 C   0  0  0  0  0  0
  -22.7236  -10.2129   20.3056 C   0  0  0  0  0  0
  -21.6849   -6.0733   22.5283 C   0  0  0  0  0  0
  -21.4010   -6.5637   23.8213 C   0  0  0  0  0  0
  -21.3665   -5.6796   24.9177 C   0  0  0  0  0  0
  -21.6039   -4.3053   24.7232 C   0  0  0  0  0  0
  -21.8822   -3.8144   23.4351 C   0  0  0  0  0  0
  -21.9192   -4.6963   22.3404 C   0  0  0  0  0  0
  -22.7836  -13.5233   21.1852 C   0  0  0  0  0  0
  -22.1657   -4.2142   21.0982 F   0  0  0  0  0  0
  -21.5636   -3.4538   25.7747 F   0  0  0  0  0  0
  -29.9957  -13.4696   20.4238 N   0  0  0  0  0  0
  -26.2954  -12.9366   20.3286 N   0  0  0  0  0  0
  -25.9318  -11.6517   20.5747 N   0  0  0  0  0  0
  -22.0464  -12.8226   22.0397 N   0  0  0  0  0  0
  -25.4242  -15.1908   20.4078 N   0  0  0  0  0  0
  -31.8021  -14.8078   20.1757 O   0  0  0  0  0  0
  -21.6638   -6.8869   21.4242 O   0  0  0  0  0  0
  -22.3530  -14.5538   20.6693 O   0  0  0  0  0  0
  -24.6284  -31.8597   23.1990 C   0  0  0  0  0  0
  -25.9112  -32.4765   23.8346 C   0  0  1  0  0  0
  -27.2078  -27.2935   20.1487 C   0  0  0  0  0  0
  -25.5898  -33.8566   24.2262 N   0  0  0  0  0  0
  -23.4240  -30.4824   21.5411 C   0  0  2  0  0  0
  -24.8716  -28.9353   20.1080 C   0  0  0  0  0  0
  -22.7505  -29.4603   22.4895 C   0  0  0  0  0  0
  -18.0297  -28.1370   22.8478 C   0  0  0  0  0  0
  -24.1486  -36.7305   23.2646 C   0  0  0  0  0  0
  -25.9656  -30.7866   21.3724 C   0  0  0  0  0  0
  -26.0395  -29.4088   20.7226 C   0  0  0  0  0  0
  -27.2148  -28.5989   20.7339 C   0  0  0  0  0  0
  -26.0375  -26.8926   19.4727 C   0  0  0  0  0  0
  -24.8739  -27.6831   19.4709 C   0  0  0  0  0  0
  -23.6426  -29.8203   20.1545 C   0  0  0  0  0  0
  -25.4107  -36.3065   24.0329 C   0  0  1  0  0  0
  -20.5915  -28.3663   23.1273 C   0  0  2  0  0  0
  -20.6766  -26.9371   22.5407 C   0  0  0  0  0  0
  -19.5738  -26.6362   21.5206 C   0  0  0  0  0  0
  -18.1920  -26.7909   22.1626 C   0  0  0  0  0  0
  -19.1556  -28.8831   23.2863 C   0  0  0  0  0  0
  -18.9469  -30.1432   23.8874 C   0  0  0  0  0  0
  -17.6472  -30.6560   24.0557 C   0  0  0  0  0  0
  -25.9048  -34.9440   23.5100 C   0  0  0  0  0  0
  -16.5357  -29.9059   23.6332 C   0  0  0  0  0  0
  -16.7290  -28.6495   23.0345 C   0  0  0  0  0  0
  -26.4491  -31.6591   25.0726 C   0  0  0  0  0  0
  -25.3720  -31.3746   26.1457 C   0  0  0  0  0  0
  -27.0319  -30.3020   24.6147 C   0  0  0  0  0  0
  -27.6027  -32.4355   25.7498 C   0  0  0  0  0  0
  -27.5568  -37.1803   24.8463 C   0  0  0  0  0  0
  -21.4210  -29.3031   22.3660 N   0  0  0  0  0  0
  -26.4274  -37.3771   23.9412 N   0  0  0  0  0  0
  -24.6921  -31.0602   22.0948 N   0  0  0  0  0  0
  -23.4226  -28.8145   23.2967 O   0  0  0  0  0  0
  -28.2860  -26.3944   20.1831 O   0  0  0  0  0  0
  -26.5630  -34.8925   22.4678 O   0  0  0  0  0  0
  -23.5441  -32.1391   23.7325 O   0  0  0  0  0  0
  -29.3678  -18.3346   20.6248 C   0  0  0  0  0  0
  -30.9659  -19.9507   21.4925 C   0  0  0  0  0  0
  -31.4039  -17.5397   21.6884 C   0  0  0  0  0  0
  -29.7326  -19.7265   20.8427 C   0  0  0  0  0  0
  -30.2031  -17.2130   21.0154 C   0  0  0  0  0  0
  -31.7756  -18.8804   21.9239 C   0  0  0  0  0  0
  -28.8787  -22.3775   21.0577 C   0  0  0  0  0  0
  -26.8522  -24.9289   21.7016 C   0  0  0  0  0  0
  -29.2383  -25.5205   22.1227 C   0  0  0  0  0  0
  -28.9041  -20.9731   20.2997 C   0  0  0  0  0  0
  -28.6617  -23.7619   20.2749 C   0  0  0  0  0  0
  -28.2314  -25.1432   21.0185 C   0  0  0  0  0  0
  -29.8420  -15.7916   20.8184 N   0  0  0  0  0  0
  -29.0160  -22.3797   22.2846 O   0  0  0  0  0  0
  -32.9360  -19.1460   22.5693 F   0  0  0  0  0  0
  -31.4785  -12.5525   19.1687 H   0  0  0  0  0  0
  -30.3763  -11.4408   19.9287 H   0  0  0  0  0  0
  -29.7893  -11.7456   17.5059 H   0  0  0  0  0  0
  -29.6447  -13.4703   17.7364 H   0  0  0  0  0  0
  -27.8907  -11.2830   18.8969 H   0  0  0  0  0  0
  -27.3800  -12.5357   17.7982 H   0  0  0  0  0  0
  -27.6558  -14.2491   19.4953 H   0  0  0  0  0  0
  -28.7163  -12.1016   21.3975 H   0  0  0  0  0  0
  -28.4264  -13.7647   21.8284 H   0  0  0  0  0  0
  -25.2757   -9.5689   22.4763 H   0  0  0  0  0  0
  -23.9992   -7.4645   22.7492 H   0  0  0  0  0  0
  -21.0843   -8.8764   19.8954 H   0  0  0  0  0  0
  -22.3697  -10.9662   19.6156 H   0  0  0  0  0  0
  -21.1996   -7.6141   23.9714 H   0  0  0  0  0  0
  -21.1486   -6.0523   25.9080 H   0  0  0  0  0  0
  -22.0595   -2.7602   23.2857 H   0  0  0  0  0  0
  -22.4056  -11.9887   22.4802 H   0  0  0  0  0  0
  -21.1074  -13.1250   22.2575 H   0  0  0  0  0  0
  -24.6569  -15.8438   20.5209 H   0  0  0  0  0  0
  -26.2642  -15.6271   20.0506 H   0  0  0  0  0  0
  -26.7192  -32.5427   23.1106 H   0  0  0  0  0  0
  -24.9972  -33.9714   25.0356 H   0  0  0  0  0  0
  -22.7167  -31.3026   21.3945 H   0  0  0  0  0  0
  -23.3715  -35.9674   23.3315 H   0  0  0  0  0  0
  -24.3577  -36.8944   22.2062 H   0  0  0  0  0  0
  -23.7284  -37.6522   23.6692 H   0  0  0  0  0  0
  -26.0958  -31.5464   20.6003 H   0  0  0  0  0  0
  -26.8482  -30.8435   21.9964 H   0  0  0  0  0  0
  -28.1116  -28.9515   21.2234 H   0  0  0  0  0  0
  -26.0137  -25.9321   18.9761 H   0  0  0  0  0  0
  -23.9863  -27.3197   18.9722 H   0  0  0  0  0  0
  -23.7675  -30.5999   19.4022 H   0  0  0  0  0  0
  -22.7625  -29.2530   19.8468 H   0  0  0  0  0  0
  -25.1288  -36.1915   25.0822 H   0  0  0  0  0  0
  -21.0003  -28.3223   24.1396 H   0  0  0  0  0  0
  -20.5627  -26.2262   23.3614 H   0  0  0  0  0  0
  -21.6631  -26.7365   22.1197 H   0  0  0  0  0  0
  -19.6869  -25.6267   21.1240 H   0  0  0  0  0  0
  -19.6667  -27.3172   20.6734 H   0  0  0  0  0  0
  -17.4180  -26.6685   21.4024 H   0  0  0  0  0  0
  -18.0276  -26.0055   22.9028 H   0  0  0  0  0  0
  -19.7963  -30.7257   24.2215 H   0  0  0  0  0  0
  -17.5039  -31.6246   24.5149 H   0  0  0  0  0  0
  -15.5354  -30.2949   23.7665 H   0  0  0  0  0  0
  -15.8707  -28.0811   22.7030 H   0  0  0  0  0  0
  -24.5908  -30.7071   25.7803 H   0  0  0  0  0  0
  -24.8868  -32.2900   26.4852 H   0  0  0  0  0  0
  -25.8048  -30.8964   27.0255 H   0  0  0  0  0  0
  -26.2886  -29.6785   24.1175 H   0  0  0  0  0  0
  -27.4012  -29.7274   25.4650 H   0  0  0  0  0  0
  -27.8755  -30.4299   23.9369 H   0  0  0  0  0  0
  -27.2620  -33.3692   26.2019 H   0  0  0  0  0  0
  -28.3856  -32.6897   25.0328 H   0  0  0  0  0  0
  -28.0683  -31.8533   26.5459 H   0  0  0  0  0  0
  -28.2561  -38.0117   24.7483 H   0  0  0  0  0  0
  -28.1075  -36.2634   24.6294 H   0  0  0  0  0  0
  -27.2291  -37.1468   25.8871 H   0  0  0  0  0  0
  -20.9370  -29.8845   21.6961 H   0  0  0  0  0  0
  -26.0144  -38.2838   24.1435 H   0  0  0  0  0  0
  -28.4383  -18.1272   20.1150 H   0  0  0  0  0  0
  -31.3165  -20.9595   21.6632 H   0  0  0  0  0  0
  -32.0611  -16.7628   22.0517 H   0  0  0  0  0  0
  -26.8786  -24.1022   22.4101 H   0  0  0  0  0  0
  -26.0679  -24.6923   20.9829 H   0  0  0  0  0  0
  -26.5341  -25.8021   22.2737 H   0  0  0  0  0  0
  -29.2595  -24.7968   22.9366 H   0  0  0  0  0  0
  -28.9811  -26.4805   22.5716 H   0  0  0  0  0  0
  -30.2497  -25.6105   21.7254 H   0  0  0  0  0  0
  -27.8650  -20.6575   20.2010 H   0  0  0  0  0  0
  -29.2474  -21.1677   19.2845 H   0  0  0  0  0  0
  -27.9272  -23.5584   19.4962 H   0  0  0  0  0  0
  -29.5918  -23.9491   19.7381 H   0  0  0  0  0  0
  -28.8600  -15.5776   20.9052 H   0  0  0  0  0  0
  1 25  1  0  0  0
  1 30  2  0  0  0
  1 83  1  0  0  0
  2  3  1  0  0  0
  2 25  1  0  0  0
  2 86  1  0  0  0
  2 87  1  0  0  0
  3  4  1  0  0  0
  3 88  1  0  0  0
  3 89  1  0  0  0
  4  5  1  0  0  0
  4 90  1  0  0  0
  4 91  1  0  0  0
  5  6  1  0  0  0
  5 26  1  0  0  0
  5 92  1  0  0  0
  6 25  1  0  0  0
  6 93  1  0  0  0
  6 94  1  0  0  0
  7  8  2  0  0  0
  7 26  1  0  0  0
  7 29  1  0  0  0
  8  9  1  0  0  0
  8 22  1  0  0  0
  9 10  1  0  0  0
  9 27  2  0  0  0
 10 11  2  0  0  0
 10 15  1  0  0  0
 11 12  1  0  0  0
 11 95  1  0  0  0
 12 13  2  0  0  0
 12 96  1  0  0  0
 13 14  1  0  0  0
 13 31  1  0  0  0
 14 15  2  0  0  0
 14 97  1  0  0  0
 15 98  1  0  0  0
 16 17  2  0  0  0
 16 21  1  0  0  0
 16 31  1  0  0  0
 17 18  1  0  0  0
 17 99  1  0  0  0
 18 19  2  0  0  0
 18100  1  0  0  0
 19 20  1  0  0  0
 19 24  1  0  0  0
 20 21  2  0  0  0
 20101  1  0  0  0
 21 23  1  0  0  0
 22 28  1  0  0  0
 22 32  2  0  0  0
 26 27  1  0  0  0
 28102  1  0  0  0
 28103  1  0  0  0
 29104  1  0  0  0
 29105  1  0  0  0
 33 34  1  0  0  0
 33 66  1  0  0  0
 33 70  2  0  0  0
 34 36  1  0  0  0
 34 59  1  0  0  0
 34106  1  0  0  0
 35 44  2  0  0  0
 35 45  1  0  0  0
 35 68  1  0  0  0
 36 56  1  0  0  0
 36107  1  0  0  0
 37 39  1  0  0  0
 37 47  1  0  0  0
 37 66  1  0  0  0
 37108  1  0  0  0
 38 43  2  0  0  0
 38 46  1  0  0  0
 38 47  1  0  0  0
 39 64  1  0  0  0
 39 67  2  0  0  0
 40 52  1  0  0  0
 40 53  2  0  0  0
 40 58  1  0  0  0
 41109  1  0  0  0
 41110  1  0  0  0
 41111  1  0  0  0
 41 48  1  0  0  0
 42 43  1  0  0  0
 42 66  1  0  0  0
 42112  1  0  0  0
 42113  1  0  0  0
 43 44  1  0  0  0
 44114  1  0  0  0
 45 46  2  0  0  0
 45115  1  0  0  0
 46116  1  0  0  0
 47117  1  0  0  0
 47118  1  0  0  0
 48 56  1  0  0  0
 48 65  1  0  0  0
 48119  1  0  0  0
 49 50  1  0  0  0
 49 53  1  0  0  0
 49 64  1  0  0  0
 49120  1  0  0  0
 50 51  1  0  0  0
 50121  1  0  0  0
 50122  1  0  0  0
 51 52  1  0  0  0
 51123  1  0  0  0
 51124  1  0  0  0
 52125  1  0  0  0
 52126  1  0  0  0
 53 54  1  0  0  0
 54 55  2  0  0  0
 54127  1  0  0  0
 55 57  1  0  0  0
 55128  1  0  0  0
 56 69  2  0  0  0
 57 58  2  0  0  0
 57129  1  0  0  0
 58130  1  0  0  0
 59 60  1  0  0  0
 59 61  1  0  0  0
 59 62  1  0  0  0
 60131  1  0  0  0
 60132  1  0  0  0
 60133  1  0  0  0
 61134  1  0  0  0
 61135  1  0  0  0
 61136  1  0  0  0
 62137  1  0  0  0
 62138  1  0  0  0
 62139  1  0  0  0
 63 65  1  0  0  0
 63140  1  0  0  0
 63141  1  0  0  0
 63142  1  0  0  0
 64143  1  0  0  0
 65144  1  0  0  0
 68 82  1  0  0  0
 71 74  2  0  0  0
 71 75  1  0  0  0
 71145  1  0  0  0
 72 74  1  0  0  0
 72 76  2  0  0  0
 72146  1  0  0  0
 73 75  2  0  0  0
 73 76  1  0  0  0
 73147  1  0  0  0
 74 80  1  0  0  0
 75 83  1  0  0  0
 76 85  1  0  0  0
 77 80  1  0  0  0
 77 81  1  0  0  0
 77 84  2  0  0  0
 78148  1  0  0  0
 78149  1  0  0  0
 78150  1  0  0  0
 78 82  1  0  0  0
 79 82  1  0  0  0
 79151  1  0  0  0
 79152  1  0  0  0
 79153  1  0  0  0
 80154  1  0  0  0
 80155  1  0  0  0
 81 82  1  0  0  0
 81156  1  0  0  0
 81157  1  0  0  0
 83158  1  0  0  0
M  ISO  4   1 100  68 101  82 101  83 100
M  END
> <chiral flag>
0

> <version>
0

> <s_m_source_file>
/data/baiqing/PycharmProjects/Reinvent-master-3.2/result/LINK_invent/BTK/process_docking_weight1_custom_product_contain_oxygen_bond_distance_aromatic_linkinvent_7_9_3/rearranged_h_0139.sdf

> <i_m_source_file_index>
7

> <r_mmod_Potential_Energy-OPLS-2005>
168.862899780273

> <r_mmod_Stretch_Energy-OPLS-2005>
113.77465057373

> <r_mmod_Bend_Energy-OPLS-2005>
156.784530639648

> <r_mmod_Torsional_Energy-OPLS-2005>
228.685745239258

> <r_mmod_Improper_Torsional_Energy-OPLS-2005>
5.34190273284912

> <r_mmod_Van_der_Waal_Energy-OPLS-2005>
139.135177612305

> <r_mmod_Electrostatic_Energy-OPLS-2005>
-325.510864257812

> <r_mmod_Solvation_Energy-OPLS-2005>
-215.702545166016

> <b_mmod_Minimization_Converged-OPLS-2005>
0

> <r_mmod_RMS_Derivative-OPLS-2005>
2.96307396888733

$$$$
7
                    3D
 Structure written by MMmdl.
158166  0  0  1  0            999 V2000
  -30.6255  -14.7006   20.4786 C   0  0  0  0  0  0
  -30.4326  -12.4303   19.4607 C   0  0  0  0  0  0
  -29.5075  -12.5021   18.2269 C   0  0  0  0  0  0
  -28.0331  -12.3302   18.6426 C   0  0  0  0  0  0
  -27.6431  -13.2254   19.8489 C   0  0  2  0  0  0
  -28.6886  -13.1415   20.9820 C   0  0  0  0  0  0
  -25.2520  -13.8187   20.5681 C   0  0  0  0  0  0
  -24.1809  -13.0441   20.9207 C   0  0  0  0  0  0
  -24.6393  -11.6913   20.8756 C   0  0  0  0  0  0
  -23.9073  -10.4294   21.0412 C   0  0  0  0  0  0
  -24.3621   -9.4207   21.9187 C   0  0  0  0  0  0
  -23.6296   -8.2242   22.0756 C   0  0  0  0  0  0
  -22.4280   -8.0281   21.3542 C   0  0  0  0  0  0
  -21.9914   -9.0258   20.4644 C   0  0  0  0  0  0
  -22.7244  -10.2134   20.3054 C   0  0  0  0  0  0
  -21.6852   -6.0738   22.5282 C   0  0  0  0  0  0
  -21.4013   -6.5641   23.8219 C   0  0  0  0  0  0
  -21.3659   -5.6792   24.9179 C   0  0  0  0  0  0
  -21.6044   -4.3055   24.7227 C   0  0  0  0  0  0
  -21.8818   -3.8146   23.4351 C   0  0  0  0  0  0
  -21.9194   -4.6964   22.3404 C   0  0  0  0  0  0
  -22.7832  -13.5228   21.1869 C   0  0  0  0  0  0
  -22.1662   -4.2152   21.0982 F   0  0  0  0  0  0
  -21.5630   -3.4536   25.7739 F   0  0  0  0  0  0
  -29.9918  -13.4840   20.3997 N   0  0  0  0  0  0
  -26.2943  -12.9382   20.3269 N   0  0  0  0  0  0
  -25.9320  -11.6534   20.5750 N   0  0  0  0  0  0
  -22.0466  -12.8218   22.0418 N   0  0  0  0  0  0
  -25.4198  -15.1907   20.4074 N   0  0  0  0  0  0
  -31.8181  -14.7937   20.1724 O   0  0  0  0  0  0
  -21.6637   -6.8877   21.4246 O   0  0  0  0  0  0
  -22.3516  -14.5533   20.6710 O   0  0  0  0  0  0
  -24.6252  -31.8570   23.1984 C   0  0  0  0  0  0
  -25.9088  -32.4767   23.8326 C   0  0  1  0  0  0
  -27.2168  -27.2943   20.1355 C   0  0  0  0  0  0
  -25.5905  -33.8570   24.2253 N   0  0  0  0  0  0
  -23.4213  -30.4780   21.5401 C   0  0  2  0  0  0
  -24.8701  -28.9245   20.1132 C   0  0  0  0  0  0
  -22.7477  -29.4598   22.4910 C   0  0  0  0  0  0
  -18.0297  -28.1387   22.8491 C   0  0  0  0  0  0
  -24.1485  -36.7290   23.2644 C   0  0  0  0  0  0
  -25.9635  -30.7783   21.3758 C   0  0  0  0  0  0
  -26.0373  -29.4018   20.7244 C   0  0  0  0  0  0
  -27.2172  -28.5973   20.7263 C   0  0  0  0  0  0
  -26.0357  -26.8733   19.4948 C   0  0  0  0  0  0
  -24.8703  -27.6656   19.4904 C   0  0  0  0  0  0
  -23.6403  -29.8100   20.1561 C   0  0  0  0  0  0
  -25.4117  -36.3076   24.0325 C   0  0  1  0  0  0
  -20.5892  -28.3687   23.1288 C   0  0  2  0  0  0
  -20.6784  -26.9412   22.5398 C   0  0  0  0  0  0
  -19.5755  -26.6388   21.5206 C   0  0  0  0  0  0
  -18.1940  -26.7933   22.1622 C   0  0  0  0  0  0
  -19.1546  -28.8858   23.2885 C   0  0  0  0  0  0
  -18.9463  -30.1468   23.8889 C   0  0  0  0  0  0
  -17.6458  -30.6591   24.0569 C   0  0  0  0  0  0
  -25.9050  -34.9446   23.5093 C   0  0  0  0  0  0
  -16.5356  -29.9084   23.6333 C   0  0  0  0  0  0
  -16.7278  -28.6506   23.0346 C   0  0  0  0  0  0
  -26.4475  -31.6587   25.0701 C   0  0  0  0  0  0
  -25.3711  -31.3740   26.1434 C   0  0  0  0  0  0
  -27.0323  -30.3018   24.6151 C   0  0  0  0  0  0
  -27.6029  -32.4328   25.7475 C   0  0  0  0  0  0
  -27.5579  -37.1808   24.8468 C   0  0  0  0  0  0
  -21.4183  -29.3042   22.3681 N   0  0  0  0  0  0
  -26.4290  -37.3774   23.9413 N   0  0  0  0  0  0
  -24.6884  -31.0558   22.0953 N   0  0  0  0  0  0
  -23.4195  -28.8135   23.2991 O   0  0  0  0  0  0
  -28.3249  -26.4318   20.1165 O   0  0  0  0  0  0
  -26.5623  -34.8914   22.4665 O   0  0  0  0  0  0
  -23.5405  -32.1379   23.7298 O   0  0  0  0  0  0
  -31.8032  -18.9480   21.5800 C   0  0  0  0  0  0
  -30.9570  -20.0066   21.1959 C   0  0  0  0  0  0
  -31.4373  -17.6016   21.3810 C   0  0  0  0  0  0
  -29.3375  -18.3654   20.4235 C   0  0  0  0  0  0
  -29.7007  -19.7626   20.6025 C   0  0  0  0  0  0
  -30.1996  -17.2544   20.7932 C   0  0  0  0  0  0
  -28.4689  -23.7934   20.0765 C   0  0  0  0  0  0
  -27.1657  -25.0347   21.8866 C   0  0  0  0  0  0
  -29.6468  -25.3448   21.7379 C   0  0  0  0  0  0
  -28.8271  -21.0041   20.1260 C   0  0  0  0  0  0
  -29.1038  -22.4790   20.7258 C   0  0  0  0  0  0
  -28.3608  -25.1594   20.9125 C   0  0  0  0  0  0
  -29.8370  -15.8267   20.6496 N   0  0  0  0  0  0
  -28.0435  -23.7505   18.9193 O   0  0  0  0  0  0
  -31.4729  -12.5536   19.1554 H   0  0  0  0  0  0
  -30.3730  -11.4495   19.9345 H   0  0  0  0  0  0
  -29.7847  -11.7355   17.5022 H   0  0  0  0  0  0
  -29.6382  -13.4610   17.7237 H   0  0  0  0  0  0
  -27.8860  -11.2812   18.9006 H   0  0  0  0  0  0
  -27.3750  -12.5285   17.7954 H   0  0  0  0  0  0
  -27.6425  -14.2490   19.4749 H   0  0  0  0  0  0
  -28.7159  -12.1396   21.4130 H   0  0  0  0  0  0
  -28.4313  -13.8179   21.7986 H   0  0  0  0  0  0
  -25.2769   -9.5684   22.4759 H   0  0  0  0  0  0
  -24.0009   -7.4632   22.7471 H   0  0  0  0  0  0
  -21.0847   -8.8774   19.8947 H   0  0  0  0  0  0
  -22.3708  -10.9672   19.6159 H   0  0  0  0  0  0
  -21.2000   -7.6147   23.9723 H   0  0  0  0  0  0
  -21.1482   -6.0518   25.9081 H   0  0  0  0  0  0
  -22.0596   -2.7610   23.2847 H   0  0  0  0  0  0
  -22.4077  -11.9885   22.4817 H   0  0  0  0  0  0
  -21.1078  -13.1237   22.2603 H   0  0  0  0  0  0
  -24.6462  -15.8397   20.5084 H   0  0  0  0  0  0
  -26.2577  -15.6318   20.0524 H   0  0  0  0  0  0
  -26.7154  -32.5430   23.1068 H   0  0  0  0  0  0
  -25.0059  -33.9724   25.0402 H   0  0  0  0  0  0
  -22.7153  -31.2983   21.3937 H   0  0  0  0  0  0
  -23.3741  -35.9630   23.3302 H   0  0  0  0  0  0
  -24.3568  -36.8897   22.2056 H   0  0  0  0  0  0
  -23.7238  -37.6494   23.6664 H   0  0  0  0  0  0
  -26.0961  -31.5356   20.6019 H   0  0  0  0  0  0
  -26.8438  -30.8314   22.0048 H   0  0  0  0  0  0
  -28.1144  -28.9602   21.2077 H   0  0  0  0  0  0
  -26.0118  -25.9080   19.0095 H   0  0  0  0  0  0
  -23.9777  -27.2962   19.0061 H   0  0  0  0  0  0
  -23.7676  -30.5845   19.3991 H   0  0  0  0  0  0
  -22.7604  -29.2415   19.8493 H   0  0  0  0  0  0
  -25.1299  -36.1919   25.0815 H   0  0  0  0  0  0
  -21.0001  -28.3245   24.1400 H   0  0  0  0  0  0
  -20.5661  -26.2300   23.3586 H   0  0  0  0  0  0
  -21.6659  -26.7420   22.1209 H   0  0  0  0  0  0
  -19.6900  -25.6291   21.1240 H   0  0  0  0  0  0
  -19.6702  -27.3200   20.6734 H   0  0  0  0  0  0
  -17.4209  -26.6698   21.4021 H   0  0  0  0  0  0
  -18.0340  -26.0065   22.9010 H   0  0  0  0  0  0
  -19.7932  -30.7316   24.2229 H   0  0  0  0  0  0
  -17.5003  -31.6261   24.5194 H   0  0  0  0  0  0
  -15.5356  -30.2987   23.7659 H   0  0  0  0  0  0
  -15.8679  -28.0834   22.7048 H   0  0  0  0  0  0
  -24.5898  -30.7060   25.7777 H   0  0  0  0  0  0
  -24.8890  -32.2915   26.4824 H   0  0  0  0  0  0
  -25.8049  -30.8958   27.0223 H   0  0  0  0  0  0
  -26.2899  -29.6775   24.1170 H   0  0  0  0  0  0
  -27.4033  -29.7257   25.4631 H   0  0  0  0  0  0
  -27.8749  -30.4316   23.9364 H   0  0  0  0  0  0
  -27.2642  -33.3644   26.2026 H   0  0  0  0  0  0
  -28.3870  -32.6856   25.0324 H   0  0  0  0  0  0
  -28.0664  -31.8465   26.5415 H   0  0  0  0  0  0
  -28.2609  -38.0096   24.7516 H   0  0  0  0  0  0
  -28.1060  -36.2629   24.6298 H   0  0  0  0  0  0
  -27.2294  -37.1461   25.8868 H   0  0  0  0  0  0
  -20.9342  -29.8762   21.6901 H   0  0  0  0  0  0
  -26.0153  -38.2835   24.1422 H   0  0  0  0  0  0
  -32.7575  -19.1755   22.0338 H   0  0  0  0  0  0
  -31.3035  -21.0161   21.3594 H   0  0  0  0  0  0
  -32.1282  -16.8371   21.7056 H   0  0  0  0  0  0
  -28.3802  -18.1437   19.9734 H   0  0  0  0  0  0
  -27.2848  -24.1792   22.5514 H   0  0  0  0  0  0
  -26.2232  -24.8953   21.3574 H   0  0  0  0  0  0
  -27.0654  -25.9167   22.5185 H   0  0  0  0  0  0
  -30.5269  -25.3922   21.0962 H   0  0  0  0  0  0
  -29.8003  -24.5370   22.4531 H   0  0  0  0  0  0
  -29.6121  -26.2728   22.3099 H   0  0  0  0  0  0
  -27.7817  -20.7575   20.3132 H   0  0  0  0  0  0
  -28.9203  -21.0551   19.0405 H   0  0  0  0  0  0
  -28.8519  -22.4728   21.7857 H   0  0  0  0  0  0
  -30.1746  -22.6653   20.6757 H   0  0  0  0  0  0
  -28.8494  -15.6294   20.6722 H   0  0  0  0  0  0
  1 25  1  0  0  0
  1 30  2  0  0  0
  1 83  1  0  0  0
  2  3  1  0  0  0
  2 25  1  0  0  0
  2 85  1  0  0  0
  2 86  1  0  0  0
  3  4  1  0  0  0
  3 87  1  0  0  0
  3 88  1  0  0  0
  4  5  1  0  0  0
  4 89  1  0  0  0
  4 90  1  0  0  0
  5  6  1  0  0  0
  5 26  1  0  0  0
  5 91  1  0  0  0
  6 25  1  0  0  0
  6 92  1  0  0  0
  6 93  1  0  0  0
  7  8  2  0  0  0
  7 26  1  0  0  0
  7 29  1  0  0  0
  8  9  1  0  0  0
  8 22  1  0  0  0
  9 10  1  0  0  0
  9 27  2  0  0  0
 10 11  2  0  0  0
 10 15  1  0  0  0
 11 12  1  0  0  0
 11 94  1  0  0  0
 12 13  2  0  0  0
 12 95  1  0  0  0
 13 14  1  0  0  0
 13 31  1  0  0  0
 14 15  2  0  0  0
 14 96  1  0  0  0
 15 97  1  0  0  0
 16 17  2  0  0  0
 16 21  1  0  0  0
 16 31  1  0  0  0
 17 18  1  0  0  0
 17 98  1  0  0  0
 18 19  2  0  0  0
 18 99  1  0  0  0
 19 20  1  0  0  0
 19 24  1  0  0  0
 20 21  2  0  0  0
 20100  1  0  0  0
 21 23  1  0  0  0
 22 28  1  0  0  0
 22 32  2  0  0  0
 26 27  1  0  0  0
 28101  1  0  0  0
 28102  1  0  0  0
 29103  1  0  0  0
 29104  1  0  0  0
 33 34  1  0  0  0
 33 66  1  0  0  0
 33 70  2  0  0  0
 34 36  1  0  0  0
 34 59  1  0  0  0
 34105  1  0  0  0
 35 44  2  0  0  0
 35 45  1  0  0  0
 35 68  1  0  0  0
 36 56  1  0  0  0
 36106  1  0  0  0
 37 39  1  0  0  0
 37 47  1  0  0  0
 37 66  1  0  0  0
 37107  1  0  0  0
 38 43  2  0  0  0
 38 46  1  0  0  0
 38 47  1  0  0  0
 39 64  1  0  0  0
 39 67  2  0  0  0
 40 52  1  0  0  0
 40 53  2  0  0  0
 40 58  1  0  0  0
 41108  1  0  0  0
 41109  1  0  0  0
 41110  1  0  0  0
 41 48  1  0  0  0
 42 43  1  0  0  0
 42 66  1  0  0  0
 42111  1  0  0  0
 42112  1  0  0  0
 43 44  1  0  0  0
 44113  1  0  0  0
 45 46  2  0  0  0
 45114  1  0  0  0
 46115  1  0  0  0
 47116  1  0  0  0
 47117  1  0  0  0
 48 56  1  0  0  0
 48 65  1  0  0  0
 48118  1  0  0  0
 49 50  1  0  0  0
 49 53  1  0  0  0
 49 64  1  0  0  0
 49119  1  0  0  0
 50 51  1  0  0  0
 50120  1  0  0  0
 50121  1  0  0  0
 51 52  1  0  0  0
 51122  1  0  0  0
 51123  1  0  0  0
 52124  1  0  0  0
 52125  1  0  0  0
 53 54  1  0  0  0
 54 55  2  0  0  0
 54126  1  0  0  0
 55 57  1  0  0  0
 55127  1  0  0  0
 56 69  2  0  0  0
 57 58  2  0  0  0
 57128  1  0  0  0
 58129  1  0  0  0
 59 60  1  0  0  0
 59 61  1  0  0  0
 59 62  1  0  0  0
 60130  1  0  0  0
 60131  1  0  0  0
 60132  1  0  0  0
 61133  1  0  0  0
 61134  1  0  0  0
 61135  1  0  0  0
 62136  1  0  0  0
 62137  1  0  0  0
 62138  1  0  0  0
 63 65  1  0  0  0
 63139  1  0  0  0
 63140  1  0  0  0
 63141  1  0  0  0
 64142  1  0  0  0
 65143  1  0  0  0
 68 82  1  0  0  0
 71 72  2  0  0  0
 71 73  1  0  0  0
 71144  1  0  0  0
 72 75  1  0  0  0
 72145  1  0  0  0
 73 76  2  0  0  0
 73146  1  0  0  0
 74 75  2  0  0  0
 74 76  1  0  0  0
 74147  1  0  0  0
 75 80  1  0  0  0
 76 83  1  0  0  0
 77 81  1  0  0  0
 77 82  1  0  0  0
 77 84  2  0  0  0
 78148  1  0  0  0
 78149  1  0  0  0
 78150  1  0  0  0
 78 82  1  0  0  0
 79 82  1  0  0  0
 79151  1  0  0  0
 79152  1  0  0  0
 79153  1  0  0  0
 80 81  1  0  0  0
 80154  1  0  0  0
 80155  1  0  0  0
 81156  1  0  0  0
 81157  1  0  0  0
 83158  1  0  0  0
M  ISO  4   1 100  68 101  82 101  83 100
M  END
> <chiral flag>
0

> <version>
0

> <s_m_source_file>
/data/baiqing/PycharmProjects/Reinvent-master-3.2/result/LINK_invent/BTK/process_docking_weight1_custom_product_contain_oxygen_bond_distance_aromatic_linkinvent_7_9_3/rearranged_h_0139.sdf

> <i_m_source_file_index>
8

> <r_mmod_Potential_Energy-OPLS-2005>
135.846481323242

> <r_mmod_Stretch_Energy-OPLS-2005>
110.277198791504

> <r_mmod_Bend_Energy-OPLS-2005>
151.149658203125

> <r_mmod_Torsional_Energy-OPLS-2005>
252.705535888672

> <r_mmod_Improper_Torsional_Energy-OPLS-2005>
6.13020992279053

> <r_mmod_Van_der_Waal_Energy-OPLS-2005>
137.051467895508

> <r_mmod_Electrostatic_Energy-OPLS-2005>
-369.837982177734

> <r_mmod_Solvation_Energy-OPLS-2005>
-217.404541015625

> <b_mmod_Minimization_Converged-OPLS-2005>
0

> <r_mmod_RMS_Derivative-OPLS-2005>
1.61671936511993

$$$$
8
                    3D
 Structure written by MMmdl.
167176  0  0  1  0            999 V2000
  -30.7576  -14.3915   20.6602 C   0  0  0  0  0  0
  -30.4285  -12.2940   19.4025 C   0  0  0  0  0  0
  -29.4952  -12.5154   18.1977 C   0  0  0  0  0  0
  -28.0192  -12.3708   18.6133 C   0  0  0  0  0  0
  -27.6715  -13.1987   19.8783 C   0  0  2  0  0  0
  -28.7093  -12.9489   20.9963 C   0  0  0  0  0  0
  -25.2645  -13.8155   20.5673 C   0  0  0  0  0  0
  -24.1868  -13.0456   20.9165 C   0  0  0  0  0  0
  -24.6397  -11.6912   20.8707 C   0  0  0  0  0  0
  -23.9054  -10.4317   21.0380 C   0  0  0  0  0  0
  -24.3614   -9.4233   21.9148 C   0  0  0  0  0  0
  -23.6302   -8.2266   22.0731 C   0  0  0  0  0  0
  -22.4264   -8.0298   21.3554 C   0  0  0  0  0  0
  -21.9896   -9.0276   20.4657 C   0  0  0  0  0  0
  -22.7220  -10.2150   20.3045 C   0  0  0  0  0  0
  -21.6869   -6.0733   22.5281 C   0  0  0  0  0  0
  -21.4023   -6.5613   23.8211 C   0  0  0  0  0  0
  -21.3648   -5.6776   24.9172 C   0  0  0  0  0  0
  -21.6031   -4.3032   24.7220 C   0  0  0  0  0  0
  -21.8821   -3.8137   23.4339 C   0  0  0  0  0  0
  -21.9204   -4.6964   22.3403 C   0  0  0  0  0  0
  -22.7886  -13.5267   21.1830 C   0  0  0  0  0  0
  -22.1666   -4.2146   21.0974 F   0  0  0  0  0  0
  -21.5632   -3.4511   25.7730 F   0  0  0  0  0  0
  -30.0534  -13.2458   20.4580 N   0  0  0  0  0  0
  -26.3074  -12.9304   20.3365 N   0  0  0  0  0  0
  -25.9314  -11.6472   20.5697 N   0  0  0  0  0  0
  -22.0520  -12.8289   22.0406 N   0  0  0  0  0  0
  -25.4417  -15.1869   20.4101 N   0  0  0  0  0  0
  -31.8052  -14.6483   20.0561 O   0  0  0  0  0  0
  -21.6647   -6.8881   21.4245 O   0  0  0  0  0  0
  -22.3570  -14.5565   20.6670 O   0  0  0  0  0  0
  -24.6089  -31.8706   23.2129 C   0  0  0  0  0  0
  -25.8996  -32.4841   23.8418 C   0  0  1  0  0  0
  -27.2491  -27.4709   20.0875 C   0  0  0  0  0  0
  -25.5851  -33.8631   24.2338 N   0  0  0  0  0  0
  -23.3968  -30.4952   21.5522 C   0  0  2  0  0  0
  -24.8484  -28.9622   20.1229 C   0  0  0  0  0  0
  -22.7383  -29.4679   22.5002 C   0  0  0  0  0  0
  -18.0262  -28.1380   22.8472 C   0  0  0  0  0  0
  -24.1469  -36.7312   23.2636 C   0  0  0  0  0  0
  -25.9236  -30.8456   21.3660 C   0  0  0  0  0  0
  -26.0049  -29.4798   20.7195 C   0  0  0  0  0  0
  -27.2088  -28.7421   20.7098 C   0  0  0  0  0  0
  -26.0743  -26.9610   19.5002 C   0  0  0  0  0  0
  -24.8733  -27.6951   19.5172 C   0  0  0  0  0  0
  -23.6078  -29.8254   20.1679 C   0  0  0  0  0  0
  -25.4082  -36.3112   24.0354 C   0  0  1  0  0  0
  -20.5850  -28.3671   23.1326 C   0  0  2  0  0  0
  -20.6730  -26.9392   22.5474 C   0  0  0  0  0  0
  -19.5747  -26.6388   21.5210 C   0  0  0  0  0  0
  -18.1906  -26.7951   22.1572 C   0  0  0  0  0  0
  -19.1511  -28.8838   23.2897 C   0  0  0  0  0  0
  -18.9457  -30.1433   23.8927 C   0  0  0  0  0  0
  -17.6470  -30.6578   24.0587 C   0  0  0  0  0  0
  -25.9017  -34.9483   23.5147 C   0  0  0  0  0  0
  -16.5359  -29.9101   23.6318 C   0  0  0  0  0  0
  -16.7260  -28.6517   23.0340 C   0  0  0  0  0  0
  -26.4447  -31.6628   25.0734 C   0  0  0  0  0  0
  -25.3747  -31.3841   26.1540 C   0  0  0  0  0  0
  -27.0214  -30.3037   24.6134 C   0  0  0  0  0  0
  -27.6068  -32.4346   25.7417 C   0  0  0  0  0  0
  -27.5605  -37.1756   24.8432 C   0  0  0  0  0  0
  -21.4116  -29.3029   22.3726 N   0  0  0  0  0  0
  -26.4267  -37.3803   23.9448 N   0  0  0  0  0  0
  -24.6604  -31.0856   22.1017 N   0  0  0  0  0  0
  -23.4167  -28.8210   23.3038 O   0  0  0  0  0  0
  -28.3619  -26.6684   19.9897 O   0  0  0  0  0  0
  -26.5606  -34.8931   22.4729 O   0  0  0  0  0  0
  -23.5287  -32.1434   23.7540 O   0  0  0  0  0  0
  -31.9938  -24.5585   18.9812 C   0  0  0  0  0  0
  -31.9893  -18.5370   21.9620 C   0  0  0  0  0  0
  -31.1028  -25.6297   19.1844 C   0  0  0  0  0  0
  -32.3681  -23.7374   20.0628 C   0  0  0  0  0  0
  -31.7907  -17.1706   21.6814 C   0  0  0  0  0  0
  -30.9597  -25.0657   21.5512 C   0  0  0  0  0  0
  -29.4515  -17.3925   22.2955 C   0  0  0  0  0  0
  -30.9261  -19.3520   22.4210 C   0  0  0  0  0  0
  -30.5792  -25.8897   20.4684 C   0  0  0  0  0  0
  -31.8456  -23.9777   21.3551 C   0  0  0  0  0  0
  -29.6465  -18.7583   22.5869 C   0  0  0  0  0  0
  -30.5098  -16.5884   21.8294 C   0  0  0  0  0  0
  -31.1173  -20.8006   22.6685 C   0  0  0  0  0  0
  -32.1253  -21.5841   22.2329 C   0  0  0  0  0  0
  -28.4497  -19.5642   23.0691 C   0  0  0  0  0  0
  -29.5677  -27.0127   20.6570 C   0  0  0  0  0  0
  -32.2267  -23.0788   22.5311 C   0  0  1  0  0  0
  -30.2153  -15.2214   21.5656 N   0  0  0  0  0  0
  -33.5621  -23.4380   23.0250 N   0  3  0  0  0  0
  -31.4711  -12.3972   19.0926 H   0  0  0  0  0  0
  -30.3325  -11.2738   19.7753 H   0  0  0  0  0  0
  -29.7325  -11.8035   17.4059 H   0  0  0  0  0  0
  -29.6683  -13.5086   17.7789 H   0  0  0  0  0  0
  -27.8294  -11.3123   18.8023 H   0  0  0  0  0  0
  -27.3670  -12.6536   17.7869 H   0  0  0  0  0  0
  -27.7317  -14.2506   19.5988 H   0  0  0  0  0  0
  -28.6735  -11.9068   21.3171 H   0  0  0  0  0  0
  -28.4469  -13.5245   21.8848 H   0  0  0  0  0  0
  -25.2772   -9.5703   22.4704 H   0  0  0  0  0  0
  -24.0031   -7.4639   22.7415 H   0  0  0  0  0  0
  -21.0827   -8.8797   19.8960 H   0  0  0  0  0  0
  -22.3679  -10.9684   19.6149 H   0  0  0  0  0  0
  -21.2011   -7.6127   23.9713 H   0  0  0  0  0  0
  -21.1451   -6.0493   25.9071 H   0  0  0  0  0  0
  -22.0603   -2.7607   23.2842 H   0  0  0  0  0  0
  -22.4112  -11.9968   22.4844 H   0  0  0  0  0  0
  -21.1143  -13.1347   22.2592 H   0  0  0  0  0  0
  -24.6852  -15.8529   20.5236 H   0  0  0  0  0  0
  -26.3058  -15.6180   20.1071 H   0  0  0  0  0  0
  -26.7064  -32.5575   23.1179 H   0  0  0  0  0  0
  -24.9972  -33.9813   25.0470 H   0  0  0  0  0  0
  -22.6817  -31.3088   21.4121 H   0  0  0  0  0  0
  -23.3753  -35.9618   23.3261 H   0  0  0  0  0  0
  -24.3581  -36.8962   22.2056 H   0  0  0  0  0  0
  -23.7188  -37.6489   23.6693 H   0  0  0  0  0  0
  -26.0363  -31.6089   20.5951 H   0  0  0  0  0  0
  -26.8097  -30.9002   21.9859 H   0  0  0  0  0  0
  -28.0927  -29.1616   21.1661 H   0  0  0  0  0  0
  -26.0943  -25.9893   19.0270 H   0  0  0  0  0  0
  -23.9837  -27.2849   19.0576 H   0  0  0  0  0  0
  -23.7138  -30.5971   19.4038 H   0  0  0  0  0  0
  -22.7347  -29.2396   19.8740 H   0  0  0  0  0  0
  -25.1227  -36.1972   25.0841 H   0  0  0  0  0  0
  -20.9943  -28.3268   24.1451 H   0  0  0  0  0  0
  -20.5545  -26.2290   23.3679 H   0  0  0  0  0  0
  -21.6624  -26.7388   22.1343 H   0  0  0  0  0  0
  -19.6907  -25.6302   21.1235 H   0  0  0  0  0  0
  -19.6720  -27.3196   20.6732 H   0  0  0  0  0  0
  -17.4211  -26.6768   21.3919 H   0  0  0  0  0  0
  -18.0230  -26.0051   22.8915 H   0  0  0  0  0  0
  -19.7940  -30.7209   24.2326 H   0  0  0  0  0  0
  -17.5050  -31.6254   24.5194 H   0  0  0  0  0  0
  -15.5377  -30.3035   23.7604 H   0  0  0  0  0  0
  -15.8650  -28.0843   22.7076 H   0  0  0  0  0  0
  -24.5914  -30.7119   25.8028 H   0  0  0  0  0  0
  -24.8912  -32.3030   26.4868 H   0  0  0  0  0  0
  -25.8135  -30.9201   27.0377 H   0  0  0  0  0  0
  -26.2708  -29.6833   24.1220 H   0  0  0  0  0  0
  -27.3957  -29.7272   25.4605 H   0  0  0  0  0  0
  -27.8579  -30.4299   23.9254 H   0  0  0  0  0  0
  -27.2714  -33.3630   26.2059 H   0  0  0  0  0  0
  -28.3782  -32.6951   25.0158 H   0  0  0  0  0  0
  -28.0841  -31.8445   26.5251 H   0  0  0  0  0  0
  -28.2595  -38.0083   24.7554 H   0  0  0  0  0  0
  -28.1118  -36.2632   24.6102 H   0  0  0  0  0  0
  -27.2389  -37.1257   25.8850 H   0  0  0  0  0  0
  -20.9267  -29.8792   21.6978 H   0  0  0  0  0  0
  -26.0161  -38.2864   24.1553 H   0  0  0  0  0  0
  -32.3799  -24.3581   17.9902 H   0  0  0  0  0  0
  -32.9792  -18.9484   21.8277 H   0  0  0  0  0  0
  -30.8039  -26.2448   18.3470 H   0  0  0  0  0  0
  -33.0484  -22.9132   19.8883 H   0  0  0  0  0  0
  -32.6362  -16.5828   21.3518 H   0  0  0  0  0  0
  -30.5465  -25.2585   22.5320 H   0  0  0  0  0  0
  -28.4671  -16.9585   22.4152 H   0  0  0  0  0  0
  -30.3612  -21.2786   23.2735 H   0  0  0  0  0  0
  -32.9137  -21.1622   21.6276 H   0  0  0  0  0  0
  -27.5212  -19.0018   22.9729 H   0  0  0  0  0  0
  -28.3337  -20.4757   22.4835 H   0  0  0  0  0  0
  -28.5667  -19.8318   24.1197 H   0  0  0  0  0  0
  -29.9747  -27.9357   20.2412 H   0  0  0  0  0  0
  -29.3849  -27.1765   21.7199 H   0  0  0  0  0  0
  -31.5275  -23.2871   23.3430 H   0  0  0  0  0  0
  -29.3525  -14.8795   21.9566 H   0  0  0  0  0  0
  -34.2581  -23.2750   22.3217 H   0  0  0  0  0  0
  -33.7940  -22.9130   23.8477 H   0  0  0  0  0  0
  -33.5782  -24.4149   23.2573 H   0  0  0  0  0  0
  1 25  1  0  0  0
  1 30  2  0  0  0
  1 88  1  0  0  0
  2  3  1  0  0  0
  2 25  1  0  0  0
  2 90  1  0  0  0
  2 91  1  0  0  0
  3  4  1  0  0  0
  3 92  1  0  0  0
  3 93  1  0  0  0
  4  5  1  0  0  0
  4 94  1  0  0  0
  4 95  1  0  0  0
  5  6  1  0  0  0
  5 26  1  0  0  0
  5 96  1  0  0  0
  6 25  1  0  0  0
  6 97  1  0  0  0
  6 98  1  0  0  0
  7  8  2  0  0  0
  7 26  1  0  0  0
  7 29  1  0  0  0
  8  9  1  0  0  0
  8 22  1  0  0  0
  9 10  1  0  0  0
  9 27  2  0  0  0
 10 11  2  0  0  0
 10 15  1  0  0  0
 11 12  1  0  0  0
 11 99  1  0  0  0
 12 13  2  0  0  0
 12100  1  0  0  0
 13 14  1  0  0  0
 13 31  1  0  0  0
 14 15  2  0  0  0
 14101  1  0  0  0
 15102  1  0  0  0
 16 17  2  0  0  0
 16 21  1  0  0  0
 16 31  1  0  0  0
 17 18  1  0  0  0
 17103  1  0  0  0
 18 19  2  0  0  0
 18104  1  0  0  0
 19 20  1  0  0  0
 19 24  1  0  0  0
 20 21  2  0  0  0
 20105  1  0  0  0
 21 23  1  0  0  0
 22 28  1  0  0  0
 22 32  2  0  0  0
 26 27  1  0  0  0
 28106  1  0  0  0
 28107  1  0  0  0
 29108  1  0  0  0
 29109  1  0  0  0
 33 34  1  0  0  0
 33 66  1  0  0  0
 33 70  2  0  0  0
 34 36  1  0  0  0
 34 59  1  0  0  0
 34110  1  0  0  0
 35 44  2  0  0  0
 35 45  1  0  0  0
 35 68  1  0  0  0
 36 56  1  0  0  0
 36111  1  0  0  0
 37 39  1  0  0  0
 37 47  1  0  0  0
 37 66  1  0  0  0
 37112  1  0  0  0
 38 43  2  0  0  0
 38 46  1  0  0  0
 38 47  1  0  0  0
 39 64  1  0  0  0
 39 67  2  0  0  0
 40 52  1  0  0  0
 40 53  2  0  0  0
 40 58  1  0  0  0
 41113  1  0  0  0
 41114  1  0  0  0
 41115  1  0  0  0
 41 48  1  0  0  0
 42 43  1  0  0  0
 42 66  1  0  0  0
 42116  1  0  0  0
 42117  1  0  0  0
 43 44  1  0  0  0
 44118  1  0  0  0
 45 46  2  0  0  0
 45119  1  0  0  0
 46120  1  0  0  0
 47121  1  0  0  0
 47122  1  0  0  0
 48 56  1  0  0  0
 48 65  1  0  0  0
 48123  1  0  0  0
 49 50  1  0  0  0
 49 53  1  0  0  0
 49 64  1  0  0  0
 49124  1  0  0  0
 50 51  1  0  0  0
 50125  1  0  0  0
 50126  1  0  0  0
 51 52  1  0  0  0
 51127  1  0  0  0
 51128  1  0  0  0
 52129  1  0  0  0
 52130  1  0  0  0
 53 54  1  0  0  0
 54 55  2  0  0  0
 54131  1  0  0  0
 55 57  1  0  0  0
 55132  1  0  0  0
 56 69  2  0  0  0
 57 58  2  0  0  0
 57133  1  0  0  0
 58134  1  0  0  0
 59 60  1  0  0  0
 59 61  1  0  0  0
 59 62  1  0  0  0
 60135  1  0  0  0
 60136  1  0  0  0
 60137  1  0  0  0
 61138  1  0  0  0
 61139  1  0  0  0
 61140  1  0  0  0
 62141  1  0  0  0
 62142  1  0  0  0
 62143  1  0  0  0
 63 65  1  0  0  0
 63144  1  0  0  0
 63145  1  0  0  0
 63146  1  0  0  0
 64147  1  0  0  0
 65148  1  0  0  0
 68 86  1  0  0  0
 71 73  2  0  0  0
 71 74  1  0  0  0
 71149  1  0  0  0
 72 75  2  0  0  0
 72 78  1  0  0  0
 72150  1  0  0  0
 73 79  1  0  0  0
 73151  1  0  0  0
 74 80  2  0  0  0
 74152  1  0  0  0
 75 82  1  0  0  0
 75153  1  0  0  0
 76 79  2  0  0  0
 76 80  1  0  0  0
 76154  1  0  0  0
 77 81  1  0  0  0
 77 82  2  0  0  0
 77155  1  0  0  0
 78 81  2  0  0  0
 78 83  1  0  0  0
 79 86  1  0  0  0
 80 87  1  0  0  0
 81 85  1  0  0  0
 82 88  1  0  0  0
 83 84  2  0  0  0
 83156  1  0  0  0
 84 87  1  0  0  0
 84157  1  0  0  0
 85158  1  0  0  0
 85159  1  0  0  0
 85160  1  0  0  0
 86161  1  0  0  0
 86162  1  0  0  0
 87 89  1  0  0  0
 87163  1  0  0  0
 88164  1  0  0  0
 89165  1  0  0  0
 89166  1  0  0  0
 89167  1  0  0  0
M  CHG  1  89   1
M  ISO  4   1 100  68 101  86 101  88 100
M  END
> <chiral flag>
0

> <version>
0

> <s_m_source_file>
/data/baiqing/PycharmProjects/Reinvent-master-3.2/result/LINK_invent/BTK/process_docking_weight1_custom_product_contain_oxygen_bond_distance_aromatic_linkinvent_7_9_3/rearranged_h_0139.sdf

> <i_m_source_file_index>
9

> <r_mmod_Potential_Energy-OPLS-2005>
-334.278839111328

> <r_mmod_Stretch_Energy-OPLS-2005>
36.1273612976074

> <r_mmod_Bend_Energy-OPLS-2005>
104.962242126465

> <r_mmod_Torsional_Energy-OPLS-2005>
207.137817382812

> <r_mmod_Improper_Torsional_Energy-OPLS-2005>
2.52912378311157

> <r_mmod_Van_der_Waal_Energy-OPLS-2005>
177.320236206055

> <r_mmod_Electrostatic_Energy-OPLS-2005>
-371.584838867188

> <r_mmod_Solvation_Energy-OPLS-2005>
-498.265808105469

> <b_mmod_Minimization_Converged-OPLS-2005>
0

> <r_mmod_RMS_Derivative-OPLS-2005>
3.31668591499329

$$$$
9
                    3D
 Structure written by MMmdl.
170178  0  0  1  0            999 V2000
  -30.6214  -14.5597   20.6030 C   0  0  0  0  0  0
  -30.4517  -12.3739   19.4180 C   0  0  0  0  0  0
  -29.5033  -12.5390   18.2083 C   0  0  0  0  0  0
  -28.0244  -12.3793   18.6200 C   0  0  0  0  0  0
  -27.6677  -13.2047   19.8843 C   0  0  2  0  0  0
  -28.7131  -12.9495   20.9932 C   0  0  0  0  0  0
  -25.2596  -13.8147   20.5648 C   0  0  0  0  0  0
  -24.1852  -13.0429   20.9162 C   0  0  0  0  0  0
  -24.6410  -11.6896   20.8732 C   0  0  0  0  0  0
  -23.9072  -10.4287   21.0401 C   0  0  0  0  0  0
  -24.3620   -9.4204   21.9183 C   0  0  0  0  0  0
  -23.6293   -8.2244   22.0757 C   0  0  0  0  0  0
  -22.4275   -8.0284   21.3547 C   0  0  0  0  0  0
  -21.9910   -9.0257   20.4650 C   0  0  0  0  0  0
  -22.7241  -10.2134   20.3053 C   0  0  0  0  0  0
  -21.6851   -6.0743   22.5282 C   0  0  0  0  0  0
  -21.4013   -6.5646   23.8216 C   0  0  0  0  0  0
  -21.3657   -5.6797   24.9178 C   0  0  0  0  0  0
  -21.6040   -4.3058   24.7225 C   0  0  0  0  0  0
  -21.8820   -3.8154   23.4345 C   0  0  0  0  0  0
  -21.9191   -4.6972   22.3403 C   0  0  0  0  0  0
  -22.7873  -13.5231   21.1830 C   0  0  0  0  0  0
  -22.1661   -4.2158   21.0979 F   0  0  0  0  0  0
  -21.5626   -3.4540   25.7736 F   0  0  0  0  0  0
  -30.0384  -13.3286   20.4632 N   0  0  0  0  0  0
  -26.3060  -12.9321   20.3406 N   0  0  0  0  0  0
  -25.9343  -11.6482   20.5781 N   0  0  0  0  0  0
  -22.0521  -12.8228   22.0397 N   0  0  0  0  0  0
  -25.4268  -15.1861   20.4008 N   0  0  0  0  0  0
  -31.6866  -14.8550   20.0485 O   0  0  0  0  0  0
  -21.6637   -6.8885   21.4244 O   0  0  0  0  0  0
  -22.3550  -14.5538   20.6685 O   0  0  0  0  0  0
  -24.6208  -31.8638   23.2044 C   0  0  0  0  0  0
  -25.9079  -32.4801   23.8362 C   0  0  1  0  0  0
  -27.2317  -27.3720   20.1137 C   0  0  0  0  0  0
  -25.5902  -33.8595   24.2297 N   0  0  0  0  0  0
  -23.4126  -30.4850   21.5466 C   0  0  2  0  0  0
  -24.8599  -28.9407   20.1157 C   0  0  0  0  0  0
  -22.7452  -29.4635   22.4969 C   0  0  0  0  0  0
  -18.0284  -28.1365   22.8491 C   0  0  0  0  0  0
  -24.1485  -36.7311   23.2639 C   0  0  0  0  0  0
  -25.9462  -30.8124   21.3643 C   0  0  0  0  0  0
  -26.0251  -29.4412   20.7112 C   0  0  0  0  0  0
  -27.2179  -28.6688   20.6971 C   0  0  0  0  0  0
  -26.0488  -26.9018   19.5067 C   0  0  0  0  0  0
  -24.8700  -27.6740   19.5069 C   0  0  0  0  0  0
  -23.6243  -29.8157   20.1626 C   0  0  0  0  0  0
  -25.4104  -36.3096   24.0334 C   0  0  1  0  0  0
  -20.5878  -28.3664   23.1298 C   0  0  2  0  0  0
  -20.6766  -26.9391   22.5413 C   0  0  0  0  0  0
  -19.5740  -26.6372   21.5206 C   0  0  0  0  0  0
  -18.1922  -26.7912   22.1620 C   0  0  0  0  0  0
  -19.1534  -28.8834   23.2888 C   0  0  0  0  0  0
  -18.9458  -30.1437   23.8896 C   0  0  0  0  0  0
  -17.6459  -30.6572   24.0553 C   0  0  0  0  0  0
  -25.9036  -34.9463   23.5115 C   0  0  0  0  0  0
  -16.5352  -29.9073   23.6314 C   0  0  0  0  0  0
  -16.7274  -28.6491   23.0340 C   0  0  0  0  0  0
  -26.4477  -31.6593   25.0714 C   0  0  0  0  0  0
  -25.3721  -31.3710   26.1451 C   0  0  0  0  0  0
  -27.0311  -30.3027   24.6119 C   0  0  0  0  0  0
  -27.6044  -32.4319   25.7485 C   0  0  0  0  0  0
  -27.5580  -37.1808   24.8465 C   0  0  0  0  0  0
  -21.4172  -29.3029   22.3713 N   0  0  0  0  0  0
  -26.4289  -37.3784   23.9408 N   0  0  0  0  0  0
  -24.6781  -31.0690   22.0966 N   0  0  0  0  0  0
  -23.4193  -28.8184   23.3037 O   0  0  0  0  0  0
  -28.3656  -26.5700   20.1033 O   0  0  0  0  0  0
  -26.5609  -34.8927   22.4686 O   0  0  0  0  0  0
  -23.5387  -32.1422   23.7401 O   0  0  0  0  0  0
  -30.0088  -17.8977   20.5898 C   0  0  0  0  0  0
  -29.4849  -16.7647   21.3340 C   0  0  0  0  0  0
  -29.2658  -19.0716   20.7604 C   0  0  0  0  0  0
  -28.3742  -17.0867   22.0764 C   0  0  0  0  0  0
  -28.6842  -24.0366   19.8967 C   0  0  0  0  0  0
  -26.3979  -16.8278   23.7127 C   0  0  0  0  0  0
  -30.6877  -22.8979   18.8961 C   0  0  0  0  0  0
  -30.9462  -24.1109   21.0179 C   0  0  0  0  0  0
  -28.6678  -21.9598   22.1151 C   0  0  0  0  0  0
  -31.0503  -21.3550   21.7968 C   0  0  0  0  0  0
  -29.4069  -20.4808   20.1309 C   0  0  0  0  0  0
  -27.6111  -16.1934   23.0190 C   0  0  0  0  0  0
  -28.2458  -25.2705   20.7673 C   0  0  0  0  0  0
  -29.9732  -23.1727   20.2460 C   0  0  0  0  0  0
  -29.7567  -21.7575   21.0352 C   0  0  0  0  0  0
  -29.9543  -15.3963   21.4356 N   0  0  0  0  0  0
  -27.9850  -23.7268   18.9261 O   0  0  0  0  0  0
  -27.8914  -18.7410   21.7877 S   0  0  0  0  0  0
  -31.4868  -12.5308   19.1098 H   0  0  0  0  0  0
  -30.4089  -11.3533   19.8023 H   0  0  0  0  0  0
  -29.7540  -11.8163   17.4305 H   0  0  0  0  0  0
  -29.6495  -13.5251   17.7651 H   0  0  0  0  0  0
  -27.8419  -11.3200   18.8059 H   0  0  0  0  0  0
  -27.3711  -12.6583   17.7922 H   0  0  0  0  0  0
  -27.7176  -14.2584   19.6085 H   0  0  0  0  0  0
  -28.7175  -11.8916   21.2621 H   0  0  0  0  0  0
  -28.4505  -13.4633   21.9156 H   0  0  0  0  0  0
  -25.2769   -9.5678   22.4751 H   0  0  0  0  0  0
  -24.0003   -7.4635   22.7473 H   0  0  0  0  0  0
  -21.0846   -8.8779   19.8953 H   0  0  0  0  0  0
  -22.3709  -10.9674   19.6160 H   0  0  0  0  0  0
  -21.2009   -7.6153   23.9724 H   0  0  0  0  0  0
  -21.1475   -6.0525   25.9081 H   0  0  0  0  0  0
  -22.0600   -2.7615   23.2842 H   0  0  0  0  0  0
  -22.4142  -11.9889   22.4781 H   0  0  0  0  0  0
  -21.1138  -13.1255   22.2604 H   0  0  0  0  0  0
  -24.6635  -15.8395   20.5318 H   0  0  0  0  0  0
  -26.2917  -15.6368   20.1311 H   0  0  0  0  0  0
  -26.7152  -32.5494   23.1120 H   0  0  0  0  0  0
  -25.0012  -33.9732   25.0421 H   0  0  0  0  0  0
  -22.7039  -31.3034   21.4052 H   0  0  0  0  0  0
  -23.3738  -35.9655   23.3306 H   0  0  0  0  0  0
  -24.3577  -36.8930   22.2054 H   0  0  0  0  0  0
  -23.7253  -37.6519   23.6659 H   0  0  0  0  0  0
  -26.0624  -31.5754   20.5935 H   0  0  0  0  0  0
  -26.8317  -30.8691   21.9855 H   0  0  0  0  0  0
  -28.1203  -29.0538   21.1530 H   0  0  0  0  0  0
  -26.0383  -25.9307   19.0316 H   0  0  0  0  0  0
  -23.9748  -27.2848   19.0416 H   0  0  0  0  0  0
  -23.7372  -30.5900   19.4028 H   0  0  0  0  0  0
  -22.7456  -29.2409   19.8646 H   0  0  0  0  0  0
  -25.1284  -36.1943   25.0826 H   0  0  0  0  0  0
  -20.9964  -28.3218   24.1419 H   0  0  0  0  0  0
  -20.5647  -26.2274   23.3611 H   0  0  0  0  0  0
  -21.6637  -26.7411   22.1217 H   0  0  0  0  0  0
  -19.6889  -25.6285   21.1228 H   0  0  0  0  0  0
  -19.6661  -27.3184   20.6739 H   0  0  0  0  0  0
  -17.4191  -26.6655   21.4025 H   0  0  0  0  0  0
  -18.0320  -26.0049   22.9008 H   0  0  0  0  0  0
  -19.7935  -30.7240   24.2274 H   0  0  0  0  0  0
  -17.5015  -31.6247   24.5150 H   0  0  0  0  0  0
  -15.5348  -30.2966   23.7636 H   0  0  0  0  0  0
  -15.8680  -28.0806   22.7046 H   0  0  0  0  0  0
  -24.5897  -30.7056   25.7785 H   0  0  0  0  0  0
  -24.8899  -32.2865   26.4885 H   0  0  0  0  0  0
  -25.8053  -30.8886   27.0221 H   0  0  0  0  0  0
  -26.2864  -29.6787   24.1161 H   0  0  0  0  0  0
  -27.4061  -29.7267   25.4590 H   0  0  0  0  0  0
  -27.8712  -30.4348   23.9296 H   0  0  0  0  0  0
  -27.2661  -33.3620   26.2064 H   0  0  0  0  0  0
  -28.3848  -32.6879   25.0306 H   0  0  0  0  0  0
  -28.0716  -31.8439   26.5393 H   0  0  0  0  0  0
  -28.2601  -38.0107   24.7510 H   0  0  0  0  0  0
  -28.1072  -36.2634   24.6285 H   0  0  0  0  0  0
  -27.2297  -37.1458   25.8871 H   0  0  0  0  0  0
  -20.9347  -29.8785   21.6955 H   0  0  0  0  0  0
  -26.0171  -38.2860   24.1400 H   0  0  0  0  0  0
  -30.8889  -17.8165   19.9676 H   0  0  0  0  0  0
  -25.9115  -16.1069   24.3711 H   0  0  0  0  0  0
  -25.6551  -17.1578   22.9861 H   0  0  0  0  0  0
  -26.6870  -17.6847   24.3216 H   0  0  0  0  0  0
  -30.9470  -23.8262   18.3852 H   0  0  0  0  0  0
  -30.0638  -22.3307   18.2043 H   0  0  0  0  0  0
  -31.6157  -22.3420   19.0312 H   0  0  0  0  0  0
  -30.9995  -25.1054   20.5709 H   0  0  0  0  0  0
  -31.9696  -23.7353   21.0138 H   0  0  0  0  0  0
  -30.6618  -24.2406   22.0621 H   0  0  0  0  0  0
  -28.6692  -21.1613   22.8557 H   0  0  0  0  0  0
  -27.6697  -21.9982   21.6777 H   0  0  0  0  0  0
  -28.8194  -22.8820   22.6759 H   0  0  0  0  0  0
  -30.9338  -20.4088   22.3244 H   0  0  0  0  0  0
  -31.3364  -22.0746   22.5631 H   0  0  0  0  0  0
  -31.8953  -21.2375   21.1183 H   0  0  0  0  0  0
  -28.4891  -20.6997   19.5835 H   0  0  0  0  0  0
  -30.1686  -20.3839   19.3584 H   0  0  0  0  0  0
  -28.2938  -15.8245   23.7862 H   0  0  0  0  0  0
  -27.2641  -15.3137   22.4796 H   0  0  0  0  0  0
  -28.8076  -25.3067   21.6979 H   0  0  0  0  0  0
  -27.2113  -25.1035   21.0697 H   0  0  0  0  0  0
  -29.3481  -14.8475   22.0239 H   0  0  0  0  0  0
  1 25  1  0  0  0
  1 30  2  0  0  0
  1 86  1  0  0  0
  2  3  1  0  0  0
  2 25  1  0  0  0
  2 89  1  0  0  0
  2 90  1  0  0  0
  3  4  1  0  0  0
  3 91  1  0  0  0
  3 92  1  0  0  0
  4  5  1  0  0  0
  4 93  1  0  0  0
  4 94  1  0  0  0
  5  6  1  0  0  0
  5 26  1  0  0  0
  5 95  1  0  0  0
  6 25  1  0  0  0
  6 96  1  0  0  0
  6 97  1  0  0  0
  7  8  2  0  0  0
  7 26  1  0  0  0
  7 29  1  0  0  0
  8  9  1  0  0  0
  8 22  1  0  0  0
  9 10  1  0  0  0
  9 27  2  0  0  0
 10 11  2  0  0  0
 10 15  1  0  0  0
 11 12  1  0  0  0
 11 98  1  0  0  0
 12 13  2  0  0  0
 12 99  1  0  0  0
 13 14  1  0  0  0
 13 31  1  0  0  0
 14 15  2  0  0  0
 14100  1  0  0  0
 15101  1  0  0  0
 16 17  2  0  0  0
 16 21  1  0  0  0
 16 31  1  0  0  0
 17 18  1  0  0  0
 17102  1  0  0  0
 18 19  2  0  0  0
 18103  1  0  0  0
 19 20  1  0  0  0
 19 24  1  0  0  0
 20 21  2  0  0  0
 20104  1  0  0  0
 21 23  1  0  0  0
 22 28  1  0  0  0
 22 32  2  0  0  0
 26 27  1  0  0  0
 28105  1  0  0  0
 28106  1  0  0  0
 29107  1  0  0  0
 29108  1  0  0  0
 33 34  1  0  0  0
 33 66  1  0  0  0
 33 70  2  0  0  0
 34 36  1  0  0  0
 34 59  1  0  0  0
 34109  1  0  0  0
 35 44  2  0  0  0
 35 45  1  0  0  0
 35 68  1  0  0  0
 36 56  1  0  0  0
 36110  1  0  0  0
 37 39  1  0  0  0
 37 47  1  0  0  0
 37 66  1  0  0  0
 37111  1  0  0  0
 38 43  2  0  0  0
 38 46  1  0  0  0
 38 47  1  0  0  0
 39 64  1  0  0  0
 39 67  2  0  0  0
 40 52  1  0  0  0
 40 53  2  0  0  0
 40 58  1  0  0  0
 41112  1  0  0  0
 41113  1  0  0  0
 41114  1  0  0  0
 41 48  1  0  0  0
 42 43  1  0  0  0
 42 66  1  0  0  0
 42115  1  0  0  0
 42116  1  0  0  0
 43 44  1  0  0  0
 44117  1  0  0  0
 45 46  2  0  0  0
 45118  1  0  0  0
 46119  1  0  0  0
 47120  1  0  0  0
 47121  1  0  0  0
 48 56  1  0  0  0
 48 65  1  0  0  0
 48122  1  0  0  0
 49 50  1  0  0  0
 49 53  1  0  0  0
 49 64  1  0  0  0
 49123  1  0  0  0
 50 51  1  0  0  0
 50124  1  0  0  0
 50125  1  0  0  0
 51 52  1  0  0  0
 51126  1  0  0  0
 51127  1  0  0  0
 52128  1  0  0  0
 52129  1  0  0  0
 53 54  1  0  0  0
 54 55  2  0  0  0
 54130  1  0  0  0
 55 57  1  0  0  0
 55131  1  0  0  0
 56 69  2  0  0  0
 57 58  2  0  0  0
 57132  1  0  0  0
 58133  1  0  0  0
 59 60  1  0  0  0
 59 61  1  0  0  0
 59 62  1  0  0  0
 60134  1  0  0  0
 60135  1  0  0  0
 60136  1  0  0  0
 61137  1  0  0  0
 61138  1  0  0  0
 61139  1  0  0  0
 62140  1  0  0  0
 62141  1  0  0  0
 62142  1  0  0  0
 63 65  1  0  0  0
 63143  1  0  0  0
 63144  1  0  0  0
 63145  1  0  0  0
 64146  1  0  0  0
 65147  1  0  0  0
 68 83  1  0  0  0
 71 72  1  0  0  0
 71 73  2  0  0  0
 71148  1  0  0  0
 72 74  2  0  0  0
 72 86  1  0  0  0
 73 81  1  0  0  0
 73 88  1  0  0  0
 74 82  1  0  0  0
 74 88  1  0  0  0
 75 83  1  0  0  0
 75 84  1  0  0  0
 75 87  2  0  0  0
 76 82  1  0  0  0
 76149  1  0  0  0
 76150  1  0  0  0
 76151  1  0  0  0
 77152  1  0  0  0
 77153  1  0  0  0
 77154  1  0  0  0
 77 84  1  0  0  0
 78 84  1  0  0  0
 78155  1  0  0  0
 78156  1  0  0  0
 78157  1  0  0  0
 79158  1  0  0  0
 79159  1  0  0  0
 79160  1  0  0  0
 79 85  1  0  0  0
 80 85  1  0  0  0
 80161  1  0  0  0
 80162  1  0  0  0
 80163  1  0  0  0
 81 85  1  0  0  0
 81164  1  0  0  0
 81165  1  0  0  0
 82166  1  0  0  0
 82167  1  0  0  0
 83168  1  0  0  0
 83169  1  0  0  0
 84 85  1  0  0  0
 86170  1  0  0  0
M  ISO  4   1 100  68 101  83 101  86 100
M  END
> <chiral flag>
0

> <version>
0

> <s_m_source_file>
/data/baiqing/PycharmProjects/Reinvent-master-3.2/result/LINK_invent/BTK/process_docking_weight1_custom_product_contain_oxygen_bond_distance_aromatic_linkinvent_7_9_3/rearranged_h_0139.sdf

> <i_m_source_file_index>
10

> <r_mmod_Potential_Energy-OPLS-2005>
120.573463439941

> <r_mmod_Stretch_Energy-OPLS-2005>
81.1424407958984

> <r_mmod_Bend_Energy-OPLS-2005>
165.145950317383

> <r_mmod_Torsional_Energy-OPLS-2005>
253.613876342773

> <r_mmod_Improper_Torsional_Energy-OPLS-2005>
4.70237445831299

> <r_mmod_Van_der_Waal_Energy-OPLS-2005>
132.767166137695

> <r_mmod_Electrostatic_Energy-OPLS-2005>
-347.044769287109

> <r_mmod_Solvation_Energy-OPLS-2005>
-198.09831237793

> <b_mmod_Minimization_Converged-OPLS-2005>
0

> <r_mmod_RMS_Derivative-OPLS-2005>
1.24568581581116

$$$$
10
                    3D
 Structure written by MMmdl.
166175  0  0  1  0            999 V2000
  -30.5584  -14.6861   20.4600 C   0  0  0  0  0  0
  -30.4352  -12.4149   19.4364 C   0  0  0  0  0  0
  -29.5029  -12.5140   18.2072 C   0  0  0  0  0  0
  -28.0237  -12.3460   18.6202 C   0  0  0  0  0  0
  -27.6368  -13.2140   19.8479 C   0  0  2  0  0  0
  -28.6871  -13.0849   20.9726 C   0  0  0  0  0  0
  -25.2494  -13.8133   20.5712 C   0  0  0  0  0  0
  -24.1778  -13.0402   20.9205 C   0  0  0  0  0  0
  -24.6330  -11.6884   20.8702 C   0  0  0  0  0  0
  -23.8997  -10.4273   21.0381 C   0  0  0  0  0  0
  -24.3551   -9.4209   21.9167 C   0  0  0  0  0  0
  -23.6242   -8.2226   22.0743 C   0  0  0  0  0  0
  -22.4223   -8.0252   21.3536 C   0  0  0  0  0  0
  -21.9844   -9.0215   20.4644 C   0  0  0  0  0  0
  -22.7163  -10.2101   20.3040 C   0  0  0  0  0  0
  -21.6852   -6.0694   22.5270 C   0  0  0  0  0  0
  -21.4018   -6.5599   23.8195 C   0  0  0  0  0  0
  -21.3666   -5.6763   24.9168 C   0  0  0  0  0  0
  -21.6049   -4.3017   24.7225 C   0  0  0  0  0  0
  -21.8824   -3.8112   23.4348 C   0  0  0  0  0  0
  -21.9201   -4.6922   22.3394 C   0  0  0  0  0  0
  -22.7808  -13.5222   21.1887 C   0  0  0  0  0  0
  -22.1672   -4.2116   21.0976 F   0  0  0  0  0  0
  -21.5629   -3.4508   25.7732 F   0  0  0  0  0  0
  -29.9882  -13.4422   20.3926 N   0  0  0  0  0  0
  -26.2892  -12.9298   20.3244 N   0  0  0  0  0  0
  -25.9248  -11.6455   20.5667 N   0  0  0  0  0  0
  -22.0425  -12.8227   22.0425 N   0  0  0  0  0  0
  -25.4188  -15.1857   20.4193 N   0  0  0  0  0  0
  -31.7666  -14.8547   20.2603 O   0  0  0  0  0  0
  -21.6624   -6.8825   21.4230 O   0  0  0  0  0  0
  -22.3515  -14.5553   20.6761 O   0  0  0  0  0  0
  -24.6277  -31.8586   23.1995 C   0  0  0  0  0  0
  -25.9125  -32.4763   23.8314 C   0  0  1  0  0  0
  -27.2147  -27.2933   20.1377 C   0  0  0  0  0  0
  -25.5923  -33.8555   24.2258 N   0  0  0  0  0  0
  -23.4201  -30.4841   21.5404 C   0  0  2  0  0  0
  -24.8692  -28.9324   20.1097 C   0  0  0  0  0  0
  -22.7476  -29.4632   22.4900 C   0  0  0  0  0  0
  -18.0302  -28.1395   22.8497 C   0  0  0  0  0  0
  -24.1480  -36.7254   23.2634 C   0  0  0  0  0  0
  -25.9626  -30.7869   21.3711 C   0  0  0  0  0  0
  -26.0375  -29.4093   20.7168 C   0  0  0  0  0  0
  -27.2174  -28.6037   20.7171 C   0  0  0  0  0  0
  -26.0288  -26.8704   19.5070 C   0  0  0  0  0  0
  -24.8688  -27.6712   19.4912 C   0  0  0  0  0  0
  -23.6367  -29.8165   20.1560 C   0  0  0  0  0  0
  -25.4105  -36.3064   24.0333 C   0  0  1  0  0  0
  -20.5904  -28.3702   23.1276 C   0  0  2  0  0  0
  -20.6790  -26.9419   22.5419 C   0  0  0  0  0  0
  -19.5753  -26.6406   21.5220 C   0  0  0  0  0  0
  -18.1932  -26.7946   22.1633 C   0  0  0  0  0  0
  -19.1558  -28.8868   23.2885 C   0  0  0  0  0  0
  -18.9476  -30.1472   23.8901 C   0  0  0  0  0  0
  -17.6470  -30.6585   24.0583 C   0  0  0  0  0  0
  -25.9046  -34.9441   23.5093 C   0  0  0  0  0  0
  -16.5361  -29.9082   23.6342 C   0  0  0  0  0  0
  -16.7293  -28.6511   23.0347 C   0  0  0  0  0  0
  -26.4521  -31.6564   25.0676 C   0  0  0  0  0  0
  -25.3744  -31.3696   26.1385 C   0  0  0  0  0  0
  -27.0358  -30.2984   24.6124 C   0  0  0  0  0  0
  -27.6069  -32.4293   25.7468 C   0  0  0  0  0  0
  -27.5578  -37.1780   24.8462 C   0  0  0  0  0  0
  -21.4195  -29.3048   22.3657 N   0  0  0  0  0  0
  -26.4276  -37.3770   23.9424 N   0  0  0  0  0  0
  -24.6880  -31.0601   22.0929 N   0  0  0  0  0  0
  -23.4224  -28.8172   23.2965 O   0  0  0  0  0  0
  -28.3152  -26.4216   20.1446 O   0  0  0  0  0  0
  -26.5616  -34.8921   22.4665 O   0  0  0  0  0  0
  -23.5443  -32.1375   23.7331 O   0  0  0  0  0  0
  -28.7683  -19.5586   22.0669 C   0  0  0  0  0  0
  -29.5644  -18.2938   20.1512 C   0  0  0  0  0  0
  -29.1234  -17.1338   22.2447 C   0  0  0  0  0  0
  -29.1814  -19.5794   20.7128 C   0  0  0  0  0  0
  -28.7396  -18.3645   22.8188 C   0  0  0  0  0  0
  -29.5518  -17.0582   20.9050 C   0  0  0  0  0  0
  -31.2932  -21.8080   20.8315 C   0  0  0  0  0  0
  -30.1484  -22.5411   21.5504 C   0  0  0  0  0  0
  -30.6915  -21.2257   19.5494 C   0  0  0  0  0  0
  -28.8850  -22.3494   20.6790 C   0  0  2  0  0  0
  -29.2221  -20.9593   19.9009 C   0  0  2  0  0  0
  -28.2554  -18.3914   24.2555 C   0  0  0  0  0  0
  -28.3598  -20.8050   18.6292 C   0  0  0  0  0  0
  -28.6204  -23.7323   19.8673 C   0  0  0  0  0  0
  -28.1296  -25.0368   20.6743 C   0  0  0  0  0  0
  -29.6541  -15.7165   20.3307 N   0  0  0  0  0  0
  -31.4789  -12.5503   19.1457 H   0  0  0  0  0  0
  -30.3666  -11.4240   19.8865 H   0  0  0  0  0  0
  -29.7724  -11.7630   17.4629 H   0  0  0  0  0  0
  -29.6400  -13.4821   17.7215 H   0  0  0  0  0  0
  -27.8575  -11.2929   18.8456 H   0  0  0  0  0  0
  -27.3734  -12.5844   17.7773 H   0  0  0  0  0  0
  -27.6325  -14.2423   19.4905 H   0  0  0  0  0  0
  -28.7127  -12.0646   21.3588 H   0  0  0  0  0  0
  -28.4379  -13.7291   21.8169 H   0  0  0  0  0  0
  -25.2680   -9.5705   22.4754 H   0  0  0  0  0  0
  -23.9970   -7.4619   22.7453 H   0  0  0  0  0  0
  -21.0772   -8.8713   19.8935 H   0  0  0  0  0  0
  -22.3608  -10.9620   19.6138 H   0  0  0  0  0  0
  -21.2007   -7.6105   23.9679 H   0  0  0  0  0  0
  -21.1485   -6.0492   25.9061 H   0  0  0  0  0  0
  -22.0598   -2.7576   23.2851 H   0  0  0  0  0  0
  -22.4001  -11.9890   22.4853 H   0  0  0  0  0  0
  -21.1038  -13.1269   22.2588 H   0  0  0  0  0  0
  -24.6457  -15.8309   20.5413 H   0  0  0  0  0  0
  -26.2662  -15.6445   20.1133 H   0  0  0  0  0  0
  -26.7183  -32.5453   23.1048 H   0  0  0  0  0  0
  -25.0095  -33.9690   25.0423 H   0  0  0  0  0  0
  -22.7113  -31.3038   21.3979 H   0  0  0  0  0  0
  -23.3776  -35.9548   23.3277 H   0  0  0  0  0  0
  -24.3589  -36.8899   22.2056 H   0  0  0  0  0  0
  -23.7196  -37.6433   23.6668 H   0  0  0  0  0  0
  -26.0919  -31.5518   20.6040 H   0  0  0  0  0  0
  -26.8428  -30.8398   22.0003 H   0  0  0  0  0  0
  -28.1138  -28.9680   21.1988 H   0  0  0  0  0  0
  -26.0002  -25.9001   19.0314 H   0  0  0  0  0  0
  -23.9765  -27.3037   19.0046 H   0  0  0  0  0  0
  -23.7514  -30.5909   19.3964 H   0  0  0  0  0  0
  -22.7577  -29.2442   19.8570 H   0  0  0  0  0  0
  -25.1282  -36.1897   25.0823 H   0  0  0  0  0  0
  -21.0016  -28.3300   24.1385 H   0  0  0  0  0  0
  -20.5706  -26.2299   23.3619 H   0  0  0  0  0  0
  -21.6655  -26.7446   22.1193 H   0  0  0  0  0  0
  -19.6889  -25.6319   21.1241 H   0  0  0  0  0  0
  -19.6674  -27.3243   20.6765 H   0  0  0  0  0  0
  -17.4196  -26.6726   21.4029 H   0  0  0  0  0  0
  -18.0301  -26.0085   22.9023 H   0  0  0  0  0  0
  -19.7945  -30.7309   24.2243 H   0  0  0  0  0  0
  -17.5014  -31.6258   24.5191 H   0  0  0  0  0  0
  -15.5364  -30.2976   23.7649 H   0  0  0  0  0  0
  -15.8701  -28.0833   22.7031 H   0  0  0  0  0  0
  -24.5925  -30.7047   25.7703 H   0  0  0  0  0  0
  -24.8926  -32.2857   26.4801 H   0  0  0  0  0  0
  -25.8060  -30.8871   27.0159 H   0  0  0  0  0  0
  -26.2914  -29.6727   24.1179 H   0  0  0  0  0  0
  -27.4098  -29.7249   25.4618 H   0  0  0  0  0  0
  -27.8772  -30.4272   23.9308 H   0  0  0  0  0  0
  -27.2676  -33.3610   26.2009 H   0  0  0  0  0  0
  -28.3910  -32.6820   25.0316 H   0  0  0  0  0  0
  -28.0684  -31.8416   26.5418 H   0  0  0  0  0  0
  -28.2562  -38.0113   24.7578 H   0  0  0  0  0  0
  -28.1108  -36.2651   24.6194 H   0  0  0  0  0  0
  -27.2308  -37.1331   25.8866 H   0  0  0  0  0  0
  -20.9348  -29.8750   21.6869 H   0  0  0  0  0  0
  -26.0150  -38.2829   24.1475 H   0  0  0  0  0  0
  -28.4628  -20.4711   22.5545 H   0  0  0  0  0  0
  -29.8480  -18.2518   19.1094 H   0  0  0  0  0  0
  -29.0229  -16.2311   22.8299 H   0  0  0  0  0  0
  -31.6658  -20.9987   21.4617 H   0  0  0  0  0  0
  -32.1365  -22.4630   20.6131 H   0  0  0  0  0  0
  -30.4024  -23.5886   21.7028 H   0  0  0  0  0  0
  -30.0015  -22.1204   22.5466 H   0  0  0  0  0  0
  -31.2277  -20.3442   19.1970 H   0  0  0  0  0  0
  -30.7584  -21.9722   18.7562 H   0  0  0  0  0  0
  -28.0022  -22.2046   21.3013 H   0  0  0  0  0  0
  -28.1863  -19.4103   24.6395 H   0  0  0  0  0  0
  -28.9348  -17.8368   24.9036 H   0  0  0  0  0  0
  -27.2679  -17.9337   24.3275 H   0  0  0  0  0  0
  -28.6152  -19.9048   18.0692 H   0  0  0  0  0  0
  -28.4884  -21.6395   17.9393 H   0  0  0  0  0  0
  -27.3004  -20.7368   18.8767 H   0  0  0  0  0  0
  -27.8839  -23.5531   19.0831 H   0  0  0  0  0  0
  -29.5355  -23.9908   19.3350 H   0  0  0  0  0  0
  -28.6590  -25.0388   21.6262 H   0  0  0  0  0  0
  -27.0893  -24.8760   20.9605 H   0  0  0  0  0  0
  -28.7458  -15.3295   20.1316 H   0  0  0  0  0  0
  1 25  1  0  0  0
  1 30  2  0  0  0
  1 86  1  0  0  0
  2  3  1  0  0  0
  2 25  1  0  0  0
  2 87  1  0  0  0
  2 88  1  0  0  0
  3  4  1  0  0  0
  3 89  1  0  0  0
  3 90  1  0  0  0
  4  5  1  0  0  0
  4 91  1  0  0  0
  4 92  1  0  0  0
  5  6  1  0  0  0
  5 26  1  0  0  0
  5 93  1  0  0  0
  6 25  1  0  0  0
  6 94  1  0  0  0
  6 95  1  0  0  0
  7  8  2  0  0  0
  7 26  1  0  0  0
  7 29  1  0  0  0
  8  9  1  0  0  0
  8 22  1  0  0  0
  9 10  1  0  0  0
  9 27  2  0  0  0
 10 11  2  0  0  0
 10 15  1  0  0  0
 11 12  1  0  0  0
 11 96  1  0  0  0
 12 13  2  0  0  0
 12 97  1  0  0  0
 13 14  1  0  0  0
 13 31  1  0  0  0
 14 15  2  0  0  0
 14 98  1  0  0  0
 15 99  1  0  0  0
 16 17  2  0  0  0
 16 21  1  0  0  0
 16 31  1  0  0  0
 17 18  1  0  0  0
 17100  1  0  0  0
 18 19  2  0  0  0
 18101  1  0  0  0
 19 20  1  0  0  0
 19 24  1  0  0  0
 20 21  2  0  0  0
 20102  1  0  0  0
 21 23  1  0  0  0
 22 28  1  0  0  0
 22 32  2  0  0  0
 26 27  1  0  0  0
 28103  1  0  0  0
 28104  1  0  0  0
 29105  1  0  0  0
 29106  1  0  0  0
 33 34  1  0  0  0
 33 66  1  0  0  0
 33 70  2  0  0  0
 34 36  1  0  0  0
 34 59  1  0  0  0
 34107  1  0  0  0
 35 44  2  0  0  0
 35 45  1  0  0  0
 35 68  1  0  0  0
 36 56  1  0  0  0
 36108  1  0  0  0
 37 39  1  0  0  0
 37 47  1  0  0  0
 37 66  1  0  0  0
 37109  1  0  0  0
 38 43  2  0  0  0
 38 46  1  0  0  0
 38 47  1  0  0  0
 39 64  1  0  0  0
 39 67  2  0  0  0
 40 52  1  0  0  0
 40 53  2  0  0  0
 40 58  1  0  0  0
 41110  1  0  0  0
 41111  1  0  0  0
 41112  1  0  0  0
 41 48  1  0  0  0
 42 43  1  0  0  0
 42 66  1  0  0  0
 42113  1  0  0  0
 42114  1  0  0  0
 43 44  1  0  0  0
 44115  1  0  0  0
 45 46  2  0  0  0
 45116  1  0  0  0
 46117  1  0  0  0
 47118  1  0  0  0
 47119  1  0  0  0
 48 56  1  0  0  0
 48 65  1  0  0  0
 48120  1  0  0  0
 49 50  1  0  0  0
 49 53  1  0  0  0
 49 64  1  0  0  0
 49121  1  0  0  0
 50 51  1  0  0  0
 50122  1  0  0  0
 50123  1  0  0  0
 51 52  1  0  0  0
 51124  1  0  0  0
 51125  1  0  0  0
 52126  1  0  0  0
 52127  1  0  0  0
 53 54  1  0  0  0
 54 55  2  0  0  0
 54128  1  0  0  0
 55 57  1  0  0  0
 55129  1  0  0  0
 56 69  2  0  0  0
 57 58  2  0  0  0
 57130  1  0  0  0
 58131  1  0  0  0
 59 60  1  0  0  0
 59 61  1  0  0  0
 59 62  1  0  0  0
 60132  1  0  0  0
 60133  1  0  0  0
 60134  1  0  0  0
 61135  1  0  0  0
 61136  1  0  0  0
 61137  1  0  0  0
 62138  1  0  0  0
 62139  1  0  0  0
 62140  1  0  0  0
 63 65  1  0  0  0
 63141  1  0  0  0
 63142  1  0  0  0
 63143  1  0  0  0
 64144  1  0  0  0
 65145  1  0  0  0
 68 85  1  0  0  0
 71 74  2  0  0  0
 71 75  1  0  0  0
 71146  1  0  0  0
 72 74  1  0  0  0
 72 76  2  0  0  0
 72147  1  0  0  0
 73 75  2  0  0  0
 73 76  1  0  0  0
 73148  1  0  0  0
 74 81  1  0  0  0
 75 82  1  0  0  0
 76 86  1  0  0  0
 77 78  1  0  0  0
 77 79  1  0  0  0
 77149  1  0  0  0
 77150  1  0  0  0
 78 80  1  0  0  0
 78151  1  0  0  0
 78152  1  0  0  0
 79 81  1  0  0  0
 79153  1  0  0  0
 79154  1  0  0  0
 80 81  1  0  0  0
 80 84  1  0  0  0
 80155  1  0  0  0
 81 83  1  0  0  0
 82156  1  0  0  0
 82157  1  0  0  0
 82158  1  0  0  0
 83159  1  0  0  0
 83160  1  0  0  0
 83161  1  0  0  0
 84 85  1  0  0  0
 84162  1  0  0  0
 84163  1  0  0  0
 85164  1  0  0  0
 85165  1  0  0  0
 86166  1  0  0  0
M  ISO  4   1 100  68 101  85 101  86 100
M  END
> <chiral flag>
0

> <version>
0

> <s_m_source_file>
/data/baiqing/PycharmProjects/Reinvent-master-3.2/result/LINK_invent/BTK/process_docking_weight1_custom_product_contain_oxygen_bond_distance_aromatic_linkinvent_7_9_3/rearranged_h_0139.sdf

> <i_m_source_file_index>
11

> <r_mmod_Potential_Energy-OPLS-2005>
269.213134765625

> <r_mmod_Stretch_Energy-OPLS-2005>
108.152572631836

> <r_mmod_Bend_Energy-OPLS-2005>
185.33903503418

> <r_mmod_Torsional_Energy-OPLS-2005>
341.748718261719

> <r_mmod_Improper_Torsional_Energy-OPLS-2005>
16.1955070495605

> <r_mmod_Van_der_Waal_Energy-OPLS-2005>
134.680679321289

> <r_mmod_Electrostatic_Energy-OPLS-2005>
-389.220153808594

> <r_mmod_Solvation_Energy-OPLS-2005>
-196.242004394531

> <b_mmod_Minimization_Converged-OPLS-2005>
0

> <r_mmod_RMS_Derivative-OPLS-2005>
3.133709192276

$$$$
11
                    3D
 Structure written by MMmdl.
165173  0  0  1  0            999 V2000
  -30.6745  -14.4991   20.5088 C   0  0  0  0  0  0
  -30.4200  -12.3076   19.4320 C   0  0  0  0  0  0
  -29.4944  -12.4837   18.2107 C   0  0  0  0  0  0
  -28.0159  -12.3537   18.6219 C   0  0  0  0  0  0
  -27.6572  -13.2089   19.8677 C   0  0  2  0  0  0
  -28.6960  -13.0242   20.9983 C   0  0  0  0  0  0
  -25.2588  -13.8181   20.5642 C   0  0  0  0  0  0
  -24.1848  -13.0447   20.9154 C   0  0  0  0  0  0
  -24.6407  -11.6919   20.8738 C   0  0  0  0  0  0
  -23.9073  -10.4300   21.0407 C   0  0  0  0  0  0
  -24.3620   -9.4218   21.9187 C   0  0  0  0  0  0
  -23.6292   -8.2256   22.0757 C   0  0  0  0  0  0
  -22.4286   -8.0285   21.3539 C   0  0  0  0  0  0
  -21.9916   -9.0262   20.4645 C   0  0  0  0  0  0
  -22.7246  -10.2138   20.3057 C   0  0  0  0  0  0
  -21.6862   -6.0732   22.5269 C   0  0  0  0  0  0
  -21.4020   -6.5636   23.8197 C   0  0  0  0  0  0
  -21.3660   -5.6792   24.9165 C   0  0  0  0  0  0
  -21.6052   -4.3051   24.7225 C   0  0  0  0  0  0
  -21.8833   -3.8143   23.4351 C   0  0  0  0  0  0
  -21.9205   -4.6957   22.3401 C   0  0  0  0  0  0
  -22.7875  -13.5243   21.1833 C   0  0  0  0  0  0
  -22.1667   -4.2140   21.0977 F   0  0  0  0  0  0
  -21.5629   -3.4542   25.7740 F   0  0  0  0  0  0
  -30.0302  -13.3054   20.4416 N   0  0  0  0  0  0
  -26.3007  -12.9339   20.3333 N   0  0  0  0  0  0
  -25.9336  -11.6502   20.5791 N   0  0  0  0  0  0
  -22.0535  -12.8231   22.0391 N   0  0  0  0  0  0
  -25.4373  -15.1887   20.4033 N   0  0  0  0  0  0
  -31.8216  -14.6721   20.0844 O   0  0  0  0  0  0
  -21.6656   -6.8873   21.4228 O   0  0  0  0  0  0
  -22.3561  -14.5562   20.6703 O   0  0  0  0  0  0
  -24.6135  -31.8681   23.2105 C   0  0  0  0  0  0
  -25.9023  -32.4826   23.8409 C   0  0  1  0  0  0
  -27.2316  -27.4371   20.1043 C   0  0  0  0  0  0
  -25.5857  -33.8624   24.2318 N   0  0  0  0  0  0
  -23.4013  -30.4902   21.5522 C   0  0  2  0  0  0
  -24.8437  -28.9485   20.1224 C   0  0  0  0  0  0
  -22.7398  -29.4658   22.5015 C   0  0  0  0  0  0
  -18.0267  -28.1366   22.8514 C   0  0  0  0  0  0
  -24.1464  -36.7324   23.2653 C   0  0  0  0  0  0
  -25.9312  -30.8276   21.3670 C   0  0  0  0  0  0
  -26.0045  -29.4645   20.7133 C   0  0  0  0  0  0
  -27.2036  -28.7192   20.6950 C   0  0  0  0  0  0
  -26.0560  -26.9264   19.5137 C   0  0  0  0  0  0
  -24.8629  -27.6751   19.5227 C   0  0  0  0  0  0
  -23.6076  -29.8176   20.1687 C   0  0  0  0  0  0
  -25.4097  -36.3128   24.0344 C   0  0  1  0  0  0
  -20.5848  -28.3656   23.1318 C   0  0  2  0  0  0
  -20.6724  -26.9383   22.5418 C   0  0  0  0  0  0
  -19.5703  -26.6373   21.5206 C   0  0  0  0  0  0
  -18.1897  -26.7913   22.1636 C   0  0  0  0  0  0
  -19.1516  -28.8828   23.2915 C   0  0  0  0  0  0
  -18.9453  -30.1435   23.8924 C   0  0  0  0  0  0
  -17.6460  -30.6573   24.0580 C   0  0  0  0  0  0
  -25.9033  -34.9485   23.5144 C   0  0  0  0  0  0
  -16.5347  -29.9087   23.6332 C   0  0  0  0  0  0
  -16.7259  -28.6502   23.0359 C   0  0  0  0  0  0
  -26.4450  -31.6627   25.0757 C   0  0  0  0  0  0
  -25.3730  -31.3710   26.1517 C   0  0  0  0  0  0
  -27.0312  -30.3075   24.6170 C   0  0  0  0  0  0
  -27.6019  -32.4385   25.7500 C   0  0  0  0  0  0
  -27.5578  -37.1798   24.8472 C   0  0  0  0  0  0
  -21.4127  -29.3041   22.3756 N   0  0  0  0  0  0
  -26.4284  -37.3812   23.9424 N   0  0  0  0  0  0
  -24.6671  -31.0767   22.1013 N   0  0  0  0  0  0
  -23.4172  -28.8189   23.3052 O   0  0  0  0  0  0
  -28.4117  -26.7327   20.0645 O   0  0  0  0  0  0
  -26.5632  -34.8940   22.4734 O   0  0  0  0  0  0
  -23.5330  -32.1466   23.7486 O   0  0  0  0  0  0
  -29.7819  -18.0165   20.7588 C   0  0  0  0  0  0
  -29.4427  -19.1093   18.6027 C   0  0  0  0  0  0
  -29.5505  -16.6795   18.7337 C   0  0  0  0  0  0
  -29.6409  -19.2094   19.9996 C   0  0  0  0  0  0
  -29.7695  -16.7455   20.1295 C   0  0  0  0  0  0
  -29.3828  -17.8522   17.9775 C   0  0  0  0  0  0
  -30.6233  -25.2049   19.3864 C   0  0  0  0  0  0
  -28.5869  -24.1781   18.3732 C   0  0  0  0  0  0
  -29.8595  -20.5752   20.6638 C   0  0  0  0  0  0
  -29.6947  -23.1405   20.4847 C   0  0  0  0  0  0
  -28.4069  -25.3910   20.5755 C   0  0  0  0  0  0
  -28.9727  -21.7796   20.2033 C   0  0  2  0  0  0
  -29.3040  -24.4562   19.7104 C   0  0  0  0  0  0
  -29.9134  -15.5443   20.8913 N   0  0  0  0  0  0
  -27.6318  -21.7085   20.8180 N   0  3  0  0  0  0
  -29.1828  -17.7710   16.6405 F   0  0  0  0  0  0
  -31.4631  -12.4068   19.1249 H   0  0  0  0  0  0
  -30.3250  -11.3044   19.8464 H   0  0  0  0  0  0
  -29.7310  -11.7402   17.4473 H   0  0  0  0  0  0
  -29.6685  -13.4554   17.7489 H   0  0  0  0  0  0
  -27.8235  -11.3003   18.8283 H   0  0  0  0  0  0
  -27.3698  -12.6188   17.7841 H   0  0  0  0  0  0
  -27.6891  -14.2515   19.5502 H   0  0  0  0  0  0
  -28.6690  -12.0102   21.3962 H   0  0  0  0  0  0
  -28.4585  -13.6741   21.8433 H   0  0  0  0  0  0
  -25.2765   -9.5700   22.4761 H   0  0  0  0  0  0
  -24.0011   -7.4655   22.7480 H   0  0  0  0  0  0
  -21.0852   -8.8787   19.8940 H   0  0  0  0  0  0
  -22.3715  -10.9682   19.6163 H   0  0  0  0  0  0
  -21.2001   -7.6142   23.9692 H   0  0  0  0  0  0
  -21.1463   -6.0523   25.9061 H   0  0  0  0  0  0
  -22.0611   -2.7606   23.2860 H   0  0  0  0  0  0
  -22.4161  -11.9870   22.4740 H   0  0  0  0  0  0
  -21.1154  -13.1245   22.2628 H   0  0  0  0  0  0
  -24.6764  -15.8526   20.4982 H   0  0  0  0  0  0
  -26.2987  -15.6179   20.0881 H   0  0  0  0  0  0
  -26.7096  -32.5503   23.1168 H   0  0  0  0  0  0
  -24.9910  -33.9799   25.0392 H   0  0  0  0  0  0
  -22.6923  -31.3090   21.4119 H   0  0  0  0  0  0
  -23.3734  -35.9647   23.3324 H   0  0  0  0  0  0
  -24.3555  -36.8952   22.2068 H   0  0  0  0  0  0
  -23.7197  -37.6514   23.6687 H   0  0  0  0  0  0
  -26.0592  -31.5891   20.5975 H   0  0  0  0  0  0
  -26.8138  -30.8705   21.9929 H   0  0  0  0  0  0
  -28.1036  -29.1211   21.1395 H   0  0  0  0  0  0
  -26.0612  -25.9558   19.0382 H   0  0  0  0  0  0
  -23.9712  -27.2658   19.0683 H   0  0  0  0  0  0
  -23.7215  -30.5908   19.4091 H   0  0  0  0  0  0
  -22.7306  -29.2415   19.8719 H   0  0  0  0  0  0
  -25.1264  -36.2009   25.0835 H   0  0  0  0  0  0
  -20.9957  -28.3197   24.1425 H   0  0  0  0  0  0
  -20.5559  -26.2282   23.3618 H   0  0  0  0  0  0
  -21.6608  -26.7370   22.1245 H   0  0  0  0  0  0
  -19.6854  -25.6290   21.1218 H   0  0  0  0  0  0
  -19.6614  -27.3200   20.6739 H   0  0  0  0  0  0
  -17.4150  -26.6675   21.4043 H   0  0  0  0  0  0
  -18.0302  -26.0035   22.9013 H   0  0  0  0  0  0
  -19.7932  -30.7240   24.2288 H   0  0  0  0  0  0
  -17.5020  -31.6248   24.5194 H   0  0  0  0  0  0
  -15.5357  -30.3001   23.7628 H   0  0  0  0  0  0
  -15.8657  -28.0821   22.7059 H   0  0  0  0  0  0
  -24.5843  -30.7148   25.7822 H   0  0  0  0  0  0
  -24.8994  -32.2857   26.5087 H   0  0  0  0  0  0
  -25.8074  -30.8753   27.0209 H   0  0  0  0  0  0
  -26.2845  -29.6775   24.1318 H   0  0  0  0  0  0
  -27.4173  -29.7381   25.4634 H   0  0  0  0  0  0
  -27.8647  -30.4398   23.9271 H   0  0  0  0  0  0
  -27.2610  -33.3644   26.2152 H   0  0  0  0  0  0
  -28.3760  -32.7041   25.0287 H   0  0  0  0  0  0
  -28.0796  -31.8505   26.5355 H   0  0  0  0  0  0
  -28.2606  -38.0083   24.7544 H   0  0  0  0  0  0
  -28.1061  -36.2626   24.6264 H   0  0  0  0  0  0
  -27.2312  -37.1413   25.8876 H   0  0  0  0  0  0
  -20.9295  -29.8850   21.7048 H   0  0  0  0  0  0
  -26.0183  -38.2894   24.1424 H   0  0  0  0  0  0
  -29.9551  -18.0790   21.8253 H   0  0  0  0  0  0
  -29.3695  -19.9839   17.9732 H   0  0  0  0  0  0
  -29.5124  -15.7294   18.2243 H   0  0  0  0  0  0
  -31.3060  -24.5913   18.7953 H   0  0  0  0  0  0
  -31.1530  -25.5003   20.2932 H   0  0  0  0  0  0
  -30.4479  -26.1110   18.8046 H   0  0  0  0  0  0
  -29.1790  -23.5318   17.7240 H   0  0  0  0  0  0
  -28.4071  -25.1058   17.8276 H   0  0  0  0  0  0
  -27.6150  -23.7059   18.5168 H   0  0  0  0  0  0
  -30.9055  -20.8045   20.4627 H   0  0  0  0  0  0
  -29.8010  -20.4673   21.7475 H   0  0  0  0  0  0
  -30.7422  -22.9549   20.2499 H   0  0  0  0  0  0
  -29.7127  -23.3285   21.5578 H   0  0  0  0  0  0
  -28.7957  -25.4504   21.5928 H   0  0  0  0  0  0
  -27.4038  -24.9724   20.6703 H   0  0  0  0  0  0
  -28.8361  -21.7000   19.1282 H   0  0  0  0  0  0
  -29.0993  -15.2864   21.4292 H   0  0  0  0  0  0
  -27.6770  -21.8268   21.8150 H   0  0  0  0  0  0
  -27.2186  -20.8106   20.6341 H   0  0  0  0  0  0
  -27.0161  -22.4067   20.4429 H   0  0  0  0  0  0
  1 25  1  0  0  0
  1 30  2  0  0  0
  1 84  1  0  0  0
  2  3  1  0  0  0
  2 25  1  0  0  0
  2 87  1  0  0  0
  2 88  1  0  0  0
  3  4  1  0  0  0
  3 89  1  0  0  0
  3 90  1  0  0  0
  4  5  1  0  0  0
  4 91  1  0  0  0
  4 92  1  0  0  0
  5  6  1  0  0  0
  5 26  1  0  0  0
  5 93  1  0  0  0
  6 25  1  0  0  0
  6 94  1  0  0  0
  6 95  1  0  0  0
  7  8  2  0  0  0
  7 26  1  0  0  0
  7 29  1  0  0  0
  8  9  1  0  0  0
  8 22  1  0  0  0
  9 10  1  0  0  0
  9 27  2  0  0  0
 10 11  2  0  0  0
 10 15  1  0  0  0
 11 12  1  0  0  0
 11 96  1  0  0  0
 12 13  2  0  0  0
 12 97  1  0  0  0
 13 14  1  0  0  0
 13 31  1  0  0  0
 14 15  2  0  0  0
 14 98  1  0  0  0
 15 99  1  0  0  0
 16 17  2  0  0  0
 16 21  1  0  0  0
 16 31  1  0  0  0
 17 18  1  0  0  0
 17100  1  0  0  0
 18 19  2  0  0  0
 18101  1  0  0  0
 19 20  1  0  0  0
 19 24  1  0  0  0
 20 21  2  0  0  0
 20102  1  0  0  0
 21 23  1  0  0  0
 22 28  1  0  0  0
 22 32  2  0  0  0
 26 27  1  0  0  0
 28103  1  0  0  0
 28104  1  0  0  0
 29105  1  0  0  0
 29106  1  0  0  0
 33 34  1  0  0  0
 33 66  1  0  0  0
 33 70  2  0  0  0
 34 36  1  0  0  0
 34 59  1  0  0  0
 34107  1  0  0  0
 35 44  2  0  0  0
 35 45  1  0  0  0
 35 68  1  0  0  0
 36 56  1  0  0  0
 36108  1  0  0  0
 37 39  1  0  0  0
 37 47  1  0  0  0
 37 66  1  0  0  0
 37109  1  0  0  0
 38 43  2  0  0  0
 38 46  1  0  0  0
 38 47  1  0  0  0
 39 64  1  0  0  0
 39 67  2  0  0  0
 40 52  1  0  0  0
 40 53  2  0  0  0
 40 58  1  0  0  0
 41110  1  0  0  0
 41111  1  0  0  0
 41112  1  0  0  0
 41 48  1  0  0  0
 42 43  1  0  0  0
 42 66  1  0  0  0
 42113  1  0  0  0
 42114  1  0  0  0
 43 44  1  0  0  0
 44115  1  0  0  0
 45 46  2  0  0  0
 45116  1  0  0  0
 46117  1  0  0  0
 47118  1  0  0  0
 47119  1  0  0  0
 48 56  1  0  0  0
 48 65  1  0  0  0
 48120  1  0  0  0
 49 50  1  0  0  0
 49 53  1  0  0  0
 49 64  1  0  0  0
 49121  1  0  0  0
 50 51  1  0  0  0
 50122  1  0  0  0
 50123  1  0  0  0
 51 52  1  0  0  0
 51124  1  0  0  0
 51125  1  0  0  0
 52126  1  0  0  0
 52127  1  0  0  0
 53 54  1  0  0  0
 54 55  2  0  0  0
 54128  1  0  0  0
 55 57  1  0  0  0
 55129  1  0  0  0
 56 69  2  0  0  0
 57 58  2  0  0  0
 57130  1  0  0  0
 58131  1  0  0  0
 59 60  1  0  0  0
 59 61  1  0  0  0
 59 62  1  0  0  0
 60132  1  0  0  0
 60133  1  0  0  0
 60134  1  0  0  0
 61135  1  0  0  0
 61136  1  0  0  0
 61137  1  0  0  0
 62138  1  0  0  0
 62139  1  0  0  0
 62140  1  0  0  0
 63 65  1  0  0  0
 63141  1  0  0  0
 63142  1  0  0  0
 63143  1  0  0  0
 64144  1  0  0  0
 65145  1  0  0  0
 68 81  1  0  0  0
 71 74  2  0  0  0
 71 75  1  0  0  0
 71146  1  0  0  0
 72 74  1  0  0  0
 72 76  2  0  0  0
 72147  1  0  0  0
 73 75  2  0  0  0
 73 76  1  0  0  0
 73148  1  0  0  0
 74 79  1  0  0  0
 75 84  1  0  0  0
 76 86  1  0  0  0
 77149  1  0  0  0
 77150  1  0  0  0
 77151  1  0  0  0
 77 83  1  0  0  0
 78 83  1  0  0  0
 78152  1  0  0  0
 78153  1  0  0  0
 78154  1  0  0  0
 79 82  1  0  0  0
 79155  1  0  0  0
 79156  1  0  0  0
 80 82  1  0  0  0
 80 83  1  0  0  0
 80157  1  0  0  0
 80158  1  0  0  0
 81 83  1  0  0  0
 81159  1  0  0  0
 81160  1  0  0  0
 82 85  1  0  0  0
 82161  1  0  0  0
 84162  1  0  0  0
 85163  1  0  0  0
 85164  1  0  0  0
 85165  1  0  0  0
M  CHG  1  85   1
M  ISO  4   1 100  68 101  81 101  84 100
M  END
> <chiral flag>
0

> <version>
0

> <s_m_source_file>
/data/baiqing/PycharmProjects/Reinvent-master-3.2/result/LINK_invent/BTK/process_docking_weight1_custom_product_contain_oxygen_bond_distance_aromatic_linkinvent_7_9_3/rearranged_h_0139.sdf

> <i_m_source_file_index>
12

> <r_mmod_Potential_Energy-OPLS-2005>
-143.095092773438

> <r_mmod_Stretch_Energy-OPLS-2005>
41.9071655273438

> <r_mmod_Bend_Energy-OPLS-2005>
109.983192443848

> <r_mmod_Torsional_Energy-OPLS-2005>
303.397155761719

> <r_mmod_Improper_Torsional_Energy-OPLS-2005>
7.43823051452637

> <r_mmod_Van_der_Waal_Energy-OPLS-2005>
153.376876831055

> <r_mmod_Electrostatic_Energy-OPLS-2005>
-270.529174804688

> <r_mmod_Solvation_Energy-OPLS-2005>
-503.970397949219

> <b_mmod_Minimization_Converged-OPLS-2005>
0

> <r_mmod_RMS_Derivative-OPLS-2005>
2.73567032814026

$$$$
12
                    3D
 Structure written by MMmdl.
158166  0  0  1  0            999 V2000
  -30.7020  -14.4946   20.4759 C   0  0  0  0  0  0
  -30.4155  -12.2895   19.4488 C   0  0  0  0  0  0
  -29.5019  -12.4805   18.2189 C   0  0  0  0  0  0
  -28.0199  -12.3556   18.6239 C   0  0  0  0  0  0
  -27.6577  -13.2169   19.8646 C   0  0  2  0  0  0
  -28.6993  -13.0417   20.9963 C   0  0  0  0  0  0
  -25.2565  -13.8204   20.5661 C   0  0  0  0  0  0
  -24.1835  -13.0457   20.9189 C   0  0  0  0  0  0
  -24.6403  -11.6928   20.8734 C   0  0  0  0  0  0
  -23.9077  -10.4297   21.0395 C   0  0  0  0  0  0
  -24.3629   -9.4206   21.9161 C   0  0  0  0  0  0
  -23.6303   -8.2244   22.0745 C   0  0  0  0  0  0
  -22.4281   -8.0287   21.3534 C   0  0  0  0  0  0
  -21.9920   -9.0268   20.4641 C   0  0  0  0  0  0
  -22.7255  -10.2139   20.3044 C   0  0  0  0  0  0
  -21.6856   -6.0748   22.5278 C   0  0  0  0  0  0
  -21.4021   -6.5649   23.8213 C   0  0  0  0  0  0
  -21.3662   -5.6787   24.9165 C   0  0  0  0  0  0
  -21.6051   -4.3049   24.7210 C   0  0  0  0  0  0
  -21.8821   -3.8147   23.4329 C   0  0  0  0  0  0
  -21.9188   -4.6970   22.3393 C   0  0  0  0  0  0
  -22.7844  -13.5234   21.1829 C   0  0  0  0  0  0
  -22.1647   -4.2163   21.0962 F   0  0  0  0  0  0
  -21.5622   -3.4531   25.7719 F   0  0  0  0  0  0
  -30.0316  -13.3120   20.4348 N   0  0  0  0  0  0
  -26.3004  -12.9388   20.3317 N   0  0  0  0  0  0
  -25.9338  -11.6535   20.5772 N   0  0  0  0  0  0
  -22.0473  -12.8260   22.0399 N   0  0  0  0  0  0
  -25.4281  -15.1925   20.4072 N   0  0  0  0  0  0
  -31.8804  -14.6031   20.1242 O   0  0  0  0  0  0
  -21.6638   -6.8888   21.4235 O   0  0  0  0  0  0
  -22.3524  -14.5511   20.6619 O   0  0  0  0  0  0
  -24.6138  -31.8683   23.2090 C   0  0  0  0  0  0
  -25.9029  -32.4819   23.8389 C   0  0  1  0  0  0
  -27.2395  -27.4290   20.0690 C   0  0  0  0  0  0
  -25.5886  -33.8616   24.2321 N   0  0  0  0  0  0
  -23.4019  -30.4927   21.5499 C   0  0  2  0  0  0
  -24.8484  -28.9601   20.1148 C   0  0  0  0  0  0
  -22.7419  -29.4644   22.4973 C   0  0  0  0  0  0
  -18.0274  -28.1367   22.8500 C   0  0  0  0  0  0
  -24.1494  -36.7315   23.2641 C   0  0  0  0  0  0
  -25.9349  -30.8265   21.3698 C   0  0  0  0  0  0
  -26.0091  -29.4618   20.7127 C   0  0  0  0  0  0
  -27.2028  -28.7013   20.6917 C   0  0  0  0  0  0
  -26.0474  -26.9450   19.4752 C   0  0  0  0  0  0
  -24.8638  -27.7020   19.4924 C   0  0  0  0  0  0
  -23.6112  -29.8272   20.1646 C   0  0  0  0  0  0
  -25.4114  -36.3108   24.0337 C   0  0  1  0  0  0
  -20.5866  -28.3645   23.1320 C   0  0  2  0  0  0
  -20.6757  -26.9382   22.5420 C   0  0  0  0  0  0
  -19.5737  -26.6379   21.5212 C   0  0  0  0  0  0
  -18.1916  -26.7912   22.1626 C   0  0  0  0  0  0
  -19.1523  -28.8819   23.2910 C   0  0  0  0  0  0
  -18.9455  -30.1429   23.8922 C   0  0  0  0  0  0
  -17.6456  -30.6576   24.0553 C   0  0  0  0  0  0
  -25.9039  -34.9471   23.5131 C   0  0  0  0  0  0
  -16.5345  -29.9081   23.6315 C   0  0  0  0  0  0
  -16.7259  -28.6492   23.0347 C   0  0  0  0  0  0
  -26.4458  -31.6592   25.0718 C   0  0  0  0  0  0
  -25.3732  -31.3707   26.1478 C   0  0  0  0  0  0
  -27.0288  -30.3031   24.6100 C   0  0  0  0  0  0
  -27.6041  -32.4309   25.7466 C   0  0  0  0  0  0
  -27.5572  -37.1829   24.8475 C   0  0  0  0  0  0
  -21.4141  -29.3023   22.3733 N   0  0  0  0  0  0
  -26.4306  -37.3780   23.9384 N   0  0  0  0  0  0
  -24.6677  -31.0784   22.0997 N   0  0  0  0  0  0
  -23.4204  -28.8187   23.2999 O   0  0  0  0  0  0
  -28.4321  -26.7189   20.0657 O   0  0  0  0  0  0
  -26.5605  -34.8919   22.4701 O   0  0  0  0  0  0
  -23.5329  -32.1439   23.7475 O   0  0  0  0  0  0
  -29.7839  -18.0792   20.6755 C   0  0  0  0  0  0
  -30.4039  -19.3471   18.6833 C   0  0  0  0  0  0
  -30.5798  -16.9173   18.6907 C   0  0  0  0  0  0
  -29.9264  -19.3301   20.0129 C   0  0  0  0  0  0
  -30.1232  -16.8603   20.0325 C   0  0  0  0  0  0
  -30.7211  -18.1465   18.0248 C   0  0  0  0  0  0
  -29.3368  -23.2205   20.7138 C   0  0  0  0  0  0
  -28.5885  -25.4249   17.9968 C   0  0  0  0  0  0
  -29.5233  -20.6284   20.7279 C   0  0  0  0  0  0
  -29.9612  -21.9700   20.0643 C   0  0  0  0  0  0
  -29.6882  -24.6030   20.1336 C   0  0  0  0  0  0
  -28.4822  -25.3780   19.5334 C   0  0  1  0  0  0
  -29.9552  -15.5968   20.7007 N   0  0  0  0  0  0
  -28.5788  -23.1264   21.6845 O   0  0  0  0  0  0
  -31.1602  -18.1772   16.7419 F   0  0  0  0  0  0
  -31.4665  -12.3542   19.1597 H   0  0  0  0  0  0
  -30.2851  -11.2915   19.8708 H   0  0  0  0  0  0
  -29.7432  -11.7395   17.4567 H   0  0  0  0  0  0
  -29.6875  -13.4568   17.7677 H   0  0  0  0  0  0
  -27.8231  -11.3037   18.8334 H   0  0  0  0  0  0
  -27.3783  -12.6171   17.7809 H   0  0  0  0  0  0
  -27.6874  -14.2573   19.5395 H   0  0  0  0  0  0
  -28.6642  -12.0252   21.3909 H   0  0  0  0  0  0
  -28.4767  -13.7018   21.8348 H   0  0  0  0  0  0
  -25.2774   -9.5679   22.4741 H   0  0  0  0  0  0
  -24.0008   -7.4630   22.7475 H   0  0  0  0  0  0
  -21.0839   -8.8791   19.8960 H   0  0  0  0  0  0
  -22.3705  -10.9672   19.6150 H   0  0  0  0  0  0
  -21.2025   -7.6153   23.9730 H   0  0  0  0  0  0
  -21.1474   -6.0501   25.9072 H   0  0  0  0  0  0
  -22.0600   -2.7617   23.2816 H   0  0  0  0  0  0
  -22.4080  -11.9949   22.4852 H   0  0  0  0  0  0
  -21.1069  -13.1283   22.2554 H   0  0  0  0  0  0
  -24.6636  -15.8494   20.5275 H   0  0  0  0  0  0
  -26.2828  -15.6314   20.0883 H   0  0  0  0  0  0
  -26.7094  -32.5534   23.1143 H   0  0  0  0  0  0
  -25.0000  -33.9780   25.0435 H   0  0  0  0  0  0
  -22.6894  -31.3087   21.4119 H   0  0  0  0  0  0
  -23.3732  -35.9681   23.3369 H   0  0  0  0  0  0
  -24.3568  -36.8856   22.2042 H   0  0  0  0  0  0
  -23.7293  -37.6557   23.6614 H   0  0  0  0  0  0
  -26.0591  -31.5930   20.6043 H   0  0  0  0  0  0
  -26.8200  -30.8723   21.9918 H   0  0  0  0  0  0
  -28.1013  -29.0877   21.1520 H   0  0  0  0  0  0
  -25.9988  -25.9914   18.9747 H   0  0  0  0  0  0
  -23.9721  -27.3181   19.0170 H   0  0  0  0  0  0
  -23.7181  -30.6025   19.4046 H   0  0  0  0  0  0
  -22.7370  -29.2439   19.8704 H   0  0  0  0  0  0
  -25.1304  -36.1971   25.0833 H   0  0  0  0  0  0
  -20.9962  -28.3203   24.1434 H   0  0  0  0  0  0
  -20.5645  -26.2253   23.3605 H   0  0  0  0  0  0
  -21.6629  -26.7418   22.1212 H   0  0  0  0  0  0
  -19.6891  -25.6302   21.1215 H   0  0  0  0  0  0
  -19.6669  -27.3215   20.6767 H   0  0  0  0  0  0
  -17.4187  -26.6664   21.4028 H   0  0  0  0  0  0
  -18.0319  -26.0049   22.9018 H   0  0  0  0  0  0
  -19.7927  -30.7232   24.2314 H   0  0  0  0  0  0
  -17.5010  -31.6263   24.5154 H   0  0  0  0  0  0
  -15.5341  -30.2991   23.7624 H   0  0  0  0  0  0
  -15.8663  -28.0820   22.7045 H   0  0  0  0  0  0
  -24.5879  -30.7085   25.7809 H   0  0  0  0  0  0
  -24.8973  -32.2885   26.4955 H   0  0  0  0  0  0
  -25.8095  -30.8841   27.0215 H   0  0  0  0  0  0
  -26.2843  -29.6795   24.1150 H   0  0  0  0  0  0
  -27.4047  -29.7248   25.4547 H   0  0  0  0  0  0
  -27.8678  -30.4334   23.9260 H   0  0  0  0  0  0
  -27.2661  -33.3589   26.2086 H   0  0  0  0  0  0
  -28.3823  -32.6906   25.0278 H   0  0  0  0  0  0
  -28.0749  -31.8425   26.5347 H   0  0  0  0  0  0
  -28.2649  -38.0065   24.7436 H   0  0  0  0  0  0
  -28.1012  -36.2599   24.6422 H   0  0  0  0  0  0
  -27.2283  -37.1617   25.8879 H   0  0  0  0  0  0
  -20.9294  -29.8767   21.6979 H   0  0  0  0  0  0
  -26.0201  -38.2870   24.1330 H   0  0  0  0  0  0
  -29.4147  -18.0621   21.6906 H   0  0  0  0  0  0
  -30.5210  -20.2678   18.1345 H   0  0  0  0  0  0
  -30.8234  -16.0161   18.1475 H   0  0  0  0  0  0
  -28.6826  -24.4251   17.5733 H   0  0  0  0  0  0
  -29.4609  -25.9990   17.6836 H   0  0  0  0  0  0
  -27.7189  -25.8834   17.5312 H   0  0  0  0  0  0
  -29.9229  -20.5982   21.7433 H   0  0  0  0  0  0
  -28.4385  -20.6098   20.8348 H   0  0  0  0  0  0
  -31.0486  -22.0609   20.0897 H   0  0  0  0  0  0
  -29.6668  -21.9934   19.0163 H   0  0  0  0  0  0
  -30.4715  -24.4867   19.3839 H   0  0  0  0  0  0
  -30.1311  -25.1865   20.9409 H   0  0  0  0  0  0
  -27.5767  -24.8392   19.8138 H   0  0  0  0  0  0
  -29.0774  -15.4521   21.1742 H   0  0  0  0  0  0
  1 25  1  0  0  0
  1 30  2  0  0  0
  1 83  1  0  0  0
  2  3  1  0  0  0
  2 25  1  0  0  0
  2 86  1  0  0  0
  2 87  1  0  0  0
  3  4  1  0  0  0
  3 88  1  0  0  0
  3 89  1  0  0  0
  4  5  1  0  0  0
  4 90  1  0  0  0
  4 91  1  0  0  0
  5  6  1  0  0  0
  5 26  1  0  0  0
  5 92  1  0  0  0
  6 25  1  0  0  0
  6 93  1  0  0  0
  6 94  1  0  0  0
  7  8  2  0  0  0
  7 26  1  0  0  0
  7 29  1  0  0  0
  8  9  1  0  0  0
  8 22  1  0  0  0
  9 10  1  0  0  0
  9 27  2  0  0  0
 10 11  2  0  0  0
 10 15  1  0  0  0
 11 12  1  0  0  0
 11 95  1  0  0  0
 12 13  2  0  0  0
 12 96  1  0  0  0
 13 14  1  0  0  0
 13 31  1  0  0  0
 14 15  2  0  0  0
 14 97  1  0  0  0
 15 98  1  0  0  0
 16 17  2  0  0  0
 16 21  1  0  0  0
 16 31  1  0  0  0
 17 18  1  0  0  0
 17 99  1  0  0  0
 18 19  2  0  0  0
 18100  1  0  0  0
 19 20  1  0  0  0
 19 24  1  0  0  0
 20 21  2  0  0  0
 20101  1  0  0  0
 21 23  1  0  0  0
 22 28  1  0  0  0
 22 32  2  0  0  0
 26 27  1  0  0  0
 28102  1  0  0  0
 28103  1  0  0  0
 29104  1  0  0  0
 29105  1  0  0  0
 33 34  1  0  0  0
 33 66  1  0  0  0
 33 70  2  0  0  0
 34 36  1  0  0  0
 34 59  1  0  0  0
 34106  1  0  0  0
 35 44  2  0  0  0
 35 45  1  0  0  0
 35 68  1  0  0  0
 36 56  1  0  0  0
 36107  1  0  0  0
 37 39  1  0  0  0
 37 47  1  0  0  0
 37 66  1  0  0  0
 37108  1  0  0  0
 38 43  2  0  0  0
 38 46  1  0  0  0
 38 47  1  0  0  0
 39 64  1  0  0  0
 39 67  2  0  0  0
 40 52  1  0  0  0
 40 53  2  0  0  0
 40 58  1  0  0  0
 41109  1  0  0  0
 41110  1  0  0  0
 41111  1  0  0  0
 41 48  1  0  0  0
 42 43  1  0  0  0
 42 66  1  0  0  0
 42112  1  0  0  0
 42113  1  0  0  0
 43 44  1  0  0  0
 44114  1  0  0  0
 45 46  2  0  0  0
 45115  1  0  0  0
 46116  1  0  0  0
 47117  1  0  0  0
 47118  1  0  0  0
 48 56  1  0  0  0
 48 65  1  0  0  0
 48119  1  0  0  0
 49 50  1  0  0  0
 49 53  1  0  0  0
 49 64  1  0  0  0
 49120  1  0  0  0
 50 51  1  0  0  0
 50121  1  0  0  0
 50122  1  0  0  0
 51 52  1  0  0  0
 51123  1  0  0  0
 51124  1  0  0  0
 52125  1  0  0  0
 52126  1  0  0  0
 53 54  1  0  0  0
 54 55  2  0  0  0
 54127  1  0  0  0
 55 57  1  0  0  0
 55128  1  0  0  0
 56 69  2  0  0  0
 57 58  2  0  0  0
 57129  1  0  0  0
 58130  1  0  0  0
 59 60  1  0  0  0
 59 61  1  0  0  0
 59 62  1  0  0  0
 60131  1  0  0  0
 60132  1  0  0  0
 60133  1  0  0  0
 61134  1  0  0  0
 61135  1  0  0  0
 61136  1  0  0  0
 62137  1  0  0  0
 62138  1  0  0  0
 62139  1  0  0  0
 63 65  1  0  0  0
 63140  1  0  0  0
 63141  1  0  0  0
 63142  1  0  0  0
 64143  1  0  0  0
 65144  1  0  0  0
 68 82  1  0  0  0
 71 74  2  0  0  0
 71 75  1  0  0  0
 71145  1  0  0  0
 72 74  1  0  0  0
 72 76  2  0  0  0
 72146  1  0  0  0
 73 75  2  0  0  0
 73 76  1  0  0  0
 73147  1  0  0  0
 74 79  1  0  0  0
 75 83  1  0  0  0
 76 85  1  0  0  0
 77 80  1  0  0  0
 77 81  1  0  0  0
 77 84  2  0  0  0
 78148  1  0  0  0
 78149  1  0  0  0
 78150  1  0  0  0
 78 82  1  0  0  0
 79 80  1  0  0  0
 79151  1  0  0  0
 79152  1  0  0  0
 80153  1  0  0  0
 80154  1  0  0  0
 81 82  1  0  0  0
 81155  1  0  0  0
 81156  1  0  0  0
 82157  1  0  0  0
 83158  1  0  0  0
M  ISO  4   1 100  68 101  82 101  83 100
M  END
> <chiral flag>
0

> <version>
0

> <s_m_source_file>
/data/baiqing/PycharmProjects/Reinvent-master-3.2/result/LINK_invent/BTK/process_docking_weight1_custom_product_contain_oxygen_bond_distance_aromatic_linkinvent_7_9_3/rearranged_h_0139.sdf

> <i_m_source_file_index>
13

> <r_mmod_Potential_Energy-OPLS-2005>
-29.7759628295898

> <r_mmod_Stretch_Energy-OPLS-2005>
41.4535789489746

> <r_mmod_Bend_Energy-OPLS-2005>
99.1625747680664

> <r_mmod_Torsional_Energy-OPLS-2005>
231.079544067383

> <r_mmod_Improper_Torsional_Energy-OPLS-2005>
6.04435873031616

> <r_mmod_Van_der_Waal_Energy-OPLS-2005>
159.055221557617

> <r_mmod_Electrostatic_Energy-OPLS-2005>
-367.567230224609

> <r_mmod_Solvation_Energy-OPLS-2005>
-218.074325561523

> <b_mmod_Minimization_Converged-OPLS-2005>
0

> <r_mmod_RMS_Derivative-OPLS-2005>
2.90169644355774

$$$$
13
                    3D
 Structure written by MMmdl.
167176  0  0  1  0            999 V2000
  -30.6406  -14.6021   20.5048 C   0  0  0  0  0  0
  -30.4336  -12.3723   19.4402 C   0  0  0  0  0  0
  -29.5034  -12.5009   18.2141 C   0  0  0  0  0  0
  -28.0267  -12.3406   18.6288 C   0  0  0  0  0  0
  -27.6515  -13.2107   19.8580 C   0  0  2  0  0  0
  -28.6969  -13.0633   20.9865 C   0  0  0  0  0  0
  -25.2565  -13.8153   20.5680 C   0  0  0  0  0  0
  -24.1830  -13.0433   20.9198 C   0  0  0  0  0  0
  -24.6382  -11.6899   20.8734 C   0  0  0  0  0  0
  -23.9045  -10.4286   21.0406 C   0  0  0  0  0  0
  -24.3601   -9.4208   21.9184 C   0  0  0  0  0  0
  -23.6283   -8.2242   22.0751 C   0  0  0  0  0  0
  -22.4265   -8.0275   21.3541 C   0  0  0  0  0  0
  -21.9892   -9.0245   20.4645 C   0  0  0  0  0  0
  -22.7216  -10.2128   20.3057 C   0  0  0  0  0  0
  -21.6853   -6.0729   22.5275 C   0  0  0  0  0  0
  -21.4016   -6.5633   23.8208 C   0  0  0  0  0  0
  -21.3662   -5.6786   24.9171 C   0  0  0  0  0  0
  -21.6045   -4.3047   24.7224 C   0  0  0  0  0  0
  -21.8821   -3.8139   23.4344 C   0  0  0  0  0  0
  -21.9196   -4.6958   22.3401 C   0  0  0  0  0  0
  -22.7858  -13.5239   21.1848 C   0  0  0  0  0  0
  -22.1668   -4.2144   21.0981 F   0  0  0  0  0  0
  -21.5628   -3.4532   25.7738 F   0  0  0  0  0  0
  -30.0120  -13.3914   20.4173 N   0  0  0  0  0  0
  -26.2978  -12.9320   20.3288 N   0  0  0  0  0  0
  -25.9303  -11.6482   20.5719 N   0  0  0  0  0  0
  -22.0490  -12.8240   22.0401 N   0  0  0  0  0  0
  -25.4270  -15.1875   20.4075 N   0  0  0  0  0  0
  -31.8169  -14.7475   20.1607 O   0  0  0  0  0  0
  -21.6634   -6.8869   21.4234 O   0  0  0  0  0  0
  -22.3555  -14.5549   20.6692 O   0  0  0  0  0  0
  -24.6218  -31.8618   23.2032 C   0  0  0  0  0  0
  -25.9077  -32.4789   23.8357 C   0  0  1  0  0  0
  -27.2316  -27.3544   20.1189 C   0  0  0  0  0  0
  -25.5910  -33.8592   24.2285 N   0  0  0  0  0  0
  -23.4145  -30.4827   21.5453 C   0  0  2  0  0  0
  -24.8616  -28.9352   20.1162 C   0  0  0  0  0  0
  -22.7452  -29.4628   22.4961 C   0  0  0  0  0  0
  -18.0278  -28.1383   22.8489 C   0  0  0  0  0  0
  -24.1489  -36.7304   23.2638 C   0  0  0  0  0  0
  -25.9501  -30.8032   21.3679 C   0  0  0  0  0  0
  -26.0261  -29.4305   20.7168 C   0  0  0  0  0  0
  -27.2148  -28.6506   20.7065 C   0  0  0  0  0  0
  -26.0489  -26.8974   19.4981 C   0  0  0  0  0  0
  -24.8725  -27.6725   19.5000 C   0  0  0  0  0  0
  -23.6278  -29.8113   20.1623 C   0  0  0  0  0  0
  -25.4113  -36.3094   24.0329 C   0  0  1  0  0  0
  -20.5874  -28.3680   23.1302 C   0  0  2  0  0  0
  -20.6770  -26.9409   22.5416 C   0  0  0  0  0  0
  -19.5749  -26.6387   21.5214 C   0  0  0  0  0  0
  -18.1927  -26.7928   22.1623 C   0  0  0  0  0  0
  -19.1528  -28.8848   23.2894 C   0  0  0  0  0  0
  -18.9453  -30.1452   23.8907 C   0  0  0  0  0  0
  -17.6454  -30.6589   24.0561 C   0  0  0  0  0  0
  -25.9045  -34.9461   23.5109 C   0  0  0  0  0  0
  -16.5346  -29.9088   23.6324 C   0  0  0  0  0  0
  -16.7266  -28.6506   23.0346 C   0  0  0  0  0  0
  -26.4478  -31.6592   25.0716 C   0  0  0  0  0  0
  -25.3725  -31.3722   26.1455 C   0  0  0  0  0  0
  -27.0313  -30.3023   24.6137 C   0  0  0  0  0  0
  -27.6046  -32.4320   25.7484 C   0  0  0  0  0  0
  -27.5579  -37.1811   24.8466 C   0  0  0  0  0  0
  -21.4168  -29.3038   22.3703 N   0  0  0  0  0  0
  -26.4295  -37.3782   23.9404 N   0  0  0  0  0  0
  -24.6807  -31.0657   22.0967 N   0  0  0  0  0  0
  -23.4191  -28.8168   23.3027 O   0  0  0  0  0  0
  -28.3836  -26.5712   20.1200 O   0  0  0  0  0  0
  -26.5613  -34.8921   22.4675 O   0  0  0  0  0  0
  -23.5390  -32.1402   23.7381 O   0  0  0  0  0  0
  -29.1557  -18.0790   20.4663 C   0  0  0  0  0  0
  -30.6060  -19.9015   21.1632 C   0  0  0  0  0  0
  -31.3621  -17.5674   21.3391 C   0  0  0  0  0  0
  -29.3709  -19.4943   20.6174 C   0  0  0  0  0  0
  -30.1303  -17.0947   20.8303 C   0  0  0  0  0  0
  -31.5911  -18.9514   21.5040 C   0  0  0  0  0  0
  -29.8587  -22.2796   17.2143 C   0  0  0  0  0  0
  -30.4021  -22.8872   16.1462 C   0  0  0  0  0  0
  -28.2914  -20.4693   20.2326 C   0  0  0  0  0  0
  -28.5200  -21.5514   17.1427 C   0  0  0  0  0  0
  -30.5223  -22.2994   18.5871 C   0  0  0  0  0  0
  -27.6032  -21.8363   18.3583 C   0  0  0  0  0  0
  -29.5090  -22.7158   19.6785 C   0  0  1  0  0  0
  -29.1359  -24.2551   19.4143 C   0  0  0  0  0  0
  -28.2895  -25.1303   20.4005 C   0  0  0  0  0  0
  -28.3855  -21.7102   19.6226 N   0  0  0  0  0  0
  -29.8272  -15.6715   20.7528 N   0  0  0  0  0  0
  -27.0450  -20.0593   20.4658 N   0  3  0  0  0  0
  -32.7715  -19.3775   22.0142 F   0  0  0  0  0  0
  -31.4768  -12.4901   19.1403 H   0  0  0  0  0  0
  -30.3577  -11.3761   19.8783 H   0  0  0  0  0  0
  -29.7631  -11.7536   17.4635 H   0  0  0  0  0  0
  -29.6485  -13.4732   17.7401 H   0  0  0  0  0  0
  -27.8626  -11.2877   18.8596 H   0  0  0  0  0  0
  -27.3708  -12.5719   17.7885 H   0  0  0  0  0  0
  -27.6691  -14.2445   19.5140 H   0  0  0  0  0  0
  -28.7023  -12.0434   21.3746 H   0  0  0  0  0  0
  -28.4499  -13.7040   21.8346 H   0  0  0  0  0  0
  -25.2751   -9.5693   22.4752 H   0  0  0  0  0  0
  -24.0004   -7.4630   22.7462 H   0  0  0  0  0  0
  -21.0828   -8.8756   19.8946 H   0  0  0  0  0  0
  -22.3671  -10.9666   19.6166 H   0  0  0  0  0  0
  -21.2010   -7.6140   23.9714 H   0  0  0  0  0  0
  -21.1483   -6.0513   25.9075 H   0  0  0  0  0  0
  -22.0598   -2.7603   23.2842 H   0  0  0  0  0  0
  -22.4094  -11.9916   22.4821 H   0  0  0  0  0  0
  -21.1106  -13.1269   22.2578 H   0  0  0  0  0  0
  -24.6471  -15.8304   20.4931 H   0  0  0  0  0  0
  -26.2522  -15.6172   20.0118 H   0  0  0  0  0  0
  -26.7147  -32.5470   23.1112 H   0  0  0  0  0  0
  -25.0069  -33.9749   25.0437 H   0  0  0  0  0  0
  -22.7063  -31.3010   21.4000 H   0  0  0  0  0  0
  -23.3744  -35.9646   23.3318 H   0  0  0  0  0  0
  -24.3581  -36.8903   22.2049 H   0  0  0  0  0  0
  -23.7253  -37.6516   23.6649 H   0  0  0  0  0  0
  -26.0719  -31.5644   20.5959 H   0  0  0  0  0  0
  -26.8343  -30.8583   21.9912 H   0  0  0  0  0  0
  -28.1128  -29.0287   21.1746 H   0  0  0  0  0  0
  -26.0285  -25.9379   19.0018 H   0  0  0  0  0  0
  -23.9804  -27.2888   19.0233 H   0  0  0  0  0  0
  -23.7441  -30.5831   19.4010 H   0  0  0  0  0  0
  -22.7500  -29.2359   19.8634 H   0  0  0  0  0  0
  -25.1292  -36.1955   25.0822 H   0  0  0  0  0  0
  -20.9961  -28.3251   24.1425 H   0  0  0  0  0  0
  -20.5678  -26.2286   23.3609 H   0  0  0  0  0  0
  -21.6641  -26.7456   22.1206 H   0  0  0  0  0  0
  -19.6914  -25.6301   21.1241 H   0  0  0  0  0  0
  -19.6685  -27.3197   20.6745 H   0  0  0  0  0  0
  -17.4197  -26.6670   21.4025 H   0  0  0  0  0  0
  -18.0328  -26.0073   22.9021 H   0  0  0  0  0  0
  -19.7930  -30.7261   24.2285 H   0  0  0  0  0  0
  -17.5011  -31.6270   24.5159 H   0  0  0  0  0  0
  -15.5346  -30.2990   23.7653 H   0  0  0  0  0  0
  -15.8666  -28.0830   22.7053 H   0  0  0  0  0  0
  -24.5897  -30.7070   25.7792 H   0  0  0  0  0  0
  -24.8914  -32.2885   26.4891 H   0  0  0  0  0  0
  -25.8061  -30.8900   27.0225 H   0  0  0  0  0  0
  -26.2873  -29.6787   24.1165 H   0  0  0  0  0  0
  -27.4032  -29.7263   25.4621 H   0  0  0  0  0  0
  -27.8732  -30.4323   23.9332 H   0  0  0  0  0  0
  -27.2662  -33.3616   26.2075 H   0  0  0  0  0  0
  -28.3849  -32.6890   25.0307 H   0  0  0  0  0  0
  -28.0725  -31.8437   26.5389 H   0  0  0  0  0  0
  -28.2611  -38.0092   24.7496 H   0  0  0  0  0  0
  -28.1058  -36.2625   24.6316 H   0  0  0  0  0  0
  -27.2297  -37.1492   25.8869 H   0  0  0  0  0  0
  -20.9343  -29.8764   21.6919 H   0  0  0  0  0  0
  -26.0182  -38.2864   24.1383 H   0  0  0  0  0  0
  -28.2151  -17.7370   20.0580 H   0  0  0  0  0  0
  -30.8262  -20.9390   21.3433 H   0  0  0  0  0  0
  -32.1368  -16.8796   21.6408 H   0  0  0  0  0  0
  -29.9138  -22.8725   15.1821 H   0  0  0  0  0  0
  -31.3450  -23.4120   16.2138 H   0  0  0  0  0  0
  -28.7201  -20.4804   17.0861 H   0  0  0  0  0  0
  -28.0018  -21.8119   16.2189 H   0  0  0  0  0  0
  -31.3873  -22.9650   18.5874 H   0  0  0  0  0  0
  -30.9185  -21.3040   18.7869 H   0  0  0  0  0  0
  -26.7371  -21.1749   18.3084 H   0  0  0  0  0  0
  -27.1845  -22.8392   18.2805 H   0  0  0  0  0  0
  -29.9780  -22.6774   20.6595 H   0  0  0  0  0  0
  -28.7044  -24.3836   18.4233 H   0  0  0  0  0  0
  -30.0926  -24.7737   19.3396 H   0  0  0  0  0  0
  -28.6726  -24.9823   21.4105 H   0  0  0  0  0  0
  -27.2638  -24.7631   20.4258 H   0  0  0  0  0  0
  -28.8551  -15.4273   20.8560 H   0  0  0  0  0  0
  -26.8942  -19.2017   20.9745 H   0  0  0  0  0  0
  -26.2710  -20.6939   20.3628 H   0  0  0  0  0  0
  1 25  1  0  0  0
  1 30  2  0  0  0
  1 87  1  0  0  0
  2  3  1  0  0  0
  2 25  1  0  0  0
  2 90  1  0  0  0
  2 91  1  0  0  0
  3  4  1  0  0  0
  3 92  1  0  0  0
  3 93  1  0  0  0
  4  5  1  0  0  0
  4 94  1  0  0  0
  4 95  1  0  0  0
  5  6  1  0  0  0
  5 26  1  0  0  0
  5 96  1  0  0  0
  6 25  1  0  0  0
  6 97  1  0  0  0
  6 98  1  0  0  0
  7  8  2  0  0  0
  7 26  1  0  0  0
  7 29  1  0  0  0
  8  9  1  0  0  0
  8 22  1  0  0  0
  9 10  1  0  0  0
  9 27  2  0  0  0
 10 11  2  0  0  0
 10 15  1  0  0  0
 11 12  1  0  0  0
 11 99  1  0  0  0
 12 13  2  0  0  0
 12100  1  0  0  0
 13 14  1  0  0  0
 13 31  1  0  0  0
 14 15  2  0  0  0
 14101  1  0  0  0
 15102  1  0  0  0
 16 17  2  0  0  0
 16 21  1  0  0  0
 16 31  1  0  0  0
 17 18  1  0  0  0
 17103  1  0  0  0
 18 19  2  0  0  0
 18104  1  0  0  0
 19 20  1  0  0  0
 19 24  1  0  0  0
 20 21  2  0  0  0
 20105  1  0  0  0
 21 23  1  0  0  0
 22 28  1  0  0  0
 22 32  2  0  0  0
 26 27  1  0  0  0
 28106  1  0  0  0
 28107  1  0  0  0
 29108  1  0  0  0
 29109  1  0  0  0
 33 34  1  0  0  0
 33 66  1  0  0  0
 33 70  2  0  0  0
 34 36  1  0  0  0
 34 59  1  0  0  0
 34110  1  0  0  0
 35 44  2  0  0  0
 35 45  1  0  0  0
 35 68  1  0  0  0
 36 56  1  0  0  0
 36111  1  0  0  0
 37 39  1  0  0  0
 37 47  1  0  0  0
 37 66  1  0  0  0
 37112  1  0  0  0
 38 43  2  0  0  0
 38 46  1  0  0  0
 38 47  1  0  0  0
 39 64  1  0  0  0
 39 67  2  0  0  0
 40 52  1  0  0  0
 40 53  2  0  0  0
 40 58  1  0  0  0
 41113  1  0  0  0
 41114  1  0  0  0
 41115  1  0  0  0
 41 48  1  0  0  0
 42 43  1  0  0  0
 42 66  1  0  0  0
 42116  1  0  0  0
 42117  1  0  0  0
 43 44  1  0  0  0
 44118  1  0  0  0
 45 46  2  0  0  0
 45119  1  0  0  0
 46120  1  0  0  0
 47121  1  0  0  0
 47122  1  0  0  0
 48 56  1  0  0  0
 48 65  1  0  0  0
 48123  1  0  0  0
 49 50  1  0  0  0
 49 53  1  0  0  0
 49 64  1  0  0  0
 49124  1  0  0  0
 50 51  1  0  0  0
 50125  1  0  0  0
 50126  1  0  0  0
 51 52  1  0  0  0
 51127  1  0  0  0
 51128  1  0  0  0
 52129  1  0  0  0
 52130  1  0  0  0
 53 54  1  0  0  0
 54 55  2  0  0  0
 54131  1  0  0  0
 55 57  1  0  0  0
 55132  1  0  0  0
 56 69  2  0  0  0
 57 58  2  0  0  0
 57133  1  0  0  0
 58134  1  0  0  0
 59 60  1  0  0  0
 59 61  1  0  0  0
 59 62  1  0  0  0
 60135  1  0  0  0
 60136  1  0  0  0
 60137  1  0  0  0
 61138  1  0  0  0
 61139  1  0  0  0
 61140  1  0  0  0
 62141  1  0  0  0
 62142  1  0  0  0
 62143  1  0  0  0
 63 65  1  0  0  0
 63144  1  0  0  0
 63145  1  0  0  0
 63146  1  0  0  0
 64147  1  0  0  0
 65148  1  0  0  0
 68 85  1  0  0  0
 71 74  2  0  0  0
 71 75  1  0  0  0
 71149  1  0  0  0
 72 74  1  0  0  0
 72 76  2  0  0  0
 72150  1  0  0  0
 73 75  2  0  0  0
 73 76  1  0  0  0
 73151  1  0  0  0
 74 79  1  0  0  0
 75 87  1  0  0  0
 76 89  1  0  0  0
 77 78  2  0  0  0
 77 80  1  0  0  0
 77 81  1  0  0  0
 78152  1  0  0  0
 78153  1  0  0  0
 79 86  1  0  0  0
 79 88  2  0  0  0
 80 82  1  0  0  0
 80154  1  0  0  0
 80155  1  0  0  0
 81 83  1  0  0  0
 81156  1  0  0  0
 81157  1  0  0  0
 82 86  1  0  0  0
 82158  1  0  0  0
 82159  1  0  0  0
 83 84  1  0  0  0
 83 86  1  0  0  0
 83160  1  0  0  0
 84 85  1  0  0  0
 84161  1  0  0  0
 84162  1  0  0  0
 85163  1  0  0  0
 85164  1  0  0  0
 87165  1  0  0  0
 88166  1  0  0  0
 88167  1  0  0  0
M  CHG  1  88   1
M  ISO  4   1 100  68 101  85 101  87 100
M  END
> <chiral flag>
0

> <version>
0

> <s_m_source_file>
/data/baiqing/PycharmProjects/Reinvent-master-3.2/result/LINK_invent/BTK/process_docking_weight1_custom_product_contain_oxygen_bond_distance_aromatic_linkinvent_7_9_3/rearranged_h_0139.sdf

> <i_m_source_file_index>
14

> <r_mmod_Potential_Energy-OPLS-2005>
-38.6625709533691

> <r_mmod_Stretch_Energy-OPLS-2005>
73.0831298828125

> <r_mmod_Bend_Energy-OPLS-2005>
154.749618530273

> <r_mmod_Torsional_Energy-OPLS-2005>
325.310699462891

> <r_mmod_Improper_Torsional_Energy-OPLS-2005>
8.77559757232666

> <r_mmod_Van_der_Waal_Energy-OPLS-2005>
161.992950439453

> <r_mmod_Electrostatic_Energy-OPLS-2005>
-387.53857421875

> <r_mmod_Solvation_Energy-OPLS-2005>
-409.912231445312

> <b_mmod_Minimization_Converged-OPLS-2005>
0

> <r_mmod_RMS_Derivative-OPLS-2005>
1.07422757148743

$$$$
14
                    3D
 Structure written by MMmdl.
173181  0  0  1  0            999 V2000
  -30.6839  -14.4688   20.4791 C   0  0  0  0  0  0
  -30.4275  -12.2489   19.4673 C   0  0  0  0  0  0
  -29.5199  -12.3858   18.2258 C   0  0  0  0  0  0
  -28.0215  -12.3542   18.6147 C   0  0  0  0  0  0
  -27.6609  -13.2023   19.8699 C   0  0  2  0  0  0
  -28.7002  -13.0141   20.9984 C   0  0  0  0  0  0
  -25.2609  -13.8147   20.5709 C   0  0  0  0  0  0
  -24.1850  -13.0438   20.9191 C   0  0  0  0  0  0
  -24.6388  -11.6898   20.8740 C   0  0  0  0  0  0
  -23.9055  -10.4293   21.0429 C   0  0  0  0  0  0
  -24.3610   -9.4202   21.9206 C   0  0  0  0  0  0
  -23.6294   -8.2229   22.0759 C   0  0  0  0  0  0
  -22.4265   -8.0288   21.3551 C   0  0  0  0  0  0
  -21.9888   -9.0268   20.4659 C   0  0  0  0  0  0
  -22.7225  -10.2149   20.3087 C   0  0  0  0  0  0
  -21.6852   -6.0752   22.5293 C   0  0  0  0  0  0
  -21.4022   -6.5647   23.8232 C   0  0  0  0  0  0
  -21.3645   -5.6790   24.9183 C   0  0  0  0  0  0
  -21.6019   -4.3052   24.7224 C   0  0  0  0  0  0
  -21.8812   -3.8154   23.4341 C   0  0  0  0  0  0
  -21.9188   -4.6983   22.3403 C   0  0  0  0  0  0
  -22.7869  -13.5264   21.1833 C   0  0  0  0  0  0
  -22.1655   -4.2169   21.0987 F   0  0  0  0  0  0
  -21.5602   -3.4532   25.7733 F   0  0  0  0  0  0
  -30.0344  -13.2800   20.4385 N   0  0  0  0  0  0
  -26.3022  -12.9297   20.3333 N   0  0  0  0  0  0
  -25.9304  -11.6460   20.5764 N   0  0  0  0  0  0
  -22.0455  -12.8312   22.0390 N   0  0  0  0  0  0
  -25.4272  -15.1883   20.4146 N   0  0  0  0  0  0
  -31.8596  -14.6153   20.1313 O   0  0  0  0  0  0
  -21.6622   -6.8891   21.4257 O   0  0  0  0  0  0
  -22.3568  -14.5562   20.6673 O   0  0  0  0  0  0
  -24.6108  -31.8707   23.2148 C   0  0  0  0  0  0
  -25.9023  -32.4839   23.8412 C   0  0  1  0  0  0
  -27.2409  -27.4701   20.0837 C   0  0  0  0  0  0
  -25.5892  -33.8636   24.2334 N   0  0  0  0  0  0
  -23.3958  -30.4957   21.5536 C   0  0  2  0  0  0
  -24.8429  -28.9692   20.1142 C   0  0  0  0  0  0
  -22.7386  -29.4662   22.4999 C   0  0  0  0  0  0
  -18.0266  -28.1382   22.8497 C   0  0  0  0  0  0
  -24.1478  -36.7312   23.2634 C   0  0  0  0  0  0
  -25.9212  -30.8469   21.3626 C   0  0  0  0  0  0
  -25.9987  -29.4830   20.7131 C   0  0  0  0  0  0
  -27.1944  -28.7352   20.7070 C   0  0  0  0  0  0
  -26.0582  -26.9546   19.5006 C   0  0  0  0  0  0
  -24.8652  -27.6997   19.5124 C   0  0  0  0  0  0
  -23.6047  -29.8336   20.1654 C   0  0  0  0  0  0
  -25.4101  -36.3113   24.0326 C   0  0  1  0  0  0
  -20.5856  -28.3652   23.1339 C   0  0  2  0  0  0
  -20.6754  -26.9393   22.5431 C   0  0  0  0  0  0
  -19.5739  -26.6394   21.5218 C   0  0  0  0  0  0
  -18.1912  -26.7931   22.1632 C   0  0  0  0  0  0
  -19.1515  -28.8834   23.2913 C   0  0  0  0  0  0
  -18.9452  -30.1440   23.8920 C   0  0  0  0  0  0
  -17.6459  -30.6584   24.0583 C   0  0  0  0  0  0
  -25.9030  -34.9481   23.5122 C   0  0  0  0  0  0
  -16.5348  -29.9093   23.6334 C   0  0  0  0  0  0
  -16.7261  -28.6516   23.0343 C   0  0  0  0  0  0
  -26.4475  -31.6610   25.0714 C   0  0  0  0  0  0
  -25.3760  -31.3703   26.1475 C   0  0  0  0  0  0
  -27.0299  -30.3060   24.6054 C   0  0  0  0  0  0
  -27.6049  -32.4332   25.7480 C   0  0  0  0  0  0
  -27.5569  -37.1812   24.8458 C   0  0  0  0  0  0
  -21.4123  -29.3012   22.3740 N   0  0  0  0  0  0
  -26.4284  -37.3797   23.9406 N   0  0  0  0  0  0
  -24.6606  -31.0836   22.1032 N   0  0  0  0  0  0
  -23.4176  -28.8205   23.3031 O   0  0  0  0  0  0
  -28.4291  -26.7754   20.1199 O   0  0  0  0  0  0
  -26.5596  -34.8933   22.4688 O   0  0  0  0  0  0
  -23.5312  -32.1452   23.7566 O   0  0  0  0  0  0
  -29.6628  -18.4072   17.5350 C   0  0  0  0  0  0
  -30.0086  -17.9011   19.9014 C   0  0  0  0  0  0
  -29.3723  -16.1481   18.3348 C   0  0  0  0  0  0
  -29.9315  -18.8464   18.8488 C   0  0  0  0  0  0
  -29.3354  -17.0678   17.2755 C   0  0  0  0  0  0
  -29.7700  -16.5307   19.6363 C   0  0  0  0  0  0
  -29.4410  -23.5438   19.4524 C   0  0  0  0  0  0
  -29.9975  -16.9070   14.8280 C   0  0  0  0  0  0
  -27.5796  -17.3038   15.4905 C   0  0  0  0  0  0
  -30.7477  -22.7971   17.3948 C   0  0  0  0  0  0
  -28.2914  -23.2342   17.2036 C   0  0  0  0  0  0
  -30.1534  -20.3340   19.0940 C   0  0  0  0  0  0
  -29.9077  -25.0030   19.3822 C   0  0  0  0  0  0
  -29.0493  -21.2166   18.4459 C   0  0  0  0  0  0
  -28.7953  -25.9937   18.9880 C   0  0  0  0  0  0
  -28.9081  -16.6367   15.8783 C   0  0  0  0  0  0
  -29.3979  -22.7036   18.1450 C   0  0  0  0  0  0
  -29.8860  -15.5392   20.6545 N   0  0  0  0  0  0
  -29.1125  -23.0616   20.5406 O   0  0  0  0  0  0
  -31.4807  -12.3117   19.1851 H   0  0  0  0  0  0
  -30.3055  -11.2630   19.9181 H   0  0  0  0  0  0
  -29.7246  -11.5630   17.5377 H   0  0  0  0  0  0
  -29.7790  -13.2777   17.6624 H   0  0  0  0  0  0
  -27.7698  -11.3100   18.8043 H   0  0  0  0  0  0
  -27.4087  -12.6607   17.7663 H   0  0  0  0  0  0
  -27.6829  -14.2451   19.5639 H   0  0  0  0  0  0
  -28.6609  -11.9980   21.3920 H   0  0  0  0  0  0
  -28.4841  -13.6685   21.8435 H   0  0  0  0  0  0
  -25.2749   -9.5654   22.4800 H   0  0  0  0  0  0
  -23.9979   -7.4602   22.7481 H   0  0  0  0  0  0
  -21.0804   -8.8830   19.8967 H   0  0  0  0  0  0
  -22.3715  -10.9711   19.6209 H   0  0  0  0  0  0
  -21.2052   -7.6159   23.9750 H   0  0  0  0  0  0
  -21.1460   -6.0516   25.9091 H   0  0  0  0  0  0
  -22.0605   -2.7619   23.2840 H   0  0  0  0  0  0
  -22.4006  -11.9996   22.4842 H   0  0  0  0  0  0
  -21.1077  -13.1383   22.2543 H   0  0  0  0  0  0
  -24.6493  -15.8309   20.5231 H   0  0  0  0  0  0
  -26.2641  -15.6366   20.0660 H   0  0  0  0  0  0
  -26.7091  -32.5564   23.1177 H   0  0  0  0  0  0
  -25.0031  -33.9813   25.0468 H   0  0  0  0  0  0
  -22.6817  -31.3108   21.4192 H   0  0  0  0  0  0
  -23.3738  -35.9646   23.3316 H   0  0  0  0  0  0
  -24.3566  -36.8918   22.2044 H   0  0  0  0  0  0
  -23.7245  -37.6522   23.6650 H   0  0  0  0  0  0
  -26.0221  -31.6140   20.5937 H   0  0  0  0  0  0
  -26.8135  -30.9052   21.9737 H   0  0  0  0  0  0
  -28.0858  -29.1302   21.1745 H   0  0  0  0  0  0
  -26.0216  -25.9709   19.0576 H   0  0  0  0  0  0
  -23.9710  -27.2895   19.0634 H   0  0  0  0  0  0
  -23.7168  -30.6135   19.4115 H   0  0  0  0  0  0
  -22.7285  -29.2570   19.8638 H   0  0  0  0  0  0
  -25.1281  -36.1963   25.0816 H   0  0  0  0  0  0
  -20.9940  -28.3209   24.1466 H   0  0  0  0  0  0
  -20.5657  -26.2248   23.3602 H   0  0  0  0  0  0
  -21.6627  -26.7436   22.1233 H   0  0  0  0  0  0
  -19.6899  -25.6313   21.1221 H   0  0  0  0  0  0
  -19.6683  -27.3230   20.6767 H   0  0  0  0  0  0
  -17.4178  -26.6675   21.4034 H   0  0  0  0  0  0
  -18.0320  -26.0067   22.9028 H   0  0  0  0  0  0
  -19.7922  -30.7254   24.2291 H   0  0  0  0  0  0
  -17.5012  -31.6267   24.5189 H   0  0  0  0  0  0
  -15.5346  -30.3011   23.7652 H   0  0  0  0  0  0
  -15.8655  -28.0859   22.7040 H   0  0  0  0  0  0
  -24.5917  -30.7069   25.7816 H   0  0  0  0  0  0
  -24.8977  -32.2862   26.4960 H   0  0  0  0  0  0
  -25.8132  -30.8843   27.0207 H   0  0  0  0  0  0
  -26.2825  -29.6827   24.1130 H   0  0  0  0  0  0
  -27.4120  -29.7283   25.4482 H   0  0  0  0  0  0
  -27.8638  -30.4397   23.9155 H   0  0  0  0  0  0
  -27.2658  -33.3621   26.2087 H   0  0  0  0  0  0
  -28.3851  -32.6923   25.0304 H   0  0  0  0  0  0
  -28.0730  -31.8442   26.5381 H   0  0  0  0  0  0
  -28.2593  -38.0103   24.7504 H   0  0  0  0  0  0
  -28.1058  -36.2639   24.6280 H   0  0  0  0  0  0
  -27.2289  -37.1462   25.8862 H   0  0  0  0  0  0
  -20.9265  -29.8725   21.6970 H   0  0  0  0  0  0
  -26.0160  -38.2861   24.1445 H   0  0  0  0  0  0
  -29.6619  -19.1032   16.7087 H   0  0  0  0  0  0
  -30.2639  -18.2255   20.9001 H   0  0  0  0  0  0
  -29.0957  -15.1320   18.1270 H   0  0  0  0  0  0
  -30.9245  -16.3935   15.0847 H   0  0  0  0  0  0
  -30.2204  -17.9707   14.7316 H   0  0  0  0  0  0
  -29.6883  -16.5450   13.8462 H   0  0  0  0  0  0
  -26.7928  -17.0340   16.1954 H   0  0  0  0  0  0
  -27.2479  -16.9979   14.4981 H   0  0  0  0  0  0
  -27.6645  -18.3917   15.4867 H   0  0  0  0  0  0
  -30.8537  -23.7454   16.8668 H   0  0  0  0  0  0
  -30.8427  -22.0070   16.6480 H   0  0  0  0  0  0
  -31.5984  -22.7110   18.0718 H   0  0  0  0  0  0
  -28.5152  -24.2314   16.8260 H   0  0  0  0  0  0
  -27.3205  -23.2642   17.7011 H   0  0  0  0  0  0
  -28.1786  -22.6071   16.3180 H   0  0  0  0  0  0
  -31.1366  -20.5631   18.6882 H   0  0  0  0  0  0
  -30.2132  -20.5317   20.1646 H   0  0  0  0  0  0
  -30.7413  -25.0844   18.6871 H   0  0  0  0  0  0
  -30.3116  -25.2694   20.3590 H   0  0  0  0  0  0
  -28.1451  -21.1448   19.0529 H   0  0  0  0  0  0
  -28.7510  -20.7945   17.4905 H   0  0  0  0  0  0
  -27.9491  -25.4619   18.5690 H   0  0  0  0  0  0
  -29.1606  -26.6601   18.2059 H   0  0  0  0  0  0
  -28.7382  -15.5592   15.8988 H   0  0  0  0  0  0
  -29.0188  -15.3141   21.1200 H   0  0  0  0  0  0
  1 25  1  0  0  0
  1 30  2  0  0  0
  1 88  1  0  0  0
  2  3  1  0  0  0
  2 25  1  0  0  0
  2 90  1  0  0  0
  2 91  1  0  0  0
  3  4  1  0  0  0
  3 92  1  0  0  0
  3 93  1  0  0  0
  4  5  1  0  0  0
  4 94  1  0  0  0
  4 95  1  0  0  0
  5  6  1  0  0  0
  5 26  1  0  0  0
  5 96  1  0  0  0
  6 25  1  0  0  0
  6 97  1  0  0  0
  6 98  1  0  0  0
  7  8  2  0  0  0
  7 26  1  0  0  0
  7 29  1  0  0  0
  8  9  1  0  0  0
  8 22  1  0  0  0
  9 10  1  0  0  0
  9 27  2  0  0  0
 10 11  2  0  0  0
 10 15  1  0  0  0
 11 12  1  0  0  0
 11 99  1  0  0  0
 12 13  2  0  0  0
 12100  1  0  0  0
 13 14  1  0  0  0
 13 31  1  0  0  0
 14 15  2  0  0  0
 14101  1  0  0  0
 15102  1  0  0  0
 16 17  2  0  0  0
 16 21  1  0  0  0
 16 31  1  0  0  0
 17 18  1  0  0  0
 17103  1  0  0  0
 18 19  2  0  0  0
 18104  1  0  0  0
 19 20  1  0  0  0
 19 24  1  0  0  0
 20 21  2  0  0  0
 20105  1  0  0  0
 21 23  1  0  0  0
 22 28  1  0  0  0
 22 32  2  0  0  0
 26 27  1  0  0  0
 28106  1  0  0  0
 28107  1  0  0  0
 29108  1  0  0  0
 29109  1  0  0  0
 33 34  1  0  0  0
 33 66  1  0  0  0
 33 70  2  0  0  0
 34 36  1  0  0  0
 34 59  1  0  0  0
 34110  1  0  0  0
 35 44  2  0  0  0
 35 45  1  0  0  0
 35 68  1  0  0  0
 36 56  1  0  0  0
 36111  1  0  0  0
 37 39  1  0  0  0
 37 47  1  0  0  0
 37 66  1  0  0  0
 37112  1  0  0  0
 38 43  2  0  0  0
 38 46  1  0  0  0
 38 47  1  0  0  0
 39 64  1  0  0  0
 39 67  2  0  0  0
 40 52  1  0  0  0
 40 53  2  0  0  0
 40 58  1  0  0  0
 41113  1  0  0  0
 41114  1  0  0  0
 41115  1  0  0  0
 41 48  1  0  0  0
 42 43  1  0  0  0
 42 66  1  0  0  0
 42116  1  0  0  0
 42117  1  0  0  0
 43 44  1  0  0  0
 44118  1  0  0  0
 45 46  2  0  0  0
 45119  1  0  0  0
 46120  1  0  0  0
 47121  1  0  0  0
 47122  1  0  0  0
 48 56  1  0  0  0
 48 65  1  0  0  0
 48123  1  0  0  0
 49 50  1  0  0  0
 49 53  1  0  0  0
 49 64  1  0  0  0
 49124  1  0  0  0
 50 51  1  0  0  0
 50125  1  0  0  0
 50126  1  0  0  0
 51 52  1  0  0  0
 51127  1  0  0  0
 51128  1  0  0  0
 52129  1  0  0  0
 52130  1  0  0  0
 53 54  1  0  0  0
 54 55  2  0  0  0
 54131  1  0  0  0
 55 57  1  0  0  0
 55132  1  0  0  0
 56 69  2  0  0  0
 57 58  2  0  0  0
 57133  1  0  0  0
 58134  1  0  0  0
 59 60  1  0  0  0
 59 61  1  0  0  0
 59 62  1  0  0  0
 60135  1  0  0  0
 60136  1  0  0  0
 60137  1  0  0  0
 61138  1  0  0  0
 61139  1  0  0  0
 61140  1  0  0  0
 62141  1  0  0  0
 62142  1  0  0  0
 62143  1  0  0  0
 63 65  1  0  0  0
 63144  1  0  0  0
 63145  1  0  0  0
 63146  1  0  0  0
 64147  1  0  0  0
 65148  1  0  0  0
 68 85  1  0  0  0
 71 74  2  0  0  0
 71 75  1  0  0  0
 71149  1  0  0  0
 72 74  1  0  0  0
 72 76  2  0  0  0
 72150  1  0  0  0
 73 75  2  0  0  0
 73 76  1  0  0  0
 73151  1  0  0  0
 74 82  1  0  0  0
 75 86  1  0  0  0
 76 88  1  0  0  0
 77 83  1  0  0  0
 77 87  1  0  0  0
 77 89  2  0  0  0
 78152  1  0  0  0
 78153  1  0  0  0
 78154  1  0  0  0
 78 86  1  0  0  0
 79 86  1  0  0  0
 79155  1  0  0  0
 79156  1  0  0  0
 79157  1  0  0  0
 80158  1  0  0  0
 80159  1  0  0  0
 80160  1  0  0  0
 80 87  1  0  0  0
 81 87  1  0  0  0
 81161  1  0  0  0
 81162  1  0  0  0
 81163  1  0  0  0
 82 84  1  0  0  0
 82164  1  0  0  0
 82165  1  0  0  0
 83 85  1  0  0  0
 83166  1  0  0  0
 83167  1  0  0  0
 84 87  1  0  0  0
 84168  1  0  0  0
 84169  1  0  0  0
 85170  1  0  0  0
 85171  1  0  0  0
 86172  1  0  0  0
 88173  1  0  0  0
M  ISO  4   1 100  68 101  85 101  88 100
M  END
> <chiral flag>
0

> <version>
0

> <s_m_source_file>
/data/baiqing/PycharmProjects/Reinvent-master-3.2/result/LINK_invent/BTK/process_docking_weight1_custom_product_contain_oxygen_bond_distance_aromatic_linkinvent_7_9_3/rearranged_h_0139.sdf

> <i_m_source_file_index>
15

> <r_mmod_Potential_Energy-OPLS-2005>
14.9910163879395

> <r_mmod_Stretch_Energy-OPLS-2005>
36.6774406433105

> <r_mmod_Bend_Energy-OPLS-2005>
103.307434082031

> <r_mmod_Torsional_Energy-OPLS-2005>
286.018218994141

> <r_mmod_Improper_Torsional_Energy-OPLS-2005>
10.2254047393799

> <r_mmod_Van_der_Waal_Energy-OPLS-2005>
169.028732299805

> <r_mmod_Electrostatic_Energy-OPLS-2005>
-395.720947265625

> <r_mmod_Solvation_Energy-OPLS-2005>
-212.953094482422

> <b_mmod_Minimization_Converged-OPLS-2005>
0

> <r_mmod_RMS_Derivative-OPLS-2005>
3.1595311164856

$$$$
15
                    3D
 Structure written by MMmdl.
154163  0  0  1  0            999 V2000
  -30.5956  -14.7994   20.4842 C   0  0  0  0  0  0
  -30.4488  -12.4894   19.4753 C   0  0  0  0  0  0
  -29.5244  -12.5235   18.2358 C   0  0  0  0  0  0
  -28.0501  -12.3444   18.6461 C   0  0  0  0  0  0
  -27.6502  -13.2353   19.8524 C   0  0  2  0  0  0
  -28.6994  -13.1675   20.9851 C   0  0  0  0  0  0
  -25.2548  -13.8186   20.5715 C   0  0  0  0  0  0
  -24.1835  -13.0423   20.9200 C   0  0  0  0  0  0
  -24.6444  -11.6911   20.8721 C   0  0  0  0  0  0
  -23.9105  -10.4299   21.0409 C   0  0  0  0  0  0
  -24.3643   -9.4201   21.9182 C   0  0  0  0  0  0
  -23.6301   -8.2254   22.0761 C   0  0  0  0  0  0
  -22.4271   -8.0310   21.3573 C   0  0  0  0  0  0
  -21.9943   -9.0274   20.4647 C   0  0  0  0  0  0
  -22.7285  -10.2144   20.3045 C   0  0  0  0  0  0
  -21.6863   -6.0744   22.5272 C   0  0  0  0  0  0
  -21.4006   -6.5631   23.8201 C   0  0  0  0  0  0
  -21.3649   -5.6787   24.9165 C   0  0  0  0  0  0
  -21.6053   -4.3052   24.7221 C   0  0  0  0  0  0
  -21.8820   -3.8150   23.4336 C   0  0  0  0  0  0
  -21.9185   -4.6972   22.3400 C   0  0  0  0  0  0
  -22.7841  -13.5207   21.1823 C   0  0  0  0  0  0
  -22.1661   -4.2152   21.0986 F   0  0  0  0  0  0
  -21.5633   -3.4537   25.7737 F   0  0  0  0  0  0
  -29.9967  -13.5552   20.4095 N   0  0  0  0  0  0
  -26.2999  -12.9405   20.3305 N   0  0  0  0  0  0
  -25.9373  -11.6540   20.5719 N   0  0  0  0  0  0
  -22.0485  -12.8221   22.0379 N   0  0  0  0  0  0
  -25.4256  -15.1928   20.4233 N   0  0  0  0  0  0
  -31.7808  -14.9171   20.1604 O   0  0  0  0  0  0
  -21.6644   -6.8902   21.4246 O   0  0  0  0  0  0
  -22.3570  -14.5554   20.6708 O   0  0  0  0  0  0
  -24.6337  -31.8579   23.1888 C   0  0  0  0  0  0
  -25.9139  -32.4768   23.8291 C   0  0  1  0  0  0
  -27.2133  -27.2458   20.1407 C   0  0  0  0  0  0
  -25.5927  -33.8555   24.2258 N   0  0  0  0  0  0
  -23.4319  -30.4825   21.5327 C   0  0  2  0  0  0
  -24.8733  -28.9181   20.1111 C   0  0  0  0  0  0
  -22.7502  -29.4677   22.4862 C   0  0  0  0  0  0
  -18.0340  -28.1520   22.8519 C   0  0  0  0  0  0
  -24.1473  -36.7243   23.2637 C   0  0  0  0  0  0
  -25.9776  -30.7675   21.3635 C   0  0  0  0  0  0
  -26.0474  -29.3812   20.7188 C   0  0  0  0  0  0
  -27.2223  -28.5616   20.7207 C   0  0  0  0  0  0
  -26.0165  -26.8459   19.5124 C   0  0  0  0  0  0
  -24.8626  -27.6548   19.4917 C   0  0  0  0  0  0
  -23.6471  -29.8103   20.1501 C   0  0  0  0  0  0
  -25.4100  -36.3064   24.0338 C   0  0  1  0  0  0
  -20.5958  -28.3793   23.1299 C   0  0  2  0  0  0
  -20.6836  -26.9521   22.5428 C   0  0  0  0  0  0
  -19.5771  -26.6476   21.5281 C   0  0  0  0  0  0
  -18.1963  -26.8085   22.1674 C   0  0  0  0  0  0
  -19.1599  -28.8976   23.2923 C   0  0  0  0  0  0
  -18.9504  -30.1588   23.8913 C   0  0  0  0  0  0
  -17.6498  -30.6666   24.0671 C   0  0  0  0  0  0
  -25.9077  -34.9440   23.5101 C   0  0  0  0  0  0
  -16.5397  -29.9195   23.6388 C   0  0  0  0  0  0
  -16.7343  -28.6657   23.0358 C   0  0  0  0  0  0
  -26.4463  -31.6579   25.0668 C   0  0  0  0  0  0
  -25.3622  -31.3820   26.1364 C   0  0  0  0  0  0
  -27.0271  -30.2990   24.6109 C   0  0  0  0  0  0
  -27.6055  -32.4290   25.7419 C   0  0  0  0  0  0
  -27.5589  -37.1785   24.8469 C   0  0  0  0  0  0
  -21.4233  -29.3100   22.3595 N   0  0  0  0  0  0
  -26.4268  -37.3766   23.9447 N   0  0  0  0  0  0
  -24.7001  -31.0576   22.0813 N   0  0  0  0  0  0
  -23.4209  -28.8239   23.2958 O   0  0  0  0  0  0
  -28.2998  -26.3417   20.0900 O   0  0  0  0  0  0
  -26.5660  -34.8917   22.4672 O   0  0  0  0  0  0
  -23.5461  -32.1370   23.7182 O   0  0  0  0  0  0
  -30.8047  -19.5826   20.7900 C   0  0  0  0  0  0
  -31.0357  -18.1395   20.8719 C   0  0  0  0  0  0
  -29.5097  -19.9807   20.5273 C   0  0  0  0  0  0
  -29.9349  -17.3148   20.6788 C   0  0  0  0  0  0
  -28.6618  -23.8420   20.3659 C   0  0  0  0  0  0
  -28.3491  -25.1223   20.8396 C   0  0  0  0  0  0
  -28.7794  -23.4000   18.9238 C   0  0  0  0  0  0
  -28.9894  -22.5088   21.1558 C   0  0  0  0  0  0
  -29.3579  -21.9535   18.9703 C   0  0  0  0  0  0
  -28.1829  -25.3890   22.3278 C   0  0  0  0  0  0
  -28.9777  -21.3194   20.2371 N   0  0  0  0  0  0
  -29.7756  -15.9058   20.7208 N   0  0  0  0  0  0
  -28.5632  -18.4545   20.3998 S   0  0  0  0  0  0
  -31.4891  -12.6205   19.1721 H   0  0  0  0  0  0
  -30.4000  -11.5112   19.9580 H   0  0  0  0  0  0
  -29.8143  -11.7453   17.5266 H   0  0  0  0  0  0
  -29.6520  -13.4723   17.7085 H   0  0  0  0  0  0
  -27.9076  -11.2924   18.9023 H   0  0  0  0  0  0
  -27.3948  -12.5409   17.7969 H   0  0  0  0  0  0
  -27.6422  -14.2604   19.4785 H   0  0  0  0  0  0
  -28.7510  -12.1563   21.3944 H   0  0  0  0  0  0
  -28.4254  -13.8228   21.8148 H   0  0  0  0  0  0
  -25.2796   -9.5653   22.4742 H   0  0  0  0  0  0
  -23.9979   -7.4657   22.7498 H   0  0  0  0  0  0
  -21.0866   -8.8800   19.8976 H   0  0  0  0  0  0
  -22.3754  -10.9669   19.6135 H   0  0  0  0  0  0
  -21.2001   -7.6141   23.9704 H   0  0  0  0  0  0
  -21.1468   -6.0524   25.9074 H   0  0  0  0  0  0
  -22.0610   -2.7613   23.2835 H   0  0  0  0  0  0
  -22.4038  -11.9814   22.4707 H   0  0  0  0  0  0
  -21.1145  -13.1315   22.2621 H   0  0  0  0  0  0
  -24.6668  -15.8469   20.5720 H   0  0  0  0  0  0
  -26.2766  -15.6429   20.1096 H   0  0  0  0  0  0
  -26.7243  -32.5449   23.1082 H   0  0  0  0  0  0
  -25.0064  -33.9644   25.0414 H   0  0  0  0  0  0
  -22.7288  -31.3047   21.3910 H   0  0  0  0  0  0
  -23.3733  -35.9570   23.3286 H   0  0  0  0  0  0
  -24.3598  -36.8845   22.2055 H   0  0  0  0  0  0
  -23.7170  -37.6415   23.6660 H   0  0  0  0  0  0
  -26.1179  -31.5073   20.5751 H   0  0  0  0  0  0
  -26.8582  -30.8354   21.9911 H   0  0  0  0  0  0
  -28.1224  -28.9214   21.2038 H   0  0  0  0  0  0
  -25.9642  -25.8698   19.0507 H   0  0  0  0  0  0
  -23.9632  -27.2965   19.0066 H   0  0  0  0  0  0
  -23.7693  -30.5860   19.3908 H   0  0  0  0  0  0
  -22.7620  -29.2434   19.8553 H   0  0  0  0  0  0
  -25.1284  -36.1905   25.0827 H   0  0  0  0  0  0
  -21.0192  -28.3443   24.1383 H   0  0  0  0  0  0
  -20.5850  -26.2417   23.3639 H   0  0  0  0  0  0
  -21.6690  -26.7609   22.1167 H   0  0  0  0  0  0
  -19.6871  -25.6385   21.1319 H   0  0  0  0  0  0
  -19.6720  -27.3314   20.6839 H   0  0  0  0  0  0
  -17.4282  -26.6969   21.4019 H   0  0  0  0  0  0
  -18.0273  -26.0242   22.9078 H   0  0  0  0  0  0
  -19.7943  -30.7485   24.2210 H   0  0  0  0  0  0
  -17.5026  -31.6317   24.5337 H   0  0  0  0  0  0
  -15.5402  -30.3122   23.7621 H   0  0  0  0  0  0
  -15.8789  -28.0986   22.6989 H   0  0  0  0  0  0
  -24.5850  -30.7084   25.7748 H   0  0  0  0  0  0
  -24.8700  -32.3002   26.4578 H   0  0  0  0  0  0
  -25.7871  -30.9184   27.0272 H   0  0  0  0  0  0
  -26.2831  -29.6751   24.1129 H   0  0  0  0  0  0
  -27.3975  -29.7242   25.4608 H   0  0  0  0  0  0
  -27.8714  -30.4278   23.9316 H   0  0  0  0  0  0
  -27.2754  -33.3688   26.1846 H   0  0  0  0  0  0
  -28.3909  -32.6658   25.0241 H   0  0  0  0  0  0
  -28.0629  -31.8447   26.5400 H   0  0  0  0  0  0
  -28.2635  -38.0079   24.7605 H   0  0  0  0  0  0
  -28.1085  -36.2631   24.6227 H   0  0  0  0  0  0
  -27.2363  -37.1363   25.8887 H   0  0  0  0  0  0
  -20.9418  -29.8681   21.6700 H   0  0  0  0  0  0
  -26.0133  -38.2828   24.1478 H   0  0  0  0  0  0
  -31.6233  -20.2836   20.9032 H   0  0  0  0  0  0
  -32.0309  -17.7710   21.0845 H   0  0  0  0  0  0
  -29.3844  -24.0796   18.3193 H   0  0  0  0  0  0
  -27.7709  -23.3968   18.5070 H   0  0  0  0  0  0
  -28.3586  -22.3728   22.0329 H   0  0  0  0  0  0
  -30.0199  -22.6060   21.5163 H   0  0  0  0  0  0
  -30.4423  -22.0411   18.9552 H   0  0  0  0  0  0
  -29.0778  -21.3458   18.1109 H   0  0  0  0  0  0
  -27.3687  -24.7825   22.7283 H   0  0  0  0  0  0
  -27.9578  -26.4332   22.5418 H   0  0  0  0  0  0
  -29.0999  -25.1458   22.8610 H   0  0  0  0  0  0
  -28.8209  -15.6195   20.8654 H   0  0  0  0  0  0
  1 25  1  0  0  0
  1 30  2  0  0  0
  1 82  1  0  0  0
  2  3  1  0  0  0
  2 25  1  0  0  0
  2 84  1  0  0  0
  2 85  1  0  0  0
  3  4  1  0  0  0
  3 86  1  0  0  0
  3 87  1  0  0  0
  4  5  1  0  0  0
  4 88  1  0  0  0
  4 89  1  0  0  0
  5  6  1  0  0  0
  5 26  1  0  0  0
  5 90  1  0  0  0
  6 25  1  0  0  0
  6 91  1  0  0  0
  6 92  1  0  0  0
  7  8  2  0  0  0
  7 26  1  0  0  0
  7 29  1  0  0  0
  8  9  1  0  0  0
  8 22  1  0  0  0
  9 10  1  0  0  0
  9 27  2  0  0  0
 10 11  2  0  0  0
 10 15  1  0  0  0
 11 12  1  0  0  0
 11 93  1  0  0  0
 12 13  2  0  0  0
 12 94  1  0  0  0
 13 14  1  0  0  0
 13 31  1  0  0  0
 14 15  2  0  0  0
 14 95  1  0  0  0
 15 96  1  0  0  0
 16 17  2  0  0  0
 16 21  1  0  0  0
 16 31  1  0  0  0
 17 18  1  0  0  0
 17 97  1  0  0  0
 18 19  2  0  0  0
 18 98  1  0  0  0
 19 20  1  0  0  0
 19 24  1  0  0  0
 20 21  2  0  0  0
 20 99  1  0  0  0
 21 23  1  0  0  0
 22 28  1  0  0  0
 22 32  2  0  0  0
 26 27  1  0  0  0
 28100  1  0  0  0
 28101  1  0  0  0
 29102  1  0  0  0
 29103  1  0  0  0
 33 34  1  0  0  0
 33 66  1  0  0  0
 33 70  2  0  0  0
 34 36  1  0  0  0
 34 59  1  0  0  0
 34104  1  0  0  0
 35 44  2  0  0  0
 35 45  1  0  0  0
 35 68  1  0  0  0
 36 56  1  0  0  0
 36105  1  0  0  0
 37 39  1  0  0  0
 37 47  1  0  0  0
 37 66  1  0  0  0
 37106  1  0  0  0
 38 43  2  0  0  0
 38 46  1  0  0  0
 38 47  1  0  0  0
 39 64  1  0  0  0
 39 67  2  0  0  0
 40 52  1  0  0  0
 40 53  2  0  0  0
 40 58  1  0  0  0
 41107  1  0  0  0
 41108  1  0  0  0
 41109  1  0  0  0
 41 48  1  0  0  0
 42 43  1  0  0  0
 42 66  1  0  0  0
 42110  1  0  0  0
 42111  1  0  0  0
 43 44  1  0  0  0
 44112  1  0  0  0
 45 46  2  0  0  0
 45113  1  0  0  0
 46114  1  0  0  0
 47115  1  0  0  0
 47116  1  0  0  0
 48 56  1  0  0  0
 48 65  1  0  0  0
 48117  1  0  0  0
 49 50  1  0  0  0
 49 53  1  0  0  0
 49 64  1  0  0  0
 49118  1  0  0  0
 50 51  1  0  0  0
 50119  1  0  0  0
 50120  1  0  0  0
 51 52  1  0  0  0
 51121  1  0  0  0
 51122  1  0  0  0
 52123  1  0  0  0
 52124  1  0  0  0
 53 54  1  0  0  0
 54 55  2  0  0  0
 54125  1  0  0  0
 55 57  1  0  0  0
 55126  1  0  0  0
 56 69  2  0  0  0
 57 58  2  0  0  0
 57127  1  0  0  0
 58128  1  0  0  0
 59 60  1  0  0  0
 59 61  1  0  0  0
 59 62  1  0  0  0
 60129  1  0  0  0
 60130  1  0  0  0
 60131  1  0  0  0
 61132  1  0  0  0
 61133  1  0  0  0
 61134  1  0  0  0
 62135  1  0  0  0
 62136  1  0  0  0
 62137  1  0  0  0
 63 65  1  0  0  0
 63138  1  0  0  0
 63139  1  0  0  0
 63140  1  0  0  0
 64141  1  0  0  0
 65142  1  0  0  0
 68 76  1  0  0  0
 71 72  1  0  0  0
 71 73  2  0  0  0
 71143  1  0  0  0
 72 74  2  0  0  0
 72144  1  0  0  0
 73 81  1  0  0  0
 73 83  1  0  0  0
 74 82  1  0  0  0
 74 83  1  0  0  0
 75 76  2  0  0  0
 75 77  1  0  0  0
 75 78  1  0  0  0
 76 80  1  0  0  0
 77 79  1  0  0  0
 77145  1  0  0  0
 77146  1  0  0  0
 78 81  1  0  0  0
 78147  1  0  0  0
 78148  1  0  0  0
 79 81  1  0  0  0
 79149  1  0  0  0
 79150  1  0  0  0
 80151  1  0  0  0
 80152  1  0  0  0
 80153  1  0  0  0
 82154  1  0  0  0
M  ISO  4   1 100  68 101  76 101  82 100
M  END
> <chiral flag>
0

> <version>
0

> <s_m_source_file>
/data/baiqing/PycharmProjects/Reinvent-master-3.2/result/LINK_invent/BTK/process_docking_weight1_custom_product_contain_oxygen_bond_distance_aromatic_linkinvent_7_9_3/rearranged_h_0139.sdf

> <i_m_source_file_index>
16

> <r_mmod_Potential_Energy-OPLS-2005>
276.154479980469

> <r_mmod_Stretch_Energy-OPLS-2005>
119.077125549316

> <r_mmod_Bend_Energy-OPLS-2005>
210.910507202148

> <r_mmod_Torsional_Energy-OPLS-2005>
283.317230224609

> <r_mmod_Improper_Torsional_Energy-OPLS-2005>
10.1551809310913

> <r_mmod_Van_der_Waal_Energy-OPLS-2005>
104.788719177246

> <r_mmod_Electrostatic_Energy-OPLS-2005>
-332.300811767578

> <r_mmod_Solvation_Energy-OPLS-2005>
-219.589782714844

> <b_mmod_Minimization_Converged-OPLS-2005>
0

> <r_mmod_RMS_Derivative-OPLS-2005>
7.66796779632568

$$$$
16
                    3D
 Structure written by MMmdl.
155163  0  0  1  0            999 V2000
  -30.7658  -14.4152   20.6182 C   0  0  0  0  0  0
  -30.4065  -12.2877   19.4270 C   0  0  0  0  0  0
  -29.4927  -12.5147   18.2088 C   0  0  0  0  0  0
  -28.0141  -12.3767   18.6192 C   0  0  0  0  0  0
  -27.6634  -13.2115   19.8814 C   0  0  2  0  0  0
  -28.7019  -12.9895   21.0044 C   0  0  0  0  0  0
  -25.2606  -13.8170   20.5708 C   0  0  0  0  0  0
  -24.1851  -13.0444   20.9182 C   0  0  0  0  0  0
  -24.6409  -11.6913   20.8733 C   0  0  0  0  0  0
  -23.9074  -10.4297   21.0399 C   0  0  0  0  0  0
  -24.3630   -9.4210   21.9180 C   0  0  0  0  0  0
  -23.6304   -8.2243   22.0748 C   0  0  0  0  0  0
  -22.4285   -8.0282   21.3540 C   0  0  0  0  0  0
  -21.9922   -9.0252   20.4640 C   0  0  0  0  0  0
  -22.7244  -10.2133   20.3048 C   0  0  0  0  0  0
  -21.6858   -6.0740   22.5280 C   0  0  0  0  0  0
  -21.4011   -6.5645   23.8210 C   0  0  0  0  0  0
  -21.3661   -5.6794   24.9174 C   0  0  0  0  0  0
  -21.6046   -4.3057   24.7224 C   0  0  0  0  0  0
  -21.8819   -3.8147   23.4346 C   0  0  0  0  0  0
  -21.9195   -4.6964   22.3405 C   0  0  0  0  0  0
  -22.7874  -13.5242   21.1846 C   0  0  0  0  0  0
  -22.1664   -4.2155   21.0982 F   0  0  0  0  0  0
  -21.5632   -3.4543   25.7740 F   0  0  0  0  0  0
  -30.0346  -13.2784   20.4518 N   0  0  0  0  0  0
  -26.3043  -12.9348   20.3400 N   0  0  0  0  0  0
  -25.9338  -11.6502   20.5773 N   0  0  0  0  0  0
  -22.0508  -12.8232   22.0400 N   0  0  0  0  0  0
  -25.4365  -15.1881   20.4138 N   0  0  0  0  0  0
  -31.8559  -14.5645   20.0567 O   0  0  0  0  0  0
  -21.6649   -6.8878   21.4239 O   0  0  0  0  0  0
  -22.3563  -14.5551   20.6693 O   0  0  0  0  0  0
  -24.6128  -31.8695   23.2133 C   0  0  0  0  0  0
  -25.9032  -32.4832   23.8424 C   0  0  1  0  0  0
  -27.2283  -27.4637   20.0871 C   0  0  0  0  0  0
  -25.5899  -33.8630   24.2351 N   0  0  0  0  0  0
  -23.3991  -30.4945   21.5529 C   0  0  2  0  0  0
  -24.8476  -28.9766   20.1025 C   0  0  0  0  0  0
  -22.7407  -29.4651   22.4987 C   0  0  0  0  0  0
  -18.0259  -28.1360   22.8495 C   0  0  0  0  0  0
  -24.1479  -36.7319   23.2625 C   0  0  0  0  0  0
  -25.9264  -30.8472   21.3619 C   0  0  0  0  0  0
  -26.0073  -29.4881   20.7004 C   0  0  0  0  0  0
  -27.2052  -28.7390   20.6904 C   0  0  0  0  0  0
  -26.0609  -26.9755   19.4597 C   0  0  0  0  0  0
  -24.8692  -27.7201   19.4746 C   0  0  0  0  0  0
  -23.6052  -29.8345   20.1632 C   0  0  0  0  0  0
  -25.4089  -36.3118   24.0340 C   0  0  1  0  0  0
  -20.5855  -28.3640   23.1318 C   0  0  2  0  0  0
  -20.6750  -26.9378   22.5402 C   0  0  0  0  0  0
  -19.5718  -26.6368   21.5206 C   0  0  0  0  0  0
  -18.1901  -26.7904   22.1629 C   0  0  0  0  0  0
  -19.1513  -28.8816   23.2903 C   0  0  0  0  0  0
  -18.9447  -30.1432   23.8899 C   0  0  0  0  0  0
  -17.6449  -30.6575   24.0552 C   0  0  0  0  0  0
  -25.9028  -34.9480   23.5141 C   0  0  0  0  0  0
  -16.5337  -29.9073   23.6328 C   0  0  0  0  0  0
  -16.7252  -28.6492   23.0348 C   0  0  0  0  0  0
  -26.4470  -31.6591   25.0733 C   0  0  0  0  0  0
  -25.3779  -31.3741   26.1536 C   0  0  0  0  0  0
  -27.0226  -30.3001   24.6095 C   0  0  0  0  0  0
  -27.6091  -32.4268   25.7468 C   0  0  0  0  0  0
  -27.5596  -37.1777   24.8438 C   0  0  0  0  0  0
  -21.4131  -29.3029   22.3751 N   0  0  0  0  0  0
  -26.4261  -37.3822   23.9463 N   0  0  0  0  0  0
  -24.6641  -31.0831   22.1013 N   0  0  0  0  0  0
  -23.4198  -28.8169   23.2995 O   0  0  0  0  0  0
  -28.3336  -26.6528   20.1894 O   0  0  0  0  0  0
  -26.5588  -34.8933   22.4703 O   0  0  0  0  0  0
  -23.5328  -32.1436   23.7542 O   0  0  0  0  0  0
  -31.0508  -18.9714   24.7313 C   0  0  0  0  0  0
  -31.1930  -17.7444   24.0569 C   0  0  0  0  0  0
  -30.4512  -20.0644   24.0811 C   0  0  0  0  0  0
  -30.0609  -18.6768   22.1068 C   0  0  0  0  0  0
  -30.7075  -17.5904   22.7425 C   0  0  0  0  0  0
  -29.9708  -19.9291   22.7599 C   0  0  0  0  0  0
  -31.0240  -16.3519   22.0228 C   0  0  0  0  0  0
  -30.1794  -15.5009   21.4002 C   0  0  0  0  0  0
  -28.8787  -23.2458   21.6117 C   0  0  0  0  0  0
  -29.1278  -24.5402   21.3040 C   0  0  0  0  0  0
  -29.8855  -22.2668   21.9891 C   0  0  0  0  0  0
  -28.0121  -25.5334   21.0304 C   0  0  0  0  0  0
  -29.3610  -21.0342   22.1120 N   0  0  0  0  0  0
  -31.0785  -22.5202   22.1833 O   0  0  0  0  0  0
  -30.3406  -25.1144   21.2271 O   0  0  0  0  0  0
  -31.4560  -12.3474   19.1321 H   0  0  0  0  0  0
  -30.2740  -11.2778   19.8187 H   0  0  0  0  0  0
  -29.7335  -11.8037   17.4180 H   0  0  0  0  0  0
  -29.6707  -13.5087   17.7939 H   0  0  0  0  0  0
  -27.8242  -11.3194   18.8101 H   0  0  0  0  0  0
  -27.3633  -12.6576   17.7902 H   0  0  0  0  0  0
  -27.7108  -14.2617   19.5921 H   0  0  0  0  0  0
  -28.6674  -11.9541   21.3458 H   0  0  0  0  0  0
  -28.4653  -13.5869   21.8851 H   0  0  0  0  0  0
  -25.2774   -9.5696   22.4752 H   0  0  0  0  0  0
  -24.0017   -7.4645   22.7472 H   0  0  0  0  0  0
  -21.0851   -8.8774   19.8945 H   0  0  0  0  0  0
  -22.3705  -10.9679   19.6161 H   0  0  0  0  0  0
  -21.1993   -7.6148   23.9714 H   0  0  0  0  0  0
  -21.1484   -6.0526   25.9075 H   0  0  0  0  0  0
  -22.0592   -2.7611   23.2850 H   0  0  0  0  0  0
  -22.4101  -11.9881   22.4780 H   0  0  0  0  0  0
  -21.1122  -13.1254   22.2589 H   0  0  0  0  0  0
  -24.6795  -15.8534   20.5282 H   0  0  0  0  0  0
  -26.3013  -15.6197   20.1111 H   0  0  0  0  0  0
  -26.7107  -32.5556   23.1197 H   0  0  0  0  0  0
  -25.0049  -33.9807   25.0496 H   0  0  0  0  0  0
  -22.6862  -31.3102   21.4182 H   0  0  0  0  0  0
  -23.3784  -35.9598   23.3164 H   0  0  0  0  0  0
  -24.3621  -36.9069   22.2070 H   0  0  0  0  0  0
  -23.7151  -37.6450   23.6721 H   0  0  0  0  0  0
  -26.0366  -31.6205   20.5999 H   0  0  0  0  0  0
  -26.8143  -30.8970   21.9801 H   0  0  0  0  0  0
  -28.0949  -29.1180   21.1745 H   0  0  0  0  0  0
  -26.0633  -26.0069   18.9800 H   0  0  0  0  0  0
  -23.9812  -27.3247   19.0016 H   0  0  0  0  0  0
  -23.7029  -30.6133   19.4054 H   0  0  0  0  0  0
  -22.7321  -29.2490   19.8693 H   0  0  0  0  0  0
  -25.1245  -36.1961   25.0826 H   0  0  0  0  0  0
  -20.9941  -28.3178   24.1440 H   0  0  0  0  0  0
  -20.5637  -26.2243   23.3581 H   0  0  0  0  0  0
  -21.6616  -26.7409   22.1189 H   0  0  0  0  0  0
  -19.6864  -25.6282   21.1223 H   0  0  0  0  0  0
  -19.6641  -27.3190   20.6747 H   0  0  0  0  0  0
  -17.4159  -26.6644   21.4044 H   0  0  0  0  0  0
  -18.0306  -26.0045   22.9024 H   0  0  0  0  0  0
  -19.7924  -30.7249   24.2256 H   0  0  0  0  0  0
  -17.5002  -31.6263   24.5130 H   0  0  0  0  0  0
  -15.5334  -30.2971   23.7650 H   0  0  0  0  0  0
  -15.8651  -28.0812   22.7056 H   0  0  0  0  0  0
  -24.5786  -30.7290   25.7881 H   0  0  0  0  0  0
  -24.9205  -32.2938   26.5194 H   0  0  0  0  0  0
  -25.8131  -30.8689   27.0167 H   0  0  0  0  0  0
  -26.2710  -29.6786   24.1204 H   0  0  0  0  0  0
  -27.4018  -29.7229   25.4540 H   0  0  0  0  0  0
  -27.8573  -30.4266   23.9195 H   0  0  0  0  0  0
  -27.2787  -33.3632   26.1978 H   0  0  0  0  0  0
  -28.3948  -32.6692   25.0298 H   0  0  0  0  0  0
  -28.0679  -31.8400   26.5439 H   0  0  0  0  0  0
  -28.2497  -38.0194   24.7681 H   0  0  0  0  0  0
  -28.1217  -36.2748   24.5990 H   0  0  0  0  0  0
  -27.2365  -37.1090   25.8844 H   0  0  0  0  0  0
  -20.9268  -29.8819   21.7049 H   0  0  0  0  0  0
  -26.0134  -38.2865   24.1608 H   0  0  0  0  0  0
  -31.4239  -19.0837   25.7395 H   0  0  0  0  0  0
  -31.6962  -16.9228   24.5471 H   0  0  0  0  0  0
  -30.3626  -21.0073   24.6040 H   0  0  0  0  0  0
  -29.7034  -18.5706   21.0922 H   0  0  0  0  0  0
  -32.0863  -16.1542   21.9650 H   0  0  0  0  0  0
  -29.1111  -15.6533   21.4456 H   0  0  0  0  0  0
  -27.8439  -22.9310   21.6122 H   0  0  0  0  0  0
  -27.6772  -25.9040   22.0015 H   0  0  0  0  0  0
  -27.1822  -24.9599   20.6160 H   0  0  0  0  0  0
  -28.4255  -20.8939   21.7545 H   0  0  0  0  0  0
  -30.9856  -24.4487   21.4467 H   0  0  0  0  0  0
  1 25  1  0  0  0
  1 30  2  0  0  0
  1 78  1  0  0  0
  2  3  1  0  0  0
  2 25  1  0  0  0
  2 86  1  0  0  0
  2 87  1  0  0  0
  3  4  1  0  0  0
  3 88  1  0  0  0
  3 89  1  0  0  0
  4  5  1  0  0  0
  4 90  1  0  0  0
  4 91  1  0  0  0
  5  6  1  0  0  0
  5 26  1  0  0  0
  5 92  1  0  0  0
  6 25  1  0  0  0
  6 93  1  0  0  0
  6 94  1  0  0  0
  7  8  2  0  0  0
  7 26  1  0  0  0
  7 29  1  0  0  0
  8  9  1  0  0  0
  8 22  1  0  0  0
  9 10  1  0  0  0
  9 27  2  0  0  0
 10 11  2  0  0  0
 10 15  1  0  0  0
 11 12  1  0  0  0
 11 95  1  0  0  0
 12 13  2  0  0  0
 12 96  1  0  0  0
 13 14  1  0  0  0
 13 31  1  0  0  0
 14 15  2  0  0  0
 14 97  1  0  0  0
 15 98  1  0  0  0
 16 17  2  0  0  0
 16 21  1  0  0  0
 16 31  1  0  0  0
 17 18  1  0  0  0
 17 99  1  0  0  0
 18 19  2  0  0  0
 18100  1  0  0  0
 19 20  1  0  0  0
 19 24  1  0  0  0
 20 21  2  0  0  0
 20101  1  0  0  0
 21 23  1  0  0  0
 22 28  1  0  0  0
 22 32  2  0  0  0
 26 27  1  0  0  0
 28102  1  0  0  0
 28103  1  0  0  0
 29104  1  0  0  0
 29105  1  0  0  0
 33 34  1  0  0  0
 33 66  1  0  0  0
 33 70  2  0  0  0
 34 36  1  0  0  0
 34 59  1  0  0  0
 34106  1  0  0  0
 35 44  2  0  0  0
 35 45  1  0  0  0
 35 68  1  0  0  0
 36 56  1  0  0  0
 36107  1  0  0  0
 37 39  1  0  0  0
 37 47  1  0  0  0
 37 66  1  0  0  0
 37108  1  0  0  0
 38 43  2  0  0  0
 38 46  1  0  0  0
 38 47  1  0  0  0
 39 64  1  0  0  0
 39 67  2  0  0  0
 40 52  1  0  0  0
 40 53  2  0  0  0
 40 58  1  0  0  0
 41109  1  0  0  0
 41110  1  0  0  0
 41111  1  0  0  0
 41 48  1  0  0  0
 42 43  1  0  0  0
 42 66  1  0  0  0
 42112  1  0  0  0
 42113  1  0  0  0
 43 44  1  0  0  0
 44114  1  0  0  0
 45 46  2  0  0  0
 45115  1  0  0  0
 46116  1  0  0  0
 47117  1  0  0  0
 47118  1  0  0  0
 48 56  1  0  0  0
 48 65  1  0  0  0
 48119  1  0  0  0
 49 50  1  0  0  0
 49 53  1  0  0  0
 49 64  1  0  0  0
 49120  1  0  0  0
 50 51  1  0  0  0
 50121  1  0  0  0
 50122  1  0  0  0
 51 52  1  0  0  0
 51123  1  0  0  0
 51124  1  0  0  0
 52125  1  0  0  0
 52126  1  0  0  0
 53 54  1  0  0  0
 54 55  2  0  0  0
 54127  1  0  0  0
 55 57  1  0  0  0
 55128  1  0  0  0
 56 69  2  0  0  0
 57 58  2  0  0  0
 57129  1  0  0  0
 58130  1  0  0  0
 59 60  1  0  0  0
 59 61  1  0  0  0
 59 62  1  0  0  0
 60131  1  0  0  0
 60132  1  0  0  0
 60133  1  0  0  0
 61134  1  0  0  0
 61135  1  0  0  0
 61136  1  0  0  0
 62137  1  0  0  0
 62138  1  0  0  0
 62139  1  0  0  0
 63 65  1  0  0  0
 63140  1  0  0  0
 63141  1  0  0  0
 63142  1  0  0  0
 64143  1  0  0  0
 65144  1  0  0  0
 68 82  1  0  0  0
 71 72  2  0  0  0
 71 73  1  0  0  0
 71145  1  0  0  0
 72 75  1  0  0  0
 72146  1  0  0  0
 73 76  2  0  0  0
 73147  1  0  0  0
 74 75  2  0  0  0
 74 76  1  0  0  0
 74148  1  0  0  0
 75 77  1  0  0  0
 76 83  1  0  0  0
 77 78  2  0  0  0
 77149  1  0  0  0
 78150  1  0  0  0
 79 80  2  0  0  0
 79 81  1  0  0  0
 79151  1  0  0  0
 80 82  1  0  0  0
 80 85  1  0  0  0
 81 83  1  0  0  0
 81 84  2  0  0  0
 82152  1  0  0  0
 82153  1  0  0  0
 83154  1  0  0  0
 85155  1  0  0  0
M  ISO  4   1 100  68 101  78 100  82 101
M  END
> <chiral flag>
0

> <version>
0

> <s_m_source_file>
/data/baiqing/PycharmProjects/Reinvent-master-3.2/result/LINK_invent/BTK/process_docking_weight1_custom_product_contain_oxygen_bond_distance_aromatic_linkinvent_7_9_3/rearranged_h_0139.sdf

> <i_m_source_file_index>
17

> <r_mmod_Potential_Energy-OPLS-2005>
-10.2578592300415

> <r_mmod_Stretch_Energy-OPLS-2005>
34.0321807861328

> <r_mmod_Bend_Energy-OPLS-2005>
101.929008483887

> <r_mmod_Torsional_Energy-OPLS-2005>
240.59504699707

> <r_mmod_Improper_Torsional_Energy-OPLS-2005>
3.93642687797546

> <r_mmod_Van_der_Waal_Energy-OPLS-2005>
166.652206420898

> <r_mmod_Electrostatic_Energy-OPLS-2005>
-344.485443115234

> <r_mmod_Solvation_Energy-OPLS-2005>
-227.425720214844

> <b_mmod_Minimization_Converged-OPLS-2005>
0

> <r_mmod_RMS_Derivative-OPLS-2005>
1.4425413608551

$$$$
17
                    3D
 Structure written by MMmdl.
162170  0  0  1  0            999 V2000
  -30.6410  -14.6022   20.5468 C   0  0  0  0  0  0
  -30.4432  -12.3785   19.4565 C   0  0  0  0  0  0
  -29.5091  -12.5178   18.2342 C   0  0  0  0  0  0
  -28.0306  -12.3588   18.6410 C   0  0  0  0  0  0
  -27.6613  -13.2163   19.8816 C   0  0  2  0  0  0
  -28.7049  -13.0363   21.0069 C   0  0  0  0  0  0
  -25.2610  -13.8172   20.5757 C   0  0  0  0  0  0
  -24.1862  -13.0460   20.9194 C   0  0  0  0  0  0
  -24.6420  -11.6910   20.8746 C   0  0  0  0  0  0
  -23.9097  -10.4298   21.0394 C   0  0  0  0  0  0
  -24.3641   -9.4212   21.9168 C   0  0  0  0  0  0
  -23.6312   -8.2241   22.0730 C   0  0  0  0  0  0
  -22.4295   -8.0276   21.3537 C   0  0  0  0  0  0
  -21.9946   -9.0252   20.4642 C   0  0  0  0  0  0
  -22.7263  -10.2136   20.3059 C   0  0  0  0  0  0
  -21.6857   -6.0753   22.5299 C   0  0  0  0  0  0
  -21.4003   -6.5651   23.8230 C   0  0  0  0  0  0
  -21.3666   -5.6797   24.9186 C   0  0  0  0  0  0
  -21.6057   -4.3062   24.7244 C   0  0  0  0  0  0
  -21.8819   -3.8166   23.4356 C   0  0  0  0  0  0
  -21.9196   -4.6979   22.3416 C   0  0  0  0  0  0
  -22.7873  -13.5213   21.1870 C   0  0  0  0  0  0
  -22.1655   -4.2188   21.0982 F   0  0  0  0  0  0
  -21.5646   -3.4527   25.7743 F   0  0  0  0  0  0
  -30.0281  -13.3803   20.4586 N   0  0  0  0  0  0
  -26.3049  -12.9358   20.3443 N   0  0  0  0  0  0
  -25.9356  -11.6509   20.5809 N   0  0  0  0  0  0
  -22.0529  -12.8194   22.0413 N   0  0  0  0  0  0
  -25.4367  -15.1909   20.4257 N   0  0  0  0  0  0
  -31.7553  -14.8033   20.0536 O   0  0  0  0  0  0
  -21.6649   -6.8894   21.4259 O   0  0  0  0  0  0
  -22.3545  -14.5525   20.6719 O   0  0  0  0  0  0
  -24.6224  -31.8645   23.2065 C   0  0  0  0  0  0
  -25.9086  -32.4820   23.8378 C   0  0  1  0  0  0
  -27.2467  -27.3728   20.1295 C   0  0  0  0  0  0
  -25.5919  -33.8625   24.2313 N   0  0  0  0  0  0
  -23.4162  -30.4888   21.5452 C   0  0  2  0  0  0
  -24.8695  -28.9557   20.1112 C   0  0  0  0  0  0
  -22.7472  -29.4660   22.4953 C   0  0  0  0  0  0
  -18.0280  -28.1371   22.8480 C   0  0  0  0  0  0
  -24.1484  -36.7324   23.2626 C   0  0  0  0  0  0
  -25.9510  -30.8223   21.3644 C   0  0  0  0  0  0
  -26.0325  -29.4503   20.7135 C   0  0  0  0  0  0
  -27.2245  -28.6742   20.7094 C   0  0  0  0  0  0
  -26.0642  -26.9300   19.4906 C   0  0  0  0  0  0
  -24.8874  -27.7011   19.4857 C   0  0  0  0  0  0
  -23.6302  -29.8231   20.1595 C   0  0  0  0  0  0
  -25.4096  -36.3122   24.0339 C   0  0  1  0  0  0
  -20.5880  -28.3690   23.1268 C   0  0  2  0  0  0
  -20.6764  -26.9411   22.5398 C   0  0  0  0  0  0
  -19.5737  -26.6379   21.5197 C   0  0  0  0  0  0
  -18.1920  -26.7916   22.1602 C   0  0  0  0  0  0
  -19.1529  -28.8844   23.2877 C   0  0  0  0  0  0
  -18.9460  -30.1444   23.8895 C   0  0  0  0  0  0
  -17.6458  -30.6570   24.0561 C   0  0  0  0  0  0
  -25.9047  -34.9489   23.5129 C   0  0  0  0  0  0
  -16.5354  -29.9075   23.6313 C   0  0  0  0  0  0
  -16.7277  -28.6488   23.0351 C   0  0  0  0  0  0
  -26.4471  -31.6621   25.0737 C   0  0  0  0  0  0
  -25.3741  -31.3746   26.1512 C   0  0  0  0  0  0
  -27.0281  -30.3044   24.6153 C   0  0  0  0  0  0
  -27.6071  -32.4329   25.7477 C   0  0  0  0  0  0
  -27.5611  -37.1765   24.8428 C   0  0  0  0  0  0
  -21.4188  -29.3071   22.3696 N   0  0  0  0  0  0
  -26.4266  -37.3832   23.9466 N   0  0  0  0  0  0
  -24.6813  -31.0742   22.0958 N   0  0  0  0  0  0
  -23.4215  -28.8185   23.3008 O   0  0  0  0  0  0
  -28.3734  -26.5457   20.1934 O   0  0  0  0  0  0
  -26.5629  -34.8947   22.4705 O   0  0  0  0  0  0
  -23.5399  -32.1404   23.7431 O   0  0  0  0  0  0
  -29.5713  -19.2988   21.9552 C   0  0  0  0  0  0
  -29.5951  -17.8824   22.0617 C   0  0  0  0  0  0
  -30.2418  -17.7039   19.7448 C   0  0  0  0  0  0
  -29.9028  -19.9566   20.7491 C   0  0  0  0  0  0
  -29.9625  -17.0468   20.9737 C   0  0  0  0  0  0
  -30.2119  -19.1261   19.6354 C   0  0  0  0  0  0
  -27.9222  -22.0831   19.5754 C   0  0  0  0  0  0
  -30.0641  -24.4863   21.8558 C   0  0  0  0  0  0
  -30.2771  -24.3259   19.3452 C   0  0  0  0  0  0
  -30.1209  -21.5033   20.7141 C   0  0  0  0  0  0
  -28.1170  -25.1050   20.3594 C   0  0  0  0  0  0
  -28.9165  -22.5388   20.6575 C   0  0  1  0  0  0
  -29.3331  -24.0997   20.5493 C   0  0  0  0  0  0
  -29.9237  -15.5988   21.1406 N   0  0  0  0  0  0
  -30.5183  -19.6899   18.4410 F   0  0  0  0  0  0
  -31.4833  -12.5078   19.1518 H   0  0  0  0  0  0
  -30.3820  -11.3777   19.8847 H   0  0  0  0  0  0
  -29.7673  -11.7802   17.4753 H   0  0  0  0  0  0
  -29.6608  -13.4961   17.7780 H   0  0  0  0  0  0
  -27.8560  -11.3025   18.8507 H   0  0  0  0  0  0
  -27.3823  -12.6106   17.8019 H   0  0  0  0  0  0
  -27.6906  -14.2597   19.5666 H   0  0  0  0  0  0
  -28.7107  -12.0033   21.3579 H   0  0  0  0  0  0
  -28.4486  -13.6381   21.8787 H   0  0  0  0  0  0
  -25.2774   -9.5680   22.4746 H   0  0  0  0  0  0
  -24.0039   -7.4633   22.7423 H   0  0  0  0  0  0
  -21.0891   -8.8751   19.8936 H   0  0  0  0  0  0
  -22.3702  -10.9669   19.6176 H   0  0  0  0  0  0
  -21.1954   -7.6147   23.9741 H   0  0  0  0  0  0
  -21.1498   -6.0522   25.9096 H   0  0  0  0  0  0
  -22.0590   -2.7628   23.2846 H   0  0  0  0  0  0
  -22.4140  -11.9848   22.4794 H   0  0  0  0  0  0
  -21.1143  -13.1204   22.2622 H   0  0  0  0  0  0
  -24.6905  -15.8578   20.5840 H   0  0  0  0  0  0
  -26.3108  -15.6320   20.1683 H   0  0  0  0  0  0
  -26.7193  -32.5498   23.1171 H   0  0  0  0  0  0
  -25.0074  -33.9772   25.0466 H   0  0  0  0  0  0
  -22.7081  -31.3076   21.4028 H   0  0  0  0  0  0
  -23.3809  -35.9577   23.3114 H   0  0  0  0  0  0
  -24.3621  -36.9123   22.2080 H   0  0  0  0  0  0
  -23.7124  -37.6423   23.6759 H   0  0  0  0  0  0
  -26.0751  -31.5891   20.5985 H   0  0  0  0  0  0
  -26.8321  -30.8721   21.9920 H   0  0  0  0  0  0
  -28.1142  -29.0694   21.1813 H   0  0  0  0  0  0
  -26.0224  -25.9822   18.9804 H   0  0  0  0  0  0
  -24.0050  -27.3193   18.9919 H   0  0  0  0  0  0
  -23.7400  -30.5992   19.4013 H   0  0  0  0  0  0
  -22.7540  -29.2456   19.8602 H   0  0  0  0  0  0
  -25.1255  -36.1956   25.0821 H   0  0  0  0  0  0
  -20.9969  -28.3256   24.1391 H   0  0  0  0  0  0
  -20.5628  -26.2328   23.3610 H   0  0  0  0  0  0
  -21.6645  -26.7414   22.1223 H   0  0  0  0  0  0
  -19.6907  -25.6287   21.1238 H   0  0  0  0  0  0
  -19.6662  -27.3186   20.6720 H   0  0  0  0  0  0
  -17.4201  -26.6683   21.4002 H   0  0  0  0  0  0
  -18.0305  -26.0040   22.8977 H   0  0  0  0  0  0
  -19.7941  -30.7255   24.2269 H   0  0  0  0  0  0
  -17.5015  -31.6244   24.5178 H   0  0  0  0  0  0
  -15.5356  -30.2981   23.7623 H   0  0  0  0  0  0
  -15.8684  -28.0804   22.7069 H   0  0  0  0  0  0
  -24.5875  -30.7137   25.7862 H   0  0  0  0  0  0
  -24.8995  -32.2912   26.5024 H   0  0  0  0  0  0
  -25.8097  -30.8863   27.0241 H   0  0  0  0  0  0
  -26.2805  -29.6800   24.1251 H   0  0  0  0  0  0
  -27.4059  -29.7301   25.4624 H   0  0  0  0  0  0
  -27.8654  -30.4330   23.9296 H   0  0  0  0  0  0
  -27.2738  -33.3656   26.2032 H   0  0  0  0  0  0
  -28.3885  -32.6827   25.0291 H   0  0  0  0  0  0
  -28.0741  -31.8460   26.5400 H   0  0  0  0  0  0
  -28.2511  -38.0182   24.7715 H   0  0  0  0  0  0
  -28.1225  -36.2751   24.5938 H   0  0  0  0  0  0
  -27.2388  -37.1056   25.8827 H   0  0  0  0  0  0
  -20.9369  -29.8849   21.6954 H   0  0  0  0  0  0
  -26.0142  -38.2867   24.1598 H   0  0  0  0  0  0
  -29.3391  -19.8879   22.8297 H   0  0  0  0  0  0
  -29.3470  -17.4472   23.0197 H   0  0  0  0  0  0
  -30.4891  -17.1296   18.8640 H   0  0  0  0  0  0
  -27.6395  -21.0396   19.7148 H   0  0  0  0  0  0
  -28.3506  -22.1803   18.5785 H   0  0  0  0  0  0
  -26.9915  -22.6476   19.6041 H   0  0  0  0  0  0
  -30.2264  -25.5631   21.9395 H   0  0  0  0  0  0
  -31.0416  -24.0103   21.9264 H   0  0  0  0  0  0
  -29.4932  -24.1832   22.7365 H   0  0  0  0  0  0
  -30.6681  -25.3439   19.3376 H   0  0  0  0  0  0
  -29.7539  -24.1713   18.4006 H   0  0  0  0  0  0
  -31.1501  -23.6761   19.3461 H   0  0  0  0  0  0
  -30.7492  -21.6625   19.8405 H   0  0  0  0  0  0
  -30.7499  -21.7404   21.5737 H   0  0  0  0  0  0
  -27.4250  -24.9940   21.1969 H   0  0  0  0  0  0
  -27.5954  -24.7637   19.4700 H   0  0  0  0  0  0
  -28.3714  -22.4339   21.6005 H   0  0  0  0  0  0
  -29.1699  -15.2633   21.7208 H   0  0  0  0  0  0
  1 25  1  0  0  0
  1 30  2  0  0  0
  1 84  1  0  0  0
  2  3  1  0  0  0
  2 25  1  0  0  0
  2 86  1  0  0  0
  2 87  1  0  0  0
  3  4  1  0  0  0
  3 88  1  0  0  0
  3 89  1  0  0  0
  4  5  1  0  0  0
  4 90  1  0  0  0
  4 91  1  0  0  0
  5  6  1  0  0  0
  5 26  1  0  0  0
  5 92  1  0  0  0
  6 25  1  0  0  0
  6 93  1  0  0  0
  6 94  1  0  0  0
  7  8  2  0  0  0
  7 26  1  0  0  0
  7 29  1  0  0  0
  8  9  1  0  0  0
  8 22  1  0  0  0
  9 10  1  0  0  0
  9 27  2  0  0  0
 10 11  2  0  0  0
 10 15  1  0  0  0
 11 12  1  0  0  0
 11 95  1  0  0  0
 12 13  2  0  0  0
 12 96  1  0  0  0
 13 14  1  0  0  0
 13 31  1  0  0  0
 14 15  2  0  0  0
 14 97  1  0  0  0
 15 98  1  0  0  0
 16 17  2  0  0  0
 16 21  1  0  0  0
 16 31  1  0  0  0
 17 18  1  0  0  0
 17 99  1  0  0  0
 18 19  2  0  0  0
 18100  1  0  0  0
 19 20  1  0  0  0
 19 24  1  0  0  0
 20 21  2  0  0  0
 20101  1  0  0  0
 21 23  1  0  0  0
 22 28  1  0  0  0
 22 32  2  0  0  0
 26 27  1  0  0  0
 28102  1  0  0  0
 28103  1  0  0  0
 29104  1  0  0  0
 29105  1  0  0  0
 33 34  1  0  0  0
 33 66  1  0  0  0
 33 70  2  0  0  0
 34 36  1  0  0  0
 34 59  1  0  0  0
 34106  1  0  0  0
 35 44  2  0  0  0
 35 45  1  0  0  0
 35 68  1  0  0  0
 36 56  1  0  0  0
 36107  1  0  0  0
 37 39  1  0  0  0
 37 47  1  0  0  0
 37 66  1  0  0  0
 37108  1  0  0  0
 38 43  2  0  0  0
 38 46  1  0  0  0
 38 47  1  0  0  0
 39 64  1  0  0  0
 39 67  2  0  0  0
 40 52  1  0  0  0
 40 53  2  0  0  0
 40 58  1  0  0  0
 41109  1  0  0  0
 41110  1  0  0  0
 41111  1  0  0  0
 41 48  1  0  0  0
 42 43  1  0  0  0
 42 66  1  0  0  0
 42112  1  0  0  0
 42113  1  0  0  0
 43 44  1  0  0  0
 44114  1  0  0  0
 45 46  2  0  0  0
 45115  1  0  0  0
 46116  1  0  0  0
 47117  1  0  0  0
 47118  1  0  0  0
 48 56  1  0  0  0
 48 65  1  0  0  0
 48119  1  0  0  0
 49 50  1  0  0  0
 49 53  1  0  0  0
 49 64  1  0  0  0
 49120  1  0  0  0
 50 51  1  0  0  0
 50121  1  0  0  0
 50122  1  0  0  0
 51 52  1  0  0  0
 51123  1  0  0  0
 51124  1  0  0  0
 52125  1  0  0  0
 52126  1  0  0  0
 53 54  1  0  0  0
 54 55  2  0  0  0
 54127  1  0  0  0
 55 57  1  0  0  0
 55128  1  0  0  0
 56 69  2  0  0  0
 57 58  2  0  0  0
 57129  1  0  0  0
 58130  1  0  0  0
 59 60  1  0  0  0
 59 61  1  0  0  0
 59 62  1  0  0  0
 60131  1  0  0  0
 60132  1  0  0  0
 60133  1  0  0  0
 61134  1  0  0  0
 61135  1  0  0  0
 61136  1  0  0  0
 62137  1  0  0  0
 62138  1  0  0  0
 62139  1  0  0  0
 63 65  1  0  0  0
 63140  1  0  0  0
 63141  1  0  0  0
 63142  1  0  0  0
 64143  1  0  0  0
 65144  1  0  0  0
 68 81  1  0  0  0
 71 72  2  0  0  0
 71 74  1  0  0  0
 71145  1  0  0  0
 72 75  1  0  0  0
 72146  1  0  0  0
 73 75  2  0  0  0
 73 76  1  0  0  0
 73147  1  0  0  0
 74 76  2  0  0  0
 74 80  1  0  0  0
 75 84  1  0  0  0
 76 85  1  0  0  0
 77148  1  0  0  0
 77149  1  0  0  0
 77150  1  0  0  0
 77 82  1  0  0  0
 78151  1  0  0  0
 78152  1  0  0  0
 78153  1  0  0  0
 78 83  1  0  0  0
 79 83  1  0  0  0
 79154  1  0  0  0
 79155  1  0  0  0
 79156  1  0  0  0
 80 82  1  0  0  0
 80157  1  0  0  0
 80158  1  0  0  0
 81 83  1  0  0  0
 81159  1  0  0  0
 81160  1  0  0  0
 82 83  1  0  0  0
 82161  1  0  0  0
 84162  1  0  0  0
M  ISO  4   1 100  68 101  81 101  84 100
M  END
> <chiral flag>
0

> <version>
0

> <s_m_source_file>
/data/baiqing/PycharmProjects/Reinvent-master-3.2/result/LINK_invent/BTK/process_docking_weight1_custom_product_contain_oxygen_bond_distance_aromatic_linkinvent_7_9_3/rearranged_h_0139.sdf

> <i_m_source_file_index>
18

> <r_mmod_Potential_Energy-OPLS-2005>
92.0154495239258

> <r_mmod_Stretch_Energy-OPLS-2005>
73.9328308105469

> <r_mmod_Bend_Energy-OPLS-2005>
135.044174194336

> <r_mmod_Torsional_Energy-OPLS-2005>
247.723007202148

> <r_mmod_Improper_Torsional_Energy-OPLS-2005>
3.63635754585266

> <r_mmod_Van_der_Waal_Energy-OPLS-2005>
150.926971435547

> <r_mmod_Electrostatic_Energy-OPLS-2005>
-359.092468261719

> <r_mmod_Solvation_Energy-OPLS-2005>
-194.293045043945

> <b_mmod_Minimization_Converged-OPLS-2005>
0

> <r_mmod_RMS_Derivative-OPLS-2005>
4.8156886100769

$$$$
18
                    3D
 Structure written by MMmdl.
166174  0  0  1  0            999 V2000
  -30.5767  -14.7386   20.4804 C   0  0  0  0  0  0
  -30.4381  -12.4546   19.4892 C   0  0  0  0  0  0
  -29.5172  -12.5209   18.2484 C   0  0  0  0  0  0
  -28.0426  -12.3418   18.6543 C   0  0  0  0  0  0
  -27.6479  -13.2293   19.8622 C   0  0  2  0  0  0
  -28.6829  -13.1346   21.0049 C   0  0  0  0  0  0
  -25.2550  -13.8201   20.5706 C   0  0  0  0  0  0
  -24.1834  -13.0447   20.9190 C   0  0  0  0  0  0
  -24.6420  -11.6923   20.8738 C   0  0  0  0  0  0
  -23.9097  -10.4292   21.0416 C   0  0  0  0  0  0
  -24.3632   -9.4200   21.9202 C   0  0  0  0  0  0
  -23.6294   -8.2241   22.0774 C   0  0  0  0  0  0
  -22.4286   -8.0275   21.3557 C   0  0  0  0  0  0
  -21.9922   -9.0263   20.4668 C   0  0  0  0  0  0
  -22.7259  -10.2143   20.3073 C   0  0  0  0  0  0
  -21.6850   -6.0733   22.5277 C   0  0  0  0  0  0
  -21.4013   -6.5637   23.8207 C   0  0  0  0  0  0
  -21.3662   -5.6793   24.9170 C   0  0  0  0  0  0
  -21.6038   -4.3056   24.7220 C   0  0  0  0  0  0
  -21.8819   -3.8145   23.4345 C   0  0  0  0  0  0
  -21.9195   -4.6961   22.3397 C   0  0  0  0  0  0
  -22.7844  -13.5227   21.1810 C   0  0  0  0  0  0
  -22.1662   -4.2135   21.0977 F   0  0  0  0  0  0
  -21.5627   -3.4546   25.7742 F   0  0  0  0  0  0
  -29.9923  -13.4941   20.4471 N   0  0  0  0  0  0
  -26.2969  -12.9392   20.3301 N   0  0  0  0  0  0
  -25.9353  -11.6541   20.5763 N   0  0  0  0  0  0
  -22.0493  -12.8253   22.0389 N   0  0  0  0  0  0
  -25.4271  -15.1923   20.4162 N   0  0  0  0  0  0
  -31.7301  -14.8844   20.0610 O   0  0  0  0  0  0
  -21.6640   -6.8884   21.4245 O   0  0  0  0  0  0
  -22.3537  -14.5520   20.6632 O   0  0  0  0  0  0
  -24.6307  -31.8548   23.2025 C   0  0  0  0  0  0
  -25.9140  -32.4755   23.8358 C   0  0  1  0  0  0
  -27.2159  -27.2795   20.1533 C   0  0  0  0  0  0
  -25.5925  -33.8568   24.2248 N   0  0  0  0  0  0
  -23.4257  -30.4774   21.5469 C   0  0  2  0  0  0
  -24.8711  -28.9174   20.1224 C   0  0  0  0  0  0
  -22.7482  -29.4595   22.4950 C   0  0  0  0  0  0
  -18.0265  -28.1397   22.8473 C   0  0  0  0  0  0
  -24.1481  -36.7294   23.2631 C   0  0  0  0  0  0
  -25.9681  -30.7756   21.3778 C   0  0  0  0  0  0
  -26.0402  -29.3952   20.7301 C   0  0  0  0  0  0
  -27.2185  -28.5913   20.7279 C   0  0  0  0  0  0
  -26.0304  -26.8520   19.5266 C   0  0  0  0  0  0
  -24.8674  -27.6524   19.5110 C   0  0  0  0  0  0
  -23.6446  -29.8092   20.1636 C   0  0  0  0  0  0
  -25.4107  -36.3069   24.0311 C   0  0  1  0  0  0
  -20.5857  -28.3706   23.1279 C   0  0  2  0  0  0
  -20.6764  -26.9429   22.5435 C   0  0  0  0  0  0
  -19.5757  -26.6383   21.5231 C   0  0  0  0  0  0
  -18.1919  -26.7938   22.1619 C   0  0  0  0  0  0
  -19.1514  -28.8868   23.2870 C   0  0  0  0  0  0
  -18.9446  -30.1458   23.8903 C   0  0  0  0  0  0
  -17.6442  -30.6606   24.0563 C   0  0  0  0  0  0
  -25.9050  -34.9441   23.5080 C   0  0  0  0  0  0
  -16.5330  -29.9108   23.6327 C   0  0  0  0  0  0
  -16.7249  -28.6521   23.0361 C   0  0  0  0  0  0
  -26.4507  -31.6586   25.0750 C   0  0  0  0  0  0
  -25.3716  -31.3760   26.1457 C   0  0  0  0  0  0
  -27.0366  -30.2997   24.6241 C   0  0  0  0  0  0
  -27.6031  -32.4344   25.7544 C   0  0  0  0  0  0
  -27.5565  -37.1811   24.8441 C   0  0  0  0  0  0
  -21.4187  -29.3046   22.3677 N   0  0  0  0  0  0
  -26.4277  -37.3767   23.9388 N   0  0  0  0  0  0
  -24.6943  -31.0539   22.0989 N   0  0  0  0  0  0
  -23.4177  -28.8141   23.3050 O   0  0  0  0  0  0
  -28.3391  -26.4396   20.0963 O   0  0  0  0  0  0
  -26.5624  -34.8906   22.4653 O   0  0  0  0  0  0
  -23.5467  -32.1348   23.7345 O   0  0  0  0  0  0
  -29.1473  -19.6651   18.9342 C   0  0  0  0  0  0
  -29.6528  -17.2586   18.8644 C   0  0  0  0  0  0
  -29.3684  -18.3979   20.9928 C   0  0  0  0  0  0
  -29.3731  -18.4788   18.2064 C   0  0  0  0  0  0
  -29.1301  -19.6816   20.3418 C   0  0  0  0  0  0
  -29.6648  -17.1665   20.2760 C   0  0  0  0  0  0
  -30.1512  -18.8616   15.9115 C   0  0  0  0  0  0
  -29.1702  -18.5092   16.7555 C   0  0  0  0  0  0
  -28.7321  -21.0159   21.0302 C   0  0  0  0  0  0
  -27.7783  -18.1496   16.2728 C   0  0  0  0  0  0
  -30.0136  -25.3811   21.2481 C   0  0  0  0  0  0
  -27.7277  -25.3339   22.2386 C   0  0  0  0  0  0
  -29.2436  -22.4555   20.5586 C   0  0  0  0  0  0
  -28.2418  -23.7181   20.3025 C   0  0  0  0  0  0
  -28.5194  -25.2024   20.9216 C   0  0  0  0  0  0
  -28.0069  -20.9849   22.0643 N   0  0  0  0  0  0
  -29.8138  -15.8236   20.8895 N   0  0  0  0  0  0
  -31.4774  -12.5914   19.1899 H   0  0  0  0  0  0
  -30.3909  -11.4712   19.9583 H   0  0  0  0  0  0
  -29.8040  -11.7529   17.5286 H   0  0  0  0  0  0
  -29.6448  -13.4783   17.7410 H   0  0  0  0  0  0
  -27.9017  -11.2921   18.9137 H   0  0  0  0  0  0
  -27.3864  -12.5385   17.8054 H   0  0  0  0  0  0
  -27.6516  -14.2574   19.4977 H   0  0  0  0  0  0
  -28.7136  -12.1286   21.4227 H   0  0  0  0  0  0
  -28.4077  -13.7961   21.8275 H   0  0  0  0  0  0
  -25.2782   -9.5650   22.4780 H   0  0  0  0  0  0
  -23.9983   -7.4630   22.7513 H   0  0  0  0  0  0
  -21.0830   -8.8807   19.8980 H   0  0  0  0  0  0
  -22.3730  -10.9694   19.6176 H   0  0  0  0  0  0
  -21.2012   -7.6148   23.9700 H   0  0  0  0  0  0
  -21.1481   -6.0532   25.9070 H   0  0  0  0  0  0
  -22.0601   -2.7605   23.2853 H   0  0  0  0  0  0
  -22.4099  -11.9909   22.4780 H   0  0  0  0  0  0
  -21.1121  -13.1308   22.2582 H   0  0  0  0  0  0
  -24.6674  -15.8522   20.5364 H   0  0  0  0  0  0
  -26.2832  -15.6313   20.0994 H   0  0  0  0  0  0
  -26.7213  -32.5408   23.1119 H   0  0  0  0  0  0
  -25.0065  -33.9710   25.0387 H   0  0  0  0  0  0
  -22.7228  -31.3005   21.4027 H   0  0  0  0  0  0
  -23.3734  -35.9638   23.3299 H   0  0  0  0  0  0
  -24.3562  -36.8920   22.2046 H   0  0  0  0  0  0
  -23.7276  -37.6507   23.6667 H   0  0  0  0  0  0
  -26.0981  -31.5335   20.6045 H   0  0  0  0  0  0
  -26.8494  -30.8282   22.0059 H   0  0  0  0  0  0
  -28.1239  -28.9593   21.1909 H   0  0  0  0  0  0
  -26.0046  -25.8834   19.0515 H   0  0  0  0  0  0
  -23.9735  -27.2832   19.0296 H   0  0  0  0  0  0
  -23.7769  -30.5857   19.4099 H   0  0  0  0  0  0
  -22.7616  -29.2451   19.8583 H   0  0  0  0  0  0
  -25.1308  -36.1896   25.0807 H   0  0  0  0  0  0
  -20.9926  -28.3313   24.1406 H   0  0  0  0  0  0
  -20.5660  -26.2342   23.3655 H   0  0  0  0  0  0
  -21.6649  -26.7470   22.1247 H   0  0  0  0  0  0
  -19.6946  -25.6289   21.1292 H   0  0  0  0  0  0
  -19.6715  -27.3172   20.6748 H   0  0  0  0  0  0
  -17.4209  -26.6658   21.4015 H   0  0  0  0  0  0
  -18.0320  -26.0083   22.9015 H   0  0  0  0  0  0
  -19.7914  -30.7265   24.2308 H   0  0  0  0  0  0
  -17.5001  -31.6295   24.5165 H   0  0  0  0  0  0
  -15.5336  -30.3036   23.7651 H   0  0  0  0  0  0
  -15.8630  -28.0853   22.7096 H   0  0  0  0  0  0
  -24.5916  -30.7070   25.7799 H   0  0  0  0  0  0
  -24.8884  -32.2946   26.4798 H   0  0  0  0  0  0
  -25.8011  -30.9016   27.0290 H   0  0  0  0  0  0
  -26.2974  -29.6758   24.1193 H   0  0  0  0  0  0
  -27.3968  -29.7237   25.4776 H   0  0  0  0  0  0
  -27.8873  -30.4277   23.9544 H   0  0  0  0  0  0
  -27.2605  -33.3668   26.2058 H   0  0  0  0  0  0
  -28.3888  -32.6870   25.0410 H   0  0  0  0  0  0
  -28.0644  -31.8523   26.5534 H   0  0  0  0  0  0
  -28.2558  -38.0126   24.7477 H   0  0  0  0  0  0
  -28.1086  -36.2653   24.6276 H   0  0  0  0  0  0
  -27.2275  -37.1454   25.8839 H   0  0  0  0  0  0
  -20.9395  -29.8737   21.6834 H   0  0  0  0  0  0
  -26.0142  -38.2831   24.1421 H   0  0  0  0  0  0
  -28.9074  -20.5683   18.3896 H   0  0  0  0  0  0
  -29.7965  -16.3730   18.2603 H   0  0  0  0  0  0
  -29.2982  -18.3644   22.0700 H   0  0  0  0  0  0
  -31.1356  -19.1230   16.2712 H   0  0  0  0  0  0
  -29.9848  -18.8983   14.8446 H   0  0  0  0  0  0
  -27.0444  -18.8044   16.7427 H   0  0  0  0  0  0
  -27.5300  -17.1213   16.5361 H   0  0  0  0  0  0
  -27.6810  -18.2594   15.1918 H   0  0  0  0  0  0
  -30.2051  -26.3903   21.6189 H   0  0  0  0  0  0
  -30.6332  -25.2408   20.3627 H   0  0  0  0  0  0
  -30.3707  -24.7091   22.0256 H   0  0  0  0  0  0
  -27.9286  -24.4890   22.8991 H   0  0  0  0  0  0
  -26.6514  -25.3556   22.0609 H   0  0  0  0  0  0
  -27.9891  -26.2422   22.7819 H   0  0  0  0  0  0
  -29.8357  -22.3203   19.6529 H   0  0  0  0  0  0
  -29.9844  -22.7344   21.3034 H   0  0  0  0  0  0
  -27.2363  -23.4147   20.5984 H   0  0  0  0  0  0
  -28.1604  -23.8286   19.2203 H   0  0  0  0  0  0
  -27.8368  -21.9200   22.4221 H   0  0  0  0  0  0
  -29.0542  -15.5672   21.5070 H   0  0  0  0  0  0
  1 25  1  0  0  0
  1 30  2  0  0  0
  1 87  1  0  0  0
  2  3  1  0  0  0
  2 25  1  0  0  0
  2 88  1  0  0  0
  2 89  1  0  0  0
  3  4  1  0  0  0
  3 90  1  0  0  0
  3 91  1  0  0  0
  4  5  1  0  0  0
  4 92  1  0  0  0
  4 93  1  0  0  0
  5  6  1  0  0  0
  5 26  1  0  0  0
  5 94  1  0  0  0
  6 25  1  0  0  0
  6 95  1  0  0  0
  6 96  1  0  0  0
  7  8  2  0  0  0
  7 26  1  0  0  0
  7 29  1  0  0  0
  8  9  1  0  0  0
  8 22  1  0  0  0
  9 10  1  0  0  0
  9 27  2  0  0  0
 10 11  2  0  0  0
 10 15  1  0  0  0
 11 12  1  0  0  0
 11 97  1  0  0  0
 12 13  2  0  0  0
 12 98  1  0  0  0
 13 14  1  0  0  0
 13 31  1  0  0  0
 14 15  2  0  0  0
 14 99  1  0  0  0
 15100  1  0  0  0
 16 17  2  0  0  0
 16 21  1  0  0  0
 16 31  1  0  0  0
 17 18  1  0  0  0
 17101  1  0  0  0
 18 19  2  0  0  0
 18102  1  0  0  0
 19 20  1  0  0  0
 19 24  1  0  0  0
 20 21  2  0  0  0
 20103  1  0  0  0
 21 23  1  0  0  0
 22 28  1  0  0  0
 22 32  2  0  0  0
 26 27  1  0  0  0
 28104  1  0  0  0
 28105  1  0  0  0
 29106  1  0  0  0
 29107  1  0  0  0
 33 34  1  0  0  0
 33 66  1  0  0  0
 33 70  2  0  0  0
 34 36  1  0  0  0
 34 59  1  0  0  0
 34108  1  0  0  0
 35 44  2  0  0  0
 35 45  1  0  0  0
 35 68  1  0  0  0
 36 56  1  0  0  0
 36109  1  0  0  0
 37 39  1  0  0  0
 37 47  1  0  0  0
 37 66  1  0  0  0
 37110  1  0  0  0
 38 43  2  0  0  0
 38 46  1  0  0  0
 38 47  1  0  0  0
 39 64  1  0  0  0
 39 67  2  0  0  0
 40 52  1  0  0  0
 40 53  2  0  0  0
 40 58  1  0  0  0
 41111  1  0  0  0
 41112  1  0  0  0
 41113  1  0  0  0
 41 48  1  0  0  0
 42 43  1  0  0  0
 42 66  1  0  0  0
 42114  1  0  0  0
 42115  1  0  0  0
 43 44  1  0  0  0
 44116  1  0  0  0
 45 46  2  0  0  0
 45117  1  0  0  0
 46118  1  0  0  0
 47119  1  0  0  0
 47120  1  0  0  0
 48 56  1  0  0  0
 48 65  1  0  0  0
 48121  1  0  0  0
 49 50  1  0  0  0
 49 53  1  0  0  0
 49 64  1  0  0  0
 49122  1  0  0  0
 50 51  1  0  0  0
 50123  1  0  0  0
 50124  1  0  0  0
 51 52  1  0  0  0
 51125  1  0  0  0
 51126  1  0  0  0
 52127  1  0  0  0
 52128  1  0  0  0
 53 54  1  0  0  0
 54 55  2  0  0  0
 54129  1  0  0  0
 55 57  1  0  0  0
 55130  1  0  0  0
 56 69  2  0  0  0
 57 58  2  0  0  0
 57131  1  0  0  0
 58132  1  0  0  0
 59 60  1  0  0  0
 59 61  1  0  0  0
 59 62  1  0  0  0
 60133  1  0  0  0
 60134  1  0  0  0
 60135  1  0  0  0
 61136  1  0  0  0
 61137  1  0  0  0
 61138  1  0  0  0
 62139  1  0  0  0
 62140  1  0  0  0
 62141  1  0  0  0
 63 65  1  0  0  0
 63142  1  0  0  0
 63143  1  0  0  0
 63144  1  0  0  0
 64145  1  0  0  0
 65146  1  0  0  0
 68 85  1  0  0  0
 71 74  2  0  0  0
 71 75  1  0  0  0
 71147  1  0  0  0
 72 74  1  0  0  0
 72 76  2  0  0  0
 72148  1  0  0  0
 73 75  2  0  0  0
 73 76  1  0  0  0
 73149  1  0  0  0
 74 78  1  0  0  0
 75 79  1  0  0  0
 76 87  1  0  0  0
 77 78  2  0  0  0
 77150  1  0  0  0
 77151  1  0  0  0
 78 80  1  0  0  0
 79 83  1  0  0  0
 79 86  2  0  0  0
 80152  1  0  0  0
 80153  1  0  0  0
 80154  1  0  0  0
 81155  1  0  0  0
 81156  1  0  0  0
 81157  1  0  0  0
 81 85  1  0  0  0
 82 85  1  0  0  0
 82158  1  0  0  0
 82159  1  0  0  0
 82160  1  0  0  0
 83 84  1  0  0  0
 83161  1  0  0  0
 83162  1  0  0  0
 84 85  1  0  0  0
 84163  1  0  0  0
 84164  1  0  0  0
 86165  1  0  0  0
 87166  1  0  0  0
M  ISO  4   1 100  68 101  85 101  87 100
M  END
> <chiral flag>
0

> <version>
0

> <s_m_source_file>
/data/baiqing/PycharmProjects/Reinvent-master-3.2/result/LINK_invent/BTK/process_docking_weight1_custom_product_contain_oxygen_bond_distance_aromatic_linkinvent_7_9_3/rearranged_h_0139.sdf

> <i_m_source_file_index>
19

> <r_mmod_Potential_Energy-OPLS-2005>
164.890884399414

> <r_mmod_Stretch_Energy-OPLS-2005>
121.808624267578

> <r_mmod_Bend_Energy-OPLS-2005>
181.602752685547

> <r_mmod_Torsional_Energy-OPLS-2005>
309.709533691406

> <r_mmod_Improper_Torsional_Energy-OPLS-2005>
5.87772274017334

> <r_mmod_Van_der_Waal_Energy-OPLS-2005>
129.436599731445

> <r_mmod_Electrostatic_Energy-OPLS-2005>
-452.982635498047

> <r_mmod_Solvation_Energy-OPLS-2005>
-204.811004638672

> <b_mmod_Minimization_Converged-OPLS-2005>
0

> <r_mmod_RMS_Derivative-OPLS-2005>
3.23190379142761

$$$$
19
                    3D
 Structure written by MMmdl.
159167  0  0  1  0            999 V2000
  -30.6006  -14.6984   20.4559 C   0  0  0  0  0  0
  -30.4348  -12.4248   19.4555 C   0  0  0  0  0  0
  -29.5089  -12.5119   18.2235 C   0  0  0  0  0  0
  -28.0252  -12.3669   18.6257 C   0  0  0  0  0  0
  -27.6487  -13.2288   19.8640 C   0  0  2  0  0  0
  -28.6923  -13.1103   20.9942 C   0  0  0  0  0  0
  -25.2577  -13.8231   20.5705 C   0  0  0  0  0  0
  -24.1846  -13.0487   20.9183 C   0  0  0  0  0  0
  -24.6400  -11.6962   20.8689 C   0  0  0  0  0  0
  -23.9066  -10.4336   21.0344 C   0  0  0  0  0  0
  -24.3639   -9.4263   21.9124 C   0  0  0  0  0  0
  -23.6346   -8.2283   22.0719 C   0  0  0  0  0  0
  -22.4326   -8.0275   21.3511 C   0  0  0  0  0  0
  -21.9951   -9.0241   20.4615 C   0  0  0  0  0  0
  -22.7238  -10.2145   20.3015 C   0  0  0  0  0  0
  -21.6897   -6.0754   22.5265 C   0  0  0  0  0  0
  -21.4024   -6.5651   23.8190 C   0  0  0  0  0  0
  -21.3677   -5.6784   24.9136 C   0  0  0  0  0  0
  -21.6064   -4.3042   24.7214 C   0  0  0  0  0  0
  -21.8831   -3.8152   23.4329 C   0  0  0  0  0  0
  -21.9228   -4.6981   22.3393 C   0  0  0  0  0  0
  -22.7873  -13.5242   21.1845 C   0  0  0  0  0  0
  -22.1667   -4.2176   21.0980 F   0  0  0  0  0  0
  -21.5636   -3.4510   25.7720 F   0  0  0  0  0  0
  -29.9996  -13.4621   20.4208 N   0  0  0  0  0  0
  -26.2983  -12.9415   20.3354 N   0  0  0  0  0  0
  -25.9335  -11.6552   20.5756 N   0  0  0  0  0  0
  -22.0545  -12.8184   22.0401 N   0  0  0  0  0  0
  -25.4343  -15.1953   20.4134 N   0  0  0  0  0  0
  -31.7736  -14.8261   20.0868 O   0  0  0  0  0  0
  -21.6693   -6.8866   21.4206 O   0  0  0  0  0  0
  -22.3559  -14.5536   20.6683 O   0  0  0  0  0  0
  -24.6250  -31.8595   23.2021 C   0  0  0  0  0  0
  -25.9091  -32.4782   23.8356 C   0  0  1  0  0  0
  -27.2143  -27.2905   20.1333 C   0  0  0  0  0  0
  -25.5916  -33.8590   24.2292 N   0  0  0  0  0  0
  -23.4222  -30.4816   21.5455 C   0  0  2  0  0  0
  -24.8690  -28.9392   20.1035 C   0  0  0  0  0  0
  -22.7488  -29.4612   22.4942 C   0  0  0  0  0  0
  -18.0279  -28.1358   22.8473 C   0  0  0  0  0  0
  -24.1484  -36.7300   23.2633 C   0  0  0  0  0  0
  -25.9635  -30.7818   21.3763 C   0  0  0  0  0  0
  -26.0379  -29.4086   20.7155 C   0  0  0  0  0  0
  -27.2160  -28.6002   20.7122 C   0  0  0  0  0  0
  -26.0295  -26.8928   19.4703 C   0  0  0  0  0  0
  -24.8715  -27.6932   19.4597 C   0  0  0  0  0  0
  -23.6377  -29.8222   20.1573 C   0  0  0  0  0  0
  -25.4110  -36.3098   24.0333 C   0  0  1  0  0  0
  -20.5884  -28.3685   23.1274 C   0  0  2  0  0  0
  -20.6777  -26.9414   22.5399 C   0  0  0  0  0  0
  -19.5762  -26.6364   21.5197 C   0  0  0  0  0  0
  -18.1937  -26.7901   22.1602 C   0  0  0  0  0  0
  -19.1528  -28.8841   23.2867 C   0  0  0  0  0  0
  -18.9457  -30.1431   23.8892 C   0  0  0  0  0  0
  -17.6460  -30.6572   24.0556 C   0  0  0  0  0  0
  -25.9048  -34.9463   23.5134 C   0  0  0  0  0  0
  -16.5353  -29.9068   23.6316 C   0  0  0  0  0  0
  -16.7264  -28.6480   23.0347 C   0  0  0  0  0  0
  -26.4472  -31.6566   25.0720 C   0  0  0  0  0  0
  -25.3725  -31.3668   26.1454 C   0  0  0  0  0  0
  -27.0299  -30.2992   24.6138 C   0  0  0  0  0  0
  -27.6030  -32.4305   25.7509 C   0  0  0  0  0  0
  -27.5586  -37.1813   24.8462 C   0  0  0  0  0  0
  -21.4196  -29.3035   22.3677 N   0  0  0  0  0  0
  -26.4282  -37.3807   23.9412 N   0  0  0  0  0  0
  -24.6902  -31.0580   22.0978 N   0  0  0  0  0  0
  -23.4208  -28.8123   23.3003 O   0  0  0  0  0  0
  -28.3017  -26.3941   20.2332 O   0  0  0  0  0  0
  -26.5631  -34.8932   22.4698 O   0  0  0  0  0  0
  -23.5423  -32.1383   23.7344 O   0  0  0  0  0  0
  -30.2799  -18.7140   18.3488 C   0  0  0  0  0  0
  -29.8820  -19.8420   19.0943 C   0  0  0  0  0  0
  -30.2914  -17.4185   18.9123 C   0  0  0  0  0  0
  -29.4850  -18.3696   20.9946 C   0  0  0  0  0  0
  -29.4822  -19.7167   20.4454 C   0  0  0  0  0  0
  -29.8885  -17.1889   20.2513 C   0  0  0  0  0  0
  -29.1546  -21.0012   21.2437 C   0  0  0  0  0  0
  -29.2558  -24.1738   22.2175 C   0  0  0  0  0  0
  -30.3397  -23.8929   19.9543 C   0  0  0  0  0  0
  -28.4387  -22.2872   20.6075 C   0  0  0  0  0  0
  -28.0225  -24.9260   20.1313 C   0  0  0  0  0  0
  -29.0145  -23.8053   20.7347 C   0  0  0  0  0  0
  -29.3868  -21.0224   22.4896 N   0  0  0  0  0  0
  -29.8217  -15.8012   20.7644 N   0  0  0  0  0  0
  -31.4715  -12.5589   19.1390 H   0  0  0  0  0  0
  -30.3840  -11.4317   19.8997 H   0  0  0  0  0  0
  -29.7743  -11.7411   17.4962 H   0  0  0  0  0  0
  -29.6634  -13.4695   17.7256 H   0  0  0  0  0  0
  -27.8400  -11.3137   18.8295 H   0  0  0  0  0  0
  -27.3858  -12.6255   17.7804 H   0  0  0  0  0  0
  -27.6531  -14.2643   19.5305 H   0  0  0  0  0  0
  -28.7180  -12.0970   21.4002 H   0  0  0  0  0  0
  -28.4353  -13.7651   21.8293 H   0  0  0  0  0  0
  -25.2750   -9.5786   22.4711 H   0  0  0  0  0  0
  -24.0074   -7.4708   22.7459 H   0  0  0  0  0  0
  -21.0876   -8.8738   19.8953 H   0  0  0  0  0  0
  -22.3615  -10.9686   19.6161 H   0  0  0  0  0  0
  -21.1976   -7.6138   23.9674 H   0  0  0  0  0  0
  -21.1491   -6.0514   25.9037 H   0  0  0  0  0  0
  -22.0603   -2.7626   23.2814 H   0  0  0  0  0  0
  -22.4159  -11.9811   22.4732 H   0  0  0  0  0  0
  -21.1152  -13.1137   22.2601 H   0  0  0  0  0  0
  -24.6758  -15.8557   20.5339 H   0  0  0  0  0  0
  -26.2840  -15.6287   20.0727 H   0  0  0  0  0  0
  -26.7147  -32.5456   23.1103 H   0  0  0  0  0  0
  -25.0074  -33.9750   25.0449 H   0  0  0  0  0  0
  -22.7154  -31.3025   21.4077 H   0  0  0  0  0  0
  -23.3775  -35.9600   23.3265 H   0  0  0  0  0  0
  -24.3581  -36.8947   22.2049 H   0  0  0  0  0  0
  -23.7188  -37.6476   23.6674 H   0  0  0  0  0  0
  -26.0986  -31.5439   20.6086 H   0  0  0  0  0  0
  -26.8430  -30.8312   22.0057 H   0  0  0  0  0  0
  -28.1131  -28.9558   21.1996 H   0  0  0  0  0  0
  -25.9659  -25.9416   18.9664 H   0  0  0  0  0  0
  -23.9842  -27.3448   18.9488 H   0  0  0  0  0  0
  -23.7563  -30.6059   19.4072 H   0  0  0  0  0  0
  -22.7555  -29.2568   19.8539 H   0  0  0  0  0  0
  -25.1282  -36.1970   25.0832 H   0  0  0  0  0  0
  -20.9962  -28.3237   24.1396 H   0  0  0  0  0  0
  -20.5653  -26.2306   23.3590 H   0  0  0  0  0  0
  -21.6649  -26.7427   22.1202 H   0  0  0  0  0  0
  -19.6944  -25.6273   21.1222 H   0  0  0  0  0  0
  -19.6692  -27.3169   20.6714 H   0  0  0  0  0  0
  -17.4213  -26.6629   21.4002 H   0  0  0  0  0  0
  -18.0352  -26.0022   22.8983 H   0  0  0  0  0  0
  -19.7944  -30.7232   24.2267 H   0  0  0  0  0  0
  -17.5024  -31.6249   24.5150 H   0  0  0  0  0  0
  -15.5358  -30.2981   23.7630 H   0  0  0  0  0  0
  -15.8657  -28.0791   22.7086 H   0  0  0  0  0  0
  -24.5940  -30.6969   25.7785 H   0  0  0  0  0  0
  -24.8879  -32.2811   26.4890 H   0  0  0  0  0  0
  -25.8076  -30.8852   27.0228 H   0  0  0  0  0  0
  -26.2849  -29.6772   24.1160 H   0  0  0  0  0  0
  -27.3998  -29.7196   25.4608 H   0  0  0  0  0  0
  -27.8729  -30.4273   23.9346 H   0  0  0  0  0  0
  -27.2630  -33.3614   26.2063 H   0  0  0  0  0  0
  -28.3864  -32.6839   25.0357 H   0  0  0  0  0  0
  -28.0667  -31.8440   26.5453 H   0  0  0  0  0  0
  -28.2575  -38.0138   24.7566 H   0  0  0  0  0  0
  -28.1112  -36.2685   24.6225 H   0  0  0  0  0  0
  -27.2325  -37.1377   25.8865 H   0  0  0  0  0  0
  -20.9376  -29.8810   21.6931 H   0  0  0  0  0  0
  -26.0177  -38.2877   24.1438 H   0  0  0  0  0  0
  -30.5902  -18.8515   17.3213 H   0  0  0  0  0  0
  -29.9187  -20.8165   18.6212 H   0  0  0  0  0  0
  -30.5989  -16.5915   18.2880 H   0  0  0  0  0  0
  -29.1762  -18.2449   22.0233 H   0  0  0  0  0  0
  -30.0890  -23.6171   22.6472 H   0  0  0  0  0  0
  -28.3749  -23.9596   22.8256 H   0  0  0  0  0  0
  -29.4842  -25.2345   22.3423 H   0  0  0  0  0  0
  -31.0796  -23.1836   20.3264 H   0  0  0  0  0  0
  -30.7785  -24.8881   20.0248 H   0  0  0  0  0  0
  -30.1924  -23.6746   18.8951 H   0  0  0  0  0  0
  -27.4419  -22.3062   21.0522 H   0  0  0  0  0  0
  -28.2397  -22.0719   19.5590 H   0  0  0  0  0  0
  -27.0506  -24.7375   20.5918 H   0  0  0  0  0  0
  -27.8916  -24.7070   19.0704 H   0  0  0  0  0  0
  -29.8178  -20.1663   22.8258 H   0  0  0  0  0  0
  -28.9688  -15.5684   21.2523 H   0  0  0  0  0  0
  1 25  1  0  0  0
  1 30  2  0  0  0
  1 84  1  0  0  0
  2  3  1  0  0  0
  2 25  1  0  0  0
  2 85  1  0  0  0
  2 86  1  0  0  0
  3  4  1  0  0  0
  3 87  1  0  0  0
  3 88  1  0  0  0
  4  5  1  0  0  0
  4 89  1  0  0  0
  4 90  1  0  0  0
  5  6  1  0  0  0
  5 26  1  0  0  0
  5 91  1  0  0  0
  6 25  1  0  0  0
  6 92  1  0  0  0
  6 93  1  0  0  0
  7  8  2  0  0  0
  7 26  1  0  0  0
  7 29  1  0  0  0
  8  9  1  0  0  0
  8 22  1  0  0  0
  9 10  1  0  0  0
  9 27  2  0  0  0
 10 11  2  0  0  0
 10 15  1  0  0  0
 11 12  1  0  0  0
 11 94  1  0  0  0
 12 13  2  0  0  0
 12 95  1  0  0  0
 13 14  1  0  0  0
 13 31  1  0  0  0
 14 15  2  0  0  0
 14 96  1  0  0  0
 15 97  1  0  0  0
 16 17  2  0  0  0
 16 21  1  0  0  0
 16 31  1  0  0  0
 17 18  1  0  0  0
 17 98  1  0  0  0
 18 19  2  0  0  0
 18 99  1  0  0  0
 19 20  1  0  0  0
 19 24  1  0  0  0
 20 21  2  0  0  0
 20100  1  0  0  0
 21 23  1  0  0  0
 22 28  1  0  0  0
 22 32  2  0  0  0
 26 27  1  0  0  0
 28101  1  0  0  0
 28102  1  0  0  0
 29103  1  0  0  0
 29104  1  0  0  0
 33 34  1  0  0  0
 33 66  1  0  0  0
 33 70  2  0  0  0
 34 36  1  0  0  0
 34 59  1  0  0  0
 34105  1  0  0  0
 35 44  2  0  0  0
 35 45  1  0  0  0
 35 68  1  0  0  0
 36 56  1  0  0  0
 36106  1  0  0  0
 37 39  1  0  0  0
 37 47  1  0  0  0
 37 66  1  0  0  0
 37107  1  0  0  0
 38 43  2  0  0  0
 38 46  1  0  0  0
 38 47  1  0  0  0
 39 64  1  0  0  0
 39 67  2  0  0  0
 40 52  1  0  0  0
 40 53  2  0  0  0
 40 58  1  0  0  0
 41108  1  0  0  0
 41109  1  0  0  0
 41110  1  0  0  0
 41 48  1  0  0  0
 42 43  1  0  0  0
 42 66  1  0  0  0
 42111  1  0  0  0
 42112  1  0  0  0
 43 44  1  0  0  0
 44113  1  0  0  0
 45 46  2  0  0  0
 45114  1  0  0  0
 46115  1  0  0  0
 47116  1  0  0  0
 47117  1  0  0  0
 48 56  1  0  0  0
 48 65  1  0  0  0
 48118  1  0  0  0
 49 50  1  0  0  0
 49 53  1  0  0  0
 49 64  1  0  0  0
 49119  1  0  0  0
 50 51  1  0  0  0
 50120  1  0  0  0
 50121  1  0  0  0
 51 52  1  0  0  0
 51122  1  0  0  0
 51123  1  0  0  0
 52124  1  0  0  0
 52125  1  0  0  0
 53 54  1  0  0  0
 54 55  2  0  0  0
 54126  1  0  0  0
 55 57  1  0  0  0
 55127  1  0  0  0
 56 69  2  0  0  0
 57 58  2  0  0  0
 57128  1  0  0  0
 58129  1  0  0  0
 59 60  1  0  0  0
 59 61  1  0  0  0
 59 62  1  0  0  0
 60130  1  0  0  0
 60131  1  0  0  0
 60132  1  0  0  0
 61133  1  0  0  0
 61134  1  0  0  0
 61135  1  0  0  0
 62136  1  0  0  0
 62137  1  0  0  0
 62138  1  0  0  0
 63 65  1  0  0  0
 63139  1  0  0  0
 63140  1  0  0  0
 63141  1  0  0  0
 64142  1  0  0  0
 65143  1  0  0  0
 68 81  1  0  0  0
 71 72  2  0  0  0
 71 73  1  0  0  0
 71144  1  0  0  0
 72 75  1  0  0  0
 72145  1  0  0  0
 73 76  2  0  0  0
 73146  1  0  0  0
 74 75  2  0  0  0
 74 76  1  0  0  0
 74147  1  0  0  0
 75 77  1  0  0  0
 76 84  1  0  0  0
 77 80  1  0  0  0
 77 83  2  0  0  0
 78148  1  0  0  0
 78149  1  0  0  0
 78150  1  0  0  0
 78 82  1  0  0  0
 79 82  1  0  0  0
 79151  1  0  0  0
 79152  1  0  0  0
 79153  1  0  0  0
 80 82  1  0  0  0
 80154  1  0  0  0
 80155  1  0  0  0
 81 82  1  0  0  0
 81156  1  0  0  0
 81157  1  0  0  0
 83158  1  0  0  0
 84159  1  0  0  0
M  ISO  4   1 100  68 101  81 101  84 100
M  END
> <chiral flag>
0

> <version>
0

> <s_m_source_file>
/data/baiqing/PycharmProjects/Reinvent-master-3.2/result/LINK_invent/BTK/process_docking_weight1_custom_product_contain_oxygen_bond_distance_aromatic_linkinvent_7_9_3/rearranged_h_0139.sdf

> <i_m_source_file_index>
20

> <r_mmod_Potential_Energy-OPLS-2005>
152.289108276367

> <r_mmod_Stretch_Energy-OPLS-2005>
116.821876525879

> <r_mmod_Bend_Energy-OPLS-2005>
152.68489074707

> <r_mmod_Torsional_Energy-OPLS-2005>
241.491943359375

> <r_mmod_Improper_Torsional_Energy-OPLS-2005>
4.87789154052734

> <r_mmod_Van_der_Waal_Energy-OPLS-2005>
140.485458374023

> <r_mmod_Electrostatic_Energy-OPLS-2005>
-359.860595703125

> <r_mmod_Solvation_Energy-OPLS-2005>
-213.909362792969

> <b_mmod_Minimization_Converged-OPLS-2005>
0

> <r_mmod_RMS_Derivative-OPLS-2005>
5.45195055007935

$$$$
20
                    3D
 Structure written by MMmdl.
179188  0  0  1  0            999 V2000
  -30.8006  -14.3165   20.7244 C   0  0  0  0  0  0
  -30.4123  -12.2849   19.3813 C   0  0  0  0  0  0
  -29.4760  -12.5292   18.1855 C   0  0  0  0  0  0
  -28.0037  -12.3791   18.6069 C   0  0  0  0  0  0
  -27.6659  -13.2008   19.8775 C   0  0  2  0  0  0
  -28.7029  -12.9388   20.9923 C   0  0  0  0  0  0
  -25.2597  -13.8161   20.5662 C   0  0  0  0  0  0
  -24.1834  -13.0443   20.9158 C   0  0  0  0  0  0
  -24.6382  -11.6911   20.8719 C   0  0  0  0  0  0
  -23.9052  -10.4298   21.0396 C   0  0  0  0  0  0
  -24.3607   -9.4213   21.9175 C   0  0  0  0  0  0
  -23.6286   -8.2245   22.0753 C   0  0  0  0  0  0
  -22.4268   -8.0278   21.3539 C   0  0  0  0  0  0
  -21.9898   -9.0251   20.4644 C   0  0  0  0  0  0
  -22.7225  -10.2136   20.3050 C   0  0  0  0  0  0
  -21.6847   -6.0728   22.5280 C   0  0  0  0  0  0
  -21.4014   -6.5637   23.8212 C   0  0  0  0  0  0
  -21.3658   -5.6789   24.9176 C   0  0  0  0  0  0
  -21.6046   -4.3051   24.7223 C   0  0  0  0  0  0
  -21.8818   -3.8148   23.4345 C   0  0  0  0  0  0
  -21.9192   -4.6960   22.3403 C   0  0  0  0  0  0
  -22.7858  -13.5244   21.1835 C   0  0  0  0  0  0
  -22.1657   -4.2146   21.0975 F   0  0  0  0  0  0
  -21.5633   -3.4540   25.7737 F   0  0  0  0  0  0
  -30.0506  -13.2180   20.4579 N   0  0  0  0  0  0
  -26.3033  -12.9322   20.3370 N   0  0  0  0  0  0
  -25.9306  -11.6488   20.5750 N   0  0  0  0  0  0
  -22.0504  -12.8230   22.0394 N   0  0  0  0  0  0
  -25.4335  -15.1875   20.4076 N   0  0  0  0  0  0
  -31.7718  -14.6519   20.0374 O   0  0  0  0  0  0
  -21.6634   -6.8871   21.4239 O   0  0  0  0  0  0
  -22.3541  -14.5547   20.6686 O   0  0  0  0  0  0
  -24.6090  -31.8715   23.2126 C   0  0  0  0  0  0
  -25.8999  -32.4832   23.8416 C   0  0  1  0  0  0
  -27.2378  -27.4749   20.1041 C   0  0  0  0  0  0
  -25.5865  -33.8634   24.2328 N   0  0  0  0  0  0
  -23.3969  -30.4918   21.5531 C   0  0  2  0  0  0
  -24.8423  -28.9553   20.1214 C   0  0  0  0  0  0
  -22.7390  -29.4673   22.5036 C   0  0  0  0  0  0
  -18.0250  -28.1386   22.8504 C   0  0  0  0  0  0
  -24.1491  -36.7347   23.2643 C   0  0  0  0  0  0
  -25.9179  -30.8505   21.3560 C   0  0  0  0  0  0
  -25.9964  -29.4845   20.7125 C   0  0  0  0  0  0
  -27.1988  -28.7538   20.6965 C   0  0  0  0  0  0
  -26.0757  -26.9472   19.5083 C   0  0  0  0  0  0
  -24.8737  -27.6834   19.5185 C   0  0  0  0  0  0
  -23.6025  -29.8180   20.1693 C   0  0  0  0  0  0
  -25.4102  -36.3125   24.0342 C   0  0  1  0  0  0
  -20.5838  -28.3671   23.1354 C   0  0  2  0  0  0
  -20.6747  -26.9417   22.5435 C   0  0  0  0  0  0
  -19.5732  -26.6409   21.5223 C   0  0  0  0  0  0
  -18.1899  -26.7938   22.1626 C   0  0  0  0  0  0
  -19.1502  -28.8838   23.2921 C   0  0  0  0  0  0
  -18.9437  -30.1441   23.8938 C   0  0  0  0  0  0
  -17.6447  -30.6598   24.0569 C   0  0  0  0  0  0
  -25.9030  -34.9481   23.5141 C   0  0  0  0  0  0
  -16.5332  -29.9110   23.6329 C   0  0  0  0  0  0
  -16.7244  -28.6519   23.0360 C   0  0  0  0  0  0
  -26.4440  -31.6586   25.0717 C   0  0  0  0  0  0
  -25.3708  -31.3649   26.1458 C   0  0  0  0  0  0
  -27.0257  -30.3037   24.6038 C   0  0  0  0  0  0
  -27.6048  -32.4284   25.7455 C   0  0  0  0  0  0
  -27.5582  -37.1805   24.8453 C   0  0  0  0  0  0
  -21.4122  -29.3035   22.3770 N   0  0  0  0  0  0
  -26.4287  -37.3805   23.9416 N   0  0  0  0  0  0
  -24.6599  -31.0863   22.0995 N   0  0  0  0  0  0
  -23.4169  -28.8235   23.3080 O   0  0  0  0  0  0
  -28.4231  -26.7944   20.0151 O   0  0  0  0  0  0
  -26.5623  -34.8923   22.4717 O   0  0  0  0  0  0
  -23.5293  -32.1456   23.7554 O   0  0  0  0  0  0
  -31.2720  -22.3261   21.3138 C   0  0  0  0  0  0
  -30.2850  -23.1788   20.7940 C   0  0  0  0  0  0
  -31.1403  -21.8144   22.6153 C   0  0  0  0  0  0
  -29.0163  -22.9819   22.8695 C   0  0  0  0  0  0
  -32.4381  -18.1668   23.7838 C   0  0  0  0  0  0
  -32.5513  -16.0599   22.5688 C   0  0  0  0  0  0
  -30.3843  -17.0585   23.0755 C   0  0  0  0  0  0
  -29.1723  -23.5358   21.5806 C   0  0  0  0  0  0
  -29.9938  -22.1081   23.3993 C   0  0  0  0  0  0
  -33.2049  -17.1312   23.2089 C   0  0  0  0  0  0
  -31.0237  -18.1357   23.7213 C   0  0  0  0  0  0
  -31.1404  -16.0277   22.4821 C   0  0  0  0  0  0
  -30.5466  -20.2010   25.0139 C   0  0  0  0  0  0
  -30.1505  -22.5861   25.8865 C   0  0  0  0  0  0
  -35.2921  -17.3336   24.6471 C   0  0  0  0  0  0
  -35.2456  -18.2914   22.2950 C   0  0  0  0  0  0
  -28.6777  -26.6438   22.5097 C   0  0  0  0  0  0
  -28.1995  -24.5785   21.0548 C   0  0  0  0  0  0
  -29.7955  -21.5371   24.8141 C   0  0  1  0  0  0
  -34.7275  -17.1852   23.2257 C   0  0  0  0  0  0
  -28.8274  -25.9861   21.1230 C   0  0  1  0  0  0
  -30.2142  -19.2134   24.1672 N   0  0  0  0  0  0
  -30.4488  -14.9673   21.8430 N   0  0  0  0  0  0
  -31.3822  -20.0692   25.9139 O   0  0  0  0  0  0
  -31.4539  -12.3885   19.0712 H   0  0  0  0  0  0
  -30.3141  -11.2590   19.7394 H   0  0  0  0  0  0
  -29.7065  -11.8317   17.3785 H   0  0  0  0  0  0
  -29.6437  -13.5293   17.7842 H   0  0  0  0  0  0
  -27.8134  -11.3207   18.7885 H   0  0  0  0  0  0
  -27.3472  -12.6692   17.7858 H   0  0  0  0  0  0
  -27.7260  -14.2552   19.6064 H   0  0  0  0  0  0
  -28.6571  -11.8963   21.3114 H   0  0  0  0  0  0
  -28.4445  -13.5233   21.8759 H   0  0  0  0  0  0
  -25.2753   -9.5687   22.4749 H   0  0  0  0  0  0
  -23.9996   -7.4636   22.7474 H   0  0  0  0  0  0
  -21.0830   -8.8765   19.8950 H   0  0  0  0  0  0
  -22.3678  -10.9668   19.6160 H   0  0  0  0  0  0
  -21.2007   -7.6145   23.9715 H   0  0  0  0  0  0
  -21.1483   -6.0520   25.9075 H   0  0  0  0  0  0
  -22.0599   -2.7610   23.2847 H   0  0  0  0  0  0
  -22.4117  -11.9891   22.4777 H   0  0  0  0  0  0
  -21.1127  -13.1256   22.2616 H   0  0  0  0  0  0
  -24.6728  -15.8491   20.5191 H   0  0  0  0  0  0
  -26.2963  -15.6246   20.1061 H   0  0  0  0  0  0
  -26.7084  -32.5563   23.1206 H   0  0  0  0  0  0
  -24.9935  -33.9814   25.0412 H   0  0  0  0  0  0
  -22.6838  -31.3057   21.4124 H   0  0  0  0  0  0
  -23.3737  -35.9695   23.3299 H   0  0  0  0  0  0
  -24.3589  -36.8974   22.2056 H   0  0  0  0  0  0
  -23.7270  -37.6560   23.6667 H   0  0  0  0  0  0
  -26.0126  -31.6097   20.5787 H   0  0  0  0  0  0
  -26.8140  -30.9167   21.9623 H   0  0  0  0  0  0
  -28.0994  -29.1719   21.1245 H   0  0  0  0  0  0
  -26.1093  -25.9799   19.0248 H   0  0  0  0  0  0
  -23.9881  -27.2711   19.0528 H   0  0  0  0  0  0
  -23.7054  -30.5888   19.4049 H   0  0  0  0  0  0
  -22.7278  -29.2324   19.8809 H   0  0  0  0  0  0
  -25.1266  -36.2004   25.0837 H   0  0  0  0  0  0
  -20.9895  -28.3226   24.1492 H   0  0  0  0  0  0
  -20.5671  -26.2276   23.3612 H   0  0  0  0  0  0
  -21.6626  -26.7492   22.1221 H   0  0  0  0  0  0
  -19.6914  -25.6329   21.1233 H   0  0  0  0  0  0
  -19.6682  -27.3242   20.6767 H   0  0  0  0  0  0
  -17.4178  -26.6689   21.4017 H   0  0  0  0  0  0
  -18.0292  -26.0076   22.9016 H   0  0  0  0  0  0
  -19.7908  -30.7231   24.2353 H   0  0  0  0  0  0
  -17.5003  -31.6281   24.5165 H   0  0  0  0  0  0
  -15.5335  -30.3020   23.7655 H   0  0  0  0  0  0
  -15.8634  -28.0845   22.7091 H   0  0  0  0  0  0
  -24.5948  -30.6927   25.7782 H   0  0  0  0  0  0
  -24.8798  -32.2755   26.4890 H   0  0  0  0  0  0
  -25.8054  -30.8845   27.0228 H   0  0  0  0  0  0
  -26.2777  -29.6813   24.1107 H   0  0  0  0  0  0
  -27.4062  -29.7251   25.4465 H   0  0  0  0  0  0
  -27.8592  -30.4376   23.9140 H   0  0  0  0  0  0
  -27.2741  -33.3610   26.2034 H   0  0  0  0  0  0
  -28.3843  -32.6794   25.0251 H   0  0  0  0  0  0
  -28.0726  -31.8385   26.5344 H   0  0  0  0  0  0
  -28.2572  -38.0121   24.7524 H   0  0  0  0  0  0
  -28.1091  -36.2654   24.6237 H   0  0  0  0  0  0
  -27.2300  -37.1416   25.8849 H   0  0  0  0  0  0
  -20.9310  -29.8705   21.6933 H   0  0  0  0  0  0
  -26.0178  -38.2883   24.1412 H   0  0  0  0  0  0
  -32.1410  -22.0784   20.7202 H   0  0  0  0  0  0
  -30.4070  -23.5927   19.8019 H   0  0  0  0  0  0
  -31.9344  -21.1833   22.9871 H   0  0  0  0  0  0
  -28.1560  -23.2558   23.4655 H   0  0  0  0  0  0
  -32.9526  -19.0019   24.2365 H   0  0  0  0  0  0
  -33.1446  -15.2693   22.1312 H   0  0  0  0  0  0
  -29.3057  -17.0394   23.0058 H   0  0  0  0  0  0
  -29.5137  -23.4669   25.7995 H   0  0  0  0  0  0
  -31.1858  -22.9132   25.7884 H   0  0  0  0  0  0
  -30.0189  -22.1886   26.8942 H   0  0  0  0  0  0
  -34.9340  -16.5344   25.2968 H   0  0  0  0  0  0
  -35.0112  -18.2843   25.1004 H   0  0  0  0  0  0
  -36.3816  -17.2848   24.6403 H   0  0  0  0  0  0
  -34.8827  -18.1465   21.2766 H   0  0  0  0  0  0
  -36.3352  -18.2970   22.2557 H   0  0  0  0  0  0
  -34.9199  -19.2783   22.6247 H   0  0  0  0  0  0
  -29.1298  -26.0206   23.2813 H   0  0  0  0  0  0
  -27.6323  -26.7901   22.7841 H   0  0  0  0  0  0
  -29.1795  -27.6098   22.5465 H   0  0  0  0  0  0
  -27.2531  -24.5444   21.5960 H   0  0  0  0  0  0
  -27.9645  -24.3234   20.0215 H   0  0  0  0  0  0
  -28.7348  -21.3060   24.9240 H   0  0  0  0  0  0
  -35.1004  -16.2360   22.8365 H   0  0  0  0  0  0
  -29.8984  -25.8817   20.9442 H   0  0  0  0  0  0
  -29.3701  -19.3733   23.6340 H   0  0  0  0  0  0
  -29.5786  -14.6728   22.2604 H   0  0  0  0  0  0
  1 25  1  0  0  0
  1 30  2  0  0  0
  1 93  1  0  0  0
  2  3  1  0  0  0
  2 25  1  0  0  0
  2 95  1  0  0  0
  2 96  1  0  0  0
  3  4  1  0  0  0
  3 97  1  0  0  0
  3 98  1  0  0  0
  4  5  1  0  0  0
  4 99  1  0  0  0
  4100  1  0  0  0
  5  6  1  0  0  0
  5 26  1  0  0  0
  5101  1  0  0  0
  6 25  1  0  0  0
  6102  1  0  0  0
  6103  1  0  0  0
  7  8  2  0  0  0
  7 26  1  0  0  0
  7 29  1  0  0  0
  8  9  1  0  0  0
  8 22  1  0  0  0
  9 10  1  0  0  0
  9 27  2  0  0  0
 10 11  2  0  0  0
 10 15  1  0  0  0
 11 12  1  0  0  0
 11104  1  0  0  0
 12 13  2  0  0  0
 12105  1  0  0  0
 13 14  1  0  0  0
 13 31  1  0  0  0
 14 15  2  0  0  0
 14106  1  0  0  0
 15107  1  0  0  0
 16 17  2  0  0  0
 16 21  1  0  0  0
 16 31  1  0  0  0
 17 18  1  0  0  0
 17108  1  0  0  0
 18 19  2  0  0  0
 18109  1  0  0  0
 19 20  1  0  0  0
 19 24  1  0  0  0
 20 21  2  0  0  0
 20110  1  0  0  0
 21 23  1  0  0  0
 22 28  1  0  0  0
 22 32  2  0  0  0
 26 27  1  0  0  0
 28111  1  0  0  0
 28112  1  0  0  0
 29113  1  0  0  0
 29114  1  0  0  0
 33 34  1  0  0  0
 33 66  1  0  0  0
 33 70  2  0  0  0
 34 36  1  0  0  0
 34 59  1  0  0  0
 34115  1  0  0  0
 35 44  2  0  0  0
 35 45  1  0  0  0
 35 68  1  0  0  0
 36 56  1  0  0  0
 36116  1  0  0  0
 37 39  1  0  0  0
 37 47  1  0  0  0
 37 66  1  0  0  0
 37117  1  0  0  0
 38 43  2  0  0  0
 38 46  1  0  0  0
 38 47  1  0  0  0
 39 64  1  0  0  0
 39 67  2  0  0  0
 40 52  1  0  0  0
 40 53  2  0  0  0
 40 58  1  0  0  0
 41118  1  0  0  0
 41119  1  0  0  0
 41120  1  0  0  0
 41 48  1  0  0  0
 42 43  1  0  0  0
 42 66  1  0  0  0
 42121  1  0  0  0
 42122  1  0  0  0
 43 44  1  0  0  0
 44123  1  0  0  0
 45 46  2  0  0  0
 45124  1  0  0  0
 46125  1  0  0  0
 47126  1  0  0  0
 47127  1  0  0  0
 48 56  1  0  0  0
 48 65  1  0  0  0
 48128  1  0  0  0
 49 50  1  0  0  0
 49 53  1  0  0  0
 49 64  1  0  0  0
 49129  1  0  0  0
 50 51  1  0  0  0
 50130  1  0  0  0
 50131  1  0  0  0
 51 52  1  0  0  0
 51132  1  0  0  0
 51133  1  0  0  0
 52134  1  0  0  0
 52135  1  0  0  0
 53 54  1  0  0  0
 54 55  2  0  0  0
 54136  1  0  0  0
 55 57  1  0  0  0
 55137  1  0  0  0
 56 69  2  0  0  0
 57 58  2  0  0  0
 57138  1  0  0  0
 58139  1  0  0  0
 59 60  1  0  0  0
 59 61  1  0  0  0
 59 62  1  0  0  0
 60140  1  0  0  0
 60141  1  0  0  0
 60142  1  0  0  0
 61143  1  0  0  0
 61144  1  0  0  0
 61145  1  0  0  0
 62146  1  0  0  0
 62147  1  0  0  0
 62148  1  0  0  0
 63 65  1  0  0  0
 63149  1  0  0  0
 63150  1  0  0  0
 63151  1  0  0  0
 64152  1  0  0  0
 65153  1  0  0  0
 68 91  1  0  0  0
 71 72  2  0  0  0
 71 73  1  0  0  0
 71154  1  0  0  0
 72 78  1  0  0  0
 72155  1  0  0  0
 73 79  2  0  0  0
 73156  1  0  0  0
 74 78  2  0  0  0
 74 79  1  0  0  0
 74157  1  0  0  0
 75 80  2  0  0  0
 75 81  1  0  0  0
 75158  1  0  0  0
 76 80  1  0  0  0
 76 82  2  0  0  0
 76159  1  0  0  0
 77 81  2  0  0  0
 77 82  1  0  0  0
 77160  1  0  0  0
 78 88  1  0  0  0
 79 89  1  0  0  0
 80 90  1  0  0  0
 81 92  1  0  0  0
 82 93  1  0  0  0
 83 89  1  0  0  0
 83 92  1  0  0  0
 83 94  2  0  0  0
 84161  1  0  0  0
 84162  1  0  0  0
 84163  1  0  0  0
 84 89  1  0  0  0
 85164  1  0  0  0
 85165  1  0  0  0
 85166  1  0  0  0
 85 90  1  0  0  0
 86 90  1  0  0  0
 86167  1  0  0  0
 86168  1  0  0  0
 86169  1  0  0  0
 87170  1  0  0  0
 87171  1  0  0  0
 87172  1  0  0  0
 87 91  1  0  0  0
 88 91  1  0  0  0
 88173  1  0  0  0
 88174  1  0  0  0
 89175  1  0  0  0
 90176  1  0  0  0
 91177  1  0  0  0
 92178  1  0  0  0
 93179  1  0  0  0
M  ISO  4   1 100  68 101  91 101  93 100
M  END
> <chiral flag>
0

> <version>
0

> <s_m_source_file>
/data/baiqing/PycharmProjects/Reinvent-master-3.2/result/LINK_invent/BTK/process_docking_weight1_custom_product_contain_oxygen_bond_distance_aromatic_linkinvent_7_9_3/rearranged_h_0139.sdf

> <i_m_source_file_index>
21

> <r_mmod_Potential_Energy-OPLS-2005>
-11.1723880767822

> <r_mmod_Stretch_Energy-OPLS-2005>
35.5106544494629

> <r_mmod_Bend_Energy-OPLS-2005>
103.350921630859

> <r_mmod_Torsional_Energy-OPLS-2005>
269.536346435547

> <r_mmod_Improper_Torsional_Energy-OPLS-2005>
3.4081699848175

> <r_mmod_Van_der_Waal_Energy-OPLS-2005>
179.334030151367

> <r_mmod_Electrostatic_Energy-OPLS-2005>
-391.775360107422

> <r_mmod_Solvation_Energy-OPLS-2005>
-217.329055786133

> <b_mmod_Minimization_Converged-OPLS-2005>
0

> <r_mmod_RMS_Derivative-OPLS-2005>
1.90137493610382

$$$$
21
                    3D
 Structure written by MMmdl.
169177  0  0  1  0            999 V2000
  -30.6368  -14.5476   20.5799 C   0  0  0  0  0  0
  -30.4510  -12.3603   19.4104 C   0  0  0  0  0  0
  -29.5020  -12.5249   18.2017 C   0  0  0  0  0  0
  -28.0251  -12.3665   18.6197 C   0  0  0  0  0  0
  -27.6688  -13.1998   19.8786 C   0  0  2  0  0  0
  -28.7153  -12.9560   20.9884 C   0  0  0  0  0  0
  -25.2638  -13.8132   20.5708 C   0  0  0  0  0  0
  -24.1871  -13.0422   20.9179 C   0  0  0  0  0  0
  -24.6409  -11.6885   20.8728 C   0  0  0  0  0  0
  -23.9063  -10.4287   21.0402 C   0  0  0  0  0  0
  -24.3611   -9.4204   21.9188 C   0  0  0  0  0  0
  -23.6289   -8.2238   22.0754 C   0  0  0  0  0  0
  -22.4271   -8.0278   21.3538 C   0  0  0  0  0  0
  -21.9903   -9.0250   20.4641 C   0  0  0  0  0  0
  -22.7230  -10.2130   20.3053 C   0  0  0  0  0  0
  -21.6845   -6.0742   22.5282 C   0  0  0  0  0  0
  -21.4010   -6.5644   23.8221 C   0  0  0  0  0  0
  -21.3659   -5.6795   24.9182 C   0  0  0  0  0  0
  -21.6039   -4.3060   24.7227 C   0  0  0  0  0  0
  -21.8818   -3.8153   23.4348 C   0  0  0  0  0  0
  -21.9197   -4.6972   22.3403 C   0  0  0  0  0  0
  -22.7899  -13.5230   21.1841 C   0  0  0  0  0  0
  -22.1665   -4.2163   21.0982 F   0  0  0  0  0  0
  -21.5629   -3.4536   25.7737 F   0  0  0  0  0  0
  -30.0419  -13.3225   20.4480 N   0  0  0  0  0  0
  -26.3069  -12.9290   20.3390 N   0  0  0  0  0  0
  -25.9342  -11.6454   20.5767 N   0  0  0  0  0  0
  -22.0521  -12.8231   22.0387 N   0  0  0  0  0  0
  -25.4391  -15.1851   20.4147 N   0  0  0  0  0  0
  -31.7250  -14.8248   20.0647 O   0  0  0  0  0  0
  -21.6628   -6.8878   21.4243 O   0  0  0  0  0  0
  -22.3585  -14.5545   20.6705 O   0  0  0  0  0  0
  -24.6219  -31.8626   23.2042 C   0  0  0  0  0  0
  -25.9081  -32.4793   23.8356 C   0  0  1  0  0  0
  -27.2444  -27.3810   20.0763 C   0  0  0  0  0  0
  -25.5917  -33.8587   24.2290 N   0  0  0  0  0  0
  -23.4122  -30.4873   21.5464 C   0  0  2  0  0  0
  -24.8589  -28.9457   20.1183 C   0  0  0  0  0  0
  -22.7448  -29.4634   22.4944 C   0  0  0  0  0  0
  -18.0288  -28.1383   22.8483 C   0  0  0  0  0  0
  -24.1476  -36.7283   23.2647 C   0  0  0  0  0  0
  -25.9491  -30.8124   21.3625 C   0  0  0  0  0  0
  -26.0267  -29.4431   20.7071 C   0  0  0  0  0  0
  -27.2223  -28.6720   20.6770 C   0  0  0  0  0  0
  -26.0411  -26.9124   19.4931 C   0  0  0  0  0  0
  -24.8626  -27.6804   19.5116 C   0  0  0  0  0  0
  -23.6251  -29.8210   20.1634 C   0  0  0  0  0  0
  -25.4103  -36.3090   24.0344 C   0  0  1  0  0  0
  -20.5879  -28.3673   23.1291 C   0  0  2  0  0  0
  -20.6765  -26.9403   22.5393 C   0  0  0  0  0  0
  -19.5746  -26.6392   21.5181 C   0  0  0  0  0  0
  -18.1930  -26.7920   22.1601 C   0  0  0  0  0  0
  -19.1545  -28.8838   23.2881 C   0  0  0  0  0  0
  -18.9467  -30.1433   23.8913 C   0  0  0  0  0  0
  -17.6473  -30.6588   24.0568 C   0  0  0  0  0  0
  -25.9041  -34.9464   23.5115 C   0  0  0  0  0  0
  -16.5361  -29.9097   23.6332 C   0  0  0  0  0  0
  -16.7281  -28.6512   23.0357 C   0  0  0  0  0  0
  -26.4487  -31.6599   25.0700 C   0  0  0  0  0  0
  -25.3754  -31.3701   26.1440 C   0  0  0  0  0  0
  -27.0310  -30.3054   24.6067 C   0  0  0  0  0  0
  -27.6064  -32.4315   25.7456 C   0  0  0  0  0  0
  -27.5575  -37.1782   24.8483 C   0  0  0  0  0  0
  -21.4170  -29.3043   22.3694 N   0  0  0  0  0  0
  -26.4287  -37.3780   23.9435 N   0  0  0  0  0  0
  -24.6809  -31.0681   22.0972 N   0  0  0  0  0  0
  -23.4185  -28.8158   23.2994 O   0  0  0  0  0  0
  -28.4104  -26.6088   20.0660 O   0  0  0  0  0  0
  -26.5599  -34.8928   22.4673 O   0  0  0  0  0  0
  -23.5397  -32.1414   23.7410 O   0  0  0  0  0  0
  -29.2773  -19.6036   21.9248 C   0  0  0  0  0  0
  -30.1393  -17.8424   20.4782 C   0  0  0  0  0  0
  -28.9664  -18.6556   22.9147 C   0  0  0  0  0  0
  -29.2642  -17.2834   22.7036 C   0  0  0  0  0  0
  -29.8659  -19.2330   20.7018 C   0  0  0  0  0  0
  -29.8373  -16.8565   21.4734 C   0  0  0  0  0  0
  -29.2618  -22.7374   19.7756 C   0  0  0  0  0  0
  -28.9571  -16.2385   23.7769 C   0  0  0  0  0  0
  -26.7442  -18.8646   24.1093 C   0  0  0  0  0  0
  -30.6027  -24.6756   18.8335 C   0  0  0  0  0  0
  -30.1823  -24.5482   21.3186 C   0  0  0  0  0  0
  -28.2495  -19.1603   24.1611 C   0  0  0  0  0  0
  -30.3642  -21.6672   20.0953 C   0  0  0  0  0  0
  -28.2949  -25.1817   19.7575 C   0  0  0  0  0  0
  -29.5811  -24.2802   19.9237 C   0  0  0  0  0  0
  -29.9016  -15.4201   21.3054 N   0  0  0  0  0  0
  -30.1042  -20.2402   19.7296 N   0  0  0  0  0  0
  -28.1490  -22.3625   19.3941 O   0  0  0  0  0  0
  -31.4871  -12.5083   19.0987 H   0  0  0  0  0  0
  -30.4004  -11.3426   19.8023 H   0  0  0  0  0  0
  -29.7494  -11.7987   17.4269 H   0  0  0  0  0  0
  -29.6475  -13.5080   17.7532 H   0  0  0  0  0  0
  -27.8483  -11.3086   18.8193 H   0  0  0  0  0  0
  -27.3671  -12.6335   17.7914 H   0  0  0  0  0  0
  -27.7157  -14.2509   19.5928 H   0  0  0  0  0  0
  -28.7168  -11.9029   21.2736 H   0  0  0  0  0  0
  -28.4520  -13.4899   21.9005 H   0  0  0  0  0  0
  -25.2755   -9.5681   22.4767 H   0  0  0  0  0  0
  -24.0004   -7.4622   22.7467 H   0  0  0  0  0  0
  -21.0841   -8.8752   19.8945 H   0  0  0  0  0  0
  -22.3679  -10.9670   19.6162 H   0  0  0  0  0  0
  -21.1988   -7.6147   23.9726 H   0  0  0  0  0  0
  -21.1487   -6.0522   25.9083 H   0  0  0  0  0  0
  -22.0598   -2.7615   23.2840 H   0  0  0  0  0  0
  -22.4119  -11.9884   22.4785 H   0  0  0  0  0  0
  -21.1128  -13.1274   22.2574 H   0  0  0  0  0  0
  -24.6774  -15.8449   20.5293 H   0  0  0  0  0  0
  -26.3007  -15.6237   20.1143 H   0  0  0  0  0  0
  -26.7127  -32.5489   23.1094 H   0  0  0  0  0  0
  -25.0099  -33.9715   25.0456 H   0  0  0  0  0  0
  -22.7063  -31.3075   21.4030 H   0  0  0  0  0  0
  -23.3744  -35.9603   23.3328 H   0  0  0  0  0  0
  -24.3570  -36.8875   22.2058 H   0  0  0  0  0  0
  -23.7205  -37.6487   23.6643 H   0  0  0  0  0  0
  -26.0625  -31.5789   20.5950 H   0  0  0  0  0  0
  -26.8386  -30.8715   21.9771 H   0  0  0  0  0  0
  -28.1268  -29.0612   21.1231 H   0  0  0  0  0  0
  -25.9819  -25.9505   19.0080 H   0  0  0  0  0  0
  -23.9627  -27.2895   19.0562 H   0  0  0  0  0  0
  -23.7412  -30.5979   19.4058 H   0  0  0  0  0  0
  -22.7463  -29.2472   19.8637 H   0  0  0  0  0  0
  -25.1265  -36.1952   25.0834 H   0  0  0  0  0  0
  -20.9980  -28.3246   24.1407 H   0  0  0  0  0  0
  -20.5630  -26.2290   23.3581 H   0  0  0  0  0  0
  -21.6641  -26.7399   22.1211 H   0  0  0  0  0  0
  -19.6885  -25.6308   21.1204 H   0  0  0  0  0  0
  -19.6683  -27.3206   20.6715 H   0  0  0  0  0  0
  -17.4180  -26.6670   21.4023 H   0  0  0  0  0  0
  -18.0346  -26.0046   22.8987 H   0  0  0  0  0  0
  -19.7953  -30.7233   24.2304 H   0  0  0  0  0  0
  -17.5047  -31.6271   24.5158 H   0  0  0  0  0  0
  -15.5373  -30.3014   23.7644 H   0  0  0  0  0  0
  -15.8668  -28.0837   22.7071 H   0  0  0  0  0  0
  -24.5957  -30.7003   25.7807 H   0  0  0  0  0  0
  -24.8886  -32.2838   26.4871 H   0  0  0  0  0  0
  -25.8104  -30.8916   27.0228 H   0  0  0  0  0  0
  -26.2849  -29.6805   24.1150 H   0  0  0  0  0  0
  -27.4159  -29.7278   25.4486 H   0  0  0  0  0  0
  -27.8647  -30.4392   23.9161 H   0  0  0  0  0  0
  -27.2721  -33.3644   26.2012 H   0  0  0  0  0  0
  -28.3890  -32.6839   25.0286 H   0  0  0  0  0  0
  -28.0718  -31.8452   26.5389 H   0  0  0  0  0  0
  -28.2606  -38.0072   24.7544 H   0  0  0  0  0  0
  -28.1045  -36.2599   24.6288 H   0  0  0  0  0  0
  -27.2290  -37.1439   25.8887 H   0  0  0  0  0  0
  -20.9334  -29.8812   21.6961 H   0  0  0  0  0  0
  -26.0168  -38.2845   24.1476 H   0  0  0  0  0  0
  -29.0077  -20.6348   22.1061 H   0  0  0  0  0  0
  -30.5471  -17.5247   19.5277 H   0  0  0  0  0  0
  -28.5838  -16.6483   24.7106 H   0  0  0  0  0  0
  -29.8628  -15.6834   24.0255 H   0  0  0  0  0  0
  -28.2078  -15.5327   23.4211 H   0  0  0  0  0  0
  -26.2424  -19.2314   25.0051 H   0  0  0  0  0  0
  -26.5427  -17.7958   24.0320 H   0  0  0  0  0  0
  -26.2868  -19.3502   23.2469 H   0  0  0  0  0  0
  -31.5660  -24.1852   18.9726 H   0  0  0  0  0  0
  -30.7862  -25.7498   18.8326 H   0  0  0  0  0  0
  -30.2444  -24.4134   17.8357 H   0  0  0  0  0  0
  -31.1274  -24.0259   21.4697 H   0  0  0  0  0  0
  -29.4995  -24.2351   22.1092 H   0  0  0  0  0  0
  -30.3843  -25.6095   21.4634 H   0  0  0  0  0  0
  -28.3852  -20.2402   24.2467 H   0  0  0  0  0  0
  -28.7054  -18.7519   25.0625 H   0  0  0  0  0  0
  -30.6165  -21.7426   21.1521 H   0  0  0  0  0  0
  -31.2683  -21.9694   19.5655 H   0  0  0  0  0  0
  -27.5056  -24.7681   20.3882 H   0  0  0  0  0  0
  -27.9597  -25.0828   18.7242 H   0  0  0  0  0  0
  -29.1772  -14.9347   21.8093 H   0  0  0  0  0  0
  -30.3905  -19.9556   18.7966 H   0  0  0  0  0  0
  1 25  1  0  0  0
  1 30  2  0  0  0
  1 86  1  0  0  0
  2  3  1  0  0  0
  2 25  1  0  0  0
  2 89  1  0  0  0
  2 90  1  0  0  0
  3  4  1  0  0  0
  3 91  1  0  0  0
  3 92  1  0  0  0
  4  5  1  0  0  0
  4 93  1  0  0  0
  4 94  1  0  0  0
  5  6  1  0  0  0
  5 26  1  0  0  0
  5 95  1  0  0  0
  6 25  1  0  0  0
  6 96  1  0  0  0
  6 97  1  0  0  0
  7  8  2  0  0  0
  7 26  1  0  0  0
  7 29  1  0  0  0
  8  9  1  0  0  0
  8 22  1  0  0  0
  9 10  1  0  0  0
  9 27  2  0  0  0
 10 11  2  0  0  0
 10 15  1  0  0  0
 11 12  1  0  0  0
 11 98  1  0  0  0
 12 13  2  0  0  0
 12 99  1  0  0  0
 13 14  1  0  0  0
 13 31  1  0  0  0
 14 15  2  0  0  0
 14100  1  0  0  0
 15101  1  0  0  0
 16 17  2  0  0  0
 16 21  1  0  0  0
 16 31  1  0  0  0
 17 18  1  0  0  0
 17102  1  0  0  0
 18 19  2  0  0  0
 18103  1  0  0  0
 19 20  1  0  0  0
 19 24  1  0  0  0
 20 21  2  0  0  0
 20104  1  0  0  0
 21 23  1  0  0  0
 22 28  1  0  0  0
 22 32  2  0  0  0
 26 27  1  0  0  0
 28105  1  0  0  0
 28106  1  0  0  0
 29107  1  0  0  0
 29108  1  0  0  0
 33 34  1  0  0  0
 33 66  1  0  0  0
 33 70  2  0  0  0
 34 36  1  0  0  0
 34 59  1  0  0  0
 34109  1  0  0  0
 35 44  2  0  0  0
 35 45  1  0  0  0
 35 68  1  0  0  0
 36 56  1  0  0  0
 36110  1  0  0  0
 37 39  1  0  0  0
 37 47  1  0  0  0
 37 66  1  0  0  0
 37111  1  0  0  0
 38 43  2  0  0  0
 38 46  1  0  0  0
 38 47  1  0  0  0
 39 64  1  0  0  0
 39 67  2  0  0  0
 40 52  1  0  0  0
 40 53  2  0  0  0
 40 58  1  0  0  0
 41112  1  0  0  0
 41113  1  0  0  0
 41114  1  0  0  0
 41 48  1  0  0  0
 42 43  1  0  0  0
 42 66  1  0  0  0
 42115  1  0  0  0
 42116  1  0  0  0
 43 44  1  0  0  0
 44117  1  0  0  0
 45 46  2  0  0  0
 45118  1  0  0  0
 46119  1  0  0  0
 47120  1  0  0  0
 47121  1  0  0  0
 48 56  1  0  0  0
 48 65  1  0  0  0
 48122  1  0  0  0
 49 50  1  0  0  0
 49 53  1  0  0  0
 49 64  1  0  0  0
 49123  1  0  0  0
 50 51  1  0  0  0
 50124  1  0  0  0
 50125  1  0  0  0
 51 52  1  0  0  0
 51126  1  0  0  0
 51127  1  0  0  0
 52128  1  0  0  0
 52129  1  0  0  0
 53 54  1  0  0  0
 54 55  2  0  0  0
 54130  1  0  0  0
 55 57  1  0  0  0
 55131  1  0  0  0
 56 69  2  0  0  0
 57 58  2  0  0  0
 57132  1  0  0  0
 58133  1  0  0  0
 59 60  1  0  0  0
 59 61  1  0  0  0
 59 62  1  0  0  0
 60134  1  0  0  0
 60135  1  0  0  0
 60136  1  0  0  0
 61137  1  0  0  0
 61138  1  0  0  0
 61139  1  0  0  0
 62140  1  0  0  0
 62141  1  0  0  0
 62142  1  0  0  0
 63 65  1  0  0  0
 63143  1  0  0  0
 63144  1  0  0  0
 63145  1  0  0  0
 64146  1  0  0  0
 65147  1  0  0  0
 68 84  1  0  0  0
 71 73  2  0  0  0
 71 75  1  0  0  0
 71148  1  0  0  0
 72 75  2  0  0  0
 72 76  1  0  0  0
 72149  1  0  0  0
 73 74  1  0  0  0
 73 82  1  0  0  0
 74 76  2  0  0  0
 74 78  1  0  0  0
 75 87  1  0  0  0
 76 86  1  0  0  0
 77 83  1  0  0  0
 77 85  1  0  0  0
 77 88  2  0  0  0
 78150  1  0  0  0
 78151  1  0  0  0
 78152  1  0  0  0
 79 82  1  0  0  0
 79153  1  0  0  0
 79154  1  0  0  0
 79155  1  0  0  0
 80156  1  0  0  0
 80157  1  0  0  0
 80158  1  0  0  0
 80 85  1  0  0  0
 81 85  1  0  0  0
 81159  1  0  0  0
 81160  1  0  0  0
 81161  1  0  0  0
 82162  1  0  0  0
 82163  1  0  0  0
 83 87  1  0  0  0
 83164  1  0  0  0
 83165  1  0  0  0
 84 85  1  0  0  0
 84166  1  0  0  0
 84167  1  0  0  0
 86168  1  0  0  0
 87169  1  0  0  0
M  ISO  4   1 100  68 101  84 101  86 100
M  END
> <chiral flag>
0

> <version>
0

> <s_m_source_file>
/data/baiqing/PycharmProjects/Reinvent-master-3.2/result/LINK_invent/BTK/process_docking_weight1_custom_product_contain_oxygen_bond_distance_aromatic_linkinvent_7_9_3/rearranged_h_0139.sdf

> <i_m_source_file_index>
22

> <r_mmod_Potential_Energy-OPLS-2005>
57.9703903198242

> <r_mmod_Stretch_Energy-OPLS-2005>
66.5267028808594

> <r_mmod_Bend_Energy-OPLS-2005>
148.254455566406

> <r_mmod_Torsional_Energy-OPLS-2005>
223.111785888672

> <r_mmod_Improper_Torsional_Energy-OPLS-2005>
3.90770602226257

> <r_mmod_Van_der_Waal_Energy-OPLS-2005>
158.214569091797

> <r_mmod_Electrostatic_Energy-OPLS-2005>
-338.896514892578

> <r_mmod_Solvation_Energy-OPLS-2005>
-227.241027832031

> <b_mmod_Minimization_Converged-OPLS-2005>
0

> <r_mmod_RMS_Derivative-OPLS-2005>
2.79204964637756

$$$$
22
                    3D
 Structure written by MMmdl.
165173  0  0  1  0            999 V2000
  -30.5518  -14.7484   20.4629 C   0  0  0  0  0  0
  -30.4494  -12.4579   19.4619 C   0  0  0  0  0  0
  -29.5149  -12.5064   18.2309 C   0  0  0  0  0  0
  -28.0405  -12.3221   18.6459 C   0  0  0  0  0  0
  -27.6433  -13.2153   19.8514 C   0  0  2  0  0  0
  -28.6875  -13.1209   20.9842 C   0  0  0  0  0  0
  -25.2528  -13.8150   20.5705 C   0  0  0  0  0  0
  -24.1818  -13.0429   20.9236 C   0  0  0  0  0  0
  -24.6387  -11.6891   20.8748 C   0  0  0  0  0  0
  -23.9060  -10.4287   21.0408 C   0  0  0  0  0  0
  -24.3610   -9.4201   21.9180 C   0  0  0  0  0  0
  -23.6294   -8.2241   22.0751 C   0  0  0  0  0  0
  -22.4271   -8.0281   21.3552 C   0  0  0  0  0  0
  -21.9910   -9.0249   20.4646 C   0  0  0  0  0  0
  -22.7234  -10.2127   20.3060 C   0  0  0  0  0  0
  -21.6860   -6.0742   22.5284 C   0  0  0  0  0  0
  -21.4003   -6.5647   23.8215 C   0  0  0  0  0  0
  -21.3661   -5.6801   24.9179 C   0  0  0  0  0  0
  -21.6053   -4.3067   24.7234 C   0  0  0  0  0  0
  -21.8821   -3.8157   23.4356 C   0  0  0  0  0  0
  -21.9188   -4.6969   22.3406 C   0  0  0  0  0  0
  -22.7837  -13.5192   21.1918 C   0  0  0  0  0  0
  -22.1660   -4.2160   21.0982 F   0  0  0  0  0  0
  -21.5634   -3.4547   25.7743 F   0  0  0  0  0  0
  -29.9853  -13.4959   20.4080 N   0  0  0  0  0  0
  -26.2943  -12.9328   20.3273 N   0  0  0  0  0  0
  -25.9302  -11.6483   20.5723 N   0  0  0  0  0  0
  -22.0487  -12.8169   22.0452 N   0  0  0  0  0  0
  -25.4205  -15.1883   20.4077 N   0  0  0  0  0  0
  -31.7459  -14.9000   20.1771 O   0  0  0  0  0  0
  -21.6635   -6.8883   21.4244 O   0  0  0  0  0  0
  -22.3527  -14.5522   20.6792 O   0  0  0  0  0  0
  -24.6359  -31.8568   23.2010 C   0  0  0  0  0  0
  -25.9195  -32.4728   23.8348 C   0  0  1  0  0  0
  -27.2232  -27.2777   20.1234 C   0  0  0  0  0  0
  -25.5989  -33.8535   24.2283 N   0  0  0  0  0  0
  -23.4316  -30.4838   21.5422 C   0  0  2  0  0  0
  -24.8738  -28.9242   20.1214 C   0  0  0  0  0  0
  -22.7512  -29.4661   22.4910 C   0  0  0  0  0  0
  -18.0297  -28.1381   22.8489 C   0  0  0  0  0  0
  -24.1509  -36.7278   23.2646 C   0  0  0  0  0  0
  -25.9787  -30.7737   21.3799 C   0  0  0  0  0  0
  -26.0476  -29.3977   20.7209 C   0  0  0  0  0  0
  -27.2276  -28.5906   20.7024 C   0  0  0  0  0  0
  -26.0315  -26.8702   19.4941 C   0  0  0  0  0  0
  -24.8680  -27.6652   19.5006 C   0  0  0  0  0  0
  -23.6519  -29.8202   20.1589 C   0  0  0  0  0  0
  -25.4117  -36.3039   24.0340 C   0  0  1  0  0  0
  -20.5905  -28.3717   23.1241 C   0  0  2  0  0  0
  -20.6780  -26.9419   22.5401 C   0  0  0  0  0  0
  -19.5743  -26.6380   21.5215 C   0  0  0  0  0  0
  -18.1925  -26.7924   22.1627 C   0  0  0  0  0  0
  -19.1553  -28.8855   23.2867 C   0  0  0  0  0  0
  -18.9479  -30.1445   23.8895 C   0  0  0  0  0  0
  -17.6482  -30.6572   24.0564 C   0  0  0  0  0  0
  -25.9057  -34.9416   23.5099 C   0  0  0  0  0  0
  -16.5370  -29.9076   23.6326 C   0  0  0  0  0  0
  -16.7288  -28.6493   23.0350 C   0  0  0  0  0  0
  -26.4539  -31.6529   25.0735 C   0  0  0  0  0  0
  -25.3775  -31.3679   26.1472 C   0  0  0  0  0  0
  -27.0420  -30.2944   24.6245 C   0  0  0  0  0  0
  -27.6075  -32.4299   25.7482 C   0  0  0  0  0  0
  -27.5575  -37.1779   24.8465 C   0  0  0  0  0  0
  -21.4222  -29.3079   22.3628 N   0  0  0  0  0  0
  -26.4280  -37.3743   23.9411 N   0  0  0  0  0  0
  -24.7010  -31.0559   22.0973 N   0  0  0  0  0  0
  -23.4202  -28.8221   23.3035 O   0  0  0  0  0  0
  -28.3513  -26.4366   20.0738 O   0  0  0  0  0  0
  -26.5598  -34.8891   22.4651 O   0  0  0  0  0  0
  -23.5512  -32.1422   23.7297 O   0  0  0  0  0  0
  -28.8296  -18.1263   20.1424 C   0  0  0  0  0  0
  -30.6335  -19.2474   20.6621 C   0  0  0  0  0  0
  -29.3840  -19.4827   20.1256 C   0  0  0  0  0  0
  -29.8002  -17.2032   20.5284 C   0  0  0  0  0  0
  -29.8618  -19.7881   17.2462 C   0  0  0  0  0  0
  -27.3756  -20.5379   18.9881 C   0  0  0  0  0  0
  -28.2904  -24.0343   18.3074 C   0  0  0  0  0  0
  -26.5212  -23.4262   20.0232 C   0  0  0  0  0  0
  -29.7137  -21.0128   18.1691 C   0  0  0  0  0  0
  -28.8446  -22.2853   20.2339 C   0  0  0  0  0  0
  -28.3718  -25.0349   20.6224 C   0  0  0  0  0  0
  -28.8224  -20.8341   19.4378 C   0  0  2  0  0  0
  -28.0364  -23.6725   19.7889 C   0  0  0  0  0  0
  -29.6662  -15.8088   20.6019 N   0  0  0  0  0  0
  -30.9116  -17.9037   20.8795 O   0  0  0  0  0  0
  -31.4841  -12.6241   19.1538 H   0  0  0  0  0  0
  -30.4265  -11.4738   19.9333 H   0  0  0  0  0  0
  -29.7978  -11.7372   17.5104 H   0  0  0  0  0  0
  -29.6349  -13.4628   17.7183 H   0  0  0  0  0  0
  -27.9013  -11.2715   18.9041 H   0  0  0  0  0  0
  -27.3840  -12.5146   17.7968 H   0  0  0  0  0  0
  -27.6388  -14.2386   19.4753 H   0  0  0  0  0  0
  -28.7277  -12.1107   21.3945 H   0  0  0  0  0  0
  -28.4222  -13.7752   21.8162 H   0  0  0  0  0  0
  -25.2756   -9.5687   22.4744 H   0  0  0  0  0  0
  -24.0018   -7.4630   22.7455 H   0  0  0  0  0  0
  -21.0859   -8.8753   19.8930 H   0  0  0  0  0  0
  -22.3693  -10.9664   19.6170 H   0  0  0  0  0  0
  -21.1975   -7.6152   23.9723 H   0  0  0  0  0  0
  -21.1489   -6.0527   25.9080 H   0  0  0  0  0  0
  -22.0593   -2.7619   23.2847 H   0  0  0  0  0  0
  -22.4106  -11.9798   22.4791 H   0  0  0  0  0  0
  -21.1097  -13.1175   22.2676 H   0  0  0  0  0  0
  -24.6471  -15.8331   20.5273 H   0  0  0  0  0  0
  -26.2378  -15.6254   20.0059 H   0  0  0  0  0  0
  -26.7274  -32.5365   23.1088 H   0  0  0  0  0  0
  -25.0150  -33.9666   25.0439 H   0  0  0  0  0  0
  -22.7336  -31.3100   21.3927 H   0  0  0  0  0  0
  -23.3757  -35.9624   23.3287 H   0  0  0  0  0  0
  -24.3626  -36.8933   22.2069 H   0  0  0  0  0  0
  -23.7286  -37.6484   23.6686 H   0  0  0  0  0  0
  -26.1320  -31.5408   20.6198 H   0  0  0  0  0  0
  -26.8531  -30.8086   22.0195 H   0  0  0  0  0  0
  -28.1371  -28.9680   21.1457 H   0  0  0  0  0  0
  -25.9968  -25.9319   18.9639 H   0  0  0  0  0  0
  -23.9719  -27.2999   19.0180 H   0  0  0  0  0  0
  -23.7918  -30.6027   19.4102 H   0  0  0  0  0  0
  -22.7697  -29.2644   19.8399 H   0  0  0  0  0  0
  -25.1293  -36.1871   25.0832 H   0  0  0  0  0  0
  -21.0004  -28.3283   24.1362 H   0  0  0  0  0  0
  -20.5665  -26.2333   23.3625 H   0  0  0  0  0  0
  -21.6647  -26.7408   22.1201 H   0  0  0  0  0  0
  -19.6906  -25.6297   21.1232 H   0  0  0  0  0  0
  -19.6662  -27.3201   20.6752 H   0  0  0  0  0  0
  -17.4199  -26.6706   21.4019 H   0  0  0  0  0  0
  -18.0289  -26.0047   22.8998 H   0  0  0  0  0  0
  -19.7951  -30.7257   24.2272 H   0  0  0  0  0  0
  -17.5029  -31.6249   24.5164 H   0  0  0  0  0  0
  -15.5367  -30.2980   23.7628 H   0  0  0  0  0  0
  -15.8694  -28.0807   22.7062 H   0  0  0  0  0  0
  -24.5929  -30.7036   25.7826 H   0  0  0  0  0  0
  -24.8988  -32.2848   26.4916 H   0  0  0  0  0  0
  -25.8127  -30.8849   27.0232 H   0  0  0  0  0  0
  -26.3035  -29.6611   24.1314 H   0  0  0  0  0  0
  -27.4162  -29.7260   25.4770 H   0  0  0  0  0  0
  -27.8874  -30.4224   23.9485 H   0  0  0  0  0  0
  -27.2663  -33.3614   26.2006 H   0  0  0  0  0  0
  -28.3871  -32.6840   25.0288 H   0  0  0  0  0  0
  -28.0747  -31.8467   26.5426 H   0  0  0  0  0  0
  -28.2546  -38.0109   24.7496 H   0  0  0  0  0  0
  -28.1105  -36.2625   24.6283 H   0  0  0  0  0  0
  -27.2296  -37.1432   25.8871 H   0  0  0  0  0  0
  -20.9412  -29.8830   21.6854 H   0  0  0  0  0  0
  -26.0151  -38.2815   24.1397 H   0  0  0  0  0  0
  -27.8427  -17.8446   19.8035 H   0  0  0  0  0  0
  -31.4743  -19.8984   20.8520 H   0  0  0  0  0  0
  -30.4202  -20.0572   16.3500 H   0  0  0  0  0  0
  -28.8957  -19.4102   16.9165 H   0  0  0  0  0  0
  -30.3992  -18.9717   17.7284 H   0  0  0  0  0  0
  -27.2926  -19.5969   18.4492 H   0  0  0  0  0  0
  -26.9975  -21.2902   18.3009 H   0  0  0  0  0  0
  -26.6967  -20.4730   19.8373 H   0  0  0  0  0  0
  -27.7950  -23.3514   17.6188 H   0  0  0  0  0  0
  -29.3554  -24.0408   18.0720 H   0  0  0  0  0  0
  -27.9131  -25.0260   18.0586 H   0  0  0  0  0  0
  -26.0092  -23.0116   19.1561 H   0  0  0  0  0  0
  -25.9830  -24.3321   20.2864 H   0  0  0  0  0  0
  -26.3466  -22.7567   20.8659 H   0  0  0  0  0  0
  -29.3614  -21.8264   17.5448 H   0  0  0  0  0  0
  -30.7178  -21.3036   18.4834 H   0  0  0  0  0  0
  -29.8935  -22.5636   20.3363 H   0  0  0  0  0  0
  -28.5343  -22.0802   21.2575 H   0  0  0  0  0  0
  -29.3938  -24.9161   20.9826 H   0  0  0  0  0  0
  -27.7886  -25.0456   21.5436 H   0  0  0  0  0  0
  -28.7148  -15.4877   20.6850 H   0  0  0  0  0  0
  1 25  1  0  0  0
  1 30  2  0  0  0
  1 84  1  0  0  0
  2  3  1  0  0  0
  2 25  1  0  0  0
  2 86  1  0  0  0
  2 87  1  0  0  0
  3  4  1  0  0  0
  3 88  1  0  0  0
  3 89  1  0  0  0
  4  5  1  0  0  0
  4 90  1  0  0  0
  4 91  1  0  0  0
  5  6  1  0  0  0
  5 26  1  0  0  0
  5 92  1  0  0  0
  6 25  1  0  0  0
  6 93  1  0  0  0
  6 94  1  0  0  0
  7  8  2  0  0  0
  7 26  1  0  0  0
  7 29  1  0  0  0
  8  9  1  0  0  0
  8 22  1  0  0  0
  9 10  1  0  0  0
  9 27  2  0  0  0
 10 11  2  0  0  0
 10 15  1  0  0  0
 11 12  1  0  0  0
 11 95  1  0  0  0
 12 13  2  0  0  0
 12 96  1  0  0  0
 13 14  1  0  0  0
 13 31  1  0  0  0
 14 15  2  0  0  0
 14 97  1  0  0  0
 15 98  1  0  0  0
 16 17  2  0  0  0
 16 21  1  0  0  0
 16 31  1  0  0  0
 17 18  1  0  0  0
 17 99  1  0  0  0
 18 19  2  0  0  0
 18100  1  0  0  0
 19 20  1  0  0  0
 19 24  1  0  0  0
 20 21  2  0  0  0
 20101  1  0  0  0
 21 23  1  0  0  0
 22 28  1  0  0  0
 22 32  2  0  0  0
 26 27  1  0  0  0
 28102  1  0  0  0
 28103  1  0  0  0
 29104  1  0  0  0
 29105  1  0  0  0
 33 34  1  0  0  0
 33 66  1  0  0  0
 33 70  2  0  0  0
 34 36  1  0  0  0
 34 59  1  0  0  0
 34106  1  0  0  0
 35 44  2  0  0  0
 35 45  1  0  0  0
 35 68  1  0  0  0
 36 56  1  0  0  0
 36107  1  0  0  0
 37 39  1  0  0  0
 37 47  1  0  0  0
 37 66  1  0  0  0
 37108  1  0  0  0
 38 43  2  0  0  0
 38 46  1  0  0  0
 38 47  1  0  0  0
 39 64  1  0  0  0
 39 67  2  0  0  0
 40 52  1  0  0  0
 40 53  2  0  0  0
 40 58  1  0  0  0
 41109  1  0  0  0
 41110  1  0  0  0
 41111  1  0  0  0
 41 48  1  0  0  0
 42 43  1  0  0  0
 42 66  1  0  0  0
 42112  1  0  0  0
 42113  1  0  0  0
 43 44  1  0  0  0
 44114  1  0  0  0
 45 46  2  0  0  0
 45115  1  0  0  0
 46116  1  0  0  0
 47117  1  0  0  0
 47118  1  0  0  0
 48 56  1  0  0  0
 48 65  1  0  0  0
 48119  1  0  0  0
 49 50  1  0  0  0
 49 53  1  0  0  0
 49 64  1  0  0  0
 49120  1  0  0  0
 50 51  1  0  0  0
 50121  1  0  0  0
 50122  1  0  0  0
 51 52  1  0  0  0
 51123  1  0  0  0
 51124  1  0  0  0
 52125  1  0  0  0
 52126  1  0  0  0
 53 54  1  0  0  0
 54 55  2  0  0  0
 54127  1  0  0  0
 55 57  1  0  0  0
 55128  1  0  0  0
 56 69  2  0  0  0
 57 58  2  0  0  0
 57129  1  0  0  0
 58130  1  0  0  0
 59 60  1  0  0  0
 59 61  1  0  0  0
 59 62  1  0  0  0
 60131  1  0  0  0
 60132  1  0  0  0
 60133  1  0  0  0
 61134  1  0  0  0
 61135  1  0  0  0
 61136  1  0  0  0
 62137  1  0  0  0
 62138  1  0  0  0
 62139  1  0  0  0
 63 65  1  0  0  0
 63140  1  0  0  0
 63141  1  0  0  0
 63142  1  0  0  0
 64143  1  0  0  0
 65144  1  0  0  0
 68 81  1  0  0  0
 71 73  1  0  0  0
 71 74  2  0  0  0
 71145  1  0  0  0
 72 73  2  0  0  0
 72 85  1  0  0  0
 72146  1  0  0  0
 73 82  1  0  0  0
 74 84  1  0  0  0
 74 85  1  0  0  0
 75 79  1  0  0  0
 75147  1  0  0  0
 75148  1  0  0  0
 75149  1  0  0  0
 76150  1  0  0  0
 76151  1  0  0  0
 76152  1  0  0  0
 76 82  1  0  0  0
 77153  1  0  0  0
 77154  1  0  0  0
 77155  1  0  0  0
 77 83  1  0  0  0
 78 83  1  0  0  0
 78156  1  0  0  0
 78157  1  0  0  0
 78158  1  0  0  0
 79 82  1  0  0  0
 79159  1  0  0  0
 79160  1  0  0  0
 80 82  1  0  0  0
 80 83  1  0  0  0
 80161  1  0  0  0
 80162  1  0  0  0
 81 83  1  0  0  0
 81163  1  0  0  0
 81164  1  0  0  0
 84165  1  0  0  0
M  ISO  4   1 100  68 101  81 101  84 100
M  END
> <chiral flag>
0

> <version>
0

> <s_m_source_file>
/data/baiqing/PycharmProjects/Reinvent-master-3.2/result/LINK_invent/BTK/process_docking_weight1_custom_product_contain_oxygen_bond_distance_aromatic_linkinvent_7_9_3/rearranged_h_0139.sdf

> <i_m_source_file_index>
23

> <r_mmod_Potential_Energy-OPLS-2005>
238.890777587891

> <r_mmod_Stretch_Energy-OPLS-2005>
140.719055175781

> <r_mmod_Bend_Energy-OPLS-2005>
212.829254150391

> <r_mmod_Torsional_Energy-OPLS-2005>
271.193756103516

> <r_mmod_Improper_Torsional_Energy-OPLS-2005>
8.16789627075195

> <r_mmod_Van_der_Waal_Energy-OPLS-2005>
127.341697692871

> <r_mmod_Electrostatic_Energy-OPLS-2005>
-399.281097412109

> <r_mmod_Solvation_Energy-OPLS-2005>
-200.575408935547

> <b_mmod_Minimization_Converged-OPLS-2005>
0

> <r_mmod_RMS_Derivative-OPLS-2005>
3.37850165367126

$$$$
23
                    3D
 Structure written by MMmdl.
162170  0  0  1  0            999 V2000
  -30.6938  -14.5264   20.4752 C   0  0  0  0  0  0
  -30.4125  -12.3057   19.4417 C   0  0  0  0  0  0
  -29.4973  -12.4954   18.2125 C   0  0  0  0  0  0
  -28.0194  -12.3478   18.6280 C   0  0  0  0  0  0
  -27.6565  -13.2176   19.8633 C   0  0  2  0  0  0
  -28.7026  -13.0551   20.9941 C   0  0  0  0  0  0
  -25.2543  -13.8167   20.5697 C   0  0  0  0  0  0
  -24.1802  -13.0438   20.9193 C   0  0  0  0  0  0
  -24.6386  -11.6916   20.8730 C   0  0  0  0  0  0
  -23.9048  -10.4296   21.0394 C   0  0  0  0  0  0
  -24.3609   -9.4220   21.9183 C   0  0  0  0  0  0
  -23.6287   -8.2244   22.0740 C   0  0  0  0  0  0
  -22.4272   -8.0265   21.3522 C   0  0  0  0  0  0
  -21.9916   -9.0255   20.4634 C   0  0  0  0  0  0
  -22.7221  -10.2149   20.3027 C   0  0  0  0  0  0
  -21.6850   -6.0740   22.5275 C   0  0  0  0  0  0
  -21.4046   -6.5631   23.8231 C   0  0  0  0  0  0
  -21.3671   -5.6766   24.9175 C   0  0  0  0  0  0
  -21.6032   -4.3035   24.7212 C   0  0  0  0  0  0
  -21.8808   -3.8139   23.4329 C   0  0  0  0  0  0
  -21.9191   -4.6965   22.3389 C   0  0  0  0  0  0
  -22.7815  -13.5241   21.1838 C   0  0  0  0  0  0
  -22.1638   -4.2151   21.0965 F   0  0  0  0  0  0
  -21.5623   -3.4512   25.7731 F   0  0  0  0  0  0
  -30.0293  -13.3372   20.4245 N   0  0  0  0  0  0
  -26.3000  -12.9379   20.3331 N   0  0  0  0  0  0
  -25.9311  -11.6553   20.5731 N   0  0  0  0  0  0
  -22.0430  -12.8276   22.0407 N   0  0  0  0  0  0
  -25.4168  -15.1894   20.4145 N   0  0  0  0  0  0
  -31.8710  -14.6328   20.1256 O   0  0  0  0  0  0
  -21.6602   -6.8884   21.4234 O   0  0  0  0  0  0
  -22.3520  -14.5532   20.6635 O   0  0  0  0  0  0
  -24.6119  -31.8673   23.2064 C   0  0  0  0  0  0
  -25.8996  -32.4826   23.8373 C   0  0  1  0  0  0
  -27.2381  -27.4149   20.0963 C   0  0  0  0  0  0
  -25.5840  -33.8621   24.2300 N   0  0  0  0  0  0
  -23.4027  -30.4848   21.5500 C   0  0  2  0  0  0
  -24.8498  -28.9522   20.1129 C   0  0  0  0  0  0
  -22.7398  -29.4620   22.5026 C   0  0  0  0  0  0
  -18.0248  -28.1349   22.8490 C   0  0  0  0  0  0
  -24.1485  -36.7290   23.2640 C   0  0  0  0  0  0
  -25.9324  -30.8282   21.3626 C   0  0  0  0  0  0
  -26.0113  -29.4628   20.7046 C   0  0  0  0  0  0
  -27.2049  -28.7027   20.6879 C   0  0  0  0  0  0
  -26.0537  -26.9253   19.4984 C   0  0  0  0  0  0
  -24.8701  -27.6888   19.5024 C   0  0  0  0  0  0
  -23.6052  -29.8077   20.1684 C   0  0  0  0  0  0
  -25.4117  -36.3120   24.0341 C   0  0  1  0  0  0
  -20.5838  -28.3602   23.1334 C   0  0  2  0  0  0
  -20.6729  -26.9345   22.5410 C   0  0  0  0  0  0
  -19.5715  -26.6354   21.5190 C   0  0  0  0  0  0
  -18.1897  -26.7902   22.1610 C   0  0  0  0  0  0
  -19.1513  -28.8793   23.2913 C   0  0  0  0  0  0
  -18.9439  -30.1398   23.8926 C   0  0  0  0  0  0
  -17.6453  -30.6576   24.0537 C   0  0  0  0  0  0
  -25.9022  -34.9489   23.5114 C   0  0  0  0  0  0
  -16.5336  -29.9076   23.6308 C   0  0  0  0  0  0
  -16.7244  -28.6476   23.0362 C   0  0  0  0  0  0
  -26.4424  -31.6619   25.0698 C   0  0  0  0  0  0
  -25.3681  -31.3695   26.1426 C   0  0  0  0  0  0
  -27.0243  -30.3074   24.6050 C   0  0  0  0  0  0
  -27.6021  -32.4330   25.7441 C   0  0  0  0  0  0
  -27.5604  -37.1793   24.8471 C   0  0  0  0  0  0
  -21.4141  -29.2981   22.3764 N   0  0  0  0  0  0
  -26.4311  -37.3802   23.9403 N   0  0  0  0  0  0
  -24.6675  -31.0744   22.0985 N   0  0  0  0  0  0
  -23.4177  -28.8179   23.3099 O   0  0  0  0  0  0
  -28.4334  -26.7139   20.1267 O   0  0  0  0  0  0
  -26.5599  -34.8935   22.4688 O   0  0  0  0  0  0
  -23.5300  -32.1436   23.7446 O   0  0  0  0  0  0
  -29.2238  -18.0602   20.4872 C   0  0  0  0  0  0
  -31.2280  -17.4847   19.6323 C   0  0  0  0  0  0
  -30.1544  -16.9858   20.3201 C   0  0  0  0  0  0
  -29.7172  -19.1803   19.8488 C   0  0  0  0  0  0
  -28.1331  -22.8510   20.2843 C   0  0  0  0  0  0
  -29.4918  -21.4524   21.9129 C   0  0  0  0  0  0
  -30.5791  -22.5571   19.9165 C   0  0  0  0  0  0
  -31.8464  -19.6099   18.4847 C   0  0  0  0  0  0
  -29.0344  -20.5238   19.5607 C   0  0  0  0  0  0
  -28.2914  -24.2954   20.8143 C   0  0  0  0  0  0
  -28.5215  -25.3427   19.6870 C   0  0  0  0  0  0
  -29.3104  -21.8250   20.4246 C   0  0  0  0  0  0
  -30.9560  -18.8091   19.3112 N   0  0  0  0  0  0
  -29.9328  -15.6219   20.7374 N   0  0  0  0  0  0
  -27.0635  -22.5363   19.7544 O   0  0  0  0  0  0
  -31.4628  -12.3740   19.1501 H   0  0  0  0  0  0
  -30.2812  -11.3073   19.8671 H   0  0  0  0  0  0
  -29.7487  -11.7695   17.4387 H   0  0  0  0  0  0
  -29.6530  -13.4809   17.7700 H   0  0  0  0  0  0
  -27.8477  -11.2942   18.8565 H   0  0  0  0  0  0
  -27.3591  -12.5842   17.7892 H   0  0  0  0  0  0
  -27.6798  -14.2542   19.5259 H   0  0  0  0  0  0
  -28.6780  -12.0394   21.3962 H   0  0  0  0  0  0
  -28.4802  -13.7218   21.8308 H   0  0  0  0  0  0
  -25.2757   -9.5707   22.4758 H   0  0  0  0  0  0
  -23.9984   -7.4651   22.7478 H   0  0  0  0  0  0
  -21.0831   -8.8776   19.8971 H   0  0  0  0  0  0
  -22.3654  -10.9684   19.6118 H   0  0  0  0  0  0
  -21.2055   -7.6157   23.9751 H   0  0  0  0  0  0
  -21.1495   -6.0487   25.9089 H   0  0  0  0  0  0
  -22.0583   -2.7599   23.2801 H   0  0  0  0  0  0
  -22.4024  -12.0001   22.4910 H   0  0  0  0  0  0
  -21.1046  -13.1356   22.2539 H   0  0  0  0  0  0
  -24.6407  -15.8300   20.5386 H   0  0  0  0  0  0
  -26.2574  -15.6462   20.0843 H   0  0  0  0  0  0
  -26.7058  -32.5536   23.1139 H   0  0  0  0  0  0
  -25.0032  -33.9805   25.0459 H   0  0  0  0  0  0
  -22.6898  -31.2989   21.4047 H   0  0  0  0  0  0
  -23.3790  -35.9583   23.3316 H   0  0  0  0  0  0
  -24.3597  -36.8888   22.2060 H   0  0  0  0  0  0
  -23.7198  -37.6471   23.6649 H   0  0  0  0  0  0
  -26.0470  -31.6011   20.6019 H   0  0  0  0  0  0
  -26.8172  -30.8787   21.9852 H   0  0  0  0  0  0
  -28.1081  -29.0947   21.1326 H   0  0  0  0  0  0
  -26.0059  -25.9621   19.0189 H   0  0  0  0  0  0
  -23.9803  -27.2923   19.0335 H   0  0  0  0  0  0
  -23.6881  -30.5647   19.3894 H   0  0  0  0  0  0
  -22.7357  -29.2051   19.9000 H   0  0  0  0  0  0
  -25.1313  -36.2012   25.0848 H   0  0  0  0  0  0
  -20.9923  -28.3120   24.1459 H   0  0  0  0  0  0
  -20.5580  -26.2190   23.3580 H   0  0  0  0  0  0
  -21.6612  -26.7379   22.1237 H   0  0  0  0  0  0
  -19.6864  -25.6256   21.1236 H   0  0  0  0  0  0
  -19.6678  -27.3147   20.6715 H   0  0  0  0  0  0
  -17.4160  -26.6630   21.4022 H   0  0  0  0  0  0
  -18.0319  -26.0049   22.9021 H   0  0  0  0  0  0
  -19.7920  -30.7186   24.2351 H   0  0  0  0  0  0
  -17.5010  -31.6286   24.5099 H   0  0  0  0  0  0
  -15.5335  -30.2992   23.7625 H   0  0  0  0  0  0
  -15.8630  -28.0797   22.7096 H   0  0  0  0  0  0
  -24.5843  -30.7070   25.7719 H   0  0  0  0  0  0
  -24.8854  -32.2829   26.4924 H   0  0  0  0  0  0
  -25.7998  -30.8801   27.0168 H   0  0  0  0  0  0
  -26.2753  -29.6852   24.1121 H   0  0  0  0  0  0
  -27.4045  -29.7300   25.4493 H   0  0  0  0  0  0
  -27.8594  -30.4413   23.9162 H   0  0  0  0  0  0
  -27.2671  -33.3636   26.2048 H   0  0  0  0  0  0
  -28.3796  -32.6893   25.0225 H   0  0  0  0  0  0
  -28.0730  -31.8432   26.5323 H   0  0  0  0  0  0
  -28.2619  -38.0089   24.7564 H   0  0  0  0  0  0
  -28.1097  -36.2632   24.6274 H   0  0  0  0  0  0
  -27.2307  -37.1428   25.8861 H   0  0  0  0  0  0
  -20.9271  -29.8689   21.6984 H   0  0  0  0  0  0
  -26.0223  -38.2877   24.1423 H   0  0  0  0  0  0
  -28.2547  -18.0078   20.9649 H   0  0  0  0  0  0
  -32.1424  -17.0188   19.2883 H   0  0  0  0  0  0
  -29.5492  -22.3332   22.5560 H   0  0  0  0  0  0
  -30.4123  -20.8887   22.0681 H   0  0  0  0  0  0
  -28.6671  -20.8363   22.2795 H   0  0  0  0  0  0
  -30.9004  -23.3300   20.6145 H   0  0  0  0  0  0
  -30.4091  -23.0540   18.9572 H   0  0  0  0  0  0
  -31.4311  -21.8935   19.8001 H   0  0  0  0  0  0
  -32.2719  -18.9844   17.6980 H   0  0  0  0  0  0
  -32.6639  -20.0049   19.0888 H   0  0  0  0  0  0
  -31.3255  -20.4388   18.0083 H   0  0  0  0  0  0
  -27.9700  -20.3015   19.6272 H   0  0  0  0  0  0
  -29.1704  -20.7701   18.5074 H   0  0  0  0  0  0
  -29.1029  -24.3309   21.5390 H   0  0  0  0  0  0
  -27.3818  -24.5417   21.3625 H   0  0  0  0  0  0
  -27.9084  -25.1354   18.8117 H   0  0  0  0  0  0
  -29.5441  -25.2283   19.3253 H   0  0  0  0  0  0
  -29.0045  -15.4081   21.0720 H   0  0  0  0  0  0
  1 25  1  0  0  0
  1 30  2  0  0  0
  1 84  1  0  0  0
  2  3  1  0  0  0
  2 25  1  0  0  0
  2 86  1  0  0  0
  2 87  1  0  0  0
  3  4  1  0  0  0
  3 88  1  0  0  0
  3 89  1  0  0  0
  4  5  1  0  0  0
  4 90  1  0  0  0
  4 91  1  0  0  0
  5  6  1  0  0  0
  5 26  1  0  0  0
  5 92  1  0  0  0
  6 25  1  0  0  0
  6 93  1  0  0  0
  6 94  1  0  0  0
  7  8  2  0  0  0
  7 26  1  0  0  0
  7 29  1  0  0  0
  8  9  1  0  0  0
  8 22  1  0  0  0
  9 10  1  0  0  0
  9 27  2  0  0  0
 10 11  2  0  0  0
 10 15  1  0  0  0
 11 12  1  0  0  0
 11 95  1  0  0  0
 12 13  2  0  0  0
 12 96  1  0  0  0
 13 14  1  0  0  0
 13 31  1  0  0  0
 14 15  2  0  0  0
 14 97  1  0  0  0
 15 98  1  0  0  0
 16 17  2  0  0  0
 16 21  1  0  0  0
 16 31  1  0  0  0
 17 18  1  0  0  0
 17 99  1  0  0  0
 18 19  2  0  0  0
 18100  1  0  0  0
 19 20  1  0  0  0
 19 24  1  0  0  0
 20 21  2  0  0  0
 20101  1  0  0  0
 21 23  1  0  0  0
 22 28  1  0  0  0
 22 32  2  0  0  0
 26 27  1  0  0  0
 28102  1  0  0  0
 28103  1  0  0  0
 29104  1  0  0  0
 29105  1  0  0  0
 33 34  1  0  0  0
 33 66  1  0  0  0
 33 70  2  0  0  0
 34 36  1  0  0  0
 34 59  1  0  0  0
 34106  1  0  0  0
 35 44  2  0  0  0
 35 45  1  0  0  0
 35 68  1  0  0  0
 36 56  1  0  0  0
 36107  1  0  0  0
 37 39  1  0  0  0
 37 47  1  0  0  0
 37 66  1  0  0  0
 37108  1  0  0  0
 38 43  2  0  0  0
 38 46  1  0  0  0
 38 47  1  0  0  0
 39 64  1  0  0  0
 39 67  2  0  0  0
 40 52  1  0  0  0
 40 53  2  0  0  0
 40 58  1  0  0  0
 41109  1  0  0  0
 41110  1  0  0  0
 41111  1  0  0  0
 41 48  1  0  0  0
 42 43  1  0  0  0
 42 66  1  0  0  0
 42112  1  0  0  0
 42113  1  0  0  0
 43 44  1  0  0  0
 44114  1  0  0  0
 45 46  2  0  0  0
 45115  1  0  0  0
 46116  1  0  0  0
 47117  1  0  0  0
 47118  1  0  0  0
 48 56  1  0  0  0
 48 65  1  0  0  0
 48119  1  0  0  0
 49 50  1  0  0  0
 49 53  1  0  0  0
 49 64  1  0  0  0
 49120  1  0  0  0
 50 51  1  0  0  0
 50121  1  0  0  0
 50122  1  0  0  0
 51 52  1  0  0  0
 51123  1  0  0  0
 51124  1  0  0  0
 52125  1  0  0  0
 52126  1  0  0  0
 53 54  1  0  0  0
 54 55  2  0  0  0
 54127  1  0  0  0
 55 57  1  0  0  0
 55128  1  0  0  0
 56 69  2  0  0  0
 57 58  2  0  0  0
 57129  1  0  0  0
 58130  1  0  0  0
 59 60  1  0  0  0
 59 61  1  0  0  0
 59 62  1  0  0  0
 60131  1  0  0  0
 60132  1  0  0  0
 60133  1  0  0  0
 61134  1  0  0  0
 61135  1  0  0  0
 61136  1  0  0  0
 62137  1  0  0  0
 62138  1  0  0  0
 62139  1  0  0  0
 63 65  1  0  0  0
 63140  1  0  0  0
 63141  1  0  0  0
 63142  1  0  0  0
 64143  1  0  0  0
 65144  1  0  0  0
 68 81  1  0  0  0
 71 73  1  0  0  0
 71 74  2  0  0  0
 71145  1  0  0  0
 72 73  2  0  0  0
 72 83  1  0  0  0
 72146  1  0  0  0
 73 84  1  0  0  0
 74 79  1  0  0  0
 74 83  1  0  0  0
 75 80  1  0  0  0
 75 82  1  0  0  0
 75 85  2  0  0  0
 76147  1  0  0  0
 76148  1  0  0  0
 76149  1  0  0  0
 76 82  1  0  0  0
 77 82  1  0  0  0
 77150  1  0  0  0
 77151  1  0  0  0
 77152  1  0  0  0
 78 83  1  0  0  0
 78153  1  0  0  0
 78154  1  0  0  0
 78155  1  0  0  0
 79 82  1  0  0  0
 79156  1  0  0  0
 79157  1  0  0  0
 80 81  1  0  0  0
 80158  1  0  0  0
 80159  1  0  0  0
 81160  1  0  0  0
 81161  1  0  0  0
 84162  1  0  0  0
M  ISO  4   1 100  68 101  81 101  84 100
M  END
> <chiral flag>
0

> <version>
0

> <s_m_source_file>
/data/baiqing/PycharmProjects/Reinvent-master-3.2/result/LINK_invent/BTK/process_docking_weight1_custom_product_contain_oxygen_bond_distance_aromatic_linkinvent_7_9_3/rearranged_h_0139.sdf

> <i_m_source_file_index>
24

> <r_mmod_Potential_Energy-OPLS-2005>
-18.4697132110596

> <r_mmod_Stretch_Energy-OPLS-2005>
49.7949752807617

> <r_mmod_Bend_Energy-OPLS-2005>
133.999572753906

> <r_mmod_Torsional_Energy-OPLS-2005>
232.324722290039

> <r_mmod_Improper_Torsional_Energy-OPLS-2005>
6.03042793273926

> <r_mmod_Van_der_Waal_Energy-OPLS-2005>
134.978500366211

> <r_mmod_Electrostatic_Energy-OPLS-2005>
-382.277923583984

> <r_mmod_Solvation_Energy-OPLS-2005>
-214.95588684082

> <b_mmod_Minimization_Converged-OPLS-2005>
0

> <r_mmod_RMS_Derivative-OPLS-2005>
4.68350028991699

$$$$
24
                    3D
 Structure written by MMmdl.
156164  0  0  1  0            999 V2000
  -30.5935  -14.7725   20.4434 C   0  0  0  0  0  0
  -30.4362  -12.4681   19.4896 C   0  0  0  0  0  0
  -29.5196  -12.5159   18.2463 C   0  0  0  0  0  0
  -28.0440  -12.3373   18.6524 C   0  0  0  0  0  0
  -27.6423  -13.2351   19.8530 C   0  0  2  0  0  0
  -28.6834  -13.1734   20.9926 C   0  0  0  0  0  0
  -25.2495  -13.8202   20.5666 C   0  0  0  0  0  0
  -24.1791  -13.0445   20.9191 C   0  0  0  0  0  0
  -24.6390  -11.6924   20.8734 C   0  0  0  0  0  0
  -23.9065  -10.4297   21.0400 C   0  0  0  0  0  0
  -24.3619   -9.4211   21.9178 C   0  0  0  0  0  0
  -23.6295   -8.2242   22.0748 C   0  0  0  0  0  0
  -22.4278   -8.0275   21.3535 C   0  0  0  0  0  0
  -21.9913   -9.0253   20.4643 C   0  0  0  0  0  0
  -22.7236  -10.2136   20.3051 C   0  0  0  0  0  0
  -21.6857   -6.0728   22.5272 C   0  0  0  0  0  0
  -21.4019   -6.5634   23.8205 C   0  0  0  0  0  0
  -21.3662   -5.6786   24.9171 C   0  0  0  0  0  0
  -21.6043   -4.3049   24.7221 C   0  0  0  0  0  0
  -21.8818   -3.8140   23.4343 C   0  0  0  0  0  0
  -21.9195   -4.6954   22.3399 C   0  0  0  0  0  0
  -22.7811  -13.5223   21.1857 C   0  0  0  0  0  0
  -22.1654   -4.2139   21.0975 F   0  0  0  0  0  0
  -21.5641   -3.4536   25.7733 F   0  0  0  0  0  0
  -29.9871  -13.5327   20.4189 N   0  0  0  0  0  0
  -26.2930  -12.9410   20.3269 N   0  0  0  0  0  0
  -25.9322  -11.6553   20.5743 N   0  0  0  0  0  0
  -22.0451  -12.8227   22.0422 N   0  0  0  0  0  0
  -25.4198  -15.1925   20.4055 N   0  0  0  0  0  0
  -31.7782  -14.8637   20.1036 O   0  0  0  0  0  0
  -21.6642   -6.8871   21.4230 O   0  0  0  0  0  0
  -22.3493  -14.5521   20.6693 O   0  0  0  0  0  0
  -24.6329  -31.8514   23.1937 C   0  0  0  0  0  0
  -25.9146  -32.4731   23.8290 C   0  0  1  0  0  0
  -27.2350  -27.2457   20.1146 C   0  0  0  0  0  0
  -25.5931  -33.8534   24.2216 N   0  0  0  0  0  0
  -23.4298  -30.4709   21.5388 C   0  0  2  0  0  0
  -24.8756  -28.9070   20.1116 C   0  0  0  0  0  0
  -22.7494  -29.4586   22.4915 C   0  0  0  0  0  0
  -18.0283  -28.1387   22.8483 C   0  0  0  0  0  0
  -24.1492  -36.7273   23.2642 C   0  0  0  0  0  0
  -25.9757  -30.7589   21.3733 C   0  0  0  0  0  0
  -26.0475  -29.3799   20.7119 C   0  0  0  0  0  0
  -27.2228  -28.5617   20.6990 C   0  0  0  0  0  0
  -26.0262  -26.8280   19.5192 C   0  0  0  0  0  0
  -24.8699  -27.6382   19.5088 C   0  0  0  0  0  0
  -23.6473  -29.7972   20.1570 C   0  0  0  0  0  0
  -25.4120  -36.3055   24.0321 C   0  0  1  0  0  0
  -20.5886  -28.3698   23.1271 C   0  0  2  0  0  0
  -20.6778  -26.9416   22.5411 C   0  0  0  0  0  0
  -19.5754  -26.6381   21.5214 C   0  0  0  0  0  0
  -18.1929  -26.7930   22.1619 C   0  0  0  0  0  0
  -19.1537  -28.8856   23.2869 C   0  0  0  0  0  0
  -18.9463  -30.1459   23.8883 C   0  0  0  0  0  0
  -17.6465  -30.6596   24.0553 C   0  0  0  0  0  0
  -25.9065  -34.9432   23.5075 C   0  0  0  0  0  0
  -16.5353  -29.9091   23.6333 C   0  0  0  0  0  0
  -16.7269  -28.6506   23.0353 C   0  0  0  0  0  0
  -26.4507  -31.6569   25.0695 C   0  0  0  0  0  0
  -25.3721  -31.3745   26.1412 C   0  0  0  0  0  0
  -27.0355  -30.2975   24.6219 C   0  0  0  0  0  0
  -27.6035  -32.4330   25.7487 C   0  0  0  0  0  0
  -27.5579  -37.1792   24.8462 C   0  0  0  0  0  0
  -21.4198  -29.3040   22.3657 N   0  0  0  0  0  0
  -26.4291  -37.3760   23.9410 N   0  0  0  0  0  0
  -24.6987  -31.0464   22.0918 N   0  0  0  0  0  0
  -23.4181  -28.8145   23.3041 O   0  0  0  0  0  0
  -28.3865  -26.4195   20.1999 O   0  0  0  0  0  0
  -26.5647  -34.8919   22.4654 O   0  0  0  0  0  0
  -23.5474  -32.1350   23.7229 O   0  0  0  0  0  0
  -30.5167  -19.4715   19.0531 C   0  0  0  0  0  0
  -29.5739  -19.6762   20.0493 C   0  0  0  0  0  0
  -29.9983  -17.3145   20.2719 C   0  0  0  0  0  0
  -29.3850  -22.3038   20.2248 C   0  0  0  0  0  0
  -31.0262  -20.4218   18.0143 C   0  0  0  0  0  0
  -28.1963  -24.9047   18.1560 C   0  0  0  0  0  0
  -30.2284  -25.3372   19.4724 C   0  0  0  0  0  0
  -28.4804  -23.6434   20.4247 C   0  0  0  0  0  0
  -28.7142  -25.0589   19.6022 C   0  0  0  0  0  0
  -29.2598  -18.4063   20.6869 N   0  0  0  0  0  0
  -28.8999  -20.9952   20.2834 N   0  0  0  0  0  0
  -29.8191  -15.9009   20.7045 N   0  0  0  0  0  0
  -30.6010  -22.4707   20.1258 O   0  0  0  0  0  0
  -31.1305  -17.8156   19.0187 S   0  0  0  0  0  0
  -31.4785  -12.5948   19.1900 H   0  0  0  0  0  0
  -30.3832  -11.4923   19.9750 H   0  0  0  0  0  0
  -29.8113  -11.7434   17.5335 H   0  0  0  0  0  0
  -29.6457  -13.4704   17.7316 H   0  0  0  0  0  0
  -27.9017  -11.2882   18.9138 H   0  0  0  0  0  0
  -27.3900  -12.5296   17.8003 H   0  0  0  0  0  0
  -27.6357  -14.2571   19.4734 H   0  0  0  0  0  0
  -28.7198  -12.1753   21.4313 H   0  0  0  0  0  0
  -28.4108  -13.8512   21.8023 H   0  0  0  0  0  0
  -25.2764   -9.5696   22.4751 H   0  0  0  0  0  0
  -24.0007   -7.4640   22.7477 H   0  0  0  0  0  0
  -21.0838   -8.8765   19.8964 H   0  0  0  0  0  0
  -22.3680  -10.9667   19.6162 H   0  0  0  0  0  0
  -21.2002   -7.6141   23.9701 H   0  0  0  0  0  0
  -21.1491   -6.0522   25.9072 H   0  0  0  0  0  0
  -22.0598   -2.7601   23.2844 H   0  0  0  0  0  0
  -22.4065  -11.9908   22.4849 H   0  0  0  0  0  0
  -21.1059  -13.1255   22.2597 H   0  0  0  0  0  0
  -24.6538  -15.8487   20.5109 H   0  0  0  0  0  0
  -26.2658  -15.6273   20.0599 H   0  0  0  0  0  0
  -26.7210  -32.5368   23.1024 H   0  0  0  0  0  0
  -25.0057  -33.9659   25.0348 H   0  0  0  0  0  0
  -22.7289  -31.2943   21.3886 H   0  0  0  0  0  0
  -23.3757  -35.9600   23.3297 H   0  0  0  0  0  0
  -24.3574  -36.8904   22.2055 H   0  0  0  0  0  0
  -23.7246  -37.6469   23.6678 H   0  0  0  0  0  0
  -26.1207  -31.5221   20.6074 H   0  0  0  0  0  0
  -26.8503  -30.8031   22.0106 H   0  0  0  0  0  0
  -28.1240  -28.9253   21.1730 H   0  0  0  0  0  0
  -25.9288  -25.8449   19.0966 H   0  0  0  0  0  0
  -23.9645  -27.2590   19.0553 H   0  0  0  0  0  0
  -23.7750  -30.5709   19.3987 H   0  0  0  0  0  0
  -22.7644  -29.2312   19.8523 H   0  0  0  0  0  0
  -25.1315  -36.1886   25.0811 H   0  0  0  0  0  0
  -20.9970  -28.3280   24.1395 H   0  0  0  0  0  0
  -20.5679  -26.2309   23.3617 H   0  0  0  0  0  0
  -21.6648  -26.7448   22.1207 H   0  0  0  0  0  0
  -19.6920  -25.6288   21.1252 H   0  0  0  0  0  0
  -19.6697  -27.3182   20.6738 H   0  0  0  0  0  0
  -17.4205  -26.6665   21.4017 H   0  0  0  0  0  0
  -18.0330  -26.0073   22.9016 H   0  0  0  0  0  0
  -19.7944  -30.7270   24.2244 H   0  0  0  0  0  0
  -17.5028  -31.6277   24.5156 H   0  0  0  0  0  0
  -15.5355  -30.2991   23.7677 H   0  0  0  0  0  0
  -15.8666  -28.0827   22.7079 H   0  0  0  0  0  0
  -24.5881  -30.7114   25.7749 H   0  0  0  0  0  0
  -24.8938  -32.2927   26.4828 H   0  0  0  0  0  0
  -25.8025  -30.8923   27.0198 H   0  0  0  0  0  0
  -26.2950  -29.6713   24.1234 H   0  0  0  0  0  0
  -27.4000  -29.7256   25.4764 H   0  0  0  0  0  0
  -27.8846  -30.4226   23.9495 H   0  0  0  0  0  0
  -27.2606  -33.3618   26.2062 H   0  0  0  0  0  0
  -28.3854  -32.6912   25.0332 H   0  0  0  0  0  0
  -28.0701  -31.8464   26.5411 H   0  0  0  0  0  0
  -28.2595  -38.0091   24.7514 H   0  0  0  0  0  0
  -28.1078  -36.2624   24.6289 H   0  0  0  0  0  0
  -27.2298  -37.1445   25.8864 H   0  0  0  0  0  0
  -20.9387  -29.8738   21.6838 H   0  0  0  0  0  0
  -26.0161  -38.2832   24.1403 H   0  0  0  0  0  0
  -31.9212  -20.9391   18.3596 H   0  0  0  0  0  0
  -30.2758  -21.1674   17.7515 H   0  0  0  0  0  0
  -31.2820  -19.8959   17.0944 H   0  0  0  0  0  0
  -28.7827  -24.1641   17.6096 H   0  0  0  0  0  0
  -28.2554  -25.8401   17.5989 H   0  0  0  0  0  0
  -27.1725  -24.5416   18.1149 H   0  0  0  0  0  0
  -30.4211  -26.2943   18.9854 H   0  0  0  0  0  0
  -30.7444  -24.5909   18.8683 H   0  0  0  0  0  0
  -30.7129  -25.3686   20.4488 H   0  0  0  0  0  0
  -28.5940  -23.8830   21.4815 H   0  0  0  0  0  0
  -27.4352  -23.3538   20.3204 H   0  0  0  0  0  0
  -27.9285  -20.9244   20.5520 H   0  0  0  0  0  0
  -28.9240  -15.7015   21.1201 H   0  0  0  0  0  0
  1 25  1  0  0  0
  1 30  2  0  0  0
  1 82  1  0  0  0
  2  3  1  0  0  0
  2 25  1  0  0  0
  2 85  1  0  0  0
  2 86  1  0  0  0
  3  4  1  0  0  0
  3 87  1  0  0  0
  3 88  1  0  0  0
  4  5  1  0  0  0
  4 89  1  0  0  0
  4 90  1  0  0  0
  5  6  1  0  0  0
  5 26  1  0  0  0
  5 91  1  0  0  0
  6 25  1  0  0  0
  6 92  1  0  0  0
  6 93  1  0  0  0
  7  8  2  0  0  0
  7 26  1  0  0  0
  7 29  1  0  0  0
  8  9  1  0  0  0
  8 22  1  0  0  0
  9 10  1  0  0  0
  9 27  2  0  0  0
 10 11  2  0  0  0
 10 15  1  0  0  0
 11 12  1  0  0  0
 11 94  1  0  0  0
 12 13  2  0  0  0
 12 95  1  0  0  0
 13 14  1  0  0  0
 13 31  1  0  0  0
 14 15  2  0  0  0
 14 96  1  0  0  0
 15 97  1  0  0  0
 16 17  2  0  0  0
 16 21  1  0  0  0
 16 31  1  0  0  0
 17 18  1  0  0  0
 17 98  1  0  0  0
 18 19  2  0  0  0
 18 99  1  0  0  0
 19 20  1  0  0  0
 19 24  1  0  0  0
 20 21  2  0  0  0
 20100  1  0  0  0
 21 23  1  0  0  0
 22 28  1  0  0  0
 22 32  2  0  0  0
 26 27  1  0  0  0
 28101  1  0  0  0
 28102  1  0  0  0
 29103  1  0  0  0
 29104  1  0  0  0
 33 34  1  0  0  0
 33 66  1  0  0  0
 33 70  2  0  0  0
 34 36  1  0  0  0
 34 59  1  0  0  0
 34105  1  0  0  0
 35 44  2  0  0  0
 35 45  1  0  0  0
 35 68  1  0  0  0
 36 56  1  0  0  0
 36106  1  0  0  0
 37 39  1  0  0  0
 37 47  1  0  0  0
 37 66  1  0  0  0
 37107  1  0  0  0
 38 43  2  0  0  0
 38 46  1  0  0  0
 38 47  1  0  0  0
 39 64  1  0  0  0
 39 67  2  0  0  0
 40 52  1  0  0  0
 40 53  2  0  0  0
 40 58  1  0  0  0
 41108  1  0  0  0
 41109  1  0  0  0
 41110  1  0  0  0
 41 48  1  0  0  0
 42 43  1  0  0  0
 42 66  1  0  0  0
 42111  1  0  0  0
 42112  1  0  0  0
 43 44  1  0  0  0
 44113  1  0  0  0
 45 46  2  0  0  0
 45114  1  0  0  0
 46115  1  0  0  0
 47116  1  0  0  0
 47117  1  0  0  0
 48 56  1  0  0  0
 48 65  1  0  0  0
 48118  1  0  0  0
 49 50  1  0  0  0
 49 53  1  0  0  0
 49 64  1  0  0  0
 49119  1  0  0  0
 50 51  1  0  0  0
 50120  1  0  0  0
 50121  1  0  0  0
 51 52  1  0  0  0
 51122  1  0  0  0
 51123  1  0  0  0
 52124  1  0  0  0
 52125  1  0  0  0
 53 54  1  0  0  0
 54 55  2  0  0  0
 54126  1  0  0  0
 55 57  1  0  0  0
 55127  1  0  0  0
 56 69  2  0  0  0
 57 58  2  0  0  0
 57128  1  0  0  0
 58129  1  0  0  0
 59 60  1  0  0  0
 59 61  1  0  0  0
 59 62  1  0  0  0
 60130  1  0  0  0
 60131  1  0  0  0
 60132  1  0  0  0
 61133  1  0  0  0
 61134  1  0  0  0
 61135  1  0  0  0
 62136  1  0  0  0
 62137  1  0  0  0
 62138  1  0  0  0
 63 65  1  0  0  0
 63139  1  0  0  0
 63140  1  0  0  0
 63141  1  0  0  0
 64142  1  0  0  0
 65143  1  0  0  0
 68 79  1  0  0  0
 71 72  2  0  0  0
 71 75  1  0  0  0
 71 84  1  0  0  0
 72 80  1  0  0  0
 72 81  1  0  0  0
 73 80  2  0  0  0
 73 82  1  0  0  0
 73 84  1  0  0  0
 74 78  1  0  0  0
 74 81  1  0  0  0
 74 83  2  0  0  0
 75144  1  0  0  0
 75145  1  0  0  0
 75146  1  0  0  0
 76147  1  0  0  0
 76148  1  0  0  0
 76149  1  0  0  0
 76 79  1  0  0  0
 77 79  1  0  0  0
 77150  1  0  0  0
 77151  1  0  0  0
 77152  1  0  0  0
 78 79  1  0  0  0
 78153  1  0  0  0
 78154  1  0  0  0
 81155  1  0  0  0
 82156  1  0  0  0
M  ISO  4   1 100  68 101  79 101  82 100
M  END
> <chiral flag>
0

> <version>
0

> <s_m_source_file>
/data/baiqing/PycharmProjects/Reinvent-master-3.2/result/LINK_invent/BTK/process_docking_weight1_custom_product_contain_oxygen_bond_distance_aromatic_linkinvent_7_9_3/rearranged_h_0139.sdf

> <i_m_source_file_index>
25

> <r_mmod_Potential_Energy-OPLS-2005>
138.322006225586

> <r_mmod_Stretch_Energy-OPLS-2005>
147.268493652344

> <r_mmod_Bend_Energy-OPLS-2005>
229.447708129883

> <r_mmod_Torsional_Energy-OPLS-2005>
208.945816040039

> <r_mmod_Improper_Torsional_Energy-OPLS-2005>
5.71321296691895

> <r_mmod_Van_der_Waal_Energy-OPLS-2005>
122.789306640625

> <r_mmod_Electrostatic_Energy-OPLS-2005>
-438.881561279297

> <r_mmod_Solvation_Energy-OPLS-2005>
-227.649612426758

> <b_mmod_Minimization_Converged-OPLS-2005>
0

> <r_mmod_RMS_Derivative-OPLS-2005>
1.51298975944519

$$$$
25
                    3D
 Structure written by MMmdl.
167175  0  0  1  0            999 V2000
  -30.6631  -14.6046   20.4578 C   0  0  0  0  0  0
  -30.4265  -12.3528   19.4713 C   0  0  0  0  0  0
  -29.5066  -12.4862   18.2384 C   0  0  0  0  0  0
  -28.0269  -12.3396   18.6383 C   0  0  0  0  0  0
  -27.6495  -13.2139   19.8622 C   0  0  2  0  0  0
  -28.6964  -13.1126   20.9925 C   0  0  0  0  0  0
  -25.2541  -13.8148   20.5702 C   0  0  0  0  0  0
  -24.1790  -13.0404   20.9178 C   0  0  0  0  0  0
  -24.6336  -11.6894   20.8695 C   0  0  0  0  0  0
  -23.8984  -10.4292   21.0363 C   0  0  0  0  0  0
  -24.3549   -9.4246   21.9150 C   0  0  0  0  0  0
  -23.6275   -8.2246   22.0732 C   0  0  0  0  0  0
  -22.4264   -8.0238   21.3518 C   0  0  0  0  0  0
  -21.9863   -9.0188   20.4617 C   0  0  0  0  0  0
  -22.7142  -10.2106   20.3024 C   0  0  0  0  0  0
  -21.6873   -6.0706   22.5258 C   0  0  0  0  0  0
  -21.4023   -6.5620   23.8185 C   0  0  0  0  0  0
  -21.3666   -5.6789   24.9157 C   0  0  0  0  0  0
  -21.6051   -4.3053   24.7237 C   0  0  0  0  0  0
  -21.8816   -3.8125   23.4360 C   0  0  0  0  0  0
  -21.9197   -4.6924   22.3409 C   0  0  0  0  0  0
  -22.7824  -13.5222   21.1870 C   0  0  0  0  0  0
  -22.1669   -4.2106   21.0987 F   0  0  0  0  0  0
  -21.5641   -3.4538   25.7751 F   0  0  0  0  0  0
  -30.0282  -13.3937   20.4354 N   0  0  0  0  0  0
  -26.2970  -12.9314   20.3351 N   0  0  0  0  0  0
  -25.9274  -11.6474   20.5749 N   0  0  0  0  0  0
  -22.0479  -12.8165   22.0421 N   0  0  0  0  0  0
  -25.4259  -15.1877   20.4186 N   0  0  0  0  0  0
  -31.8644  -14.6763   20.1893 O   0  0  0  0  0  0
  -21.6646   -6.8824   21.4211 O   0  0  0  0  0  0
  -22.3496  -14.5524   20.6763 O   0  0  0  0  0  0
  -24.6305  -31.8607   23.2012 C   0  0  0  0  0  0
  -25.9181  -32.4746   23.8327 C   0  0  1  0  0  0
  -27.2112  -27.3372   20.1024 C   0  0  0  0  0  0
  -25.5992  -33.8530   24.2254 N   0  0  0  0  0  0
  -23.4134  -30.4869   21.5460 C   0  0  2  0  0  0
  -24.8536  -28.9450   20.1092 C   0  0  0  0  0  0
  -22.7448  -29.4601   22.4908 C   0  0  0  0  0  0
  -18.0276  -28.1391   22.8488 C   0  0  0  0  0  0
  -24.1433  -36.7246   23.2624 C   0  0  0  0  0  0
  -25.9539  -30.7961   21.3679 C   0  0  0  0  0  0
  -26.0237  -29.4305   20.7048 C   0  0  0  0  0  0
  -27.2066  -28.6372   20.6909 C   0  0  0  0  0  0
  -26.0171  -26.8999   19.4962 C   0  0  0  0  0  0
  -24.8501  -27.6828   19.4992 C   0  0  0  0  0  0
  -23.6264  -29.8279   20.1580 C   0  0  0  0  0  0
  -25.4069  -36.3028   24.0292 C   0  0  1  0  0  0
  -20.5866  -28.3626   23.1271 C   0  0  2  0  0  0
  -20.6720  -26.9341   22.5368 C   0  0  0  0  0  0
  -19.5702  -26.6358   21.5155 C   0  0  0  0  0  0
  -18.1909  -26.7932   22.1631 C   0  0  0  0  0  0
  -19.1531  -28.8843   23.2885 C   0  0  0  0  0  0
  -18.9474  -30.1476   23.8870 C   0  0  0  0  0  0
  -17.6466  -30.6596   24.0565 C   0  0  0  0  0  0
  -25.9040  -34.9413   23.5049 C   0  0  0  0  0  0
  -16.5359  -29.9096   23.6335 C   0  0  0  0  0  0
  -16.7258  -28.6525   23.0328 C   0  0  0  0  0  0
  -26.4486  -31.6546   25.0713 C   0  0  0  0  0  0
  -25.3652  -31.3661   26.1359 C   0  0  0  0  0  0
  -27.0217  -30.2936   24.6162 C   0  0  0  0  0  0
  -27.6065  -32.4188   25.7586 C   0  0  0  0  0  0
  -27.5497  -37.1742   24.8462 C   0  0  0  0  0  0
  -21.4155  -29.2995   22.3678 N   0  0  0  0  0  0
  -26.4209  -37.3751   23.9416 N   0  0  0  0  0  0
  -24.6843  -31.0626   22.0979 N   0  0  0  0  0  0
  -23.4214  -28.8108   23.2908 O   0  0  0  0  0  0
  -28.3399  -26.5164   20.1799 O   0  0  0  0  0  0
  -26.5596  -34.8905   22.4608 O   0  0  0  0  0  0
  -23.5473  -32.1403   23.7363 O   0  0  0  0  0  0
  -28.2689  -18.9663   17.8110 C   0  0  0  0  0  0
  -28.3882  -20.2744   18.3031 C   0  0  0  0  0  0
  -29.7828  -19.4461   20.1105 C   0  0  0  0  0  0
  -29.6259  -18.0869   19.6627 C   0  0  0  0  0  0
  -28.9280  -17.8860   18.4326 C   0  0  0  0  0  0
  -29.1868  -20.5578   19.4239 C   0  0  0  0  0  0
  -30.2915  -16.9109   20.3663 C   0  0  0  0  0  0
  -30.2914  -16.2035   17.0381 C   0  0  0  0  0  0
  -29.9069  -25.0706   19.2076 C   0  0  0  0  0  0
  -27.0613  -24.2174   21.5432 C   0  0  0  0  0  0
  -26.8022  -23.1898   19.3133 C   0  0  0  0  0  0
  -28.9281  -16.5582   17.6670 C   0  0  0  0  0  0
  -28.8297  -22.6701   20.6826 C   0  0  0  0  0  0
  -28.4187  -25.1812   19.5526 C   0  0  1  0  0  0
  -27.8318  -23.8456   20.2587 C   0  0  0  0  0  0
  -29.7958  -15.7173   20.5056 N   0  0  0  0  0  0
  -29.4980  -21.9005   19.6526 O   0  0  0  0  0  0
  -31.4706  -12.4445   19.1702 H   0  0  0  0  0  0
  -30.3293  -11.3667   19.9283 H   0  0  0  0  0  0
  -29.7688  -11.7465   17.4822 H   0  0  0  0  0  0
  -29.6569  -13.4574   17.7741 H   0  0  0  0  0  0
  -27.8428  -11.2894   18.8622 H   0  0  0  0  0  0
  -27.3841  -12.5883   17.7929 H   0  0  0  0  0  0
  -27.6485  -14.2426   19.5162 H   0  0  0  0  0  0
  -28.6845  -12.1250   21.4533 H   0  0  0  0  0  0
  -28.4549  -13.8213   21.7875 H   0  0  0  0  0  0
  -25.2673   -9.5781   22.4728 H   0  0  0  0  0  0
  -24.0004   -7.4662   22.7457 H   0  0  0  0  0  0
  -21.0791   -8.8646   19.8935 H   0  0  0  0  0  0
  -22.3515  -10.9614   19.6147 H   0  0  0  0  0  0
  -21.2005   -7.6124   23.9667 H   0  0  0  0  0  0
  -21.1510   -6.0534   25.9057 H   0  0  0  0  0  0
  -22.0593   -2.7577   23.2876 H   0  0  0  0  0  0
  -22.4111  -11.9822   22.4766 H   0  0  0  0  0  0
  -21.1080  -13.1145   22.2605 H   0  0  0  0  0  0
  -24.6686  -15.8508   20.5435 H   0  0  0  0  0  0
  -26.3057  -15.6250   20.1705 H   0  0  0  0  0  0
  -26.7285  -32.5387   23.1098 H   0  0  0  0  0  0
  -25.0108  -33.9669   25.0375 H   0  0  0  0  0  0
  -22.7044  -31.3035   21.4045 H   0  0  0  0  0  0
  -23.3679  -35.9604   23.3327 H   0  0  0  0  0  0
  -24.3455  -36.8857   22.2025 H   0  0  0  0  0  0
  -23.7259  -37.6461   23.6666 H   0  0  0  0  0  0
  -26.0737  -31.5574   20.5998 H   0  0  0  0  0  0
  -26.8445  -30.8478   21.9832 H   0  0  0  0  0  0
  -28.1135  -29.0048   21.1510 H   0  0  0  0  0  0
  -25.9468  -25.9285   19.0441 H   0  0  0  0  0  0
  -23.9495  -27.2922   19.0438 H   0  0  0  0  0  0
  -23.7622  -30.6085   19.4077 H   0  0  0  0  0  0
  -22.7448  -29.2647   19.8415 H   0  0  0  0  0  0
  -25.1276  -36.1765   25.0785 H   0  0  0  0  0  0
  -21.0017  -28.3150   24.1355 H   0  0  0  0  0  0
  -20.5523  -26.2203   23.3537 H   0  0  0  0  0  0
  -21.6601  -26.7279   22.1202 H   0  0  0  0  0  0
  -19.6823  -25.6250   21.1210 H   0  0  0  0  0  0
  -19.6686  -27.3137   20.6655 H   0  0  0  0  0  0
  -17.4124  -26.6610   21.4099 H   0  0  0  0  0  0
  -18.0428  -26.0096   22.9074 H   0  0  0  0  0  0
  -19.7945  -30.7324   24.2181 H   0  0  0  0  0  0
  -17.5011  -31.6284   24.5161 H   0  0  0  0  0  0
  -15.5377  -30.3019   23.7659 H   0  0  0  0  0  0
  -15.8638  -28.0894   22.7000 H   0  0  0  0  0  0
  -24.5964  -30.6888   25.7599 H   0  0  0  0  0  0
  -24.8699  -32.2800   26.4655 H   0  0  0  0  0  0
  -25.7964  -30.8901   27.0180 H   0  0  0  0  0  0
  -26.2793  -29.6930   24.0895 H   0  0  0  0  0  0
  -27.3440  -29.7014   25.4723 H   0  0  0  0  0  0
  -27.8902  -30.4051   23.9680 H   0  0  0  0  0  0
  -27.2723  -33.3494   26.2180 H   0  0  0  0  0  0
  -28.4021  -32.6684   25.0556 H   0  0  0  0  0  0
  -28.0556  -31.8220   26.5526 H   0  0  0  0  0  0
  -28.2525  -38.0014   24.7505 H   0  0  0  0  0  0
  -28.0992  -36.2547   24.6346 H   0  0  0  0  0  0
  -27.2201  -37.1462   25.8861 H   0  0  0  0  0  0
  -20.9268  -29.8793   21.7005 H   0  0  0  0  0  0
  -26.0053  -38.2780   24.1576 H   0  0  0  0  0  0
  -27.7222  -18.8054   16.8925 H   0  0  0  0  0  0
  -27.9316  -21.0684   17.7354 H   0  0  0  0  0  0
  -30.4259  -19.6470   20.9552 H   0  0  0  0  0  0
  -31.3057  -17.1211   20.7200 H   0  0  0  0  0  0
  -30.2457  -15.2503   16.5116 H   0  0  0  0  0  0
  -31.0750  -16.1071   17.7882 H   0  0  0  0  0  0
  -30.6193  -16.9557   16.3209 H   0  0  0  0  0  0
  -30.1382  -24.1494   18.6770 H   0  0  0  0  0  0
  -30.5275  -25.1200   20.1030 H   0  0  0  0  0  0
  -30.2020  -25.8917   18.5521 H   0  0  0  0  0  0
  -26.6219  -23.3327   22.0085 H   0  0  0  0  0  0
  -26.2273  -24.8854   21.3404 H   0  0  0  0  0  0
  -27.7098  -24.6889   22.2820 H   0  0  0  0  0  0
  -26.3674  -22.2891   19.7525 H   0  0  0  0  0  0
  -27.2776  -22.9191   18.3765 H   0  0  0  0  0  0
  -25.9715  -23.8379   19.0503 H   0  0  0  0  0  0
  -28.1909  -16.5916   16.8662 H   0  0  0  0  0  0
  -28.5843  -15.7545   18.3067 H   0  0  0  0  0  0
  -28.2942  -21.9553   21.3140 H   0  0  0  0  0  0
  -29.6028  -23.0870   21.3307 H   0  0  0  0  0  0
  -27.9356  -25.2644   18.5786 H   0  0  0  0  0  0
  1 25  1  0  0  0
  1 30  2  0  0  0
  1 86  1  0  0  0
  2  3  1  0  0  0
  2 25  1  0  0  0
  2 88  1  0  0  0
  2 89  1  0  0  0
  3  4  1  0  0  0
  3 90  1  0  0  0
  3 91  1  0  0  0
  4  5  1  0  0  0
  4 92  1  0  0  0
  4 93  1  0  0  0
  5  6  1  0  0  0
  5 26  1  0  0  0
  5 94  1  0  0  0
  6 25  1  0  0  0
  6 95  1  0  0  0
  6 96  1  0  0  0
  7  8  2  0  0  0
  7 26  1  0  0  0
  7 29  1  0  0  0
  8  9  1  0  0  0
  8 22  1  0  0  0
  9 10  1  0  0  0
  9 27  2  0  0  0
 10 11  2  0  0  0
 10 15  1  0  0  0
 11 12  1  0  0  0
 11 97  1  0  0  0
 12 13  2  0  0  0
 12 98  1  0  0  0
 13 14  1  0  0  0
 13 31  1  0  0  0
 14 15  2  0  0  0
 14 99  1  0  0  0
 15100  1  0  0  0
 16 17  2  0  0  0
 16 21  1  0  0  0
 16 31  1  0  0  0
 17 18  1  0  0  0
 17101  1  0  0  0
 18 19  2  0  0  0
 18102  1  0  0  0
 19 20  1  0  0  0
 19 24  1  0  0  0
 20 21  2  0  0  0
 20103  1  0  0  0
 21 23  1  0  0  0
 22 28  1  0  0  0
 22 32  2  0  0  0
 26 27  1  0  0  0
 28104  1  0  0  0
 28105  1  0  0  0
 29106  1  0  0  0
 29107  1  0  0  0
 33 34  1  0  0  0
 33 66  1  0  0  0
 33 70  2  0  0  0
 34 36  1  0  0  0
 34 59  1  0  0  0
 34108  1  0  0  0
 35 44  2  0  0  0
 35 45  1  0  0  0
 35 68  1  0  0  0
 36 56  1  0  0  0
 36109  1  0  0  0
 37 39  1  0  0  0
 37 47  1  0  0  0
 37 66  1  0  0  0
 37110  1  0  0  0
 38 43  2  0  0  0
 38 46  1  0  0  0
 38 47  1  0  0  0
 39 64  1  0  0  0
 39 67  2  0  0  0
 40 52  1  0  0  0
 40 53  2  0  0  0
 40 58  1  0  0  0
 41111  1  0  0  0
 41112  1  0  0  0
 41113  1  0  0  0
 41 48  1  0  0  0
 42 43  1  0  0  0
 42 66  1  0  0  0
 42114  1  0  0  0
 42115  1  0  0  0
 43 44  1  0  0  0
 44116  1  0  0  0
 45 46  2  0  0  0
 45117  1  0  0  0
 46118  1  0  0  0
 47119  1  0  0  0
 47120  1  0  0  0
 48 56  1  0  0  0
 48 65  1  0  0  0
 48121  1  0  0  0
 49 50  1  0  0  0
 49 53  1  0  0  0
 49 64  1  0  0  0
 49122  1  0  0  0
 50 51  1  0  0  0
 50123  1  0  0  0
 50124  1  0  0  0
 51 52  1  0  0  0
 51125  1  0  0  0
 51126  1  0  0  0
 52127  1  0  0  0
 52128  1  0  0  0
 53 54  1  0  0  0
 54 55  2  0  0  0
 54129  1  0  0  0
 55 57  1  0  0  0
 55130  1  0  0  0
 56 69  2  0  0  0
 57 58  2  0  0  0
 57131  1  0  0  0
 58132  1  0  0  0
 59 60  1  0  0  0
 59 61  1  0  0  0
 59 62  1  0  0  0
 60133  1  0  0  0
 60134  1  0  0  0
 60135  1  0  0  0
 61136  1  0  0  0
 61137  1  0  0  0
 61138  1  0  0  0
 62139  1  0  0  0
 62140  1  0  0  0
 62141  1  0  0  0
 63 65  1  0  0  0
 63142  1  0  0  0
 63143  1  0  0  0
 63144  1  0  0  0
 64145  1  0  0  0
 65146  1  0  0  0
 68 84  1  0  0  0
 71 72  2  0  0  0
 71 75  1  0  0  0
 71147  1  0  0  0
 72 76  1  0  0  0
 72148  1  0  0  0
 73 74  1  0  0  0
 73 76  2  0  0  0
 73149  1  0  0  0
 74 75  2  0  0  0
 74 77  1  0  0  0
 75 82  1  0  0  0
 76 87  1  0  0  0
 77 86  2  0  0  0
 77150  1  0  0  0
 78 82  1  0  0  0
 78151  1  0  0  0
 78152  1  0  0  0
 78153  1  0  0  0
 79154  1  0  0  0
 79155  1  0  0  0
 79156  1  0  0  0
 79 84  1  0  0  0
 80157  1  0  0  0
 80158  1  0  0  0
 80159  1  0  0  0
 80 85  1  0  0  0
 81 85  1  0  0  0
 81160  1  0  0  0
 81161  1  0  0  0
 81162  1  0  0  0
 82163  1  0  0  0
 82164  1  0  0  0
 83 85  1  0  0  0
 83 87  1  0  0  0
 83165  1  0  0  0
 83166  1  0  0  0
 84 85  1  0  0  0
 84167  1  0  0  0
M  ISO  4   1 100  68 101  84 101  86 100
M  END
> <chiral flag>
0

> <version>
0

> <s_m_source_file>
/data/baiqing/PycharmProjects/Reinvent-master-3.2/result/LINK_invent/BTK/process_docking_weight1_custom_product_contain_oxygen_bond_distance_aromatic_linkinvent_7_9_3/rearranged_h_0139.sdf

> <i_m_source_file_index>
26

> <r_mmod_Potential_Energy-OPLS-2005>
189.907196044922

> <r_mmod_Stretch_Energy-OPLS-2005>
79.3821792602539

> <r_mmod_Bend_Energy-OPLS-2005>
163.681488037109

> <r_mmod_Torsional_Energy-OPLS-2005>
275.045989990234

> <r_mmod_Improper_Torsional_Energy-OPLS-2005>
9.60850429534912

> <r_mmod_Van_der_Waal_Energy-OPLS-2005>
155.905120849609

> <r_mmod_Electrostatic_Energy-OPLS-2005>
-367.694793701172

> <r_mmod_Solvation_Energy-OPLS-2005>
-170.949020385742

> <b_mmod_Minimization_Converged-OPLS-2005>
0

> <r_mmod_RMS_Derivative-OPLS-2005>
5.54914808273315

$$$$
26
                    3D
 Structure written by MMmdl.
159167  0  0  1  0            999 V2000
  -30.5912  -14.6484   20.4966 C   0  0  0  0  0  0
  -30.4474  -12.3986   19.4437 C   0  0  0  0  0  0
  -29.5130  -12.5214   18.2177 C   0  0  0  0  0  0
  -28.0339  -12.3544   18.6250 C   0  0  0  0  0  0
  -27.6545  -13.2112   19.8634 C   0  0  2  0  0  0
  -28.7002  -13.0426   20.9898 C   0  0  0  0  0  0
  -25.2573  -13.8138   20.5688 C   0  0  0  0  0  0
  -24.1825  -13.0419   20.9174 C   0  0  0  0  0  0
  -24.6375  -11.6888   20.8704 C   0  0  0  0  0  0
  -23.9041  -10.4282   21.0389 C   0  0  0  0  0  0
  -24.3597   -9.4209   21.9173 C   0  0  0  0  0  0
  -23.6280   -8.2241   22.0746 C   0  0  0  0  0  0
  -22.4256   -8.0276   21.3551 C   0  0  0  0  0  0
  -21.9890   -9.0242   20.4647 C   0  0  0  0  0  0
  -22.7215  -10.2117   20.3052 C   0  0  0  0  0  0
  -21.6859   -6.0723   22.5274 C   0  0  0  0  0  0
  -21.4009   -6.5625   23.8205 C   0  0  0  0  0  0
  -21.3662   -5.6781   24.9173 C   0  0  0  0  0  0
  -21.6050   -4.3045   24.7222 C   0  0  0  0  0  0
  -21.8822   -3.8137   23.4344 C   0  0  0  0  0  0
  -21.9191   -4.6951   22.3400 C   0  0  0  0  0  0
  -22.7849  -13.5232   21.1840 C   0  0  0  0  0  0
  -22.1663   -4.2137   21.0977 F   0  0  0  0  0  0
  -21.5631   -3.4531   25.7736 F   0  0  0  0  0  0
  -30.0146  -13.4058   20.4323 N   0  0  0  0  0  0
  -26.2988  -12.9312   20.3294 N   0  0  0  0  0  0
  -25.9297  -11.6470   20.5697 N   0  0  0  0  0  0
  -22.0472  -12.8248   22.0396 N   0  0  0  0  0  0
  -25.4288  -15.1858   20.4147 N   0  0  0  0  0  0
  -31.7514  -14.8430   20.1182 O   0  0  0  0  0  0
  -21.6636   -6.8865   21.4243 O   0  0  0  0  0  0
  -22.3563  -14.5548   20.6693 O   0  0  0  0  0  0
  -24.6274  -31.8586   23.2011 C   0  0  0  0  0  0
  -25.9113  -32.4765   23.8351 C   0  0  1  0  0  0
  -27.2262  -27.3119   20.1260 C   0  0  0  0  0  0
  -25.5918  -33.8567   24.2274 N   0  0  0  0  0  0
  -23.4224  -30.4803   21.5439 C   0  0  2  0  0  0
  -24.8706  -28.9284   20.1138 C   0  0  0  0  0  0
  -22.7485  -29.4610   22.4935 C   0  0  0  0  0  0
  -18.0282  -28.1389   22.8483 C   0  0  0  0  0  0
  -24.1479  -36.7280   23.2642 C   0  0  0  0  0  0
  -25.9636  -30.7851   21.3745 C   0  0  0  0  0  0
  -26.0382  -29.4101   20.7212 C   0  0  0  0  0  0
  -27.2211  -28.6130   20.7150 C   0  0  0  0  0  0
  -26.0445  -26.8841   19.4864 C   0  0  0  0  0  0
  -24.8751  -27.6711   19.4872 C   0  0  0  0  0  0
  -23.6390  -29.8118   20.1601 C   0  0  0  0  0  0
  -25.4101  -36.3074   24.0336 C   0  0  1  0  0  0
  -20.5885  -28.3693   23.1276 C   0  0  2  0  0  0
  -20.6766  -26.9413   22.5409 C   0  0  0  0  0  0
  -19.5744  -26.6384   21.5206 C   0  0  0  0  0  0
  -18.1921  -26.7933   22.1618 C   0  0  0  0  0  0
  -19.1536  -28.8862   23.2872 C   0  0  0  0  0  0
  -18.9463  -30.1458   23.8892 C   0  0  0  0  0  0
  -17.6465  -30.6598   24.0557 C   0  0  0  0  0  0
  -25.9041  -34.9449   23.5108 C   0  0  0  0  0  0
  -16.5353  -29.9092   23.6333 C   0  0  0  0  0  0
  -16.7268  -28.6509   23.0355 C   0  0  0  0  0  0
  -26.4499  -31.6572   25.0721 C   0  0  0  0  0  0
  -25.3727  -31.3717   26.1449 C   0  0  0  0  0  0
  -27.0333  -30.2988   24.6188 C   0  0  0  0  0  0
  -27.6069  -32.4301   25.7486 C   0  0  0  0  0  0
  -27.5575  -37.1786   24.8462 C   0  0  0  0  0  0
  -21.4188  -29.3044   22.3670 N   0  0  0  0  0  0
  -26.4275  -37.3776   23.9421 N   0  0  0  0  0  0
  -24.6898  -31.0585   22.0967 N   0  0  0  0  0  0
  -23.4189  -28.8153   23.3024 O   0  0  0  0  0  0
  -28.3463  -26.4656   20.1113 O   0  0  0  0  0  0
  -26.5617  -34.8926   22.4676 O   0  0  0  0  0  0
  -23.5428  -32.1390   23.7326 O   0  0  0  0  0  0
  -30.6607  -18.0430   21.0048 C   0  0  0  0  0  0
  -30.4852  -19.4499   20.7907 C   0  0  0  0  0  0
  -28.5815  -17.6289   19.8748 C   0  0  0  0  0  0
  -28.4130  -19.0270   19.6424 C   0  0  0  0  0  0
  -29.7099  -17.0908   20.5475 C   0  0  0  0  0  0
  -29.3522  -19.9875   20.1123 C   0  0  0  0  0  0
  -28.9500  -22.4164   20.6522 C   0  0  0  0  0  0
  -27.2064  -19.4952   18.8491 C   0  0  0  0  0  0
  -29.5554  -25.4444   21.8172 C   0  0  0  0  0  0
  -27.1044  -24.9348   21.6950 C   0  0  0  0  0  0
  -28.7105  -23.8467   19.9799 C   0  0  0  0  0  0
  -28.3857  -25.1668   20.8550 C   0  0  0  0  0  0
  -29.7387  -15.6607   20.8524 N   0  0  0  0  0  0
  -28.8943  -22.2603   21.8743 O   0  0  0  0  0  0
  -29.2165  -21.3520   19.7592 O   0  0  0  0  0  0
  -31.4887  -12.5363   19.1447 H   0  0  0  0  0  0
  -30.3886  -11.3968   19.8703 H   0  0  0  0  0  0
  -29.7820  -11.7825   17.4617 H   0  0  0  0  0  0
  -29.6528  -13.4973   17.7503 H   0  0  0  0  0  0
  -27.8680  -11.2983   18.8404 H   0  0  0  0  0  0
  -27.3837  -12.6004   17.7836 H   0  0  0  0  0  0
  -27.6770  -14.2487   19.5329 H   0  0  0  0  0  0
  -28.7141  -12.0092   21.3390 H   0  0  0  0  0  0
  -28.4432  -13.6431   21.8642 H   0  0  0  0  0  0
  -25.2742   -9.5699   22.4741 H   0  0  0  0  0  0
  -23.9999   -7.4638   22.7465 H   0  0  0  0  0  0
  -21.0818   -8.8763   19.8952 H   0  0  0  0  0  0
  -22.3677  -10.9651   19.6155 H   0  0  0  0  0  0
  -21.2001   -7.6128   23.9710 H   0  0  0  0  0  0
  -21.1486   -6.0505   25.9075 H   0  0  0  0  0  0
  -22.0599   -2.7600   23.2846 H   0  0  0  0  0  0
  -22.4055  -11.9912   22.4824 H   0  0  0  0  0  0
  -21.1085  -13.1301   22.2551 H   0  0  0  0  0  0
  -24.6666  -15.8424   20.5429 H   0  0  0  0  0  0
  -26.2776  -15.6278   20.0899 H   0  0  0  0  0  0
  -26.7184  -32.5433   23.1102 H   0  0  0  0  0  0
  -25.0050  -33.9709   25.0411 H   0  0  0  0  0  0
  -22.7158  -31.3000   21.3984 H   0  0  0  0  0  0
  -23.3759  -35.9593   23.3287 H   0  0  0  0  0  0
  -24.3575  -36.8919   22.2060 H   0  0  0  0  0  0
  -23.7224  -37.6472   23.6678 H   0  0  0  0  0  0
  -26.0967  -31.5454   20.6037 H   0  0  0  0  0  0
  -26.8438  -30.8358   22.0042 H   0  0  0  0  0  0
  -28.1220  -28.9794   21.1865 H   0  0  0  0  0  0
  -26.0249  -25.9200   18.9997 H   0  0  0  0  0  0
  -23.9833  -27.2987   19.0017 H   0  0  0  0  0  0
  -23.7606  -30.5869   19.4018 H   0  0  0  0  0  0
  -22.7586  -29.2414   19.8575 H   0  0  0  0  0  0
  -25.1280  -36.1922   25.0830 H   0  0  0  0  0  0
  -20.9975  -28.3281   24.1399 H   0  0  0  0  0  0
  -20.5658  -26.2308   23.3615 H   0  0  0  0  0  0
  -21.6644  -26.7438   22.1217 H   0  0  0  0  0  0
  -19.6903  -25.6290   21.1248 H   0  0  0  0  0  0
  -19.6678  -27.3185   20.6723 H   0  0  0  0  0  0
  -17.4188  -26.6685   21.4017 H   0  0  0  0  0  0
  -18.0315  -26.0081   22.9022 H   0  0  0  0  0  0
  -19.7943  -30.7269   24.2274 H   0  0  0  0  0  0
  -17.5025  -31.6281   24.5152 H   0  0  0  0  0  0
  -15.5356  -30.2995   23.7662 H   0  0  0  0  0  0
  -15.8668  -28.0824   22.7084 H   0  0  0  0  0  0
  -24.5880  -30.7093   25.7774 H   0  0  0  0  0  0
  -24.8934  -32.2879   26.4908 H   0  0  0  0  0  0
  -25.8037  -30.8860   27.0211 H   0  0  0  0  0  0
  -26.2903  -29.6738   24.1223 H   0  0  0  0  0  0
  -27.4027  -29.7254   25.4700 H   0  0  0  0  0  0
  -27.8776  -30.4263   23.9415 H   0  0  0  0  0  0
  -27.2704  -33.3614   26.2062 H   0  0  0  0  0  0
  -28.3874  -32.6841   25.0300 H   0  0  0  0  0  0
  -28.0745  -31.8421   26.5396 H   0  0  0  0  0  0
  -28.2579  -38.0098   24.7540 H   0  0  0  0  0  0
  -28.1088  -36.2632   24.6241 H   0  0  0  0  0  0
  -27.2307  -37.1397   25.8870 H   0  0  0  0  0  0
  -20.9381  -29.8743   21.6857 H   0  0  0  0  0  0
  -26.0156  -38.2850   24.1431 H   0  0  0  0  0  0
  -31.5280  -17.7019   21.5515 H   0  0  0  0  0  0
  -31.2482  -20.1253   21.1490 H   0  0  0  0  0  0
  -27.8240  -16.9489   19.5123 H   0  0  0  0  0  0
  -26.5812  -18.6605   18.5304 H   0  0  0  0  0  0
  -27.5319  -20.0265   17.9545 H   0  0  0  0  0  0
  -26.5899  -20.1691   19.4443 H   0  0  0  0  0  0
  -29.7208  -24.6273   22.5179 H   0  0  0  0  0  0
  -29.3744  -26.3400   22.4127 H   0  0  0  0  0  0
  -30.4847  -25.5988   21.2677 H   0  0  0  0  0  0
  -27.2210  -24.1093   22.3956 H   0  0  0  0  0  0
  -26.2498  -24.6881   21.0663 H   0  0  0  0  0  0
  -26.8434  -25.8056   22.2967 H   0  0  0  0  0  0
  -27.9023  -23.7122   19.2620 H   0  0  0  0  0  0
  -29.5968  -24.0501   19.3797 H   0  0  0  0  0  0
  -28.8411  -15.2835   21.1124 H   0  0  0  0  0  0
  1 25  1  0  0  0
  1 30  2  0  0  0
  1 83  1  0  0  0
  2  3  1  0  0  0
  2 25  1  0  0  0
  2 86  1  0  0  0
  2 87  1  0  0  0
  3  4  1  0  0  0
  3 88  1  0  0  0
  3 89  1  0  0  0
  4  5  1  0  0  0
  4 90  1  0  0  0
  4 91  1  0  0  0
  5  6  1  0  0  0
  5 26  1  0  0  0
  5 92  1  0  0  0
  6 25  1  0  0  0
  6 93  1  0  0  0
  6 94  1  0  0  0
  7  8  2  0  0  0
  7 26  1  0  0  0
  7 29  1  0  0  0
  8  9  1  0  0  0
  8 22  1  0  0  0
  9 10  1  0  0  0
  9 27  2  0  0  0
 10 11  2  0  0  0
 10 15  1  0  0  0
 11 12  1  0  0  0
 11 95  1  0  0  0
 12 13  2  0  0  0
 12 96  1  0  0  0
 13 14  1  0  0  0
 13 31  1  0  0  0
 14 15  2  0  0  0
 14 97  1  0  0  0
 15 98  1  0  0  0
 16 17  2  0  0  0
 16 21  1  0  0  0
 16 31  1  0  0  0
 17 18  1  0  0  0
 17 99  1  0  0  0
 18 19  2  0  0  0
 18100  1  0  0  0
 19 20  1  0  0  0
 19 24  1  0  0  0
 20 21  2  0  0  0
 20101  1  0  0  0
 21 23  1  0  0  0
 22 28  1  0  0  0
 22 32  2  0  0  0
 26 27  1  0  0  0
 28102  1  0  0  0
 28103  1  0  0  0
 29104  1  0  0  0
 29105  1  0  0  0
 33 34  1  0  0  0
 33 66  1  0  0  0
 33 70  2  0  0  0
 34 36  1  0  0  0
 34 59  1  0  0  0
 34106  1  0  0  0
 35 44  2  0  0  0
 35 45  1  0  0  0
 35 68  1  0  0  0
 36 56  1  0  0  0
 36107  1  0  0  0
 37 39  1  0  0  0
 37 47  1  0  0  0
 37 66  1  0  0  0
 37108  1  0  0  0
 38 43  2  0  0  0
 38 46  1  0  0  0
 38 47  1  0  0  0
 39 64  1  0  0  0
 39 67  2  0  0  0
 40 52  1  0  0  0
 40 53  2  0  0  0
 40 58  1  0  0  0
 41109  1  0  0  0
 41110  1  0  0  0
 41111  1  0  0  0
 41 48  1  0  0  0
 42 43  1  0  0  0
 42 66  1  0  0  0
 42112  1  0  0  0
 42113  1  0  0  0
 43 44  1  0  0  0
 44114  1  0  0  0
 45 46  2  0  0  0
 45115  1  0  0  0
 46116  1  0  0  0
 47117  1  0  0  0
 47118  1  0  0  0
 48 56  1  0  0  0
 48 65  1  0  0  0
 48119  1  0  0  0
 49 50  1  0  0  0
 49 53  1  0  0  0
 49 64  1  0  0  0
 49120  1  0  0  0
 50 51  1  0  0  0
 50121  1  0  0  0
 50122  1  0  0  0
 51 52  1  0  0  0
 51123  1  0  0  0
 51124  1  0  0  0
 52125  1  0  0  0
 52126  1  0  0  0
 53 54  1  0  0  0
 54 55  2  0  0  0
 54127  1  0  0  0
 55 57  1  0  0  0
 55128  1  0  0  0
 56 69  2  0  0  0
 57 58  2  0  0  0
 57129  1  0  0  0
 58130  1  0  0  0
 59 60  1  0  0  0
 59 61  1  0  0  0
 59 62  1  0  0  0
 60131  1  0  0  0
 60132  1  0  0  0
 60133  1  0  0  0
 61134  1  0  0  0
 61135  1  0  0  0
 61136  1  0  0  0
 62137  1  0  0  0
 62138  1  0  0  0
 62139  1  0  0  0
 63 65  1  0  0  0
 63140  1  0  0  0
 63141  1  0  0  0
 63142  1  0  0  0
 64143  1  0  0  0
 65144  1  0  0  0
 68 82  1  0  0  0
 71 72  2  0  0  0
 71 75  1  0  0  0
 71145  1  0  0  0
 72 76  1  0  0  0
 72146  1  0  0  0
 73 74  1  0  0  0
 73 75  2  0  0  0
 73147  1  0  0  0
 74 76  2  0  0  0
 74 78  1  0  0  0
 75 83  1  0  0  0
 76 85  1  0  0  0
 77 81  1  0  0  0
 77 84  2  0  0  0
 77 85  1  0  0  0
 78148  1  0  0  0
 78149  1  0  0  0
 78150  1  0  0  0
 79151  1  0  0  0
 79152  1  0  0  0
 79153  1  0  0  0
 79 82  1  0  0  0
 80 82  1  0  0  0
 80154  1  0  0  0
 80155  1  0  0  0
 80156  1  0  0  0
 81 82  1  0  0  0
 81157  1  0  0  0
 81158  1  0  0  0
 83159  1  0  0  0
M  ISO  4   1 100  68 101  82 101  83 100
M  END
> <chiral flag>
0

> <version>
0

> <s_m_source_file>
/data/baiqing/PycharmProjects/Reinvent-master-3.2/result/LINK_invent/BTK/process_docking_weight1_custom_product_contain_oxygen_bond_distance_aromatic_linkinvent_7_9_3/rearranged_h_0139.sdf

> <i_m_source_file_index>
27

> <r_mmod_Potential_Energy-OPLS-2005>
102.735527038574

> <r_mmod_Stretch_Energy-OPLS-2005>
92.3577346801758

> <r_mmod_Bend_Energy-OPLS-2005>
155.143432617188

> <r_mmod_Torsional_Energy-OPLS-2005>
246.104354858398

> <r_mmod_Improper_Torsional_Energy-OPLS-2005>
6.23389196395874

> <r_mmod_Van_der_Waal_Energy-OPLS-2005>
135.576507568359

> <r_mmod_Electrostatic_Energy-OPLS-2005>
-371.685943603516

> <r_mmod_Solvation_Energy-OPLS-2005>
-211.403335571289

> <b_mmod_Minimization_Converged-OPLS-2005>
0

> <r_mmod_RMS_Derivative-OPLS-2005>
1.90437567234039

$$$$
27
                    3D
 Structure written by MMmdl.
160169  0  0  1  0            999 V2000
  -30.5773  -14.7714   20.4398 C   0  0  0  0  0  0
  -30.4501  -12.4742   19.4541 C   0  0  0  0  0  0
  -29.5135  -12.4918   18.2241 C   0  0  0  0  0  0
  -28.0401  -12.3063   18.6498 C   0  0  0  0  0  0
  -27.6371  -13.2209   19.8380 C   0  0  2  0  0  0
  -28.6894  -13.1707   20.9667 C   0  0  0  0  0  0
  -25.2500  -13.8162   20.5654 C   0  0  0  0  0  0
  -24.1774  -13.0434   20.9191 C   0  0  0  0  0  0
  -24.6348  -11.6897   20.8740 C   0  0  0  0  0  0
  -23.9024  -10.4278   21.0411 C   0  0  0  0  0  0
  -24.3593   -9.4198   21.9180 C   0  0  0  0  0  0
  -23.6259   -8.2226   22.0757 C   0  0  0  0  0  0
  -22.4238   -8.0262   21.3547 C   0  0  0  0  0  0
  -21.9859   -9.0248   20.4656 C   0  0  0  0  0  0
  -22.7199  -10.2119   20.3069 C   0  0  0  0  0  0
  -21.6845   -6.0717   22.5264 C   0  0  0  0  0  0
  -21.4021   -6.5627   23.8206 C   0  0  0  0  0  0
  -21.3663   -5.6774   24.9166 C   0  0  0  0  0  0
  -21.6045   -4.3036   24.7210 C   0  0  0  0  0  0
  -21.8825   -3.8129   23.4336 C   0  0  0  0  0  0
  -21.9184   -4.6944   22.3395 C   0  0  0  0  0  0
  -22.7788  -13.5237   21.1823 C   0  0  0  0  0  0
  -22.1653   -4.2130   21.0961 F   0  0  0  0  0  0
  -21.5633   -3.4525   25.7733 F   0  0  0  0  0  0
  -29.9783  -13.5350   20.3661 N   0  0  0  0  0  0
  -26.2919  -12.9344   20.3243 N   0  0  0  0  0  0
  -25.9265  -11.6509   20.5724 N   0  0  0  0  0  0
  -22.0421  -12.8290   22.0405 N   0  0  0  0  0  0
  -25.4157  -15.1886   20.4045 N   0  0  0  0  0  0
  -31.7927  -14.8831   20.2599 O   0  0  0  0  0  0
  -21.6621   -6.8846   21.4221 O   0  0  0  0  0  0
  -22.3481  -14.5534   20.6657 O   0  0  0  0  0  0
  -24.6348  -31.8547   23.1965 C   0  0  0  0  0  0
  -25.9168  -32.4746   23.8320 C   0  0  1  0  0  0
  -27.2175  -27.2500   20.1301 C   0  0  0  0  0  0
  -25.5937  -33.8540   24.2245 N   0  0  0  0  0  0
  -23.4303  -30.4782   21.5410 C   0  0  2  0  0  0
  -24.8748  -28.9130   20.1188 C   0  0  0  0  0  0
  -22.7505  -29.4633   22.4913 C   0  0  0  0  0  0
  -18.0300  -28.1392   22.8489 C   0  0  0  0  0  0
  -24.1481  -36.7275   23.2638 C   0  0  0  0  0  0
  -25.9783  -30.7639   21.3758 C   0  0  0  0  0  0
  -26.0507  -29.3844   20.7169 C   0  0  0  0  0  0
  -27.2290  -28.5692   20.7014 C   0  0  0  0  0  0
  -26.0140  -26.8355   19.5274 C   0  0  0  0  0  0
  -24.8596  -27.6436   19.5193 C   0  0  0  0  0  0
  -23.6499  -29.8060   20.1606 C   0  0  0  0  0  0
  -25.4101  -36.3061   24.0328 C   0  0  1  0  0  0
  -20.5910  -28.3723   23.1270 C   0  0  2  0  0  0
  -20.6787  -26.9434   22.5427 C   0  0  0  0  0  0
  -19.5767  -26.6381   21.5222 C   0  0  0  0  0  0
  -18.1936  -26.7929   22.1619 C   0  0  0  0  0  0
  -19.1555  -28.8865   23.2875 C   0  0  0  0  0  0
  -18.9479  -30.1459   23.8919 C   0  0  0  0  0  0
  -17.6484  -30.6603   24.0559 C   0  0  0  0  0  0
  -25.9058  -34.9436   23.5093 C   0  0  0  0  0  0
  -16.5370  -29.9110   23.6321 C   0  0  0  0  0  0
  -16.7287  -28.6507   23.0366 C   0  0  0  0  0  0
  -26.4494  -31.6599   25.0748 C   0  0  0  0  0  0
  -25.3693  -31.3815   26.1471 C   0  0  0  0  0  0
  -27.0327  -30.3006   24.6280 C   0  0  0  0  0  0
  -27.6050  -32.4355   25.7504 C   0  0  0  0  0  0
  -27.5576  -37.1780   24.8457 C   0  0  0  0  0  0
  -21.4211  -29.3062   22.3643 N   0  0  0  0  0  0
  -26.4281  -37.3767   23.9409 N   0  0  0  0  0  0
  -24.7007  -31.0493   22.0948 N   0  0  0  0  0  0
  -23.4197  -28.8186   23.3020 O   0  0  0  0  0  0
  -28.3149  -26.3586   20.1162 O   0  0  0  0  0  0
  -26.5639  -34.8924   22.4668 O   0  0  0  0  0  0
  -23.5489  -32.1365   23.7266 O   0  0  0  0  0  0
  -29.6430  -19.8856   22.0334 C   0  0  0  0  0  0
  -29.4715  -18.4756   20.0614 C   0  0  0  0  0  0
  -30.0830  -17.4669   22.1954 C   0  0  0  0  0  0
  -29.3851  -19.8113   20.6478 C   0  0  0  0  0  0
  -29.9877  -18.7441   22.7925 C   0  0  0  0  0  0
  -29.8175  -17.2745   20.8213 C   0  0  0  0  0  0
  -30.0434  -23.3063   19.6093 C   0  0  0  0  0  0
  -30.3624  -21.7940   19.6104 C   0  0  0  0  0  0
  -28.2020  -22.1421   20.4067 C   0  0  0  0  0  0
  -28.5459  -23.5780   19.7573 C   0  0  2  0  0  0
  -27.9206  -23.6622   18.3499 C   0  0  0  0  0  0
  -28.1307  -24.9301   20.5806 C   0  0  0  0  0  0
  -29.1334  -21.0542   19.9258 N   0  0  0  0  0  0
  -30.2318  -18.8954   24.1602 N   0  0  0  0  0  0
  -29.7375  -15.8753   20.3287 N   0  0  0  0  0  0
  -30.8983  -24.1867   19.4787 O   0  0  0  0  0  0
  -31.4845  -12.6359   19.1437 H   0  0  0  0  0  0
  -30.4326  -11.5051   19.9542 H   0  0  0  0  0  0
  -29.8054  -11.7122   17.5202 H   0  0  0  0  0  0
  -29.6200  -13.4390   17.6920 H   0  0  0  0  0  0
  -27.9079  -11.2604   18.9335 H   0  0  0  0  0  0
  -27.3789  -12.4769   17.7996 H   0  0  0  0  0  0
  -27.6236  -14.2345   19.4378 H   0  0  0  0  0  0
  -28.7355  -12.1783   21.4190 H   0  0  0  0  0  0
  -28.4252  -13.8622   21.7679 H   0  0  0  0  0  0
  -25.2738   -9.5713   22.4743 H   0  0  0  0  0  0
  -23.9989   -7.4636   22.7497 H   0  0  0  0  0  0
  -21.0782   -8.8799   19.8969 H   0  0  0  0  0  0
  -22.3666  -10.9675   19.6195 H   0  0  0  0  0  0
  -21.2037   -7.6130   23.9713 H   0  0  0  0  0  0
  -21.1471   -6.0493   25.9074 H   0  0  0  0  0  0
  -22.0598   -2.7591   23.2835 H   0  0  0  0  0  0
  -22.3986  -11.9990   22.4905 H   0  0  0  0  0  0
  -21.1061  -13.1420   22.2571 H   0  0  0  0  0  0
  -24.6466  -15.8383   20.5180 H   0  0  0  0  0  0
  -26.2588  -15.6372   20.0744 H   0  0  0  0  0  0
  -26.7230  -32.5387   23.1051 H   0  0  0  0  0  0
  -25.0019  -33.9636   25.0351 H   0  0  0  0  0  0
  -22.7295  -31.3026   21.3924 H   0  0  0  0  0  0
  -23.3760  -35.9600   23.3295 H   0  0  0  0  0  0
  -24.3583  -36.8905   22.2062 H   0  0  0  0  0  0
  -23.7234  -37.6465   23.6669 H   0  0  0  0  0  0
  -26.1205  -31.5256   20.6081 H   0  0  0  0  0  0
  -26.8538  -30.8104   22.0131 H   0  0  0  0  0  0
  -28.1350  -28.9324   21.1663 H   0  0  0  0  0  0
  -25.9544  -25.8562   19.0755 H   0  0  0  0  0  0
  -23.9523  -27.2680   19.0692 H   0  0  0  0  0  0
  -23.7806  -30.5799   19.4029 H   0  0  0  0  0  0
  -22.7670  -29.2432   19.8548 H   0  0  0  0  0  0
  -25.1288  -36.1882   25.0822 H   0  0  0  0  0  0
  -20.9993  -28.3309   24.1399 H   0  0  0  0  0  0
  -20.5681  -26.2334   23.3635 H   0  0  0  0  0  0
  -21.6659  -26.7453   22.1236 H   0  0  0  0  0  0
  -19.6930  -25.6278   21.1276 H   0  0  0  0  0  0
  -19.6719  -27.3176   20.6732 H   0  0  0  0  0  0
  -17.4217  -26.6714   21.3998 H   0  0  0  0  0  0
  -18.0336  -26.0070   22.9016 H   0  0  0  0  0  0
  -19.7953  -30.7252   24.2327 H   0  0  0  0  0  0
  -17.5042  -31.6293   24.5149 H   0  0  0  0  0  0
  -15.5374  -30.3027   23.7613 H   0  0  0  0  0  0
  -15.8684  -28.0813   22.7110 H   0  0  0  0  0  0
  -24.5858  -30.7160   25.7831 H   0  0  0  0  0  0
  -24.8887  -32.3011   26.4822 H   0  0  0  0  0  0
  -25.7989  -30.9058   27.0296 H   0  0  0  0  0  0
  -26.2933  -29.6779   24.1243 H   0  0  0  0  0  0
  -27.3901  -29.7264   25.4832 H   0  0  0  0  0  0
  -27.8848  -30.4262   23.9608 H   0  0  0  0  0  0
  -27.2647  -33.3638   26.2106 H   0  0  0  0  0  0
  -28.3828  -32.6957   25.0317 H   0  0  0  0  0  0
  -28.0761  -31.8481   26.5392 H   0  0  0  0  0  0
  -28.2599  -38.0074   24.7503 H   0  0  0  0  0  0
  -28.1059  -36.2603   24.6262 H   0  0  0  0  0  0
  -27.2308  -37.1432   25.8869 H   0  0  0  0  0  0
  -20.9410  -29.8759   21.6823 H   0  0  0  0  0  0
  -26.0152  -38.2833   24.1441 H   0  0  0  0  0  0
  -29.6067  -20.8436   22.5311 H   0  0  0  0  0  0
  -29.2619  -18.3680   19.0061 H   0  0  0  0  0  0
  -30.3139  -16.6092   22.8137 H   0  0  0  0  0  0
  -31.1473  -21.5975   20.3423 H   0  0  0  0  0  0
  -30.7451  -21.4970   18.6338 H   0  0  0  0  0  0
  -27.1783  -21.8560   20.1639 H   0  0  0  0  0  0
  -28.2332  -22.2232   21.4937 H   0  0  0  0  0  0
  -28.2479  -22.8464   17.7042 H   0  0  0  0  0  0
  -28.1974  -24.5985   17.8625 H   0  0  0  0  0  0
  -26.8327  -23.6184   18.3978 H   0  0  0  0  0  0
  -28.6754  -24.8864   21.5247 H   0  0  0  0  0  0
  -27.0933  -24.7947   20.8902 H   0  0  0  0  0  0
  -29.7885  -19.6751   24.6407 H   0  0  0  0  0  0
  -30.2932  -18.0705   24.7476 H   0  0  0  0  0  0
  -28.8133  -15.6155   20.0256 H   0  0  0  0  0  0
  1 25  1  0  0  0
  1 30  2  0  0  0
  1 85  1  0  0  0
  2  3  1  0  0  0
  2 25  1  0  0  0
  2 87  1  0  0  0
  2 88  1  0  0  0
  3  4  1  0  0  0
  3 89  1  0  0  0
  3 90  1  0  0  0
  4  5  1  0  0  0
  4 91  1  0  0  0
  4 92  1  0  0  0
  5  6  1  0  0  0
  5 26  1  0  0  0
  5 93  1  0  0  0
  6 25  1  0  0  0
  6 94  1  0  0  0
  6 95  1  0  0  0
  7  8  2  0  0  0
  7 26  1  0  0  0
  7 29  1  0  0  0
  8  9  1  0  0  0
  8 22  1  0  0  0
  9 10  1  0  0  0
  9 27  2  0  0  0
 10 11  2  0  0  0
 10 15  1  0  0  0
 11 12  1  0  0  0
 11 96  1  0  0  0
 12 13  2  0  0  0
 12 97  1  0  0  0
 13 14  1  0  0  0
 13 31  1  0  0  0
 14 15  2  0  0  0
 14 98  1  0  0  0
 15 99  1  0  0  0
 16 17  2  0  0  0
 16 21  1  0  0  0
 16 31  1  0  0  0
 17 18  1  0  0  0
 17100  1  0  0  0
 18 19  2  0  0  0
 18101  1  0  0  0
 19 20  1  0  0  0
 19 24  1  0  0  0
 20 21  2  0  0  0
 20102  1  0  0  0
 21 23  1  0  0  0
 22 28  1  0  0  0
 22 32  2  0  0  0
 26 27  1  0  0  0
 28103  1  0  0  0
 28104  1  0  0  0
 29105  1  0  0  0
 29106  1  0  0  0
 33 34  1  0  0  0
 33 66  1  0  0  0
 33 70  2  0  0  0
 34 36  1  0  0  0
 34 59  1  0  0  0
 34107  1  0  0  0
 35 44  2  0  0  0
 35 45  1  0  0  0
 35 68  1  0  0  0
 36 56  1  0  0  0
 36108  1  0  0  0
 37 39  1  0  0  0
 37 47  1  0  0  0
 37 66  1  0  0  0
 37109  1  0  0  0
 38 43  2  0  0  0
 38 46  1  0  0  0
 38 47  1  0  0  0
 39 64  1  0  0  0
 39 67  2  0  0  0
 40 52  1  0  0  0
 40 53  2  0  0  0
 40 58  1  0  0  0
 41110  1  0  0  0
 41111  1  0  0  0
 41112  1  0  0  0
 41 48  1  0  0  0
 42 43  1  0  0  0
 42 66  1  0  0  0
 42113  1  0  0  0
 42114  1  0  0  0
 43 44  1  0  0  0
 44115  1  0  0  0
 45 46  2  0  0  0
 45116  1  0  0  0
 46117  1  0  0  0
 47118  1  0  0  0
 47119  1  0  0  0
 48 56  1  0  0  0
 48 65  1  0  0  0
 48120  1  0  0  0
 49 50  1  0  0  0
 49 53  1  0  0  0
 49 64  1  0  0  0
 49121  1  0  0  0
 50 51  1  0  0  0
 50122  1  0  0  0
 50123  1  0  0  0
 51 52  1  0  0  0
 51124  1  0  0  0
 51125  1  0  0  0
 52126  1  0  0  0
 52127  1  0  0  0
 53 54  1  0  0  0
 54 55  2  0  0  0
 54128  1  0  0  0
 55 57  1  0  0  0
 55129  1  0  0  0
 56 69  2  0  0  0
 57 58  2  0  0  0
 57130  1  0  0  0
 58131  1  0  0  0
 59 60  1  0  0  0
 59 61  1  0  0  0
 59 62  1  0  0  0
 60132  1  0  0  0
 60133  1  0  0  0
 60134  1  0  0  0
 61135  1  0  0  0
 61136  1  0  0  0
 61137  1  0  0  0
 62138  1  0  0  0
 62139  1  0  0  0
 62140  1  0  0  0
 63 65  1  0  0  0
 63141  1  0  0  0
 63142  1  0  0  0
 63143  1  0  0  0
 64144  1  0  0  0
 65145  1  0  0  0
 68 82  1  0  0  0
 71 74  2  0  0  0
 71 75  1  0  0  0
 71146  1  0  0  0
 72 74  1  0  0  0
 72 76  2  0  0  0
 72147  1  0  0  0
 73 75  2  0  0  0
 73 76  1  0  0  0
 73148  1  0  0  0
 74 83  1  0  0  0
 75 84  1  0  0  0
 76 85  1  0  0  0
 77 78  1  0  0  0
 77 80  1  0  0  0
 77 86  2  0  0  0
 78 83  1  0  0  0
 78149  1  0  0  0
 78150  1  0  0  0
 79 80  1  0  0  0
 79 83  1  0  0  0
 79151  1  0  0  0
 79152  1  0  0  0
 80 81  1  0  0  0
 80 82  1  0  0  0
 81153  1  0  0  0
 81154  1  0  0  0
 81155  1  0  0  0
 82156  1  0  0  0
 82157  1  0  0  0
 84158  1  0  0  0
 84159  1  0  0  0
 85160  1  0  0  0
M  ISO  4   1 100  68 101  82 101  85 100
M  END
> <chiral flag>
0

> <version>
0

> <s_m_source_file>
/data/baiqing/PycharmProjects/Reinvent-master-3.2/result/LINK_invent/BTK/process_docking_weight1_custom_product_contain_oxygen_bond_distance_aromatic_linkinvent_7_9_3/rearranged_h_0139.sdf

> <i_m_source_file_index>
28

> <r_mmod_Potential_Energy-OPLS-2005>
366.131103515625

> <r_mmod_Stretch_Energy-OPLS-2005>
127.852592468262

> <r_mmod_Bend_Energy-OPLS-2005>
202.605346679688

> <r_mmod_Torsional_Energy-OPLS-2005>
296.879577636719

> <r_mmod_Improper_Torsional_Energy-OPLS-2005>
20.6884918212891

> <r_mmod_Van_der_Waal_Energy-OPLS-2005>
124.673782348633

> <r_mmod_Electrostatic_Energy-OPLS-2005>
-251.723892211914

> <r_mmod_Solvation_Energy-OPLS-2005>
-254.03825378418

> <b_mmod_Minimization_Converged-OPLS-2005>
0

> <r_mmod_RMS_Derivative-OPLS-2005>
4.05968475341797

$$$$
28
                    3D
 Structure written by MMmdl.
154162  0  0  1  0            999 V2000
  -30.7294  -14.4081   20.6099 C   0  0  0  0  0  0
  -30.4162  -12.2799   19.4115 C   0  0  0  0  0  0
  -29.4901  -12.5157   18.2021 C   0  0  0  0  0  0
  -28.0112  -12.3803   18.6127 C   0  0  0  0  0  0
  -27.6659  -13.2039   19.8823 C   0  0  2  0  0  0
  -28.7043  -12.9518   20.9991 C   0  0  0  0  0  0
  -25.2606  -13.8162   20.5690 C   0  0  0  0  0  0
  -24.1848  -13.0439   20.9172 C   0  0  0  0  0  0
  -24.6394  -11.6906   20.8732 C   0  0  0  0  0  0
  -23.9056  -10.4294   21.0403 C   0  0  0  0  0  0
  -24.3609   -9.4210   21.9181 C   0  0  0  0  0  0
  -23.6289   -8.2244   22.0754 C   0  0  0  0  0  0
  -22.4272   -8.0279   21.3543 C   0  0  0  0  0  0
  -21.9906   -9.0255   20.4647 C   0  0  0  0  0  0
  -22.7229  -10.2137   20.3054 C   0  0  0  0  0  0
  -21.6852   -6.0737   22.5279 C   0  0  0  0  0  0
  -21.4014   -6.5642   23.8213 C   0  0  0  0  0  0
  -21.3662   -5.6793   24.9176 C   0  0  0  0  0  0
  -21.6048   -4.3055   24.7226 C   0  0  0  0  0  0
  -21.8820   -3.8147   23.4345 C   0  0  0  0  0  0
  -21.9194   -4.6965   22.3402 C   0  0  0  0  0  0
  -22.7871  -13.5242   21.1839 C   0  0  0  0  0  0
  -22.1663   -4.2153   21.0979 F   0  0  0  0  0  0
  -21.5628   -3.4537   25.7737 F   0  0  0  0  0  0
  -30.0440  -13.2445   20.4573 N   0  0  0  0  0  0
  -26.3045  -12.9325   20.3399 N   0  0  0  0  0  0
  -25.9321  -11.6485   20.5771 N   0  0  0  0  0  0
  -22.0505  -12.8237   22.0391 N   0  0  0  0  0  0
  -25.4350  -15.1879   20.4109 N   0  0  0  0  0  0
  -31.8219  -14.6112   20.0712 O   0  0  0  0  0  0
  -21.6637   -6.8877   21.4239 O   0  0  0  0  0  0
  -22.3561  -14.5553   20.6697 O   0  0  0  0  0  0
  -24.6084  -31.8714   23.2115 C   0  0  0  0  0  0
  -25.9000  -32.4845   23.8403 C   0  0  1  0  0  0
  -27.2553  -27.4780   20.1077 C   0  0  0  0  0  0
  -25.5873  -33.8640   24.2343 N   0  0  0  0  0  0
  -23.3947  -30.4916   21.5507 C   0  0  2  0  0  0
  -24.8461  -28.9573   20.1203 C   0  0  0  0  0  0
  -22.7380  -29.4668   22.5023 C   0  0  0  0  0  0
  -18.0261  -28.1372   22.8491 C   0  0  0  0  0  0
  -24.1484  -36.7332   23.2638 C   0  0  0  0  0  0
  -25.9144  -30.8548   21.3534 C   0  0  0  0  0  0
  -25.9975  -29.4864   20.7147 C   0  0  0  0  0  0
  -27.2027  -28.7579   20.7072 C   0  0  0  0  0  0
  -26.0912  -26.9608   19.5029 C   0  0  0  0  0  0
  -24.8848  -27.6896   19.5115 C   0  0  0  0  0  0
  -23.6026  -29.8158   20.1672 C   0  0  0  0  0  0
  -25.4102  -36.3127   24.0342 C   0  0  1  0  0  0
  -20.5847  -28.3649   23.1338 C   0  0  2  0  0  0
  -20.6755  -26.9395   22.5421 C   0  0  0  0  0  0
  -19.5739  -26.6385   21.5211 C   0  0  0  0  0  0
  -18.1913  -26.7918   22.1620 C   0  0  0  0  0  0
  -19.1508  -28.8827   23.2913 C   0  0  0  0  0  0
  -18.9438  -30.1436   23.8920 C   0  0  0  0  0  0
  -17.6442  -30.6582   24.0561 C   0  0  0  0  0  0
  -25.9024  -34.9489   23.5141 C   0  0  0  0  0  0
  -16.5334  -29.9086   23.6318 C   0  0  0  0  0  0
  -16.7251  -28.6503   23.0340 C   0  0  0  0  0  0
  -26.4452  -31.6599   25.0703 C   0  0  0  0  0  0
  -25.3742  -31.3687   26.1472 C   0  0  0  0  0  0
  -27.0264  -30.3049   24.6019 C   0  0  0  0  0  0
  -27.6037  -32.4304   25.7465 C   0  0  0  0  0  0
  -27.5584  -37.1814   24.8460 C   0  0  0  0  0  0
  -21.4116  -29.3023   22.3762 N   0  0  0  0  0  0
  -26.4290  -37.3805   23.9414 N   0  0  0  0  0  0
  -24.6571  -31.0861   22.0987 N   0  0  0  0  0  0
  -23.4174  -28.8223   23.3061 O   0  0  0  0  0  0
  -28.4041  -26.7235   20.0294 O   0  0  0  0  0  0
  -26.5593  -34.8933   22.4707 O   0  0  0  0  0  0
  -23.5292  -32.1439   23.7546 O   0  0  0  0  0  0
  -31.1720  -18.8353   20.9201 C   0  0  0  0  0  0
  -31.3194  -17.4304   20.7537 C   0  0  0  0  0  0
  -30.0530  -19.1966   21.6317 C   0  0  0  0  0  0
  -30.3154  -16.6903   21.3351 C   0  0  0  0  0  0
  -29.9461  -21.6156   21.4361 C   0  0  0  0  0  0
  -29.3047  -22.8598   22.0645 C   0  0  0  0  0  0
  -29.5367  -24.1537   21.2541 C   0  0  0  0  0  0
  -29.0407  -25.4193   21.9737 C   0  0  0  0  0  0
  -29.2794  -26.7002   21.1589 C   0  0  0  0  0  0
  -29.5989  -20.4324   21.9713 N   0  0  0  0  0  0
  -30.1017  -15.3459   21.3408 N   0  0  0  0  0  0
  -30.7273  -21.7351   20.4878 O   0  0  0  0  0  0
  -29.1914  -17.7619   22.1391 S   0  0  0  0  0  0
  -31.4618  -12.3678   19.1105 H   0  0  0  0  0  0
  -30.3026  -11.2624   19.7883 H   0  0  0  0  0  0
  -29.7231  -11.8094   17.4043 H   0  0  0  0  0  0
  -29.6675  -13.5108   17.7908 H   0  0  0  0  0  0
  -27.8109  -11.3231   18.7910 H   0  0  0  0  0  0
  -27.3637  -12.6753   17.7865 H   0  0  0  0  0  0
  -27.7210  -14.2575   19.6067 H   0  0  0  0  0  0
  -28.6664  -11.9093   21.3189 H   0  0  0  0  0  0
  -28.4628  -13.5300   21.8916 H   0  0  0  0  0  0
  -25.2753   -9.5690   22.4753 H   0  0  0  0  0  0
  -24.0003   -7.4638   22.7471 H   0  0  0  0  0  0
  -21.0842   -8.8774   19.8951 H   0  0  0  0  0  0
  -22.3688  -10.9678   19.6164 H   0  0  0  0  0  0
  -21.2002   -7.6149   23.9719 H   0  0  0  0  0  0
  -21.1485   -6.0522   25.9080 H   0  0  0  0  0  0
  -22.0597   -2.7609   23.2846 H   0  0  0  0  0  0
  -22.4114  -11.9892   22.4770 H   0  0  0  0  0  0
  -21.1128  -13.1284   22.2598 H   0  0  0  0  0  0
  -24.6733  -15.8481   20.5213 H   0  0  0  0  0  0
  -26.2952  -15.6245   20.1030 H   0  0  0  0  0  0
  -26.7082  -32.5595   23.1191 H   0  0  0  0  0  0
  -25.0010  -33.9809   25.0478 H   0  0  0  0  0  0
  -22.6803  -31.3052   21.4094 H   0  0  0  0  0  0
  -23.3736  -35.9676   23.3307 H   0  0  0  0  0  0
  -24.3583  -36.8934   22.2052 H   0  0  0  0  0  0
  -23.7242  -37.6545   23.6640 H   0  0  0  0  0  0
  -26.0077  -31.6152   20.5770 H   0  0  0  0  0  0
  -26.8087  -30.9242   21.9606 H   0  0  0  0  0  0
  -28.0846  -29.2080   21.1375 H   0  0  0  0  0  0
  -26.1230  -25.9902   19.0277 H   0  0  0  0  0  0
  -24.0019  -27.2746   19.0450 H   0  0  0  0  0  0
  -23.7033  -30.5863   19.4019 H   0  0  0  0  0  0
  -22.7303  -29.2267   19.8772 H   0  0  0  0  0  0
  -25.1274  -36.1995   25.0834 H   0  0  0  0  0  0
  -20.9931  -28.3204   24.1462 H   0  0  0  0  0  0
  -20.5655  -26.2261   23.3603 H   0  0  0  0  0  0
  -21.6628  -26.7444   22.1220 H   0  0  0  0  0  0
  -19.6905  -25.6302   21.1225 H   0  0  0  0  0  0
  -19.6679  -27.3213   20.6755 H   0  0  0  0  0  0
  -17.4189  -26.6670   21.4015 H   0  0  0  0  0  0
  -18.0310  -26.0054   22.9009 H   0  0  0  0  0  0
  -19.7914  -30.7243   24.2307 H   0  0  0  0  0  0
  -17.4996  -31.6265   24.5157 H   0  0  0  0  0  0
  -15.5337  -30.2998   23.7622 H   0  0  0  0  0  0
  -15.8651  -28.0832   22.7037 H   0  0  0  0  0  0
  -24.5902  -30.7049   25.7809 H   0  0  0  0  0  0
  -24.8953  -32.2837   26.4962 H   0  0  0  0  0  0
  -25.8115  -30.8827   27.0202 H   0  0  0  0  0  0
  -26.2780  -29.6838   24.1081 H   0  0  0  0  0  0
  -27.4062  -29.7248   25.4439 H   0  0  0  0  0  0
  -27.8599  -30.4380   23.9119 H   0  0  0  0  0  0
  -27.2657  -33.3582   26.2094 H   0  0  0  0  0  0
  -28.3825  -32.6897   25.0280 H   0  0  0  0  0  0
  -28.0730  -31.8396   26.5344 H   0  0  0  0  0  0
  -28.2597  -38.0117   24.7521 H   0  0  0  0  0  0
  -28.1083  -36.2651   24.6258 H   0  0  0  0  0  0
  -27.2312  -37.1436   25.8865 H   0  0  0  0  0  0
  -20.9276  -29.8751   21.6992 H   0  0  0  0  0  0
  -26.0184  -38.2883   24.1419 H   0  0  0  0  0  0
  -31.8980  -19.5187   20.5033 H   0  0  0  0  0  0
  -32.1571  -17.0352   20.1980 H   0  0  0  0  0  0
  -29.7182  -22.9739   23.0672 H   0  0  0  0  0  0
  -28.2340  -22.6881   22.1838 H   0  0  0  0  0  0
  -29.0433  -24.0672   20.2848 H   0  0  0  0  0  0
  -30.6017  -24.2705   21.0454 H   0  0  0  0  0  0
  -29.5675  -25.5104   22.9245 H   0  0  0  0  0  0
  -27.9816  -25.3302   22.2193 H   0  0  0  0  0  0
  -30.3081  -26.7269   20.7974 H   0  0  0  0  0  0
  -29.1807  -27.5574   21.8214 H   0  0  0  0  0  0
  -28.8917  -20.4650   22.6941 H   0  0  0  0  0  0
  -29.2564  -15.0336   21.7944 H   0  0  0  0  0  0
  1 25  1  0  0  0
  1 30  2  0  0  0
  1 81  1  0  0  0
  2  3  1  0  0  0
  2 25  1  0  0  0
  2 84  1  0  0  0
  2 85  1  0  0  0
  3  4  1  0  0  0
  3 86  1  0  0  0
  3 87  1  0  0  0
  4  5  1  0  0  0
  4 88  1  0  0  0
  4 89  1  0  0  0
  5  6  1  0  0  0
  5 26  1  0  0  0
  5 90  1  0  0  0
  6 25  1  0  0  0
  6 91  1  0  0  0
  6 92  1  0  0  0
  7  8  2  0  0  0
  7 26  1  0  0  0
  7 29  1  0  0  0
  8  9  1  0  0  0
  8 22  1  0  0  0
  9 10  1  0  0  0
  9 27  2  0  0  0
 10 11  2  0  0  0
 10 15  1  0  0  0
 11 12  1  0  0  0
 11 93  1  0  0  0
 12 13  2  0  0  0
 12 94  1  0  0  0
 13 14  1  0  0  0
 13 31  1  0  0  0
 14 15  2  0  0  0
 14 95  1  0  0  0
 15 96  1  0  0  0
 16 17  2  0  0  0
 16 21  1  0  0  0
 16 31  1  0  0  0
 17 18  1  0  0  0
 17 97  1  0  0  0
 18 19  2  0  0  0
 18 98  1  0  0  0
 19 20  1  0  0  0
 19 24  1  0  0  0
 20 21  2  0  0  0
 20 99  1  0  0  0
 21 23  1  0  0  0
 22 28  1  0  0  0
 22 32  2  0  0  0
 26 27  1  0  0  0
 28100  1  0  0  0
 28101  1  0  0  0
 29102  1  0  0  0
 29103  1  0  0  0
 33 34  1  0  0  0
 33 66  1  0  0  0
 33 70  2  0  0  0
 34 36  1  0  0  0
 34 59  1  0  0  0
 34104  1  0  0  0
 35 44  2  0  0  0
 35 45  1  0  0  0
 35 68  1  0  0  0
 36 56  1  0  0  0
 36105  1  0  0  0
 37 39  1  0  0  0
 37 47  1  0  0  0
 37 66  1  0  0  0
 37106  1  0  0  0
 38 43  2  0  0  0
 38 46  1  0  0  0
 38 47  1  0  0  0
 39 64  1  0  0  0
 39 67  2  0  0  0
 40 52  1  0  0  0
 40 53  2  0  0  0
 40 58  1  0  0  0
 41107  1  0  0  0
 41108  1  0  0  0
 41109  1  0  0  0
 41 48  1  0  0  0
 42 43  1  0  0  0
 42 66  1  0  0  0
 42110  1  0  0  0
 42111  1  0  0  0
 43 44  1  0  0  0
 44112  1  0  0  0
 45 46  2  0  0  0
 45113  1  0  0  0
 46114  1  0  0  0
 47115  1  0  0  0
 47116  1  0  0  0
 48 56  1  0  0  0
 48 65  1  0  0  0
 48117  1  0  0  0
 49 50  1  0  0  0
 49 53  1  0  0  0
 49 64  1  0  0  0
 49118  1  0  0  0
 50 51  1  0  0  0
 50119  1  0  0  0
 50120  1  0  0  0
 51 52  1  0  0  0
 51121  1  0  0  0
 51122  1  0  0  0
 52123  1  0  0  0
 52124  1  0  0  0
 53 54  1  0  0  0
 54 55  2  0  0  0
 54125  1  0  0  0
 55 57  1  0  0  0
 55126  1  0  0  0
 56 69  2  0  0  0
 57 58  2  0  0  0
 57127  1  0  0  0
 58128  1  0  0  0
 59 60  1  0  0  0
 59 61  1  0  0  0
 59 62  1  0  0  0
 60129  1  0  0  0
 60130  1  0  0  0
 60131  1  0  0  0
 61132  1  0  0  0
 61133  1  0  0  0
 61134  1  0  0  0
 62135  1  0  0  0
 62136  1  0  0  0
 62137  1  0  0  0
 63 65  1  0  0  0
 63138  1  0  0  0
 63139  1  0  0  0
 63140  1  0  0  0
 64141  1  0  0  0
 65142  1  0  0  0
 68 79  1  0  0  0
 71 72  1  0  0  0
 71 73  2  0  0  0
 71143  1  0  0  0
 72 74  2  0  0  0
 72144  1  0  0  0
 73 80  1  0  0  0
 73 83  1  0  0  0
 74 81  1  0  0  0
 74 83  1  0  0  0
 75 76  1  0  0  0
 75 80  1  0  0  0
 75 82  2  0  0  0
 76 77  1  0  0  0
 76145  1  0  0  0
 76146  1  0  0  0
 77 78  1  0  0  0
 77147  1  0  0  0
 77148  1  0  0  0
 78 79  1  0  0  0
 78149  1  0  0  0
 78150  1  0  0  0
 79151  1  0  0  0
 79152  1  0  0  0
 80153  1  0  0  0
 81154  1  0  0  0
M  ISO  4   1 100  68 101  79 101  81 100
M  END
> <chiral flag>
0

> <version>
0

> <s_m_source_file>
/data/baiqing/PycharmProjects/Reinvent-master-3.2/result/LINK_invent/BTK/process_docking_weight1_custom_product_contain_oxygen_bond_distance_aromatic_linkinvent_7_9_3/rearranged_h_0139.sdf

> <i_m_source_file_index>
29

> <r_mmod_Potential_Energy-OPLS-2005>
-115.470680236816

> <r_mmod_Stretch_Energy-OPLS-2005>
31.3736934661865

> <r_mmod_Bend_Energy-OPLS-2005>
103.504951477051

> <r_mmod_Torsional_Energy-OPLS-2005>
220.038330078125

> <r_mmod_Improper_Torsional_Energy-OPLS-2005>
2.73374485969543

> <r_mmod_Van_der_Waal_Energy-OPLS-2005>
145.035690307617

> <r_mmod_Electrostatic_Energy-OPLS-2005>
-399.833465576172

> <r_mmod_Solvation_Energy-OPLS-2005>
-224.992614746094

> <b_mmod_Minimization_Converged-OPLS-2005>
0

> <r_mmod_RMS_Derivative-OPLS-2005>
0.782627046108246

$$$$
29
                    3D
 Structure written by MMmdl.
166175  0  0  1  0            999 V2000
  -30.7710  -14.3380   20.6995 C   0  0  0  0  0  0
  -30.4187  -12.2789   19.3884 C   0  0  0  0  0  0
  -29.4834  -12.5256   18.1897 C   0  0  0  0  0  0
  -28.0073  -12.3838   18.6064 C   0  0  0  0  0  0
  -27.6691  -13.1982   19.8821 C   0  0  2  0  0  0
  -28.7050  -12.9201   20.9932 C   0  0  0  0  0  0
  -25.2620  -13.8150   20.5670 C   0  0  0  0  0  0
  -24.1855  -13.0442   20.9158 C   0  0  0  0  0  0
  -24.6395  -11.6901   20.8726 C   0  0  0  0  0  0
  -23.9056  -10.4294   21.0403 C   0  0  0  0  0  0
  -24.3611   -9.4210   21.9182 C   0  0  0  0  0  0
  -23.6288   -8.2245   22.0754 C   0  0  0  0  0  0
  -22.4270   -8.0283   21.3544 C   0  0  0  0  0  0
  -21.9904   -9.0257   20.4647 C   0  0  0  0  0  0
  -22.7230  -10.2136   20.3055 C   0  0  0  0  0  0
  -21.6850   -6.0736   22.5280 C   0  0  0  0  0  0
  -21.4011   -6.5640   23.8213 C   0  0  0  0  0  0
  -21.3659   -5.6793   24.9177 C   0  0  0  0  0  0
  -21.6043   -4.3055   24.7226 C   0  0  0  0  0  0
  -21.8821   -3.8148   23.4348 C   0  0  0  0  0  0
  -21.9193   -4.6965   22.3403 C   0  0  0  0  0  0
  -22.7880  -13.5248   21.1832 C   0  0  0  0  0  0
  -22.1662   -4.2151   21.0982 F   0  0  0  0  0  0
  -21.5631   -3.4540   25.7740 F   0  0  0  0  0  0
  -30.0529  -13.2107   20.4642 N   0  0  0  0  0  0
  -26.3058  -12.9308   20.3385 N   0  0  0  0  0  0
  -25.9318  -11.6471   20.5751 N   0  0  0  0  0  0
  -22.0515  -12.8248   22.0390 N   0  0  0  0  0  0
  -25.4372  -15.1867   20.4090 N   0  0  0  0  0  0
  -31.7815  -14.6417   20.0553 O   0  0  0  0  0  0
  -21.6637   -6.8879   21.4241 O   0  0  0  0  0  0
  -22.3570  -14.5559   20.6686 O   0  0  0  0  0  0
  -24.6070  -31.8721   23.2118 C   0  0  0  0  0  0
  -25.8991  -32.4846   23.8407 C   0  0  1  0  0  0
  -27.2604  -27.4963   20.1003 C   0  0  0  0  0  0
  -25.5872  -33.8643   24.2346 N   0  0  0  0  0  0
  -23.3920  -30.4925   21.5503 C   0  0  2  0  0  0
  -24.8431  -28.9612   20.1192 C   0  0  0  0  0  0
  -22.7366  -29.4672   22.5014 C   0  0  0  0  0  0
  -18.0259  -28.1373   22.8491 C   0  0  0  0  0  0
  -24.1488  -36.7328   23.2641 C   0  0  0  0  0  0
  -25.9099  -30.8640   21.3476 C   0  0  0  0  0  0
  -25.9943  -29.4980   20.7056 C   0  0  0  0  0  0
  -27.2034  -28.7799   20.6896 C   0  0  0  0  0  0
  -26.0941  -26.9663   19.5098 C   0  0  0  0  0  0
  -24.8846  -27.6897   19.5180 C   0  0  0  0  0  0
  -23.5983  -29.8174   20.1663 C   0  0  0  0  0  0
  -25.4105  -36.3128   24.0343 C   0  0  1  0  0  0
  -20.5844  -28.3646   23.1336 C   0  0  2  0  0  0
  -20.6752  -26.9391   22.5424 C   0  0  0  0  0  0
  -19.5736  -26.6375   21.5214 C   0  0  0  0  0  0
  -18.1910  -26.7918   22.1621 C   0  0  0  0  0  0
  -19.1510  -28.8825   23.2911 C   0  0  0  0  0  0
  -18.9448  -30.1434   23.8917 C   0  0  0  0  0  0
  -17.6456  -30.6586   24.0565 C   0  0  0  0  0  0
  -25.9026  -34.9490   23.5143 C   0  0  0  0  0  0
  -16.5343  -29.9096   23.6319 C   0  0  0  0  0  0
  -16.7252  -28.6511   23.0339 C   0  0  0  0  0  0
  -26.4455  -31.6601   25.0701 C   0  0  0  0  0  0
  -25.3750  -31.3679   26.1464 C   0  0  0  0  0  0
  -27.0268  -30.3062   24.5997 C   0  0  0  0  0  0
  -27.6041  -32.4303   25.7470 C   0  0  0  0  0  0
  -27.5581  -37.1817   24.8467 C   0  0  0  0  0  0
  -21.4104  -29.3020   22.3750 N   0  0  0  0  0  0
  -26.4298  -37.3801   23.9404 N   0  0  0  0  0  0
  -24.6545  -31.0891   22.0972 N   0  0  0  0  0  0
  -23.4167  -28.8230   23.3045 O   0  0  0  0  0  0
  -28.4010  -26.7277   20.0359 O   0  0  0  0  0  0
  -26.5592  -34.8936   22.4707 O   0  0  0  0  0  0
  -23.5283  -32.1432   23.7565 O   0  0  0  0  0  0
  -31.8391  -17.0216   21.8514 C   0  0  0  0  0  0
  -31.7739  -18.4026   22.1911 C   0  0  0  0  0  0
  -29.3828  -22.9140   23.2364 C   0  0  0  0  0  0
  -28.7557  -21.8073   23.8657 C   0  0  0  0  0  0
  -28.4506  -23.9127   23.2560 C   0  0  0  0  0  0
  -27.5143  -22.2017   24.2818 C   0  0  0  0  0  0
  -30.6446  -16.3571   22.0141 C   0  0  0  0  0  0
  -30.5382  -18.7826   22.6398 C   0  0  0  0  0  0
  -29.3357  -20.4693   23.9482 C   0  0  0  0  0  0
  -26.3652  -21.5366   24.9633 C   0  0  0  0  0  0
  -30.7008  -27.3377   20.2436 C   0  0  0  0  0  0
  -28.4101  -25.2858   22.6751 C   0  0  0  0  0  0
  -29.6065  -25.5951   21.7567 C   0  0  0  0  0  0
  -29.4377  -26.9185   21.0021 C   0  0  2  0  0  0
  -29.1194  -19.6928   25.0208 N   0  0  0  0  0  0
  -30.3215  -15.0728   21.7272 N   0  0  0  0  0  0
  -30.1037  -20.0732   22.9151 N   0  3  0  0  0  0
  -27.3257  -23.5047   23.9183 O   0  0  0  0  0  0
  -29.4422  -17.4267   22.6901 S   0  0  0  0  0  0
  -31.4611  -12.3833   19.0810 H   0  0  0  0  0  0
  -30.3196  -11.2518   19.7433 H   0  0  0  0  0  0
  -29.7118  -11.8253   17.3849 H   0  0  0  0  0  0
  -29.6570  -13.5242   17.7855 H   0  0  0  0  0  0
  -27.8099  -11.3251   18.7797 H   0  0  0  0  0  0
  -27.3549  -12.6834   17.7857 H   0  0  0  0  0  0
  -27.7341  -14.2546   19.6209 H   0  0  0  0  0  0
  -28.6615  -11.8710   21.2899 H   0  0  0  0  0  0
  -28.4476  -13.4776   21.8936 H   0  0  0  0  0  0
  -25.2760   -9.5686   22.4752 H   0  0  0  0  0  0
  -24.0003   -7.4634   22.7473 H   0  0  0  0  0  0
  -21.0833   -8.8773   19.8954 H   0  0  0  0  0  0
  -22.3689  -10.9674   19.6163 H   0  0  0  0  0  0
  -21.1998   -7.6148   23.9717 H   0  0  0  0  0  0
  -21.1479   -6.0523   25.9080 H   0  0  0  0  0  0
  -22.0599   -2.7611   23.2848 H   0  0  0  0  0  0
  -22.4122  -11.9904   22.4776 H   0  0  0  0  0  0
  -21.1136  -13.1283   22.2593 H   0  0  0  0  0  0
  -24.6760  -15.8476   20.5194 H   0  0  0  0  0  0
  -26.2990  -15.6225   20.1041 H   0  0  0  0  0  0
  -26.7076  -32.5599   23.1201 H   0  0  0  0  0  0
  -25.0024  -33.9823   25.0490 H   0  0  0  0  0  0
  -22.6764  -31.3053   21.4103 H   0  0  0  0  0  0
  -23.3740  -35.9670   23.3321 H   0  0  0  0  0  0
  -24.3592  -36.8922   22.2054 H   0  0  0  0  0  0
  -23.7250  -37.6545   23.6639 H   0  0  0  0  0  0
  -25.9997  -31.6275   20.5735 H   0  0  0  0  0  0
  -26.8047  -30.9335   21.9536 H   0  0  0  0  0  0
  -28.0791  -29.2502   21.1096 H   0  0  0  0  0  0
  -26.1255  -25.9902   19.0457 H   0  0  0  0  0  0
  -24.0004  -27.2670   19.0613 H   0  0  0  0  0  0
  -23.6973  -30.5885   19.4012 H   0  0  0  0  0  0
  -22.7269  -29.2269   19.8775 H   0  0  0  0  0  0
  -25.1279  -36.2007   25.0836 H   0  0  0  0  0  0
  -20.9937  -28.3208   24.1456 H   0  0  0  0  0  0
  -20.5656  -26.2258   23.3605 H   0  0  0  0  0  0
  -21.6627  -26.7440   22.1223 H   0  0  0  0  0  0
  -19.6906  -25.6287   21.1240 H   0  0  0  0  0  0
  -19.6685  -27.3189   20.6747 H   0  0  0  0  0  0
  -17.4181  -26.6659   21.4020 H   0  0  0  0  0  0
  -18.0316  -26.0060   22.9018 H   0  0  0  0  0  0
  -19.7933  -30.7232   24.2298 H   0  0  0  0  0  0
  -17.5022  -31.6271   24.5160 H   0  0  0  0  0  0
  -15.5349  -30.3011   23.7636 H   0  0  0  0  0  0
  -15.8646  -28.0847   22.7035 H   0  0  0  0  0  0
  -24.5910  -30.7044   25.7795 H   0  0  0  0  0  0
  -24.8956  -32.2830   26.4953 H   0  0  0  0  0  0
  -25.8125  -30.8816   27.0190 H   0  0  0  0  0  0
  -26.2772  -29.6838   24.1090 H   0  0  0  0  0  0
  -27.4121  -29.7272   25.4400 H   0  0  0  0  0  0
  -27.8565  -30.4411   23.9054 H   0  0  0  0  0  0
  -27.2659  -33.3574   26.2113 H   0  0  0  0  0  0
  -28.3824  -32.6914   25.0287 H   0  0  0  0  0  0
  -28.0736  -31.8387   26.5340 H   0  0  0  0  0  0
  -28.2608  -38.0106   24.7502 H   0  0  0  0  0  0
  -28.1070  -36.2638   24.6300 H   0  0  0  0  0  0
  -27.2304  -37.1477   25.8874 H   0  0  0  0  0  0
  -20.9251  -29.8747   21.6986 H   0  0  0  0  0  0
  -26.0195  -38.2880   24.1402 H   0  0  0  0  0  0
  -32.7503  -16.5828   21.4702 H   0  0  0  0  0  0
  -32.6210  -19.0618   22.0677 H   0  0  0  0  0  0
  -30.3607  -22.9627   22.7788 H   0  0  0  0  0  0
  -26.2177  -20.5269   24.5800 H   0  0  0  0  0  0
  -25.4399  -22.0905   24.8038 H   0  0  0  0  0  0
  -26.5342  -21.4716   26.0377 H   0  0  0  0  0  0
  -31.5452  -27.4605   20.9223 H   0  0  0  0  0  0
  -30.5469  -28.2871   19.7297 H   0  0  0  0  0  0
  -30.9797  -26.5960   19.4955 H   0  0  0  0  0  0
  -28.3618  -26.0219   23.4786 H   0  0  0  0  0  0
  -27.4827  -25.3922   22.1117 H   0  0  0  0  0  0
  -29.7385  -24.7919   21.0305 H   0  0  0  0  0  0
  -30.5157  -25.6224   22.3585 H   0  0  0  0  0  0
  -29.2263  -27.6718   21.7578 H   0  0  0  0  0  0
  -28.5813  -20.0421   25.7979 H   0  0  0  0  0  0
  -29.5635  -18.7956   25.1303 H   0  0  0  0  0  0
  -29.4961  -14.7031   22.1752 H   0  0  0  0  0  0
  -30.4402  -20.7663   22.2625 H   0  0  0  0  0  0
  1 25  1  0  0  0
  1 30  2  0  0  0
  1 86  1  0  0  0
  2  3  1  0  0  0
  2 25  1  0  0  0
  2 90  1  0  0  0
  2 91  1  0  0  0
  3  4  1  0  0  0
  3 92  1  0  0  0
  3 93  1  0  0  0
  4  5  1  0  0  0
  4 94  1  0  0  0
  4 95  1  0  0  0
  5  6  1  0  0  0
  5 26  1  0  0  0
  5 96  1  0  0  0
  6 25  1  0  0  0
  6 97  1  0  0  0
  6 98  1  0  0  0
  7  8  2  0  0  0
  7 26  1  0  0  0
  7 29  1  0  0  0
  8  9  1  0  0  0
  8 22  1  0  0  0
  9 10  1  0  0  0
  9 27  2  0  0  0
 10 11  2  0  0  0
 10 15  1  0  0  0
 11 12  1  0  0  0
 11 99  1  0  0  0
 12 13  2  0  0  0
 12100  1  0  0  0
 13 14  1  0  0  0
 13 31  1  0  0  0
 14 15  2  0  0  0
 14101  1  0  0  0
 15102  1  0  0  0
 16 17  2  0  0  0
 16 21  1  0  0  0
 16 31  1  0  0  0
 17 18  1  0  0  0
 17103  1  0  0  0
 18 19  2  0  0  0
 18104  1  0  0  0
 19 20  1  0  0  0
 19 24  1  0  0  0
 20 21  2  0  0  0
 20105  1  0  0  0
 21 23  1  0  0  0
 22 28  1  0  0  0
 22 32  2  0  0  0
 26 27  1  0  0  0
 28106  1  0  0  0
 28107  1  0  0  0
 29108  1  0  0  0
 29109  1  0  0  0
 33 34  1  0  0  0
 33 66  1  0  0  0
 33 70  2  0  0  0
 34 36  1  0  0  0
 34 59  1  0  0  0
 34110  1  0  0  0
 35 44  2  0  0  0
 35 45  1  0  0  0
 35 68  1  0  0  0
 36 56  1  0  0  0
 36111  1  0  0  0
 37 39  1  0  0  0
 37 47  1  0  0  0
 37 66  1  0  0  0
 37112  1  0  0  0
 38 43  2  0  0  0
 38 46  1  0  0  0
 38 47  1  0  0  0
 39 64  1  0  0  0
 39 67  2  0  0  0
 40 52  1  0  0  0
 40 53  2  0  0  0
 40 58  1  0  0  0
 41113  1  0  0  0
 41114  1  0  0  0
 41115  1  0  0  0
 41 48  1  0  0  0
 42 43  1  0  0  0
 42 66  1  0  0  0
 42116  1  0  0  0
 42117  1  0  0  0
 43 44  1  0  0  0
 44118  1  0  0  0
 45 46  2  0  0  0
 45119  1  0  0  0
 46120  1  0  0  0
 47121  1  0  0  0
 47122  1  0  0  0
 48 56  1  0  0  0
 48 65  1  0  0  0
 48123  1  0  0  0
 49 50  1  0  0  0
 49 53  1  0  0  0
 49 64  1  0  0  0
 49124  1  0  0  0
 50 51  1  0  0  0
 50125  1  0  0  0
 50126  1  0  0  0
 51 52  1  0  0  0
 51127  1  0  0  0
 51128  1  0  0  0
 52129  1  0  0  0
 52130  1  0  0  0
 53 54  1  0  0  0
 54 55  2  0  0  0
 54131  1  0  0  0
 55 57  1  0  0  0
 55132  1  0  0  0
 56 69  2  0  0  0
 57 58  2  0  0  0
 57133  1  0  0  0
 58134  1  0  0  0
 59 60  1  0  0  0
 59 61  1  0  0  0
 59 62  1  0  0  0
 60135  1  0  0  0
 60136  1  0  0  0
 60137  1  0  0  0
 61138  1  0  0  0
 61139  1  0  0  0
 61140  1  0  0  0
 62141  1  0  0  0
 62142  1  0  0  0
 62143  1  0  0  0
 63 65  1  0  0  0
 63144  1  0  0  0
 63145  1  0  0  0
 63146  1  0  0  0
 64147  1  0  0  0
 65148  1  0  0  0
 68 84  1  0  0  0
 71 72  1  0  0  0
 71 77  2  0  0  0
 71149  1  0  0  0
 72 78  2  0  0  0
 72150  1  0  0  0
 73 74  1  0  0  0
 73 75  2  0  0  0
 73151  1  0  0  0
 74 76  2  0  0  0
 74 79  1  0  0  0
 75 82  1  0  0  0
 75 88  1  0  0  0
 76 80  1  0  0  0
 76 88  1  0  0  0
 77 86  1  0  0  0
 77 89  1  0  0  0
 78 87  1  0  0  0
 78 89  1  0  0  0
 79 85  1  0  0  0
 79 87  2  0  0  0
 80152  1  0  0  0
 80153  1  0  0  0
 80154  1  0  0  0
 81155  1  0  0  0
 81156  1  0  0  0
 81157  1  0  0  0
 81 84  1  0  0  0
 82 83  1  0  0  0
 82158  1  0  0  0
 82159  1  0  0  0
 83 84  1  0  0  0
 83160  1  0  0  0
 83161  1  0  0  0
 84162  1  0  0  0
 85163  1  0  0  0
 85164  1  0  0  0
 86165  1  0  0  0
 87166  1  0  0  0
M  CHG  1  87   1
M  ISO  4   1 100  68 101  84 101  86 100
M  END
> <chiral flag>
0

> <version>
0

> <s_m_source_file>
/data/baiqing/PycharmProjects/Reinvent-master-3.2/result/LINK_invent/BTK/process_docking_weight1_custom_product_contain_oxygen_bond_distance_aromatic_linkinvent_7_9_3/rearranged_h_0139.sdf

> <i_m_source_file_index>
30

> <r_mmod_Potential_Energy-OPLS-2005>
-249.663391113281

> <r_mmod_Stretch_Energy-OPLS-2005>
30.0154628753662

> <r_mmod_Bend_Energy-OPLS-2005>
117.063819885254

> <r_mmod_Torsional_Energy-OPLS-2005>
218.449203491211

> <r_mmod_Improper_Torsional_Energy-OPLS-2005>
3.39664578437805

> <r_mmod_Van_der_Waal_Energy-OPLS-2005>
133.192657470703

> <r_mmod_Electrostatic_Energy-OPLS-2005>
-315.535064697266

> <r_mmod_Solvation_Energy-OPLS-2005>
-441.836669921875

> <b_mmod_Minimization_Converged-OPLS-2005>
0

> <r_mmod_RMS_Derivative-OPLS-2005>
0.782058954238892

$$$$
30
                    3D
 Structure written by MMmdl.
169177  0  0  1  0            999 V2000
  -30.7641  -14.3566   20.6821 C   0  0  0  0  0  0
  -30.4108  -12.2763   19.4011 C   0  0  0  0  0  0
  -29.4846  -12.5246   18.1968 C   0  0  0  0  0  0
  -28.0079  -12.3777   18.6083 C   0  0  0  0  0  0
  -27.6651  -13.1995   19.8792 C   0  0  2  0  0  0
  -28.6998  -12.9339   20.9959 C   0  0  0  0  0  0
  -25.2586  -13.8151   20.5656 C   0  0  0  0  0  0
  -24.1832  -13.0442   20.9167 C   0  0  0  0  0  0
  -24.6373  -11.6899   20.8711 C   0  0  0  0  0  0
  -23.9033  -10.4292   21.0388 C   0  0  0  0  0  0
  -24.3597   -9.4213   21.9165 C   0  0  0  0  0  0
  -23.6285   -8.2240   22.0738 C   0  0  0  0  0  0
  -22.4253   -8.0274   21.3549 C   0  0  0  0  0  0
  -21.9889   -9.0238   20.4625 C   0  0  0  0  0  0
  -22.7203  -10.2125   20.3030 C   0  0  0  0  0  0
  -21.6852   -6.0724   22.5288 C   0  0  0  0  0  0
  -21.4011   -6.5633   23.8218 C   0  0  0  0  0  0
  -21.3662   -5.6790   24.9178 C   0  0  0  0  0  0
  -21.6046   -4.3049   24.7233 C   0  0  0  0  0  0
  -21.8823   -3.8143   23.4348 C   0  0  0  0  0  0
  -21.9190   -4.6956   22.3405 C   0  0  0  0  0  0
  -22.7852  -13.5232   21.1849 C   0  0  0  0  0  0
  -22.1661   -4.2145   21.0981 F   0  0  0  0  0  0
  -21.5634   -3.4531   25.7745 F   0  0  0  0  0  0
  -30.0460  -13.2243   20.4645 N   0  0  0  0  0  0
  -26.3023  -12.9313   20.3336 N   0  0  0  0  0  0
  -25.9299  -11.6475   20.5720 N   0  0  0  0  0  0
  -22.0503  -12.8216   22.0403 N   0  0  0  0  0  0
  -25.4345  -15.1865   20.4105 N   0  0  0  0  0  0
  -31.7816  -14.6298   20.0368 O   0  0  0  0  0  0
  -21.6631   -6.8857   21.4240 O   0  0  0  0  0  0
  -22.3535  -14.5541   20.6698 O   0  0  0  0  0  0
  -24.6107  -31.8694   23.2155 C   0  0  0  0  0  0
  -25.9006  -32.4823   23.8428 C   0  0  1  0  0  0
  -27.2419  -27.4628   20.0895 C   0  0  0  0  0  0
  -25.5865  -33.8614   24.2321 N   0  0  0  0  0  0
  -23.4002  -30.4917   21.5544 C   0  0  2  0  0  0
  -24.8443  -28.9595   20.1150 C   0  0  0  0  0  0
  -22.7387  -29.4657   22.4998 C   0  0  0  0  0  0
  -18.0264  -28.1355   22.8496 C   0  0  0  0  0  0
  -24.1498  -36.7321   23.2644 C   0  0  0  0  0  0
  -25.9243  -30.8448   21.3627 C   0  0  0  0  0  0
  -26.0011  -29.4817   20.7059 C   0  0  0  0  0  0
  -27.2029  -28.7442   20.6791 C   0  0  0  0  0  0
  -26.0681  -26.9442   19.5019 C   0  0  0  0  0  0
  -24.8728  -27.6914   19.5064 C   0  0  0  0  0  0
  -23.6050  -29.8204   20.1688 C   0  0  0  0  0  0
  -25.4113  -36.3104   24.0331 C   0  0  1  0  0  0
  -20.5862  -28.3627   23.1304 C   0  0  2  0  0  0
  -20.6744  -26.9356   22.5412 C   0  0  0  0  0  0
  -19.5712  -26.6367   21.5195 C   0  0  0  0  0  0
  -18.1902  -26.7900   22.1619 C   0  0  0  0  0  0
  -19.1517  -28.8797   23.2904 C   0  0  0  0  0  0
  -18.9448  -30.1410   23.8910 C   0  0  0  0  0  0
  -17.6446  -30.6564   24.0543 C   0  0  0  0  0  0
  -25.9030  -34.9467   23.5123 C   0  0  0  0  0  0
  -16.5335  -29.9069   23.6321 C   0  0  0  0  0  0
  -16.7243  -28.6493   23.0343 C   0  0  0  0  0  0
  -26.4464  -31.6621   25.0745 C   0  0  0  0  0  0
  -25.3741  -31.3688   26.1496 C   0  0  0  0  0  0
  -27.0292  -30.3068   24.6108 C   0  0  0  0  0  0
  -27.6038  -32.4329   25.7514 C   0  0  0  0  0  0
  -27.5587  -37.1808   24.8457 C   0  0  0  0  0  0
  -21.4115  -29.3014   22.3720 N   0  0  0  0  0  0
  -26.4285  -37.3788   23.9411 N   0  0  0  0  0  0
  -24.6643  -31.0804   22.1038 N   0  0  0  0  0  0
  -23.4157  -28.8159   23.3002 O   0  0  0  0  0  0
  -28.4392  -26.7833   20.0957 O   0  0  0  0  0  0
  -26.5591  -34.8941   22.4672 O   0  0  0  0  0  0
  -23.5303  -32.1393   23.7572 O   0  0  0  0  0  0
  -31.3619  -19.0826   22.8387 C   0  0  0  0  0  0
  -29.7382  -17.2725   22.6677 C   0  0  0  0  0  0
  -32.0123  -16.9491   21.8529 C   0  0  0  0  0  0
  -30.0582  -18.5898   23.0620 C   0  0  0  0  0  0
  -32.3397  -18.2645   22.2375 C   0  0  0  0  0  0
  -30.7005  -16.4480   22.0441 C   0  0  0  0  0  0
  -27.4829  -23.0820   23.3596 C   0  0  0  0  0  0
  -26.7644  -21.1581   24.7973 C   0  0  0  0  0  0
  -28.9759  -22.3161   25.1961 C   0  0  0  0  0  0
  -29.0235  -19.4333   23.7967 C   0  0  0  0  0  0
  -28.2129  -23.5428   22.0900 C   0  0  0  0  0  0
  -28.6943  -20.8088   23.1582 C   0  0  0  0  0  0
  -27.8401  -24.9748   21.6520 C   0  0  0  0  0  0
  -28.4321  -25.3665   20.2861 C   0  0  0  0  0  0
  -27.9877  -21.8238   24.1146 C   0  0  0  0  0  0
  -33.6307  -18.7499   22.0331 N   0  0  0  0  0  0
  -30.2971  -15.1330   21.6759 N   0  0  0  0  0  0
  -26.5346  -23.7377   23.8046 O   0  0  0  0  0  0
  -31.4575  -12.3616   19.1058 H   0  0  0  0  0  0
  -30.2919  -11.2553   19.7643 H   0  0  0  0  0  0
  -29.7190  -11.8286   17.3911 H   0  0  0  0  0  0
  -29.6576  -13.5254   17.7979 H   0  0  0  0  0  0
  -27.8170  -11.3181   18.7864 H   0  0  0  0  0  0
  -27.3543  -12.6651   17.7835 H   0  0  0  0  0  0
  -27.7244  -14.2526   19.6073 H   0  0  0  0  0  0
  -28.6587  -11.8853   21.2964 H   0  0  0  0  0  0
  -28.4425  -13.4971   21.8927 H   0  0  0  0  0  0
  -25.2745   -9.5702   22.4722 H   0  0  0  0  0  0
  -24.0008   -7.4636   22.7451 H   0  0  0  0  0  0
  -21.0825   -8.8732   19.8929 H   0  0  0  0  0  0
  -22.3653  -10.9650   19.6128 H   0  0  0  0  0  0
  -21.1995   -7.6141   23.9721 H   0  0  0  0  0  0
  -21.1486   -6.0513   25.9083 H   0  0  0  0  0  0
  -22.0596   -2.7603   23.2852 H   0  0  0  0  0  0
  -22.4127  -11.9872   22.4786 H   0  0  0  0  0  0
  -21.1111  -13.1218   22.2600 H   0  0  0  0  0  0
  -24.6732  -15.8460   20.5203 H   0  0  0  0  0  0
  -26.2952  -15.6245   20.1089 H   0  0  0  0  0  0
  -26.7067  -32.5568   23.1183 H   0  0  0  0  0  0
  -24.9956  -33.9766   25.0423 H   0  0  0  0  0  0
  -22.6913  -31.3091   21.4187 H   0  0  0  0  0  0
  -23.3744  -35.9677   23.3302 H   0  0  0  0  0  0
  -24.3538  -36.8952   22.2059 H   0  0  0  0  0  0
  -23.7286  -37.6538   23.6656 H   0  0  0  0  0  0
  -26.0216  -31.6145   20.5973 H   0  0  0  0  0  0
  -26.8175  -30.9019   21.9742 H   0  0  0  0  0  0
  -28.1031  -29.1508   21.1208 H   0  0  0  0  0  0
  -26.0643  -25.9733   19.0276 H   0  0  0  0  0  0
  -23.9854  -27.2867   19.0438 H   0  0  0  0  0  0
  -23.7069  -30.5968   19.4083 H   0  0  0  0  0  0
  -22.7363  -29.2273   19.8771 H   0  0  0  0  0  0
  -25.1301  -36.1959   25.0819 H   0  0  0  0  0  0
  -20.9922  -28.3194   24.1412 H   0  0  0  0  0  0
  -20.5649  -26.2229   23.3615 H   0  0  0  0  0  0
  -21.6624  -26.7396   22.1201 H   0  0  0  0  0  0
  -19.6861  -25.6285   21.1185 H   0  0  0  0  0  0
  -19.6668  -27.3212   20.6757 H   0  0  0  0  0  0
  -17.4186  -26.6679   21.4003 H   0  0  0  0  0  0
  -18.0285  -26.0050   22.9023 H   0  0  0  0  0  0
  -19.7932  -30.7178   24.2358 H   0  0  0  0  0  0
  -17.5012  -31.6268   24.5098 H   0  0  0  0  0  0
  -15.5334  -30.2940   23.7675 H   0  0  0  0  0  0
  -15.8653  -28.0781   22.7054 H   0  0  0  0  0  0
  -24.5915  -30.7039   25.7820 H   0  0  0  0  0  0
  -24.8926  -32.2841   26.4942 H   0  0  0  0  0  0
  -25.8083  -30.8847   27.0248 H   0  0  0  0  0  0
  -26.2813  -29.6852   24.1177 H   0  0  0  0  0  0
  -27.4058  -29.7305   25.4574 H   0  0  0  0  0  0
  -27.8671  -30.4364   23.9250 H   0  0  0  0  0  0
  -27.2633  -33.3597   26.2115 H   0  0  0  0  0  0
  -28.3823  -32.6906   25.0323 H   0  0  0  0  0  0
  -28.0714  -31.8438   26.5403 H   0  0  0  0  0  0
  -28.2590  -38.0143   24.7487 H   0  0  0  0  0  0
  -28.1117  -36.2633   24.6290 H   0  0  0  0  0  0
  -27.2264  -37.1450   25.8863 H   0  0  0  0  0  0
  -20.9279  -29.8790   21.6976 H   0  0  0  0  0  0
  -26.0192  -38.2868   24.1419 H   0  0  0  0  0  0
  -31.6156  -20.0858   23.1480 H   0  0  0  0  0  0
  -28.7464  -16.8854   22.8552 H   0  0  0  0  0  0
  -32.7836  -16.3294   21.4197 H   0  0  0  0  0  0
  -26.3144  -21.8145   25.5426 H   0  0  0  0  0  0
  -27.0188  -20.2415   25.3249 H   0  0  0  0  0  0
  -25.9917  -20.9142   24.0630 H   0  0  0  0  0  0
  -28.4764  -22.9779   25.9063 H   0  0  0  0  0  0
  -29.8078  -22.8731   24.7593 H   0  0  0  0  0  0
  -29.3997  -21.5009   25.7814 H   0  0  0  0  0  0
  -29.3952  -19.5511   24.8119 H   0  0  0  0  0  0
  -28.1030  -18.8554   23.8846 H   0  0  0  0  0  0
  -27.9743  -22.8376   21.2950 H   0  0  0  0  0  0
  -29.2867  -23.4818   22.2652 H   0  0  0  0  0  0
  -28.0887  -20.6439   22.2656 H   0  0  0  0  0  0
  -29.6205  -21.2619   22.8037 H   0  0  0  0  0  0
  -28.1935  -25.6722   22.4140 H   0  0  0  0  0  0
  -26.7557  -25.0877   21.6104 H   0  0  0  0  0  0
  -27.9318  -24.8518   19.4679 H   0  0  0  0  0  0
  -29.4733  -25.0454   20.2442 H   0  0  0  0  0  0
  -33.9318  -19.6220   22.4572 H   0  0  0  0  0  0
  -34.3885  -18.1154   21.7979 H   0  0  0  0  0  0
  -29.4569  -14.7889   22.1135 H   0  0  0  0  0  0
  1 25  1  0  0  0
  1 30  2  0  0  0
  1 87  1  0  0  0
  2  3  1  0  0  0
  2 25  1  0  0  0
  2 89  1  0  0  0
  2 90  1  0  0  0
  3  4  1  0  0  0
  3 91  1  0  0  0
  3 92  1  0  0  0
  4  5  1  0  0  0
  4 93  1  0  0  0
  4 94  1  0  0  0
  5  6  1  0  0  0
  5 26  1  0  0  0
  5 95  1  0  0  0
  6 25  1  0  0  0
  6 96  1  0  0  0
  6 97  1  0  0  0
  7  8  2  0  0  0
  7 26  1  0  0  0
  7 29  1  0  0  0
  8  9  1  0  0  0
  8 22  1  0  0  0
  9 10  1  0  0  0
  9 27  2  0  0  0
 10 11  2  0  0  0
 10 15  1  0  0  0
 11 12  1  0  0  0
 11 98  1  0  0  0
 12 13  2  0  0  0
 12 99  1  0  0  0
 13 14  1  0  0  0
 13 31  1  0  0  0
 14 15  2  0  0  0
 14100  1  0  0  0
 15101  1  0  0  0
 16 17  2  0  0  0
 16 21  1  0  0  0
 16 31  1  0  0  0
 17 18  1  0  0  0
 17102  1  0  0  0
 18 19  2  0  0  0
 18103  1  0  0  0
 19 20  1  0  0  0
 19 24  1  0  0  0
 20 21  2  0  0  0
 20104  1  0  0  0
 21 23  1  0  0  0
 22 28  1  0  0  0
 22 32  2  0  0  0
 26 27  1  0  0  0
 28105  1  0  0  0
 28106  1  0  0  0
 29107  1  0  0  0
 29108  1  0  0  0
 33 34  1  0  0  0
 33 66  1  0  0  0
 33 70  2  0  0  0
 34 36  1  0  0  0
 34 59  1  0  0  0
 34109  1  0  0  0
 35 44  2  0  0  0
 35 45  1  0  0  0
 35 68  1  0  0  0
 36 56  1  0  0  0
 36110  1  0  0  0
 37 39  1  0  0  0
 37 47  1  0  0  0
 37 66  1  0  0  0
 37111  1  0  0  0
 38 43  2  0  0  0
 38 46  1  0  0  0
 38 47  1  0  0  0
 39 64  1  0  0  0
 39 67  2  0  0  0
 40 52  1  0  0  0
 40 53  2  0  0  0
 40 58  1  0  0  0
 41112  1  0  0  0
 41113  1  0  0  0
 41114  1  0  0  0
 41 48  1  0  0  0
 42 43  1  0  0  0
 42 66  1  0  0  0
 42115  1  0  0  0
 42116  1  0  0  0
 43 44  1  0  0  0
 44117  1  0  0  0
 45 46  2  0  0  0
 45118  1  0  0  0
 46119  1  0  0  0
 47120  1  0  0  0
 47121  1  0  0  0
 48 56  1  0  0  0
 48 65  1  0  0  0
 48122  1  0  0  0
 49 50  1  0  0  0
 49 53  1  0  0  0
 49 64  1  0  0  0
 49123  1  0  0  0
 50 51  1  0  0  0
 50124  1  0  0  0
 50125  1  0  0  0
 51 52  1  0  0  0
 51126  1  0  0  0
 51127  1  0  0  0
 52128  1  0  0  0
 52129  1  0  0  0
 53 54  1  0  0  0
 54 55  2  0  0  0
 54130  1  0  0  0
 55 57  1  0  0  0
 55131  1  0  0  0
 56 69  2  0  0  0
 57 58  2  0  0  0
 57132  1  0  0  0
 58133  1  0  0  0
 59 60  1  0  0  0
 59 61  1  0  0  0
 59 62  1  0  0  0
 60134  1  0  0  0
 60135  1  0  0  0
 60136  1  0  0  0
 61137  1  0  0  0
 61138  1  0  0  0
 61139  1  0  0  0
 62140  1  0  0  0
 62141  1  0  0  0
 62142  1  0  0  0
 63 65  1  0  0  0
 63143  1  0  0  0
 63144  1  0  0  0
 63145  1  0  0  0
 64146  1  0  0  0
 65147  1  0  0  0
 68 84  1  0  0  0
 71 74  2  0  0  0
 71 75  1  0  0  0
 71148  1  0  0  0
 72 74  1  0  0  0
 72 76  2  0  0  0
 72149  1  0  0  0
 73 75  2  0  0  0
 73 76  1  0  0  0
 73150  1  0  0  0
 74 80  1  0  0  0
 75 86  1  0  0  0
 76 87  1  0  0  0
 77 81  1  0  0  0
 77 85  1  0  0  0
 77 88  2  0  0  0
 78151  1  0  0  0
 78152  1  0  0  0
 78153  1  0  0  0
 78 85  1  0  0  0
 79 85  1  0  0  0
 79154  1  0  0  0
 79155  1  0  0  0
 79156  1  0  0  0
 80 82  1  0  0  0
 80157  1  0  0  0
 80158  1  0  0  0
 81 83  1  0  0  0
 81159  1  0  0  0
 81160  1  0  0  0
 82 85  1  0  0  0
 82161  1  0  0  0
 82162  1  0  0  0
 83 84  1  0  0  0
 83163  1  0  0  0
 83164  1  0  0  0
 84165  1  0  0  0
 84166  1  0  0  0
 86167  1  0  0  0
 86168  1  0  0  0
 87169  1  0  0  0
M  ISO  4   1 100  68 101  84 101  87 100
M  END
> <chiral flag>
0

> <version>
0

> <s_m_source_file>
/data/baiqing/PycharmProjects/Reinvent-master-3.2/result/LINK_invent/BTK/process_docking_weight1_custom_product_contain_oxygen_bond_distance_aromatic_linkinvent_7_9_3/rearranged_h_0139.sdf

> <i_m_source_file_index>
31

> <r_mmod_Potential_Energy-OPLS-2005>
-41.9775886535645

> <r_mmod_Stretch_Energy-OPLS-2005>
36.7295875549316

> <r_mmod_Bend_Energy-OPLS-2005>
108.557769775391

> <r_mmod_Torsional_Energy-OPLS-2005>
232.30778503418

> <r_mmod_Improper_Torsional_Energy-OPLS-2005>
3.97006750106812

> <r_mmod_Van_der_Waal_Energy-OPLS-2005>
168.391067504883

> <r_mmod_Electrostatic_Energy-OPLS-2005>
-375.217010498047

> <r_mmod_Solvation_Energy-OPLS-2005>
-224.350204467773

> <b_mmod_Minimization_Converged-OPLS-2005>
0

> <r_mmod_RMS_Derivative-OPLS-2005>
4.05818510055542

$$$$
31
                    3D
 Structure written by MMmdl.
159167  0  0  1  0            999 V2000
  -30.6310  -14.6730   20.4496 C   0  0  0  0  0  0
  -30.4253  -12.4023   19.4747 C   0  0  0  0  0  0
  -29.5085  -12.4987   18.2356 C   0  0  0  0  0  0
  -28.0318  -12.3381   18.6443 C   0  0  0  0  0  0
  -27.6463  -13.2279   19.8567 C   0  0  2  0  0  0
  -28.6876  -13.1319   20.9941 C   0  0  0  0  0  0
  -25.2525  -13.8198   20.5693 C   0  0  0  0  0  0
  -24.1807  -13.0447   20.9196 C   0  0  0  0  0  0
  -24.6391  -11.6923   20.8742 C   0  0  0  0  0  0
  -23.9067  -10.4299   21.0404 C   0  0  0  0  0  0
  -24.3618   -9.4213   21.9181 C   0  0  0  0  0  0
  -23.6294   -8.2248   22.0752 C   0  0  0  0  0  0
  -22.4274   -8.0285   21.3545 C   0  0  0  0  0  0
  -21.9910   -9.0258   20.4646 C   0  0  0  0  0  0
  -22.7239  -10.2137   20.3055 C   0  0  0  0  0  0
  -21.6854   -6.0737   22.5278 C   0  0  0  0  0  0
  -21.4017   -6.5640   23.8212 C   0  0  0  0  0  0
  -21.3659   -5.6792   24.9174 C   0  0  0  0  0  0
  -21.6043   -4.3055   24.7224 C   0  0  0  0  0  0
  -21.8819   -3.8147   23.4345 C   0  0  0  0  0  0
  -21.9193   -4.6965   22.3402 C   0  0  0  0  0  0
  -22.7829  -13.5231   21.1858 C   0  0  0  0  0  0
  -22.1662   -4.2151   21.0979 F   0  0  0  0  0  0
  -21.5626   -3.4538   25.7736 F   0  0  0  0  0  0
  -30.0003  -13.4549   20.4230 N   0  0  0  0  0  0
  -26.2953  -12.9399   20.3296 N   0  0  0  0  0  0
  -25.9321  -11.6543   20.5753 N   0  0  0  0  0  0
  -22.0475  -12.8224   22.0417 N   0  0  0  0  0  0
  -25.4228  -15.1921   20.4120 N   0  0  0  0  0  0
  -31.8176  -14.7628   20.1205 O   0  0  0  0  0  0
  -21.6641   -6.8880   21.4240 O   0  0  0  0  0  0
  -22.3512  -14.5536   20.6707 O   0  0  0  0  0  0
  -24.6267  -31.8577   23.2002 C   0  0  0  0  0  0
  -25.9112  -32.4765   23.8333 C   0  0  1  0  0  0
  -27.2252  -27.3045   20.1148 C   0  0  0  0  0  0
  -25.5923  -33.8566   24.2262 N   0  0  0  0  0  0
  -23.4204  -30.4805   21.5425 C   0  0  2  0  0  0
  -24.8656  -28.9301   20.1092 C   0  0  0  0  0  0
  -22.7474  -29.4614   22.4925 C   0  0  0  0  0  0
  -18.0286  -28.1386   22.8488 C   0  0  0  0  0  0
  -24.1488  -36.7287   23.2640 C   0  0  0  0  0  0
  -25.9614  -30.7839   21.3719 C   0  0  0  0  0  0
  -26.0331  -29.4095   20.7142 C   0  0  0  0  0  0
  -27.2112  -28.6064   20.7087 C   0  0  0  0  0  0
  -26.0283  -26.8700   19.5019 C   0  0  0  0  0  0
  -24.8657  -27.6667   19.4962 C   0  0  0  0  0  0
  -23.6349  -29.8128   20.1580 C   0  0  0  0  0  0
  -25.4115  -36.3074   24.0327 C   0  0  1  0  0  0
  -20.5887  -28.3688   23.1282 C   0  0  2  0  0  0
  -20.6773  -26.9410   22.5410 C   0  0  0  0  0  0
  -19.5749  -26.6385   21.5212 C   0  0  0  0  0  0
  -18.1930  -26.7930   22.1626 C   0  0  0  0  0  0
  -19.1540  -28.8853   23.2882 C   0  0  0  0  0  0
  -18.9463  -30.1455   23.8899 C   0  0  0  0  0  0
  -17.6463  -30.6587   24.0564 C   0  0  0  0  0  0
  -25.9053  -34.9445   23.5098 C   0  0  0  0  0  0
  -16.5354  -29.9086   23.6330 C   0  0  0  0  0  0
  -16.7274  -28.6504   23.0352 C   0  0  0  0  0  0
  -26.4497  -31.6585   25.0711 C   0  0  0  0  0  0
  -25.3731  -31.3727   26.1440 C   0  0  0  0  0  0
  -27.0343  -30.3007   24.6175 C   0  0  0  0  0  0
  -27.6052  -32.4326   25.7485 C   0  0  0  0  0  0
  -27.5578  -37.1799   24.8467 C   0  0  0  0  0  0
  -21.4187  -29.3038   22.3672 N   0  0  0  0  0  0
  -26.4291  -37.3771   23.9408 N   0  0  0  0  0  0
  -24.6884  -31.0580   22.0952 N   0  0  0  0  0  0
  -23.4195  -28.8160   23.3013 O   0  0  0  0  0  0
  -28.3662  -26.4877   20.1910 O   0  0  0  0  0  0
  -26.5624  -34.8917   22.4666 O   0  0  0  0  0  0
  -23.5431  -32.1379   23.7328 O   0  0  0  0  0  0
  -30.6391  -18.3758   18.0010 C   0  0  0  0  0  0
  -30.1474  -19.5772   18.5387 C   0  0  0  0  0  0
  -30.5645  -17.1732   18.7197 C   0  0  0  0  0  0
  -29.4816  -18.3770   20.5388 C   0  0  0  0  0  0
  -29.5603  -19.6429   19.8255 C   0  0  0  0  0  0
  -29.9885  -17.1217   20.0092 C   0  0  0  0  0  0
  -28.2162  -22.2941   18.3215 C   0  0  0  0  0  0
  -30.5617  -22.7711   19.2545 C   0  0  0  0  0  0
  -29.0339  -21.0354   20.4172 C   0  0  0  0  0  0
  -28.5256  -23.7755   20.3378 C   0  0  0  0  0  0
  -28.4974  -25.1692   19.5230 C   0  0  0  0  0  0
  -29.0838  -22.4444   19.5953 C   0  0  0  0  0  0
  -29.8704  -15.8056   20.6677 N   0  0  0  0  0  0
  -31.4707  -12.5039   19.1779 H   0  0  0  0  0  0
  -30.3433  -11.4191   19.9405 H   0  0  0  0  0  0
  -29.7795  -11.7356   17.5047 H   0  0  0  0  0  0
  -29.6519  -13.4609   17.7413 H   0  0  0  0  0  0
  -27.8743  -11.2879   18.8931 H   0  0  0  0  0  0
  -27.3793  -12.5503   17.7968 H   0  0  0  0  0  0
  -27.6517  -14.2552   19.4915 H   0  0  0  0  0  0
  -28.6998  -12.1300   21.4258 H   0  0  0  0  0  0
  -28.4351  -13.8116   21.8091 H   0  0  0  0  0  0
  -25.2765   -9.5690   22.4754 H   0  0  0  0  0  0
  -24.0005   -7.4639   22.7471 H   0  0  0  0  0  0
  -21.0841   -8.8777   19.8953 H   0  0  0  0  0  0
  -22.3697  -10.9675   19.6164 H   0  0  0  0  0  0
  -21.2013   -7.6149   23.9716 H   0  0  0  0  0  0
  -21.1481   -6.0522   25.9077 H   0  0  0  0  0  0
  -22.0598   -2.7609   23.2844 H   0  0  0  0  0  0
  -22.4096  -11.9894   22.4816 H   0  0  0  0  0  0
  -21.1090  -13.1245   22.2616 H   0  0  0  0  0  0
  -24.6562  -15.8469   20.5230 H   0  0  0  0  0  0
  -26.2718  -15.6314   20.0792 H   0  0  0  0  0  0
  -26.7176  -32.5427   23.1075 H   0  0  0  0  0  0
  -25.0067  -33.9704   25.0405 H   0  0  0  0  0  0
  -22.7149  -31.3014   21.3981 H   0  0  0  0  0  0
  -23.3749  -35.9620   23.3306 H   0  0  0  0  0  0
  -24.3575  -36.8906   22.2053 H   0  0  0  0  0  0
  -23.7243  -37.6490   23.6661 H   0  0  0  0  0  0
  -26.0947  -31.5467   20.6035 H   0  0  0  0  0  0
  -26.8414  -30.8318   22.0019 H   0  0  0  0  0  0
  -28.1079  -28.9700   21.1906 H   0  0  0  0  0  0
  -25.9468  -25.8942   19.0500 H   0  0  0  0  0  0
  -23.9659  -27.2888   19.0305 H   0  0  0  0  0  0
  -23.7554  -30.5879   19.4002 H   0  0  0  0  0  0
  -22.7542  -29.2429   19.8564 H   0  0  0  0  0  0
  -25.1298  -36.1923   25.0820 H   0  0  0  0  0  0
  -20.9983  -28.3264   24.1401 H   0  0  0  0  0  0
  -20.5672  -26.2296   23.3610 H   0  0  0  0  0  0
  -21.6642  -26.7435   22.1205 H   0  0  0  0  0  0
  -19.6908  -25.6296   21.1240 H   0  0  0  0  0  0
  -19.6688  -27.3196   20.6742 H   0  0  0  0  0  0
  -17.4198  -26.6676   21.4030 H   0  0  0  0  0  0
  -18.0332  -26.0073   22.9024 H   0  0  0  0  0  0
  -19.7939  -30.7270   24.2272 H   0  0  0  0  0  0
  -17.5017  -31.6270   24.5161 H   0  0  0  0  0  0
  -15.5354  -30.2988   23.7654 H   0  0  0  0  0  0
  -15.8674  -28.0823   22.7066 H   0  0  0  0  0  0
  -24.5906  -30.7076   25.7773 H   0  0  0  0  0  0
  -24.8924  -32.2895   26.4863 H   0  0  0  0  0  0
  -25.8057  -30.8908   27.0216 H   0  0  0  0  0  0
  -26.2916  -29.6754   24.1205 H   0  0  0  0  0  0
  -27.4044  -29.7269   25.4682 H   0  0  0  0  0  0
  -27.8784  -30.4291   23.9395 H   0  0  0  0  0  0
  -27.2656  -33.3625   26.2060 H   0  0  0  0  0  0
  -28.3864  -32.6891   25.0318 H   0  0  0  0  0  0
  -28.0718  -31.8457   26.5407 H   0  0  0  0  0  0
  -28.2600  -38.0091   24.7506 H   0  0  0  0  0  0
  -28.1070  -36.2622   24.6304 H   0  0  0  0  0  0
  -27.2294  -37.1462   25.8869 H   0  0  0  0  0  0
  -20.9363  -29.8758   21.6881 H   0  0  0  0  0  0
  -26.0172  -38.2846   24.1406 H   0  0  0  0  0  0
  -31.0763  -18.3758   17.0121 H   0  0  0  0  0  0
  -30.2427  -20.4458   17.9093 H   0  0  0  0  0  0
  -30.9417  -16.2815   18.2394 H   0  0  0  0  0  0
  -29.0232  -18.3738   21.5179 H   0  0  0  0  0  0
  -28.3796  -21.3734   17.7706 H   0  0  0  0  0  0
  -28.3799  -23.1088   17.6165 H   0  0  0  0  0  0
  -27.1562  -22.2992   18.5787 H   0  0  0  0  0  0
  -31.1794  -21.9085   19.0278 H   0  0  0  0  0  0
  -31.0570  -23.2495   20.1003 H   0  0  0  0  0  0
  -30.6468  -23.4502   18.4062 H   0  0  0  0  0  0
  -29.5718  -21.1841   21.3543 H   0  0  0  0  0  0
  -27.9994  -20.8642   20.7171 H   0  0  0  0  0  0
  -27.5152  -23.5794   20.6984 H   0  0  0  0  0  0
  -29.1149  -23.9311   21.2421 H   0  0  0  0  0  0
  -27.8186  -25.0855   18.6782 H   0  0  0  0  0  0
  -29.4686  -25.2614   19.0404 H   0  0  0  0  0  0
  -29.0034  -15.6453   21.1586 H   0  0  0  0  0  0
  1 25  1  0  0  0
  1 30  2  0  0  0
  1 83  1  0  0  0
  2  3  1  0  0  0
  2 25  1  0  0  0
  2 84  1  0  0  0
  2 85  1  0  0  0
  3  4  1  0  0  0
  3 86  1  0  0  0
  3 87  1  0  0  0
  4  5  1  0  0  0
  4 88  1  0  0  0
  4 89  1  0  0  0
  5  6  1  0  0  0
  5 26  1  0  0  0
  5 90  1  0  0  0
  6 25  1  0  0  0
  6 91  1  0  0  0
  6 92  1  0  0  0
  7  8  2  0  0  0
  7 26  1  0  0  0
  7 29  1  0  0  0
  8  9  1  0  0  0
  8 22  1  0  0  0
  9 10  1  0  0  0
  9 27  2  0  0  0
 10 11  2  0  0  0
 10 15  1  0  0  0
 11 12  1  0  0  0
 11 93  1  0  0  0
 12 13  2  0  0  0
 12 94  1  0  0  0
 13 14  1  0  0  0
 13 31  1  0  0  0
 14 15  2  0  0  0
 14 95  1  0  0  0
 15 96  1  0  0  0
 16 17  2  0  0  0
 16 21  1  0  0  0
 16 31  1  0  0  0
 17 18  1  0  0  0
 17 97  1  0  0  0
 18 19  2  0  0  0
 18 98  1  0  0  0
 19 20  1  0  0  0
 19 24  1  0  0  0
 20 21  2  0  0  0
 20 99  1  0  0  0
 21 23  1  0  0  0
 22 28  1  0  0  0
 22 32  2  0  0  0
 26 27  1  0  0  0
 28100  1  0  0  0
 28101  1  0  0  0
 29102  1  0  0  0
 29103  1  0  0  0
 33 34  1  0  0  0
 33 66  1  0  0  0
 33 70  2  0  0  0
 34 36  1  0  0  0
 34 59  1  0  0  0
 34104  1  0  0  0
 35 44  2  0  0  0
 35 45  1  0  0  0
 35 68  1  0  0  0
 36 56  1  0  0  0
 36105  1  0  0  0
 37 39  1  0  0  0
 37 47  1  0  0  0
 37 66  1  0  0  0
 37106  1  0  0  0
 38 43  2  0  0  0
 38 46  1  0  0  0
 38 47  1  0  0  0
 39 64  1  0  0  0
 39 67  2  0  0  0
 40 52  1  0  0  0
 40 53  2  0  0  0
 40 58  1  0  0  0
 41107  1  0  0  0
 41108  1  0  0  0
 41109  1  0  0  0
 41 48  1  0  0  0
 42 43  1  0  0  0
 42 66  1  0  0  0
 42110  1  0  0  0
 42111  1  0  0  0
 43 44  1  0  0  0
 44112  1  0  0  0
 45 46  2  0  0  0
 45113  1  0  0  0
 46114  1  0  0  0
 47115  1  0  0  0
 47116  1  0  0  0
 48 56  1  0  0  0
 48 65  1  0  0  0
 48117  1  0  0  0
 49 50  1  0  0  0
 49 53  1  0  0  0
 49 64  1  0  0  0
 49118  1  0  0  0
 50 51  1  0  0  0
 50119  1  0  0  0
 50120  1  0  0  0
 51 52  1  0  0  0
 51121  1  0  0  0
 51122  1  0  0  0
 52123  1  0  0  0
 52124  1  0  0  0
 53 54  1  0  0  0
 54 55  2  0  0  0
 54125  1  0  0  0
 55 57  1  0  0  0
 55126  1  0  0  0
 56 69  2  0  0  0
 57 58  2  0  0  0
 57127  1  0  0  0
 58128  1  0  0  0
 59 60  1  0  0  0
 59 61  1  0  0  0
 59 62  1  0  0  0
 60129  1  0  0  0
 60130  1  0  0  0
 60131  1  0  0  0
 61132  1  0  0  0
 61133  1  0  0  0
 61134  1  0  0  0
 62135  1  0  0  0
 62136  1  0  0  0
 62137  1  0  0  0
 63 65  1  0  0  0
 63138  1  0  0  0
 63139  1  0  0  0
 63140  1  0  0  0
 64141  1  0  0  0
 65142  1  0  0  0
 68 81  1  0  0  0
 71 72  2  0  0  0
 71 73  1  0  0  0
 71143  1  0  0  0
 72 75  1  0  0  0
 72144  1  0  0  0
 73 76  2  0  0  0
 73145  1  0  0  0
 74 75  2  0  0  0
 74 76  1  0  0  0
 74146  1  0  0  0
 75 79  1  0  0  0
 76 83  1  0  0  0
 77147  1  0  0  0
 77148  1  0  0  0
 77149  1  0  0  0
 77 82  1  0  0  0
 78 82  1  0  0  0
 78150  1  0  0  0
 78151  1  0  0  0
 78152  1  0  0  0
 79 82  1  0  0  0
 79153  1  0  0  0
 79154  1  0  0  0
 80 81  1  0  0  0
 80 82  1  0  0  0
 80155  1  0  0  0
 80156  1  0  0  0
 81157  1  0  0  0
 81158  1  0  0  0
 83159  1  0  0  0
M  ISO  4   1 100  68 101  81 101  83 100
M  END
> <chiral flag>
0

> <version>
0

> <s_m_source_file>
/data/baiqing/PycharmProjects/Reinvent-master-3.2/result/LINK_invent/BTK/process_docking_weight1_custom_product_contain_oxygen_bond_distance_aromatic_linkinvent_7_9_3/rearranged_h_0139.sdf

> <i_m_source_file_index>
32

> <r_mmod_Potential_Energy-OPLS-2005>
187.28498840332

> <r_mmod_Stretch_Energy-OPLS-2005>
112.669441223145

> <r_mmod_Bend_Energy-OPLS-2005>
168.142791748047

> <r_mmod_Torsional_Energy-OPLS-2005>
237.744522094727

> <r_mmod_Improper_Torsional_Energy-OPLS-2005>
5.01674318313599

> <r_mmod_Van_der_Waal_Energy-OPLS-2005>
154.483413696289

> <r_mmod_Electrostatic_Energy-OPLS-2005>
-349.766357421875

> <r_mmod_Solvation_Energy-OPLS-2005>
-198.8671875

> <b_mmod_Minimization_Converged-OPLS-2005>
0

> <r_mmod_RMS_Derivative-OPLS-2005>
0.340091437101364

$$$$
32
                    3D
 Structure written by MMmdl.
158166  0  0  1  0            999 V2000
  -30.6861  -14.4510   20.5984 C   0  0  0  0  0  0
  -30.4306  -12.3014   19.4086 C   0  0  0  0  0  0
  -29.4946  -12.5101   18.1993 C   0  0  0  0  0  0
  -28.0146  -12.3702   18.6110 C   0  0  0  0  0  0
  -27.6649  -13.1975   19.8767 C   0  0  2  0  0  0
  -28.7046  -12.9419   20.9907 C   0  0  0  0  0  0
  -25.2609  -13.8142   20.5657 C   0  0  0  0  0  0
  -24.1850  -13.0435   20.9166 C   0  0  0  0  0  0
  -24.6387  -11.6895   20.8724 C   0  0  0  0  0  0
  -23.9050  -10.4288   21.0401 C   0  0  0  0  0  0
  -24.3607   -9.4206   21.9181 C   0  0  0  0  0  0
  -23.6285   -8.2241   22.0754 C   0  0  0  0  0  0
  -22.4268   -8.0277   21.3544 C   0  0  0  0  0  0
  -21.9898   -9.0249   20.4647 C   0  0  0  0  0  0
  -22.7223  -10.2129   20.3053 C   0  0  0  0  0  0
  -21.6852   -6.0734   22.5280 C   0  0  0  0  0  0
  -21.4012   -6.5638   23.8212 C   0  0  0  0  0  0
  -21.3657   -5.6793   24.9175 C   0  0  0  0  0  0
  -21.6043   -4.3055   24.7225 C   0  0  0  0  0  0
  -21.8820   -3.8145   23.4348 C   0  0  0  0  0  0
  -21.9191   -4.6962   22.3404 C   0  0  0  0  0  0
  -22.7874  -13.5244   21.1831 C   0  0  0  0  0  0
  -22.1661   -4.2148   21.0982 F   0  0  0  0  0  0
  -21.5627   -3.4539   25.7738 F   0  0  0  0  0  0
  -30.0383  -13.2638   20.4488 N   0  0  0  0  0  0
  -26.3035  -12.9291   20.3350 N   0  0  0  0  0  0
  -25.9308  -11.6460   20.5748 N   0  0  0  0  0  0
  -22.0509  -12.8243   22.0389 N   0  0  0  0  0  0
  -25.4352  -15.1858   20.4054 N   0  0  0  0  0  0
  -31.7963  -14.6729   20.1043 O   0  0  0  0  0  0
  -21.6635   -6.8874   21.4241 O   0  0  0  0  0  0
  -22.3562  -14.5550   20.6678 O   0  0  0  0  0  0
  -24.6121  -31.8688   23.2084 C   0  0  0  0  0  0
  -25.9021  -32.4821   23.8385 C   0  0  1  0  0  0
  -27.2448  -27.4469   20.1165 C   0  0  0  0  0  0
  -25.5887  -33.8616   24.2331 N   0  0  0  0  0  0
  -23.4001  -30.4893   21.5483 C   0  0  2  0  0  0
  -24.8500  -28.9488   20.1212 C   0  0  0  0  0  0
  -22.7396  -29.4668   22.5002 C   0  0  0  0  0  0
  -18.0274  -28.1382   22.8488 C   0  0  0  0  0  0
  -24.1490  -36.7310   23.2643 C   0  0  0  0  0  0
  -25.9248  -30.8428   21.3554 C   0  0  0  0  0  0
  -26.0062  -29.4748   20.7104 C   0  0  0  0  0  0
  -27.2082  -28.7371   20.6934 C   0  0  0  0  0  0
  -26.0773  -26.9320   19.5180 C   0  0  0  0  0  0
  -24.8797  -27.6767   19.5199 C   0  0  0  0  0  0
  -23.6094  -29.8126   20.1659 C   0  0  0  0  0  0
  -25.4106  -36.3106   24.0348 C   0  0  1  0  0  0
  -20.5859  -28.3660   23.1334 C   0  0  2  0  0  0
  -20.6766  -26.9403   22.5426 C   0  0  0  0  0  0
  -19.5750  -26.6392   21.5216 C   0  0  0  0  0  0
  -18.1926  -26.7931   22.1620 C   0  0  0  0  0  0
  -19.1520  -28.8838   23.2909 C   0  0  0  0  0  0
  -18.9451  -30.1443   23.8918 C   0  0  0  0  0  0
  -17.6455  -30.6586   24.0568 C   0  0  0  0  0  0
  -25.9028  -34.9472   23.5137 C   0  0  0  0  0  0
  -16.5346  -29.9091   23.6324 C   0  0  0  0  0  0
  -16.7265  -28.6510   23.0339 C   0  0  0  0  0  0
  -26.4460  -31.6587   25.0700 C   0  0  0  0  0  0
  -25.3736  -31.3690   26.1462 C   0  0  0  0  0  0
  -27.0288  -30.3038   24.6045 C   0  0  0  0  0  0
  -27.6045  -32.4298   25.7465 C   0  0  0  0  0  0
  -27.5583  -37.1806   24.8468 C   0  0  0  0  0  0
  -21.4128  -29.3032   22.3743 N   0  0  0  0  0  0
  -26.4294  -37.3791   23.9415 N   0  0  0  0  0  0
  -24.6637  -31.0809   22.0965 N   0  0  0  0  0  0
  -23.4177  -28.8228   23.3054 O   0  0  0  0  0  0
  -28.4152  -26.7215   20.0486 O   0  0  0  0  0  0
  -26.5587  -34.8924   22.4695 O   0  0  0  0  0  0
  -23.5318  -32.1426   23.7491 O   0  0  0  0  0  0
  -29.0910  -18.9849   21.7742 C   0  0  0  0  0  0
  -31.4908  -18.8450   21.4365 C   0  0  0  0  0  0
  -28.9899  -17.5890   21.5868 C   0  0  0  0  0  0
  -31.3915  -17.4496   21.2443 C   0  0  0  0  0  0
  -30.3474  -19.6280   21.7294 C   0  0  0  0  0  0
  -30.1366  -16.8028   21.3328 C   0  0  0  0  0  0
  -30.4842  -21.0824   22.0936 C   0  0  0  0  0  0
  -28.4266  -26.5754   22.5708 C   0  0  0  0  0  0
  -28.6637  -24.4677   21.0568 C   0  0  0  0  0  0
  -28.8858  -26.0011   21.2091 C   0  0  1  0  0  0
  -29.5737  -21.9358   21.7196 N   0  0  0  0  0  0
  -31.5879  -21.3188   22.8935 N   0  0  0  0  0  0
  -29.9574  -15.3904   21.2334 N   0  0  0  0  0  0
  -28.6952  -23.4865   23.5670 O   0  0  0  0  0  0
  -30.9094  -24.0450   22.4803 O   0  0  0  0  0  0
  -29.5465  -23.4949   22.3650 S   0  0  0  0  0  0
  -31.4727  -12.4170   19.1047 H   0  0  0  0  0  0
  -30.3448  -11.2825   19.7891 H   0  0  0  0  0  0
  -29.7323  -11.7931   17.4120 H   0  0  0  0  0  0
  -29.6631  -13.4995   17.7712 H   0  0  0  0  0  0
  -27.8197  -11.3129   18.7947 H   0  0  0  0  0  0
  -27.3656  -12.6573   17.7829 H   0  0  0  0  0  0
  -27.7196  -14.2498   19.5968 H   0  0  0  0  0  0
  -28.6800  -11.8938   21.2921 H   0  0  0  0  0  0
  -28.4583  -13.5005   21.8945 H   0  0  0  0  0  0
  -25.2757   -9.5681   22.4749 H   0  0  0  0  0  0
  -23.9997   -7.4634   22.7472 H   0  0  0  0  0  0
  -21.0831   -8.8764   19.8953 H   0  0  0  0  0  0
  -22.3685  -10.9665   19.6156 H   0  0  0  0  0  0
  -21.2007   -7.6147   23.9716 H   0  0  0  0  0  0
  -21.1477   -6.0523   25.9078 H   0  0  0  0  0  0
  -22.0601   -2.7608   23.2849 H   0  0  0  0  0  0
  -22.4119  -11.9906   22.4784 H   0  0  0  0  0  0
  -21.1127  -13.1273   22.2588 H   0  0  0  0  0  0
  -24.6673  -15.8411   20.5034 H   0  0  0  0  0  0
  -26.2825  -15.6188   20.0593 H   0  0  0  0  0  0
  -26.7094  -32.5554   23.1157 H   0  0  0  0  0  0
  -25.0044  -33.9780   25.0482 H   0  0  0  0  0  0
  -22.6886  -31.3049   21.4043 H   0  0  0  0  0  0
  -23.3745  -35.9649   23.3311 H   0  0  0  0  0  0
  -24.3588  -36.8910   22.2056 H   0  0  0  0  0  0
  -23.7249  -37.6524   23.6641 H   0  0  0  0  0  0
  -26.0285  -31.6071   20.5835 H   0  0  0  0  0  0
  -26.8149  -30.9034   21.9694 H   0  0  0  0  0  0
  -28.1078  -29.1589   21.1189 H   0  0  0  0  0  0
  -26.0999  -25.9581   19.0498 H   0  0  0  0  0  0
  -23.9912  -27.2673   19.0588 H   0  0  0  0  0  0
  -23.7157  -30.5822   19.4008 H   0  0  0  0  0  0
  -22.7356  -29.2278   19.8724 H   0  0  0  0  0  0
  -25.1283  -36.1969   25.0841 H   0  0  0  0  0  0
  -20.9941  -28.3219   24.1458 H   0  0  0  0  0  0
  -20.5677  -26.2264   23.3606 H   0  0  0  0  0  0
  -21.6637  -26.7462   22.1213 H   0  0  0  0  0  0
  -19.6911  -25.6309   21.1232 H   0  0  0  0  0  0
  -19.6691  -27.3212   20.6756 H   0  0  0  0  0  0
  -17.4202  -26.6682   21.4019 H   0  0  0  0  0  0
  -18.0319  -26.0076   22.9015 H   0  0  0  0  0  0
  -19.7932  -30.7247   24.2296 H   0  0  0  0  0  0
  -17.5021  -31.6270   24.5161 H   0  0  0  0  0  0
  -15.5349  -30.3001   23.7645 H   0  0  0  0  0  0
  -15.8667  -28.0844   22.7031 H   0  0  0  0  0  0
  -24.5906  -30.7042   25.7802 H   0  0  0  0  0  0
  -24.8936  -32.2847   26.4922 H   0  0  0  0  0  0
  -25.8102  -30.8854   27.0208 H   0  0  0  0  0  0
  -26.2829  -29.6805   24.1097 H   0  0  0  0  0  0
  -27.4085  -29.7253   25.4476 H   0  0  0  0  0  0
  -27.8641  -30.4376   23.9169 H   0  0  0  0  0  0
  -27.2669  -33.3582   26.2077 H   0  0  0  0  0  0
  -28.3833  -32.6872   25.0275 H   0  0  0  0  0  0
  -28.0729  -31.8394   26.5349 H   0  0  0  0  0  0
  -28.2600  -38.0102   24.7502 H   0  0  0  0  0  0
  -28.1077  -36.2630   24.6299 H   0  0  0  0  0  0
  -27.2305  -37.1468   25.8874 H   0  0  0  0  0  0
  -20.9286  -29.8734   21.6951 H   0  0  0  0  0  0
  -26.0183  -38.2872   24.1402 H   0  0  0  0  0  0
  -28.2010  -19.5547   22.0012 H   0  0  0  0  0  0
  -32.4671  -19.3064   21.3902 H   0  0  0  0  0  0
  -28.0161  -17.1250   21.6630 H   0  0  0  0  0  0
  -32.2986  -16.8908   21.0647 H   0  0  0  0  0  0
  -28.9029  -26.0658   23.4070 H   0  0  0  0  0  0
  -27.3482  -26.4878   22.7085 H   0  0  0  0  0  0
  -28.7024  -27.6238   22.6759 H   0  0  0  0  0  0
  -29.0612  -24.1337   20.1015 H   0  0  0  0  0  0
  -27.6120  -24.1933   21.0833 H   0  0  0  0  0  0
  -29.9657  -26.1515   21.1777 H   0  0  0  0  0  0
  -32.2358  -20.6002   23.1923 H   0  0  0  0  0  0
  -31.9033  -22.2361   23.1891 H   0  0  0  0  0  0
  -29.0636  -15.0461   21.5488 H   0  0  0  0  0  0
  1 25  1  0  0  0
  1 30  2  0  0  0
  1 83  1  0  0  0
  2  3  1  0  0  0
  2 25  1  0  0  0
  2 87  1  0  0  0
  2 88  1  0  0  0
  3  4  1  0  0  0
  3 89  1  0  0  0
  3 90  1  0  0  0
  4  5  1  0  0  0
  4 91  1  0  0  0
  4 92  1  0  0  0
  5  6  1  0  0  0
  5 26  1  0  0  0
  5 93  1  0  0  0
  6 25  1  0  0  0
  6 94  1  0  0  0
  6 95  1  0  0  0
  7  8  2  0  0  0
  7 26  1  0  0  0
  7 29  1  0  0  0
  8  9  1  0  0  0
  8 22  1  0  0  0
  9 10  1  0  0  0
  9 27  2  0  0  0
 10 11  2  0  0  0
 10 15  1  0  0  0
 11 12  1  0  0  0
 11 96  1  0  0  0
 12 13  2  0  0  0
 12 97  1  0  0  0
 13 14  1  0  0  0
 13 31  1  0  0  0
 14 15  2  0  0  0
 14 98  1  0  0  0
 15 99  1  0  0  0
 16 17  2  0  0  0
 16 21  1  0  0  0
 16 31  1  0  0  0
 17 18  1  0  0  0
 17100  1  0  0  0
 18 19  2  0  0  0
 18101  1  0  0  0
 19 20  1  0  0  0
 19 24  1  0  0  0
 20 21  2  0  0  0
 20102  1  0  0  0
 21 23  1  0  0  0
 22 28  1  0  0  0
 22 32  2  0  0  0
 26 27  1  0  0  0
 28103  1  0  0  0
 28104  1  0  0  0
 29105  1  0  0  0
 29106  1  0  0  0
 33 34  1  0  0  0
 33 66  1  0  0  0
 33 70  2  0  0  0
 34 36  1  0  0  0
 34 59  1  0  0  0
 34107  1  0  0  0
 35 44  2  0  0  0
 35 45  1  0  0  0
 35 68  1  0  0  0
 36 56  1  0  0  0
 36108  1  0  0  0
 37 39  1  0  0  0
 37 47  1  0  0  0
 37 66  1  0  0  0
 37109  1  0  0  0
 38 43  2  0  0  0
 38 46  1  0  0  0
 38 47  1  0  0  0
 39 64  1  0  0  0
 39 67  2  0  0  0
 40 52  1  0  0  0
 40 53  2  0  0  0
 40 58  1  0  0  0
 41110  1  0  0  0
 41111  1  0  0  0
 41112  1  0  0  0
 41 48  1  0  0  0
 42 43  1  0  0  0
 42 66  1  0  0  0
 42113  1  0  0  0
 42114  1  0  0  0
 43 44  1  0  0  0
 44115  1  0  0  0
 45 46  2  0  0  0
 45116  1  0  0  0
 46117  1  0  0  0
 47118  1  0  0  0
 47119  1  0  0  0
 48 56  1  0  0  0
 48 65  1  0  0  0
 48120  1  0  0  0
 49 50  1  0  0  0
 49 53  1  0  0  0
 49 64  1  0  0  0
 49121  1  0  0  0
 50 51  1  0  0  0
 50122  1  0  0  0
 50123  1  0  0  0
 51 52  1  0  0  0
 51124  1  0  0  0
 51125  1  0  0  0
 52126  1  0  0  0
 52127  1  0  0  0
 53 54  1  0  0  0
 54 55  2  0  0  0
 54128  1  0  0  0
 55 57  1  0  0  0
 55129  1  0  0  0
 56 69  2  0  0  0
 57 58  2  0  0  0
 57130  1  0  0  0
 58131  1  0  0  0
 59 60  1  0  0  0
 59 61  1  0  0  0
 59 62  1  0  0  0
 60132  1  0  0  0
 60133  1  0  0  0
 60134  1  0  0  0
 61135  1  0  0  0
 61136  1  0  0  0
 61137  1  0  0  0
 62138  1  0  0  0
 62139  1  0  0  0
 62140  1  0  0  0
 63 65  1  0  0  0
 63141  1  0  0  0
 63142  1  0  0  0
 63143  1  0  0  0
 64144  1  0  0  0
 65145  1  0  0  0
 68 80  1  0  0  0
 71 73  2  0  0  0
 71 75  1  0  0  0
 71146  1  0  0  0
 72 74  1  0  0  0
 72 75  2  0  0  0
 72147  1  0  0  0
 73 76  1  0  0  0
 73148  1  0  0  0
 74 76  2  0  0  0
 74149  1  0  0  0
 75 77  1  0  0  0
 76 83  1  0  0  0
 77 81  2  0  0  0
 77 82  1  0  0  0
 78150  1  0  0  0
 78151  1  0  0  0
 78152  1  0  0  0
 78 80  1  0  0  0
 79 80  1  0  0  0
 79153  1  0  0  0
 79154  1  0  0  0
 79 86  1  0  0  0
 80155  1  0  0  0
 81 86  1  0  0  0
 82156  1  0  0  0
 82157  1  0  0  0
 83158  1  0  0  0
 84 86  2  0  0  0
 85 86  2  0  0  0
M  ISO  4   1 100  68 101  80 101  83 100
M  END
> <chiral flag>
0

> <version>
0

> <s_m_source_file>
/data/baiqing/PycharmProjects/Reinvent-master-3.2/result/LINK_invent/BTK/process_docking_weight1_custom_product_contain_oxygen_bond_distance_aromatic_linkinvent_7_9_3/rearranged_h_0139.sdf

> <i_m_source_file_index>
33

> <r_mmod_Potential_Energy-OPLS-2005>
-161.691162109375

> <r_mmod_Stretch_Energy-OPLS-2005>
39.0933418273926

> <r_mmod_Bend_Energy-OPLS-2005>
116.63655090332

> <r_mmod_Torsional_Energy-OPLS-2005>
233.270355224609

> <r_mmod_Improper_Torsional_Energy-OPLS-2005>
4.23051309585571

> <r_mmod_Van_der_Waal_Energy-OPLS-2005>
158.506729125977

> <r_mmod_Electrostatic_Energy-OPLS-2005>
-476.397033691406

> <r_mmod_Solvation_Energy-OPLS-2005>
-246.351638793945

> <b_mmod_Minimization_Converged-OPLS-2005>
0

> <r_mmod_RMS_Derivative-OPLS-2005>
0.780017495155334

$$$$
33
                    3D
 Structure written by MMmdl.
160169  0  0  1  0            999 V2000
  -30.6597  -14.6098   20.5370 C   0  0  0  0  0  0
  -30.4277  -12.3790   19.4555 C   0  0  0  0  0  0
  -29.5077  -12.5095   18.2219 C   0  0  0  0  0  0
  -28.0281  -12.3514   18.6271 C   0  0  0  0  0  0
  -27.6503  -13.2198   19.8575 C   0  0  2  0  0  0
  -28.6941  -13.0824   20.9889 C   0  0  0  0  0  0
  -25.2531  -13.8164   20.5716 C   0  0  0  0  0  0
  -24.1814  -13.0431   20.9204 C   0  0  0  0  0  0
  -24.6376  -11.6898   20.8715 C   0  0  0  0  0  0
  -23.9055  -10.4288   21.0384 C   0  0  0  0  0  0
  -24.3619   -9.4205   21.9159 C   0  0  0  0  0  0
  -23.6299   -8.2242   22.0742 C   0  0  0  0  0  0
  -22.4269   -8.0282   21.3550 C   0  0  0  0  0  0
  -21.9889   -9.0253   20.4650 C   0  0  0  0  0  0
  -22.7214  -10.2134   20.3047 C   0  0  0  0  0  0
  -21.6849   -6.0732   22.5288 C   0  0  0  0  0  0
  -21.4020   -6.5632   23.8221 C   0  0  0  0  0  0
  -21.3668   -5.6782   24.9175 C   0  0  0  0  0  0
  -21.6050   -4.3047   24.7229 C   0  0  0  0  0  0
  -21.8815   -3.8143   23.4346 C   0  0  0  0  0  0
  -21.9199   -4.6961   22.3402 C   0  0  0  0  0  0
  -22.7837  -13.5239   21.1890 C   0  0  0  0  0  0
  -22.1672   -4.2144   21.0977 F   0  0  0  0  0  0
  -21.5624   -3.4528   25.7742 F   0  0  0  0  0  0
  -30.0115  -13.4087   20.4266 N   0  0  0  0  0  0
  -26.2961  -12.9365   20.3274 N   0  0  0  0  0  0
  -25.9302  -11.6509   20.5697 N   0  0  0  0  0  0
  -22.0490  -12.8232   22.0447 N   0  0  0  0  0  0
  -25.4211  -15.1909   20.4218 N   0  0  0  0  0  0
  -31.8296  -14.7407   20.1654 O   0  0  0  0  0  0
  -21.6638   -6.8878   21.4252 O   0  0  0  0  0  0
  -22.3523  -14.5555   20.6745 O   0  0  0  0  0  0
  -24.6232  -31.8640   23.2016 C   0  0  0  0  0  0
  -25.9089  -32.4798   23.8354 C   0  0  1  0  0  0
  -27.2260  -27.3307   20.1434 C   0  0  0  0  0  0
  -25.5917  -33.8595   24.2276 N   0  0  0  0  0  0
  -23.4156  -30.4855   21.5448 C   0  0  2  0  0  0
  -24.8624  -28.9269   20.1274 C   0  0  0  0  0  0
  -22.7441  -29.4688   22.4962 C   0  0  0  0  0  0
  -18.0303  -28.1356   22.8468 C   0  0  0  0  0  0
  -24.1482  -36.7290   23.2637 C   0  0  0  0  0  0
  -25.9525  -30.7980   21.3709 C   0  0  0  0  0  0
  -26.0295  -29.4194   20.7290 C   0  0  0  0  0  0
  -27.2187  -28.6338   20.7238 C   0  0  0  0  0  0
  -26.0427  -26.8786   19.5290 C   0  0  0  0  0  0
  -24.8675  -27.6571   19.5275 C   0  0  0  0  0  0
  -23.6290  -29.8093   20.1649 C   0  0  0  0  0  0
  -25.4117  -36.3106   24.0317 C   0  0  1  0  0  0
  -20.5888  -28.3712   23.1307 C   0  0  2  0  0  0
  -20.6814  -26.9431   22.5499 C   0  0  0  0  0  0
  -19.5848  -26.6346   21.5261 C   0  0  0  0  0  0
  -18.1989  -26.7891   22.1617 C   0  0  0  0  0  0
  -19.1533  -28.8851   23.2875 C   0  0  0  0  0  0
  -18.9447  -30.1457   23.8862 C   0  0  0  0  0  0
  -17.6442  -30.6567   24.0533 C   0  0  0  0  0  0
  -25.9063  -34.9469   23.5106 C   0  0  0  0  0  0
  -16.5338  -29.9039   23.6316 C   0  0  0  0  0  0
  -16.7278  -28.6473   23.0314 C   0  0  0  0  0  0
  -26.4469  -31.6616   25.0725 C   0  0  0  0  0  0
  -25.3689  -31.3804   26.1451 C   0  0  0  0  0  0
  -27.0287  -30.3022   24.6195 C   0  0  0  0  0  0
  -27.6034  -32.4345   25.7490 C   0  0  0  0  0  0
  -27.5578  -37.1805   24.8458 C   0  0  0  0  0  0
  -21.4156  -29.3071   22.3676 N   0  0  0  0  0  0
  -26.4293  -37.3796   23.9402 N   0  0  0  0  0  0
  -24.6824  -31.0652   22.0974 N   0  0  0  0  0  0
  -23.4169  -28.8259   23.3069 O   0  0  0  0  0  0
  -28.3643  -26.5408   20.0051 O   0  0  0  0  0  0
  -26.5650  -34.8924   22.4680 O   0  0  0  0  0  0
  -23.5394  -32.1438   23.7345 O   0  0  0  0  0  0
  -31.8757  -18.8338   21.6418 C   0  0  0  0  0  0
  -31.0075  -19.8662   21.2258 C   0  0  0  0  0  0
  -31.5159  -17.4744   21.5163 C   0  0  0  0  0  0
  -29.3691  -18.1671   20.6109 C   0  0  0  0  0  0
  -29.7403  -19.5605   20.6869 C   0  0  0  0  0  0
  -30.2595  -17.1024   20.9860 C   0  0  0  0  0  0
  -28.9199  -20.6524   20.0407 C   0  0  0  0  0  0
  -28.2583  -23.1638   19.6420 C   0  0  0  0  0  0
  -29.2304  -22.8980   21.4696 C   0  0  0  0  0  0
  -28.2342  -24.0019   20.9499 C   0  0  0  0  0  0
  -26.8830  -24.0176   21.6836 C   0  0  0  0  0  0
  -28.7439  -25.5156   20.9819 C   0  0  0  0  0  0
  -28.7605  -21.9806   20.4044 N   0  0  0  0  0  0
  -29.8874  -15.6940   20.8642 N   0  0  0  0  0  0
  -28.3138  -20.2956   18.9095 N   0  3  0  0  0  0
  -31.4738  -12.4761   19.1624 H   0  0  0  0  0  0
  -30.3322  -11.3859   19.8937 H   0  0  0  0  0  0
  -29.7720  -11.7620   17.4729 H   0  0  0  0  0  0
  -29.6598  -13.4840   17.7518 H   0  0  0  0  0  0
  -27.8601  -11.2977   18.8538 H   0  0  0  0  0  0
  -27.3782  -12.5907   17.7862 H   0  0  0  0  0  0
  -27.6675  -14.2545   19.5148 H   0  0  0  0  0  0
  -28.6993  -12.0662   21.3887 H   0  0  0  0  0  0
  -28.4426  -13.7340   21.8267 H   0  0  0  0  0  0
  -25.2764   -9.5679   22.4721 H   0  0  0  0  0  0
  -24.0018   -7.4616   22.7438 H   0  0  0  0  0  0
  -21.0815   -8.8774   19.8955 H   0  0  0  0  0  0
  -22.3668  -10.9676   19.6157 H   0  0  0  0  0  0
  -21.2021   -7.6140   23.9728 H   0  0  0  0  0  0
  -21.1487   -6.0505   25.9079 H   0  0  0  0  0  0
  -22.0583   -2.7606   23.2848 H   0  0  0  0  0  0
  -22.4145  -11.9915   22.4860 H   0  0  0  0  0  0
  -21.1101  -13.1251   22.2681 H   0  0  0  0  0  0
  -24.6541  -15.8358   20.5729 H   0  0  0  0  0  0
  -26.2588  -15.6434   20.0841 H   0  0  0  0  0  0
  -26.7178  -32.5470   23.1125 H   0  0  0  0  0  0
  -24.9984  -33.9747   25.0367 H   0  0  0  0  0  0
  -22.7103  -31.3064   21.3982 H   0  0  0  0  0  0
  -23.3737  -35.9630   23.3319 H   0  0  0  0  0  0
  -24.3564  -36.8888   22.2050 H   0  0  0  0  0  0
  -23.7235  -37.6493   23.6648 H   0  0  0  0  0  0
  -26.0813  -31.5606   20.6019 H   0  0  0  0  0  0
  -26.8325  -30.8504   21.9989 H   0  0  0  0  0  0
  -28.1276  -29.0258   21.1585 H   0  0  0  0  0  0
  -26.0291  -25.9097   19.0499 H   0  0  0  0  0  0
  -23.9729  -27.2691   19.0622 H   0  0  0  0  0  0
  -23.7479  -30.5807   19.4022 H   0  0  0  0  0  0
  -22.7491  -29.2363   19.8677 H   0  0  0  0  0  0
  -25.1303  -36.1967   25.0807 H   0  0  0  0  0  0
  -20.9999  -28.3346   24.1424 H   0  0  0  0  0  0
  -20.5634  -26.2402   23.3763 H   0  0  0  0  0  0
  -21.6724  -26.7425   22.1410 H   0  0  0  0  0  0
  -19.6809  -27.3081   20.6730 H   0  0  0  0  0  0
  -19.7096  -25.6235   21.1375 H   0  0  0  0  0  0
  -17.4281  -26.6561   21.4010 H   0  0  0  0  0  0
  -18.0431  -26.0021   22.9019 H   0  0  0  0  0  0
  -19.7934  -30.7263   24.2201 H   0  0  0  0  0  0
  -17.4992  -31.6255   24.5115 H   0  0  0  0  0  0
  -15.5331  -30.2920   23.7637 H   0  0  0  0  0  0
  -15.8685  -28.0785   22.6998 H   0  0  0  0  0  0
  -24.5792  -30.7253   25.7755 H   0  0  0  0  0  0
  -24.8973  -32.3010   26.4895 H   0  0  0  0  0  0
  -25.7965  -30.8925   27.0213 H   0  0  0  0  0  0
  -26.2880  -29.6818   24.1140 H   0  0  0  0  0  0
  -27.3866  -29.7248   25.4727 H   0  0  0  0  0  0
  -27.8793  -30.4261   23.9493 H   0  0  0  0  0  0
  -27.2642  -33.3618   26.2097 H   0  0  0  0  0  0
  -28.3815  -32.6950   25.0315 H   0  0  0  0  0  0
  -28.0728  -31.8467   26.5377 H   0  0  0  0  0  0
  -28.2616  -38.0087   24.7508 H   0  0  0  0  0  0
  -28.1068  -36.2626   24.6302 H   0  0  0  0  0  0
  -27.2295  -37.1455   25.8861 H   0  0  0  0  0  0
  -20.9312  -29.8748   21.6848 H   0  0  0  0  0  0
  -26.0176  -38.2861   24.1426 H   0  0  0  0  0  0
  -32.8484  -19.0829   22.0434 H   0  0  0  0  0  0
  -31.3473  -20.8924   21.2787 H   0  0  0  0  0  0
  -32.2227  -16.7230   21.8396 H   0  0  0  0  0  0
  -28.4039  -17.9088   20.1981 H   0  0  0  0  0  0
  -28.9912  -23.5182   18.9166 H   0  0  0  0  0  0
  -27.2753  -23.0194   19.1915 H   0  0  0  0  0  0
  -29.0198  -22.5373   22.4769 H   0  0  0  0  0  0
  -30.2831  -23.1492   21.3374 H   0  0  0  0  0  0
  -26.3662  -23.0594   21.6151 H   0  0  0  0  0  0
  -26.2082  -24.7730   21.2831 H   0  0  0  0  0  0
  -27.0069  -24.2397   22.7445 H   0  0  0  0  0  0
  -28.6010  -25.9405   21.9767 H   0  0  0  0  0  0
  -29.8286  -25.4814   20.8771 H   0  0  0  0  0  0
  -28.9097  -15.4837   20.9854 H   0  0  0  0  0  0
  -28.5250  -19.3947   18.5141 H   0  0  0  0  0  0
  -27.6828  -20.9164   18.4353 H   0  0  0  0  0  0
  1 25  1  0  0  0
  1 30  2  0  0  0
  1 84  1  0  0  0
  2  3  1  0  0  0
  2 25  1  0  0  0
  2 86  1  0  0  0
  2 87  1  0  0  0
  3  4  1  0  0  0
  3 88  1  0  0  0
  3 89  1  0  0  0
  4  5  1  0  0  0
  4 90  1  0  0  0
  4 91  1  0  0  0
  5  6  1  0  0  0
  5 26  1  0  0  0
  5 92  1  0  0  0
  6 25  1  0  0  0
  6 93  1  0  0  0
  6 94  1  0  0  0
  7  8  2  0  0  0
  7 26  1  0  0  0
  7 29  1  0  0  0
  8  9  1  0  0  0
  8 22  1  0  0  0
  9 10  1  0  0  0
  9 27  2  0  0  0
 10 11  2  0  0  0
 10 15  1  0  0  0
 11 12  1  0  0  0
 11 95  1  0  0  0
 12 13  2  0  0  0
 12 96  1  0  0  0
 13 14  1  0  0  0
 13 31  1  0  0  0
 14 15  2  0  0  0
 14 97  1  0  0  0
 15 98  1  0  0  0
 16 17  2  0  0  0
 16 21  1  0  0  0
 16 31  1  0  0  0
 17 18  1  0  0  0
 17 99  1  0  0  0
 18 19  2  0  0  0
 18100  1  0  0  0
 19 20  1  0  0  0
 19 24  1  0  0  0
 20 21  2  0  0  0
 20101  1  0  0  0
 21 23  1  0  0  0
 22 28  1  0  0  0
 22 32  2  0  0  0
 26 27  1  0  0  0
 28102  1  0  0  0
 28103  1  0  0  0
 29104  1  0  0  0
 29105  1  0  0  0
 33 34  1  0  0  0
 33 66  1  0  0  0
 33 70  2  0  0  0
 34 36  1  0  0  0
 34 59  1  0  0  0
 34106  1  0  0  0
 35 44  2  0  0  0
 35 45  1  0  0  0
 35 68  1  0  0  0
 36 56  1  0  0  0
 36107  1  0  0  0
 37 39  1  0  0  0
 37 47  1  0  0  0
 37 66  1  0  0  0
 37108  1  0  0  0
 38 43  2  0  0  0
 38 46  1  0  0  0
 38 47  1  0  0  0
 39 64  1  0  0  0
 39 67  2  0  0  0
 40 52  1  0  0  0
 40 53  2  0  0  0
 40 58  1  0  0  0
 41109  1  0  0  0
 41110  1  0  0  0
 41111  1  0  0  0
 41 48  1  0  0  0
 42 43  1  0  0  0
 42 66  1  0  0  0
 42112  1  0  0  0
 42113  1  0  0  0
 43 44  1  0  0  0
 44114  1  0  0  0
 45 46  2  0  0  0
 45115  1  0  0  0
 46116  1  0  0  0
 47117  1  0  0  0
 47118  1  0  0  0
 48 56  1  0  0  0
 48 65  1  0  0  0
 48119  1  0  0  0
 49 50  1  0  0  0
 49 53  1  0  0  0
 49 64  1  0  0  0
 49120  1  0  0  0
 50 51  1  0  0  0
 50121  1  0  0  0
 50122  1  0  0  0
 51 52  1  0  0  0
 51123  1  0  0  0
 51124  1  0  0  0
 52125  1  0  0  0
 52126  1  0  0  0
 53 54  1  0  0  0
 54 55  2  0  0  0
 54127  1  0  0  0
 55 57  1  0  0  0
 55128  1  0  0  0
 56 69  2  0  0  0
 57 58  2  0  0  0
 57129  1  0  0  0
 58130  1  0  0  0
 59 60  1  0  0  0
 59 61  1  0  0  0
 59 62  1  0  0  0
 60131  1  0  0  0
 60132  1  0  0  0
 60133  1  0  0  0
 61134  1  0  0  0
 61135  1  0  0  0
 61136  1  0  0  0
 62137  1  0  0  0
 62138  1  0  0  0
 62139  1  0  0  0
 63 65  1  0  0  0
 63140  1  0  0  0
 63141  1  0  0  0
 63142  1  0  0  0
 64143  1  0  0  0
 65144  1  0  0  0
 68 82  1  0  0  0
 71 72  2  0  0  0
 71 73  1  0  0  0
 71145  1  0  0  0
 72 75  1  0  0  0
 72146  1  0  0  0
 73 76  2  0  0  0
 73147  1  0  0  0
 74 75  2  0  0  0
 74 76  1  0  0  0
 74148  1  0  0  0
 75 77  1  0  0  0
 76 84  1  0  0  0
 77 83  1  0  0  0
 77 85  2  0  0  0
 78 80  1  0  0  0
 78 83  1  0  0  0
 78149  1  0  0  0
 78150  1  0  0  0
 79 80  1  0  0  0
 79 83  1  0  0  0
 79151  1  0  0  0
 79152  1  0  0  0
 80 81  1  0  0  0
 80 82  1  0  0  0
 81153  1  0  0  0
 81154  1  0  0  0
 81155  1  0  0  0
 82156  1  0  0  0
 82157  1  0  0  0
 84158  1  0  0  0
 85159  1  0  0  0
 85160  1  0  0  0
M  CHG  1  85   1
M  ISO  4   1 100  68 101  82 101  84 100
M  END
> <chiral flag>
0

> <version>
0

> <s_m_source_file>
/data/baiqing/PycharmProjects/Reinvent-master-3.2/result/LINK_invent/BTK/process_docking_weight1_custom_product_contain_oxygen_bond_distance_aromatic_linkinvent_7_9_3/rearranged_h_0139.sdf

> <i_m_source_file_index>
34

> <r_mmod_Potential_Energy-OPLS-2005>
-35.5191459655762

> <r_mmod_Stretch_Energy-OPLS-2005>
75.4467849731445

> <r_mmod_Bend_Energy-OPLS-2005>
178.496520996094

> <r_mmod_Torsional_Energy-OPLS-2005>
289.714202880859

> <r_mmod_Improper_Torsional_Energy-OPLS-2005>
7.37027215957642

> <r_mmod_Van_der_Waal_Energy-OPLS-2005>
135.864547729492

> <r_mmod_Electrostatic_Energy-OPLS-2005>
-341.53759765625

> <r_mmod_Solvation_Energy-OPLS-2005>
-418.644073486328

> <b_mmod_Minimization_Converged-OPLS-2005>
0

> <r_mmod_RMS_Derivative-OPLS-2005>
3.90800356864929

$$$$
34
                    3D
 Structure written by MMmdl.
166175  0  0  1  0            999 V2000
  -30.7159  -14.4224   20.5527 C   0  0  0  0  0  0
  -30.4157  -12.2686   19.4193 C   0  0  0  0  0  0
  -29.4939  -12.5020   18.2046 C   0  0  0  0  0  0
  -28.0131  -12.3737   18.6132 C   0  0  0  0  0  0
  -27.6648  -13.2045   19.8777 C   0  0  2  0  0  0
  -28.7046  -12.9688   20.9978 C   0  0  0  0  0  0
  -25.2606  -13.8162   20.5688 C   0  0  0  0  0  0
  -24.1850  -13.0442   20.9166 C   0  0  0  0  0  0
  -24.6395  -11.6903   20.8721 C   0  0  0  0  0  0
  -23.9060  -10.4289   21.0388 C   0  0  0  0  0  0
  -24.3611   -9.4211   21.9172 C   0  0  0  0  0  0
  -23.6293   -8.2245   22.0751 C   0  0  0  0  0  0
  -22.4277   -8.0278   21.3544 C   0  0  0  0  0  0
  -21.9906   -9.0246   20.4646 C   0  0  0  0  0  0
  -22.7229  -10.2124   20.3040 C   0  0  0  0  0  0
  -21.6852   -6.0731   22.5277 C   0  0  0  0  0  0
  -21.4008   -6.5638   23.8210 C   0  0  0  0  0  0
  -21.3655   -5.6790   24.9177 C   0  0  0  0  0  0
  -21.6041   -4.3054   24.7228 C   0  0  0  0  0  0
  -21.8823   -3.8144   23.4351 C   0  0  0  0  0  0
  -21.9200   -4.6957   22.3405 C   0  0  0  0  0  0
  -22.7874  -13.5238   21.1840 C   0  0  0  0  0  0
  -22.1670   -4.2142   21.0986 F   0  0  0  0  0  0
  -21.5630   -3.4532   25.7737 F   0  0  0  0  0  0
  -30.0421  -13.2489   20.4488 N   0  0  0  0  0  0
  -26.3040  -12.9326   20.3374 N   0  0  0  0  0  0
  -25.9325  -11.6484   20.5757 N   0  0  0  0  0  0
  -22.0518  -12.8219   22.0389 N   0  0  0  0  0  0
  -25.4356  -15.1881   20.4128 N   0  0  0  0  0  0
  -31.8615  -14.5767   20.1196 O   0  0  0  0  0  0
  -21.6647   -6.8870   21.4238 O   0  0  0  0  0  0
  -22.3556  -14.5552   20.6706 O   0  0  0  0  0  0
  -24.6101  -31.8713   23.2127 C   0  0  0  0  0  0
  -25.9013  -32.4837   23.8419 C   0  0  1  0  0  0
  -27.2408  -27.4738   20.0804 C   0  0  0  0  0  0
  -25.5896  -33.8639   24.2351 N   0  0  0  0  0  0
  -23.3970  -30.4942   21.5514 C   0  0  2  0  0  0
  -24.8444  -28.9632   20.1140 C   0  0  0  0  0  0
  -22.7388  -29.4666   22.4997 C   0  0  0  0  0  0
  -18.0264  -28.1370   22.8491 C   0  0  0  0  0  0
  -24.1479  -36.7311   23.2643 C   0  0  0  0  0  0
  -25.9219  -30.8439   21.3636 C   0  0  0  0  0  0
  -25.9991  -29.4791   20.7157 C   0  0  0  0  0  0
  -27.1956  -28.7336   20.7113 C   0  0  0  0  0  0
  -26.0674  -26.9551   19.4898 C   0  0  0  0  0  0
  -24.8701  -27.6961   19.5046 C   0  0  0  0  0  0
  -23.6042  -29.8258   20.1651 C   0  0  0  0  0  0
  -25.4105  -36.3128   24.0348 C   0  0  1  0  0  0
  -20.5849  -28.3649   23.1324 C   0  0  2  0  0  0
  -20.6754  -26.9392   22.5419 C   0  0  0  0  0  0
  -19.5737  -26.6372   21.5210 C   0  0  0  0  0  0
  -18.1910  -26.7922   22.1609 C   0  0  0  0  0  0
  -19.1512  -28.8826   23.2904 C   0  0  0  0  0  0
  -18.9446  -30.1433   23.8909 C   0  0  0  0  0  0
  -17.6453  -30.6581   24.0559 C   0  0  0  0  0  0
  -25.9028  -34.9489   23.5143 C   0  0  0  0  0  0
  -16.5339  -29.9082   23.6330 C   0  0  0  0  0  0
  -16.7253  -28.6497   23.0350 C   0  0  0  0  0  0
  -26.4455  -31.6602   25.0734 C   0  0  0  0  0  0
  -25.3744  -31.3729   26.1510 C   0  0  0  0  0  0
  -27.0242  -30.3035   24.6082 C   0  0  0  0  0  0
  -27.6071  -32.4289   25.7471 C   0  0  0  0  0  0
  -27.5572  -37.1821   24.8472 C   0  0  0  0  0  0
  -21.4120  -29.3023   22.3737 N   0  0  0  0  0  0
  -26.4294  -37.3807   23.9406 N   0  0  0  0  0  0
  -24.6607  -31.0836   22.1014 N   0  0  0  0  0  0
  -23.4179  -28.8217   23.3030 O   0  0  0  0  0  0
  -28.4179  -26.7686   20.0920 O   0  0  0  0  0  0
  -26.5577  -34.8934   22.4694 O   0  0  0  0  0  0
  -23.5299  -32.1456   23.7536 O   0  0  0  0  0  0
  -29.6114  -19.1693   21.1603 C   0  0  0  0  0  0
  -29.5390  -17.8039   21.5072 C   0  0  0  0  0  0
  -30.7656  -17.2443   19.4880 C   0  0  0  0  0  0
  -30.2662  -19.5881   19.9783 C   0  0  0  0  0  0
  -30.8476  -18.6054   19.1356 C   0  0  0  0  0  0
  -30.1278  -16.8258   20.6804 C   0  0  0  0  0  0
  -30.9971  -21.9417   20.6937 C   0  0  0  0  0  0
  -28.9302  -21.6550   19.2986 C   0  0  0  0  0  0
  -31.1667  -23.3830   20.1803 C   0  0  0  0  0  0
  -29.0583  -23.0927   18.7669 C   0  0  0  0  0  0
  -30.3158  -21.0764   19.6219 C   0  0  2  0  0  0
  -29.8340  -24.0269   19.7294 C   0  0  2  0  0  0
  -31.5628  -18.9657   17.8415 C   0  0  0  0  0  0
  -30.1135  -25.4026   19.0830 C   0  0  0  0  0  0
  -28.8701  -26.2709   18.8396 C   0  0  0  0  0  0
  -30.0005  -15.4510   21.0399 N   0  0  0  0  0  0
  -31.4635  -12.3451   19.1228 H   0  0  0  0  0  0
  -30.2910  -11.2560   19.8049 H   0  0  0  0  0  0
  -29.7275  -11.7886   17.4133 H   0  0  0  0  0  0
  -29.6756  -13.4935   17.7849 H   0  0  0  0  0  0
  -27.8113  -11.3176   18.7968 H   0  0  0  0  0  0
  -27.3664  -12.6647   17.7847 H   0  0  0  0  0  0
  -27.7143  -14.2554   19.5905 H   0  0  0  0  0  0
  -28.6645  -11.9334   21.3391 H   0  0  0  0  0  0
  -28.4774  -13.5733   21.8771 H   0  0  0  0  0  0
  -25.2762   -9.5695   22.4740 H   0  0  0  0  0  0
  -24.0008   -7.4636   22.7468 H   0  0  0  0  0  0
  -21.0838   -8.8754   19.8955 H   0  0  0  0  0  0
  -22.3688  -10.9655   19.6138 H   0  0  0  0  0  0
  -21.1986   -7.6144   23.9708 H   0  0  0  0  0  0
  -21.1473   -6.0524   25.9079 H   0  0  0  0  0  0
  -22.0605   -2.7607   23.2848 H   0  0  0  0  0  0
  -22.4130  -11.9869   22.4758 H   0  0  0  0  0  0
  -21.1136  -13.1233   22.2597 H   0  0  0  0  0  0
  -24.6745  -15.8475   20.5293 H   0  0  0  0  0  0
  -26.2966  -15.6271   20.1107 H   0  0  0  0  0  0
  -26.7090  -32.5564   23.1194 H   0  0  0  0  0  0
  -25.0081  -33.9813   25.0521 H   0  0  0  0  0  0
  -22.6836  -31.3095   21.4140 H   0  0  0  0  0  0
  -23.3763  -35.9617   23.3292 H   0  0  0  0  0  0
  -24.3580  -36.8935   22.2061 H   0  0  0  0  0  0
  -23.7196  -37.6498   23.6662 H   0  0  0  0  0  0
  -26.0292  -31.6088   20.5930 H   0  0  0  0  0  0
  -26.8122  -30.8997   21.9781 H   0  0  0  0  0  0
  -28.0878  -29.1263   21.1783 H   0  0  0  0  0  0
  -26.0648  -25.9764   19.0323 H   0  0  0  0  0  0
  -23.9798  -27.2886   19.0457 H   0  0  0  0  0  0
  -23.7076  -30.6008   19.4045 H   0  0  0  0  0  0
  -22.7302  -29.2409   19.8717 H   0  0  0  0  0  0
  -25.1283  -36.2001   25.0839 H   0  0  0  0  0  0
  -20.9941  -28.3210   24.1445 H   0  0  0  0  0  0
  -20.5651  -26.2259   23.3600 H   0  0  0  0  0  0
  -21.6624  -26.7439   22.1209 H   0  0  0  0  0  0
  -19.6895  -25.6288   21.1229 H   0  0  0  0  0  0
  -19.6691  -27.3187   20.6749 H   0  0  0  0  0  0
  -17.4196  -26.6694   21.3992 H   0  0  0  0  0  0
  -18.0288  -26.0050   22.8983 H   0  0  0  0  0  0
  -19.7927  -30.7237   24.2279 H   0  0  0  0  0  0
  -17.5016  -31.6270   24.5145 H   0  0  0  0  0  0
  -15.5343  -30.2990   23.7657 H   0  0  0  0  0  0
  -15.8650  -28.0830   22.7055 H   0  0  0  0  0  0
  -24.5832  -30.7179   25.7849 H   0  0  0  0  0  0
  -24.9042  -32.2902   26.5061 H   0  0  0  0  0  0
  -25.8091  -30.8793   27.0214 H   0  0  0  0  0  0
  -26.2749  -29.6811   24.1173 H   0  0  0  0  0  0
  -27.4045  -29.7257   25.4516 H   0  0  0  0  0  0
  -27.8583  -30.4333   23.9183 H   0  0  0  0  0  0
  -27.2754  -33.3638   26.1999 H   0  0  0  0  0  0
  -28.3908  -32.6749   25.0294 H   0  0  0  0  0  0
  -28.0689  -31.8416   26.5417 H   0  0  0  0  0  0
  -28.2638  -38.0073   24.7475 H   0  0  0  0  0  0
  -28.1021  -36.2607   24.6360 H   0  0  0  0  0  0
  -27.2290  -37.1542   25.8877 H   0  0  0  0  0  0
  -20.9268  -29.8754   21.6977 H   0  0  0  0  0  0
  -26.0190  -38.2897   24.1382 H   0  0  0  0  0  0
  -29.1517  -19.8997   21.8114 H   0  0  0  0  0  0
  -29.0268  -17.5161   22.4154 H   0  0  0  0  0  0
  -31.1956  -16.5207   18.8106 H   0  0  0  0  0  0
  -30.4199  -21.9393   21.6187 H   0  0  0  0  0  0
  -31.9771  -21.5276   20.9357 H   0  0  0  0  0  0
  -28.4375  -21.0370   18.5464 H   0  0  0  0  0  0
  -28.2921  -21.6362   20.1829 H   0  0  0  0  0  0
  -31.8713  -23.3797   19.3469 H   0  0  0  0  0  0
  -31.6268  -23.9926   20.9597 H   0  0  0  0  0  0
  -28.0579  -23.4836   18.5813 H   0  0  0  0  0  0
  -29.5582  -23.0673   17.7975 H   0  0  0  0  0  0
  -30.9134  -21.1996   18.7220 H   0  0  0  0  0  0
  -29.2233  -24.1797   20.6211 H   0  0  0  0  0  0
  -31.9373  -18.0802   17.3271 H   0  0  0  0  0  0
  -32.4197  -19.6095   18.0432 H   0  0  0  0  0  0
  -30.8896  -19.4815   17.1558 H   0  0  0  0  0  0
  -30.6288  -25.2517   18.1335 H   0  0  0  0  0  0
  -30.8086  -25.9683   19.7054 H   0  0  0  0  0  0
  -28.1104  -25.7113   18.2970 H   0  0  0  0  0  0
  -29.1397  -27.1210   18.2113 H   0  0  0  0  0  0
  -29.1631  -15.1969   21.5407 H   0  0  0  0  0  0
  1 25  1  0  0  0
  1 30  2  0  0  0
  1 86  1  0  0  0
  2  3  1  0  0  0
  2 25  1  0  0  0
  2 87  1  0  0  0
  2 88  1  0  0  0
  3  4  1  0  0  0
  3 89  1  0  0  0
  3 90  1  0  0  0
  4  5  1  0  0  0
  4 91  1  0  0  0
  4 92  1  0  0  0
  5  6  1  0  0  0
  5 26  1  0  0  0
  5 93  1  0  0  0
  6 25  1  0  0  0
  6 94  1  0  0  0
  6 95  1  0  0  0
  7  8  2  0  0  0
  7 26  1  0  0  0
  7 29  1  0  0  0
  8  9  1  0  0  0
  8 22  1  0  0  0
  9 10  1  0  0  0
  9 27  2  0  0  0
 10 11  2  0  0  0
 10 15  1  0  0  0
 11 12  1  0  0  0
 11 96  1  0  0  0
 12 13  2  0  0  0
 12 97  1  0  0  0
 13 14  1  0  0  0
 13 31  1  0  0  0
 14 15  2  0  0  0
 14 98  1  0  0  0
 15 99  1  0  0  0
 16 17  2  0  0  0
 16 21  1  0  0  0
 16 31  1  0  0  0
 17 18  1  0  0  0
 17100  1  0  0  0
 18 19  2  0  0  0
 18101  1  0  0  0
 19 20  1  0  0  0
 19 24  1  0  0  0
 20 21  2  0  0  0
 20102  1  0  0  0
 21 23  1  0  0  0
 22 28  1  0  0  0
 22 32  2  0  0  0
 26 27  1  0  0  0
 28103  1  0  0  0
 28104  1  0  0  0
 29105  1  0  0  0
 29106  1  0  0  0
 33 34  1  0  0  0
 33 66  1  0  0  0
 33 70  2  0  0  0
 34 36  1  0  0  0
 34 59  1  0  0  0
 34107  1  0  0  0
 35 44  2  0  0  0
 35 45  1  0  0  0
 35 68  1  0  0  0
 36 56  1  0  0  0
 36108  1  0  0  0
 37 39  1  0  0  0
 37 47  1  0  0  0
 37 66  1  0  0  0
 37109  1  0  0  0
 38 43  2  0  0  0
 38 46  1  0  0  0
 38 47  1  0  0  0
 39 64  1  0  0  0
 39 67  2  0  0  0
 40 52  1  0  0  0
 40 53  2  0  0  0
 40 58  1  0  0  0
 41110  1  0  0  0
 41111  1  0  0  0
 41112  1  0  0  0
 41 48  1  0  0  0
 42 43  1  0  0  0
 42 66  1  0  0  0
 42113  1  0  0  0
 42114  1  0  0  0
 43 44  1  0  0  0
 44115  1  0  0  0
 45 46  2  0  0  0
 45116  1  0  0  0
 46117  1  0  0  0
 47118  1  0  0  0
 47119  1  0  0  0
 48 56  1  0  0  0
 48 65  1  0  0  0
 48120  1  0  0  0
 49 50  1  0  0  0
 49 53  1  0  0  0
 49 64  1  0  0  0
 49121  1  0  0  0
 50 51  1  0  0  0
 50122  1  0  0  0
 50123  1  0  0  0
 51 52  1  0  0  0
 51124  1  0  0  0
 51125  1  0  0  0
 52126  1  0  0  0
 52127  1  0  0  0
 53 54  1  0  0  0
 54 55  2  0  0  0
 54128  1  0  0  0
 55 57  1  0  0  0
 55129  1  0  0  0
 56 69  2  0  0  0
 57 58  2  0  0  0
 57130  1  0  0  0
 58131  1  0  0  0
 59 60  1  0  0  0
 59 61  1  0  0  0
 59 62  1  0  0  0
 60132  1  0  0  0
 60133  1  0  0  0
 60134  1  0  0  0
 61135  1  0  0  0
 61136  1  0  0  0
 61137  1  0  0  0
 62138  1  0  0  0
 62139  1  0  0  0
 62140  1  0  0  0
 63 65  1  0  0  0
 63141  1  0  0  0
 63142  1  0  0  0
 63143  1  0  0  0
 64144  1  0  0  0
 65145  1  0  0  0
 68 85  1  0  0  0
 71 72  2  0  0  0
 71 74  1  0  0  0
 71146  1  0  0  0
 72 76  1  0  0  0
 72147  1  0  0  0
 73 75  1  0  0  0
 73 76  2  0  0  0
 73148  1  0  0  0
 74 75  2  0  0  0
 74 81  1  0  0  0
 75 83  1  0  0  0
 76 86  1  0  0  0
 77 79  1  0  0  0
 77 81  1  0  0  0
 77149  1  0  0  0
 77150  1  0  0  0
 78 80  1  0  0  0
 78 81  1  0  0  0
 78151  1  0  0  0
 78152  1  0  0  0
 79 82  1  0  0  0
 79153  1  0  0  0
 79154  1  0  0  0
 80 82  1  0  0  0
 80155  1  0  0  0
 80156  1  0  0  0
 81157  1  0  0  0
 82 84  1  0  0  0
 82158  1  0  0  0
 83159  1  0  0  0
 83160  1  0  0  0
 83161  1  0  0  0
 84 85  1  0  0  0
 84162  1  0  0  0
 84163  1  0  0  0
 85164  1  0  0  0
 85165  1  0  0  0
 86166  1  0  0  0
M  ISO  4   1 100  68 101  85 101  86 100
M  END
> <chiral flag>
0

> <version>
0

> <s_m_source_file>
/data/baiqing/PycharmProjects/Reinvent-master-3.2/result/LINK_invent/BTK/process_docking_weight1_custom_product_contain_oxygen_bond_distance_aromatic_linkinvent_7_9_3/rearranged_h_0139.sdf

> <i_m_source_file_index>
35

> <r_mmod_Potential_Energy-OPLS-2005>
-1.17363584041595

> <r_mmod_Stretch_Energy-OPLS-2005>
33.9630813598633

> <r_mmod_Bend_Energy-OPLS-2005>
95.0639114379883

> <r_mmod_Torsional_Energy-OPLS-2005>
257.586730957031

> <r_mmod_Improper_Torsional_Energy-OPLS-2005>
3.80547833442688

> <r_mmod_Van_der_Waal_Energy-OPLS-2005>
165.005706787109

> <r_mmod_Electrostatic_Energy-OPLS-2005>
-372.711242675781

> <r_mmod_Solvation_Energy-OPLS-2005>
-194.933898925781

> <b_mmod_Minimization_Converged-OPLS-2005>
0

> <r_mmod_RMS_Derivative-OPLS-2005>
1.05154573917389

$$$$
35
                    3D
 Structure written by MMmdl.
152160  0  0  1  0            999 V2000
  -30.5947  -14.7113   20.5001 C   0  0  0  0  0  0
  -30.4423  -12.4609   19.4329 C   0  0  0  0  0  0
  -29.4946  -12.5161   18.2132 C   0  0  0  0  0  0
  -28.0246  -12.3323   18.6415 C   0  0  0  0  0  0
  -27.6374  -13.2214   19.8507 C   0  0  2  0  0  0
  -28.6892  -13.1207   20.9741 C   0  0  0  0  0  0
  -25.2441  -13.8189   20.5694 C   0  0  0  0  0  0
  -24.1743  -13.0411   20.9229 C   0  0  0  0  0  0
  -24.6352  -11.6909   20.8790 C   0  0  0  0  0  0
  -23.9039  -10.4281   21.0438 C   0  0  0  0  0  0
  -24.3603   -9.4190   21.9203 C   0  0  0  0  0  0
  -23.6287   -8.2219   22.0757 C   0  0  0  0  0  0
  -22.4270   -8.0274   21.3540 C   0  0  0  0  0  0
  -21.9906   -9.0241   20.4639 C   0  0  0  0  0  0
  -22.7226  -10.2122   20.3056 C   0  0  0  0  0  0
  -21.6839   -6.0726   22.5272 C   0  0  0  0  0  0
  -21.4019   -6.5626   23.8211 C   0  0  0  0  0  0
  -21.3656   -5.6772   24.9170 C   0  0  0  0  0  0
  -21.6038   -4.3039   24.7206 C   0  0  0  0  0  0
  -21.8822   -3.8135   23.4329 C   0  0  0  0  0  0
  -21.9200   -4.6957   22.3393 C   0  0  0  0  0  0
  -22.7770  -13.5202   21.1879 C   0  0  0  0  0  0
  -22.1655   -4.2138   21.0965 F   0  0  0  0  0  0
  -21.5632   -3.4528   25.7726 F   0  0  0  0  0  0
  -29.9835  -13.4900   20.3866 N   0  0  0  0  0  0
  -26.2886  -12.9374   20.3298 N   0  0  0  0  0  0
  -25.9279  -11.6518   20.5779 N   0  0  0  0  0  0
  -22.0409  -12.8201   22.0444 N   0  0  0  0  0  0
  -25.4028  -15.1921   20.4042 N   0  0  0  0  0  0
  -31.8015  -14.8335   20.2688 O   0  0  0  0  0  0
  -21.6628   -6.8877   21.4238 O   0  0  0  0  0  0
  -22.3470  -14.5506   20.6730 O   0  0  0  0  0  0
  -24.6259  -31.8557   23.1963 C   0  0  0  0  0  0
  -25.9081  -32.4756   23.8333 C   0  0  1  0  0  0
  -27.2298  -27.2908   20.1448 C   0  0  0  0  0  0
  -25.5882  -33.8565   24.2247 N   0  0  0  0  0  0
  -23.4247  -30.4737   21.5363 C   0  0  2  0  0  0
  -24.8766  -28.9181   20.1161 C   0  0  0  0  0  0
  -22.7453  -29.4612   22.4908 C   0  0  0  0  0  0
  -18.0272  -28.1369   22.8469 C   0  0  0  0  0  0
  -24.1494  -36.7325   23.2635 C   0  0  0  0  0  0
  -25.9650  -30.7791   21.3713 C   0  0  0  0  0  0
  -26.0428  -29.4000   20.7241 C   0  0  0  0  0  0
  -27.2248  -28.5984   20.7259 C   0  0  0  0  0  0
  -26.0412  -26.8587   19.5232 C   0  0  0  0  0  0
  -24.8764  -27.6527   19.5052 C   0  0  0  0  0  0
  -23.6462  -29.8022   20.1547 C   0  0  0  0  0  0
  -25.4114  -36.3085   24.0320 C   0  0  1  0  0  0
  -20.5870  -28.3722   23.1243 C   0  0  2  0  0  0
  -20.6775  -26.9410   22.5394 C   0  0  0  0  0  0
  -19.5764  -26.6359   21.5192 C   0  0  0  0  0  0
  -18.1958  -26.7880   22.1665 C   0  0  0  0  0  0
  -19.1518  -28.8867   23.2853 C   0  0  0  0  0  0
  -18.9469  -30.1470   23.8863 C   0  0  0  0  0  0
  -17.6474  -30.6600   24.0498 C   0  0  0  0  0  0
  -25.9032  -34.9453   23.5084 C   0  0  0  0  0  0
  -16.5369  -29.9075   23.6278 C   0  0  0  0  0  0
  -16.7263  -28.6476   23.0334 C   0  0  0  0  0  0
  -26.4484  -31.6591   25.0723 C   0  0  0  0  0  0
  -25.3718  -31.3723   26.1453 C   0  0  0  0  0  0
  -27.0324  -30.3013   24.6183 C   0  0  0  0  0  0
  -27.6010  -32.4340   25.7515 C   0  0  0  0  0  0
  -27.5577  -37.1839   24.8458 C   0  0  0  0  0  0
  -21.4158  -29.3102   22.3694 N   0  0  0  0  0  0
  -26.4293  -37.3772   23.9390 N   0  0  0  0  0  0
  -24.6900  -31.0553   22.0906 N   0  0  0  0  0  0
  -23.4159  -28.8117   23.2964 O   0  0  0  0  0  0
  -28.3456  -26.4382   20.1425 O   0  0  0  0  0  0
  -26.5610  -34.8926   22.4655 O   0  0  0  0  0  0
  -23.5407  -32.1343   23.7290 O   0  0  0  0  0  0
  -29.5336  -18.3792   20.2623 C   0  0  0  0  0  0
  -29.9574  -19.8273   22.1745 C   0  0  0  0  0  0
  -30.3133  -17.3989   22.3484 C   0  0  0  0  0  0
  -29.5396  -19.7192   20.8276 C   0  0  0  0  0  0
  -29.9303  -17.1948   21.0040 C   0  0  0  0  0  0
  -30.3200  -18.6882   22.9220 C   0  0  0  0  0  0
  -29.1306  -21.0094   20.0678 C   0  0  0  0  0  0
  -29.0138  -22.4238   20.7974 C   0  0  0  0  0  0
  -28.7604  -23.7687   19.9440 C   0  0  0  0  0  0
  -28.2048  -25.0676   20.7096 C   0  0  0  0  0  0
  -29.7575  -15.8119   20.5209 N   0  0  0  0  0  0
  -28.8594  -20.9671   18.8645 O   0  0  0  0  0  0
  -30.6515  -18.8323   24.2279 F   0  0  0  0  0  0
  -31.4715  -12.6333   19.1114 H   0  0  0  0  0  0
  -30.4356  -11.4763   19.8989 H   0  0  0  0  0  0
  -29.7657  -11.7521   17.4812 H   0  0  0  0  0  0
  -29.6078  -13.4764   17.7078 H   0  0  0  0  0  0
  -27.8851  -11.2832   18.9030 H   0  0  0  0  0  0
  -27.3591  -12.5307   17.8006 H   0  0  0  0  0  0
  -27.6348  -14.2477   19.4856 H   0  0  0  0  0  0
  -28.7316  -12.1065   21.3728 H   0  0  0  0  0  0
  -28.4289  -13.7749   21.8092 H   0  0  0  0  0  0
  -25.2752   -9.5656   22.4767 H   0  0  0  0  0  0
  -24.0001   -7.4594   22.7452 H   0  0  0  0  0  0
  -21.0857   -8.8756   19.8922 H   0  0  0  0  0  0
  -22.3719  -10.9660   19.6153 H   0  0  0  0  0  0
  -21.2017   -7.6134   23.9710 H   0  0  0  0  0  0
  -21.1473   -6.0501   25.9070 H   0  0  0  0  0  0
  -22.0624   -2.7596   23.2825 H   0  0  0  0  0  0
  -22.4032  -11.9916   22.4897 H   0  0  0  0  0  0
  -21.0983  -13.1176   22.2541 H   0  0  0  0  0  0
  -24.6214  -15.8335   20.4915 H   0  0  0  0  0  0
  -26.2289  -15.6392   20.0325 H   0  0  0  0  0  0
  -26.7146  -32.5445   23.1080 H   0  0  0  0  0  0
  -25.0066  -33.9714   25.0426 H   0  0  0  0  0  0
  -22.7181  -31.2919   21.3831 H   0  0  0  0  0  0
  -23.3732  -35.9677   23.3299 H   0  0  0  0  0  0
  -24.3575  -36.8965   22.2043 H   0  0  0  0  0  0
  -23.7299  -37.6538   23.6679 H   0  0  0  0  0  0
  -26.0983  -31.5346   20.5990 H   0  0  0  0  0  0
  -26.8446  -30.8401   22.0014 H   0  0  0  0  0  0
  -28.1219  -28.9539   21.2121 H   0  0  0  0  0  0
  -26.0098  -25.8857   19.0579 H   0  0  0  0  0  0
  -23.9816  -27.2736   19.0273 H   0  0  0  0  0  0
  -23.7738  -30.5756   19.3968 H   0  0  0  0  0  0
  -22.7685  -29.2345   19.8439 H   0  0  0  0  0  0
  -25.1316  -36.1915   25.0813 H   0  0  0  0  0  0
  -20.9964  -28.3314   24.1361 H   0  0  0  0  0  0
  -20.5653  -26.2301   23.3598 H   0  0  0  0  0  0
  -21.6665  -26.7406   22.1249 H   0  0  0  0  0  0
  -19.6933  -25.6271   21.1215 H   0  0  0  0  0  0
  -19.6622  -27.3172   20.6725 H   0  0  0  0  0  0
  -17.4206  -26.6516   21.4130 H   0  0  0  0  0  0
  -18.0511  -26.0095   22.9168 H   0  0  0  0  0  0
  -19.7974  -30.7264   24.2222 H   0  0  0  0  0  0
  -17.5004  -31.6280   24.5095 H   0  0  0  0  0  0
  -15.5371  -30.2975   23.7597 H   0  0  0  0  0  0
  -15.8633  -28.0759   22.7096 H   0  0  0  0  0  0
  -24.5901  -30.7048   25.7818 H   0  0  0  0  0  0
  -24.8910  -32.2879   26.4890 H   0  0  0  0  0  0
  -25.8070  -30.8919   27.0232 H   0  0  0  0  0  0
  -26.2888  -29.6771   24.1208 H   0  0  0  0  0  0
  -27.4001  -29.7259   25.4697 H   0  0  0  0  0  0
  -27.8773  -30.4290   23.9406 H   0  0  0  0  0  0
  -27.2572  -33.3631   26.2068 H   0  0  0  0  0  0
  -28.3845  -32.6929   25.0380 H   0  0  0  0  0  0
  -28.0641  -31.8498   26.5478 H   0  0  0  0  0  0
  -28.2609  -38.0123   24.7471 H   0  0  0  0  0  0
  -28.1072  -36.2663   24.6327 H   0  0  0  0  0  0
  -27.2294  -37.1520   25.8861 H   0  0  0  0  0  0
  -20.9331  -29.8888   21.6966 H   0  0  0  0  0  0
  -26.0174  -38.2848   24.1369 H   0  0  0  0  0  0
  -29.2089  -18.2635   19.2351 H   0  0  0  0  0  0
  -30.0005  -20.7899   22.6667 H   0  0  0  0  0  0
  -30.5499  -16.5554   22.9803 H   0  0  0  0  0  0
  -28.2084  -22.3242   21.5255 H   0  0  0  0  0  0
  -29.9246  -22.5760   21.3832 H   0  0  0  0  0  0
  -28.0909  -23.5388   19.1113 H   0  0  0  0  0  0
  -29.7143  -24.0341   19.4868 H   0  0  0  0  0  0
  -28.7226  -25.1022   21.6674 H   0  0  0  0  0  0
  -27.1654  -24.8763   20.9782 H   0  0  0  0  0  0
  -28.8034  -15.5800   20.2997 H   0  0  0  0  0  0
  1 25  1  0  0  0
  1 30  2  0  0  0
  1 81  1  0  0  0
  2  3  1  0  0  0
  2 25  1  0  0  0
  2 84  1  0  0  0
  2 85  1  0  0  0
  3  4  1  0  0  0
  3 86  1  0  0  0
  3 87  1  0  0  0
  4  5  1  0  0  0
  4 88  1  0  0  0
  4 89  1  0  0  0
  5  6  1  0  0  0
  5 26  1  0  0  0
  5 90  1  0  0  0
  6 25  1  0  0  0
  6 91  1  0  0  0
  6 92  1  0  0  0
  7  8  2  0  0  0
  7 26  1  0  0  0
  7 29  1  0  0  0
  8  9  1  0  0  0
  8 22  1  0  0  0
  9 10  1  0  0  0
  9 27  2  0  0  0
 10 11  2  0  0  0
 10 15  1  0  0  0
 11 12  1  0  0  0
 11 93  1  0  0  0
 12 13  2  0  0  0
 12 94  1  0  0  0
 13 14  1  0  0  0
 13 31  1  0  0  0
 14 15  2  0  0  0
 14 95  1  0  0  0
 15 96  1  0  0  0
 16 17  2  0  0  0
 16 21  1  0  0  0
 16 31  1  0  0  0
 17 18  1  0  0  0
 17 97  1  0  0  0
 18 19  2  0  0  0
 18 98  1  0  0  0
 19 20  1  0  0  0
 19 24  1  0  0  0
 20 21  2  0  0  0
 20 99  1  0  0  0
 21 23  1  0  0  0
 22 28  1  0  0  0
 22 32  2  0  0  0
 26 27  1  0  0  0
 28100  1  0  0  0
 28101  1  0  0  0
 29102  1  0  0  0
 29103  1  0  0  0
 33 34  1  0  0  0
 33 66  1  0  0  0
 33 70  2  0  0  0
 34 36  1  0  0  0
 34 59  1  0  0  0
 34104  1  0  0  0
 35 44  2  0  0  0
 35 45  1  0  0  0
 35 68  1  0  0  0
 36 56  1  0  0  0
 36105  1  0  0  0
 37 39  1  0  0  0
 37 47  1  0  0  0
 37 66  1  0  0  0
 37106  1  0  0  0
 38 43  2  0  0  0
 38 46  1  0  0  0
 38 47  1  0  0  0
 39 64  1  0  0  0
 39 67  2  0  0  0
 40 52  1  0  0  0
 40 53  2  0  0  0
 40 58  1  0  0  0
 41107  1  0  0  0
 41108  1  0  0  0
 41109  1  0  0  0
 41 48  1  0  0  0
 42 43  1  0  0  0
 42 66  1  0  0  0
 42110  1  0  0  0
 42111  1  0  0  0
 43 44  1  0  0  0
 44112  1  0  0  0
 45 46  2  0  0  0
 45113  1  0  0  0
 46114  1  0  0  0
 47115  1  0  0  0
 47116  1  0  0  0
 48 56  1  0  0  0
 48 65  1  0  0  0
 48117  1  0  0  0
 49 50  1  0  0  0
 49 53  1  0  0  0
 49 64  1  0  0  0
 49118  1  0  0  0
 50 51  1  0  0  0
 50119  1  0  0  0
 50120  1  0  0  0
 51 52  1  0  0  0
 51121  1  0  0  0
 51122  1  0  0  0
 52123  1  0  0  0
 52124  1  0  0  0
 53 54  1  0  0  0
 54 55  2  0  0  0
 54125  1  0  0  0
 55 57  1  0  0  0
 55126  1  0  0  0
 56 69  2  0  0  0
 57 58  2  0  0  0
 57127  1  0  0  0
 58128  1  0  0  0
 59 60  1  0  0  0
 59 61  1  0  0  0
 59 62  1  0  0  0
 60129  1  0  0  0
 60130  1  0  0  0
 60131  1  0  0  0
 61132  1  0  0  0
 61133  1  0  0  0
 61134  1  0  0  0
 62135  1  0  0  0
 62136  1  0  0  0
 62137  1  0  0  0
 63 65  1  0  0  0
 63138  1  0  0  0
 63139  1  0  0  0
 63140  1  0  0  0
 64141  1  0  0  0
 65142  1  0  0  0
 68 80  1  0  0  0
 71 74  2  0  0  0
 71 75  1  0  0  0
 71143  1  0  0  0
 72 74  1  0  0  0
 72 76  2  0  0  0
 72144  1  0  0  0
 73 75  2  0  0  0
 73 76  1  0  0  0
 73145  1  0  0  0
 74 77  1  0  0  0
 75 81  1  0  0  0
 76 83  1  0  0  0
 77 78  1  0  0  0
 77 82  2  0  0  0
 78 79  1  0  0  0
 78146  1  0  0  0
 78147  1  0  0  0
 79 80  1  0  0  0
 79148  1  0  0  0
 79149  1  0  0  0
 80150  1  0  0  0
 80151  1  0  0  0
 81152  1  0  0  0
M  ISO  4   1 100  68 101  80 101  81 100
M  END
> <chiral flag>
0

> <version>
0

> <s_m_source_file>
/data/baiqing/PycharmProjects/Reinvent-master-3.2/result/LINK_invent/BTK/process_docking_weight1_custom_product_contain_oxygen_bond_distance_aromatic_linkinvent_7_9_3/rearranged_h_0139.sdf

> <i_m_source_file_index>
36

> <r_mmod_Potential_Energy-OPLS-2005>
125.202033996582

> <r_mmod_Stretch_Energy-OPLS-2005>
101.88249206543

> <r_mmod_Bend_Energy-OPLS-2005>
141.129623413086

> <r_mmod_Torsional_Energy-OPLS-2005>
281.913940429688

> <r_mmod_Improper_Torsional_Energy-OPLS-2005>
10.8031091690063

> <r_mmod_Van_der_Waal_Energy-OPLS-2005>
133.091491699219

> <r_mmod_Electrostatic_Energy-OPLS-2005>
-397.145904541016

> <r_mmod_Solvation_Energy-OPLS-2005>
-218.452575683594

> <b_mmod_Minimization_Converged-OPLS-2005>
0

> <r_mmod_RMS_Derivative-OPLS-2005>
5.44021320343018

$$$$
36
                    3D
 Structure written by MMmdl.
160168  0  0  1  0            999 V2000
  -30.7114  -14.4819   20.6511 C   0  0  0  0  0  0
  -30.4554  -12.3273   19.4575 C   0  0  0  0  0  0
  -29.5359  -12.5313   18.2384 C   0  0  0  0  0  0
  -28.0511  -12.3895   18.6313 C   0  0  0  0  0  0
  -27.6874  -13.2109   19.9010 C   0  0  2  0  0  0
  -28.7213  -12.9664   21.0252 C   0  0  0  0  0  0
  -25.2674  -13.8199   20.5649 C   0  0  0  0  0  0
  -24.1909  -13.0461   20.9183 C   0  0  0  0  0  0
  -24.6488  -11.6935   20.8774 C   0  0  0  0  0  0
  -23.9130  -10.4314   21.0449 C   0  0  0  0  0  0
  -24.3657   -9.4206   21.9210 C   0  0  0  0  0  0
  -23.6297   -8.2245   22.0741 C   0  0  0  0  0  0
  -22.4256   -8.0344   21.3564 C   0  0  0  0  0  0
  -21.9964   -9.0336   20.4653 C   0  0  0  0  0  0
  -22.7323  -10.2196   20.3070 C   0  0  0  0  0  0
  -21.6855   -6.0751   22.5291 C   0  0  0  0  0  0
  -21.3999   -6.5624   23.8233 C   0  0  0  0  0  0
  -21.3653   -5.6748   24.9178 C   0  0  0  0  0  0
  -21.6062   -4.3019   24.7224 C   0  0  0  0  0  0
  -21.8816   -3.8153   23.4329 C   0  0  0  0  0  0
  -21.9180   -4.6981   22.3399 C   0  0  0  0  0  0
  -22.7924  -13.5293   21.1795 C   0  0  0  0  0  0
  -22.1632   -4.2176   21.0974 F   0  0  0  0  0  0
  -21.5651   -3.4497   25.7720 F   0  0  0  0  0  0
  -30.0623  -13.2933   20.4962 N   0  0  0  0  0  0
  -26.3179  -12.9367   20.3456 N   0  0  0  0  0  0
  -25.9437  -11.6536   20.5815 N   0  0  0  0  0  0
  -22.0475  -12.8370   22.0356 N   0  0  0  0  0  0
  -25.4366  -15.1927   20.3998 N   0  0  0  0  0  0
  -31.7495  -14.7576   20.0397 O   0  0  0  0  0  0
  -21.6632   -6.8932   21.4252 O   0  0  0  0  0  0
  -22.3620  -14.5569   20.6570 O   0  0  0  0  0  0
  -24.6189  -31.8636   23.2108 C   0  0  0  0  0  0
  -25.9070  -32.4821   23.8421 C   0  0  1  0  0  0
  -27.2556  -27.4249   20.0885 C   0  0  0  0  0  0
  -25.5938  -33.8612   24.2367 N   0  0  0  0  0  0
  -23.4062  -30.4848   21.5525 C   0  0  2  0  0  0
  -24.8550  -28.9447   20.1106 C   0  0  0  0  0  0
  -22.7392  -29.4599   22.5016 C   0  0  0  0  0  0
  -18.0245  -28.1261   22.8499 C   0  0  0  0  0  0
  -24.1431  -36.7320   23.2625 C   0  0  0  0  0  0
  -25.9280  -30.8296   21.3547 C   0  0  0  0  0  0
  -26.0079  -29.4547   20.7175 C   0  0  0  0  0  0
  -27.1980  -28.6937   20.7148 C   0  0  0  0  0  0
  -26.0832  -26.9313   19.4697 C   0  0  0  0  0  0
  -24.8863  -27.6831   19.4870 C   0  0  0  0  0  0
  -23.6152  -29.8136   20.1640 C   0  0  0  0  0  0
  -25.4058  -36.3107   24.0332 C   0  0  1  0  0  0
  -20.5855  -28.3595   23.1385 C   0  0  2  0  0  0
  -20.6751  -26.9302   22.5536 C   0  0  0  0  0  0
  -19.5781  -26.6312   21.5257 C   0  0  0  0  0  0
  -18.1926  -26.7806   22.1631 C   0  0  0  0  0  0
  -19.1510  -28.8744   23.2916 C   0  0  0  0  0  0
  -18.9443  -30.1365   23.8896 C   0  0  0  0  0  0
  -17.6437  -30.6503   24.0505 C   0  0  0  0  0  0
  -25.9004  -34.9481   23.5146 C   0  0  0  0  0  0
  -16.5313  -29.8999   23.6303 C   0  0  0  0  0  0
  -16.7218  -28.6421   23.0310 C   0  0  0  0  0  0
  -26.4490  -31.6624   25.0767 C   0  0  0  0  0  0
  -25.3794  -31.3741   26.1570 C   0  0  0  0  0  0
  -27.0301  -30.3100   24.6070 C   0  0  0  0  0  0
  -27.6031  -32.4372   25.7533 C   0  0  0  0  0  0
  -27.5561  -37.1813   24.8472 C   0  0  0  0  0  0
  -21.4130  -29.3011   22.3791 N   0  0  0  0  0  0
  -26.4240  -37.3816   23.9430 N   0  0  0  0  0  0
  -24.6717  -31.0723   22.1016 N   0  0  0  0  0  0
  -23.4142  -28.8091   23.3020 O   0  0  0  0  0  0
  -28.4760  -26.7676   20.1174 O   0  0  0  0  0  0
  -26.5512  -34.8925   22.4669 O   0  0  0  0  0  0
  -23.5389  -32.1347   23.7518 O   0  0  0  0  0  0
  -30.1130  -18.8589   22.8521 C   0  0  0  0  0  0
  -29.5817  -18.9243   20.4962 C   0  0  0  0  0  0
  -30.2867  -17.4527   22.7817 C   0  0  0  0  0  0
  -29.7751  -17.5182   20.4184 C   0  0  0  0  0  0
  -29.7526  -19.6329   21.7141 C   0  0  0  0  0  0
  -30.1337  -16.7629   21.5611 C   0  0  0  0  0  0
  -29.5093  -21.1239   21.8544 C   0  0  0  0  0  0
  -28.3439  -24.8796   22.0736 C   0  0  0  0  0  0
  -27.2861  -23.4568   20.3601 C   0  0  0  0  0  0
  -28.6866  -25.4298   19.6174 C   0  0  0  0  0  0
  -29.8152  -23.2923   20.7105 C   0  0  0  0  0  0
  -28.5550  -24.2604   20.6779 C   0  0  0  0  0  0
  -29.2464  -21.6718   22.9639 N   0  0  0  0  0  0
  -30.1702  -15.3277   21.5539 N   0  0  0  0  0  0
  -29.5793  -21.8488   20.6680 O   0  0  0  0  0  0
  -31.5025  -12.4358   19.1685 H   0  0  0  0  0  0
  -30.3673  -11.3120   19.8491 H   0  0  0  0  0  0
  -29.7924  -11.8132   17.4579 H   0  0  0  0  0  0
  -29.7164  -13.5236   17.8177 H   0  0  0  0  0  0
  -27.8512  -11.3308   18.7985 H   0  0  0  0  0  0
  -27.4187  -12.6911   17.7969 H   0  0  0  0  0  0
  -27.7456  -14.2656   19.6334 H   0  0  0  0  0  0
  -28.7058  -11.9224   21.3491 H   0  0  0  0  0  0
  -28.4626  -13.5431   21.9123 H   0  0  0  0  0  0
  -25.2803   -9.5656   22.4792 H   0  0  0  0  0  0
  -24.0004   -7.4635   22.7455 H   0  0  0  0  0  0
  -21.0893   -8.8952   19.8940 H   0  0  0  0  0  0
  -22.3869  -10.9774   19.6180 H   0  0  0  0  0  0
  -21.1952   -7.6114   23.9783 H   0  0  0  0  0  0
  -21.1473   -6.0429   25.9097 H   0  0  0  0  0  0
  -22.0598   -2.7612   23.2818 H   0  0  0  0  0  0
  -22.3947  -12.0034   22.4855 H   0  0  0  0  0  0
  -21.1106  -13.1516   22.2409 H   0  0  0  0  0  0
  -24.6627  -15.8454   20.4841 H   0  0  0  0  0  0
  -26.2911  -15.6407   20.0897 H   0  0  0  0  0  0
  -26.7122  -32.5526   23.1169 H   0  0  0  0  0  0
  -25.0264  -33.9736   25.0649 H   0  0  0  0  0  0
  -22.6979  -31.3039   21.4115 H   0  0  0  0  0  0
  -23.3677  -35.9670   23.3308 H   0  0  0  0  0  0
  -24.3512  -36.8932   22.2036 H   0  0  0  0  0  0
  -23.7172  -37.6536   23.6621 H   0  0  0  0  0  0
  -26.0131  -31.5816   20.5665 H   0  0  0  0  0  0
  -26.8263  -30.9181   21.9520 H   0  0  0  0  0  0
  -28.0878  -29.0719   21.1984 H   0  0  0  0  0  0
  -26.0698  -25.9829   18.9499 H   0  0  0  0  0  0
  -24.0026  -27.2940   18.9952 H   0  0  0  0  0  0
  -23.7155  -30.5785   19.3906 H   0  0  0  0  0  0
  -22.7407  -29.2290   19.8823 H   0  0  0  0  0  0
  -25.1208  -36.1990   25.0820 H   0  0  0  0  0  0
  -20.9932  -28.3202   24.1501 H   0  0  0  0  0  0
  -20.5547  -26.2203   23.3753 H   0  0  0  0  0  0
  -21.6654  -26.7261   22.1409 H   0  0  0  0  0  0
  -19.6955  -25.6252   21.1238 H   0  0  0  0  0  0
  -19.6724  -27.3123   20.6760 H   0  0  0  0  0  0
  -17.4207  -26.6553   21.4010 H   0  0  0  0  0  0
  -18.0376  -25.9859   22.8949 H   0  0  0  0  0  0
  -19.7947  -30.7164   24.2227 H   0  0  0  0  0  0
  -17.4989  -31.6210   24.5022 H   0  0  0  0  0  0
  -15.5305  -30.2870   23.7650 H   0  0  0  0  0  0
  -15.8616  -28.0746   22.6987 H   0  0  0  0  0  0
  -24.5917  -30.7113   25.8006 H   0  0  0  0  0  0
  -24.9029  -32.2902   26.5086 H   0  0  0  0  0  0
  -25.8207  -30.8929   27.0314 H   0  0  0  0  0  0
  -26.2846  -29.6903   24.1079 H   0  0  0  0  0  0
  -27.4104  -29.7294   25.4482 H   0  0  0  0  0  0
  -27.8656  -30.4481   23.9186 H   0  0  0  0  0  0
  -27.2613  -33.3648   26.2135 H   0  0  0  0  0  0
  -28.3829  -32.7003   25.0378 H   0  0  0  0  0  0
  -28.0714  -31.8520   26.5455 H   0  0  0  0  0  0
  -28.2581  -38.0112   24.7498 H   0  0  0  0  0  0
  -28.1042  -36.2636   24.6287 H   0  0  0  0  0  0
  -27.2292  -37.1501   25.8886 H   0  0  0  0  0  0
  -20.9255  -29.8934   21.7212 H   0  0  0  0  0  0
  -26.0141  -38.2885   24.1515 H   0  0  0  0  0  0
  -30.2472  -19.3374   23.8121 H   0  0  0  0  0  0
  -29.2629  -19.4576   19.6120 H   0  0  0  0  0  0
  -30.5189  -16.9102   23.6916 H   0  0  0  0  0  0
  -29.5908  -17.0104   19.4821 H   0  0  0  0  0  0
  -27.4274  -25.4698   22.1071 H   0  0  0  0  0  0
  -29.1667  -25.5352   22.3557 H   0  0  0  0  0  0
  -28.2548  -24.1169   22.8445 H   0  0  0  0  0  0
  -26.4078  -24.1027   20.3272 H   0  0  0  0  0  0
  -27.1031  -22.7012   21.1247 H   0  0  0  0  0  0
  -27.3639  -22.9525   19.4003 H   0  0  0  0  0  0
  -28.0963  -25.2447   18.7227 H   0  0  0  0  0  0
  -29.7118  -25.4602   19.2410 H   0  0  0  0  0  0
  -30.4872  -23.5678   21.5278 H   0  0  0  0  0  0
  -30.4397  -23.4852   19.8370 H   0  0  0  0  0  0
  -29.1863  -20.9919   23.7135 H   0  0  0  0  0  0
  -29.5413  -14.8781   22.1984 H   0  0  0  0  0  0
  1 25  1  0  0  0
  1 30  2  0  0  0
  1 84  1  0  0  0
  2  3  1  0  0  0
  2 25  1  0  0  0
  2 86  1  0  0  0
  2 87  1  0  0  0
  3  4  1  0  0  0
  3 88  1  0  0  0
  3 89  1  0  0  0
  4  5  1  0  0  0
  4 90  1  0  0  0
  4 91  1  0  0  0
  5  6  1  0  0  0
  5 26  1  0  0  0
  5 92  1  0  0  0
  6 25  1  0  0  0
  6 93  1  0  0  0
  6 94  1  0  0  0
  7  8  2  0  0  0
  7 26  1  0  0  0
  7 29  1  0  0  0
  8  9  1  0  0  0
  8 22  1  0  0  0
  9 10  1  0  0  0
  9 27  2  0  0  0
 10 11  2  0  0  0
 10 15  1  0  0  0
 11 12  1  0  0  0
 11 95  1  0  0  0
 12 13  2  0  0  0
 12 96  1  0  0  0
 13 14  1  0  0  0
 13 31  1  0  0  0
 14 15  2  0  0  0
 14 97  1  0  0  0
 15 98  1  0  0  0
 16 17  2  0  0  0
 16 21  1  0  0  0
 16 31  1  0  0  0
 17 18  1  0  0  0
 17 99  1  0  0  0
 18 19  2  0  0  0
 18100  1  0  0  0
 19 20  1  0  0  0
 19 24  1  0  0  0
 20 21  2  0  0  0
 20101  1  0  0  0
 21 23  1  0  0  0
 22 28  1  0  0  0
 22 32  2  0  0  0
 26 27  1  0  0  0
 28102  1  0  0  0
 28103  1  0  0  0
 29104  1  0  0  0
 29105  1  0  0  0
 33 34  1  0  0  0
 33 66  1  0  0  0
 33 70  2  0  0  0
 34 36  1  0  0  0
 34 59  1  0  0  0
 34106  1  0  0  0
 35 44  2  0  0  0
 35 45  1  0  0  0
 35 68  1  0  0  0
 36 56  1  0  0  0
 36107  1  0  0  0
 37 39  1  0  0  0
 37 47  1  0  0  0
 37 66  1  0  0  0
 37108  1  0  0  0
 38 43  2  0  0  0
 38 46  1  0  0  0
 38 47  1  0  0  0
 39 64  1  0  0  0
 39 67  2  0  0  0
 40 52  1  0  0  0
 40 53  2  0  0  0
 40 58  1  0  0  0
 41109  1  0  0  0
 41110  1  0  0  0
 41111  1  0  0  0
 41 48  1  0  0  0
 42 43  1  0  0  0
 42 66  1  0  0  0
 42112  1  0  0  0
 42113  1  0  0  0
 43 44  1  0  0  0
 44114  1  0  0  0
 45 46  2  0  0  0
 45115  1  0  0  0
 46116  1  0  0  0
 47117  1  0  0  0
 47118  1  0  0  0
 48 56  1  0  0  0
 48 65  1  0  0  0
 48119  1  0  0  0
 49 50  1  0  0  0
 49 53  1  0  0  0
 49 64  1  0  0  0
 49120  1  0  0  0
 50 51  1  0  0  0
 50121  1  0  0  0
 50122  1  0  0  0
 51 52  1  0  0  0
 51123  1  0  0  0
 51124  1  0  0  0
 52125  1  0  0  0
 52126  1  0  0  0
 53 54  1  0  0  0
 54 55  2  0  0  0
 54127  1  0  0  0
 55 57  1  0  0  0
 55128  1  0  0  0
 56 69  2  0  0  0
 57 58  2  0  0  0
 57129  1  0  0  0
 58130  1  0  0  0
 59 60  1  0  0  0
 59 61  1  0  0  0
 59 62  1  0  0  0
 60131  1  0  0  0
 60132  1  0  0  0
 60133  1  0  0  0
 61134  1  0  0  0
 61135  1  0  0  0
 61136  1  0  0  0
 62137  1  0  0  0
 62138  1  0  0  0
 62139  1  0  0  0
 63 65  1  0  0  0
 63140  1  0  0  0
 63141  1  0  0  0
 63142  1  0  0  0
 64143  1  0  0  0
 65144  1  0  0  0
 68 80  1  0  0  0
 71 73  2  0  0  0
 71 75  1  0  0  0
 71145  1  0  0  0
 72 74  1  0  0  0
 72 75  2  0  0  0
 72146  1  0  0  0
 73 76  1  0  0  0
 73147  1  0  0  0
 74 76  2  0  0  0
 74148  1  0  0  0
 75 77  1  0  0  0
 76 84  1  0  0  0
 77 83  2  0  0  0
 77 85  1  0  0  0
 78149  1  0  0  0
 78150  1  0  0  0
 78151  1  0  0  0
 78 82  1  0  0  0
 79 82  1  0  0  0
 79152  1  0  0  0
 79153  1  0  0  0
 79154  1  0  0  0
 80 82  1  0  0  0
 80155  1  0  0  0
 80156  1  0  0  0
 81 82  1  0  0  0
 81 85  1  0  0  0
 81157  1  0  0  0
 81158  1  0  0  0
 83159  1  0  0  0
 84160  1  0  0  0
M  ISO  4   1 100  68 101  80 101  84 100
M  END
> <chiral flag>
0

> <version>
0

> <s_m_source_file>
/data/baiqing/PycharmProjects/Reinvent-master-3.2/result/LINK_invent/BTK/process_docking_weight1_custom_product_contain_oxygen_bond_distance_aromatic_linkinvent_7_9_3/rearranged_h_0139.sdf

> <i_m_source_file_index>
37

> <r_mmod_Potential_Energy-OPLS-2005>
19.9494457244873

> <r_mmod_Stretch_Energy-OPLS-2005>
57.5757141113281

> <r_mmod_Bend_Energy-OPLS-2005>
139.59358215332

> <r_mmod_Torsional_Energy-OPLS-2005>
257.454010009766

> <r_mmod_Improper_Torsional_Energy-OPLS-2005>
3.59002757072449

> <r_mmod_Van_der_Waal_Energy-OPLS-2005>
154.803451538086

> <r_mmod_Electrostatic_Energy-OPLS-2005>
-398.868896484375

> <r_mmod_Solvation_Energy-OPLS-2005>
-209.836715698242

> <b_mmod_Minimization_Converged-OPLS-2005>
0

> <r_mmod_RMS_Derivative-OPLS-2005>
6.92162561416626

$$$$
37
                    3D
 Structure written by MMmdl.
171180  0  0  1  0            999 V2000
  -30.5863  -14.6852   20.5449 C   0  0  0  0  0  0
  -30.4510  -12.4339   19.4610 C   0  0  0  0  0  0
  -29.5213  -12.5117   18.2290 C   0  0  0  0  0  0
  -28.0440  -12.3254   18.6360 C   0  0  0  0  0  0
  -27.6461  -13.2122   19.8480 C   0  0  2  0  0  0
  -28.6842  -13.0798   20.9826 C   0  0  0  0  0  0
  -25.2530  -13.8167   20.5664 C   0  0  0  0  0  0
  -24.1795  -13.0447   20.9220 C   0  0  0  0  0  0
  -24.6361  -11.6922   20.8733 C   0  0  0  0  0  0
  -23.9029  -10.4299   21.0359 C   0  0  0  0  0  0
  -24.3595   -9.4219   21.9123 C   0  0  0  0  0  0
  -23.6289   -8.2246   22.0714 C   0  0  0  0  0  0
  -22.4268   -8.0275   21.3535 C   0  0  0  0  0  0
  -21.9893   -9.0224   20.4621 C   0  0  0  0  0  0
  -22.7208  -10.2110   20.3017 C   0  0  0  0  0  0
  -21.6845   -6.0720   22.5277 C   0  0  0  0  0  0
  -21.4011   -6.5615   23.8225 C   0  0  0  0  0  0
  -21.3667   -5.6756   24.9180 C   0  0  0  0  0  0
  -21.6068   -4.3026   24.7218 C   0  0  0  0  0  0
  -21.8821   -3.8131   23.4331 C   0  0  0  0  0  0
  -21.9187   -4.6945   22.3397 C   0  0  0  0  0  0
  -22.7812  -13.5225   21.1884 C   0  0  0  0  0  0
  -22.1653   -4.2145   21.0964 F   0  0  0  0  0  0
  -21.5647   -3.4506   25.7720 F   0  0  0  0  0  0
  -29.9889  -13.4569   20.4234 N   0  0  0  0  0  0
  -26.2926  -12.9328   20.3196 N   0  0  0  0  0  0
  -25.9287  -11.6499   20.5712 N   0  0  0  0  0  0
  -22.0429  -12.8249   22.0446 N   0  0  0  0  0  0
  -25.4258  -15.1893   20.4113 N   0  0  0  0  0  0
  -31.7705  -14.8462   20.2345 O   0  0  0  0  0  0
  -21.6650   -6.8862   21.4249 O   0  0  0  0  0  0
  -22.3519  -14.5495   20.6669 O   0  0  0  0  0  0
  -24.6254  -31.8573   23.2007 C   0  0  0  0  0  0
  -25.9101  -32.4777   23.8324 C   0  0  1  0  0  0
  -27.2151  -27.2687   20.1731 C   0  0  0  0  0  0
  -25.5931  -33.8585   24.2246 N   0  0  0  0  0  0
  -23.4260  -30.4758   21.5424 C   0  0  2  0  0  0
  -24.8779  -28.9208   20.1165 C   0  0  0  0  0  0
  -22.7490  -29.4592   22.4933 C   0  0  0  0  0  0
  -18.0300  -28.1394   22.8477 C   0  0  0  0  0  0
  -24.1486  -36.7290   23.2634 C   0  0  0  0  0  0
  -25.9670  -30.7736   21.3812 C   0  0  0  0  0  0
  -26.0452  -29.3924   20.7324 C   0  0  0  0  0  0
  -27.2164  -28.5774   20.7546 C   0  0  0  0  0  0
  -26.0418  -26.8671   19.4995 C   0  0  0  0  0  0
  -24.8793  -27.6621   19.4931 C   0  0  0  0  0  0
  -23.6486  -29.8065   20.1583 C   0  0  0  0  0  0
  -25.4112  -36.3075   24.0319 C   0  0  1  0  0  0
  -20.5895  -28.3685   23.1309 C   0  0  2  0  0  0
  -20.6783  -26.9406   22.5439 C   0  0  0  0  0  0
  -19.5767  -26.6380   21.5231 C   0  0  0  0  0  0
  -18.1941  -26.7941   22.1618 C   0  0  0  0  0  0
  -19.1547  -28.8854   23.2890 C   0  0  0  0  0  0
  -18.9449  -30.1465   23.8900 C   0  0  0  0  0  0
  -17.6438  -30.6589   24.0545 C   0  0  0  0  0  0
  -25.9056  -34.9457   23.5072 C   0  0  0  0  0  0
  -16.5331  -29.9081   23.6331 C   0  0  0  0  0  0
  -16.7280  -28.6510   23.0333 C   0  0  0  0  0  0
  -26.4459  -31.6616   25.0717 C   0  0  0  0  0  0
  -25.3684  -31.3780   26.1435 C   0  0  0  0  0  0
  -27.0311  -30.3034   24.6206 C   0  0  0  0  0  0
  -27.6001  -32.4370   25.7497 C   0  0  0  0  0  0
  -27.5577  -37.1811   24.8441 C   0  0  0  0  0  0
  -21.4203  -29.3018   22.3689 N   0  0  0  0  0  0
  -26.4284  -37.3781   23.9393 N   0  0  0  0  0  0
  -24.6913  -31.0536   22.0975 N   0  0  0  0  0  0
  -23.4192  -28.8127   23.3035 O   0  0  0  0  0  0
  -28.3066  -26.3821   20.2165 O   0  0  0  0  0  0
  -26.5588  -34.8922   22.4635 O   0  0  0  0  0  0
  -23.5435  -32.1363   23.7334 O   0  0  0  0  0  0
  -30.5425  -18.6236   23.0882 C   0  0  0  0  0  0
  -30.2178  -19.7615   22.3259 C   0  0  0  0  0  0
  -29.6038  -18.3045   20.4908 C   0  0  0  0  0  0
  -30.3826  -17.3133   22.5891 C   0  0  0  0  0  0
  -29.6993  -19.6601   21.0158 C   0  0  0  0  0  0
  -29.9631  -17.1194   21.2456 C   0  0  0  0  0  0
  -28.8538  -22.3100   20.9518 C   0  0  0  0  0  0
  -29.5304  -15.1969   23.8934 C   0  0  0  0  0  0
  -30.0481  -16.1546   24.9317 C   0  0  0  0  0  0
  -30.6343  -16.1696   23.5327 C   0  0  0  0  0  0
  -28.3957  -20.7095   19.0585 C   0  0  0  0  0  0
  -30.7699  -21.3803   19.5415 C   0  0  0  0  0  0
  -26.9120  -24.8824   21.7236 C   0  0  0  0  0  0
  -29.3051  -25.4299   22.1266 C   0  0  0  0  0  0
  -28.7328  -23.7482   20.2384 C   0  0  0  0  0  0
  -29.4138  -21.0041   20.1827 C   0  0  0  0  0  0
  -28.2795  -25.1030   21.0222 C   0  0  0  0  0  0
  -29.7337  -15.7485   20.7659 N   0  0  0  0  0  0
  -28.4514  -22.1857   22.1100 O   0  0  0  0  0  0
  -31.4915  -12.5907   19.1673 H   0  0  0  0  0  0
  -30.4199  -11.4389   19.9089 H   0  0  0  0  0  0
  -29.8114  -11.7551   17.4980 H   0  0  0  0  0  0
  -29.6485  -13.4777   17.7408 H   0  0  0  0  0  0
  -27.9017  -11.2721   18.8880 H   0  0  0  0  0  0
  -27.3878  -12.5252   17.7873 H   0  0  0  0  0  0
  -27.6538  -14.2439   19.4952 H   0  0  0  0  0  0
  -28.7134  -12.0565   21.3588 H   0  0  0  0  0  0
  -28.4110  -13.6996   21.8329 H   0  0  0  0  0  0
  -25.2745   -9.5718   22.4691 H   0  0  0  0  0  0
  -24.0031   -7.4634   22.7403 H   0  0  0  0  0  0
  -21.0839   -8.8699   19.8914 H   0  0  0  0  0  0
  -22.3632  -10.9617   19.6126 H   0  0  0  0  0  0
  -21.1992   -7.6123   23.9734 H   0  0  0  0  0  0
  -21.1498   -6.0474   25.9084 H   0  0  0  0  0  0
  -22.0597   -2.7594   23.2814 H   0  0  0  0  0  0
  -22.4080  -11.9985   22.4949 H   0  0  0  0  0  0
  -21.1002  -13.1236   22.2544 H   0  0  0  0  0  0
  -24.6584  -15.8422   20.5299 H   0  0  0  0  0  0
  -26.2719  -15.6299   20.0749 H   0  0  0  0  0  0
  -26.7153  -32.5427   23.1053 H   0  0  0  0  0  0
  -25.0089  -33.9717   25.0403 H   0  0  0  0  0  0
  -22.7201  -31.2960   21.3946 H   0  0  0  0  0  0
  -23.3760  -35.9612   23.3282 H   0  0  0  0  0  0
  -24.3557  -36.8944   22.2048 H   0  0  0  0  0  0
  -23.7227  -37.6491   23.6673 H   0  0  0  0  0  0
  -26.0987  -31.5369   20.6144 H   0  0  0  0  0  0
  -26.8451  -30.8286   22.0108 H   0  0  0  0  0  0
  -28.1098  -28.9157   21.2608 H   0  0  0  0  0  0
  -26.0107  -25.9013   19.0136 H   0  0  0  0  0  0
  -23.9837  -27.2982   19.0108 H   0  0  0  0  0  0
  -23.7723  -30.5799   19.3991 H   0  0  0  0  0  0
  -22.7664  -29.2402   19.8560 H   0  0  0  0  0  0
  -25.1314  -36.1909   25.0811 H   0  0  0  0  0  0
  -20.9981  -28.3242   24.1429 H   0  0  0  0  0  0
  -20.5715  -26.2262   23.3622 H   0  0  0  0  0  0
  -21.6651  -26.7461   22.1203 H   0  0  0  0  0  0
  -19.6913  -25.6288   21.1282 H   0  0  0  0  0  0
  -19.6722  -27.3175   20.6754 H   0  0  0  0  0  0
  -17.4227  -26.6705   21.4007 H   0  0  0  0  0  0
  -18.0303  -26.0085   22.9013 H   0  0  0  0  0  0
  -19.7912  -30.7302   24.2254 H   0  0  0  0  0  0
  -17.4976  -31.6266   24.5147 H   0  0  0  0  0  0
  -15.5326  -30.2948   23.7676 H   0  0  0  0  0  0
  -15.8684  -28.0835   22.7009 H   0  0  0  0  0  0
  -24.5816  -30.7172   25.7767 H   0  0  0  0  0  0
  -24.8880  -32.2978   26.4841 H   0  0  0  0  0  0
  -25.7998  -30.8966   27.0223 H   0  0  0  0  0  0
  -26.2889  -29.6788   24.1226 H   0  0  0  0  0  0
  -27.3983  -29.7312   25.4734 H   0  0  0  0  0  0
  -27.8754  -30.4297   23.9447 H   0  0  0  0  0  0
  -27.2592  -33.3648   26.2109 H   0  0  0  0  0  0
  -28.3796  -32.7020   25.0348 H   0  0  0  0  0  0
  -28.0699  -31.8500   26.5395 H   0  0  0  0  0  0
  -28.2599  -38.0113   24.7530 H   0  0  0  0  0  0
  -28.1102  -36.2662   24.6252 H   0  0  0  0  0  0
  -27.2302  -37.1426   25.8847 H   0  0  0  0  0  0
  -20.9394  -29.8695   21.6853 H   0  0  0  0  0  0
  -26.0179  -38.2850   24.1448 H   0  0  0  0  0  0
  -30.9045  -18.7659   24.0983 H   0  0  0  0  0  0
  -30.3755  -20.7284   22.7794 H   0  0  0  0  0  0
  -29.2474  -18.1592   19.4785 H   0  0  0  0  0  0
  -28.5267  -15.3934   23.5214 H   0  0  0  0  0  0
  -29.7994  -14.1449   23.9847 H   0  0  0  0  0  0
  -30.6566  -15.7357   25.7306 H   0  0  0  0  0  0
  -29.3852  -16.9702   25.2192 H   0  0  0  0  0  0
  -31.6481  -15.7908   23.4153 H   0  0  0  0  0  0
  -27.4581  -20.3270   19.4655 H   0  0  0  0  0  0
  -28.7729  -19.9832   18.3402 H   0  0  0  0  0  0
  -28.1599  -21.5968   18.4704 H   0  0  0  0  0  0
  -31.5317  -21.5786   20.2998 H   0  0  0  0  0  0
  -30.7103  -22.2588   18.9014 H   0  0  0  0  0  0
  -31.1483  -20.5658   18.9234 H   0  0  0  0  0  0
  -26.9496  -24.1108   22.4930 H   0  0  0  0  0  0
  -26.1406  -24.5779   21.0168 H   0  0  0  0  0  0
  -26.5735  -25.7789   22.2402 H   0  0  0  0  0  0
  -30.3101  -25.5131   21.7140 H   0  0  0  0  0  0
  -29.3303  -24.6783   22.9166 H   0  0  0  0  0  0
  -29.0777  -26.3820   22.6072 H   0  0  0  0  0  0
  -28.0494  -23.6098   19.4007 H   0  0  0  0  0  0
  -29.7014  -23.9503   19.7831 H   0  0  0  0  0  0
  -28.7681  -15.4610   20.7917 H   0  0  0  0  0  0
  1 25  1  0  0  0
  1 30  2  0  0  0
  1 88  1  0  0  0
  2  3  1  0  0  0
  2 25  1  0  0  0
  2 90  1  0  0  0
  2 91  1  0  0  0
  3  4  1  0  0  0
  3 92  1  0  0  0
  3 93  1  0  0  0
  4  5  1  0  0  0
  4 94  1  0  0  0
  4 95  1  0  0  0
  5  6  1  0  0  0
  5 26  1  0  0  0
  5 96  1  0  0  0
  6 25  1  0  0  0
  6 97  1  0  0  0
  6 98  1  0  0  0
  7  8  2  0  0  0
  7 26  1  0  0  0
  7 29  1  0  0  0
  8  9  1  0  0  0
  8 22  1  0  0  0
  9 10  1  0  0  0
  9 27  2  0  0  0
 10 11  2  0  0  0
 10 15  1  0  0  0
 11 12  1  0  0  0
 11 99  1  0  0  0
 12 13  2  0  0  0
 12100  1  0  0  0
 13 14  1  0  0  0
 13 31  1  0  0  0
 14 15  2  0  0  0
 14101  1  0  0  0
 15102  1  0  0  0
 16 17  2  0  0  0
 16 21  1  0  0  0
 16 31  1  0  0  0
 17 18  1  0  0  0
 17103  1  0  0  0
 18 19  2  0  0  0
 18104  1  0  0  0
 19 20  1  0  0  0
 19 24  1  0  0  0
 20 21  2  0  0  0
 20105  1  0  0  0
 21 23  1  0  0  0
 22 28  1  0  0  0
 22 32  2  0  0  0
 26 27  1  0  0  0
 28106  1  0  0  0
 28107  1  0  0  0
 29108  1  0  0  0
 29109  1  0  0  0
 33 34  1  0  0  0
 33 66  1  0  0  0
 33 70  2  0  0  0
 34 36  1  0  0  0
 34 59  1  0  0  0
 34110  1  0  0  0
 35 44  2  0  0  0
 35 45  1  0  0  0
 35 68  1  0  0  0
 36 56  1  0  0  0
 36111  1  0  0  0
 37 39  1  0  0  0
 37 47  1  0  0  0
 37 66  1  0  0  0
 37112  1  0  0  0
 38 43  2  0  0  0
 38 46  1  0  0  0
 38 47  1  0  0  0
 39 64  1  0  0  0
 39 67  2  0  0  0
 40 52  1  0  0  0
 40 53  2  0  0  0
 40 58  1  0  0  0
 41113  1  0  0  0
 41114  1  0  0  0
 41115  1  0  0  0
 41 48  1  0  0  0
 42 43  1  0  0  0
 42 66  1  0  0  0
 42116  1  0  0  0
 42117  1  0  0  0
 43 44  1  0  0  0
 44118  1  0  0  0
 45 46  2  0  0  0
 45119  1  0  0  0
 46120  1  0  0  0
 47121  1  0  0  0
 47122  1  0  0  0
 48 56  1  0  0  0
 48 65  1  0  0  0
 48123  1  0  0  0
 49 50  1  0  0  0
 49 53  1  0  0  0
 49 64  1  0  0  0
 49124  1  0  0  0
 50 51  1  0  0  0
 50125  1  0  0  0
 50126  1  0  0  0
 51 52  1  0  0  0
 51127  1  0  0  0
 51128  1  0  0  0
 52129  1  0  0  0
 52130  1  0  0  0
 53 54  1  0  0  0
 54 55  2  0  0  0
 54131  1  0  0  0
 55 57  1  0  0  0
 55132  1  0  0  0
 56 69  2  0  0  0
 57 58  2  0  0  0
 57133  1  0  0  0
 58134  1  0  0  0
 59 60  1  0  0  0
 59 61  1  0  0  0
 59 62  1  0  0  0
 60135  1  0  0  0
 60136  1  0  0  0
 60137  1  0  0  0
 61138  1  0  0  0
 61139  1  0  0  0
 61140  1  0  0  0
 62141  1  0  0  0
 62142  1  0  0  0
 62143  1  0  0  0
 63 65  1  0  0  0
 63144  1  0  0  0
 63145  1  0  0  0
 63146  1  0  0  0
 64147  1  0  0  0
 65148  1  0  0  0
 68 87  1  0  0  0
 71 72  2  0  0  0
 71 74  1  0  0  0
 71149  1  0  0  0
 72 75  1  0  0  0
 72150  1  0  0  0
 73 75  2  0  0  0
 73 76  1  0  0  0
 73151  1  0  0  0
 74 76  2  0  0  0
 74 80  1  0  0  0
 75 86  1  0  0  0
 76 88  1  0  0  0
 77 85  1  0  0  0
 77 86  1  0  0  0
 77 89  2  0  0  0
 78 79  1  0  0  0
 78 80  1  0  0  0
 78152  1  0  0  0
 78153  1  0  0  0
 79 80  1  0  0  0
 79154  1  0  0  0
 79155  1  0  0  0
 80156  1  0  0  0
 81157  1  0  0  0
 81158  1  0  0  0
 81159  1  0  0  0
 81 86  1  0  0  0
 82 86  1  0  0  0
 82160  1  0  0  0
 82161  1  0  0  0
 82162  1  0  0  0
 83163  1  0  0  0
 83164  1  0  0  0
 83165  1  0  0  0
 83 87  1  0  0  0
 84 87  1  0  0  0
 84166  1  0  0  0
 84167  1  0  0  0
 84168  1  0  0  0
 85 87  1  0  0  0
 85169  1  0  0  0
 85170  1  0  0  0
 88171  1  0  0  0
M  ISO  4   1 100  68 101  87 101  88 100
M  END
> <chiral flag>
0

> <version>
0

> <s_m_source_file>
/data/baiqing/PycharmProjects/Reinvent-master-3.2/result/LINK_invent/BTK/process_docking_weight1_custom_product_contain_oxygen_bond_distance_aromatic_linkinvent_7_9_3/rearranged_h_0139.sdf

> <i_m_source_file_index>
38

> <r_mmod_Potential_Energy-OPLS-2005>
234.510223388672

> <r_mmod_Stretch_Energy-OPLS-2005>
123.721061706543

> <r_mmod_Bend_Energy-OPLS-2005>
166.262329101562

> <r_mmod_Torsional_Energy-OPLS-2005>
289.822937011719

> <r_mmod_Improper_Torsional_Energy-OPLS-2005>
8.24188995361328

> <r_mmod_Van_der_Waal_Energy-OPLS-2005>
140.010787963867

> <r_mmod_Electrostatic_Energy-OPLS-2005>
-364.065612792969

> <r_mmod_Solvation_Energy-OPLS-2005>
-203.30256652832

> <b_mmod_Minimization_Converged-OPLS-2005>
0

> <r_mmod_RMS_Derivative-OPLS-2005>
5.34481620788574

$$$$
38
                    3D
 Structure written by MMmdl.
163171  0  0  1  0            999 V2000
  -30.6653  -14.5500   20.5150 C   0  0  0  0  0  0
  -30.4249  -12.3424   19.4291 C   0  0  0  0  0  0
  -29.4946  -12.5003   18.2076 C   0  0  0  0  0  0
  -28.0167  -12.3528   18.6218 C   0  0  0  0  0  0
  -27.6527  -13.2108   19.8636 C   0  0  2  0  0  0
  -28.6995  -13.0440   20.9881 C   0  0  0  0  0  0
  -25.2565  -13.8155   20.5695 C   0  0  0  0  0  0
  -24.1831  -13.0426   20.9197 C   0  0  0  0  0  0
  -24.6390  -11.6902   20.8739 C   0  0  0  0  0  0
  -23.9050  -10.4301   21.0414 C   0  0  0  0  0  0
  -24.3614   -9.4222   21.9187 C   0  0  0  0  0  0
  -23.6295   -8.2255   22.0750 C   0  0  0  0  0  0
  -22.4273   -8.0292   21.3544 C   0  0  0  0  0  0
  -21.9908   -9.0255   20.4644 C   0  0  0  0  0  0
  -22.7229  -10.2143   20.3059 C   0  0  0  0  0  0
  -21.6854   -6.0739   22.5276 C   0  0  0  0  0  0
  -21.4014   -6.5643   23.8213 C   0  0  0  0  0  0
  -21.3659   -5.6799   24.9175 C   0  0  0  0  0  0
  -21.6045   -4.3058   24.7228 C   0  0  0  0  0  0
  -21.8808   -3.8151   23.4344 C   0  0  0  0  0  0
  -21.9186   -4.6966   22.3402 C   0  0  0  0  0  0
  -22.7862  -13.5240   21.1851 C   0  0  0  0  0  0
  -22.1654   -4.2150   21.0978 F   0  0  0  0  0  0
  -21.5632   -3.4547   25.7744 F   0  0  0  0  0  0
  -30.0189  -13.3544   20.4171 N   0  0  0  0  0  0
  -26.2985  -12.9323   20.3332 N   0  0  0  0  0  0
  -25.9311  -11.6481   20.5745 N   0  0  0  0  0  0
  -22.0498  -12.8245   22.0417 N   0  0  0  0  0  0
  -25.4268  -15.1874   20.4107 N   0  0  0  0  0  0
  -31.8436  -14.6910   20.1716 O   0  0  0  0  0  0
  -21.6639   -6.8885   21.4245 O   0  0  0  0  0  0
  -22.3571  -14.5551   20.6691 O   0  0  0  0  0  0
  -24.6178  -31.8656   23.2103 C   0  0  0  0  0  0
  -25.9070  -32.4803   23.8384 C   0  0  1  0  0  0
  -27.2258  -27.3890   20.1108 C   0  0  0  0  0  0
  -25.5927  -33.8598   24.2314 N   0  0  0  0  0  0
  -23.4096  -30.4893   21.5504 C   0  0  2  0  0  0
  -24.8583  -28.9527   20.1158 C   0  0  0  0  0  0
  -22.7440  -29.4651   22.4983 C   0  0  0  0  0  0
  -18.0313  -28.1352   22.8462 C   0  0  0  0  0  0
  -24.1495  -36.7303   23.2641 C   0  0  0  0  0  0
  -25.9441  -30.8129   21.3772 C   0  0  0  0  0  0
  -26.0189  -29.4419   20.7299 C   0  0  0  0  0  0
  -27.2074  -28.6641   20.7347 C   0  0  0  0  0  0
  -26.0581  -26.9444   19.4616 C   0  0  0  0  0  0
  -24.8735  -27.7015   19.4789 C   0  0  0  0  0  0
  -23.6224  -29.8235   20.1652 C   0  0  0  0  0  0
  -25.4110  -36.3088   24.0337 C   0  0  1  0  0  0
  -20.5892  -28.3685   23.1337 C   0  0  2  0  0  0
  -20.6818  -26.9412   22.5493 C   0  0  0  0  0  0
  -19.5869  -26.6386   21.5225 C   0  0  0  0  0  0
  -18.2013  -26.7901   22.1584 C   0  0  0  0  0  0
  -19.1539  -28.8843   23.2880 C   0  0  0  0  0  0
  -18.9443  -30.1452   23.8873 C   0  0  0  0  0  0
  -17.6430  -30.6569   24.0526 C   0  0  0  0  0  0
  -25.9047  -34.9462   23.5117 C   0  0  0  0  0  0
  -16.5342  -29.9032   23.6301 C   0  0  0  0  0  0
  -16.7294  -28.6459   23.0315 C   0  0  0  0  0  0
  -26.4483  -31.6582   25.0724 C   0  0  0  0  0  0
  -25.3748  -31.3707   26.1476 C   0  0  0  0  0  0
  -27.0323  -30.3007   24.6149 C   0  0  0  0  0  0
  -27.6051  -32.4307   25.7489 C   0  0  0  0  0  0
  -27.5579  -37.1805   24.8471 C   0  0  0  0  0  0
  -21.4174  -29.3009   22.3691 N   0  0  0  0  0  0
  -26.4289  -37.3779   23.9412 N   0  0  0  0  0  0
  -24.6744  -31.0732   22.1025 N   0  0  0  0  0  0
  -23.4193  -28.8222   23.3077 O   0  0  0  0  0  0
  -28.3467  -26.5765   20.0573 O   0  0  0  0  0  0
  -26.5610  -34.8919   22.4680 O   0  0  0  0  0  0
  -23.5361  -32.1439   23.7467 O   0  0  0  0  0  0
  -29.6063  -18.0648   20.3240 C   0  0  0  0  0  0
  -30.2161  -19.3320   20.6977 C   0  0  0  0  0  0
  -30.2131  -16.9436   20.8838 C   0  0  0  0  0  0
  -31.2525  -19.1318   21.5788 C   0  0  0  0  0  0
  -29.1920  -23.2523   20.6505 C   0  0  0  0  0  0
  -28.4441  -17.9736   19.3738 C   0  0  0  0  0  0
  -28.2234  -23.9556   22.8789 C   0  0  0  0  0  0
  -26.8106  -24.0494   20.8285 C   0  0  0  0  0  0
  -29.8673  -20.7246   20.1384 C   0  0  0  0  0  0
  -29.2084  -21.7579   21.1154 C   0  0  0  0  0  0
  -28.6656  -25.8049   21.2408 C   0  0  0  0  0  0
  -28.2368  -24.2755   21.3639 C   0  0  0  0  0  0
  -32.0880  -20.0726   22.1626 N   0  0  0  0  0  0
  -29.8632  -15.6214   20.7465 N   0  0  0  0  0  0
  -29.9098  -23.6179   19.7157 O   0  0  0  0  0  0
  -31.5238  -17.4448   21.9250 S   0  0  0  0  0  0
  -31.4680  -12.4507   19.1273 H   0  0  0  0  0  0
  -30.3369  -11.3417   19.8543 H   0  0  0  0  0  0
  -29.7402  -11.7628   17.4425 H   0  0  0  0  0  0
  -29.6494  -13.4770   17.7467 H   0  0  0  0  0  0
  -27.8320  -11.2972   18.8265 H   0  0  0  0  0  0
  -27.3668  -12.6142   17.7858 H   0  0  0  0  0  0
  -27.6753  -14.2497   19.5352 H   0  0  0  0  0  0
  -28.6907  -12.0216   21.3684 H   0  0  0  0  0  0
  -28.4672  -13.6850   21.8410 H   0  0  0  0  0  0
  -25.2757   -9.5699   22.4764 H   0  0  0  0  0  0
  -23.9985   -7.4649   22.7472 H   0  0  0  0  0  0
  -21.0834   -8.8788   19.8958 H   0  0  0  0  0  0
  -22.3683  -10.9685   19.6179 H   0  0  0  0  0  0
  -21.2020   -7.6151   23.9719 H   0  0  0  0  0  0
  -21.1490   -6.0529   25.9079 H   0  0  0  0  0  0
  -22.0588   -2.7609   23.2841 H   0  0  0  0  0  0
  -22.4078  -11.9886   22.4785 H   0  0  0  0  0  0
  -21.1129  -13.1289   22.2636 H   0  0  0  0  0  0
  -24.6546  -15.8353   20.5186 H   0  0  0  0  0  0
  -26.2716  -15.6315   20.0781 H   0  0  0  0  0  0
  -26.7145  -32.5507   23.1144 H   0  0  0  0  0  0
  -25.0060  -33.9750   25.0445 H   0  0  0  0  0  0
  -22.6998  -31.3061   21.4102 H   0  0  0  0  0  0
  -23.3746  -35.9650   23.3311 H   0  0  0  0  0  0
  -24.3584  -36.8910   22.2056 H   0  0  0  0  0  0
  -23.7272  -37.6521   23.6642 H   0  0  0  0  0  0
  -26.0682  -31.5754   20.6064 H   0  0  0  0  0  0
  -26.8282  -30.8627   21.9994 H   0  0  0  0  0  0
  -28.1041  -29.0376   21.2083 H   0  0  0  0  0  0
  -26.0577  -26.0007   18.9396 H   0  0  0  0  0  0
  -23.9874  -27.3238   18.9889 H   0  0  0  0  0  0
  -23.7334  -30.5995   19.4081 H   0  0  0  0  0  0
  -22.7456  -29.2446   19.8675 H   0  0  0  0  0  0
  -25.1284  -36.1935   25.0830 H   0  0  0  0  0  0
  -20.9960  -28.3309   24.1473 H   0  0  0  0  0  0
  -21.6727  -26.7443   22.1387 H   0  0  0  0  0  0
  -20.5656  -26.2317   23.3688 H   0  0  0  0  0  0
  -19.7083  -25.6284   21.1286 H   0  0  0  0  0  0
  -19.6851  -27.3200   20.6752 H   0  0  0  0  0  0
  -17.4326  -26.6604   21.3941 H   0  0  0  0  0  0
  -18.0427  -26.0028   22.8963 H   0  0  0  0  0  0
  -19.7906  -30.7298   24.2225 H   0  0  0  0  0  0
  -17.4954  -31.6252   24.5113 H   0  0  0  0  0  0
  -15.5328  -30.2907   23.7608 H   0  0  0  0  0  0
  -15.8708  -28.0759   22.7023 H   0  0  0  0  0  0
  -24.5909  -30.7065   25.7822 H   0  0  0  0  0  0
  -24.8964  -32.2881   26.4918 H   0  0  0  0  0  0
  -25.8108  -30.8876   27.0234 H   0  0  0  0  0  0
  -26.2889  -29.6761   24.1188 H   0  0  0  0  0  0
  -27.4060  -29.7245   25.4627 H   0  0  0  0  0  0
  -27.8737  -30.4304   23.9336 H   0  0  0  0  0  0
  -27.2648  -33.3587   26.2094 H   0  0  0  0  0  0
  -28.3842  -32.6906   25.0309 H   0  0  0  0  0  0
  -28.0737  -31.8422   26.5389 H   0  0  0  0  0  0
  -28.2599  -38.0097   24.7487 H   0  0  0  0  0  0
  -28.1069  -36.2626   24.6310 H   0  0  0  0  0  0
  -27.2305  -37.1481   25.8880 H   0  0  0  0  0  0
  -20.9347  -29.8617   21.6800 H   0  0  0  0  0  0
  -26.0174  -38.2863   24.1379 H   0  0  0  0  0  0
  -28.6320  -18.5352   18.4586 H   0  0  0  0  0  0
  -27.5345  -18.3708   19.8224 H   0  0  0  0  0  0
  -28.2337  -16.9492   19.0687 H   0  0  0  0  0  0
  -27.8677  -22.9479   23.0966 H   0  0  0  0  0  0
  -27.5601  -24.6318   23.4189 H   0  0  0  0  0  0
  -29.2180  -24.0612   23.3148 H   0  0  0  0  0  0
  -26.4283  -23.0638   21.0980 H   0  0  0  0  0  0
  -26.7858  -24.1103   19.7408 H   0  0  0  0  0  0
  -26.1153  -24.7865   21.2294 H   0  0  0  0  0  0
  -29.2244  -20.6316   19.2628 H   0  0  0  0  0  0
  -30.7887  -21.1621   19.7516 H   0  0  0  0  0  0
  -28.1915  -21.4388   21.3401 H   0  0  0  0  0  0
  -29.7513  -21.7368   22.0598 H   0  0  0  0  0  0
  -29.7491  -25.8633   21.3560 H   0  0  0  0  0  0
  -28.2820  -26.3563   22.1014 H   0  0  0  0  0  0
  -32.0782  -21.0624   21.9413 H   0  0  0  0  0  0
  -32.8559  -19.8172   22.7777 H   0  0  0  0  0  0
  -28.8774  -15.4139   20.7873 H   0  0  0  0  0  0
  1 25  1  0  0  0
  1 30  2  0  0  0
  1 84  1  0  0  0
  2  3  1  0  0  0
  2 25  1  0  0  0
  2 87  1  0  0  0
  2 88  1  0  0  0
  3  4  1  0  0  0
  3 89  1  0  0  0
  3 90  1  0  0  0
  4  5  1  0  0  0
  4 91  1  0  0  0
  4 92  1  0  0  0
  5  6  1  0  0  0
  5 26  1  0  0  0
  5 93  1  0  0  0
  6 25  1  0  0  0
  6 94  1  0  0  0
  6 95  1  0  0  0
  7  8  2  0  0  0
  7 26  1  0  0  0
  7 29  1  0  0  0
  8  9  1  0  0  0
  8 22  1  0  0  0
  9 10  1  0  0  0
  9 27  2  0  0  0
 10 11  2  0  0  0
 10 15  1  0  0  0
 11 12  1  0  0  0
 11 96  1  0  0  0
 12 13  2  0  0  0
 12 97  1  0  0  0
 13 14  1  0  0  0
 13 31  1  0  0  0
 14 15  2  0  0  0
 14 98  1  0  0  0
 15 99  1  0  0  0
 16 17  2  0  0  0
 16 21  1  0  0  0
 16 31  1  0  0  0
 17 18  1  0  0  0
 17100  1  0  0  0
 18 19  2  0  0  0
 18101  1  0  0  0
 19 20  1  0  0  0
 19 24  1  0  0  0
 20 21  2  0  0  0
 20102  1  0  0  0
 21 23  1  0  0  0
 22 28  1  0  0  0
 22 32  2  0  0  0
 26 27  1  0  0  0
 28103  1  0  0  0
 28104  1  0  0  0
 29105  1  0  0  0
 29106  1  0  0  0
 33 34  1  0  0  0
 33 66  1  0  0  0
 33 70  2  0  0  0
 34 36  1  0  0  0
 34 59  1  0  0  0
 34107  1  0  0  0
 35 44  2  0  0  0
 35 45  1  0  0  0
 35 68  1  0  0  0
 36 56  1  0  0  0
 36108  1  0  0  0
 37 39  1  0  0  0
 37 47  1  0  0  0
 37 66  1  0  0  0
 37109  1  0  0  0
 38 43  2  0  0  0
 38 46  1  0  0  0
 38 47  1  0  0  0
 39 64  1  0  0  0
 39 67  2  0  0  0
 40 52  1  0  0  0
 40 53  2  0  0  0
 40 58  1  0  0  0
 41110  1  0  0  0
 41111  1  0  0  0
 41112  1  0  0  0
 41 48  1  0  0  0
 42 43  1  0  0  0
 42 66  1  0  0  0
 42113  1  0  0  0
 42114  1  0  0  0
 43 44  1  0  0  0
 44115  1  0  0  0
 45 46  2  0  0  0
 45116  1  0  0  0
 46117  1  0  0  0
 47118  1  0  0  0
 47119  1  0  0  0
 48 56  1  0  0  0
 48 65  1  0  0  0
 48120  1  0  0  0
 49 50  1  0  0  0
 49 53  1  0  0  0
 49 64  1  0  0  0
 49121  1  0  0  0
 50 51  1  0  0  0
 50122  1  0  0  0
 50123  1  0  0  0
 51 52  1  0  0  0
 51124  1  0  0  0
 51125  1  0  0  0
 52126  1  0  0  0
 52127  1  0  0  0
 53 54  1  0  0  0
 54 55  2  0  0  0
 54128  1  0  0  0
 55 57  1  0  0  0
 55129  1  0  0  0
 56 69  2  0  0  0
 57 58  2  0  0  0
 57130  1  0  0  0
 58131  1  0  0  0
 59 60  1  0  0  0
 59 61  1  0  0  0
 59 62  1  0  0  0
 60132  1  0  0  0
 60133  1  0  0  0
 60134  1  0  0  0
 61135  1  0  0  0
 61136  1  0  0  0
 61137  1  0  0  0
 62138  1  0  0  0
 62139  1  0  0  0
 62140  1  0  0  0
 63 65  1  0  0  0
 63141  1  0  0  0
 63142  1  0  0  0
 63143  1  0  0  0
 64144  1  0  0  0
 65145  1  0  0  0
 68 81  1  0  0  0
 71 72  1  0  0  0
 71 73  2  0  0  0
 71 76  1  0  0  0
 72 74  2  0  0  0
 72 79  1  0  0  0
 73 84  1  0  0  0
 73 86  1  0  0  0
 74 83  1  0  0  0
 74 86  1  0  0  0
 75 80  1  0  0  0
 75 82  1  0  0  0
 75 85  2  0  0  0
 76146  1  0  0  0
 76147  1  0  0  0
 76148  1  0  0  0
 77149  1  0  0  0
 77150  1  0  0  0
 77151  1  0  0  0
 77 82  1  0  0  0
 78 82  1  0  0  0
 78152  1  0  0  0
 78153  1  0  0  0
 78154  1  0  0  0
 79 80  1  0  0  0
 79155  1  0  0  0
 79156  1  0  0  0
 80157  1  0  0  0
 80158  1  0  0  0
 81 82  1  0  0  0
 81159  1  0  0  0
 81160  1  0  0  0
 83161  1  0  0  0
 83162  1  0  0  0
 84163  1  0  0  0
M  ISO  4   1 100  68 101  81 101  84 100
M  END
> <chiral flag>
0

> <version>
0

> <s_m_source_file>
/data/baiqing/PycharmProjects/Reinvent-master-3.2/result/LINK_invent/BTK/process_docking_weight1_custom_product_contain_oxygen_bond_distance_aromatic_linkinvent_7_9_3/rearranged_h_0139.sdf

> <i_m_source_file_index>
39

> <r_mmod_Potential_Energy-OPLS-2005>
-13.5330867767334

> <r_mmod_Stretch_Energy-OPLS-2005>
53.6909561157227

> <r_mmod_Bend_Energy-OPLS-2005>
129.690551757812

> <r_mmod_Torsional_Energy-OPLS-2005>
253.852691650391

> <r_mmod_Improper_Torsional_Energy-OPLS-2005>
6.9990930557251

> <r_mmod_Van_der_Waal_Energy-OPLS-2005>
123.122055053711

> <r_mmod_Electrostatic_Energy-OPLS-2005>
-376.743927001953

> <r_mmod_Solvation_Energy-OPLS-2005>
-230.22834777832

> <b_mmod_Minimization_Converged-OPLS-2005>
0

> <r_mmod_RMS_Derivative-OPLS-2005>
2.14734983444214

$$$$
39
                    3D
 Structure written by MMmdl.
165173  0  0  1  0            999 V2000
  -30.4875  -14.9503   20.4348 C   0  0  0  0  0  0
  -30.4220  -12.5825   19.5135 C   0  0  0  0  0  0
  -29.5099  -12.5191   18.2622 C   0  0  0  0  0  0
  -28.0329  -12.3236   18.6574 C   0  0  0  0  0  0
  -27.6078  -13.2578   19.8209 C   0  0  2  0  0  0
  -28.6351  -13.2526   20.9691 C   0  0  0  0  0  0
  -25.2277  -13.8301   20.5636 C   0  0  0  0  0  0
  -24.1643  -13.0482   20.9239 C   0  0  0  0  0  0
  -24.6298  -11.6971   20.8721 C   0  0  0  0  0  0
  -23.9030  -10.4324   21.0386 C   0  0  0  0  0  0
  -24.3641   -9.4219   21.9112 C   0  0  0  0  0  0
  -23.6334   -8.2253   22.0695 C   0  0  0  0  0  0
  -22.4272   -8.0272   21.3530 C   0  0  0  0  0  0
  -21.9913   -9.0251   20.4608 C   0  0  0  0  0  0
  -22.7246  -10.2133   20.3005 C   0  0  0  0  0  0
  -21.6824   -6.0744   22.5315 C   0  0  0  0  0  0
  -21.3975   -6.5624   23.8261 C   0  0  0  0  0  0
  -21.3684   -5.6765   24.9207 C   0  0  0  0  0  0
  -21.6082   -4.3037   24.7249 C   0  0  0  0  0  0
  -21.8820   -3.8140   23.4364 C   0  0  0  0  0  0
  -21.9190   -4.6978   22.3423 C   0  0  0  0  0  0
  -22.7668  -13.5183   21.2060 C   0  0  0  0  0  0
  -22.1654   -4.2179   21.1003 F   0  0  0  0  0  0
  -21.5658   -3.4501   25.7758 F   0  0  0  0  0  0
  -29.9227  -13.6738   20.4041 N   0  0  0  0  0  0
  -26.2687  -12.9534   20.3053 N   0  0  0  0  0  0
  -25.9189  -11.6658   20.5639 N   0  0  0  0  0  0
  -22.0405  -12.8097   22.0623 N   0  0  0  0  0  0
  -25.4029  -15.2051   20.4148 N   0  0  0  0  0  0
  -31.6873  -15.0274   20.1304 O   0  0  0  0  0  0
  -21.6585   -6.8911   21.4279 O   0  0  0  0  0  0
  -22.3295  -14.5495   20.6951 O   0  0  0  0  0  0
  -24.6416  -31.8422   23.1827 C   0  0  0  0  0  0
  -25.9177  -32.4680   23.8241 C   0  0  1  0  0  0
  -27.2291  -27.1194   20.1796 C   0  0  0  0  0  0
  -25.5894  -33.8485   24.2158 N   0  0  0  0  0  0
  -23.4454  -30.4563   21.5343 C   0  0  2  0  0  0
  -24.8976  -28.8712   20.1193 C   0  0  0  0  0  0
  -22.7549  -29.4535   22.4920 C   0  0  0  0  0  0
  -18.0296  -28.1367   22.8503 C   0  0  0  0  0  0
  -24.1470  -36.7256   23.2654 C   0  0  0  0  0  0
  -26.0008  -30.7140   21.3794 C   0  0  0  0  0  0
  -26.0761  -29.3207   20.7294 C   0  0  0  0  0  0
  -27.2468  -28.4695   20.7226 C   0  0  0  0  0  0
  -26.0257  -26.7669   19.5344 C   0  0  0  0  0  0
  -24.8905  -27.6098   19.4987 C   0  0  0  0  0  0
  -23.6677  -29.7704   20.1598 C   0  0  0  0  0  0
  -25.4103  -36.3033   24.0322 C   0  0  1  0  0  0
  -20.5916  -28.3683   23.1255 C   0  0  2  0  0  0
  -20.6779  -26.9399   22.5410 C   0  0  0  0  0  0
  -19.5744  -26.6362   21.5222 C   0  0  0  0  0  0
  -18.1922  -26.7904   22.1638 C   0  0  0  0  0  0
  -19.1556  -28.8846   23.2871 C   0  0  0  0  0  0
  -18.9461  -30.1451   23.8876 C   0  0  0  0  0  0
  -17.6453  -30.6590   24.0534 C   0  0  0  0  0  0
  -25.9058  -34.9412   23.5077 C   0  0  0  0  0  0
  -16.5350  -29.9071   23.6331 C   0  0  0  0  0  0
  -16.7280  -28.6484   23.0376 C   0  0  0  0  0  0
  -26.4436  -31.6551   25.0692 C   0  0  0  0  0  0
  -25.3583  -31.3794   26.1366 C   0  0  0  0  0  0
  -27.0295  -30.2935   24.6311 C   0  0  0  0  0  0
  -27.5921  -32.4344   25.7505 C   0  0  0  0  0  0
  -27.5569  -37.1774   24.8455 C   0  0  0  0  0  0
  -21.4245  -29.3013   22.3642 N   0  0  0  0  0  0
  -26.4263  -37.3749   23.9423 N   0  0  0  0  0  0
  -24.7159  -31.0279   22.0869 N   0  0  0  0  0  0
  -23.4203  -28.8137   23.3098 O   0  0  0  0  0  0
  -28.3176  -26.1645   20.1211 O   0  0  0  0  0  0
  -26.5714  -34.8917   22.4693 O   0  0  0  0  0  0
  -23.5538  -32.1307   23.7046 O   0  0  0  0  0  0
  -29.4212  -20.2425   18.8758 C   0  0  0  0  0  0
  -29.7842  -19.0793   18.1572 C   0  0  0  0  0  0
  -29.3049  -18.8328   20.8358 C   0  0  0  0  0  0
  -29.1841  -20.2151   20.2598 C   0  0  0  0  0  0
  -29.9121  -17.7887   18.7324 C   0  0  0  0  0  0
  -29.6825  -17.5707   20.1207 C   0  0  0  0  0  0
  -30.2330  -16.6519   17.7716 C   0  0  0  0  0  0
  -30.1878  -21.8576   21.8794 C   0  0  0  0  0  0
  -27.7352  -21.4140   22.0087 C   0  0  0  0  0  0
  -29.9493  -25.1155   21.3347 C   0  0  0  0  0  0
  -27.6075  -24.9157   22.1425 C   0  0  0  0  0  0
  -28.5450  -23.1822   20.2642 C   0  0  0  0  0  0
  -28.9060  -21.6696   21.0422 C   0  0  0  0  0  0
  -28.5063  -24.8042   20.8937 C   0  0  0  0  0  0
  -29.6899  -16.1172   20.6611 N   0  0  0  0  0  0
  -31.4533  -12.7549   19.1965 H   0  0  0  0  0  0
  -30.4216  -11.6290   20.0469 H   0  0  0  0  0  0
  -29.8228  -11.7130   17.5968 H   0  0  0  0  0  0
  -29.6138  -13.4390   17.6902 H   0  0  0  0  0  0
  -27.9025  -11.2859   18.9679 H   0  0  0  0  0  0
  -27.3847  -12.4643   17.7908 H   0  0  0  0  0  0
  -27.5792  -14.2613   19.3920 H   0  0  0  0  0  0
  -28.6928  -12.2569   21.4115 H   0  0  0  0  0  0
  -28.3202  -13.9290   21.7627 H   0  0  0  0  0  0
  -25.2853   -9.5673   22.4585 H   0  0  0  0  0  0
  -24.0093   -7.4622   22.7351 H   0  0  0  0  0  0
  -21.0866   -8.8796   19.8895 H   0  0  0  0  0  0
  -22.3778  -10.9637   19.6041 H   0  0  0  0  0  0
  -21.1875   -7.6116   23.9796 H   0  0  0  0  0  0
  -21.1506   -6.0444   25.9137 H   0  0  0  0  0  0
  -22.0560   -2.7595   23.2842 H   0  0  0  0  0  0
  -22.4098  -11.9775   22.5022 H   0  0  0  0  0  0
  -21.0950  -13.0925   22.2845 H   0  0  0  0  0  0
  -24.6766  -15.8819   20.6236 H   0  0  0  0  0  0
  -26.2623  -15.6447   20.1146 H   0  0  0  0  0  0
  -26.7243  -32.5285   23.0968 H   0  0  0  0  0  0
  -24.9790  -33.9568   25.0125 H   0  0  0  0  0  0
  -22.7457  -31.2805   21.3797 H   0  0  0  0  0  0
  -23.3736  -35.9580   23.3266 H   0  0  0  0  0  0
  -24.3571  -36.8938   22.2081 H   0  0  0  0  0  0
  -23.7198  -37.6424   23.6717 H   0  0  0  0  0  0
  -26.1674  -31.4740   20.6133 H   0  0  0  0  0  0
  -26.8657  -30.7608   22.0289 H   0  0  0  0  0  0
  -28.1636  -28.8420   21.1601 H   0  0  0  0  0  0
  -25.9625  -25.7997   19.0554 H   0  0  0  0  0  0
  -23.9955  -27.2623   19.0018 H   0  0  0  0  0  0
  -23.7719  -30.5367   19.3904 H   0  0  0  0  0  0
  -22.7815  -29.1981   19.8766 H   0  0  0  0  0  0
  -25.1273  -36.1853   25.0812 H   0  0  0  0  0  0
  -20.9988  -28.3244   24.1377 H   0  0  0  0  0  0
  -20.5665  -26.2285   23.3609 H   0  0  0  0  0  0
  -21.6630  -26.7395   22.1194 H   0  0  0  0  0  0
  -19.6882  -25.6262   21.1262 H   0  0  0  0  0  0
  -19.6659  -27.3146   20.6729 H   0  0  0  0  0  0
  -17.4187  -26.6663   21.4051 H   0  0  0  0  0  0
  -18.0320  -26.0047   22.9035 H   0  0  0  0  0  0
  -19.7929  -30.7296   24.2222 H   0  0  0  0  0  0
  -17.4995  -31.6252   24.5134 H   0  0  0  0  0  0
  -15.5345  -30.2948   23.7661 H   0  0  0  0  0  0
  -15.8687  -28.0779   22.7115 H   0  0  0  0  0  0
  -24.5681  -30.7256   25.7637 H   0  0  0  0  0  0
  -24.8821  -32.3008   26.4728 H   0  0  0  0  0  0
  -25.7763  -30.8925   27.0172 H   0  0  0  0  0  0
  -26.2862  -29.6624   24.1418 H   0  0  0  0  0  0
  -27.3979  -29.7295   25.4887 H   0  0  0  0  0  0
  -27.8757  -30.4141   23.9553 H   0  0  0  0  0  0
  -27.2418  -33.3627   26.2078 H   0  0  0  0  0  0
  -28.3726  -32.6998   25.0368 H   0  0  0  0  0  0
  -28.0594  -31.8513   26.5452 H   0  0  0  0  0  0
  -28.2554  -38.0099   24.7531 H   0  0  0  0  0  0
  -28.1108  -36.2634   24.6217 H   0  0  0  0  0  0
  -27.2331  -37.1347   25.8872 H   0  0  0  0  0  0
  -20.9481  -29.8639   21.6734 H   0  0  0  0  0  0
  -26.0135  -38.2820   24.1416 H   0  0  0  0  0  0
  -29.3269  -21.1774   18.3387 H   0  0  0  0  0  0
  -29.9544  -19.1909   17.0970 H   0  0  0  0  0  0
  -29.1011  -18.7365   21.8930 H   0  0  0  0  0  0
  -29.6959  -15.7475   18.0369 H   0  0  0  0  0  0
  -31.3041  -16.4392   17.7423 H   0  0  0  0  0  0
  -29.9036  -16.8927   16.7603 H   0  0  0  0  0  0
  -30.5868  -20.9078   22.2415 H   0  0  0  0  0  0
  -30.0186  -22.4618   22.7688 H   0  0  0  0  0  0
  -30.9851  -22.3036   21.2814 H   0  0  0  0  0  0
  -27.9332  -20.5853   22.6865 H   0  0  0  0  0  0
  -26.8197  -21.1922   21.4606 H   0  0  0  0  0  0
  -27.5209  -22.2698   22.6410 H   0  0  0  0  0  0
  -30.0424  -26.1236   21.7408 H   0  0  0  0  0  0
  -30.6344  -25.0518   20.4884 H   0  0  0  0  0  0
  -30.3209  -24.4530   22.1070 H   0  0  0  0  0  0
  -27.5503  -25.9419   22.5064 H   0  0  0  0  0  0
  -27.9829  -24.3282   22.9798 H   0  0  0  0  0  0
  -26.5900  -24.5946   21.9316 H   0  0  0  0  0  0
  -27.5758  -23.0319   19.7907 H   0  0  0  0  0  0
  -29.2344  -23.2370   19.4210 H   0  0  0  0  0  0
  -28.8177  -15.8831   21.1123 H   0  0  0  0  0  0
  1 25  1  0  0  0
  1 30  2  0  0  0
  1 85  1  0  0  0
  2  3  1  0  0  0
  2 25  1  0  0  0
  2 86  1  0  0  0
  2 87  1  0  0  0
  3  4  1  0  0  0
  3 88  1  0  0  0
  3 89  1  0  0  0
  4  5  1  0  0  0
  4 90  1  0  0  0
  4 91  1  0  0  0
  5  6  1  0  0  0
  5 26  1  0  0  0
  5 92  1  0  0  0
  6 25  1  0  0  0
  6 93  1  0  0  0
  6 94  1  0  0  0
  7  8  2  0  0  0
  7 26  1  0  0  0
  7 29  1  0  0  0
  8  9  1  0  0  0
  8 22  1  0  0  0
  9 10  1  0  0  0
  9 27  2  0  0  0
 10 11  2  0  0  0
 10 15  1  0  0  0
 11 12  1  0  0  0
 11 95  1  0  0  0
 12 13  2  0  0  0
 12 96  1  0  0  0
 13 14  1  0  0  0
 13 31  1  0  0  0
 14 15  2  0  0  0
 14 97  1  0  0  0
 15 98  1  0  0  0
 16 17  2  0  0  0
 16 21  1  0  0  0
 16 31  1  0  0  0
 17 18  1  0  0  0
 17 99  1  0  0  0
 18 19  2  0  0  0
 18100  1  0  0  0
 19 20  1  0  0  0
 19 24  1  0  0  0
 20 21  2  0  0  0
 20101  1  0  0  0
 21 23  1  0  0  0
 22 28  1  0  0  0
 22 32  2  0  0  0
 26 27  1  0  0  0
 28102  1  0  0  0
 28103  1  0  0  0
 29104  1  0  0  0
 29105  1  0  0  0
 33 34  1  0  0  0
 33 66  1  0  0  0
 33 70  2  0  0  0
 34 36  1  0  0  0
 34 59  1  0  0  0
 34106  1  0  0  0
 35 44  2  0  0  0
 35 45  1  0  0  0
 35 68  1  0  0  0
 36 56  1  0  0  0
 36107  1  0  0  0
 37 39  1  0  0  0
 37 47  1  0  0  0
 37 66  1  0  0  0
 37108  1  0  0  0
 38 43  2  0  0  0
 38 46  1  0  0  0
 38 47  1  0  0  0
 39 64  1  0  0  0
 39 67  2  0  0  0
 40 52  1  0  0  0
 40 53  2  0  0  0
 40 58  1  0  0  0
 41109  1  0  0  0
 41110  1  0  0  0
 41111  1  0  0  0
 41 48  1  0  0  0
 42 43  1  0  0  0
 42 66  1  0  0  0
 42112  1  0  0  0
 42113  1  0  0  0
 43 44  1  0  0  0
 44114  1  0  0  0
 45 46  2  0  0  0
 45115  1  0  0  0
 46116  1  0  0  0
 47117  1  0  0  0
 47118  1  0  0  0
 48 56  1  0  0  0
 48 65  1  0  0  0
 48119  1  0  0  0
 49 50  1  0  0  0
 49 53  1  0  0  0
 49 64  1  0  0  0
 49120  1  0  0  0
 50 51  1  0  0  0
 50121  1  0  0  0
 50122  1  0  0  0
 51 52  1  0  0  0
 51123  1  0  0  0
 51124  1  0  0  0
 52125  1  0  0  0
 52126  1  0  0  0
 53 54  1  0  0  0
 54 55  2  0  0  0
 54127  1  0  0  0
 55 57  1  0  0  0
 55128  1  0  0  0
 56 69  2  0  0  0
 57 58  2  0  0  0
 57129  1  0  0  0
 58130  1  0  0  0
 59 60  1  0  0  0
 59 61  1  0  0  0
 59 62  1  0  0  0
 60131  1  0  0  0
 60132  1  0  0  0
 60133  1  0  0  0
 61134  1  0  0  0
 61135  1  0  0  0
 61136  1  0  0  0
 62137  1  0  0  0
 62138  1  0  0  0
 62139  1  0  0  0
 63 65  1  0  0  0
 63140  1  0  0  0
 63141  1  0  0  0
 63142  1  0  0  0
 64143  1  0  0  0
 65144  1  0  0  0
 68 84  1  0  0  0
 71 72  2  0  0  0
 71 74  1  0  0  0
 71145  1  0  0  0
 72 75  1  0  0  0
 72146  1  0  0  0
 73 74  2  0  0  0
 73 76  1  0  0  0
 73147  1  0  0  0
 74 83  1  0  0  0
 75 76  2  0  0  0
 75 77  1  0  0  0
 76 85  1  0  0  0
 77148  1  0  0  0
 77149  1  0  0  0
 77150  1  0  0  0
 78151  1  0  0  0
 78152  1  0  0  0
 78153  1  0  0  0
 78 83  1  0  0  0
 79 83  1  0  0  0
 79154  1  0  0  0
 79155  1  0  0  0
 79156  1  0  0  0
 80157  1  0  0  0
 80158  1  0  0  0
 80159  1  0  0  0
 80 84  1  0  0  0
 81 84  1  0  0  0
 81160  1  0  0  0
 81161  1  0  0  0
 81162  1  0  0  0
 82 83  1  0  0  0
 82 84  1  0  0  0
 82163  1  0  0  0
 82164  1  0  0  0
 85165  1  0  0  0
M  ISO  4   1 100  68 101  84 101  85 100
M  END
> <chiral flag>
0

> <version>
0

> <s_m_source_file>
/data/baiqing/PycharmProjects/Reinvent-master-3.2/result/LINK_invent/BTK/process_docking_weight1_custom_product_contain_oxygen_bond_distance_aromatic_linkinvent_7_9_3/rearranged_h_0139.sdf

> <i_m_source_file_index>
40

> <r_mmod_Potential_Energy-OPLS-2005>
648.114135742188

> <r_mmod_Stretch_Energy-OPLS-2005>
332.592681884766

> <r_mmod_Bend_Energy-OPLS-2005>
312.506866455078

> <r_mmod_Torsional_Energy-OPLS-2005>
282.01708984375

> <r_mmod_Improper_Torsional_Energy-OPLS-2005>
4.84717082977295

> <r_mmod_Van_der_Waal_Energy-OPLS-2005>
134.651275634766

> <r_mmod_Electrostatic_Energy-OPLS-2005>
-417.586181640625

> <r_mmod_Solvation_Energy-OPLS-2005>
-193.860961914062

> <b_mmod_Minimization_Converged-OPLS-2005>
0

> <r_mmod_RMS_Derivative-OPLS-2005>
6.2839937210083

$$$$
40
                    3D
 Structure written by MMmdl.
168176  0  0  1  0            999 V2000
  -30.5589  -14.9462   20.4501 C   0  0  0  0  0  0
  -30.4385  -12.5928   19.4962 C   0  0  0  0  0  0
  -29.5170  -12.5331   18.2557 C   0  0  0  0  0  0
  -28.0508  -12.3202   18.6750 C   0  0  0  0  0  0
  -27.6301  -13.2504   19.8432 C   0  0  2  0  0  0
  -28.6752  -13.2782   20.9792 C   0  0  0  0  0  0
  -25.2459  -13.8224   20.5718 C   0  0  0  0  0  0
  -24.1779  -13.0440   20.9230 C   0  0  0  0  0  0
  -24.6397  -11.6927   20.8764 C   0  0  0  0  0  0
  -23.9083  -10.4297   21.0411 C   0  0  0  0  0  0
  -24.3633   -9.4207   21.9184 C   0  0  0  0  0  0
  -23.6301   -8.2243   22.0755 C   0  0  0  0  0  0
  -22.4284   -8.0284   21.3545 C   0  0  0  0  0  0
  -21.9926   -9.0258   20.4644 C   0  0  0  0  0  0
  -22.7261  -10.2130   20.3057 C   0  0  0  0  0  0
  -21.6855   -6.0736   22.5275 C   0  0  0  0  0  0
  -21.4016   -6.5635   23.8208 C   0  0  0  0  0  0
  -21.3662   -5.6787   24.9167 C   0  0  0  0  0  0
  -21.6048   -4.3051   24.7216 C   0  0  0  0  0  0
  -21.8819   -3.8142   23.4338 C   0  0  0  0  0  0
  -21.9192   -4.6963   22.3398 C   0  0  0  0  0  0
  -22.7796  -13.5206   21.1880 C   0  0  0  0  0  0
  -22.1660   -4.2150   21.0978 F   0  0  0  0  0  0
  -21.5630   -3.4538   25.7726 F   0  0  0  0  0  0
  -29.9491  -13.6928   20.3772 N   0  0  0  0  0  0
  -26.2889  -12.9454   20.3283 N   0  0  0  0  0  0
  -25.9334  -11.6577   20.5777 N   0  0  0  0  0  0
  -22.0461  -12.8177   22.0434 N   0  0  0  0  0  0
  -25.4105  -15.1958   20.4119 N   0  0  0  0  0  0
  -31.7652  -14.9899   20.1865 O   0  0  0  0  0  0
  -21.6645   -6.8883   21.4242 O   0  0  0  0  0  0
  -22.3466  -14.5510   20.6735 O   0  0  0  0  0  0
  -24.6441  -31.8430   23.1943 C   0  0  0  0  0  0
  -25.9203  -32.4694   23.8306 C   0  0  1  0  0  0
  -27.1907  -27.0961   20.1599 C   0  0  0  0  0  0
  -25.5959  -33.8512   24.2201 N   0  0  0  0  0  0
  -23.4505  -30.4677   21.5384 C   0  0  2  0  0  0
  -24.8996  -28.9063   20.1085 C   0  0  0  0  0  0
  -22.7579  -29.4526   22.4851 C   0  0  0  0  0  0
  -18.0305  -28.1409   22.8455 C   0  0  0  0  0  0
  -24.1505  -36.7252   23.2643 C   0  0  0  0  0  0
  -26.0111  -30.7005   21.4097 C   0  0  0  0  0  0
  -26.0733  -29.3100   20.7537 C   0  0  0  0  0  0
  -27.2162  -28.4158   20.7786 C   0  0  0  0  0  0
  -26.0283  -26.8693   19.3916 C   0  0  0  0  0  0
  -24.8923  -27.6981   19.4090 C   0  0  0  0  0  0
  -23.6789  -29.8117   20.1538 C   0  0  0  0  0  0
  -25.4136  -36.3029   24.0314 C   0  0  1  0  0  0
  -20.5925  -28.3714   23.1240 C   0  0  2  0  0  0
  -20.6807  -26.9424   22.5404 C   0  0  0  0  0  0
  -19.5783  -26.6376   21.5220 C   0  0  0  0  0  0
  -18.1947  -26.7941   22.1608 C   0  0  0  0  0  0
  -19.1569  -28.8874   23.2846 C   0  0  0  0  0  0
  -18.9492  -30.1468   23.8865 C   0  0  0  0  0  0
  -17.6492  -30.6597   24.0548 C   0  0  0  0  0  0
  -25.9081  -34.9399   23.5064 C   0  0  0  0  0  0
  -16.5371  -29.9091   23.6337 C   0  0  0  0  0  0
  -16.7288  -28.6513   23.0345 C   0  0  0  0  0  0
  -26.4531  -31.6570   25.0747 C   0  0  0  0  0  0
  -25.3697  -31.3771   26.1422 C   0  0  0  0  0  0
  -27.0398  -30.2957   24.6353 C   0  0  0  0  0  0
  -27.6063  -32.4341   25.7509 C   0  0  0  0  0  0
  -27.5577  -37.1783   24.8464 C   0  0  0  0  0  0
  -21.4265  -29.3046   22.3610 N   0  0  0  0  0  0
  -26.4287  -37.3750   23.9406 N   0  0  0  0  0  0
  -24.7215  -31.0261   22.1010 N   0  0  0  0  0  0
  -23.4212  -28.8055   23.2989 O   0  0  0  0  0  0
  -28.2044  -26.0494   20.2186 O   0  0  0  0  0  0
  -26.5670  -34.8880   22.4640 O   0  0  0  0  0  0
  -23.5548  -32.1341   23.7114 O   0  0  0  0  0  0
  -30.8991  -20.4410   21.1126 C   0  0  0  0  0  0
  -29.2137  -18.8080   20.4941 C   0  0  0  0  0  0
  -31.4045  -18.0151   21.1279 C   0  0  0  0  0  0
  -29.5752  -20.2411   20.6782 C   0  0  0  0  0  0
  -31.8059  -19.3653   21.3454 C   0  0  0  0  0  0
  -30.1112  -17.6391   20.6992 C   0  0  0  0  0  0
  -33.3743  -19.0155   23.2856 C   0  0  0  0  0  0
  -33.5749  -21.1319   21.9856 C   0  0  0  0  0  0
  -34.2808  -18.9904   20.9431 C   0  0  0  0  0  0
  -26.6865  -23.9679   19.7982 C   0  0  0  0  0  0
  -27.5459  -24.6049   22.0441 C   0  0  0  0  0  0
  -28.6026  -21.5676   20.5212 C   0  0  0  0  0  0
  -29.0203  -23.2211   20.4305 C   0  0  0  0  0  0
  -33.2326  -19.6285   21.8777 C   0  0  0  0  0  0
  -27.9170  -24.5169   20.5533 C   0  0  0  0  0  0
  -29.7826  -16.1388   20.5792 N   0  0  0  0  0  0
  -31.4718  -12.7497   19.1811 H   0  0  0  0  0  0
  -30.4317  -11.6416   20.0301 H   0  0  0  0  0  0
  -29.8353  -11.7354   17.5835 H   0  0  0  0  0  0
  -29.6031  -13.4631   17.6909 H   0  0  0  0  0  0
  -27.9431  -11.2782   18.9783 H   0  0  0  0  0  0
  -27.3856  -12.4581   17.8219 H   0  0  0  0  0  0
  -27.5933  -14.2532   19.4166 H   0  0  0  0  0  0
  -28.7644  -12.3018   21.4572 H   0  0  0  0  0  0
  -28.3757  -13.9814   21.7578 H   0  0  0  0  0  0
  -25.2776   -9.5675   22.4755 H   0  0  0  0  0  0
  -24.0008   -7.4633   22.7473 H   0  0  0  0  0  0
  -21.0860   -8.8780   19.8939 H   0  0  0  0  0  0
  -22.3732  -10.9670   19.6164 H   0  0  0  0  0  0
  -21.2010   -7.6141   23.9714 H   0  0  0  0  0  0
  -21.1486   -6.0512   25.9071 H   0  0  0  0  0  0
  -22.0599   -2.7606   23.2835 H   0  0  0  0  0  0
  -22.4098  -11.9826   22.4781 H   0  0  0  0  0  0
  -21.1084  -13.1180   22.2687 H   0  0  0  0  0  0
  -24.6352  -15.8427   20.5101 H   0  0  0  0  0  0
  -26.2473  -15.6356   20.0512 H   0  0  0  0  0  0
  -26.7229  -32.5262   23.0988 H   0  0  0  0  0  0
  -25.0086  -33.9657   25.0330 H   0  0  0  0  0  0
  -22.7535  -31.2949   21.3874 H   0  0  0  0  0  0
  -23.3777  -35.9575   23.3290 H   0  0  0  0  0  0
  -24.3592  -36.8903   22.2064 H   0  0  0  0  0  0
  -23.7268  -37.6443   23.6689 H   0  0  0  0  0  0
  -26.1852  -31.4553   20.6413 H   0  0  0  0  0  0
  -26.8745  -30.7412   22.0608 H   0  0  0  0  0  0
  -28.0971  -28.7124   21.3298 H   0  0  0  0  0  0
  -25.9609  -26.0237   18.7330 H   0  0  0  0  0  0
  -24.0204  -27.4115   18.8377 H   0  0  0  0  0  0
  -23.8200  -30.5927   19.4060 H   0  0  0  0  0  0
  -22.7937  -29.2609   19.8332 H   0  0  0  0  0  0
  -25.1344  -36.1834   25.0811 H   0  0  0  0  0  0
  -21.0002  -28.3264   24.1376 H   0  0  0  0  0  0
  -20.5745  -26.2314   23.3610 H   0  0  0  0  0  0
  -21.6663  -26.7457   22.1180 H   0  0  0  0  0  0
  -19.6981  -25.6287   21.1258 H   0  0  0  0  0  0
  -19.6751  -27.3162   20.6731 H   0  0  0  0  0  0
  -17.4247  -26.6672   21.3982 H   0  0  0  0  0  0
  -18.0320  -26.0110   22.9025 H   0  0  0  0  0  0
  -19.7974  -30.7277   24.2225 H   0  0  0  0  0  0
  -17.5056  -31.6282   24.5146 H   0  0  0  0  0  0
  -15.5375  -30.2994   23.7712 H   0  0  0  0  0  0
  -15.8672  -28.0829   22.7095 H   0  0  0  0  0  0
  -24.5914  -30.7083   25.7724 H   0  0  0  0  0  0
  -24.8845  -32.2955   26.4719 H   0  0  0  0  0  0
  -25.7955  -30.9029   27.0264 H   0  0  0  0  0  0
  -26.3017  -29.6680   24.1343 H   0  0  0  0  0  0
  -27.3996  -29.7262   25.4928 H   0  0  0  0  0  0
  -27.8932  -30.4210   23.9694 H   0  0  0  0  0  0
  -27.2690  -33.3712   26.1940 H   0  0  0  0  0  0
  -28.3926  -32.6776   25.0359 H   0  0  0  0  0  0
  -28.0647  -31.8560   26.5537 H   0  0  0  0  0  0
  -28.2579  -38.0094   24.7512 H   0  0  0  0  0  0
  -28.1104  -36.2622   24.6296 H   0  0  0  0  0  0
  -27.2288  -37.1419   25.8866 H   0  0  0  0  0  0
  -20.9468  -29.8798   21.6821 H   0  0  0  0  0  0
  -26.0152  -38.2812   24.1423 H   0  0  0  0  0  0
  -31.1975  -21.4619   21.2916 H   0  0  0  0  0  0
  -28.1955  -18.6039   20.1937 H   0  0  0  0  0  0
  -32.1177  -17.2350   21.3385 H   0  0  0  0  0  0
  -32.6463  -19.4406   23.9783 H   0  0  0  0  0  0
  -34.3652  -19.1969   23.7027 H   0  0  0  0  0  0
  -33.2257  -17.9356   23.2807 H   0  0  0  0  0  0
  -32.9202  -21.6508   22.6870 H   0  0  0  0  0  0
  -33.5002  -21.6313   21.0183 H   0  0  0  0  0  0
  -34.5942  -21.2837   22.3425 H   0  0  0  0  0  0
  -34.1903  -17.9059   20.8900 H   0  0  0  0  0  0
  -35.2950  -19.2010   21.2855 H   0  0  0  0  0  0
  -34.1931  -19.3782   19.9276 H   0  0  0  0  0  0
  -26.4843  -22.9286   20.0418 H   0  0  0  0  0  0
  -26.8236  -24.0186   18.7173 H   0  0  0  0  0  0
  -25.7584  -24.4555   20.0862 H   0  0  0  0  0  0
  -27.2783  -23.6286   22.4503 H   0  0  0  0  0  0
  -26.6961  -25.2687   22.2120 H   0  0  0  0  0  0
  -28.3801  -24.9899   22.6326 H   0  0  0  0  0  0
  -27.8989  -21.4751   21.3493 H   0  0  0  0  0  0
  -28.0131  -21.3513   19.6306 H   0  0  0  0  0  0
  -29.5497  -23.3449   19.4862 H   0  0  0  0  0  0
  -29.7785  -23.3963   21.1929 H   0  0  0  0  0  0
  -28.7944  -15.9389   20.6026 H   0  0  0  0  0  0
  1 25  1  0  0  0
  1 30  2  0  0  0
  1 86  1  0  0  0
  2  3  1  0  0  0
  2 25  1  0  0  0
  2 87  1  0  0  0
  2 88  1  0  0  0
  3  4  1  0  0  0
  3 89  1  0  0  0
  3 90  1  0  0  0
  4  5  1  0  0  0
  4 91  1  0  0  0
  4 92  1  0  0  0
  5  6  1  0  0  0
  5 26  1  0  0  0
  5 93  1  0  0  0
  6 25  1  0  0  0
  6 94  1  0  0  0
  6 95  1  0  0  0
  7  8  2  0  0  0
  7 26  1  0  0  0
  7 29  1  0  0  0
  8  9  1  0  0  0
  8 22  1  0  0  0
  9 10  1  0  0  0
  9 27  2  0  0  0
 10 11  2  0  0  0
 10 15  1  0  0  0
 11 12  1  0  0  0
 11 96  1  0  0  0
 12 13  2  0  0  0
 12 97  1  0  0  0
 13 14  1  0  0  0
 13 31  1  0  0  0
 14 15  2  0  0  0
 14 98  1  0  0  0
 15 99  1  0  0  0
 16 17  2  0  0  0
 16 21  1  0  0  0
 16 31  1  0  0  0
 17 18  1  0  0  0
 17100  1  0  0  0
 18 19  2  0  0  0
 18101  1  0  0  0
 19 20  1  0  0  0
 19 24  1  0  0  0
 20 21  2  0  0  0
 20102  1  0  0  0
 21 23  1  0  0  0
 22 28  1  0  0  0
 22 32  2  0  0  0
 26 27  1  0  0  0
 28103  1  0  0  0
 28104  1  0  0  0
 29105  1  0  0  0
 29106  1  0  0  0
 33 34  1  0  0  0
 33 66  1  0  0  0
 33 70  2  0  0  0
 34 36  1  0  0  0
 34 59  1  0  0  0
 34107  1  0  0  0
 35 44  2  0  0  0
 35 45  1  0  0  0
 35 68  1  0  0  0
 36 56  1  0  0  0
 36108  1  0  0  0
 37 39  1  0  0  0
 37 47  1  0  0  0
 37 66  1  0  0  0
 37109  1  0  0  0
 38 43  2  0  0  0
 38 46  1  0  0  0
 38 47  1  0  0  0
 39 64  1  0  0  0
 39 67  2  0  0  0
 40 52  1  0  0  0
 40 53  2  0  0  0
 40 58  1  0  0  0
 41110  1  0  0  0
 41111  1  0  0  0
 41112  1  0  0  0
 41 48  1  0  0  0
 42 43  1  0  0  0
 42 66  1  0  0  0
 42113  1  0  0  0
 42114  1  0  0  0
 43 44  1  0  0  0
 44115  1  0  0  0
 45 46  2  0  0  0
 45116  1  0  0  0
 46117  1  0  0  0
 47118  1  0  0  0
 47119  1  0  0  0
 48 56  1  0  0  0
 48 65  1  0  0  0
 48120  1  0  0  0
 49 50  1  0  0  0
 49 53  1  0  0  0
 49 64  1  0  0  0
 49121  1  0  0  0
 50 51  1  0  0  0
 50122  1  0  0  0
 50123  1  0  0  0
 51 52  1  0  0  0
 51124  1  0  0  0
 51125  1  0  0  0
 52126  1  0  0  0
 52127  1  0  0  0
 53 54  1  0  0  0
 54 55  2  0  0  0
 54128  1  0  0  0
 55 57  1  0  0  0
 55129  1  0  0  0
 56 69  2  0  0  0
 57 58  2  0  0  0
 57130  1  0  0  0
 58131  1  0  0  0
 59 60  1  0  0  0
 59 61  1  0  0  0
 59 62  1  0  0  0
 60132  1  0  0  0
 60133  1  0  0  0
 60134  1  0  0  0
 61135  1  0  0  0
 61136  1  0  0  0
 61137  1  0  0  0
 62138  1  0  0  0
 62139  1  0  0  0
 62140  1  0  0  0
 63 65  1  0  0  0
 63141  1  0  0  0
 63142  1  0  0  0
 63143  1  0  0  0
 64144  1  0  0  0
 65145  1  0  0  0
 68 85  1  0  0  0
 71 74  2  0  0  0
 71 75  1  0  0  0
 71146  1  0  0  0
 72 74  1  0  0  0
 72 76  2  0  0  0
 72147  1  0  0  0
 73 75  2  0  0  0
 73 76  1  0  0  0
 73148  1  0  0  0
 74 82  1  0  0  0
 75 84  1  0  0  0
 76 86  1  0  0  0
 77149  1  0  0  0
 77150  1  0  0  0
 77151  1  0  0  0
 77 84  1  0  0  0
 78 84  1  0  0  0
 78152  1  0  0  0
 78153  1  0  0  0
 78154  1  0  0  0
 79 84  1  0  0  0
 79155  1  0  0  0
 79156  1  0  0  0
 79157  1  0  0  0
 80158  1  0  0  0
 80159  1  0  0  0
 80160  1  0  0  0
 80 85  1  0  0  0
 81 85  1  0  0  0
 81161  1  0  0  0
 81162  1  0  0  0
 81163  1  0  0  0
 82 83  1  0  0  0
 82164  1  0  0  0
 82165  1  0  0  0
 83 85  1  0  0  0
 83166  1  0  0  0
 83167  1  0  0  0
 86168  1  0  0  0
M  ISO  4   1 100  68 101  85 101  86 100
M  END
> <chiral flag>
0

> <version>
0

> <s_m_source_file>
/data/baiqing/PycharmProjects/Reinvent-master-3.2/result/LINK_invent/BTK/process_docking_weight1_custom_product_contain_oxygen_bond_distance_aromatic_linkinvent_7_9_3/rearranged_h_0139.sdf

> <i_m_source_file_index>
41

> <r_mmod_Potential_Energy-OPLS-2005>
557.146667480469

> <r_mmod_Stretch_Energy-OPLS-2005>
295.156677246094

> <r_mmod_Bend_Energy-OPLS-2005>
269.284332275391

> <r_mmod_Torsional_Energy-OPLS-2005>
236.613647460938

> <r_mmod_Improper_Torsional_Energy-OPLS-2005>
5.58410549163818

> <r_mmod_Van_der_Waal_Energy-OPLS-2005>
155.202987670898

> <r_mmod_Electrostatic_Energy-OPLS-2005>
-427.336700439453

> <r_mmod_Solvation_Energy-OPLS-2005>
-191.129531860352

> <b_mmod_Minimization_Converged-OPLS-2005>
0

> <r_mmod_RMS_Derivative-OPLS-2005>
2.51144957542419

$$$$
41
                    3D
 Structure written by MMmdl.
160168  0  0  1  0            999 V2000
  -29.8127  -16.9258   20.2563 C   0  0  0  0  0  0
  -30.2660  -14.0616   19.5359 C   0  0  0  0  0  0
  -29.5795  -13.0963   18.4572 C   0  0  0  0  0  0
  -28.2876  -12.4522   18.9583 C   0  0  0  0  0  0
  -27.5758  -13.4914   19.8315 C   0  0  2  0  0  0
  -28.4778  -14.3189   20.8511 C   0  0  0  0  0  0
  -25.2115  -13.8599   20.5977 C   0  0  0  0  0  0
  -24.1684  -13.0493   20.9347 C   0  0  0  0  0  0
  -24.6643  -11.7097   20.8724 C   0  0  0  0  0  0
  -23.9358  -10.4347   21.0304 C   0  0  0  0  0  0
  -24.3808   -9.4240   21.9124 C   0  0  0  0  0  0
  -23.6407   -8.2308   22.0741 C   0  0  0  0  0  0
  -22.4373   -8.0361   21.3544 C   0  0  0  0  0  0
  -22.0071   -9.0339   20.4620 C   0  0  0  0  0  0
  -22.7482  -10.2175   20.2990 C   0  0  0  0  0  0
  -21.6893   -6.0789   22.5279 C   0  0  0  0  0  0
  -21.4050   -6.5669   23.8220 C   0  0  0  0  0  0
  -21.3670   -5.6805   24.9174 C   0  0  0  0  0  0
  -21.6044   -4.3064   24.7209 C   0  0  0  0  0  0
  -21.8814   -3.8173   23.4321 C   0  0  0  0  0  0
  -21.9205   -4.7010   22.3393 C   0  0  0  0  0  0
  -22.7632  -13.5051   21.1938 C   0  0  0  0  0  0
  -22.1660   -4.2188   21.0969 F   0  0  0  0  0  0
  -21.5622   -3.4549   25.7717 F   0  0  0  0  0  0
  -29.4341  -15.3285   20.1501 N   0  0  0  0  0  0
  -26.2876  -13.0349   20.3582 N   0  0  0  0  0  0
  -25.9689  -11.7187   20.5666 N   0  0  0  0  0  0
  -22.0365  -12.7972   22.0486 N   0  0  0  0  0  0
  -25.3322  -15.2379   20.4384 N   0  0  0  0  0  0
  -31.0636  -16.6537   20.1808 O   0  0  0  0  0  0
  -21.6700   -6.8963   21.4252 O   0  0  0  0  0  0
  -22.3230  -14.5321   20.6780 O   0  0  0  0  0  0
  -24.7699  -31.6893   23.0801 C   0  0  0  0  0  0
  -25.9824  -32.3949   23.7685 C   0  0  1  0  0  0
  -27.3063  -25.8218   20.2797 C   0  0  0  0  0  0
  -25.6017  -33.7834   24.1458 N   0  0  0  0  0  0
  -23.6395  -30.2458   21.4557 C   0  0  2  0  0  0
  -25.1183  -28.4025   20.1481 C   0  0  0  0  0  0
  -22.8166  -29.3712   22.4487 C   0  0  0  0  0  0
  -18.0404  -28.1470   22.8413 C   0  0  0  0  0  0
  -24.1513  -36.6938   23.2676 C   0  0  0  0  0  0
  -26.2452  -30.1238   21.4915 C   0  0  0  0  0  0
  -26.3094  -28.5879   20.8592 C   0  0  0  0  0  0
  -27.3346  -27.3570   20.8867 C   0  0  0  0  0  0
  -26.0936  -26.0947   19.4927 C   0  0  0  0  0  0
  -25.1019  -27.1811   19.4378 C   0  0  0  0  0  0
  -23.9457  -29.4549   20.1330 C   0  0  0  0  0  0
  -25.4190  -36.2609   24.0226 C   0  0  1  0  0  0
  -20.6077  -28.3858   23.0978 C   0  0  2  0  0  0
  -20.6826  -26.9440   22.5423 C   0  0  0  0  0  0
  -19.5820  -26.6344   21.5229 C   0  0  0  0  0  0
  -18.1995  -26.7975   22.1602 C   0  0  0  0  0  0
  -19.1686  -28.9010   23.2645 C   0  0  0  0  0  0
  -18.9582  -30.1564   23.8734 C   0  0  0  0  0  0
  -17.6559  -30.6625   24.0533 C   0  0  0  0  0  0
  -25.9211  -34.9011   23.4756 C   0  0  0  0  0  0
  -16.5438  -29.9082   23.6373 C   0  0  0  0  0  0
  -16.7380  -28.6509   23.0385 C   0  0  0  0  0  0
  -26.4732  -31.6380   25.0666 C   0  0  0  0  0  0
  -25.3562  -31.3918   26.1098 C   0  0  0  0  0  0
  -27.0807  -30.2645   24.7202 C   0  0  0  0  0  0
  -27.6022  -32.4455   25.7493 C   0  0  0  0  0  0
  -27.5554  -37.1618   24.8464 C   0  0  0  0  0  0
  -21.4737  -29.2907   22.3195 N   0  0  0  0  0  0
  -26.4251  -37.3455   23.9407 N   0  0  0  0  0  0
  -24.9203  -30.7400   22.0604 N   0  0  0  0  0  0
  -23.4170  -28.7502   23.3282 O   0  0  0  0  0  0
  -27.9915  -24.1107   20.2256 O   0  0  0  0  0  0
  -26.5987  -34.8757   22.4470 O   0  0  0  0  0  0
  -23.6530  -32.0387   23.5147 O   0  0  0  0  0  0
  -30.0836  -23.7523   19.8900 C   0  0  0  0  0  0
  -27.9061  -21.8379   21.4250 C   0  0  0  0  0  0
  -29.5798  -24.5260   21.4914 C   0  0  0  0  0  0
  -28.8324  -20.7718   20.3479 C   0  0  0  0  0  0
  -28.2440  -23.4392   22.2297 C   0  0  0  0  0  0
  -29.5309  -22.1026   19.4477 C   0  0  0  0  0  0
  -30.5003  -25.3552   22.2489 C   0  0  0  0  0  0
  -27.8843  -22.1962   25.0800 C   0  0  0  0  0  0
  -31.5578  -24.4267   22.7968 C   0  0  0  0  0  0
  -30.9741  -22.9931   22.9528 C   0  0  0  0  0  0
  -26.9131  -22.9700   24.1812 C   0  0  0  0  0  0
  -30.1566  -22.4041   21.6958 C   0  0  0  0  0  0
  -30.4639  -26.6040   22.4363 N   0  0  0  0  0  0
  -29.0544  -18.6352   20.3061 N   0  0  0  0  0  0
  -27.6293  -23.8917   23.3749 O   0  0  0  0  0  0
  -30.0737  -21.6892   18.2787 F   0  0  0  0  0  0
  -31.1362  -14.4800   19.0283 H   0  0  0  0  0  0
  -30.7159  -13.4671   20.3332 H   0  0  0  0  0  0
  -30.2806  -12.3249   18.1349 H   0  0  0  0  0  0
  -29.3508  -13.6865   17.5696 H   0  0  0  0  0  0
  -28.5309  -11.5768   19.5623 H   0  0  0  0  0  0
  -27.6618  -12.1108   18.1332 H   0  0  0  0  0  0
  -27.2877  -14.2373   19.0886 H   0  0  0  0  0  0
  -28.9769  -13.6645   21.5673 H   0  0  0  0  0  0
  -27.8270  -14.9303   21.4761 H   0  0  0  0  0  0
  -25.2948   -9.5696   22.4715 H   0  0  0  0  0  0
  -24.0088   -7.4713   22.7496 H   0  0  0  0  0  0
  -21.0992   -8.8898   19.8932 H   0  0  0  0  0  0
  -22.3954  -10.9711   19.6089 H   0  0  0  0  0  0
  -21.2054   -7.6181   23.9735 H   0  0  0  0  0  0
  -21.1493   -6.0531   25.9073 H   0  0  0  0  0  0
  -22.0577   -2.7640   23.2814 H   0  0  0  0  0  0
  -22.4101  -11.9695   22.4896 H   0  0  0  0  0  0
  -21.0938  -13.0866   22.2681 H   0  0  0  0  0  0
  -24.5380  -15.8618   20.5361 H   0  0  0  0  0  0
  -26.1696  -15.7035   20.1160 H   0  0  0  0  0  0
  -26.8051  -32.4300   23.0520 H   0  0  0  0  0  0
  -24.9908  -33.8729   24.9449 H   0  0  0  0  0  0
  -23.0207  -31.1022   21.1835 H   0  0  0  0  0  0
  -23.3815  -35.9219   23.3194 H   0  0  0  0  0  0
  -24.3557  -36.8792   22.2119 H   0  0  0  0  0  0
  -23.7235  -37.6033   23.6907 H   0  0  0  0  0  0
  -26.5390  -30.7868   20.6763 H   0  0  0  0  0  0
  -27.0671  -30.2120   22.1861 H   0  0  0  0  0  0
  -28.1927  -27.5469   21.5134 H   0  0  0  0  0  0
  -25.8090  -25.2498   18.8838 H   0  0  0  0  0  0
  -24.2445  -27.0026   18.8042 H   0  0  0  0  0  0
  -24.1828  -30.1749   19.3495 H   0  0  0  0  0  0
  -23.0402  -28.9520   19.7900 H   0  0  0  0  0  0
  -25.1439  -36.1253   25.0710 H   0  0  0  0  0  0
  -21.0119  -28.3557   24.1121 H   0  0  0  0  0  0
  -20.5611  -26.2514   23.3767 H   0  0  0  0  0  0
  -21.6680  -26.7247   22.1298 H   0  0  0  0  0  0
  -19.6964  -25.6210   21.1362 H   0  0  0  0  0  0
  -19.6797  -27.3069   20.6690 H   0  0  0  0  0  0
  -17.4286  -26.6737   21.3985 H   0  0  0  0  0  0
  -18.0344  -26.0146   22.9017 H   0  0  0  0  0  0
  -19.8051  -30.7416   24.2053 H   0  0  0  0  0  0
  -17.5102  -31.6285   24.5164 H   0  0  0  0  0  0
  -15.5436  -30.2940   23.7776 H   0  0  0  0  0  0
  -15.8782  -28.0769   22.7199 H   0  0  0  0  0  0
  -24.5844  -30.7186   25.7340 H   0  0  0  0  0  0
  -24.8655  -32.3198   26.4040 H   0  0  0  0  0  0
  -25.7525  -30.9379   27.0189 H   0  0  0  0  0  0
  -26.3677  -29.5971   24.2362 H   0  0  0  0  0  0
  -27.4041  -29.7449   25.6232 H   0  0  0  0  0  0
  -27.9722  -30.3595   24.0998 H   0  0  0  0  0  0
  -27.2484  -33.3946   26.1518 H   0  0  0  0  0  0
  -28.4075  -32.6709   25.0489 H   0  0  0  0  0  0
  -28.0426  -31.8975   26.5830 H   0  0  0  0  0  0
  -28.2473  -38.0000   24.7532 H   0  0  0  0  0  0
  -28.1147  -36.2510   24.6266 H   0  0  0  0  0  0
  -27.2268  -37.1197   25.8864 H   0  0  0  0  0  0
  -21.0275  -29.8401   21.5985 H   0  0  0  0  0  0
  -26.0007  -38.2472   24.1410 H   0  0  0  0  0  0
  -30.8144  -24.2400   19.2652 H   0  0  0  0  0  0
  -27.1762  -21.2646   21.9729 H   0  0  0  0  0  0
  -27.3447  -21.6609   25.8609 H   0  0  0  0  0  0
  -28.5802  -22.8783   25.5710 H   0  0  0  0  0  0
  -28.4655  -21.4681   24.5144 H   0  0  0  0  0  0
  -31.9418  -24.7949   23.7483 H   0  0  0  0  0  0
  -32.3928  -24.4056   22.0942 H   0  0  0  0  0  0
  -30.3227  -23.0062   23.8281 H   0  0  0  0  0  0
  -31.7798  -22.3102   23.2253 H   0  0  0  0  0  0
  -26.2479  -23.5583   24.8139 H   0  0  0  0  0  0
  -26.2653  -22.3087   23.6084 H   0  0  0  0  0  0
  -29.9491  -21.4833   22.2642 H   0  0  0  0  0  0
  -31.0566  -22.0597   21.1539 H   0  0  0  0  0  0
  -31.2394  -26.9187   23.0096 H   0  0  0  0  0  0
  -28.0974  -18.3243   20.4043 H   0  0  0  0  0  0
  1 25  1  0  0  0
  1 30  2  0  0  0
  1 84  1  0  0  0
  2  3  1  0  0  0
  2 25  1  0  0  0
  2 87  1  0  0  0
  2 88  1  0  0  0
  3  4  1  0  0  0
  3 89  1  0  0  0
  3 90  1  0  0  0
  4  5  1  0  0  0
  4 91  1  0  0  0
  4 92  1  0  0  0
  5  6  1  0  0  0
  5 26  1  0  0  0
  5 93  1  0  0  0
  6 25  1  0  0  0
  6 94  1  0  0  0
  6 95  1  0  0  0
  7  8  2  0  0  0
  7 26  1  0  0  0
  7 29  1  0  0  0
  8  9  1  0  0  0
  8 22  1  0  0  0
  9 10  1  0  0  0
  9 27  2  0  0  0
 10 11  2  0  0  0
 10 15  1  0  0  0
 11 12  1  0  0  0
 11 96  1  0  0  0
 12 13  2  0  0  0
 12 97  1  0  0  0
 13 14  1  0  0  0
 13 31  1  0  0  0
 14 15  2  0  0  0
 14 98  1  0  0  0
 15 99  1  0  0  0
 16 17  2  0  0  0
 16 21  1  0  0  0
 16 31  1  0  0  0
 17 18  1  0  0  0
 17100  1  0  0  0
 18 19  2  0  0  0
 18101  1  0  0  0
 19 20  1  0  0  0
 19 24  1  0  0  0
 20 21  2  0  0  0
 20102  1  0  0  0
 21 23  1  0  0  0
 22 28  1  0  0  0
 22 32  2  0  0  0
 26 27  1  0  0  0
 28103  1  0  0  0
 28104  1  0  0  0
 29105  1  0  0  0
 29106  1  0  0  0
 33 34  1  0  0  0
 33 66  1  0  0  0
 33 70  2  0  0  0
 34 36  1  0  0  0
 34 59  1  0  0  0
 34107  1  0  0  0
 35 44  2  0  0  0
 35 45  1  0  0  0
 35 68  1  0  0  0
 36 56  1  0  0  0
 36108  1  0  0  0
 37 39  1  0  0  0
 37 47  1  0  0  0
 37 66  1  0  0  0
 37109  1  0  0  0
 38 43  2  0  0  0
 38 46  1  0  0  0
 38 47  1  0  0  0
 39 64  1  0  0  0
 39 67  2  0  0  0
 40 52  1  0  0  0
 40 53  2  0  0  0
 40 58  1  0  0  0
 41110  1  0  0  0
 41111  1  0  0  0
 41112  1  0  0  0
 41 48  1  0  0  0
 42 43  1  0  0  0
 42 66  1  0  0  0
 42113  1  0  0  0
 42114  1  0  0  0
 43 44  1  0  0  0
 44115  1  0  0  0
 45 46  2  0  0  0
 45116  1  0  0  0
 46117  1  0  0  0
 47118  1  0  0  0
 47119  1  0  0  0
 48 56  1  0  0  0
 48 65  1  0  0  0
 48120  1  0  0  0
 49 50  1  0  0  0
 49 53  1  0  0  0
 49 64  1  0  0  0
 49121  1  0  0  0
 50 51  1  0  0  0
 50122  1  0  0  0
 50123  1  0  0  0
 51 52  1  0  0  0
 51124  1  0  0  0
 51125  1  0  0  0
 52126  1  0  0  0
 52127  1  0  0  0
 53 54  1  0  0  0
 54 55  2  0  0  0
 54128  1  0  0  0
 55 57  1  0  0  0
 55129  1  0  0  0
 56 69  2  0  0  0
 57 58  2  0  0  0
 57130  1  0  0  0
 58131  1  0  0  0
 59 60  1  0  0  0
 59 61  1  0  0  0
 59 62  1  0  0  0
 60132  1  0  0  0
 60133  1  0  0  0
 60134  1  0  0  0
 61135  1  0  0  0
 61136  1  0  0  0
 61137  1  0  0  0
 62138  1  0  0  0
 62139  1  0  0  0
 62140  1  0  0  0
 63 65  1  0  0  0
 63141  1  0  0  0
 63142  1  0  0  0
 63143  1  0  0  0
 64144  1  0  0  0
 65145  1  0  0  0
 68 82  1  0  0  0
 71 73  2  0  0  0
 71 76  1  0  0  0
 71146  1  0  0  0
 72 74  1  0  0  0
 72 75  2  0  0  0
 72147  1  0  0  0
 73 75  1  0  0  0
 73 77  1  0  0  0
 74 76  2  0  0  0
 74 84  1  0  0  0
 75 85  1  0  0  0
 76 86  1  0  0  0
 77 79  1  0  0  0
 77 83  2  0  0  0
 78 81  1  0  0  0
 78148  1  0  0  0
 78149  1  0  0  0
 78150  1  0  0  0
 79 80  1  0  0  0
 79151  1  0  0  0
 79152  1  0  0  0
 80 82  1  0  0  0
 80153  1  0  0  0
 80154  1  0  0  0
 81 85  1  0  0  0
 81155  1  0  0  0
 81156  1  0  0  0
 82157  1  0  0  0
 82158  1  0  0  0
 83159  1  0  0  0
 84160  1  0  0  0
M  ISO  4   1 100  68 101  82 101  84 100
M  END
> <chiral flag>
0

> <version>
0

> <s_m_source_file>
/data/baiqing/PycharmProjects/Reinvent-master-3.2/result/LINK_invent/BTK/process_docking_weight1_custom_product_contain_oxygen_bond_distance_aromatic_linkinvent_7_9_3/rearranged_h_0139.sdf

> <i_m_source_file_index>
42

> <r_mmod_Potential_Energy-OPLS-2005>
15269.3798828125

> <r_mmod_Stretch_Energy-OPLS-2005>
8416.2294921875

> <r_mmod_Bend_Energy-OPLS-2005>
1146.70751953125

> <r_mmod_Torsional_Energy-OPLS-2005>
381.772735595703

> <r_mmod_Improper_Torsional_Energy-OPLS-2005>
17.7825565338135

> <r_mmod_Van_der_Waal_Energy-OPLS-2005>
2029.92163085938

> <r_mmod_Electrostatic_Energy-OPLS-2005>
-391.111175537109

> <r_mmod_Solvation_Energy-OPLS-2005>
-243.427703857422

> <b_mmod_Minimization_Converged-OPLS-2005>
0

> <r_mmod_RMS_Derivative-OPLS-2005>
5.35922479629517

$$$$
42
                    3D
 Structure written by MMmdl.
161169  0  0  1  0            999 V2000
  -30.6770  -14.5243   20.5229 C   0  0  0  0  0  0
  -30.4162  -12.3250   19.4366 C   0  0  0  0  0  0
  -29.4922  -12.4878   18.2117 C   0  0  0  0  0  0
  -28.0127  -12.3473   18.6223 C   0  0  0  0  0  0
  -27.6496  -13.2091   19.8619 C   0  0  2  0  0  0
  -28.6912  -13.0341   20.9888 C   0  0  0  0  0  0
  -25.2531  -13.8166   20.5657 C   0  0  0  0  0  0
  -24.1802  -13.0440   20.9186 C   0  0  0  0  0  0
  -24.6369  -11.6905   20.8743 C   0  0  0  0  0  0
  -23.9048  -10.4295   21.0400 C   0  0  0  0  0  0
  -24.3624   -9.4234   21.9183 C   0  0  0  0  0  0
  -23.6297   -8.2270   22.0764 C   0  0  0  0  0  0
  -22.4285   -8.0307   21.3551 C   0  0  0  0  0  0
  -21.9909   -9.0270   20.4654 C   0  0  0  0  0  0
  -22.7224  -10.2145   20.3050 C   0  0  0  0  0  0
  -21.6856   -6.0753   22.5281 C   0  0  0  0  0  0
  -21.4017   -6.5644   23.8215 C   0  0  0  0  0  0
  -21.3664   -5.6801   24.9173 C   0  0  0  0  0  0
  -21.6045   -4.3061   24.7221 C   0  0  0  0  0  0
  -21.8825   -3.8157   23.4344 C   0  0  0  0  0  0
  -21.9198   -4.6970   22.3399 C   0  0  0  0  0  0
  -22.7840  -13.5235   21.1866 C   0  0  0  0  0  0
  -22.1648   -4.2156   21.0978 F   0  0  0  0  0  0
  -21.5638   -3.4549   25.7736 F   0  0  0  0  0  0
  -30.0163  -13.3368   20.4258 N   0  0  0  0  0  0
  -26.2943  -12.9328   20.3283 N   0  0  0  0  0  0
  -25.9285  -11.6496   20.5748 N   0  0  0  0  0  0
  -22.0481  -12.8220   22.0423 N   0  0  0  0  0  0
  -25.4266  -15.1882   20.4103 N   0  0  0  0  0  0
  -31.8449  -14.6576   20.1432 O   0  0  0  0  0  0
  -21.6654   -6.8902   21.4247 O   0  0  0  0  0  0
  -22.3537  -14.5554   20.6735 O   0  0  0  0  0  0
  -24.6229  -31.8627   23.2038 C   0  0  0  0  0  0
  -25.9095  -32.4795   23.8357 C   0  0  1  0  0  0
  -27.2274  -27.3701   20.0863 C   0  0  0  0  0  0
  -25.5915  -33.8592   24.2289 N   0  0  0  0  0  0
  -23.4120  -30.4885   21.5495 C   0  0  2  0  0  0
  -24.8534  -28.9513   20.1136 C   0  0  0  0  0  0
  -22.7458  -29.4633   22.4968 C   0  0  0  0  0  0
  -18.0310  -28.1396   22.8478 C   0  0  0  0  0  0
  -24.1489  -36.7307   23.2645 C   0  0  0  0  0  0
  -25.9510  -30.8072   21.3688 C   0  0  0  0  0  0
  -26.0212  -29.4394   20.7120 C   0  0  0  0  0  0
  -27.2057  -28.6565   20.6965 C   0  0  0  0  0  0
  -26.0241  -26.9113   19.4945 C   0  0  0  0  0  0
  -24.8542  -27.6899   19.5035 C   0  0  0  0  0  0
  -23.6206  -29.8256   20.1638 C   0  0  0  0  0  0
  -25.4115  -36.3099   24.0334 C   0  0  1  0  0  0
  -20.5893  -28.3693   23.1342 C   0  0  2  0  0  0
  -20.6807  -26.9390   22.5529 C   0  0  0  0  0  0
  -19.5827  -26.6325   21.5305 C   0  0  0  0  0  0
  -18.1972  -26.7943   22.1622 C   0  0  0  0  0  0
  -19.1546  -28.8871   23.2899 C   0  0  0  0  0  0
  -18.9447  -30.1482   23.8893 C   0  0  0  0  0  0
  -17.6428  -30.6602   24.0540 C   0  0  0  0  0  0
  -25.9046  -34.9462   23.5119 C   0  0  0  0  0  0
  -16.5338  -29.9070   23.6321 C   0  0  0  0  0  0
  -16.7287  -28.6498   23.0336 C   0  0  0  0  0  0
  -26.4487  -31.6594   25.0715 C   0  0  0  0  0  0
  -25.3717  -31.3718   26.1433 C   0  0  0  0  0  0
  -27.0319  -30.3023   24.6144 C   0  0  0  0  0  0
  -27.6068  -32.4309   25.7482 C   0  0  0  0  0  0
  -27.5584  -37.1810   24.8469 C   0  0  0  0  0  0
  -21.4176  -29.3019   22.3706 N   0  0  0  0  0  0
  -26.4298  -37.3787   23.9409 N   0  0  0  0  0  0
  -24.6812  -31.0684   22.0976 N   0  0  0  0  0  0
  -23.4213  -28.8198   23.3032 O   0  0  0  0  0  0
  -28.3959  -26.6054   20.1132 O   0  0  0  0  0  0
  -26.5629  -34.8927   22.4689 O   0  0  0  0  0  0
  -23.5402  -32.1387   23.7401 O   0  0  0  0  0  0
  -29.4369  -18.0317   20.3322 C   0  0  0  0  0  0
  -31.4565  -17.4656   21.3755 C   0  0  0  0  0  0
  -30.2850  -16.9859   20.8469 C   0  0  0  0  0  0
  -29.9878  -19.2988   20.4454 C   0  0  0  0  0  0
  -28.9339  -24.1136   20.1985 C   0  0  0  0  0  0
  -27.6663  -20.6459   21.7551 C   0  0  0  0  0  0
  -26.8563  -23.3929   21.3183 C   0  0  0  0  0  0
  -27.3011  -22.5319   19.0143 C   0  0  0  0  0  0
  -29.4489  -20.6427   19.9515 C   0  0  0  0  0  0
  -28.4925  -25.3584   19.3576 C   0  0  0  0  0  0
  -28.6535  -21.5478   20.9674 C   0  0  1  0  0  0
  -27.9688  -22.8790   20.3678 C   0  0  0  0  0  0
  -29.9125  -15.5966   20.8514 N   0  0  0  0  0  0
  -30.0481  -24.1109   20.7309 O   0  0  0  0  0  0
  -31.5451  -19.2061   21.2395 S   0  0  0  0  0  0
  -31.4629  -12.4157   19.1414 H   0  0  0  0  0  0
  -30.3155  -11.3251   19.8624 H   0  0  0  0  0  0
  -29.7416  -11.7426   17.4547 H   0  0  0  0  0  0
  -29.6541  -13.4627   17.7498 H   0  0  0  0  0  0
  -27.8339  -11.2938   18.8368 H   0  0  0  0  0  0
  -27.3600  -12.5943   17.7838 H   0  0  0  0  0  0
  -27.6780  -14.2485   19.5361 H   0  0  0  0  0  0
  -28.6724  -12.0083   21.3590 H   0  0  0  0  0  0
  -28.4543  -13.6666   21.8474 H   0  0  0  0  0  0
  -25.2766   -9.5715   22.4753 H   0  0  0  0  0  0
  -24.0025   -7.4666   22.7477 H   0  0  0  0  0  0
  -21.0846   -8.8776   19.8942 H   0  0  0  0  0  0
  -22.3673  -10.9698   19.6177 H   0  0  0  0  0  0
  -21.1979   -7.6149   23.9711 H   0  0  0  0  0  0
  -21.1486   -6.0528   25.9080 H   0  0  0  0  0  0
  -22.0587   -2.7616   23.2834 H   0  0  0  0  0  0
  -22.4078  -11.9863   22.4790 H   0  0  0  0  0  0
  -21.1107  -13.1258   22.2659 H   0  0  0  0  0  0
  -24.6655  -15.8448   20.5405 H   0  0  0  0  0  0
  -26.2824  -15.6326   20.1039 H   0  0  0  0  0  0
  -26.7173  -32.5476   23.1123 H   0  0  0  0  0  0
  -25.0015  -33.9729   25.0401 H   0  0  0  0  0  0
  -22.7046  -31.3086   21.4097 H   0  0  0  0  0  0
  -23.3741  -35.9651   23.3314 H   0  0  0  0  0  0
  -24.3591  -36.8907   22.2060 H   0  0  0  0  0  0
  -23.7237  -37.6514   23.6648 H   0  0  0  0  0  0
  -26.0787  -31.5692   20.5982 H   0  0  0  0  0  0
  -26.8353  -30.8519   21.9934 H   0  0  0  0  0  0
  -28.1035  -29.0322   21.1662 H   0  0  0  0  0  0
  -25.9220  -25.9444   19.0312 H   0  0  0  0  0  0
  -23.9526  -27.3041   19.0469 H   0  0  0  0  0  0
  -23.7341  -30.6019   19.4064 H   0  0  0  0  0  0
  -22.7412  -29.2518   19.8658 H   0  0  0  0  0  0
  -25.1288  -36.1962   25.0825 H   0  0  0  0  0  0
  -20.9980  -28.3317   24.1470 H   0  0  0  0  0  0
  -20.5700  -26.2291   23.3745 H   0  0  0  0  0  0
  -21.6690  -26.7402   22.1378 H   0  0  0  0  0  0
  -19.6996  -25.6205   21.1431 H   0  0  0  0  0  0
  -19.6831  -27.3071   20.6800 H   0  0  0  0  0  0
  -17.4295  -26.6739   21.3962 H   0  0  0  0  0  0
  -18.0276  -26.0096   22.9010 H   0  0  0  0  0  0
  -19.7920  -30.7325   24.2242 H   0  0  0  0  0  0
  -17.4955  -31.6303   24.5100 H   0  0  0  0  0  0
  -15.5328  -30.2956   23.7622 H   0  0  0  0  0  0
  -15.8696  -28.0819   22.7015 H   0  0  0  0  0  0
  -24.5900  -30.7072   25.7740 H   0  0  0  0  0  0
  -24.8900  -32.2875   26.4867 H   0  0  0  0  0  0
  -25.8022  -30.8873   27.0201 H   0  0  0  0  0  0
  -26.2873  -29.6786   24.1180 H   0  0  0  0  0  0
  -27.4041  -29.7275   25.4637 H   0  0  0  0  0  0
  -27.8736  -30.4340   23.9339 H   0  0  0  0  0  0
  -27.2704  -33.3602   26.2096 H   0  0  0  0  0  0
  -28.3855  -32.6871   25.0283 H   0  0  0  0  0  0
  -28.0761  -31.8395   26.5358 H   0  0  0  0  0  0
  -28.2610  -38.0100   24.7505 H   0  0  0  0  0  0
  -28.1058  -36.2624   24.6292 H   0  0  0  0  0  0
  -27.2304  -37.1469   25.8873 H   0  0  0  0  0  0
  -20.9346  -29.8696   21.6886 H   0  0  0  0  0  0
  -26.0177  -38.2864   24.1376 H   0  0  0  0  0  0
  -28.4764  -17.8221   19.8824 H   0  0  0  0  0  0
  -32.2714  -16.9190   21.8378 H   0  0  0  0  0  0
  -28.1666  -19.7878   22.2051 H   0  0  0  0  0  0
  -26.8769  -20.2593   21.1087 H   0  0  0  0  0  0
  -27.1991  -21.1616   22.5925 H   0  0  0  0  0  0
  -26.4561  -24.3596   21.0087 H   0  0  0  0  0  0
  -27.2275  -23.5161   22.3374 H   0  0  0  0  0  0
  -26.0044  -22.7141   21.3541 H   0  0  0  0  0  0
  -26.5979  -23.2941   18.6818 H   0  0  0  0  0  0
  -26.7288  -21.6056   19.0873 H   0  0  0  0  0  0
  -28.0384  -22.4029   18.2202 H   0  0  0  0  0  0
  -28.8157  -20.4196   19.0951 H   0  0  0  0  0  0
  -30.2777  -21.2221   19.5417 H   0  0  0  0  0  0
  -29.2784  -25.5180   18.6208 H   0  0  0  0  0  0
  -27.6284  -25.1218   18.7541 H   0  0  0  0  0  0
  -29.3850  -21.8644   21.7123 H   0  0  0  0  0  0
  -28.9339  -15.3935   20.9865 H   0  0  0  0  0  0
  1 25  1  0  0  0
  1 30  2  0  0  0
  1 83  1  0  0  0
  2  3  1  0  0  0
  2 25  1  0  0  0
  2 86  1  0  0  0
  2 87  1  0  0  0
  3  4  1  0  0  0
  3 88  1  0  0  0
  3 89  1  0  0  0
  4  5  1  0  0  0
  4 90  1  0  0  0
  4 91  1  0  0  0
  5  6  1  0  0  0
  5 26  1  0  0  0
  5 92  1  0  0  0
  6 25  1  0  0  0
  6 93  1  0  0  0
  6 94  1  0  0  0
  7  8  2  0  0  0
  7 26  1  0  0  0
  7 29  1  0  0  0
  8  9  1  0  0  0
  8 22  1  0  0  0
  9 10  1  0  0  0
  9 27  2  0  0  0
 10 11  2  0  0  0
 10 15  1  0  0  0
 11 12  1  0  0  0
 11 95  1  0  0  0
 12 13  2  0  0  0
 12 96  1  0  0  0
 13 14  1  0  0  0
 13 31  1  0  0  0
 14 15  2  0  0  0
 14 97  1  0  0  0
 15 98  1  0  0  0
 16 17  2  0  0  0
 16 21  1  0  0  0
 16 31  1  0  0  0
 17 18  1  0  0  0
 17 99  1  0  0  0
 18 19  2  0  0  0
 18100  1  0  0  0
 19 20  1  0  0  0
 19 24  1  0  0  0
 20 21  2  0  0  0
 20101  1  0  0  0
 21 23  1  0  0  0
 22 28  1  0  0  0
 22 32  2  0  0  0
 26 27  1  0  0  0
 28102  1  0  0  0
 28103  1  0  0  0
 29104  1  0  0  0
 29105  1  0  0  0
 33 34  1  0  0  0
 33 66  1  0  0  0
 33 70  2  0  0  0
 34 36  1  0  0  0
 34 59  1  0  0  0
 34106  1  0  0  0
 35 44  2  0  0  0
 35 45  1  0  0  0
 35 68  1  0  0  0
 36 56  1  0  0  0
 36107  1  0  0  0
 37 39  1  0  0  0
 37 47  1  0  0  0
 37 66  1  0  0  0
 37108  1  0  0  0
 38 43  2  0  0  0
 38 46  1  0  0  0
 38 47  1  0  0  0
 39 64  1  0  0  0
 39 67  2  0  0  0
 40 52  1  0  0  0
 40 53  2  0  0  0
 40 58  1  0  0  0
 41109  1  0  0  0
 41110  1  0  0  0
 41111  1  0  0  0
 41 48  1  0  0  0
 42 43  1  0  0  0
 42 66  1  0  0  0
 42112  1  0  0  0
 42113  1  0  0  0
 43 44  1  0  0  0
 44114  1  0  0  0
 45 46  2  0  0  0
 45115  1  0  0  0
 46116  1  0  0  0
 47117  1  0  0  0
 47118  1  0  0  0
 48 56  1  0  0  0
 48 65  1  0  0  0
 48119  1  0  0  0
 49 50  1  0  0  0
 49 53  1  0  0  0
 49 64  1  0  0  0
 49120  1  0  0  0
 50 51  1  0  0  0
 50121  1  0  0  0
 50122  1  0  0  0
 51 52  1  0  0  0
 51123  1  0  0  0
 51124  1  0  0  0
 52125  1  0  0  0
 52126  1  0  0  0
 53 54  1  0  0  0
 54 55  2  0  0  0
 54127  1  0  0  0
 55 57  1  0  0  0
 55128  1  0  0  0
 56 69  2  0  0  0
 57 58  2  0  0  0
 57129  1  0  0  0
 58130  1  0  0  0
 59 60  1  0  0  0
 59 61  1  0  0  0
 59 62  1  0  0  0
 60131  1  0  0  0
 60132  1  0  0  0
 60133  1  0  0  0
 61134  1  0  0  0
 61135  1  0  0  0
 61136  1  0  0  0
 62137  1  0  0  0
 62138  1  0  0  0
 62139  1  0  0  0
 63 65  1  0  0  0
 63140  1  0  0  0
 63141  1  0  0  0
 63142  1  0  0  0
 64143  1  0  0  0
 65144  1  0  0  0
 68 80  1  0  0  0
 71 73  1  0  0  0
 71 74  2  0  0  0
 71145  1  0  0  0
 72 73  2  0  0  0
 72 85  1  0  0  0
 72146  1  0  0  0
 73 83  1  0  0  0
 74 79  1  0  0  0
 74 85  1  0  0  0
 75 80  1  0  0  0
 75 82  1  0  0  0
 75 84  2  0  0  0
 76147  1  0  0  0
 76148  1  0  0  0
 76149  1  0  0  0
 76 81  1  0  0  0
 77150  1  0  0  0
 77151  1  0  0  0
 77152  1  0  0  0
 77 82  1  0  0  0
 78 82  1  0  0  0
 78153  1  0  0  0
 78154  1  0  0  0
 78155  1  0  0  0
 79 81  1  0  0  0
 79156  1  0  0  0
 79157  1  0  0  0
 80158  1  0  0  0
 80159  1  0  0  0
 81 82  1  0  0  0
 81160  1  0  0  0
 83161  1  0  0  0
M  ISO  4   1 100  68 101  80 101  83 100
M  END
> <chiral flag>
0

> <version>
0

> <s_m_source_file>
/data/baiqing/PycharmProjects/Reinvent-master-3.2/result/LINK_invent/BTK/process_docking_weight1_custom_product_contain_oxygen_bond_distance_aromatic_linkinvent_7_9_3/rearranged_h_0139.sdf

> <i_m_source_file_index>
43

> <r_mmod_Potential_Energy-OPLS-2005>
66.9839324951172

> <r_mmod_Stretch_Energy-OPLS-2005>
60.8803596496582

> <r_mmod_Bend_Energy-OPLS-2005>
130.653121948242

> <r_mmod_Torsional_Energy-OPLS-2005>
232.729934692383

> <r_mmod_Improper_Torsional_Energy-OPLS-2005>
5.03115653991699

> <r_mmod_Van_der_Waal_Energy-OPLS-2005>
140.320526123047

> <r_mmod_Electrostatic_Energy-OPLS-2005>
-305.623779296875

> <r_mmod_Solvation_Energy-OPLS-2005>
-221.701812744141

> <b_mmod_Minimization_Converged-OPLS-2005>
0

> <r_mmod_RMS_Derivative-OPLS-2005>
2.98467493057251

$$$$
43
                    3D
 Structure written by MMmdl.
164173  0  0  1  0            999 V2000
  -30.6073  -14.7488   20.4238 C   0  0  0  0  0  0
  -30.4383  -12.4581   19.4481 C   0  0  0  0  0  0
  -29.5041  -12.4932   18.2201 C   0  0  0  0  0  0
  -28.0316  -12.3201   18.6445 C   0  0  0  0  0  0
  -27.6391  -13.2265   19.8426 C   0  0  2  0  0  0
  -28.6946  -13.1717   20.9675 C   0  0  0  0  0  0
  -25.2519  -13.8166   20.5726 C   0  0  0  0  0  0
  -24.1803  -13.0431   20.9220 C   0  0  0  0  0  0
  -24.6382  -11.6904   20.8747 C   0  0  0  0  0  0
  -23.9051  -10.4294   21.0406 C   0  0  0  0  0  0
  -24.3606   -9.4213   21.9182 C   0  0  0  0  0  0
  -23.6290   -8.2244   22.0748 C   0  0  0  0  0  0
  -22.4271   -8.0271   21.3534 C   0  0  0  0  0  0
  -21.9906   -9.0247   20.4636 C   0  0  0  0  0  0
  -22.7225  -10.2136   20.3056 C   0  0  0  0  0  0
  -21.6851   -6.0734   22.5269 C   0  0  0  0  0  0
  -21.4013   -6.5639   23.8202 C   0  0  0  0  0  0
  -21.3667   -5.6787   24.9165 C   0  0  0  0  0  0
  -21.6046   -4.3048   24.7213 C   0  0  0  0  0  0
  -21.8817   -3.8145   23.4333 C   0  0  0  0  0  0
  -21.9200   -4.6965   22.3395 C   0  0  0  0  0  0
  -22.7828  -13.5222   21.1876 C   0  0  0  0  0  0
  -22.1664   -4.2157   21.0971 F   0  0  0  0  0  0
  -21.5645   -3.4532   25.7729 F   0  0  0  0  0  0
  -29.9844  -13.5245   20.3613 N   0  0  0  0  0  0
  -26.2938  -12.9372   20.3297 N   0  0  0  0  0  0
  -25.9312  -11.6517   20.5753 N   0  0  0  0  0  0
  -22.0468  -12.8222   22.0419 N   0  0  0  0  0  0
  -25.4185  -15.1909   20.4182 N   0  0  0  0  0  0
  -31.8149  -14.8436   20.1905 O   0  0  0  0  0  0
  -21.6640   -6.8873   21.4226 O   0  0  0  0  0  0
  -22.3539  -14.5538   20.6720 O   0  0  0  0  0  0
  -24.6324  -31.8533   23.1959 C   0  0  0  0  0  0
  -25.9126  -32.4745   23.8333 C   0  0  1  0  0  0
  -27.2495  -27.2591   20.1376 C   0  0  0  0  0  0
  -25.5909  -33.8550   24.2241 N   0  0  0  0  0  0
  -23.4319  -30.4712   21.5397 C   0  0  2  0  0  0
  -24.8876  -28.9098   20.1216 C   0  0  0  0  0  0
  -22.7508  -29.4574   22.4919 C   0  0  0  0  0  0
  -18.0292  -28.1370   22.8483 C   0  0  0  0  0  0
  -24.1488  -36.7269   23.2647 C   0  0  0  0  0  0
  -25.9786  -30.7645   21.3780 C   0  0  0  0  0  0
  -26.0588  -29.3837   20.7283 C   0  0  0  0  0  0
  -27.2411  -28.5739   20.7230 C   0  0  0  0  0  0
  -26.0559  -26.8556   19.4986 C   0  0  0  0  0  0
  -24.8912  -27.6534   19.4977 C   0  0  0  0  0  0
  -23.6562  -29.7974   20.1601 C   0  0  0  0  0  0
  -25.4116  -36.3058   24.0334 C   0  0  1  0  0  0
  -20.5899  -28.3692   23.1256 C   0  0  2  0  0  0
  -20.6771  -26.9402   22.5405 C   0  0  0  0  0  0
  -19.5740  -26.6377   21.5208 C   0  0  0  0  0  0
  -18.1923  -26.7899   22.1629 C   0  0  0  0  0  0
  -19.1548  -28.8843   23.2859 C   0  0  0  0  0  0
  -18.9489  -30.1444   23.8884 C   0  0  0  0  0  0
  -17.6484  -30.6577   24.0575 C   0  0  0  0  0  0
  -25.9059  -34.9432   23.5096 C   0  0  0  0  0  0
  -16.5371  -29.9084   23.6338 C   0  0  0  0  0  0
  -16.7272  -28.6502   23.0351 C   0  0  0  0  0  0
  -26.4505  -31.6549   25.0713 C   0  0  0  0  0  0
  -25.3712  -31.3745   26.1414 C   0  0  0  0  0  0
  -27.0339  -30.2955   24.6204 C   0  0  0  0  0  0
  -27.6037  -32.4317   25.7484 C   0  0  0  0  0  0
  -27.5573  -37.1777   24.8480 C   0  0  0  0  0  0
  -21.4215  -29.3038   22.3651 N   0  0  0  0  0  0
  -26.4274  -37.3761   23.9432 N   0  0  0  0  0  0
  -24.6994  -31.0476   22.0946 N   0  0  0  0  0  0
  -23.4175  -28.8097   23.3039 O   0  0  0  0  0  0
  -28.3683  -26.3861   20.1462 O   0  0  0  0  0  0
  -26.5645  -34.8900   22.4677 O   0  0  0  0  0  0
  -23.5464  -32.1377   23.7225 O   0  0  0  0  0  0
  -30.7345  -18.6627   22.8076 C   0  0  0  0  0  0
  -29.7857  -18.5014   20.2202 C   0  0  0  0  0  0
  -30.5502  -19.8720   22.0957 C   0  0  0  0  0  0
  -30.0672  -17.2523   20.9243 C   0  0  0  0  0  0
  -29.9777  -19.8377   20.7886 C   0  0  0  0  0  0
  -30.4841  -17.3942   22.2663 C   0  0  0  0  0  0
  -31.7179  -21.2441   24.0976 C   0  0  0  0  0  0
  -30.2809  -21.6800   23.9634 C   0  0  0  0  0  0
  -31.0116  -21.1519   22.7509 C   0  0  0  0  0  0
  -29.3015  -23.7046   18.5022 C   0  0  0  0  0  0
  -30.6489  -24.2086   20.5579 C   0  0  0  0  0  0
  -28.1895  -24.9181   20.4655 C   0  0  0  0  0  0
  -28.9812  -22.2404   20.5840 C   0  0  0  0  0  0
  -29.2645  -23.7637   20.0401 C   0  0  0  0  0  0
  -29.8011  -15.8801   20.4275 N   0  0  0  0  0  0
  -29.7285  -21.0454   20.0534 O   0  0  0  0  0  0
  -30.6482  -16.0379   23.3298 Cl  0  0  0  0  0  0
  -31.4746  -12.5957   19.1374 H   0  0  0  0  0  0
  -30.3985  -11.4887   19.9456 H   0  0  0  0  0  0
  -29.7827  -11.7127   17.5115 H   0  0  0  0  0  0
  -29.6239  -13.4418   17.6935 H   0  0  0  0  0  0
  -27.8891  -11.2731   18.9130 H   0  0  0  0  0  0
  -27.3701  -12.5069   17.7974 H   0  0  0  0  0  0
  -27.6246  -14.2447   19.4535 H   0  0  0  0  0  0
  -28.7428  -12.1765   21.4121 H   0  0  0  0  0  0
  -28.4425  -13.8607   21.7755 H   0  0  0  0  0  0
  -25.2746   -9.5717   22.4755 H   0  0  0  0  0  0
  -24.0012   -7.4647   22.7467 H   0  0  0  0  0  0
  -21.0841   -8.8743   19.8943 H   0  0  0  0  0  0
  -22.3651  -10.9673   19.6173 H   0  0  0  0  0  0
  -21.1979   -7.6143   23.9703 H   0  0  0  0  0  0
  -21.1502   -6.0521   25.9071 H   0  0  0  0  0  0
  -22.0593   -2.7608   23.2821 H   0  0  0  0  0  0
  -22.4089  -11.9898   22.4825 H   0  0  0  0  0  0
  -21.1075  -13.1239   22.2596 H   0  0  0  0  0  0
  -24.6441  -15.8346   20.5368 H   0  0  0  0  0  0
  -26.2610  -15.6438   20.0911 H   0  0  0  0  0  0
  -26.7180  -32.5405   23.1071 H   0  0  0  0  0  0
  -25.0026  -33.9703   25.0363 H   0  0  0  0  0  0
  -22.7316  -31.2956   21.3868 H   0  0  0  0  0  0
  -23.3737  -35.9610   23.3335 H   0  0  0  0  0  0
  -24.3599  -36.8890   22.2062 H   0  0  0  0  0  0
  -23.7241  -37.6481   23.6658 H   0  0  0  0  0  0
  -26.1131  -31.5219   20.6040 H   0  0  0  0  0  0
  -26.8566  -30.8255   22.0088 H   0  0  0  0  0  0
  -28.1388  -28.9384   21.2027 H   0  0  0  0  0  0
  -26.0092  -25.9070   18.9846 H   0  0  0  0  0  0
  -24.0011  -27.2833   19.0073 H   0  0  0  0  0  0
  -23.7902  -30.5746   19.4062 H   0  0  0  0  0  0
  -22.7768  -29.2327   19.8482 H   0  0  0  0  0  0
  -25.1289  -36.1919   25.0824 H   0  0  0  0  0  0
  -21.0013  -28.3288   24.1374 H   0  0  0  0  0  0
  -20.5698  -26.2318   23.3633 H   0  0  0  0  0  0
  -21.6633  -26.7417   22.1197 H   0  0  0  0  0  0
  -19.6924  -25.6300   21.1227 H   0  0  0  0  0  0
  -19.6659  -27.3208   20.6749 H   0  0  0  0  0  0
  -17.4196  -26.6670   21.4027 H   0  0  0  0  0  0
  -18.0309  -26.0025   22.9014 H   0  0  0  0  0  0
  -19.7981  -30.7249   24.2254 H   0  0  0  0  0  0
  -17.5056  -31.6268   24.5164 H   0  0  0  0  0  0
  -15.5374  -30.2996   23.7654 H   0  0  0  0  0  0
  -15.8671  -28.0831   22.7047 H   0  0  0  0  0  0
  -24.5887  -30.7094   25.7762 H   0  0  0  0  0  0
  -24.8887  -32.2933   26.4743 H   0  0  0  0  0  0
  -25.7987  -30.8991   27.0243 H   0  0  0  0  0  0
  -26.2922  -29.6708   24.1216 H   0  0  0  0  0  0
  -27.4012  -29.7221   25.4725 H   0  0  0  0  0  0
  -27.8804  -30.4239   23.9459 H   0  0  0  0  0  0
  -27.2616  -33.3639   26.1999 H   0  0  0  0  0  0
  -28.3846  -32.6855   25.0300 H   0  0  0  0  0  0
  -28.0682  -31.8486   26.5451 H   0  0  0  0  0  0
  -28.2570  -38.0087   24.7508 H   0  0  0  0  0  0
  -28.1070  -36.2603   24.6301 H   0  0  0  0  0  0
  -27.2304  -37.1455   25.8889 H   0  0  0  0  0  0
  -20.9396  -29.8798   21.6897 H   0  0  0  0  0  0
  -26.0156  -38.2837   24.1424 H   0  0  0  0  0  0
  -31.0861  -18.6750   23.8245 H   0  0  0  0  0  0
  -29.4076  -18.4379   19.2098 H   0  0  0  0  0  0
  -31.9089  -20.3565   24.6941 H   0  0  0  0  0  0
  -32.4425  -22.0437   24.2414 H   0  0  0  0  0  0
  -30.0706  -22.7464   23.9999 H   0  0  0  0  0  0
  -29.5294  -21.0366   24.4189 H   0  0  0  0  0  0
  -31.3835  -21.8505   22.0044 H   0  0  0  0  0  0
  -29.4918  -24.6884   18.0696 H   0  0  0  0  0  0
  -28.3592  -23.3429   18.0875 H   0  0  0  0  0  0
  -30.0929  -23.0374   18.1564 H   0  0  0  0  0  0
  -30.9109  -25.2110   20.2151 H   0  0  0  0  0  0
  -31.4384  -23.5363   20.2207 H   0  0  0  0  0  0
  -30.6776  -24.2298   21.6477 H   0  0  0  0  0  0
  -28.1016  -24.8759   21.5525 H   0  0  0  0  0  0
  -27.2211  -24.5753   20.1117 H   0  0  0  0  0  0
  -27.9339  -22.0173   20.3840 H   0  0  0  0  0  0
  -29.0242  -22.2575   21.6667 H   0  0  0  0  0  0
  -28.8251  -15.6865   20.2644 H   0  0  0  0  0  0
  1 25  1  0  0  0
  1 30  2  0  0  0
  1 85  1  0  0  0
  2  3  1  0  0  0
  2 25  1  0  0  0
  2 88  1  0  0  0
  2 89  1  0  0  0
  3  4  1  0  0  0
  3 90  1  0  0  0
  3 91  1  0  0  0
  4  5  1  0  0  0
  4 92  1  0  0  0
  4 93  1  0  0  0
  5  6  1  0  0  0
  5 26  1  0  0  0
  5 94  1  0  0  0
  6 25  1  0  0  0
  6 95  1  0  0  0
  6 96  1  0  0  0
  7  8  2  0  0  0
  7 26  1  0  0  0
  7 29  1  0  0  0
  8  9  1  0  0  0
  8 22  1  0  0  0
  9 10  1  0  0  0
  9 27  2  0  0  0
 10 11  2  0  0  0
 10 15  1  0  0  0
 11 12  1  0  0  0
 11 97  1  0  0  0
 12 13  2  0  0  0
 12 98  1  0  0  0
 13 14  1  0  0  0
 13 31  1  0  0  0
 14 15  2  0  0  0
 14 99  1  0  0  0
 15100  1  0  0  0
 16 17  2  0  0  0
 16 21  1  0  0  0
 16 31  1  0  0  0
 17 18  1  0  0  0
 17101  1  0  0  0
 18 19  2  0  0  0
 18102  1  0  0  0
 19 20  1  0  0  0
 19 24  1  0  0  0
 20 21  2  0  0  0
 20103  1  0  0  0
 21 23  1  0  0  0
 22 28  1  0  0  0
 22 32  2  0  0  0
 26 27  1  0  0  0
 28104  1  0  0  0
 28105  1  0  0  0
 29106  1  0  0  0
 29107  1  0  0  0
 33 34  1  0  0  0
 33 66  1  0  0  0
 33 70  2  0  0  0
 34 36  1  0  0  0
 34 59  1  0  0  0
 34108  1  0  0  0
 35 44  2  0  0  0
 35 45  1  0  0  0
 35 68  1  0  0  0
 36 56  1  0  0  0
 36109  1  0  0  0
 37 39  1  0  0  0
 37 47  1  0  0  0
 37 66  1  0  0  0
 37110  1  0  0  0
 38 43  2  0  0  0
 38 46  1  0  0  0
 38 47  1  0  0  0
 39 64  1  0  0  0
 39 67  2  0  0  0
 40 52  1  0  0  0
 40 53  2  0  0  0
 40 58  1  0  0  0
 41111  1  0  0  0
 41112  1  0  0  0
 41113  1  0  0  0
 41 48  1  0  0  0
 42 43  1  0  0  0
 42 66  1  0  0  0
 42114  1  0  0  0
 42115  1  0  0  0
 43 44  1  0  0  0
 44116  1  0  0  0
 45 46  2  0  0  0
 45117  1  0  0  0
 46118  1  0  0  0
 47119  1  0  0  0
 47120  1  0  0  0
 48 56  1  0  0  0
 48 65  1  0  0  0
 48121  1  0  0  0
 49 50  1  0  0  0
 49 53  1  0  0  0
 49 64  1  0  0  0
 49122  1  0  0  0
 50 51  1  0  0  0
 50123  1  0  0  0
 50124  1  0  0  0
 51 52  1  0  0  0
 51125  1  0  0  0
 51126  1  0  0  0
 52127  1  0  0  0
 52128  1  0  0  0
 53 54  1  0  0  0
 54 55  2  0  0  0
 54129  1  0  0  0
 55 57  1  0  0  0
 55130  1  0  0  0
 56 69  2  0  0  0
 57 58  2  0  0  0
 57131  1  0  0  0
 58132  1  0  0  0
 59 60  1  0  0  0
 59 61  1  0  0  0
 59 62  1  0  0  0
 60133  1  0  0  0
 60134  1  0  0  0
 60135  1  0  0  0
 61136  1  0  0  0
 61137  1  0  0  0
 61138  1  0  0  0
 62139  1  0  0  0
 62140  1  0  0  0
 62141  1  0  0  0
 63 65  1  0  0  0
 63142  1  0  0  0
 63143  1  0  0  0
 63144  1  0  0  0
 64145  1  0  0  0
 65146  1  0  0  0
 68 82  1  0  0  0
 71 73  2  0  0  0
 71 76  1  0  0  0
 71147  1  0  0  0
 72 74  1  0  0  0
 72 75  2  0  0  0
 72148  1  0  0  0
 73 75  1  0  0  0
 73 79  1  0  0  0
 74 76  2  0  0  0
 74 85  1  0  0  0
 75 86  1  0  0  0
 76 87  1  0  0  0
 77 78  1  0  0  0
 77 79  1  0  0  0
 77149  1  0  0  0
 77150  1  0  0  0
 78 79  1  0  0  0
 78151  1  0  0  0
 78152  1  0  0  0
 79153  1  0  0  0
 80154  1  0  0  0
 80155  1  0  0  0
 80156  1  0  0  0
 80 84  1  0  0  0
 81 84  1  0  0  0
 81157  1  0  0  0
 81158  1  0  0  0
 81159  1  0  0  0
 82 84  1  0  0  0
 82160  1  0  0  0
 82161  1  0  0  0
 83 84  1  0  0  0
 83 86  1  0  0  0
 83162  1  0  0  0
 83163  1  0  0  0
 85164  1  0  0  0
M  ISO  4   1 100  68 101  82 101  85 100
M  END
> <chiral flag>
0

> <version>
0

> <s_m_source_file>
/data/baiqing/PycharmProjects/Reinvent-master-3.2/result/LINK_invent/BTK/process_docking_weight1_custom_product_contain_oxygen_bond_distance_aromatic_linkinvent_7_9_3/rearranged_h_0139.sdf

> <i_m_source_file_index>
44

> <r_mmod_Potential_Energy-OPLS-2005>
265.722991943359

> <r_mmod_Stretch_Energy-OPLS-2005>
141.099395751953

> <r_mmod_Bend_Energy-OPLS-2005>
181.294570922852

> <r_mmod_Torsional_Energy-OPLS-2005>
312.017913818359

> <r_mmod_Improper_Torsional_Energy-OPLS-2005>
9.52755355834961

> <r_mmod_Van_der_Waal_Energy-OPLS-2005>
139.412612915039

> <r_mmod_Electrostatic_Energy-OPLS-2005>
-401.775787353516

> <r_mmod_Solvation_Energy-OPLS-2005>
-203.436187744141

> <b_mmod_Minimization_Converged-OPLS-2005>
0

> <r_mmod_RMS_Derivative-OPLS-2005>
3.48900198936462

$$$$
44
                    3D
 Structure written by MMmdl.
166175  0  0  1  0            999 V2000
  -30.6438  -14.5277   20.6399 C   0  0  0  0  0  0
  -30.4529  -12.3650   19.4182 C   0  0  0  0  0  0
  -29.5064  -12.5390   18.2096 C   0  0  0  0  0  0
  -28.0306  -12.3636   18.6244 C   0  0  0  0  0  0
  -27.6683  -13.1977   19.8796 C   0  0  2  0  0  0
  -28.7081  -12.9443   20.9928 C   0  0  0  0  0  0
  -25.2633  -13.8149   20.5741 C   0  0  0  0  0  0
  -24.1845  -13.0440   20.9159 C   0  0  0  0  0  0
  -24.6376  -11.6903   20.8710 C   0  0  0  0  0  0
  -23.9038  -10.4295   21.0397 C   0  0  0  0  0  0
  -24.3594   -9.4213   21.9177 C   0  0  0  0  0  0
  -23.6288   -8.2242   22.0747 C   0  0  0  0  0  0
  -22.4260   -8.0275   21.3548 C   0  0  0  0  0  0
  -21.9892   -9.0242   20.4656 C   0  0  0  0  0  0
  -22.7205  -10.2129   20.3055 C   0  0  0  0  0  0
  -21.6846   -6.0727   22.5281 C   0  0  0  0  0  0
  -21.4011   -6.5630   23.8211 C   0  0  0  0  0  0
  -21.3659   -5.6787   24.9177 C   0  0  0  0  0  0
  -21.6042   -4.3050   24.7225 C   0  0  0  0  0  0
  -21.8816   -3.8142   23.4348 C   0  0  0  0  0  0
  -21.9191   -4.6964   22.3403 C   0  0  0  0  0  0
  -22.7874  -13.5254   21.1835 C   0  0  0  0  0  0
  -22.1659   -4.2156   21.0981 F   0  0  0  0  0  0
  -21.5636   -3.4530   25.7736 F   0  0  0  0  0  0
  -30.0424  -13.3110   20.4709 N   0  0  0  0  0  0
  -26.3048  -12.9293   20.3376 N   0  0  0  0  0  0
  -25.9300  -11.6461   20.5726 N   0  0  0  0  0  0
  -22.0508  -12.8253   22.0393 N   0  0  0  0  0  0
  -25.4430  -15.1876   20.4327 N   0  0  0  0  0  0
  -31.6859  -14.8481   20.0582 O   0  0  0  0  0  0
  -21.6629   -6.8873   21.4242 O   0  0  0  0  0  0
  -22.3553  -14.5570   20.6708 O   0  0  0  0  0  0
  -24.6188  -31.8650   23.2077 C   0  0  0  0  0  0
  -25.9055  -32.4813   23.8391 C   0  0  1  0  0  0
  -27.2345  -27.3788   20.0962 C   0  0  0  0  0  0
  -25.5885  -33.8612   24.2308 N   0  0  0  0  0  0
  -23.4107  -30.4889   21.5488 C   0  0  2  0  0  0
  -24.8584  -28.9531   20.1117 C   0  0  0  0  0  0
  -22.7437  -29.4648   22.4965 C   0  0  0  0  0  0
  -18.0274  -28.1374   22.8486 C   0  0  0  0  0  0
  -24.1482  -36.7311   23.2641 C   0  0  0  0  0  0
  -25.9474  -30.8103   21.3743 C   0  0  0  0  0  0
  -26.0229  -29.4430   20.7153 C   0  0  0  0  0  0
  -27.2109  -28.6637   20.7050 C   0  0  0  0  0  0
  -26.0470  -26.9319   19.4668 C   0  0  0  0  0  0
  -24.8685  -27.6984   19.4851 C   0  0  0  0  0  0
  -23.6227  -29.8238   20.1637 C   0  0  0  0  0  0
  -25.4103  -36.3106   24.0336 C   0  0  1  0  0  0
  -20.5869  -28.3670   23.1292 C   0  0  2  0  0  0
  -20.6758  -26.9398   22.5411 C   0  0  0  0  0  0
  -19.5747  -26.6384   21.5195 C   0  0  0  0  0  0
  -18.1926  -26.7925   22.1608 C   0  0  0  0  0  0
  -19.1530  -28.8834   23.2889 C   0  0  0  0  0  0
  -18.9458  -30.1438   23.8911 C   0  0  0  0  0  0
  -17.6466  -30.6583   24.0561 C   0  0  0  0  0  0
  -25.9030  -34.9472   23.5124 C   0  0  0  0  0  0
  -16.5352  -29.9085   23.6331 C   0  0  0  0  0  0
  -16.7268  -28.6495   23.0358 C   0  0  0  0  0  0
  -26.4467  -31.6620   25.0747 C   0  0  0  0  0  0
  -25.3721  -31.3785   26.1502 C   0  0  0  0  0  0
  -27.0284  -30.3038   24.6188 C   0  0  0  0  0  0
  -27.6063  -32.4344   25.7470 C   0  0  0  0  0  0
  -27.5588  -37.1791   24.8456 C   0  0  0  0  0  0
  -21.4155  -29.3037   22.3692 N   0  0  0  0  0  0
  -26.4287  -37.3793   23.9414 N   0  0  0  0  0  0
  -24.6772  -31.0701   22.1009 N   0  0  0  0  0  0
  -23.4187  -28.8184   23.3016 O   0  0  0  0  0  0
  -28.3821  -26.5851   20.1429 O   0  0  0  0  0  0
  -26.5611  -34.8922   22.4695 O   0  0  0  0  0  0
  -23.5362  -32.1431   23.7428 O   0  0  0  0  0  0
  -28.1363  -18.2178   22.8649 C   0  0  0  0  0  0
  -28.5605  -19.2902   22.0715 C   0  0  0  0  0  0
  -30.0647  -17.7953   20.8635 C   0  0  0  0  0  0
  -28.6666  -16.9306   22.6792 C   0  0  0  0  0  0
  -29.5393  -19.1247   21.0676 C   0  0  0  0  0  0
  -29.6301  -16.6855   21.6647 C   0  0  0  0  0  0
  -30.1770  -24.6537   21.3604 C   0  0  0  0  0  0
  -29.3101  -24.2139   20.4296 C   0  0  0  0  0  0
  -29.9223  -21.1660   18.0160 C   0  0  0  0  0  0
  -29.9713  -22.6144   18.5474 C   0  0  0  0  0  0
  -30.5333  -20.1490   18.9993 C   0  0  0  0  0  0
  -29.9275  -21.6577   20.8829 C   0  0  0  0  0  0
  -29.2947  -22.7374   19.9296 C   0  0  1  0  0  0
  -28.1501  -15.8238   23.5901 C   0  0  0  0  0  0
  -28.2498  -25.1653   19.8232 C   0  0  0  0  0  0
  -29.9059  -20.2823   20.3106 N   0  0  0  0  0  0
  -30.0373  -15.3003   21.5699 N   0  0  0  0  0  0
  -31.4899  -12.5190   19.1138 H   0  0  0  0  0  0
  -30.4056  -11.3430   19.7971 H   0  0  0  0  0  0
  -29.7639  -11.8294   17.4225 H   0  0  0  0  0  0
  -29.6434  -13.5332   17.7822 H   0  0  0  0  0  0
  -27.8670  -11.3049   18.8295 H   0  0  0  0  0  0
  -27.3709  -12.6189   17.7950 H   0  0  0  0  0  0
  -27.7207  -14.2493   19.5956 H   0  0  0  0  0  0
  -28.7041  -11.8895   21.2730 H   0  0  0  0  0  0
  -28.4269  -13.4657   21.9048 H   0  0  0  0  0  0
  -25.2740   -9.5691   22.4747 H   0  0  0  0  0  0
  -24.0015   -7.4625   22.7450 H   0  0  0  0  0  0
  -21.0819   -8.8738   19.8973 H   0  0  0  0  0  0
  -22.3649  -10.9656   19.6161 H   0  0  0  0  0  0
  -21.1999   -7.6132   23.9715 H   0  0  0  0  0  0
  -21.1485   -6.0519   25.9078 H   0  0  0  0  0  0
  -22.0600   -2.7608   23.2845 H   0  0  0  0  0  0
  -22.4118  -11.9918   22.4798 H   0  0  0  0  0  0
  -21.1147  -13.1321   22.2614 H   0  0  0  0  0  0
  -24.6963  -15.8541   20.5943 H   0  0  0  0  0  0
  -26.3231  -15.6318   20.2027 H   0  0  0  0  0  0
  -26.7125  -32.5502   23.1147 H   0  0  0  0  0  0
  -24.9997  -33.9773   25.0429 H   0  0  0  0  0  0
  -22.7017  -31.3074   21.4071 H   0  0  0  0  0  0
  -23.3749  -35.9640   23.3305 H   0  0  0  0  0  0
  -24.3581  -36.8931   22.2056 H   0  0  0  0  0  0
  -23.7224  -37.6507   23.6665 H   0  0  0  0  0  0
  -26.0737  -31.5781   20.6098 H   0  0  0  0  0  0
  -26.8289  -30.8582   22.0022 H   0  0  0  0  0  0
  -28.1040  -29.0356   21.1878 H   0  0  0  0  0  0
  -25.9995  -25.9838   18.9528 H   0  0  0  0  0  0
  -23.9751  -27.3178   19.0092 H   0  0  0  0  0  0
  -23.7327  -30.5984   19.4038 H   0  0  0  0  0  0
  -22.7464  -29.2442   19.8681 H   0  0  0  0  0  0
  -25.1277  -36.1972   25.0829 H   0  0  0  0  0  0
  -20.9966  -28.3234   24.1411 H   0  0  0  0  0  0
  -20.5624  -26.2279   23.3601 H   0  0  0  0  0  0
  -21.6633  -26.7417   22.1229 H   0  0  0  0  0  0
  -19.6909  -25.6295   21.1222 H   0  0  0  0  0  0
  -19.6690  -27.3189   20.6719 H   0  0  0  0  0  0
  -17.4192  -26.6673   21.4013 H   0  0  0  0  0  0
  -18.0338  -26.0059   22.8999 H   0  0  0  0  0  0
  -19.7936  -30.7239   24.2299 H   0  0  0  0  0  0
  -17.5025  -31.6267   24.5156 H   0  0  0  0  0  0
  -15.5357  -30.2995   23.7643 H   0  0  0  0  0  0
  -15.8665  -28.0810   22.7092 H   0  0  0  0  0  0
  -24.5850  -30.7176   25.7856 H   0  0  0  0  0  0
  -24.8960  -32.2969   26.4950 H   0  0  0  0  0  0
  -25.8046  -30.8947   27.0270 H   0  0  0  0  0  0
  -26.2842  -29.6805   24.1217 H   0  0  0  0  0  0
  -27.3980  -29.7284   25.4688 H   0  0  0  0  0  0
  -27.8724  -30.4317   23.9406 H   0  0  0  0  0  0
  -27.2698  -33.3618   26.2119 H   0  0  0  0  0  0
  -28.3806  -32.6955   25.0245 H   0  0  0  0  0  0
  -28.0823  -31.8443   26.5313 H   0  0  0  0  0  0
  -28.2607  -38.0087   24.7513 H   0  0  0  0  0  0
  -28.1079  -36.2621   24.6254 H   0  0  0  0  0  0
  -27.2324  -37.1423   25.8864 H   0  0  0  0  0  0
  -20.9317  -29.8764   21.6917 H   0  0  0  0  0  0
  -26.0185  -38.2871   24.1431 H   0  0  0  0  0  0
  -27.3826  -18.3942   23.6196 H   0  0  0  0  0  0
  -28.0856  -20.2437   22.2464 H   0  0  0  0  0  0
  -30.8095  -17.6177   20.1016 H   0  0  0  0  0  0
  -30.9213  -24.0124   21.8081 H   0  0  0  0  0  0
  -30.1582  -25.6802   21.6977 H   0  0  0  0  0  0
  -30.4484  -21.1089   17.0624 H   0  0  0  0  0  0
  -28.8876  -20.8894   17.8072 H   0  0  0  0  0  0
  -29.4975  -23.2812   17.8271 H   0  0  0  0  0  0
  -31.0113  -22.9343   18.6248 H   0  0  0  0  0  0
  -31.6070  -20.3184   19.0992 H   0  0  0  0  0  0
  -30.4071  -19.1461   18.5908 H   0  0  0  0  0  0
  -29.4601  -21.7173   21.8638 H   0  0  0  0  0  0
  -30.9757  -21.9061   21.0553 H   0  0  0  0  0  0
  -28.2409  -22.4757   19.8191 H   0  0  0  0  0  0
  -28.9578  -15.1893   23.9558 H   0  0  0  0  0  0
  -27.4184  -15.2078   23.0667 H   0  0  0  0  0  0
  -27.6567  -16.2390   24.4692 H   0  0  0  0  0  0
  -27.2987  -24.7786   20.1906 H   0  0  0  0  0  0
  -28.2503  -25.0564   18.7385 H   0  0  0  0  0  0
  -29.4566  -14.7147   22.1489 H   0  0  0  0  0  0
  1 25  1  0  0  0
  1 30  2  0  0  0
  1 87  1  0  0  0
  2  3  1  0  0  0
  2 25  1  0  0  0
  2 88  1  0  0  0
  2 89  1  0  0  0
  3  4  1  0  0  0
  3 90  1  0  0  0
  3 91  1  0  0  0
  4  5  1  0  0  0
  4 92  1  0  0  0
  4 93  1  0  0  0
  5  6  1  0  0  0
  5 26  1  0  0  0
  5 94  1  0  0  0
  6 25  1  0  0  0
  6 95  1  0  0  0
  6 96  1  0  0  0
  7  8  2  0  0  0
  7 26  1  0  0  0
  7 29  1  0  0  0
  8  9  1  0  0  0
  8 22  1  0  0  0
  9 10  1  0  0  0
  9 27  2  0  0  0
 10 11  2  0  0  0
 10 15  1  0  0  0
 11 12  1  0  0  0
 11 97  1  0  0  0
 12 13  2  0  0  0
 12 98  1  0  0  0
 13 14  1  0  0  0
 13 31  1  0  0  0
 14 15  2  0  0  0
 14 99  1  0  0  0
 15100  1  0  0  0
 16 17  2  0  0  0
 16 21  1  0  0  0
 16 31  1  0  0  0
 17 18  1  0  0  0
 17101  1  0  0  0
 18 19  2  0  0  0
 18102  1  0  0  0
 19 20  1  0  0  0
 19 24  1  0  0  0
 20 21  2  0  0  0
 20103  1  0  0  0
 21 23  1  0  0  0
 22 28  1  0  0  0
 22 32  2  0  0  0
 26 27  1  0  0  0
 28104  1  0  0  0
 28105  1  0  0  0
 29106  1  0  0  0
 29107  1  0  0  0
 33 34  1  0  0  0
 33 66  1  0  0  0
 33 70  2  0  0  0
 34 36  1  0  0  0
 34 59  1  0  0  0
 34108  1  0  0  0
 35 44  2  0  0  0
 35 45  1  0  0  0
 35 68  1  0  0  0
 36 56  1  0  0  0
 36109  1  0  0  0
 37 39  1  0  0  0
 37 47  1  0  0  0
 37 66  1  0  0  0
 37110  1  0  0  0
 38 43  2  0  0  0
 38 46  1  0  0  0
 38 47  1  0  0  0
 39 64  1  0  0  0
 39 67  2  0  0  0
 40 52  1  0  0  0
 40 53  2  0  0  0
 40 58  1  0  0  0
 41111  1  0  0  0
 41112  1  0  0  0
 41113  1  0  0  0
 41 48  1  0  0  0
 42 43  1  0  0  0
 42 66  1  0  0  0
 42114  1  0  0  0
 42115  1  0  0  0
 43 44  1  0  0  0
 44116  1  0  0  0
 45 46  2  0  0  0
 45117  1  0  0  0
 46118  1  0  0  0
 47119  1  0  0  0
 47120  1  0  0  0
 48 56  1  0  0  0
 48 65  1  0  0  0
 48121  1  0  0  0
 49 50  1  0  0  0
 49 53  1  0  0  0
 49 64  1  0  0  0
 49122  1  0  0  0
 50 51  1  0  0  0
 50123  1  0  0  0
 50124  1  0  0  0
 51 52  1  0  0  0
 51125  1  0  0  0
 51126  1  0  0  0
 52127  1  0  0  0
 52128  1  0  0  0
 53 54  1  0  0  0
 54 55  2  0  0  0
 54129  1  0  0  0
 55 57  1  0  0  0
 55130  1  0  0  0
 56 69  2  0  0  0
 57 58  2  0  0  0
 57131  1  0  0  0
 58132  1  0  0  0
 59 60  1  0  0  0
 59 61  1  0  0  0
 59 62  1  0  0  0
 60133  1  0  0  0
 60134  1  0  0  0
 60135  1  0  0  0
 61136  1  0  0  0
 61137  1  0  0  0
 61138  1  0  0  0
 62139  1  0  0  0
 62140  1  0  0  0
 62141  1  0  0  0
 63 65  1  0  0  0
 63142  1  0  0  0
 63143  1  0  0  0
 63144  1  0  0  0
 64145  1  0  0  0
 65146  1  0  0  0
 68 85  1  0  0  0
 71 72  2  0  0  0
 71 74  1  0  0  0
 71147  1  0  0  0
 72 75  1  0  0  0
 72148  1  0  0  0
 73 75  2  0  0  0
 73 76  1  0  0  0
 73149  1  0  0  0
 74 76  2  0  0  0
 74 84  1  0  0  0
 75 86  1  0  0  0
 76 87  1  0  0  0
 77 78  2  0  0  0
 77150  1  0  0  0
 77151  1  0  0  0
 78 85  1  0  0  0
 78 83  1  0  0  0
 79 80  1  0  0  0
 79 81  1  0  0  0
 79152  1  0  0  0
 79153  1  0  0  0
 80 83  1  0  0  0
 80154  1  0  0  0
 80155  1  0  0  0
 81 86  1  0  0  0
 81156  1  0  0  0
 81157  1  0  0  0
 82 83  1  0  0  0
 82 86  1  0  0  0
 82158  1  0  0  0
 82159  1  0  0  0
 83160  1  0  0  0
 84161  1  0  0  0
 84162  1  0  0  0
 84163  1  0  0  0
 85164  1  0  0  0
 85165  1  0  0  0
 87166  1  0  0  0
M  ISO  4   1 100  68 101  85 101  87 100
M  END
> <chiral flag>
0

> <version>
0

> <s_m_source_file>
/data/baiqing/PycharmProjects/Reinvent-master-3.2/result/LINK_invent/BTK/process_docking_weight1_custom_product_contain_oxygen_bond_distance_aromatic_linkinvent_7_9_3/rearranged_h_0139.sdf

> <i_m_source_file_index>
45

> <r_mmod_Potential_Energy-OPLS-2005>
56.4187889099121

> <r_mmod_Stretch_Energy-OPLS-2005>
62.9094429016113

> <r_mmod_Bend_Energy-OPLS-2005>
156.836364746094

> <r_mmod_Torsional_Energy-OPLS-2005>
235.197937011719

> <r_mmod_Improper_Torsional_Energy-OPLS-2005>
4.67200231552124

> <r_mmod_Van_der_Waal_Energy-OPLS-2005>
162.326950073242

> <r_mmod_Electrostatic_Energy-OPLS-2005>
-376.35693359375

> <r_mmod_Solvation_Energy-OPLS-2005>
-215.267105102539

> <b_mmod_Minimization_Converged-OPLS-2005>
0

> <r_mmod_RMS_Derivative-OPLS-2005>
1.60334503650665

$$$$
45
                    3D
 Structure written by MMmdl.
151159  0  0  1  0            999 V2000
  -30.4901  -15.0363   20.4225 C   0  0  0  0  0  0
  -30.4470  -12.6450   19.5159 C   0  0  0  0  0  0
  -29.5316  -12.5487   18.2709 C   0  0  0  0  0  0
  -28.0660  -12.3149   18.6849 C   0  0  0  0  0  0
  -27.6272  -13.2527   19.8396 C   0  0  2  0  0  0
  -28.6665  -13.3006   20.9801 C   0  0  0  0  0  0
  -25.2449  -13.8222   20.5724 C   0  0  0  0  0  0
  -24.1766  -13.0438   20.9224 C   0  0  0  0  0  0
  -24.6380  -11.6921   20.8745 C   0  0  0  0  0  0
  -23.9067  -10.4294   21.0405 C   0  0  0  0  0  0
  -24.3618   -9.4209   21.9184 C   0  0  0  0  0  0
  -23.6288   -8.2249   22.0752 C   0  0  0  0  0  0
  -22.4273   -8.0279   21.3540 C   0  0  0  0  0  0
  -21.9904   -9.0257   20.4648 C   0  0  0  0  0  0
  -22.7236  -10.2137   20.3057 C   0  0  0  0  0  0
  -21.6853   -6.0734   22.5277 C   0  0  0  0  0  0
  -21.4024   -6.5641   23.8211 C   0  0  0  0  0  0
  -21.3657   -5.6797   24.9173 C   0  0  0  0  0  0
  -21.6041   -4.3060   24.7221 C   0  0  0  0  0  0
  -21.8819   -3.8142   23.4346 C   0  0  0  0  0  0
  -21.9192   -4.6958   22.3403 C   0  0  0  0  0  0
  -22.7789  -13.5212   21.1874 C   0  0  0  0  0  0
  -22.1658   -4.2143   21.0979 F   0  0  0  0  0  0
  -21.5619   -3.4542   25.7737 F   0  0  0  0  0  0
  -29.9345  -13.7480   20.3871 N   0  0  0  0  0  0
  -26.2869  -12.9455   20.3242 N   0  0  0  0  0  0
  -25.9317  -11.6577   20.5724 N   0  0  0  0  0  0
  -22.0437  -12.8215   22.0435 N   0  0  0  0  0  0
  -25.4119  -15.1951   20.4167 N   0  0  0  0  0  0
  -31.6907  -15.1195   20.1343 O   0  0  0  0  0  0
  -21.6638   -6.8876   21.4235 O   0  0  0  0  0  0
  -22.3478  -14.5518   20.6713 O   0  0  0  0  0  0
  -24.6496  -31.8379   23.1867 C   0  0  0  0  0  0
  -25.9246  -32.4657   23.8266 C   0  0  1  0  0  0
  -27.2030  -27.0540   20.1882 C   0  0  0  0  0  0
  -25.5976  -33.8464   24.2175 N   0  0  0  0  0  0
  -23.4584  -30.4569   21.5314 C   0  0  2  0  0  0
  -24.9107  -28.8752   20.1132 C   0  0  0  0  0  0
  -22.7605  -29.4514   22.4828 C   0  0  0  0  0  0
  -18.0325  -28.1389   22.8470 C   0  0  0  0  0  0
  -24.1507  -36.7240   23.2642 C   0  0  0  0  0  0
  -26.0196  -30.6849   21.4023 C   0  0  0  0  0  0
  -26.0877  -29.2868   20.7532 C   0  0  0  0  0  0
  -27.2342  -28.3925   20.7782 C   0  0  0  0  0  0
  -26.0230  -26.7956   19.4569 C   0  0  0  0  0  0
  -24.8954  -27.6434   19.4459 C   0  0  0  0  0  0
  -23.6925  -29.7873   20.1516 C   0  0  0  0  0  0
  -25.4140  -36.3009   24.0310 C   0  0  1  0  0  0
  -20.5939  -28.3727   23.1212 C   0  0  2  0  0  0
  -20.6810  -26.9423   22.5397 C   0  0  0  0  0  0
  -19.5782  -26.6369   21.5210 C   0  0  0  0  0  0
  -18.1963  -26.7921   22.1625 C   0  0  0  0  0  0
  -19.1580  -28.8876   23.2830 C   0  0  0  0  0  0
  -18.9493  -30.1471   23.8856 C   0  0  0  0  0  0
  -17.6484  -30.6580   24.0554 C   0  0  0  0  0  0
  -25.9084  -34.9380   23.5051 C   0  0  0  0  0  0
  -16.5372  -29.9073   23.6333 C   0  0  0  0  0  0
  -16.7303  -28.6495   23.0344 C   0  0  0  0  0  0
  -26.4543  -31.6532   25.0721 C   0  0  0  0  0  0
  -25.3729  -31.3766   26.1425 C   0  0  0  0  0  0
  -27.0390  -30.2902   24.6352 C   0  0  0  0  0  0
  -27.6068  -32.4293   25.7509 C   0  0  0  0  0  0
  -27.5577  -37.1796   24.8472 C   0  0  0  0  0  0
  -21.4293  -29.3044   22.3570 N   0  0  0  0  0  0
  -26.4309  -37.3718   23.9384 N   0  0  0  0  0  0
  -24.7291  -31.0172   22.0942 N   0  0  0  0  0  0
  -23.4205  -28.8054   23.3006 O   0  0  0  0  0  0
  -28.2148  -25.9973   20.2133 O   0  0  0  0  0  0
  -26.5666  -34.8877   22.4628 O   0  0  0  0  0  0
  -23.5597  -32.1288   23.7041 O   0  0  0  0  0  0
  -30.4633  -20.0036   20.1033 C   0  0  0  0  0  0
  -30.7451  -18.5395   20.1175 C   0  0  0  0  0  0
  -29.2007  -20.4592   20.4834 C   0  0  0  0  0  0
  -29.7384  -17.6554   20.5036 C   0  0  0  0  0  0
  -28.9242  -23.1660   20.3206 C   0  0  0  0  0  0
  -26.5153  -24.0472   20.6667 C   0  0  0  0  0  0
  -28.2889  -24.7428   22.2637 C   0  0  0  0  0  0
  -27.9863  -24.5113   20.7707 C   0  0  0  0  0  0
  -28.6060  -21.7912   20.6235 N   0  0  0  0  0  0
  -29.6565  -16.1964   20.6116 N   0  0  0  0  0  0
  -29.9643  -23.4026   19.7023 O   0  0  0  0  0  0
  -28.3831  -18.8517   20.8605 S   0  0  0  0  0  0
  -31.4772  -12.8250   19.2046 H   0  0  0  0  0  0
  -30.4619  -11.6998   20.0613 H   0  0  0  0  0  0
  -29.8675  -11.7476   17.6111 H   0  0  0  0  0  0
  -29.6040  -13.4720   17.6940 H   0  0  0  0  0  0
  -27.9749  -11.2752   18.9996 H   0  0  0  0  0  0
  -27.4046  -12.4302   17.8256 H   0  0  0  0  0  0
  -27.5814  -14.2506   19.4031 H   0  0  0  0  0  0
  -28.7725  -12.3245   21.4555 H   0  0  0  0  0  0
  -28.3485  -13.9907   21.7625 H   0  0  0  0  0  0
  -25.2765   -9.5682   22.4762 H   0  0  0  0  0  0
  -23.9982   -7.4645   22.7485 H   0  0  0  0  0  0
  -21.0825   -8.8783   19.8974 H   0  0  0  0  0  0
  -22.3679  -10.9680   19.6174 H   0  0  0  0  0  0
  -21.2029   -7.6153   23.9715 H   0  0  0  0  0  0
  -21.1477   -6.0527   25.9077 H   0  0  0  0  0  0
  -22.0598   -2.7600   23.2853 H   0  0  0  0  0  0
  -22.4055  -11.9890   22.4845 H   0  0  0  0  0  0
  -21.1055  -13.1249   22.2643 H   0  0  0  0  0  0
  -24.6405  -15.8446   20.5293 H   0  0  0  0  0  0
  -26.2490  -15.6369   20.0600 H   0  0  0  0  0  0
  -26.7310  -32.5238   23.0988 H   0  0  0  0  0  0
  -25.0102  -33.9563   25.0311 H   0  0  0  0  0  0
  -22.7653  -31.2854   21.3731 H   0  0  0  0  0  0
  -23.3747  -35.9599   23.3340 H   0  0  0  0  0  0
  -24.3591  -36.8829   22.2052 H   0  0  0  0  0  0
  -23.7292  -37.6464   23.6646 H   0  0  0  0  0  0
  -26.1844  -31.4294   20.6222 H   0  0  0  0  0  0
  -26.8884  -30.7405   22.0467 H   0  0  0  0  0  0
  -28.1236  -28.7011   21.3092 H   0  0  0  0  0  0
  -25.9454  -25.8774   18.8966 H   0  0  0  0  0  0
  -24.0101  -27.3337   18.9068 H   0  0  0  0  0  0
  -23.8406  -30.5628   19.3997 H   0  0  0  0  0  0
  -22.8061  -29.2363   19.8326 H   0  0  0  0  0  0
  -25.1338  -36.1852   25.0806 H   0  0  0  0  0  0
  -21.0026  -28.3324   24.1340 H   0  0  0  0  0  0
  -20.5711  -26.2339   23.3624 H   0  0  0  0  0  0
  -21.6671  -26.7422   22.1193 H   0  0  0  0  0  0
  -19.6950  -25.6275   21.1255 H   0  0  0  0  0  0
  -19.6717  -27.3166   20.6731 H   0  0  0  0  0  0
  -17.4228  -26.6648   21.4035 H   0  0  0  0  0  0
  -18.0381  -26.0069   22.9035 H   0  0  0  0  0  0
  -19.7968  -30.7301   24.2201 H   0  0  0  0  0  0
  -17.5034  -31.6251   24.5168 H   0  0  0  0  0  0
  -15.5369  -30.2962   23.7668 H   0  0  0  0  0  0
  -15.8712  -28.0806   22.7062 H   0  0  0  0  0  0
  -24.5885  -30.7133   25.7768 H   0  0  0  0  0  0
  -24.8958  -32.2969   26.4798 H   0  0  0  0  0  0
  -25.8013  -30.8971   27.0236 H   0  0  0  0  0  0
  -26.3011  -29.6628   24.1340 H   0  0  0  0  0  0
  -27.3937  -29.7205   25.4951 H   0  0  0  0  0  0
  -27.8958  -30.4093   23.9721 H   0  0  0  0  0  0
  -27.2649  -33.3597   26.2051 H   0  0  0  0  0  0
  -28.3906  -32.6840   25.0364 H   0  0  0  0  0  0
  -28.0703  -31.8441   26.5463 H   0  0  0  0  0  0
  -28.2627  -38.0056   24.7432 H   0  0  0  0  0  0
  -28.1034  -36.2575   24.6409 H   0  0  0  0  0  0
  -27.2273  -37.1577   25.8872 H   0  0  0  0  0  0
  -20.9513  -29.8749   21.6740 H   0  0  0  0  0  0
  -26.0173  -38.2803   24.1311 H   0  0  0  0  0  0
  -31.2487  -20.6853   19.8105 H   0  0  0  0  0  0
  -31.7263  -18.1922   19.8244 H   0  0  0  0  0  0
  -26.3483  -23.1187   21.2118 H   0  0  0  0  0  0
  -26.2240  -23.8602   19.6342 H   0  0  0  0  0  0
  -25.8220  -24.7633   21.1065 H   0  0  0  0  0  0
  -28.2032  -23.8255   22.8474 H   0  0  0  0  0  0
  -27.6037  -25.4683   22.7029 H   0  0  0  0  0  0
  -29.3000  -25.1260   22.4028 H   0  0  0  0  0  0
  -27.7048  -21.7495   21.0796 H   0  0  0  0  0  0
  -28.7246  -15.8937   20.8523 H   0  0  0  0  0  0
  1 25  1  0  0  0
  1 30  2  0  0  0
  1 80  1  0  0  0
  2  3  1  0  0  0
  2 25  1  0  0  0
  2 83  1  0  0  0
  2 84  1  0  0  0
  3  4  1  0  0  0
  3 85  1  0  0  0
  3 86  1  0  0  0
  4  5  1  0  0  0
  4 87  1  0  0  0
  4 88  1  0  0  0
  5  6  1  0  0  0
  5 26  1  0  0  0
  5 89  1  0  0  0
  6 25  1  0  0  0
  6 90  1  0  0  0
  6 91  1  0  0  0
  7  8  2  0  0  0
  7 26  1  0  0  0
  7 29  1  0  0  0
  8  9  1  0  0  0
  8 22  1  0  0  0
  9 10  1  0  0  0
  9 27  2  0  0  0
 10 11  2  0  0  0
 10 15  1  0  0  0
 11 12  1  0  0  0
 11 92  1  0  0  0
 12 13  2  0  0  0
 12 93  1  0  0  0
 13 14  1  0  0  0
 13 31  1  0  0  0
 14 15  2  0  0  0
 14 94  1  0  0  0
 15 95  1  0  0  0
 16 17  2  0  0  0
 16 21  1  0  0  0
 16 31  1  0  0  0
 17 18  1  0  0  0
 17 96  1  0  0  0
 18 19  2  0  0  0
 18 97  1  0  0  0
 19 20  1  0  0  0
 19 24  1  0  0  0
 20 21  2  0  0  0
 20 98  1  0  0  0
 21 23  1  0  0  0
 22 28  1  0  0  0
 22 32  2  0  0  0
 26 27  1  0  0  0
 28 99  1  0  0  0
 28100  1  0  0  0
 29101  1  0  0  0
 29102  1  0  0  0
 33 34  1  0  0  0
 33 66  1  0  0  0
 33 70  2  0  0  0
 34 36  1  0  0  0
 34 59  1  0  0  0
 34103  1  0  0  0
 35 44  2  0  0  0
 35 45  1  0  0  0
 35 68  1  0  0  0
 36 56  1  0  0  0
 36104  1  0  0  0
 37 39  1  0  0  0
 37 47  1  0  0  0
 37 66  1  0  0  0
 37105  1  0  0  0
 38 43  2  0  0  0
 38 46  1  0  0  0
 38 47  1  0  0  0
 39 64  1  0  0  0
 39 67  2  0  0  0
 40 52  1  0  0  0
 40 53  2  0  0  0
 40 58  1  0  0  0
 41106  1  0  0  0
 41107  1  0  0  0
 41108  1  0  0  0
 41 48  1  0  0  0
 42 43  1  0  0  0
 42 66  1  0  0  0
 42109  1  0  0  0
 42110  1  0  0  0
 43 44  1  0  0  0
 44111  1  0  0  0
 45 46  2  0  0  0
 45112  1  0  0  0
 46113  1  0  0  0
 47114  1  0  0  0
 47115  1  0  0  0
 48 56  1  0  0  0
 48 65  1  0  0  0
 48116  1  0  0  0
 49 50  1  0  0  0
 49 53  1  0  0  0
 49 64  1  0  0  0
 49117  1  0  0  0
 50 51  1  0  0  0
 50118  1  0  0  0
 50119  1  0  0  0
 51 52  1  0  0  0
 51120  1  0  0  0
 51121  1  0  0  0
 52122  1  0  0  0
 52123  1  0  0  0
 53 54  1  0  0  0
 54 55  2  0  0  0
 54124  1  0  0  0
 55 57  1  0  0  0
 55125  1  0  0  0
 56 69  2  0  0  0
 57 58  2  0  0  0
 57126  1  0  0  0
 58127  1  0  0  0
 59 60  1  0  0  0
 59 61  1  0  0  0
 59 62  1  0  0  0
 60128  1  0  0  0
 60129  1  0  0  0
 60130  1  0  0  0
 61131  1  0  0  0
 61132  1  0  0  0
 61133  1  0  0  0
 62134  1  0  0  0
 62135  1  0  0  0
 62136  1  0  0  0
 63 65  1  0  0  0
 63137  1  0  0  0
 63138  1  0  0  0
 63139  1  0  0  0
 64140  1  0  0  0
 65141  1  0  0  0
 68 78  1  0  0  0
 71 72  1  0  0  0
 71 73  2  0  0  0
 71142  1  0  0  0
 72 74  2  0  0  0
 72143  1  0  0  0
 73 79  1  0  0  0
 73 82  1  0  0  0
 74 80  1  0  0  0
 74 82  1  0  0  0
 75 78  1  0  0  0
 75 79  1  0  0  0
 75 81  2  0  0  0
 76144  1  0  0  0
 76145  1  0  0  0
 76146  1  0  0  0
 76 78  1  0  0  0
 77 78  1  0  0  0
 77147  1  0  0  0
 77148  1  0  0  0
 77149  1  0  0  0
 79150  1  0  0  0
 80151  1  0  0  0
M  ISO  4   1 100  68 101  78 101  80 100
M  END
> <chiral flag>
0

> <version>
0

> <s_m_source_file>
/data/baiqing/PycharmProjects/Reinvent-master-3.2/result/LINK_invent/BTK/process_docking_weight1_custom_product_contain_oxygen_bond_distance_aromatic_linkinvent_7_9_3/rearranged_h_0139.sdf

> <i_m_source_file_index>
46

> <r_mmod_Potential_Energy-OPLS-2005>
629.380249023438

> <r_mmod_Stretch_Energy-OPLS-2005>
305.894195556641

> <r_mmod_Bend_Energy-OPLS-2005>
312.349304199219

> <r_mmod_Torsional_Energy-OPLS-2005>
251.945114135742

> <r_mmod_Improper_Torsional_Energy-OPLS-2005>
3.6801118850708

> <r_mmod_Van_der_Waal_Energy-OPLS-2005>
112.238975524902

> <r_mmod_Electrostatic_Energy-OPLS-2005>
-388.943603515625

> <r_mmod_Solvation_Energy-OPLS-2005>
-236.281387329102

> <b_mmod_Minimization_Converged-OPLS-2005>
0

> <r_mmod_RMS_Derivative-OPLS-2005>
1.60561263561249

$$$$
46
                    3D
 Structure written by MMmdl.
161169  0  0  1  0            999 V2000
  -30.6328  -14.6808   20.4915 C   0  0  0  0  0  0
  -30.4323  -12.4143   19.4729 C   0  0  0  0  0  0
  -29.5129  -12.5274   18.2355 C   0  0  0  0  0  0
  -28.0325  -12.3641   18.6358 C   0  0  0  0  0  0
  -27.6532  -13.2296   19.8684 C   0  0  2  0  0  0
  -28.6952  -13.0937   20.9984 C   0  0  0  0  0  0
  -25.2553  -13.8213   20.5706 C   0  0  0  0  0  0
  -24.1825  -13.0458   20.9184 C   0  0  0  0  0  0
  -24.6417  -11.6932   20.8738 C   0  0  0  0  0  0
  -23.9102  -10.4303   21.0412 C   0  0  0  0  0  0
  -24.3650   -9.4216   21.9187 C   0  0  0  0  0  0
  -23.6321   -8.2249   22.0753 C   0  0  0  0  0  0
  -22.4289   -8.0297   21.3552 C   0  0  0  0  0  0
  -21.9937   -9.0274   20.4648 C   0  0  0  0  0  0
  -22.7273  -10.2150   20.3055 C   0  0  0  0  0  0
  -21.6868   -6.0750   22.5282 C   0  0  0  0  0  0
  -21.4021   -6.5643   23.8216 C   0  0  0  0  0  0
  -21.3655   -5.6792   24.9176 C   0  0  0  0  0  0
  -21.6043   -4.3056   24.7219 C   0  0  0  0  0  0
  -21.8825   -3.8157   23.4340 C   0  0  0  0  0  0
  -21.9188   -4.6977   22.3398 C   0  0  0  0  0  0
  -22.7845  -13.5230   21.1841 C   0  0  0  0  0  0
  -22.1662   -4.2161   21.0972 F   0  0  0  0  0  0
  -21.5623   -3.4536   25.7735 F   0  0  0  0  0  0
  -30.0080  -13.4521   20.4426 N   0  0  0  0  0  0
  -26.2999  -12.9416   20.3355 N   0  0  0  0  0  0
  -25.9356  -11.6558   20.5777 N   0  0  0  0  0  0
  -22.0485  -12.8225   22.0404 N   0  0  0  0  0  0
  -25.4279  -15.1941   20.4110 N   0  0  0  0  0  0
  -31.7834  -14.7888   20.0588 O   0  0  0  0  0  0
  -21.6657   -6.8893   21.4247 O   0  0  0  0  0  0
  -22.3519  -14.5525   20.6678 O   0  0  0  0  0  0
  -24.6277  -31.8603   23.2033 C   0  0  0  0  0  0
  -25.9113  -32.4779   23.8364 C   0  0  1  0  0  0
  -27.1990  -27.2880   20.1169 C   0  0  0  0  0  0
  -25.5927  -33.8589   24.2287 N   0  0  0  0  0  0
  -23.4212  -30.4858   21.5494 C   0  0  2  0  0  0
  -24.8621  -28.9482   20.1057 C   0  0  0  0  0  0
  -22.7503  -29.4607   22.4954 C   0  0  0  0  0  0
  -18.0292  -28.1393   22.8497 C   0  0  0  0  0  0
  -24.1487  -36.7301   23.2635 C   0  0  0  0  0  0
  -25.9662  -30.7810   21.3810 C   0  0  0  0  0  0
  -26.0345  -29.4077   20.7189 C   0  0  0  0  0  0
  -27.2052  -28.5868   20.7206 C   0  0  0  0  0  0
  -26.0018  -26.8961   19.4703 C   0  0  0  0  0  0
  -24.8487  -27.6980   19.4739 C   0  0  0  0  0  0
  -23.6337  -29.8330   20.1602 C   0  0  0  0  0  0
  -25.4113  -36.3096   24.0330 C   0  0  1  0  0  0
  -20.5896  -28.3677   23.1317 C   0  0  2  0  0  0
  -20.6798  -26.9408   22.5432 C   0  0  0  0  0  0
  -19.5761  -26.6387   21.5250 C   0  0  0  0  0  0
  -18.1933  -26.7938   22.1642 C   0  0  0  0  0  0
  -19.1544  -28.8857   23.2898 C   0  0  0  0  0  0
  -18.9460  -30.1472   23.8890 C   0  0  0  0  0  0
  -17.6452  -30.6592   24.0564 C   0  0  0  0  0  0
  -25.9052  -34.9456   23.5117 C   0  0  0  0  0  0
  -16.5349  -29.9084   23.6335 C   0  0  0  0  0  0
  -16.7277  -28.6512   23.0343 C   0  0  0  0  0  0
  -26.4473  -31.6574   25.0733 C   0  0  0  0  0  0
  -25.3683  -31.3724   26.1443 C   0  0  0  0  0  0
  -27.0320  -30.2992   24.6195 C   0  0  0  0  0  0
  -27.6053  -32.4284   25.7503 C   0  0  0  0  0  0
  -27.5592  -37.1805   24.8461 C   0  0  0  0  0  0
  -21.4216  -29.3023   22.3710 N   0  0  0  0  0  0
  -26.4292  -37.3796   23.9412 N   0  0  0  0  0  0
  -24.6910  -31.0586   22.1007 N   0  0  0  0  0  0
  -23.4228  -28.8155   23.3032 O   0  0  0  0  0  0
  -28.2874  -26.3935   20.1806 O   0  0  0  0  0  0
  -26.5633  -34.8919   22.4686 O   0  0  0  0  0  0
  -23.5428  -32.1448   23.7316 O   0  0  0  0  0  0
  -29.4076  -19.7482   20.2952 C   0  0  0  0  0  0
  -28.7734  -18.4772   22.2661 C   0  0  0  0  0  0
  -28.1517  -20.8427   22.0635 C   0  0  0  0  0  0
  -29.4216  -18.4831   21.0116 C   0  0  0  0  0  0
  -28.7763  -20.9531   20.8044 C   0  0  0  0  0  0
  -28.1553  -19.6321   22.7817 C   0  0  0  0  0  0
  -30.0567  -17.1738   20.5195 C   0  0  0  0  0  0
  -29.8665  -15.8797   20.9744 C   0  0  0  0  0  0
  -30.4502  -24.0731   18.2007 C   0  0  0  0  0  0
  -29.2110  -23.9031   21.9302 C   0  0  0  0  0  0
  -28.5528  -22.2844   19.9691 C   0  0  0  0  0  0
  -30.4032  -24.0911   19.7429 C   0  0  0  0  0  0
  -27.9962  -24.9402   19.9843 C   0  0  0  0  0  0
  -29.0310  -23.7828   20.4035 C   0  0  2  0  0  0
  -27.5276  -19.5718   23.9799 F   0  0  0  0  0  0
  -31.4754  -12.5192   19.1737 H   0  0  0  0  0  0
  -30.3559  -11.4200   19.9168 H   0  0  0  0  0  0
  -29.7797  -11.7778   17.4894 H   0  0  0  0  0  0
  -29.6627  -13.5005   17.7623 H   0  0  0  0  0  0
  -27.8655  -11.3088   18.8567 H   0  0  0  0  0  0
  -27.3851  -12.6046   17.7914 H   0  0  0  0  0  0
  -27.6723  -14.2694   19.5383 H   0  0  0  0  0  0
  -28.7145  -12.0704   21.3755 H   0  0  0  0  0  0
  -28.4262  -13.7112   21.8542 H   0  0  0  0  0  0
  -25.2801   -9.5691   22.4761 H   0  0  0  0  0  0
  -24.0038   -7.4639   22.7467 H   0  0  0  0  0  0
  -21.0871   -8.8793   19.8956 H   0  0  0  0  0  0
  -22.3737  -10.9692   19.6161 H   0  0  0  0  0  0
  -21.2029   -7.6159   23.9731 H   0  0  0  0  0  0
  -21.1468   -6.0519   25.9080 H   0  0  0  0  0  0
  -22.0607   -2.7620   23.2840 H   0  0  0  0  0  0
  -22.4094  -11.9911   22.4844 H   0  0  0  0  0  0
  -21.1089  -13.1253   22.2565 H   0  0  0  0  0  0
  -24.6725  -15.8585   20.5389 H   0  0  0  0  0  0
  -26.2942  -15.6346   20.1267 H   0  0  0  0  0  0
  -26.7189  -32.5439   23.1119 H   0  0  0  0  0  0
  -25.0010  -33.9731   25.0386 H   0  0  0  0  0  0
  -22.7125  -31.3057   21.4140 H   0  0  0  0  0  0
  -23.3769  -35.9617   23.3273 H   0  0  0  0  0  0
  -24.3597  -36.8950   22.2059 H   0  0  0  0  0  0
  -23.7208  -37.6480   23.6673 H   0  0  0  0  0  0
  -26.1002  -31.5475   20.6161 H   0  0  0  0  0  0
  -26.8465  -30.8280   22.0107 H   0  0  0  0  0  0
  -28.0954  -28.9232   21.2327 H   0  0  0  0  0  0
  -25.9130  -25.9436   18.9704 H   0  0  0  0  0  0
  -23.9495  -27.3434   18.9889 H   0  0  0  0  0  0
  -23.7522  -30.6200   19.4145 H   0  0  0  0  0  0
  -22.7510  -29.2702   19.8519 H   0  0  0  0  0  0
  -25.1286  -36.1965   25.0824 H   0  0  0  0  0  0
  -20.9969  -28.3247   24.1446 H   0  0  0  0  0  0
  -20.5780  -26.2263   23.3617 H   0  0  0  0  0  0
  -21.6653  -26.7492   22.1165 H   0  0  0  0  0  0
  -19.6926  -25.6311   21.1257 H   0  0  0  0  0  0
  -19.6704  -27.3228   20.6803 H   0  0  0  0  0  0
  -17.4222  -26.6719   21.4023 H   0  0  0  0  0  0
  -18.0288  -26.0088   22.9032 H   0  0  0  0  0  0
  -19.7932  -30.7315   24.2230 H   0  0  0  0  0  0
  -17.4995  -31.6268   24.5168 H   0  0  0  0  0  0
  -15.5342  -30.2971   23.7660 H   0  0  0  0  0  0
  -15.8689  -28.0837   22.7022 H   0  0  0  0  0  0
  -24.5861  -30.7069   25.7760 H   0  0  0  0  0  0
  -24.8847  -32.2885   26.4844 H   0  0  0  0  0  0
  -25.7967  -30.8911   27.0240 H   0  0  0  0  0  0
  -26.2914  -29.6754   24.1168 H   0  0  0  0  0  0
  -27.3967  -29.7229   25.4708 H   0  0  0  0  0  0
  -27.8803  -30.4284   23.9469 H   0  0  0  0  0  0
  -27.2691  -33.3589   26.2090 H   0  0  0  0  0  0
  -28.3855  -32.6819   25.0314 H   0  0  0  0  0  0
  -28.0721  -31.8385   26.5401 H   0  0  0  0  0  0
  -28.2582  -38.0128   24.7543 H   0  0  0  0  0  0
  -28.1113  -36.2662   24.6237 H   0  0  0  0  0  0
  -27.2321  -37.1392   25.8864 H   0  0  0  0  0  0
  -20.9394  -29.8714   21.6897 H   0  0  0  0  0  0
  -26.0183  -38.2873   24.1429 H   0  0  0  0  0  0
  -29.8586  -19.7863   19.3145 H   0  0  0  0  0  0
  -28.7451  -17.5798   22.8669 H   0  0  0  0  0  0
  -27.6155  -21.6817   22.4786 H   0  0  0  0  0  0
  -30.7807  -17.3078   19.7256 H   0  0  0  0  0  0
  -29.1367  -15.7281   21.7521 H   0  0  0  0  0  0
  -29.6788  -24.6997   17.7555 H   0  0  0  0  0  0
  -30.3447  -23.0689   17.7925 H   0  0  0  0  0  0
  -31.4090  -24.4503   17.8446 H   0  0  0  0  0  0
  -29.8986  -23.1540   22.3228 H   0  0  0  0  0  0
  -28.2615  -23.8066   22.4555 H   0  0  0  0  0  0
  -29.6094  -24.8830   22.1974 H   0  0  0  0  0  0
  -27.4647  -22.3425   19.9066 H   0  0  0  0  0  0
  -28.8322  -22.0690   18.9401 H   0  0  0  0  0  0
  -30.7323  -25.0788   20.0691 H   0  0  0  0  0  0
  -31.1522  -23.3958   20.1211 H   0  0  0  0  0  0
  -27.0722  -24.7186   20.5231 H   0  0  0  0  0  0
  -27.7574  -24.7938   18.9316 H   0  0  0  0  0  0
  1 25  1  0  0  0
  1 30  2  0  0  0
  1 78  1  0  0  0
  2  3  1  0  0  0
  2 25  1  0  0  0
  2 86  1  0  0  0
  2 87  1  0  0  0
  3  4  1  0  0  0
  3 88  1  0  0  0
  3 89  1  0  0  0
  4  5  1  0  0  0
  4 90  1  0  0  0
  4 91  1  0  0  0
  5  6  1  0  0  0
  5 26  1  0  0  0
  5 92  1  0  0  0
  6 25  1  0  0  0
  6 93  1  0  0  0
  6 94  1  0  0  0
  7  8  2  0  0  0
  7 26  1  0  0  0
  7 29  1  0  0  0
  8  9  1  0  0  0
  8 22  1  0  0  0
  9 10  1  0  0  0
  9 27  2  0  0  0
 10 11  2  0  0  0
 10 15  1  0  0  0
 11 12  1  0  0  0
 11 95  1  0  0  0
 12 13  2  0  0  0
 12 96  1  0  0  0
 13 14  1  0  0  0
 13 31  1  0  0  0
 14 15  2  0  0  0
 14 97  1  0  0  0
 15 98  1  0  0  0
 16 17  2  0  0  0
 16 21  1  0  0  0
 16 31  1  0  0  0
 17 18  1  0  0  0
 17 99  1  0  0  0
 18 19  2  0  0  0
 18100  1  0  0  0
 19 20  1  0  0  0
 19 24  1  0  0  0
 20 21  2  0  0  0
 20101  1  0  0  0
 21 23  1  0  0  0
 22 28  1  0  0  0
 22 32  2  0  0  0
 26 27  1  0  0  0
 28102  1  0  0  0
 28103  1  0  0  0
 29104  1  0  0  0
 29105  1  0  0  0
 33 34  1  0  0  0
 33 66  1  0  0  0
 33 70  2  0  0  0
 34 36  1  0  0  0
 34 59  1  0  0  0
 34106  1  0  0  0
 35 44  2  0  0  0
 35 45  1  0  0  0
 35 68  1  0  0  0
 36 56  1  0  0  0
 36107  1  0  0  0
 37 39  1  0  0  0
 37 47  1  0  0  0
 37 66  1  0  0  0
 37108  1  0  0  0
 38 43  2  0  0  0
 38 46  1  0  0  0
 38 47  1  0  0  0
 39 64  1  0  0  0
 39 67  2  0  0  0
 40 52  1  0  0  0
 40 53  2  0  0  0
 40 58  1  0  0  0
 41109  1  0  0  0
 41110  1  0  0  0
 41111  1  0  0  0
 41 48  1  0  0  0
 42 43  1  0  0  0
 42 66  1  0  0  0
 42112  1  0  0  0
 42113  1  0  0  0
 43 44  1  0  0  0
 44114  1  0  0  0
 45 46  2  0  0  0
 45115  1  0  0  0
 46116  1  0  0  0
 47117  1  0  0  0
 47118  1  0  0  0
 48 56  1  0  0  0
 48 65  1  0  0  0
 48119  1  0  0  0
 49 50  1  0  0  0
 49 53  1  0  0  0
 49 64  1  0  0  0
 49120  1  0  0  0
 50 51  1  0  0  0
 50121  1  0  0  0
 50122  1  0  0  0
 51 52  1  0  0  0
 51123  1  0  0  0
 51124  1  0  0  0
 52125  1  0  0  0
 52126  1  0  0  0
 53 54  1  0  0  0
 54 55  2  0  0  0
 54127  1  0  0  0
 55 57  1  0  0  0
 55128  1  0  0  0
 56 69  2  0  0  0
 57 58  2  0  0  0
 57129  1  0  0  0
 58130  1  0  0  0
 59 60  1  0  0  0
 59 61  1  0  0  0
 59 62  1  0  0  0
 60131  1  0  0  0
 60132  1  0  0  0
 60133  1  0  0  0
 61134  1  0  0  0
 61135  1  0  0  0
 61136  1  0  0  0
 62137  1  0  0  0
 62138  1  0  0  0
 62139  1  0  0  0
 63 65  1  0  0  0
 63140  1  0  0  0
 63141  1  0  0  0
 63142  1  0  0  0
 64143  1  0  0  0
 65144  1  0  0  0
 68 83  1  0  0  0
 71 74  2  0  0  0
 71 75  1  0  0  0
 71145  1  0  0  0
 72 74  1  0  0  0
 72 76  2  0  0  0
 72146  1  0  0  0
 73 75  2  0  0  0
 73 76  1  0  0  0
 73147  1  0  0  0
 74 77  1  0  0  0
 75 81  1  0  0  0
 76 85  1  0  0  0
 77 78  2  0  0  0
 77148  1  0  0  0
 78149  1  0  0  0
 79 82  1  0  0  0
 79150  1  0  0  0
 79151  1  0  0  0
 79152  1  0  0  0
 80153  1  0  0  0
 80154  1  0  0  0
 80155  1  0  0  0
 80 84  1  0  0  0
 81 84  1  0  0  0
 81156  1  0  0  0
 81157  1  0  0  0
 82 84  1  0  0  0
 82158  1  0  0  0
 82159  1  0  0  0
 83 84  1  0  0  0
 83160  1  0  0  0
 83161  1  0  0  0
M  ISO  4   1 100  68 101  78 100  83 101
M  END
> <chiral flag>
0

> <version>
0

> <s_m_source_file>
/data/baiqing/PycharmProjects/Reinvent-master-3.2/result/LINK_invent/BTK/process_docking_weight1_custom_product_contain_oxygen_bond_distance_aromatic_linkinvent_7_9_3/rearranged_h_0139.sdf

> <i_m_source_file_index>
47

> <r_mmod_Potential_Energy-OPLS-2005>
178.549530029297

> <r_mmod_Stretch_Energy-OPLS-2005>
108.882614135742

> <r_mmod_Bend_Energy-OPLS-2005>
158.86589050293

> <r_mmod_Torsional_Energy-OPLS-2005>
194.044250488281

> <r_mmod_Improper_Torsional_Energy-OPLS-2005>
3.87611556053162

> <r_mmod_Van_der_Waal_Energy-OPLS-2005>
150.865753173828

> <r_mmod_Electrostatic_Energy-OPLS-2005>
-320.06494140625

> <r_mmod_Solvation_Energy-OPLS-2005>
-181.522689819336

> <b_mmod_Minimization_Converged-OPLS-2005>
0

> <r_mmod_RMS_Derivative-OPLS-2005>
2.81106853485107

$$$$
47
                    3D
 Structure written by MMmdl.
173181  0  0  1  0            999 V2000
  -30.6966  -14.7353   20.5422 C   0  0  0  0  0  0
  -30.4171  -12.4760   19.4901 C   0  0  0  0  0  0
  -29.5103  -12.5217   18.2432 C   0  0  0  0  0  0
  -28.0377  -12.3271   18.6428 C   0  0  0  0  0  0
  -27.6285  -13.2384   19.8252 C   0  0  2  0  0  0
  -28.6596  -13.2000   20.9667 C   0  0  0  0  0  0
  -25.2436  -13.8212   20.5674 C   0  0  0  0  0  0
  -24.1771  -13.0426   20.9236 C   0  0  0  0  0  0
  -24.6392  -11.6919   20.8738 C   0  0  0  0  0  0
  -23.9098  -10.4281   21.0396 C   0  0  0  0  0  0
  -24.3641   -9.4186   21.9175 C   0  0  0  0  0  0
  -23.6302   -8.2245   22.0753 C   0  0  0  0  0  0
  -22.4271   -8.0285   21.3547 C   0  0  0  0  0  0
  -21.9920   -9.0266   20.4645 C   0  0  0  0  0  0
  -22.7263  -10.2123   20.3036 C   0  0  0  0  0  0
  -21.6859   -6.0748   22.5305 C   0  0  0  0  0  0
  -21.4037   -6.5639   23.8251 C   0  0  0  0  0  0
  -21.3654   -5.6781   24.9201 C   0  0  0  0  0  0
  -21.6038   -4.3045   24.7235 C   0  0  0  0  0  0
  -21.8808   -3.8151   23.4358 C   0  0  0  0  0  0
  -21.9191   -4.6969   22.3413 C   0  0  0  0  0  0
  -22.7793  -13.5200   21.1938 C   0  0  0  0  0  0
  -22.1643   -4.2162   21.0996 F   0  0  0  0  0  0
  -21.5614   -3.4524   25.7744 F   0  0  0  0  0  0
  -29.9774  -13.5564   20.4129 N   0  0  0  0  0  0
  -26.2838  -12.9436   20.3105 N   0  0  0  0  0  0
  -25.9293  -11.6565   20.5640 N   0  0  0  0  0  0
  -22.0438  -12.8185   22.0492 N   0  0  0  0  0  0
  -25.4116  -15.1949   20.4200 N   0  0  0  0  0  0
  -31.8713  -14.7218   20.1694 O   0  0  0  0  0  0
  -21.6626   -6.8894   21.4270 O   0  0  0  0  0  0
  -22.3461  -14.5503   20.6788 O   0  0  0  0  0  0
  -24.6304  -31.8568   23.2009 C   0  0  0  0  0  0
  -25.9134  -32.4773   23.8350 C   0  0  1  0  0  0
  -27.2208  -27.2729   20.1312 C   0  0  0  0  0  0
  -25.5928  -33.8578   24.2263 N   0  0  0  0  0  0
  -23.4268  -30.4806   21.5447 C   0  0  2  0  0  0
  -24.8741  -28.9332   20.1080 C   0  0  0  0  0  0
  -22.7504  -29.4606   22.4928 C   0  0  0  0  0  0
  -18.0286  -28.1392   22.8486 C   0  0  0  0  0  0
  -24.1476  -36.7285   23.2643 C   0  0  0  0  0  0
  -25.9714  -30.7737   21.3797 C   0  0  0  0  0  0
  -26.0434  -29.3974   20.7227 C   0  0  0  0  0  0
  -27.2169  -28.5790   20.7262 C   0  0  0  0  0  0
  -26.0346  -26.8876   19.4632 C   0  0  0  0  0  0
  -24.8749  -27.6860   19.4666 C   0  0  0  0  0  0
  -23.6443  -29.8197   20.1576 C   0  0  0  0  0  0
  -25.4107  -36.3087   24.0326 C   0  0  1  0  0  0
  -20.5892  -28.3692   23.1274 C   0  0  2  0  0  0
  -20.6779  -26.9413   22.5410 C   0  0  0  0  0  0
  -19.5753  -26.6382   21.5219 C   0  0  0  0  0  0
  -18.1931  -26.7932   22.1624 C   0  0  0  0  0  0
  -19.1546  -28.8860   23.2869 C   0  0  0  0  0  0
  -18.9468  -30.1460   23.8892 C   0  0  0  0  0  0
  -17.6469  -30.6590   24.0562 C   0  0  0  0  0  0
  -25.9049  -34.9455   23.5103 C   0  0  0  0  0  0
  -16.5356  -29.9090   23.6338 C   0  0  0  0  0  0
  -16.7272  -28.6507   23.0357 C   0  0  0  0  0  0
  -26.4497  -31.6609   25.0744 C   0  0  0  0  0  0
  -25.3716  -31.3781   26.1467 C   0  0  0  0  0  0
  -27.0343  -30.3027   24.6229 C   0  0  0  0  0  0
  -27.6041  -32.4366   25.7512 C   0  0  0  0  0  0
  -27.5571  -37.1803   24.8471 C   0  0  0  0  0  0
  -21.4217  -29.3033   22.3670 N   0  0  0  0  0  0
  -26.4281  -37.3786   23.9419 N   0  0  0  0  0  0
  -24.6953  -31.0548   22.0983 N   0  0  0  0  0  0
  -23.4208  -28.8155   23.3037 O   0  0  0  0  0  0
  -28.3193  -26.3866   20.2323 O   0  0  0  0  0  0
  -26.5630  -34.8926   22.4669 O   0  0  0  0  0  0
  -23.5450  -32.1383   23.7306 O   0  0  0  0  0  0
  -29.5729  -18.5232   20.6930 C   0  0  0  0  0  0
  -30.9706  -19.9290   19.2856 C   0  0  0  0  0  0
  -31.3463  -17.5154   19.3862 C   0  0  0  0  0  0
  -29.8865  -19.8539   20.1839 C   0  0  0  0  0  0
  -30.3027  -17.3069   20.3277 C   0  0  0  0  0  0
  -31.6866  -18.7887   18.8823 C   0  0  0  0  0  0
  -29.1513  -22.3348   19.9468 C   0  0  0  0  0  0
  -30.5985  -16.8046   23.2683 C   0  0  0  0  0  0
  -30.3341  -24.2323   21.1555 C   0  0  0  0  0  0
  -31.5620  -19.1554   15.9923 C   0  0  0  0  0  0
  -34.0682  -19.1095   16.1278 C   0  0  0  0  0  0
  -32.7955  -17.0076   16.5974 C   0  0  0  0  0  0
  -29.6590  -15.9848   22.3614 C   0  0  0  0  0  0
  -28.1767  -24.9272   19.8923 C   0  0  0  0  0  0
  -28.9519  -23.7445   20.6858 C   0  0  1  0  0  0
  -32.7713  -18.5423   16.7245 C   0  0  0  0  0  0
  -29.2736  -21.1328   20.6312 N   0  0  0  0  0  0
  -30.0986  -15.9441   20.9495 N   0  0  0  0  0  0
  -29.1771  -22.3453   18.7129 O   0  0  0  0  0  0
  -32.7990  -18.9724   18.0905 O   0  0  0  0  0  0
  -31.4605  -12.5713   19.1844 H   0  0  0  0  0  0
  -30.3485  -11.5066   19.9867 H   0  0  0  0  0  0
  -29.8105  -11.7562   17.5291 H   0  0  0  0  0  0
  -29.6315  -13.4818   17.7378 H   0  0  0  0  0  0
  -27.9074  -11.2805   18.9217 H   0  0  0  0  0  0
  -27.3823  -12.4969   17.7868 H   0  0  0  0  0  0
  -27.6170  -14.2562   19.4346 H   0  0  0  0  0  0
  -28.6950  -12.2160   21.4345 H   0  0  0  0  0  0
  -28.3055  -13.8769   21.7366 H   0  0  0  0  0  0
  -25.2776   -9.5670   22.4759 H   0  0  0  0  0  0
  -24.0006   -7.4622   22.7448 H   0  0  0  0  0  0
  -21.0849   -8.8795   19.8941 H   0  0  0  0  0  0
  -22.3728  -10.9673   19.6152 H   0  0  0  0  0  0
  -21.2057   -7.6157   23.9773 H   0  0  0  0  0  0
  -21.1475   -6.0506   25.9116 H   0  0  0  0  0  0
  -22.0589   -2.7618   23.2857 H   0  0  0  0  0  0
  -22.4013  -11.9815   22.4853 H   0  0  0  0  0  0
  -21.1059  -13.1231   22.2700 H   0  0  0  0  0  0
  -24.6485  -15.8486   20.5592 H   0  0  0  0  0  0
  -26.2689  -15.6453   20.1277 H   0  0  0  0  0  0
  -26.7210  -32.5431   23.1097 H   0  0  0  0  0  0
  -25.0079  -33.9718   25.0414 H   0  0  0  0  0  0
  -22.7216  -31.3025   21.4044 H   0  0  0  0  0  0
  -23.3745  -35.9612   23.3317 H   0  0  0  0  0  0
  -24.3569  -36.8896   22.2057 H   0  0  0  0  0  0
  -23.7212  -37.6482   23.6660 H   0  0  0  0  0  0
  -26.1112  -31.5348   20.6098 H   0  0  0  0  0  0
  -26.8488  -30.8212   22.0131 H   0  0  0  0  0  0
  -28.1092  -28.9305   21.2256 H   0  0  0  0  0  0
  -25.9643  -25.9512   18.9315 H   0  0  0  0  0  0
  -23.9849  -27.3318   18.9646 H   0  0  0  0  0  0
  -23.7710  -30.6023   19.4082 H   0  0  0  0  0  0
  -22.7600  -29.2585   19.8492 H   0  0  0  0  0  0
  -25.1285  -36.1944   25.0818 H   0  0  0  0  0  0
  -20.9965  -28.3269   24.1403 H   0  0  0  0  0  0
  -20.5699  -26.2298   23.3614 H   0  0  0  0  0  0
  -21.6648  -26.7456   22.1199 H   0  0  0  0  0  0
  -19.6917  -25.6295   21.1254 H   0  0  0  0  0  0
  -19.6683  -27.3190   20.6752 H   0  0  0  0  0  0
  -17.4197  -26.6663   21.4032 H   0  0  0  0  0  0
  -18.0327  -26.0082   22.9028 H   0  0  0  0  0  0
  -19.7944  -30.7280   24.2251 H   0  0  0  0  0  0
  -17.5025  -31.6274   24.5159 H   0  0  0  0  0  0
  -15.5362  -30.2991   23.7677 H   0  0  0  0  0  0
  -15.8662  -28.0832   22.7076 H   0  0  0  0  0  0
  -24.5859  -30.7161   25.7814 H   0  0  0  0  0  0
  -24.8940  -32.2959   26.4902 H   0  0  0  0  0  0
  -25.8017  -30.8954   27.0245 H   0  0  0  0  0  0
  -26.2927  -29.6786   24.1220 H   0  0  0  0  0  0
  -27.3997  -29.7291   25.4758 H   0  0  0  0  0  0
  -27.8820  -30.4325   23.9494 H   0  0  0  0  0  0
  -27.2633  -33.3665   26.2074 H   0  0  0  0  0  0
  -28.3842  -32.6929   25.0336 H   0  0  0  0  0  0
  -28.0708  -31.8510   26.5438 H   0  0  0  0  0  0
  -28.2611  -38.0081   24.7512 H   0  0  0  0  0  0
  -28.1040  -36.2615   24.6303 H   0  0  0  0  0  0
  -27.2293  -37.1465   25.8876 H   0  0  0  0  0  0
  -20.9410  -29.8741   21.6857 H   0  0  0  0  0  0
  -26.0163  -38.2861   24.1424 H   0  0  0  0  0  0
  -28.7688  -18.4494   21.4112 H   0  0  0  0  0  0
  -31.3048  -20.8872   18.9138 H   0  0  0  0  0  0
  -31.9916  -16.7152   19.0755 H   0  0  0  0  0  0
  -30.2550  -16.7634   24.3026 H   0  0  0  0  0  0
  -30.6629  -17.8560   22.9934 H   0  0  0  0  0  0
  -31.6116  -16.3986   23.2485 H   0  0  0  0  0  0
  -30.8921  -23.4345   21.6502 H   0  0  0  0  0  0
  -30.2381  -25.0475   21.8736 H   0  0  0  0  0  0
  -30.9396  -24.5898   20.3222 H   0  0  0  0  0  0
  -31.5818  -18.9210   14.9272 H   0  0  0  0  0  0
  -31.5509  -20.2414   16.0927 H   0  0  0  0  0  0
  -30.6177  -18.7793   16.3857 H   0  0  0  0  0  0
  -34.1705  -18.8426   15.0746 H   0  0  0  0  0  0
  -34.9472  -18.7301   16.6519 H   0  0  0  0  0  0
  -34.0962  -20.1962   16.1907 H   0  0  0  0  0  0
  -33.0040  -16.6991   15.5729 H   0  0  0  0  0  0
  -31.8439  -16.5550   16.8740 H   0  0  0  0  0  0
  -33.5705  -16.5723   17.2295 H   0  0  0  0  0  0
  -28.6361  -16.3604   22.4177 H   0  0  0  0  0  0
  -29.6457  -14.9949   22.8171 H   0  0  0  0  0  0
  -27.1347  -24.6336   20.0012 H   0  0  0  0  0  0
  -28.3971  -24.8452   18.8283 H   0  0  0  0  0  0
  -28.3733  -23.5379   21.5861 H   0  0  0  0  0  0
  -29.0411  -21.1825   21.6153 H   0  0  0  0  0  0
  1 25  1  0  0  0
  1 30  2  0  0  0
  1 88  1  0  0  0
  2  3  1  0  0  0
  2 25  1  0  0  0
  2 91  1  0  0  0
  2 92  1  0  0  0
  3  4  1  0  0  0
  3 93  1  0  0  0
  3 94  1  0  0  0
  4  5  1  0  0  0
  4 95  1  0  0  0
  4 96  1  0  0  0
  5  6  1  0  0  0
  5 26  1  0  0  0
  5 97  1  0  0  0
  6 25  1  0  0  0
  6 98  1  0  0  0
  6 99  1  0  0  0
  7  8  2  0  0  0
  7 26  1  0  0  0
  7 29  1  0  0  0
  8  9  1  0  0  0
  8 22  1  0  0  0
  9 10  1  0  0  0
  9 27  2  0  0  0
 10 11  2  0  0  0
 10 15  1  0  0  0
 11 12  1  0  0  0
 11100  1  0  0  0
 12 13  2  0  0  0
 12101  1  0  0  0
 13 14  1  0  0  0
 13 31  1  0  0  0
 14 15  2  0  0  0
 14102  1  0  0  0
 15103  1  0  0  0
 16 17  2  0  0  0
 16 21  1  0  0  0
 16 31  1  0  0  0
 17 18  1  0  0  0
 17104  1  0  0  0
 18 19  2  0  0  0
 18105  1  0  0  0
 19 20  1  0  0  0
 19 24  1  0  0  0
 20 21  2  0  0  0
 20106  1  0  0  0
 21 23  1  0  0  0
 22 28  1  0  0  0
 22 32  2  0  0  0
 26 27  1  0  0  0
 28107  1  0  0  0
 28108  1  0  0  0
 29109  1  0  0  0
 29110  1  0  0  0
 33 34  1  0  0  0
 33 66  1  0  0  0
 33 70  2  0  0  0
 34 36  1  0  0  0
 34 59  1  0  0  0
 34111  1  0  0  0
 35 44  2  0  0  0
 35 45  1  0  0  0
 35 68  1  0  0  0
 36 56  1  0  0  0
 36112  1  0  0  0
 37 39  1  0  0  0
 37 47  1  0  0  0
 37 66  1  0  0  0
 37113  1  0  0  0
 38 43  2  0  0  0
 38 46  1  0  0  0
 38 47  1  0  0  0
 39 64  1  0  0  0
 39 67  2  0  0  0
 40 52  1  0  0  0
 40 53  2  0  0  0
 40 58  1  0  0  0
 41114  1  0  0  0
 41115  1  0  0  0
 41116  1  0  0  0
 41 48  1  0  0  0
 42 43  1  0  0  0
 42 66  1  0  0  0
 42117  1  0  0  0
 42118  1  0  0  0
 43 44  1  0  0  0
 44119  1  0  0  0
 45 46  2  0  0  0
 45120  1  0  0  0
 46121  1  0  0  0
 47122  1  0  0  0
 47123  1  0  0  0
 48 56  1  0  0  0
 48 65  1  0  0  0
 48124  1  0  0  0
 49 50  1  0  0  0
 49 53  1  0  0  0
 49 64  1  0  0  0
 49125  1  0  0  0
 50 51  1  0  0  0
 50126  1  0  0  0
 50127  1  0  0  0
 51 52  1  0  0  0
 51128  1  0  0  0
 51129  1  0  0  0
 52130  1  0  0  0
 52131  1  0  0  0
 53 54  1  0  0  0
 54 55  2  0  0  0
 54132  1  0  0  0
 55 57  1  0  0  0
 55133  1  0  0  0
 56 69  2  0  0  0
 57 58  2  0  0  0
 57134  1  0  0  0
 58135  1  0  0  0
 59 60  1  0  0  0
 59 61  1  0  0  0
 59 62  1  0  0  0
 60136  1  0  0  0
 60137  1  0  0  0
 60138  1  0  0  0
 61139  1  0  0  0
 61140  1  0  0  0
 61141  1  0  0  0
 62142  1  0  0  0
 62143  1  0  0  0
 62144  1  0  0  0
 63 65  1  0  0  0
 63145  1  0  0  0
 63146  1  0  0  0
 63147  1  0  0  0
 64148  1  0  0  0
 65149  1  0  0  0
 68 84  1  0  0  0
 71 74  2  0  0  0
 71 75  1  0  0  0
 71150  1  0  0  0
 72 74  1  0  0  0
 72 76  2  0  0  0
 72151  1  0  0  0
 73 75  2  0  0  0
 73 76  1  0  0  0
 73152  1  0  0  0
 74 87  1  0  0  0
 75 88  1  0  0  0
 76 90  1  0  0  0
 77 85  1  0  0  0
 77 87  1  0  0  0
 77 89  2  0  0  0
 78 83  1  0  0  0
 78153  1  0  0  0
 78154  1  0  0  0
 78155  1  0  0  0
 79156  1  0  0  0
 79157  1  0  0  0
 79158  1  0  0  0
 79 85  1  0  0  0
 80159  1  0  0  0
 80160  1  0  0  0
 80161  1  0  0  0
 80 86  1  0  0  0
 81 86  1  0  0  0
 81162  1  0  0  0
 81163  1  0  0  0
 81164  1  0  0  0
 82 86  1  0  0  0
 82165  1  0  0  0
 82166  1  0  0  0
 82167  1  0  0  0
 83 88  1  0  0  0
 83168  1  0  0  0
 83169  1  0  0  0
 84 85  1  0  0  0
 84170  1  0  0  0
 84171  1  0  0  0
 85172  1  0  0  0
 86 90  1  0  0  0
 87173  1  0  0  0
M  ISO  4   1 100  68 101  84 101  88 100
M  END
> <chiral flag>
0

> <version>
0

> <s_m_source_file>
/data/baiqing/PycharmProjects/Reinvent-master-3.2/result/LINK_invent/BTK/process_docking_weight1_custom_product_contain_oxygen_bond_distance_aromatic_linkinvent_7_9_3/rearranged_h_0139.sdf

> <i_m_source_file_index>
48

> <r_mmod_Potential_Energy-OPLS-2005>
397.306457519531

> <r_mmod_Stretch_Energy-OPLS-2005>
139.684478759766

> <r_mmod_Bend_Energy-OPLS-2005>
189.503295898438

> <r_mmod_Torsional_Energy-OPLS-2005>
337.967620849609

> <r_mmod_Improper_Torsional_Energy-OPLS-2005>
5.51282644271851

> <r_mmod_Van_der_Waal_Energy-OPLS-2005>
167.224487304688

> <r_mmod_Electrostatic_Energy-OPLS-2005>
-317.703338623047

> <r_mmod_Solvation_Energy-OPLS-2005>
-208.7890625

> <b_mmod_Minimization_Converged-OPLS-2005>
0

> <r_mmod_RMS_Derivative-OPLS-2005>
3.30635762214661

$$$$
48
                    3D
 Structure written by MMmdl.
170179  0  0  1  0            999 V2000
  -30.6264  -14.5842   20.4413 C   0  0  0  0  0  0
  -30.4458  -12.3176   19.4758 C   0  0  0  0  0  0
  -29.5155  -12.3053   18.2440 C   0  0  0  0  0  0
  -28.0204  -12.2880   18.6356 C   0  0  0  0  0  0
  -27.6533  -13.1871   19.8525 C   0  0  2  0  0  0
  -28.6955  -13.0532   20.9812 C   0  0  0  0  0  0
  -25.2602  -13.8125   20.5657 C   0  0  0  0  0  0
  -24.1845  -13.0449   20.9139 C   0  0  0  0  0  0
  -24.6343  -11.6898   20.8719 C   0  0  0  0  0  0
  -23.9013  -10.4299   21.0392 C   0  0  0  0  0  0
  -24.3605   -9.4235   21.9164 C   0  0  0  0  0  0
  -23.6285   -8.2281   22.0780 C   0  0  0  0  0  0
  -22.4267   -8.0297   21.3559 C   0  0  0  0  0  0
  -21.9871   -9.0273   20.4656 C   0  0  0  0  0  0
  -22.7198  -10.2139   20.3031 C   0  0  0  0  0  0
  -21.6885   -6.0722   22.5304 C   0  0  0  0  0  0
  -21.4058   -6.5647   23.8229 C   0  0  0  0  0  0
  -21.3620   -5.6809   24.9202 C   0  0  0  0  0  0
  -21.5993   -4.3073   24.7254 C   0  0  0  0  0  0
  -21.8831   -3.8134   23.4407 C   0  0  0  0  0  0
  -21.9232   -4.6945   22.3447 C   0  0  0  0  0  0
  -22.7857  -13.5258   21.1767 C   0  0  0  0  0  0
  -22.1689   -4.2117   21.1022 F   0  0  0  0  0  0
  -21.5557   -3.4560   25.7765 F   0  0  0  0  0  0
  -30.0086  -13.3695   20.4056 N   0  0  0  0  0  0
  -26.3001  -12.9236   20.3289 N   0  0  0  0  0  0
  -25.9272  -11.6428   20.5793 N   0  0  0  0  0  0
  -22.0493  -12.8310   22.0350 N   0  0  0  0  0  0
  -25.4316  -15.1881   20.4173 N   0  0  0  0  0  0
  -31.8066  -14.7291   20.1150 O   0  0  0  0  0  0
  -21.6662   -6.8888   21.4261 O   0  0  0  0  0  0
  -22.3566  -14.5554   20.6586 O   0  0  0  0  0  0
  -24.6131  -31.8686   23.2127 C   0  0  0  0  0  0
  -25.9024  -32.4836   23.8425 C   0  0  1  0  0  0
  -27.2193  -27.4270   20.1186 C   0  0  0  0  0  0
  -25.5889  -33.8633   24.2354 N   0  0  0  0  0  0
  -23.4003  -30.4951   21.5527 C   0  0  2  0  0  0
  -24.8475  -28.9639   20.1127 C   0  0  0  0  0  0
  -22.7394  -29.4681   22.4992 C   0  0  0  0  0  0
  -18.0267  -28.1370   22.8502 C   0  0  0  0  0  0
  -24.1483  -36.7317   23.2637 C   0  0  0  0  0  0
  -25.9296  -30.8357   21.3672 C   0  0  0  0  0  0
  -26.0074  -29.4716   20.7143 C   0  0  0  0  0  0
  -27.1994  -28.7096   20.7146 C   0  0  0  0  0  0
  -26.0510  -26.9452   19.4883 C   0  0  0  0  0  0
  -24.8645  -27.7017   19.4961 C   0  0  0  0  0  0
  -23.6077  -29.8290   20.1664 C   0  0  0  0  0  0
  -25.4108  -36.3124   24.0339 C   0  0  1  0  0  0
  -20.5868  -28.3675   23.1320 C   0  0  2  0  0  0
  -20.6762  -26.9414   22.5415 C   0  0  0  0  0  0
  -19.5736  -26.6386   21.5209 C   0  0  0  0  0  0
  -18.1913  -26.7918   22.1622 C   0  0  0  0  0  0
  -19.1521  -28.8835   23.2910 C   0  0  0  0  0  0
  -18.9445  -30.1439   23.8926 C   0  0  0  0  0  0
  -17.6454  -30.6584   24.0572 C   0  0  0  0  0  0
  -25.9032  -34.9478   23.5147 C   0  0  0  0  0  0
  -16.5347  -29.9090   23.6337 C   0  0  0  0  0  0
  -16.7255  -28.6499   23.0367 C   0  0  0  0  0  0
  -26.4462  -31.6615   25.0745 C   0  0  0  0  0  0
  -25.3725  -31.3681   26.1482 C   0  0  0  0  0  0
  -27.0314  -30.3074   24.6109 C   0  0  0  0  0  0
  -27.6043  -32.4334   25.7500 C   0  0  0  0  0  0
  -27.5587  -37.1806   24.8458 C   0  0  0  0  0  0
  -21.4130  -29.3038   22.3717 N   0  0  0  0  0  0
  -26.4292  -37.3816   23.9416 N   0  0  0  0  0  0
  -24.6657  -31.0805   22.1020 N   0  0  0  0  0  0
  -23.4160  -28.8209   23.3021 O   0  0  0  0  0  0
  -28.3531  -26.6444   20.1602 O   0  0  0  0  0  0
  -26.5597  -34.8932   22.4711 O   0  0  0  0  0  0
  -23.5322  -32.1433   23.7528 O   0  0  0  0  0  0
  -29.4274  -18.1175   17.7915 C   0  0  0  0  0  0
  -29.3443  -19.3322   18.4754 C   0  0  0  0  0  0
  -29.6509  -18.1561   20.5769 C   0  0  0  0  0  0
  -29.6271  -16.9105   18.4817 C   0  0  0  0  0  0
  -29.4926  -19.3925   19.8724 C   0  0  0  0  0  0
  -29.7483  -16.8960   19.9025 C   0  0  0  0  0  0
  -29.0901  -23.0378   20.6137 C   0  0  0  0  0  0
  -31.7450  -21.6838   18.3557 C   0  0  0  0  0  0
  -29.3001  -24.3856   20.6193 C   0  0  0  0  0  0
  -30.5328  -22.1135   18.7443 C   0  0  0  0  0  0
  -27.8075  -22.3564   21.0446 C   0  0  0  0  0  0
  -28.1982  -20.8987   21.3257 C   0  0  0  0  0  0
  -30.0618  -21.9281   20.1949 C   0  0  2  0  0  0
  -29.6457  -15.6640   17.6300 C   0  0  0  0  0  0
  -30.6455  -25.0369   20.3363 C   0  0  0  0  0  0
  -29.6128  -22.8420   17.7671 C   0  0  0  0  0  0
  -28.1758  -25.3974   20.8722 C   0  0  0  0  0  0
  -29.3952  -20.6451   20.5375 N   0  0  0  0  0  0
  -29.8080  -15.6518   20.6486 N   0  0  0  0  0  0
  -31.4807  -12.4483   19.1581 H   0  0  0  0  0  0
  -30.4112  -11.3564   19.9870 H   0  0  0  0  0  0
  -29.7306  -11.4061   17.6613 H   0  0  0  0  0  0
  -29.7484  -13.1151   17.5648 H   0  0  0  0  0  0
  -27.7775  -11.2517   18.8789 H   0  0  0  0  0  0
  -27.4033  -12.5384   17.7709 H   0  0  0  0  0  0
  -27.6603  -14.2170   19.5050 H   0  0  0  0  0  0
  -28.6924  -12.0384   21.3813 H   0  0  0  0  0  0
  -28.4542  -13.7163   21.8140 H   0  0  0  0  0  0
  -25.2747   -9.5783   22.4722 H   0  0  0  0  0  0
  -23.9989   -7.4724   22.7563 H   0  0  0  0  0  0
  -21.0792   -8.8837   19.8983 H   0  0  0  0  0  0
  -22.3655  -10.9710   19.6169 H   0  0  0  0  0  0
  -21.2082   -7.6156   23.9727 H   0  0  0  0  0  0
  -21.1377   -6.0544   25.9097 H   0  0  0  0  0  0
  -22.0617   -2.7591   23.2956 H   0  0  0  0  0  0
  -22.4087  -11.9962   22.4739 H   0  0  0  0  0  0
  -21.1101  -13.1370   22.2522 H   0  0  0  0  0  0
  -24.6534  -15.8302   20.5139 H   0  0  0  0  0  0
  -26.2872  -15.6509   20.1341 H   0  0  0  0  0  0
  -26.7095  -32.5563   23.1192 H   0  0  0  0  0  0
  -25.0060  -33.9811   25.0508 H   0  0  0  0  0  0
  -22.6886  -31.3126   21.4178 H   0  0  0  0  0  0
  -23.3767  -35.9623   23.3268 H   0  0  0  0  0  0
  -24.3578  -36.8971   22.2056 H   0  0  0  0  0  0
  -23.7202  -37.6497   23.6677 H   0  0  0  0  0  0
  -26.0402  -31.6008   20.5992 H   0  0  0  0  0  0
  -26.8175  -30.8904   21.9832 H   0  0  0  0  0  0
  -28.0919  -29.0846   21.1951 H   0  0  0  0  0  0
  -26.0499  -25.9814   18.9972 H   0  0  0  0  0  0
  -23.9730  -27.3124   19.0244 H   0  0  0  0  0  0
  -23.7078  -30.6048   19.4062 H   0  0  0  0  0  0
  -22.7310  -29.2478   19.8761 H   0  0  0  0  0  0
  -25.1272  -36.2002   25.0830 H   0  0  0  0  0  0
  -20.9953  -28.3238   24.1444 H   0  0  0  0  0  0
  -20.5698  -26.2263   23.3595 H   0  0  0  0  0  0
  -21.6635  -26.7459   22.1215 H   0  0  0  0  0  0
  -19.6916  -25.6299   21.1229 H   0  0  0  0  0  0
  -19.6679  -27.3199   20.6744 H   0  0  0  0  0  0
  -17.4193  -26.6687   21.4012 H   0  0  0  0  0  0
  -18.0303  -26.0042   22.8998 H   0  0  0  0  0  0
  -19.7915  -30.7243   24.2319 H   0  0  0  0  0  0
  -17.5005  -31.6269   24.5156 H   0  0  0  0  0  0
  -15.5344  -30.3009   23.7625 H   0  0  0  0  0  0
  -15.8648  -28.0808   22.7102 H   0  0  0  0  0  0
  -24.5916  -30.7016   25.7798 H   0  0  0  0  0  0
  -24.8876  -32.2809   26.4959 H   0  0  0  0  0  0
  -25.8073  -30.8831   27.0232 H   0  0  0  0  0  0
  -26.2862  -29.6826   24.1171 H   0  0  0  0  0  0
  -27.4113  -29.7327   25.4569 H   0  0  0  0  0  0
  -27.8682  -30.4435   23.9250 H   0  0  0  0  0  0
  -27.2685  -33.3636   26.2113 H   0  0  0  0  0  0
  -28.3828  -32.6905   25.0294 H   0  0  0  0  0  0
  -28.0749  -31.8435   26.5383 H   0  0  0  0  0  0
  -28.2584  -38.0129   24.7582 H   0  0  0  0  0  0
  -28.1112  -36.2668   24.6204 H   0  0  0  0  0  0
  -27.2310  -37.1365   25.8861 H   0  0  0  0  0  0
  -20.9269  -29.8748   21.6950 H   0  0  0  0  0  0
  -26.0182  -38.2886   24.1464 H   0  0  0  0  0  0
  -29.3142  -18.1208   16.7148 H   0  0  0  0  0  0
  -29.1414  -20.2138   17.8897 H   0  0  0  0  0  0
  -29.7002  -18.1796   21.6555 H   0  0  0  0  0  0
  -32.4007  -21.1716   19.0453 H   0  0  0  0  0  0
  -32.1004  -21.8295   17.3447 H   0  0  0  0  0  0
  -27.0867  -22.4049   20.2275 H   0  0  0  0  0  0
  -27.3624  -22.8257   21.9228 H   0  0  0  0  0  0
  -27.3830  -20.2020   21.1122 H   0  0  0  0  0  0
  -28.4672  -20.7795   22.3767 H   0  0  0  0  0  0
  -30.9426  -21.9999   20.8341 H   0  0  0  0  0  0
  -29.5266  -15.8851   16.5680 H   0  0  0  0  0  0
  -28.8160  -15.0229   17.9069 H   0  0  0  0  0  0
  -30.5881  -15.1330   17.7404 H   0  0  0  0  0  0
  -31.4612  -24.3188   20.2880 H   0  0  0  0  0  0
  -30.8803  -25.7455   21.1313 H   0  0  0  0  0  0
  -30.6119  -25.5917   19.3989 H   0  0  0  0  0  0
  -29.9206  -22.6907   16.7315 H   0  0  0  0  0  0
  -29.6328  -23.9148   17.9543 H   0  0  0  0  0  0
  -28.5802  -22.5047   17.8628 H   0  0  0  0  0  0
  -28.1358  -25.6110   21.9394 H   0  0  0  0  0  0
  -27.2316  -24.9203   20.6120 H   0  0  0  0  0  0
  -28.9526  -15.4192   21.1304 H   0  0  0  0  0  0
  1 25  1  0  0  0
  1 30  2  0  0  0
  1 89  1  0  0  0
  2  3  1  0  0  0
  2 25  1  0  0  0
  2 90  1  0  0  0
  2 91  1  0  0  0
  3  4  1  0  0  0
  3 92  1  0  0  0
  3 93  1  0  0  0
  4  5  1  0  0  0
  4 94  1  0  0  0
  4 95  1  0  0  0
  5  6  1  0  0  0
  5 26  1  0  0  0
  5 96  1  0  0  0
  6 25  1  0  0  0
  6 97  1  0  0  0
  6 98  1  0  0  0
  7  8  2  0  0  0
  7 26  1  0  0  0
  7 29  1  0  0  0
  8  9  1  0  0  0
  8 22  1  0  0  0
  9 10  1  0  0  0
  9 27  2  0  0  0
 10 11  2  0  0  0
 10 15  1  0  0  0
 11 12  1  0  0  0
 11 99  1  0  0  0
 12 13  2  0  0  0
 12100  1  0  0  0
 13 14  1  0  0  0
 13 31  1  0  0  0
 14 15  2  0  0  0
 14101  1  0  0  0
 15102  1  0  0  0
 16 17  2  0  0  0
 16 21  1  0  0  0
 16 31  1  0  0  0
 17 18  1  0  0  0
 17103  1  0  0  0
 18 19  2  0  0  0
 18104  1  0  0  0
 19 20  1  0  0  0
 19 24  1  0  0  0
 20 21  2  0  0  0
 20105  1  0  0  0
 21 23  1  0  0  0
 22 28  1  0  0  0
 22 32  2  0  0  0
 26 27  1  0  0  0
 28106  1  0  0  0
 28107  1  0  0  0
 29108  1  0  0  0
 29109  1  0  0  0
 33 34  1  0  0  0
 33 66  1  0  0  0
 33 70  2  0  0  0
 34 36  1  0  0  0
 34 59  1  0  0  0
 34110  1  0  0  0
 35 44  2  0  0  0
 35 45  1  0  0  0
 35 68  1  0  0  0
 36 56  1  0  0  0
 36111  1  0  0  0
 37 39  1  0  0  0
 37 47  1  0  0  0
 37 66  1  0  0  0
 37112  1  0  0  0
 38 43  2  0  0  0
 38 46  1  0  0  0
 38 47  1  0  0  0
 39 64  1  0  0  0
 39 67  2  0  0  0
 40 52  1  0  0  0
 40 53  2  0  0  0
 40 58  1  0  0  0
 41113  1  0  0  0
 41114  1  0  0  0
 41115  1  0  0  0
 41 48  1  0  0  0
 42 43  1  0  0  0
 42 66  1  0  0  0
 42116  1  0  0  0
 42117  1  0  0  0
 43 44  1  0  0  0
 44118  1  0  0  0
 45 46  2  0  0  0
 45119  1  0  0  0
 46120  1  0  0  0
 47121  1  0  0  0
 47122  1  0  0  0
 48 56  1  0  0  0
 48 65  1  0  0  0
 48123  1  0  0  0
 49 50  1  0  0  0
 49 53  1  0  0  0
 49 64  1  0  0  0
 49124  1  0  0  0
 50 51  1  0  0  0
 50125  1  0  0  0
 50126  1  0  0  0
 51 52  1  0  0  0
 51127  1  0  0  0
 51128  1  0  0  0
 52129  1  0  0  0
 52130  1  0  0  0
 53 54  1  0  0  0
 54 55  2  0  0  0
 54131  1  0  0  0
 55 57  1  0  0  0
 55132  1  0  0  0
 56 69  2  0  0  0
 57 58  2  0  0  0
 57133  1  0  0  0
 58134  1  0  0  0
 59 60  1  0  0  0
 59 61  1  0  0  0
 59 62  1  0  0  0
 60135  1  0  0  0
 60136  1  0  0  0
 60137  1  0  0  0
 61138  1  0  0  0
 61139  1  0  0  0
 61140  1  0  0  0
 62141  1  0  0  0
 62142  1  0  0  0
 62143  1  0  0  0
 63 65  1  0  0  0
 63144  1  0  0  0
 63145  1  0  0  0
 63146  1  0  0  0
 64147  1  0  0  0
 65148  1  0  0  0
 68 87  1  0  0  0
 71 72  2  0  0  0
 71 74  1  0  0  0
 71149  1  0  0  0
 72 75  1  0  0  0
 72150  1  0  0  0
 73 75  2  0  0  0
 73 76  1  0  0  0
 73151  1  0  0  0
 74 76  2  0  0  0
 74 84  1  0  0  0
 75 88  1  0  0  0
 76 89  1  0  0  0
 77 79  2  0  0  0
 77 81  1  0  0  0
 77 83  1  0  0  0
 78 80  2  0  0  0
 78152  1  0  0  0
 78153  1  0  0  0
 79 85  1  0  0  0
 79 87  1  0  0  0
 80 86  1  0  0  0
 80 83  1  0  0  0
 81 82  1  0  0  0
 81154  1  0  0  0
 81155  1  0  0  0
 82 88  1  0  0  0
 82156  1  0  0  0
 82157  1  0  0  0
 83 88  1  0  0  0
 83158  1  0  0  0
 84159  1  0  0  0
 84160  1  0  0  0
 84161  1  0  0  0
 85162  1  0  0  0
 85163  1  0  0  0
 85164  1  0  0  0
 86165  1  0  0  0
 86166  1  0  0  0
 86167  1  0  0  0
 87168  1  0  0  0
 87169  1  0  0  0
 89170  1  0  0  0
M  ISO  4   1 100  68 101  87 101  89 100
M  END
> <chiral flag>
0

> <version>
0

> <s_m_source_file>
/data/baiqing/PycharmProjects/Reinvent-master-3.2/result/LINK_invent/BTK/process_docking_weight1_custom_product_contain_oxygen_bond_distance_aromatic_linkinvent_7_9_3/rearranged_h_0139.sdf

> <i_m_source_file_index>
49

> <r_mmod_Potential_Energy-OPLS-2005>
111.024078369141

> <r_mmod_Stretch_Energy-OPLS-2005>
50.4996643066406

> <r_mmod_Bend_Energy-OPLS-2005>
152.79914855957

> <r_mmod_Torsional_Energy-OPLS-2005>
311.528961181641

> <r_mmod_Improper_Torsional_Energy-OPLS-2005>
8.42348670959473

> <r_mmod_Van_der_Waal_Energy-OPLS-2005>
160.053359985352

> <r_mmod_Electrostatic_Energy-OPLS-2005>
-397.372711181641

> <r_mmod_Solvation_Energy-OPLS-2005>
-210.447311401367

> <b_mmod_Minimization_Converged-OPLS-2005>
0

> <r_mmod_RMS_Derivative-OPLS-2005>
4.8131217956543

$$$$
49
                    3D
 Structure written by MMmdl.
174182  0  0  1  0            999 V2000
  -30.6409  -14.5225   20.5325 C   0  0  0  0  0  0
  -30.4378  -12.3265   19.4166 C   0  0  0  0  0  0
  -29.5005  -12.4958   18.2016 C   0  0  0  0  0  0
  -28.0195  -12.3521   18.6132 C   0  0  0  0  0  0
  -27.6560  -13.1966   19.8640 C   0  0  2  0  0  0
  -28.7025  -12.9921   20.9834 C   0  0  0  0  0  0
  -25.2586  -13.8123   20.5667 C   0  0  0  0  0  0
  -24.1839  -13.0421   20.9198 C   0  0  0  0  0  0
  -24.6378  -11.6889   20.8754 C   0  0  0  0  0  0
  -23.9038  -10.4288   21.0409 C   0  0  0  0  0  0
  -24.3590   -9.4208   21.9181 C   0  0  0  0  0  0
  -23.6279   -8.2237   22.0747 C   0  0  0  0  0  0
  -22.4270   -8.0269   21.3536 C   0  0  0  0  0  0
  -21.9896   -9.0242   20.4641 C   0  0  0  0  0  0
  -22.7212  -10.2129   20.3055 C   0  0  0  0  0  0
  -21.6851   -6.0730   22.5278 C   0  0  0  0  0  0
  -21.4011   -6.5631   23.8215 C   0  0  0  0  0  0
  -21.3666   -5.6785   24.9173 C   0  0  0  0  0  0
  -21.6043   -4.3045   24.7220 C   0  0  0  0  0  0
  -21.8823   -3.8140   23.4340 C   0  0  0  0  0  0
  -21.9194   -4.6959   22.3400 C   0  0  0  0  0  0
  -22.7866  -13.5240   21.1859 C   0  0  0  0  0  0
  -22.1661   -4.2144   21.0977 F   0  0  0  0  0  0
  -21.5637   -3.4533   25.7733 F   0  0  0  0  0  0
  -30.0244  -13.3147   20.4208 N   0  0  0  0  0  0
  -26.2996  -12.9264   20.3313 N   0  0  0  0  0  0
  -25.9293  -11.6444   20.5752 N   0  0  0  0  0  0
  -22.0482  -12.8255   22.0406 N   0  0  0  0  0  0
  -25.4290  -15.1835   20.4044 N   0  0  0  0  0  0
  -31.8145  -14.7198   20.2076 O   0  0  0  0  0  0
  -21.6634   -6.8865   21.4238 O   0  0  0  0  0  0
  -22.3577  -14.5550   20.6699 O   0  0  0  0  0  0
  -24.6183  -31.8648   23.2068 C   0  0  0  0  0  0
  -25.9070  -32.4804   23.8367 C   0  0  1  0  0  0
  -27.2326  -27.4058   20.0857 C   0  0  0  0  0  0
  -25.5922  -33.8604   24.2301 N   0  0  0  0  0  0
  -23.4032  -30.4909   21.5484 C   0  0  2  0  0  0
  -24.8471  -28.9502   20.1142 C   0  0  0  0  0  0
  -22.7412  -29.4666   22.4982 C   0  0  0  0  0  0
  -18.0297  -28.1351   22.8482 C   0  0  0  0  0  0
  -24.1485  -36.7308   23.2635 C   0  0  0  0  0  0
  -25.9358  -30.8235   21.3604 C   0  0  0  0  0  0
  -26.0096  -29.4548   20.7071 C   0  0  0  0  0  0
  -27.2004  -28.6885   20.6902 C   0  0  0  0  0  0
  -26.0389  -26.9146   19.5062 C   0  0  0  0  0  0
  -24.8571  -27.6806   19.5136 C   0  0  0  0  0  0
  -23.6090  -29.8178   20.1647 C   0  0  0  0  0  0
  -25.4107  -36.3109   24.0340 C   0  0  1  0  0  0
  -20.5881  -28.3633   23.1311 C   0  0  2  0  0  0
  -20.6785  -26.9369   22.5399 C   0  0  0  0  0  0
  -19.5771  -26.6357   21.5192 C   0  0  0  0  0  0
  -18.1959  -26.7906   22.1609 C   0  0  0  0  0  0
  -19.1547  -28.8808   23.2904 C   0  0  0  0  0  0
  -18.9461  -30.1417   23.8907 C   0  0  0  0  0  0
  -17.6463  -30.6550   24.0559 C   0  0  0  0  0  0
  -25.9030  -34.9471   23.5111 C   0  0  0  0  0  0
  -16.5357  -29.9054   23.6317 C   0  0  0  0  0  0
  -16.7284  -28.6473   23.0339 C   0  0  0  0  0  0
  -26.4483  -31.6601   25.0710 C   0  0  0  0  0  0
  -25.3737  -31.3716   26.1436 C   0  0  0  0  0  0
  -27.0330  -30.3054   24.6113 C   0  0  0  0  0  0
  -27.6058  -32.4317   25.7474 C   0  0  0  0  0  0
  -27.5588  -37.1813   24.8469 C   0  0  0  0  0  0
  -21.4139  -29.3024   22.3732 N   0  0  0  0  0  0
  -26.4296  -37.3796   23.9420 N   0  0  0  0  0  0
  -24.6710  -31.0748   22.0968 N   0  0  0  0  0  0
  -23.4198  -28.8194   23.2997 O   0  0  0  0  0  0
  -28.4241  -26.6940   20.1039 O   0  0  0  0  0  0
  -26.5575  -34.8929   22.4661 O   0  0  0  0  0  0
  -23.5373  -32.1399   23.7475 O   0  0  0  0  0  0
  -29.9547  -19.5126   22.1817 C   0  0  0  0  0  0
  -29.5126  -17.9622   20.3564 C   0  0  0  0  0  0
  -30.4911  -17.1451   22.4375 C   0  0  0  0  0  0
  -29.4874  -19.2880   20.8682 C   0  0  0  0  0  0
  -30.4701  -18.4571   22.9772 C   0  0  0  0  0  0
  -29.9954  -16.8846   21.1433 C   0  0  0  0  0  0
  -28.9331  -20.4170   20.0813 C   0  0  0  0  0  0
  -29.6168  -18.8910   25.2810 C   0  0  0  0  0  0
  -31.7252  -20.0340   24.5387 C   0  0  0  0  0  0
  -31.7415  -17.5983   25.0402 C   0  0  0  0  0  0
  -27.3425  -23.9078   21.0244 C   0  0  0  0  0  0
  -29.7923  -24.4086   21.3754 C   0  0  0  0  0  0
  -29.0695  -22.9168   19.4523 C   0  0  0  0  0  0
  -28.5882  -25.4345   19.4078 C   0  0  0  0  0  0
  -30.8913  -18.7368   24.4330 C   0  0  0  0  0  0
  -28.6912  -24.1643   20.3232 C   0  0  0  0  0  0
  -27.9435  -20.1964   19.2191 N   0  0  0  0  0  0
  -29.7718  -15.5384   20.7271 N   0  0  0  0  0  0
  -29.3939  -21.6799   20.2238 N   0  3  0  0  0  0
  -31.4796  -12.4568   19.1168 H   0  0  0  0  0  0
  -30.3615  -11.3176   19.8244 H   0  0  0  0  0  0
  -29.7466  -11.7595   17.4348 H   0  0  0  0  0  0
  -29.6615  -13.4740   17.7453 H   0  0  0  0  0  0
  -27.8358  -11.2965   18.8146 H   0  0  0  0  0  0
  -27.3699  -12.6172   17.7773 H   0  0  0  0  0  0
  -27.6870  -14.2394   19.5503 H   0  0  0  0  0  0
  -28.6935  -11.9582   21.3332 H   0  0  0  0  0  0
  -28.4677  -13.6017   21.8589 H   0  0  0  0  0  0
  -25.2731   -9.5697   22.4752 H   0  0  0  0  0  0
  -24.0000   -7.4631   22.7460 H   0  0  0  0  0  0
  -21.0829   -8.8743   19.8949 H   0  0  0  0  0  0
  -22.3651  -10.9658   19.6164 H   0  0  0  0  0  0
  -21.1993   -7.6139   23.9714 H   0  0  0  0  0  0
  -21.1490   -6.0513   25.9078 H   0  0  0  0  0  0
  -22.0598   -2.7601   23.2839 H   0  0  0  0  0  0
  -22.4080  -11.9924   22.4822 H   0  0  0  0  0  0
  -21.1087  -13.1280   22.2564 H   0  0  0  0  0  0
  -24.6525  -15.8284   20.5051 H   0  0  0  0  0  0
  -26.2587  -15.6240   20.0307 H   0  0  0  0  0  0
  -26.7140  -32.5499   23.1130 H   0  0  0  0  0  0
  -25.0145  -33.9737   25.0507 H   0  0  0  0  0  0
  -22.6918  -31.3075   21.4068 H   0  0  0  0  0  0
  -23.3758  -35.9627   23.3296 H   0  0  0  0  0  0
  -24.3579  -36.8917   22.2047 H   0  0  0  0  0  0
  -23.7212  -37.6514   23.6625 H   0  0  0  0  0  0
  -26.0475  -31.5892   20.5910 H   0  0  0  0  0  0
  -26.8247  -30.8769   21.9783 H   0  0  0  0  0  0
  -28.1001  -29.0763   21.1485 H   0  0  0  0  0  0
  -25.9800  -25.9353   19.0596 H   0  0  0  0  0  0
  -23.9582  -27.2840   19.0624 H   0  0  0  0  0  0
  -23.7084  -30.5839   19.3949 H   0  0  0  0  0  0
  -22.7326  -29.2328   19.8802 H   0  0  0  0  0  0
  -25.1292  -36.1963   25.0833 H   0  0  0  0  0  0
  -21.0008  -28.3169   24.1417 H   0  0  0  0  0  0
  -20.5661  -26.2243   23.3582 H   0  0  0  0  0  0
  -21.6659  -26.7403   22.1203 H   0  0  0  0  0  0
  -19.6902  -25.6259   21.1244 H   0  0  0  0  0  0
  -19.6721  -27.3147   20.6704 H   0  0  0  0  0  0
  -17.4228  -26.6639   21.4021 H   0  0  0  0  0  0
  -18.0383  -26.0050   22.9006 H   0  0  0  0  0  0
  -19.7934  -30.7239   24.2287 H   0  0  0  0  0  0
  -17.5005  -31.6220   24.5167 H   0  0  0  0  0  0
  -15.5353  -30.2943   23.7628 H   0  0  0  0  0  0
  -15.8692  -28.0777   22.7054 H   0  0  0  0  0  0
  -24.5902  -30.7074   25.7766 H   0  0  0  0  0  0
  -24.8928  -32.2873   26.4883 H   0  0  0  0  0  0
  -25.8062  -30.8872   27.0201 H   0  0  0  0  0  0
  -26.2888  -29.6801   24.1163 H   0  0  0  0  0  0
  -27.4108  -29.7302   25.4587 H   0  0  0  0  0  0
  -27.8709  -30.4407   23.9269 H   0  0  0  0  0  0
  -27.2695  -33.3614   26.2079 H   0  0  0  0  0  0
  -28.3856  -32.6886   25.0290 H   0  0  0  0  0  0
  -28.0739  -31.8419   26.5372 H   0  0  0  0  0  0
  -28.2623  -38.0102   24.7528 H   0  0  0  0  0  0
  -28.1076  -36.2642   24.6282 H   0  0  0  0  0  0
  -27.2304  -37.1443   25.8871 H   0  0  0  0  0  0
  -20.9263  -29.8786   21.7011 H   0  0  0  0  0  0
  -26.0194  -38.2883   24.1409 H   0  0  0  0  0  0
  -29.8768  -20.5073   22.5949 H   0  0  0  0  0  0
  -29.1220  -17.7580   19.3700 H   0  0  0  0  0  0
  -30.8161  -16.3064   23.0331 H   0  0  0  0  0  0
  -28.9996  -19.7208   24.9344 H   0  0  0  0  0  0
  -29.8539  -19.0758   26.3290 H   0  0  0  0  0  0
  -29.0013  -17.9913   25.2385 H   0  0  0  0  0  0
  -31.1627  -20.9271   24.2676 H   0  0  0  0  0  0
  -32.6097  -19.9939   23.9023 H   0  0  0  0  0  0
  -32.0700  -20.1949   25.5613 H   0  0  0  0  0  0
  -31.1777  -16.6717   25.1482 H   0  0  0  0  0  0
  -32.0912  -17.8562   26.0405 H   0  0  0  0  0  0
  -32.6244  -17.3896   24.4360 H   0  0  0  0  0  0
  -27.3825  -23.0312   21.6724 H   0  0  0  0  0  0
  -26.5444  -23.7412   20.3015 H   0  0  0  0  0  0
  -27.0484  -24.7556   21.6437 H   0  0  0  0  0  0
  -29.8642  -23.5827   22.0827 H   0  0  0  0  0  0
  -29.5956  -25.3078   21.9591 H   0  0  0  0  0  0
  -30.7691  -24.5351   20.9071 H   0  0  0  0  0  0
  -29.9450  -23.1527   18.8453 H   0  0  0  0  0  0
  -28.2700  -22.7235   18.7367 H   0  0  0  0  0  0
  -27.8759  -25.2820   18.6006 H   0  0  0  0  0  0
  -29.5390  -25.5344   18.8821 H   0  0  0  0  0  0
  -27.5345  -19.2769   19.1554 H   0  0  0  0  0  0
  -27.5312  -20.9360   18.6780 H   0  0  0  0  0  0
  -28.8057  -15.2556   20.7080 H   0  0  0  0  0  0
  -30.1860  -21.7745   20.8450 H   0  0  0  0  0  0
  1 25  1  0  0  0
  1 30  2  0  0  0
  1 88  1  0  0  0
  2  3  1  0  0  0
  2 25  1  0  0  0
  2 90  1  0  0  0
  2 91  1  0  0  0
  3  4  1  0  0  0
  3 92  1  0  0  0
  3 93  1  0  0  0
  4  5  1  0  0  0
  4 94  1  0  0  0
  4 95  1  0  0  0
  5  6  1  0  0  0
  5 26  1  0  0  0
  5 96  1  0  0  0
  6 25  1  0  0  0
  6 97  1  0  0  0
  6 98  1  0  0  0
  7  8  2  0  0  0
  7 26  1  0  0  0
  7 29  1  0  0  0
  8  9  1  0  0  0
  8 22  1  0  0  0
  9 10  1  0  0  0
  9 27  2  0  0  0
 10 11  2  0  0  0
 10 15  1  0  0  0
 11 12  1  0  0  0
 11 99  1  0  0  0
 12 13  2  0  0  0
 12100  1  0  0  0
 13 14  1  0  0  0
 13 31  1  0  0  0
 14 15  2  0  0  0
 14101  1  0  0  0
 15102  1  0  0  0
 16 17  2  0  0  0
 16 21  1  0  0  0
 16 31  1  0  0  0
 17 18  1  0  0  0
 17103  1  0  0  0
 18 19  2  0  0  0
 18104  1  0  0  0
 19 20  1  0  0  0
 19 24  1  0  0  0
 20 21  2  0  0  0
 20105  1  0  0  0
 21 23  1  0  0  0
 22 28  1  0  0  0
 22 32  2  0  0  0
 26 27  1  0  0  0
 28106  1  0  0  0
 28107  1  0  0  0
 29108  1  0  0  0
 29109  1  0  0  0
 33 34  1  0  0  0
 33 66  1  0  0  0
 33 70  2  0  0  0
 34 36  1  0  0  0
 34 59  1  0  0  0
 34110  1  0  0  0
 35 44  2  0  0  0
 35 45  1  0  0  0
 35 68  1  0  0  0
 36 56  1  0  0  0
 36111  1  0  0  0
 37 39  1  0  0  0
 37 47  1  0  0  0
 37 66  1  0  0  0
 37112  1  0  0  0
 38 43  2  0  0  0
 38 46  1  0  0  0
 38 47  1  0  0  0
 39 64  1  0  0  0
 39 67  2  0  0  0
 40 52  1  0  0  0
 40 53  2  0  0  0
 40 58  1  0  0  0
 41113  1  0  0  0
 41114  1  0  0  0
 41115  1  0  0  0
 41 48  1  0  0  0
 42 43  1  0  0  0
 42 66  1  0  0  0
 42116  1  0  0  0
 42117  1  0  0  0
 43 44  1  0  0  0
 44118  1  0  0  0
 45 46  2  0  0  0
 45119  1  0  0  0
 46120  1  0  0  0
 47121  1  0  0  0
 47122  1  0  0  0
 48 56  1  0  0  0
 48 65  1  0  0  0
 48123  1  0  0  0
 49 50  1  0  0  0
 49 53  1  0  0  0
 49 64  1  0  0  0
 49124  1  0  0  0
 50 51  1  0  0  0
 50125  1  0  0  0
 50126  1  0  0  0
 51 52  1  0  0  0
 51127  1  0  0  0
 51128  1  0  0  0
 52129  1  0  0  0
 52130  1  0  0  0
 53 54  1  0  0  0
 54 55  2  0  0  0
 54131  1  0  0  0
 55 57  1  0  0  0
 55132  1  0  0  0
 56 69  2  0  0  0
 57 58  2  0  0  0
 57133  1  0  0  0
 58134  1  0  0  0
 59 60  1  0  0  0
 59 61  1  0  0  0
 59 62  1  0  0  0
 60135  1  0  0  0
 60136  1  0  0  0
 60137  1  0  0  0
 61138  1  0  0  0
 61139  1  0  0  0
 61140  1  0  0  0
 62141  1  0  0  0
 62142  1  0  0  0
 62143  1  0  0  0
 63 65  1  0  0  0
 63144  1  0  0  0
 63145  1  0  0  0
 63146  1  0  0  0
 64147  1  0  0  0
 65148  1  0  0  0
 68 84  1  0  0  0
 71 74  2  0  0  0
 71 75  1  0  0  0
 71149  1  0  0  0
 72 74  1  0  0  0
 72 76  2  0  0  0
 72150  1  0  0  0
 73 75  2  0  0  0
 73 76  1  0  0  0
 73151  1  0  0  0
 74 77  1  0  0  0
 75 85  1  0  0  0
 76 88  1  0  0  0
 77 87  1  0  0  0
 77 89  2  0  0  0
 78152  1  0  0  0
 78153  1  0  0  0
 78154  1  0  0  0
 78 85  1  0  0  0
 79 85  1  0  0  0
 79155  1  0  0  0
 79156  1  0  0  0
 79157  1  0  0  0
 80 85  1  0  0  0
 80158  1  0  0  0
 80159  1  0  0  0
 80160  1  0  0  0
 81161  1  0  0  0
 81162  1  0  0  0
 81163  1  0  0  0
 81 86  1  0  0  0
 82 86  1  0  0  0
 82164  1  0  0  0
 82165  1  0  0  0
 82166  1  0  0  0
 83 86  1  0  0  0
 83 89  1  0  0  0
 83167  1  0  0  0
 83168  1  0  0  0
 84 86  1  0  0  0
 84169  1  0  0  0
 84170  1  0  0  0
 87171  1  0  0  0
 87172  1  0  0  0
 88173  1  0  0  0
 89174  1  0  0  0
M  CHG  1  89   1
M  ISO  4   1 100  68 101  84 101  88 100
M  END
> <chiral flag>
0

> <version>
0

> <s_m_source_file>
/data/baiqing/PycharmProjects/Reinvent-master-3.2/result/LINK_invent/BTK/process_docking_weight1_custom_product_contain_oxygen_bond_distance_aromatic_linkinvent_7_9_3/rearranged_h_0139.sdf

> <i_m_source_file_index>
50

> <r_mmod_Potential_Energy-OPLS-2005>
-249.896621704102

> <r_mmod_Stretch_Energy-OPLS-2005>
46.6772270202637

> <r_mmod_Bend_Energy-OPLS-2005>
125.883453369141

> <r_mmod_Torsional_Energy-OPLS-2005>
252.688629150391

> <r_mmod_Improper_Torsional_Energy-OPLS-2005>
9.83980655670166

> <r_mmod_Van_der_Waal_Energy-OPLS-2005>
157.66340637207

> <r_mmod_Electrostatic_Energy-OPLS-2005>
-456.438171386719

> <r_mmod_Solvation_Energy-OPLS-2005>
-407.314666748047

> <b_mmod_Minimization_Converged-OPLS-2005>
0

> <r_mmod_RMS_Derivative-OPLS-2005>
1.94321227073669

$$$$
50
                    3D
 Structure written by MMmdl.
172181  0  0  1  0            999 V2000
  -30.7208  -14.4387   20.5437 C   0  0  0  0  0  0
  -30.4204  -12.2765   19.4252 C   0  0  0  0  0  0
  -29.4987  -12.4964   18.2090 C   0  0  0  0  0  0
  -28.0165  -12.3694   18.6153 C   0  0  0  0  0  0
  -27.6641  -13.2098   19.8726 C   0  0  2  0  0  0
  -28.7057  -12.9908   20.9948 C   0  0  0  0  0  0
  -25.2597  -13.8180   20.5671 C   0  0  0  0  0  0
  -24.1846  -13.0460   20.9162 C   0  0  0  0  0  0
  -24.6397  -11.6934   20.8712 C   0  0  0  0  0  0
  -23.9072  -10.4306   21.0380 C   0  0  0  0  0  0
  -24.3619   -9.4215   21.9166 C   0  0  0  0  0  0
  -23.6292   -8.2241   22.0745 C   0  0  0  0  0  0
  -22.4272   -8.0275   21.3541 C   0  0  0  0  0  0
  -21.9906   -9.0248   20.4647 C   0  0  0  0  0  0
  -22.7235  -10.2130   20.3043 C   0  0  0  0  0  0
  -21.6854   -6.0729   22.5284 C   0  0  0  0  0  0
  -21.4018   -6.5631   23.8216 C   0  0  0  0  0  0
  -21.3667   -5.6781   24.9171 C   0  0  0  0  0  0
  -21.6039   -4.3042   24.7224 C   0  0  0  0  0  0
  -21.8823   -3.8142   23.4344 C   0  0  0  0  0  0
  -21.9188   -4.6957   22.3401 C   0  0  0  0  0  0
  -22.7862  -13.5242   21.1829 C   0  0  0  0  0  0
  -22.1658   -4.2136   21.0979 F   0  0  0  0  0  0
  -21.5628   -3.4537   25.7740 F   0  0  0  0  0  0
  -30.0463  -13.2637   20.4470 N   0  0  0  0  0  0
  -26.3045  -12.9357   20.3352 N   0  0  0  0  0  0
  -25.9328  -11.6528   20.5757 N   0  0  0  0  0  0
  -22.0483  -12.8252   22.0389 N   0  0  0  0  0  0
  -25.4304  -15.1898   20.4094 N   0  0  0  0  0  0
  -31.8626  -14.6040   20.1028 O   0  0  0  0  0  0
  -21.6646   -6.8868   21.4237 O   0  0  0  0  0  0
  -22.3542  -14.5523   20.6628 O   0  0  0  0  0  0
  -24.6072  -31.8706   23.2126 C   0  0  0  0  0  0
  -25.8978  -32.4841   23.8403 C   0  0  1  0  0  0
  -27.2271  -27.4723   20.0934 C   0  0  0  0  0  0
  -25.5822  -33.8639   24.2326 N   0  0  0  0  0  0
  -23.3922  -30.4933   21.5525 C   0  0  2  0  0  0
  -24.8386  -28.9592   20.1218 C   0  0  0  0  0  0
  -22.7362  -29.4665   22.5031 C   0  0  0  0  0  0
  -18.0256  -28.1371   22.8495 C   0  0  0  0  0  0
  -24.1476  -36.7325   23.2661 C   0  0  0  0  0  0
  -25.9169  -30.8444   21.3602 C   0  0  0  0  0  0
  -25.9954  -29.4791   20.7156 C   0  0  0  0  0  0
  -27.1960  -28.7414   20.7007 C   0  0  0  0  0  0
  -26.0616  -26.9530   19.4966 C   0  0  0  0  0  0
  -24.8623  -27.6901   19.5145 C   0  0  0  0  0  0
  -23.5997  -29.8217   20.1676 C   0  0  0  0  0  0
  -25.4094  -36.3135   24.0360 C   0  0  1  0  0  0
  -20.5834  -28.3640   23.1355 C   0  0  2  0  0  0
  -20.6746  -26.9390   22.5429 C   0  0  0  0  0  0
  -19.5740  -26.6382   21.5207 C   0  0  0  0  0  0
  -18.1913  -26.7909   22.1623 C   0  0  0  0  0  0
  -19.1498  -28.8822   23.2916 C   0  0  0  0  0  0
  -18.9431  -30.1430   23.8929 C   0  0  0  0  0  0
  -17.6436  -30.6575   24.0570 C   0  0  0  0  0  0
  -25.9019  -34.9494   23.5153 C   0  0  0  0  0  0
  -16.5332  -29.9091   23.6321 C   0  0  0  0  0  0
  -16.7242  -28.6511   23.0333 C   0  0  0  0  0  0
  -26.4415  -31.6605   25.0715 C   0  0  0  0  0  0
  -25.3711  -31.3727   26.1496 C   0  0  0  0  0  0
  -27.0200  -30.3039   24.6048 C   0  0  0  0  0  0
  -27.6005  -32.4307   25.7476 C   0  0  0  0  0  0
  -27.5575  -37.1824   24.8482 C   0  0  0  0  0  0
  -21.4098  -29.3020   22.3780 N   0  0  0  0  0  0
  -26.4283  -37.3812   23.9427 N   0  0  0  0  0  0
  -24.6569  -31.0836   22.1003 N   0  0  0  0  0  0
  -23.4155  -28.8209   23.3057 O   0  0  0  0  0  0
  -28.3963  -26.7632   20.0271 O   0  0  0  0  0  0
  -26.5615  -34.8940   22.4740 O   0  0  0  0  0  0
  -23.5282  -32.1430   23.7556 O   0  0  0  0  0  0
  -29.6723  -18.2224   18.4945 C   0  0  0  0  0  0
  -30.1932  -19.3146   19.2136 C   0  0  0  0  0  0
  -29.6115  -16.9497   19.0915 C   0  0  0  0  0  0
  -30.9042  -24.2276   23.3107 C   0  0  0  0  0  0
  -31.7257  -23.1126   22.9812 C   0  0  0  0  0  0
  -30.5882  -17.8629   21.1383 C   0  0  0  0  0  0
  -30.6454  -19.1410   20.5378 C   0  0  0  0  0  0
  -30.0829  -16.7616   20.4111 C   0  0  0  0  0  0
  -30.7190  -24.9206   22.1474 C   0  0  0  0  0  0
  -31.9656  -23.1858   21.6349 C   0  0  0  0  0  0
  -27.4674  -25.3850   21.9525 C   0  0  0  0  0  0
  -32.2200  -22.5530   19.2141 C   0  0  0  0  0  0
  -34.2117  -22.7048   20.6884 C   0  0  0  0  0  0
  -31.1253  -20.3490   21.3241 C   0  0  0  0  0  0
  -29.9101  -26.1119   21.7572 C   0  0  0  0  0  0
  -32.5678  -20.8112   20.9913 C   0  0  0  0  0  0
  -28.6293  -25.7292   20.9903 C   0  0  2  0  0  0
  -32.7210  -22.3228   20.6564 C   0  0  0  0  0  0
  -30.0079  -15.4756   21.0045 N   0  0  0  0  0  0
  -31.4074  -24.3248   21.1366 O   0  0  0  0  0  0
  -31.4658  -12.3604   19.1260 H   0  0  0  0  0  0
  -30.3055  -11.2671   19.8199 H   0  0  0  0  0  0
  -29.7355  -11.7739   17.4264 H   0  0  0  0  0  0
  -29.6798  -13.4848   17.7835 H   0  0  0  0  0  0
  -27.8150  -11.3157   18.8085 H   0  0  0  0  0  0
  -27.3727  -12.6512   17.7822 H   0  0  0  0  0  0
  -27.7103  -14.2571   19.5757 H   0  0  0  0  0  0
  -28.6650  -11.9617   21.3532 H   0  0  0  0  0  0
  -28.4800  -13.6091   21.8643 H   0  0  0  0  0  0
  -25.2758   -9.5692   22.4751 H   0  0  0  0  0  0
  -23.9998   -7.4644   22.7474 H   0  0  0  0  0  0
  -21.0829   -8.8780   19.8976 H   0  0  0  0  0  0
  -22.3687  -10.9664   19.6160 H   0  0  0  0  0  0
  -21.2023   -7.6145   23.9715 H   0  0  0  0  0  0
  -21.1482   -6.0512   25.9071 H   0  0  0  0  0  0
  -22.0595   -2.7606   23.2853 H   0  0  0  0  0  0
  -22.4092  -11.9936   22.4836 H   0  0  0  0  0  0
  -21.1099  -13.1294   22.2563 H   0  0  0  0  0  0
  -24.6669  -15.8470   20.5285 H   0  0  0  0  0  0
  -26.2873  -15.6324   20.1008 H   0  0  0  0  0  0
  -26.7047  -32.5577   23.1169 H   0  0  0  0  0  0
  -24.9887  -33.9814   25.0407 H   0  0  0  0  0  0
  -22.6797  -31.3076   21.4133 H   0  0  0  0  0  0
  -23.3745  -35.9658   23.3337 H   0  0  0  0  0  0
  -24.3578  -36.8902   22.2076 H   0  0  0  0  0  0
  -23.7233  -37.6543   23.6663 H   0  0  0  0  0  0
  -26.0230  -31.6069   20.5870 H   0  0  0  0  0  0
  -26.8067  -30.9012   21.9747 H   0  0  0  0  0  0
  -28.0961  -29.1409   21.1459 H   0  0  0  0  0  0
  -26.0855  -25.9816   19.0248 H   0  0  0  0  0  0
  -23.9710  -27.2815   19.0589 H   0  0  0  0  0  0
  -23.7037  -30.5931   19.4033 H   0  0  0  0  0  0
  -22.7258  -29.2345   19.8792 H   0  0  0  0  0  0
  -25.1271  -36.2013   25.0853 H   0  0  0  0  0  0
  -20.9911  -28.3184   24.1476 H   0  0  0  0  0  0
  -20.5633  -26.2238   23.3604 H   0  0  0  0  0  0
  -21.6623  -26.7433   22.1237 H   0  0  0  0  0  0
  -19.6888  -25.6292   21.1230 H   0  0  0  0  0  0
  -19.6676  -27.3211   20.6758 H   0  0  0  0  0  0
  -17.4179  -26.6642   21.4038 H   0  0  0  0  0  0
  -18.0329  -26.0046   22.9023 H   0  0  0  0  0  0
  -19.7909  -30.7231   24.2309 H   0  0  0  0  0  0
  -17.5003  -31.6265   24.5167 H   0  0  0  0  0  0
  -15.5336  -30.3017   23.7632 H   0  0  0  0  0  0
  -15.8634  -28.0866   22.7013 H   0  0  0  0  0  0
  -24.5828  -30.7113   25.7891 H   0  0  0  0  0  0
  -24.8975  -32.2891   26.5018 H   0  0  0  0  0  0
  -25.8108  -30.8866   27.0214 H   0  0  0  0  0  0
  -26.2710  -29.6817   24.1144 H   0  0  0  0  0  0
  -27.4001  -29.7242   25.4469 H   0  0  0  0  0  0
  -27.8544  -30.4332   23.9163 H   0  0  0  0  0  0
  -27.2624  -33.3581   26.2105 H   0  0  0  0  0  0
  -28.3800  -32.6899   25.0300 H   0  0  0  0  0  0
  -28.0678  -31.8371   26.5337 H   0  0  0  0  0  0
  -28.2618  -38.0102   24.7535 H   0  0  0  0  0  0
  -28.1047  -36.2654   24.6295 H   0  0  0  0  0  0
  -27.2320  -37.1435   25.8891 H   0  0  0  0  0  0
  -20.9238  -29.8769   21.7042 H   0  0  0  0  0  0
  -26.0174  -38.2882   24.1435 H   0  0  0  0  0  0
  -29.3158  -18.3658   17.4844 H   0  0  0  0  0  0
  -30.2249  -20.2897   18.7478 H   0  0  0  0  0  0
  -29.2053  -16.1210   18.5261 H   0  0  0  0  0  0
  -30.4761  -24.4761   24.2713 H   0  0  0  0  0  0
  -32.0741  -22.3310   23.6426 H   0  0  0  0  0  0
  -30.9266  -17.7303   22.1570 H   0  0  0  0  0  0
  -27.7485  -24.5729   22.6237 H   0  0  0  0  0  0
  -26.5817  -25.0483   21.4125 H   0  0  0  0  0  0
  -27.1890  -26.2365   22.5766 H   0  0  0  0  0  0
  -32.4097  -23.5754   18.8828 H   0  0  0  0  0  0
  -31.1502  -22.3751   19.1205 H   0  0  0  0  0  0
  -32.7257  -21.8927   18.5077 H   0  0  0  0  0  0
  -34.3581  -23.7564   20.4385 H   0  0  0  0  0  0
  -34.7939  -22.1101   19.9819 H   0  0  0  0  0  0
  -34.6404  -22.5518   21.6781 H   0  0  0  0  0  0
  -31.0515  -20.1348   22.3921 H   0  0  0  0  0  0
  -30.4045  -21.1468   21.1437 H   0  0  0  0  0  0
  -30.5329  -26.7430   21.1223 H   0  0  0  0  0  0
  -29.6650  -26.7209   22.6289 H   0  0  0  0  0  0
  -32.9813  -20.2124   20.1771 H   0  0  0  0  0  0
  -33.1884  -20.5742   21.8565 H   0  0  0  0  0  0
  -28.8337  -24.8445   20.3836 H   0  0  0  0  0  0
  -29.1188  -15.2326   21.4159 H   0  0  0  0  0  0
  1 25  1  0  0  0
  1 30  2  0  0  0
  1 89  1  0  0  0
  2  3  1  0  0  0
  2 25  1  0  0  0
  2 91  1  0  0  0
  2 92  1  0  0  0
  3  4  1  0  0  0
  3 93  1  0  0  0
  3 94  1  0  0  0
  4  5  1  0  0  0
  4 95  1  0  0  0
  4 96  1  0  0  0
  5  6  1  0  0  0
  5 26  1  0  0  0
  5 97  1  0  0  0
  6 25  1  0  0  0
  6 98  1  0  0  0
  6 99  1  0  0  0
  7  8  2  0  0  0
  7 26  1  0  0  0
  7 29  1  0  0  0
  8  9  1  0  0  0
  8 22  1  0  0  0
  9 10  1  0  0  0
  9 27  2  0  0  0
 10 11  2  0  0  0
 10 15  1  0  0  0
 11 12  1  0  0  0
 11100  1  0  0  0
 12 13  2  0  0  0
 12101  1  0  0  0
 13 14  1  0  0  0
 13 31  1  0  0  0
 14 15  2  0  0  0
 14102  1  0  0  0
 15103  1  0  0  0
 16 17  2  0  0  0
 16 21  1  0  0  0
 16 31  1  0  0  0
 17 18  1  0  0  0
 17104  1  0  0  0
 18 19  2  0  0  0
 18105  1  0  0  0
 19 20  1  0  0  0
 19 24  1  0  0  0
 20 21  2  0  0  0
 20106  1  0  0  0
 21 23  1  0  0  0
 22 28  1  0  0  0
 22 32  2  0  0  0
 26 27  1  0  0  0
 28107  1  0  0  0
 28108  1  0  0  0
 29109  1  0  0  0
 29110  1  0  0  0
 33 34  1  0  0  0
 33 66  1  0  0  0
 33 70  2  0  0  0
 34 36  1  0  0  0
 34 59  1  0  0  0
 34111  1  0  0  0
 35 44  2  0  0  0
 35 45  1  0  0  0
 35 68  1  0  0  0
 36 56  1  0  0  0
 36112  1  0  0  0
 37 39  1  0  0  0
 37 47  1  0  0  0
 37 66  1  0  0  0
 37113  1  0  0  0
 38 43  2  0  0  0
 38 46  1  0  0  0
 38 47  1  0  0  0
 39 64  1  0  0  0
 39 67  2  0  0  0
 40 52  1  0  0  0
 40 53  2  0  0  0
 40 58  1  0  0  0
 41114  1  0  0  0
 41115  1  0  0  0
 41116  1  0  0  0
 41 48  1  0  0  0
 42 43  1  0  0  0
 42 66  1  0  0  0
 42117  1  0  0  0
 42118  1  0  0  0
 43 44  1  0  0  0
 44119  1  0  0  0
 45 46  2  0  0  0
 45120  1  0  0  0
 46121  1  0  0  0
 47122  1  0  0  0
 47123  1  0  0  0
 48 56  1  0  0  0
 48 65  1  0  0  0
 48124  1  0  0  0
 49 50  1  0  0  0
 49 53  1  0  0  0
 49 64  1  0  0  0
 49125  1  0  0  0
 50 51  1  0  0  0
 50126  1  0  0  0
 50127  1  0  0  0
 51 52  1  0  0  0
 51128  1  0  0  0
 51129  1  0  0  0
 52130  1  0  0  0
 52131  1  0  0  0
 53 54  1  0  0  0
 54 55  2  0  0  0
 54132  1  0  0  0
 55 57  1  0  0  0
 55133  1  0  0  0
 56 69  2  0  0  0
 57 58  2  0  0  0
 57134  1  0  0  0
 58135  1  0  0  0
 59 60  1  0  0  0
 59 61  1  0  0  0
 59 62  1  0  0  0
 60136  1  0  0  0
 60137  1  0  0  0
 60138  1  0  0  0
 61139  1  0  0  0
 61140  1  0  0  0
 61141  1  0  0  0
 62142  1  0  0  0
 62143  1  0  0  0
 62144  1  0  0  0
 63 65  1  0  0  0
 63145  1  0  0  0
 63146  1  0  0  0
 63147  1  0  0  0
 64148  1  0  0  0
 65149  1  0  0  0
 68 87  1  0  0  0
 71 72  2  0  0  0
 71 73  1  0  0  0
 71150  1  0  0  0
 72 77  1  0  0  0
 72151  1  0  0  0
 73 78  2  0  0  0
 73152  1  0  0  0
 74 75  1  0  0  0
 74 79  2  0  0  0
 74153  1  0  0  0
 75 80  2  0  0  0
 75154  1  0  0  0
 76 77  2  0  0  0
 76 78  1  0  0  0
 76155  1  0  0  0
 77 84  1  0  0  0
 78 89  1  0  0  0
 79 85  1  0  0  0
 79 90  1  0  0  0
 80 88  1  0  0  0
 80 90  1  0  0  0
 81156  1  0  0  0
 81157  1  0  0  0
 81158  1  0  0  0
 81 87  1  0  0  0
 82159  1  0  0  0
 82160  1  0  0  0
 82161  1  0  0  0
 82 88  1  0  0  0
 83 88  1  0  0  0
 83162  1  0  0  0
 83163  1  0  0  0
 83164  1  0  0  0
 84 86  1  0  0  0
 84165  1  0  0  0
 84166  1  0  0  0
 85 87  1  0  0  0
 85167  1  0  0  0
 85168  1  0  0  0
 86 88  1  0  0  0
 86169  1  0  0  0
 86170  1  0  0  0
 87171  1  0  0  0
 89172  1  0  0  0
M  ISO  4   1 100  68 101  87 101  89 100
M  END
> <chiral flag>
0

> <version>
0

> <s_m_source_file>
/data/baiqing/PycharmProjects/Reinvent-master-3.2/result/LINK_invent/BTK/process_docking_weight1_custom_product_contain_oxygen_bond_distance_aromatic_linkinvent_7_9_3/rearranged_h_0139.sdf

> <i_m_source_file_index>
51

> <r_mmod_Potential_Energy-OPLS-2005>
11.1047420501709

> <r_mmod_Stretch_Energy-OPLS-2005>
33.5244674682617

> <r_mmod_Bend_Energy-OPLS-2005>
101.423240661621

> <r_mmod_Torsional_Energy-OPLS-2005>
307.047241210938

> <r_mmod_Improper_Torsional_Energy-OPLS-2005>
6.1798415184021

> <r_mmod_Van_der_Waal_Energy-OPLS-2005>
145.113677978516

> <r_mmod_Electrostatic_Energy-OPLS-2005>
-393.093139648438

> <r_mmod_Solvation_Energy-OPLS-2005>
-199.645904541016

> <b_mmod_Minimization_Converged-OPLS-2005>
0

> <r_mmod_RMS_Derivative-OPLS-2005>
2.97407913208008

$$$$
51
                    3D
 Structure written by MMmdl.
158166  0  0  1  0            999 V2000
  -30.7165  -14.4144   20.6194 C   0  0  0  0  0  0
  -30.4191  -12.2902   19.4057 C   0  0  0  0  0  0
  -29.4894  -12.5231   18.1979 C   0  0  0  0  0  0
  -28.0103  -12.3870   18.6086 C   0  0  0  0  0  0
  -27.6661  -13.2037   19.8821 C   0  0  2  0  0  0
  -28.7028  -12.9429   20.9970 C   0  0  0  0  0  0
  -25.2608  -13.8164   20.5685 C   0  0  0  0  0  0
  -24.1852  -13.0445   20.9169 C   0  0  0  0  0  0
  -24.6398  -11.6907   20.8729 C   0  0  0  0  0  0
  -23.9063  -10.4298   21.0401 C   0  0  0  0  0  0
  -24.3613   -9.4219   21.9186 C   0  0  0  0  0  0
  -23.6292   -8.2254   22.0759 C   0  0  0  0  0  0
  -22.4280   -8.0283   21.3543 C   0  0  0  0  0  0
  -21.9914   -9.0254   20.4640 C   0  0  0  0  0  0
  -22.7238  -10.2138   20.3051 C   0  0  0  0  0  0
  -21.6851   -6.0741   22.5279 C   0  0  0  0  0  0
  -21.4009   -6.5641   23.8213 C   0  0  0  0  0  0
  -21.3663   -5.6794   24.9172 C   0  0  0  0  0  0
  -21.6048   -4.3057   24.7224 C   0  0  0  0  0  0
  -21.8821   -3.8152   23.4342 C   0  0  0  0  0  0
  -21.9195   -4.6970   22.3397 C   0  0  0  0  0  0
  -22.7877  -13.5242   21.1835 C   0  0  0  0  0  0
  -22.1665   -4.2157   21.0972 F   0  0  0  0  0  0
  -21.5632   -3.4541   25.7735 F   0  0  0  0  0  0
  -30.0421  -13.2457   20.4582 N   0  0  0  0  0  0
  -26.3041  -12.9330   20.3381 N   0  0  0  0  0  0
  -25.9319  -11.6489   20.5747 N   0  0  0  0  0  0
  -22.0504  -12.8231   22.0376 N   0  0  0  0  0  0
  -25.4344  -15.1881   20.4115 N   0  0  0  0  0  0
  -31.7984  -14.6499   20.0703 O   0  0  0  0  0  0
  -21.6634   -6.8888   21.4242 O   0  0  0  0  0  0
  -22.3570  -14.5556   20.6698 O   0  0  0  0  0  0
  -24.6116  -31.8706   23.2127 C   0  0  0  0  0  0
  -25.9021  -32.4833   23.8426 C   0  0  1  0  0  0
  -27.2538  -27.4627   20.0947 C   0  0  0  0  0  0
  -25.5885  -33.8631   24.2359 N   0  0  0  0  0  0
  -23.4001  -30.4915   21.5517 C   0  0  2  0  0  0
  -24.8527  -28.9586   20.1199 C   0  0  0  0  0  0
  -22.7387  -29.4671   22.5007 C   0  0  0  0  0  0
  -18.0266  -28.1383   22.8503 C   0  0  0  0  0  0
  -24.1483  -36.7323   23.2638 C   0  0  0  0  0  0
  -25.9255  -30.8409   21.3666 C   0  0  0  0  0  0
  -26.0070  -29.4737   20.7235 C   0  0  0  0  0  0
  -27.2078  -28.7310   20.7217 C   0  0  0  0  0  0
  -26.0856  -26.9619   19.4855 C   0  0  0  0  0  0
  -24.8842  -27.6966   19.5022 C   0  0  0  0  0  0
  -23.6102  -29.8200   20.1678 C   0  0  0  0  0  0
  -25.4106  -36.3125   24.0341 C   0  0  1  0  0  0
  -20.5851  -28.3666   23.1332 C   0  0  2  0  0  0
  -20.6760  -26.9405   22.5426 C   0  0  0  0  0  0
  -19.5735  -26.6389   21.5224 C   0  0  0  0  0  0
  -18.1911  -26.7934   22.1629 C   0  0  0  0  0  0
  -19.1516  -28.8846   23.2910 C   0  0  0  0  0  0
  -18.9443  -30.1460   23.8907 C   0  0  0  0  0  0
  -17.6445  -30.6590   24.0582 C   0  0  0  0  0  0
  -25.9035  -34.9480   23.5150 C   0  0  0  0  0  0
  -16.5339  -29.9092   23.6332 C   0  0  0  0  0  0
  -16.7260  -28.6512   23.0351 C   0  0  0  0  0  0
  -26.4454  -31.6594   25.0738 C   0  0  0  0  0  0
  -25.3728  -31.3672   26.1481 C   0  0  0  0  0  0
  -27.0295  -30.3046   24.6101 C   0  0  0  0  0  0
  -27.6029  -32.4294   25.7514 C   0  0  0  0  0  0
  -27.5587  -37.1812   24.8462 C   0  0  0  0  0  0
  -21.4121  -29.3029   22.3735 N   0  0  0  0  0  0
  -26.4293  -37.3811   23.9416 N   0  0  0  0  0  0
  -24.6632  -31.0823   22.1023 N   0  0  0  0  0  0
  -23.4156  -28.8225   23.3060 O   0  0  0  0  0  0
  -28.3811  -26.6763   20.0059 O   0  0  0  0  0  0
  -26.5607  -34.8921   22.4718 O   0  0  0  0  0  0
  -23.5314  -32.1445   23.7535 O   0  0  0  0  0  0
  -30.9922  -18.7364   22.6531 C   0  0  0  0  0  0
  -30.6159  -18.8515   20.2546 C   0  0  0  0  0  0
  -30.6902  -17.3565   22.6477 C   0  0  0  0  0  0
  -30.9660  -19.4971   21.4652 C   0  0  0  0  0  0
  -30.3906  -16.7100   21.4258 C   0  0  0  0  0  0
  -30.3249  -17.4720   20.2337 C   0  0  0  0  0  0
  -30.6857  -21.7558   20.9528 C   0  0  0  0  0  0
  -30.0619  -24.2560   21.1324 C   0  0  0  0  0  0
  -30.7168  -16.5789   23.9526 C   0  0  0  0  0  0
  -31.1587  -23.2026   20.9002 C   0  0  0  0  0  0
  -30.4598  -25.7080   20.8211 C   0  0  0  0  0  0
  -29.3671  -26.7817   21.0281 C   0  0  0  0  0  0
  -31.3659  -20.8403   21.5259 N   0  0  0  0  0  0
  -30.1144  -15.3165   21.4097 N   0  0  0  0  0  0
  -28.9420  -23.9684   21.5692 O   0  0  0  0  0  0
  -29.9669  -16.8862   19.0638 F   0  0  0  0  0  0
  -31.4629  -12.3920   19.1027 H   0  0  0  0  0  0
  -30.3171  -11.2688   19.7752 H   0  0  0  0  0  0
  -29.7205  -11.8163   17.3999 H   0  0  0  0  0  0
  -29.6638  -13.5177   17.7843 H   0  0  0  0  0  0
  -27.8077  -11.3291   18.7804 H   0  0  0  0  0  0
  -27.3639  -12.6910   17.7841 H   0  0  0  0  0  0
  -27.7255  -14.2584   19.6125 H   0  0  0  0  0  0
  -28.6680  -11.8971   21.3066 H   0  0  0  0  0  0
  -28.4571  -13.5124   21.8939 H   0  0  0  0  0  0
  -25.2757   -9.5704   22.4758 H   0  0  0  0  0  0
  -24.0009   -7.4651   22.7482 H   0  0  0  0  0  0
  -21.0852   -8.8767   19.8931 H   0  0  0  0  0  0
  -22.3699  -10.9678   19.6157 H   0  0  0  0  0  0
  -21.1994   -7.6144   23.9723 H   0  0  0  0  0  0
  -21.1483   -6.0514   25.9075 H   0  0  0  0  0  0
  -22.0596   -2.7615   23.2840 H   0  0  0  0  0  0
  -22.4111  -11.9888   22.4767 H   0  0  0  0  0  0
  -21.1115  -13.1260   22.2562 H   0  0  0  0  0  0
  -24.6728  -15.8484   20.5235 H   0  0  0  0  0  0
  -26.2946  -15.6243   20.1035 H   0  0  0  0  0  0
  -26.7099  -32.5581   23.1204 H   0  0  0  0  0  0
  -25.0030  -33.9801   25.0503 H   0  0  0  0  0  0
  -22.6880  -31.3070   21.4104 H   0  0  0  0  0  0
  -23.3750  -35.9650   23.3281 H   0  0  0  0  0  0
  -24.3574  -36.8959   22.2055 H   0  0  0  0  0  0
  -23.7216  -37.6510   23.6667 H   0  0  0  0  0  0
  -26.0315  -31.6031   20.5934 H   0  0  0  0  0  0
  -26.8149  -30.9022   21.9817 H   0  0  0  0  0  0
  -28.0896  -29.1500   21.1839 H   0  0  0  0  0  0
  -26.1083  -25.9960   19.0011 H   0  0  0  0  0  0
  -23.9983  -27.2906   19.0331 H   0  0  0  0  0  0
  -23.7129  -30.5928   19.4056 H   0  0  0  0  0  0
  -22.7370  -29.2347   19.8747 H   0  0  0  0  0  0
  -25.1273  -36.1997   25.0835 H   0  0  0  0  0  0
  -20.9945  -28.3236   24.1453 H   0  0  0  0  0  0
  -20.5688  -26.2268   23.3606 H   0  0  0  0  0  0
  -21.6631  -26.7457   22.1215 H   0  0  0  0  0  0
  -19.6896  -25.6302   21.1247 H   0  0  0  0  0  0
  -19.6674  -27.3220   20.6775 H   0  0  0  0  0  0
  -17.4182  -26.6701   21.4028 H   0  0  0  0  0  0
  -18.0297  -26.0074   22.9016 H   0  0  0  0  0  0
  -19.7914  -30.7296   24.2258 H   0  0  0  0  0  0
  -17.4989  -31.6267   24.5193 H   0  0  0  0  0  0
  -15.5339  -30.3003   23.7642 H   0  0  0  0  0  0
  -15.8657  -28.0848   22.7041 H   0  0  0  0  0  0
  -24.5886  -30.7043   25.7796 H   0  0  0  0  0  0
  -24.8938  -32.2825   26.4978 H   0  0  0  0  0  0
  -25.8099  -30.8791   27.0205 H   0  0  0  0  0  0
  -26.2854  -29.6818   24.1123 H   0  0  0  0  0  0
  -27.4021  -29.7264   25.4570 H   0  0  0  0  0  0
  -27.8700  -30.4359   23.9280 H   0  0  0  0  0  0
  -27.2648  -33.3580   26.2121 H   0  0  0  0  0  0
  -28.3843  -32.6863   25.0350 H   0  0  0  0  0  0
  -28.0680  -31.8386   26.5415 H   0  0  0  0  0  0
  -28.2587  -38.0129   24.7548 H   0  0  0  0  0  0
  -28.1104  -36.2659   24.6253 H   0  0  0  0  0  0
  -27.2303  -37.1426   25.8864 H   0  0  0  0  0  0
  -20.9274  -29.8729   21.6946 H   0  0  0  0  0  0
  -26.0184  -38.2885   24.1439 H   0  0  0  0  0  0
  -31.2589  -19.2189   23.5831 H   0  0  0  0  0  0
  -30.5880  -19.3975   19.3229 H   0  0  0  0  0  0
  -29.7359  -21.5576   20.4469 H   0  0  0  0  0  0
  -30.9757  -17.2178   24.7975 H   0  0  0  0  0  0
  -31.4490  -15.7728   23.9041 H   0  0  0  0  0  0
  -29.7386  -16.1417   24.1529 H   0  0  0  0  0  0
  -31.6124  -23.3816   19.9261 H   0  0  0  0  0  0
  -31.9410  -23.3517   21.6436 H   0  0  0  0  0  0
  -30.8329  -25.7531   19.7981 H   0  0  0  0  0  0
  -31.3075  -25.9455   21.4631 H   0  0  0  0  0  0
  -29.8377  -27.7637   20.9790 H   0  0  0  0  0  0
  -28.9115  -26.6889   22.0157 H   0  0  0  0  0  0
  -29.3223  -14.9987   21.9451 H   0  0  0  0  0  0
  1 25  1  0  0  0
  1 30  2  0  0  0
  1 84  1  0  0  0
  2  3  1  0  0  0
  2 25  1  0  0  0
  2 87  1  0  0  0
  2 88  1  0  0  0
  3  4  1  0  0  0
  3 89  1  0  0  0
  3 90  1  0  0  0
  4  5  1  0  0  0
  4 91  1  0  0  0
  4 92  1  0  0  0
  5  6  1  0  0  0
  5 26  1  0  0  0
  5 93  1  0  0  0
  6 25  1  0  0  0
  6 94  1  0  0  0
  6 95  1  0  0  0
  7  8  2  0  0  0
  7 26  1  0  0  0
  7 29  1  0  0  0
  8  9  1  0  0  0
  8 22  1  0  0  0
  9 10  1  0  0  0
  9 27  2  0  0  0
 10 11  2  0  0  0
 10 15  1  0  0  0
 11 12  1  0  0  0
 11 96  1  0  0  0
 12 13  2  0  0  0
 12 97  1  0  0  0
 13 14  1  0  0  0
 13 31  1  0  0  0
 14 15  2  0  0  0
 14 98  1  0  0  0
 15 99  1  0  0  0
 16 17  2  0  0  0
 16 21  1  0  0  0
 16 31  1  0  0  0
 17 18  1  0  0  0
 17100  1  0  0  0
 18 19  2  0  0  0
 18101  1  0  0  0
 19 20  1  0  0  0
 19 24  1  0  0  0
 20 21  2  0  0  0
 20102  1  0  0  0
 21 23  1  0  0  0
 22 28  1  0  0  0
 22 32  2  0  0  0
 26 27  1  0  0  0
 28103  1  0  0  0
 28104  1  0  0  0
 29105  1  0  0  0
 29106  1  0  0  0
 33 34  1  0  0  0
 33 66  1  0  0  0
 33 70  2  0  0  0
 34 36  1  0  0  0
 34 59  1  0  0  0
 34107  1  0  0  0
 35 44  2  0  0  0
 35 45  1  0  0  0
 35 68  1  0  0  0
 36 56  1  0  0  0
 36108  1  0  0  0
 37 39  1  0  0  0
 37 47  1  0  0  0
 37 66  1  0  0  0
 37109  1  0  0  0
 38 43  2  0  0  0
 38 46  1  0  0  0
 38 47  1  0  0  0
 39 64  1  0  0  0
 39 67  2  0  0  0
 40 52  1  0  0  0
 40 53  2  0  0  0
 40 58  1  0  0  0
 41110  1  0  0  0
 41111  1  0  0  0
 41112  1  0  0  0
 41 48  1  0  0  0
 42 43  1  0  0  0
 42 66  1  0  0  0
 42113  1  0  0  0
 42114  1  0  0  0
 43 44  1  0  0  0
 44115  1  0  0  0
 45 46  2  0  0  0
 45116  1  0  0  0
 46117  1  0  0  0
 47118  1  0  0  0
 47119  1  0  0  0
 48 56  1  0  0  0
 48 65  1  0  0  0
 48120  1  0  0  0
 49 50  1  0  0  0
 49 53  1  0  0  0
 49 64  1  0  0  0
 49121  1  0  0  0
 50 51  1  0  0  0
 50122  1  0  0  0
 50123  1  0  0  0
 51 52  1  0  0  0
 51124  1  0  0  0
 51125  1  0  0  0
 52126  1  0  0  0
 52127  1  0  0  0
 53 54  1  0  0  0
 54 55  2  0  0  0
 54128  1  0  0  0
 55 57  1  0  0  0
 55129  1  0  0  0
 56 69  2  0  0  0
 57 58  2  0  0  0
 57130  1  0  0  0
 58131  1  0  0  0
 59 60  1  0  0  0
 59 61  1  0  0  0
 59 62  1  0  0  0
 60132  1  0  0  0
 60133  1  0  0  0
 60134  1  0  0  0
 61135  1  0  0  0
 61136  1  0  0  0
 61137  1  0  0  0
 62138  1  0  0  0
 62139  1  0  0  0
 62140  1  0  0  0
 63 65  1  0  0  0
 63141  1  0  0  0
 63142  1  0  0  0
 63143  1  0  0  0
 64144  1  0  0  0
 65145  1  0  0  0
 68 82  1  0  0  0
 71 73  2  0  0  0
 71 74  1  0  0  0
 71146  1  0  0  0
 72 74  2  0  0  0
 72 76  1  0  0  0
 72147  1  0  0  0
 73 75  1  0  0  0
 73 79  1  0  0  0
 74 83  1  0  0  0
 75 76  2  0  0  0
 75 84  1  0  0  0
 76 86  1  0  0  0
 77 80  1  0  0  0
 77 83  2  0  0  0
 77148  1  0  0  0
 78 80  1  0  0  0
 78 81  1  0  0  0
 78 85  2  0  0  0
 79149  1  0  0  0
 79150  1  0  0  0
 79151  1  0  0  0
 80152  1  0  0  0
 80153  1  0  0  0
 81 82  1  0  0  0
 81154  1  0  0  0
 81155  1  0  0  0
 82156  1  0  0  0
 82157  1  0  0  0
 84158  1  0  0  0
M  ISO  4   1 100  68 101  82 101  84 100
M  END
> <chiral flag>
0

> <version>
0

> <s_m_source_file>
/data/baiqing/PycharmProjects/Reinvent-master-3.2/result/LINK_invent/BTK/process_docking_weight1_custom_product_contain_oxygen_bond_distance_aromatic_linkinvent_7_9_3/rearranged_h_0139.sdf

> <i_m_source_file_index>
52

> <r_mmod_Potential_Energy-OPLS-2005>
-140.098022460938

> <r_mmod_Stretch_Energy-OPLS-2005>
34.3718948364258

> <r_mmod_Bend_Energy-OPLS-2005>
99.9350509643555

> <r_mmod_Torsional_Energy-OPLS-2005>
228.168487548828

> <r_mmod_Improper_Torsional_Energy-OPLS-2005>
2.47088122367859

> <r_mmod_Van_der_Waal_Energy-OPLS-2005>
159.21598815918

> <r_mmod_Electrostatic_Energy-OPLS-2005>
-440.539794921875

> <r_mmod_Solvation_Energy-OPLS-2005>
-230.983489990234

> <b_mmod_Minimization_Converged-OPLS-2005>
0

> <r_mmod_RMS_Derivative-OPLS-2005>
1.33981490135193

$$$$
52
                    3D
 Structure written by MMmdl.
164172  0  0  1  0            999 V2000
  -30.5417  -14.6555   20.4184 C   0  0  0  0  0  0
  -30.4504  -12.3712   19.4423 C   0  0  0  0  0  0
  -29.5214  -12.4773   18.2079 C   0  0  0  0  0  0
  -28.0306  -12.3326   18.6092 C   0  0  0  0  0  0
  -27.6468  -13.1991   19.8382 C   0  0  2  0  0  0
  -28.6961  -13.0430   20.9641 C   0  0  0  0  0  0
  -25.2524  -13.8127   20.5697 C   0  0  0  0  0  0
  -24.1783  -13.0413   20.9195 C   0  0  0  0  0  0
  -24.6325  -11.6830   20.8695 C   0  0  0  0  0  0
  -23.9019  -10.4302   21.0387 C   0  0  0  0  0  0
  -24.3588   -9.4203   21.9161 C   0  0  0  0  0  0
  -23.6276   -8.2217   22.0736 C   0  0  0  0  0  0
  -22.4236   -8.0257   21.3534 C   0  0  0  0  0  0
  -21.9881   -9.0225   20.4613 C   0  0  0  0  0  0
  -22.7196  -10.2106   20.3024 C   0  0  0  0  0  0
  -21.6862   -6.0695   22.5274 C   0  0  0  0  0  0
  -21.4010   -6.5611   23.8200 C   0  0  0  0  0  0
  -21.3654   -5.6777   24.9180 C   0  0  0  0  0  0
  -21.6045   -4.3038   24.7241 C   0  0  0  0  0  0
  -21.8808   -3.8115   23.4375 C   0  0  0  0  0  0
  -21.9169   -4.6917   22.3412 C   0  0  0  0  0  0
  -22.7799  -13.5176   21.1906 C   0  0  0  0  0  0
  -22.1636   -4.2102   21.1000 F   0  0  0  0  0  0
  -21.5626   -3.4523   25.7772 F   0  0  0  0  0  0
  -30.0054  -13.3996   20.4005 N   0  0  0  0  0  0
  -26.2965  -12.9270   20.3217 N   0  0  0  0  0  0
  -25.9242  -11.6435   20.5706 N   0  0  0  0  0  0
  -22.0462  -12.8154   22.0431 N   0  0  0  0  0  0
  -25.4273  -15.1889   20.4233 N   0  0  0  0  0  0
  -31.7321  -14.8672   20.1495 O   0  0  0  0  0  0
  -21.6575   -6.8821   21.4232 O   0  0  0  0  0  0
  -22.3442  -14.5482   20.6767 O   0  0  0  0  0  0
  -24.6284  -31.8581   23.2029 C   0  0  0  0  0  0
  -25.9139  -32.4811   23.8379 C   0  0  1  0  0  0
  -27.1774  -27.3139   20.1430 C   0  0  0  0  0  0
  -25.5925  -33.8588   24.2342 N   0  0  0  0  0  0
  -23.4055  -30.4799   21.5579 C   0  0  2  0  0  0
  -24.8497  -28.9636   20.0921 C   0  0  0  0  0  0
  -22.7516  -29.4438   22.5022 C   0  0  0  0  0  0
  -18.0170  -28.1440   22.8754 C   0  0  0  0  0  0
  -24.1485  -36.7335   23.2642 C   0  0  0  0  0  0
  -25.9418  -30.7982   21.3608 C   0  0  0  0  0  0
  -26.0132  -29.4184   20.7218 C   0  0  0  0  0  0
  -27.1861  -28.6049   20.7470 C   0  0  0  0  0  0
  -26.0022  -26.9287   19.4486 C   0  0  0  0  0  0
  -24.8514  -27.7318   19.4405 C   0  0  0  0  0  0
  -23.6135  -29.8423   20.1559 C   0  0  0  0  0  0
  -25.4123  -36.3098   24.0322 C   0  0  1  0  0  0
  -20.5765  -28.3539   23.1415 C   0  0  2  0  0  0
  -20.6402  -26.9252   22.5497 C   0  0  0  0  0  0
  -19.5350  -26.6122   21.5393 C   0  0  0  0  0  0
  -18.1555  -26.8037   22.1835 C   0  0  0  0  0  0
  -19.1529  -28.8867   23.2986 C   0  0  0  0  0  0
  -18.9641  -30.1649   23.8850 C   0  0  0  0  0  0
  -17.6674  -30.6805   24.0510 C   0  0  0  0  0  0
  -25.9006  -34.9457   23.5112 C   0  0  0  0  0  0
  -16.5482  -29.9326   23.6582 C   0  0  0  0  0  0
  -16.7194  -28.6645   23.0725 C   0  0  0  0  0  0
  -26.4479  -31.6545   25.0737 C   0  0  0  0  0  0
  -25.3736  -31.3577   26.1517 C   0  0  0  0  0  0
  -27.0263  -30.2987   24.6041 C   0  0  0  0  0  0
  -27.6050  -32.4280   25.7533 C   0  0  0  0  0  0
  -27.5573  -37.1823   24.8480 C   0  0  0  0  0  0
  -21.4224  -29.2935   22.3972 N   0  0  0  0  0  0
  -26.4309  -37.3773   23.9362 N   0  0  0  0  0  0
  -24.6739  -31.0654   22.0997 N   0  0  0  0  0  0
  -23.4355  -28.7957   23.3041 O   0  0  0  0  0  0
  -28.2583  -26.4434   20.2597 O   0  0  0  0  0  0
  -26.5627  -34.8921   22.4681 O   0  0  0  0  0  0
  -23.5454  -32.1357   23.7361 O   0  0  0  0  0  0
  -29.6884  -19.0014   22.1648 C   0  0  0  0  0  0
  -29.9582  -17.6426   21.8375 C   0  0  0  0  0  0
  -28.8846  -19.3734   19.9441 C   0  0  0  0  0  0
  -29.0962  -19.9183   21.2452 C   0  0  0  0  0  0
  -29.0908  -18.0037   19.6070 C   0  0  0  0  0  0
  -29.6354  -17.1004   20.5760 C   0  0  0  0  0  0
  -28.1402  -23.9953   21.2046 C   0  0  0  0  0  0
  -28.6998  -18.6082   17.0842 C   0  0  0  0  0  0
  -27.3822  -22.1705   19.5658 C   0  0  0  0  0  0
  -26.4066  -22.2499   21.7892 C   0  0  0  0  0  0
  -28.8242  -21.4173   21.6929 C   0  0  0  0  0  0
  -28.6755  -17.5253   18.2037 C   0  0  0  0  0  0
  -28.0834  -24.9972   19.9771 C   0  0  0  0  0  0
  -27.7509  -22.4525   21.0449 C   0  0  0  0  0  0
  -29.6029  -15.6536   20.4215 N   0  0  0  0  0  0
  -28.4580  -24.4318   22.3140 O   0  0  0  0  0  0
  -31.4970  -12.5309   19.1453 H   0  0  0  0  0  0
  -30.3849  -11.3742   19.8769 H   0  0  0  0  0  0
  -29.7763  -11.7160   17.4646 H   0  0  0  0  0  0
  -29.6806  -13.4389   17.7264 H   0  0  0  0  0  0
  -27.8581  -11.2856   18.8469 H   0  0  0  0  0  0
  -27.3843  -12.5572   17.7562 H   0  0  0  0  0  0
  -27.6468  -14.2250   19.4721 H   0  0  0  0  0  0
  -28.7070  -12.0195   21.3340 H   0  0  0  0  0  0
  -28.4689  -13.6726   21.8229 H   0  0  0  0  0  0
  -25.2727   -9.5612   22.4729 H   0  0  0  0  0  0
  -23.9935   -7.4588   22.7465 H   0  0  0  0  0  0
  -21.0793   -8.8693   19.8980 H   0  0  0  0  0  0
  -22.3631  -10.9588   19.6107 H   0  0  0  0  0  0
  -21.2021   -7.6122   23.9706 H   0  0  0  0  0  0
  -21.1499   -6.0516   25.9086 H   0  0  0  0  0  0
  -22.0606   -2.7576   23.2898 H   0  0  0  0  0  0
  -22.4129  -11.9790   22.4764 H   0  0  0  0  0  0
  -21.1146  -13.1179   22.2770 H   0  0  0  0  0  0
  -24.6680  -15.8500   20.5500 H   0  0  0  0  0  0
  -26.2885  -15.6406   20.1426 H   0  0  0  0  0  0
  -26.7271  -32.5506   23.1189 H   0  0  0  0  0  0
  -25.0034  -33.9706   25.0493 H   0  0  0  0  0  0
  -22.6787  -31.2935   21.4452 H   0  0  0  0  0  0
  -23.3714  -35.9677   23.3310 H   0  0  0  0  0  0
  -24.3576  -36.8950   22.2037 H   0  0  0  0  0  0
  -23.7274  -37.6545   23.6689 H   0  0  0  0  0  0
  -26.0428  -31.5413   20.5682 H   0  0  0  0  0  0
  -26.8381  -30.8636   21.9584 H   0  0  0  0  0  0
  -28.0671  -28.9628   21.2656 H   0  0  0  0  0  0
  -25.8879  -26.0120   18.8984 H   0  0  0  0  0  0
  -23.9847  -27.3656   18.9059 H   0  0  0  0  0  0
  -23.7407  -30.6375   19.4179 H   0  0  0  0  0  0
  -22.7208  -29.2874   19.8439 H   0  0  0  0  0  0
  -25.1288  -36.1895   25.0804 H   0  0  0  0  0  0
  -20.9790  -28.2996   24.1602 H   0  0  0  0  0  0
  -20.5038  -26.2310   23.3723 H   0  0  0  0  0  0
  -21.6362  -26.6830   22.1611 H   0  0  0  0  0  0
  -19.6162  -25.5922   21.1438 H   0  0  0  0  0  0
  -19.6051  -27.2837   20.6886 H   0  0  0  0  0  0
  -17.3630  -26.6875   21.4475 H   0  0  0  0  0  0
  -17.9792  -26.0070   22.9119 H   0  0  0  0  0  0
  -19.8122  -30.7505   24.2249 H   0  0  0  0  0  0
  -17.5343  -31.6471   24.5055 H   0  0  0  0  0  0
  -15.5584  -30.3309   23.8250 H   0  0  0  0  0  0
  -15.8477  -28.1109   22.7643 H   0  0  0  0  0  0
  -24.5987  -30.6862   25.7845 H   0  0  0  0  0  0
  -24.8906  -32.2674   26.5045 H   0  0  0  0  0  0
  -25.8168  -30.8718   27.0213 H   0  0  0  0  0  0
  -26.2716  -29.6870   24.1134 H   0  0  0  0  0  0
  -27.4061  -29.7140   25.4400 H   0  0  0  0  0  0
  -27.8573  -30.4382   23.9173 H   0  0  0  0  0  0
  -27.2685  -33.3609   26.2079 H   0  0  0  0  0  0
  -28.3899  -32.6761   25.0386 H   0  0  0  0  0  0
  -28.0689  -31.8416   26.5457 H   0  0  0  0  0  0
  -28.2637  -38.0071   24.7457 H   0  0  0  0  0  0
  -28.1020  -36.2593   24.6395 H   0  0  0  0  0  0
  -27.2319  -37.1621   25.8901 H   0  0  0  0  0  0
  -20.9318  -29.9336   21.7875 H   0  0  0  0  0  0
  -26.0186  -38.2845   24.1262 H   0  0  0  0  0  0
  -29.9100  -19.3014   23.1772 H   0  0  0  0  0  0
  -30.3414  -16.9478   22.5772 H   0  0  0  0  0  0
  -28.5249  -19.9968   19.1455 H   0  0  0  0  0  0
  -28.2912  -18.2103   16.1523 H   0  0  0  0  0  0
  -29.7075  -18.9850   16.8927 H   0  0  0  0  0  0
  -28.0533  -19.4632   17.2861 H   0  0  0  0  0  0
  -26.5493  -22.7995   19.2424 H   0  0  0  0  0  0
  -26.9529  -21.1819   19.4610 H   0  0  0  0  0  0
  -28.2190  -22.3172   18.8784 H   0  0  0  0  0  0
  -25.6990  -23.0301   21.5261 H   0  0  0  0  0  0
  -26.5257  -22.2356   22.8697 H   0  0  0  0  0  0
  -25.9590  -21.2926   21.5063 H   0  0  0  0  0  0
  -29.8066  -21.8815   21.6639 H   0  0  0  0  0  0
  -28.6129  -21.3516   22.7736 H   0  0  0  0  0  0
  -27.6533  -17.1269   18.2329 H   0  0  0  0  0  0
  -29.3272  -16.7103   17.8919 H   0  0  0  0  0  0
  -28.9150  -24.7133   19.3405 H   0  0  0  0  0  0
  -27.2077  -24.7596   19.3889 H   0  0  0  0  0  0
  -28.6604  -15.3099   20.3742 H   0  0  0  0  0  0
  1 25  1  0  0  0
  1 30  2  0  0  0
  1 85  1  0  0  0
  2  3  1  0  0  0
  2 25  1  0  0  0
  2 87  1  0  0  0
  2 88  1  0  0  0
  3  4  1  0  0  0
  3 89  1  0  0  0
  3 90  1  0  0  0
  4  5  1  0  0  0
  4 91  1  0  0  0
  4 92  1  0  0  0
  5  6  1  0  0  0
  5 26  1  0  0  0
  5 93  1  0  0  0
  6 25  1  0  0  0
  6 94  1  0  0  0
  6 95  1  0  0  0
  7  8  2  0  0  0
  7 26  1  0  0  0
  7 29  1  0  0  0
  8  9  1  0  0  0
  8 22  1  0  0  0
  9 10  1  0  0  0
  9 27  2  0  0  0
 10 11  2  0  0  0
 10 15  1  0  0  0
 11 12  1  0  0  0
 11 96  1  0  0  0
 12 13  2  0  0  0
 12 97  1  0  0  0
 13 14  1  0  0  0
 13 31  1  0  0  0
 14 15  2  0  0  0
 14 98  1  0  0  0
 15 99  1  0  0  0
 16 17  2  0  0  0
 16 21  1  0  0  0
 16 31  1  0  0  0
 17 18  1  0  0  0
 17100  1  0  0  0
 18 19  2  0  0  0
 18101  1  0  0  0
 19 20  1  0  0  0
 19 24  1  0  0  0
 20 21  2  0  0  0
 20102  1  0  0  0
 21 23  1  0  0  0
 22 28  1  0  0  0
 22 32  2  0  0  0
 26 27  1  0  0  0
 28103  1  0  0  0
 28104  1  0  0  0
 29105  1  0  0  0
 29106  1  0  0  0
 33 34  1  0  0  0
 33 66  1  0  0  0
 33 70  2  0  0  0
 34 36  1  0  0  0
 34 59  1  0  0  0
 34107  1  0  0  0
 35 44  2  0  0  0
 35 45  1  0  0  0
 35 68  1  0  0  0
 36 56  1  0  0  0
 36108  1  0  0  0
 37 39  1  0  0  0
 37 47  1  0  0  0
 37 66  1  0  0  0
 37109  1  0  0  0
 38 43  2  0  0  0
 38 46  1  0  0  0
 38 47  1  0  0  0
 39 64  1  0  0  0
 39 67  2  0  0  0
 40 52  1  0  0  0
 40 53  2  0  0  0
 40 58  1  0  0  0
 41110  1  0  0  0
 41111  1  0  0  0
 41112  1  0  0  0
 41 48  1  0  0  0
 42 43  1  0  0  0
 42 66  1  0  0  0
 42113  1  0  0  0
 42114  1  0  0  0
 43 44  1  0  0  0
 44115  1  0  0  0
 45 46  2  0  0  0
 45116  1  0  0  0
 46117  1  0  0  0
 47118  1  0  0  0
 47119  1  0  0  0
 48 56  1  0  0  0
 48 65  1  0  0  0
 48120  1  0  0  0
 49 50  1  0  0  0
 49 53  1  0  0  0
 49 64  1  0  0  0
 49121  1  0  0  0
 50 51  1  0  0  0
 50122  1  0  0  0
 50123  1  0  0  0
 51 52  1  0  0  0
 51124  1  0  0  0
 51125  1  0  0  0
 52126  1  0  0  0
 52127  1  0  0  0
 53 54  1  0  0  0
 54 55  2  0  0  0
 54128  1  0  0  0
 55 57  1  0  0  0
 55129  1  0  0  0
 56 69  2  0  0  0
 57 58  2  0  0  0
 57130  1  0  0  0
 58131  1  0  0  0
 59 60  1  0  0  0
 59 61  1  0  0  0
 59 62  1  0  0  0
 60132  1  0  0  0
 60133  1  0  0  0
 60134  1  0  0  0
 61135  1  0  0  0
 61136  1  0  0  0
 61137  1  0  0  0
 62138  1  0  0  0
 62139  1  0  0  0
 62140  1  0  0  0
 63 65  1  0  0  0
 63141  1  0  0  0
 63142  1  0  0  0
 63143  1  0  0  0
 64144  1  0  0  0
 65145  1  0  0  0
 68 83  1  0  0  0
 71 72  2  0  0  0
 71 74  1  0  0  0
 71146  1  0  0  0
 72 76  1  0  0  0
 72147  1  0  0  0
 73 74  2  0  0  0
 73 75  1  0  0  0
 73148  1  0  0  0
 74 81  1  0  0  0
 75 76  2  0  0  0
 75 82  1  0  0  0
 76 85  1  0  0  0
 77 83  1  0  0  0
 77 84  1  0  0  0
 77 86  2  0  0  0
 78 82  1  0  0  0
 78149  1  0  0  0
 78150  1  0  0  0
 78151  1  0  0  0
 79152  1  0  0  0
 79153  1  0  0  0
 79154  1  0  0  0
 79 84  1  0  0  0
 80 84  1  0  0  0
 80155  1  0  0  0
 80156  1  0  0  0
 80157  1  0  0  0
 81 84  1  0  0  0
 81158  1  0  0  0
 81159  1  0  0  0
 82160  1  0  0  0
 82161  1  0  0  0
 83162  1  0  0  0
 83163  1  0  0  0
 85164  1  0  0  0
M  ISO  4   1 100  68 101  83 101  85 100
M  END
> <chiral flag>
0

> <version>
0

> <s_m_source_file>
/data/baiqing/PycharmProjects/Reinvent-master-3.2/result/LINK_invent/BTK/process_docking_weight1_custom_product_contain_oxygen_bond_distance_aromatic_linkinvent_7_9_3/rearranged_h_0139.sdf

> <i_m_source_file_index>
53

> <r_mmod_Potential_Energy-OPLS-2005>
231.673599243164

> <r_mmod_Stretch_Energy-OPLS-2005>
95.0387496948242

> <r_mmod_Bend_Energy-OPLS-2005>
184.62760925293

> <r_mmod_Torsional_Energy-OPLS-2005>
265.280395507812

> <r_mmod_Improper_Torsional_Energy-OPLS-2005>
10.9714679718018

> <r_mmod_Van_der_Waal_Energy-OPLS-2005>
163.192657470703

> <r_mmod_Electrostatic_Energy-OPLS-2005>
-333.212493896484

> <r_mmod_Solvation_Energy-OPLS-2005>
-222.142379760742

> <b_mmod_Minimization_Converged-OPLS-2005>
0

> <r_mmod_RMS_Derivative-OPLS-2005>
19.6850528717041

$$$$
53
                    3D
 Structure written by MMmdl.
163171  0  0  1  0            999 V2000
  -30.7516  -14.3866   20.6622 C   0  0  0  0  0  0
  -30.4206  -12.2912   19.4013 C   0  0  0  0  0  0
  -29.4889  -12.5278   18.1973 C   0  0  0  0  0  0
  -28.0114  -12.3844   18.6094 C   0  0  0  0  0  0
  -27.6672  -13.2016   19.8814 C   0  0  2  0  0  0
  -28.7064  -12.9433   20.9972 C   0  0  0  0  0  0
  -25.2582  -13.8115   20.5644 C   0  0  0  0  0  0
  -24.1842  -13.0415   20.9169 C   0  0  0  0  0  0
  -24.6393  -11.6886   20.8730 C   0  0  0  0  0  0
  -23.9054  -10.4281   21.0398 C   0  0  0  0  0  0
  -24.3608   -9.4200   21.9177 C   0  0  0  0  0  0
  -23.6285   -8.2236   22.0752 C   0  0  0  0  0  0
  -22.4266   -8.0271   21.3542 C   0  0  0  0  0  0
  -21.9899   -9.0243   20.4642 C   0  0  0  0  0  0
  -22.7227  -10.2123   20.3050 C   0  0  0  0  0  0
  -21.6852   -6.0731   22.5280 C   0  0  0  0  0  0
  -21.4009   -6.5637   23.8212 C   0  0  0  0  0  0
  -21.3661   -5.6792   24.9174 C   0  0  0  0  0  0
  -21.6048   -4.3053   24.7224 C   0  0  0  0  0  0
  -21.8822   -3.8143   23.4346 C   0  0  0  0  0  0
  -21.9191   -4.6958   22.3401 C   0  0  0  0  0  0
  -22.7865  -13.5219   21.1837 C   0  0  0  0  0  0
  -22.1664   -4.2144   21.0978 F   0  0  0  0  0  0
  -21.5630   -3.4537   25.7737 F   0  0  0  0  0  0
  -30.0506  -13.2387   20.4636 N   0  0  0  0  0  0
  -26.3044  -12.9303   20.3373 N   0  0  0  0  0  0
  -25.9321  -11.6461   20.5761 N   0  0  0  0  0  0
  -22.0510  -12.8221   22.0402 N   0  0  0  0  0  0
  -25.4248  -15.1819   20.3976 N   0  0  0  0  0  0
  -31.7841  -14.6640   20.0454 O   0  0  0  0  0  0
  -21.6636   -6.8867   21.4238 O   0  0  0  0  0  0
  -22.3555  -14.5531   20.6690 O   0  0  0  0  0  0
  -24.6105  -31.8712   23.2101 C   0  0  0  0  0  0
  -25.9019  -32.4837   23.8391 C   0  0  1  0  0  0
  -27.2459  -27.4698   20.0954 C   0  0  0  0  0  0
  -25.5895  -33.8632   24.2338 N   0  0  0  0  0  0
  -23.3976  -30.4901   21.5515 C   0  0  2  0  0  0
  -24.8488  -28.9556   20.1176 C   0  0  0  0  0  0
  -22.7383  -29.4666   22.5027 C   0  0  0  0  0  0
  -18.0263  -28.1350   22.8498 C   0  0  0  0  0  0
  -24.1494  -36.7318   23.2636 C   0  0  0  0  0  0
  -25.9218  -30.8434   21.3618 C   0  0  0  0  0  0
  -26.0023  -29.4773   20.7176 C   0  0  0  0  0  0
  -27.2034  -28.7386   20.7118 C   0  0  0  0  0  0
  -26.0843  -26.9548   19.4877 C   0  0  0  0  0  0
  -24.8822  -27.6898   19.5025 C   0  0  0  0  0  0
  -23.6055  -29.8148   20.1685 C   0  0  0  0  0  0
  -25.4114  -36.3121   24.0339 C   0  0  1  0  0  0
  -20.5850  -28.3639   23.1332 C   0  0  2  0  0  0
  -20.6755  -26.9381   22.5418 C   0  0  0  0  0  0
  -19.5738  -26.6369   21.5205 C   0  0  0  0  0  0
  -18.1913  -26.7903   22.1613 C   0  0  0  0  0  0
  -19.1509  -28.8811   23.2915 C   0  0  0  0  0  0
  -18.9441  -30.1424   23.8914 C   0  0  0  0  0  0
  -17.6445  -30.6573   24.0549 C   0  0  0  0  0  0
  -25.9037  -34.9483   23.5137 C   0  0  0  0  0  0
  -16.5337  -29.9070   23.6317 C   0  0  0  0  0  0
  -16.7253  -28.6477   23.0357 C   0  0  0  0  0  0
  -26.4458  -31.6589   25.0698 C   0  0  0  0  0  0
  -25.3744  -31.3677   26.1457 C   0  0  0  0  0  0
  -27.0267  -30.3038   24.6032 C   0  0  0  0  0  0
  -27.6041  -32.4293   25.7468 C   0  0  0  0  0  0
  -27.5588  -37.1814   24.8461 C   0  0  0  0  0  0
  -21.4117  -29.3018   22.3751 N   0  0  0  0  0  0
  -26.4306  -37.3796   23.9402 N   0  0  0  0  0  0
  -24.6609  -31.0825   22.0999 N   0  0  0  0  0  0
  -23.4161  -28.8218   23.3072 O   0  0  0  0  0  0
  -28.4076  -26.7408   20.0399 O   0  0  0  0  0  0
  -26.5592  -34.8927   22.4693 O   0  0  0  0  0  0
  -23.5305  -32.1450   23.7517 O   0  0  0  0  0  0
  -27.4057  -18.1788   20.3941 C   0  0  0  0  0  0
  -28.3443  -17.2481   20.8602 C   0  0  0  0  0  0
  -27.7294  -19.5413   20.3513 C   0  0  0  0  0  0
  -29.6250  -17.6611   21.2923 C   0  0  0  0  0  0
  -29.9499  -19.0498   21.2646 C   0  0  0  0  0  0
  -29.0014  -19.9969   20.7750 C   0  0  0  0  0  0
  -28.7325  -22.4450   20.2109 C   0  0  0  0  0  0
  -32.3585  -19.6056   20.6382 C   0  0  0  0  0  0
  -31.3173  -19.5279   21.7621 C   0  0  0  0  0  0
  -30.6265  -16.6125   21.8016 C   0  0  0  0  0  0
  -29.3631  -23.8165   20.4646 C   0  0  0  0  0  0
  -28.4714  -24.7091   21.3536 C   0  0  0  0  0  0
  -28.8394  -26.2010   21.2873 C   0  0  0  0  0  0
  -29.3532  -21.3844   20.7630 N   0  0  0  0  0  0
  -30.2295  -15.2218   21.5689 N   0  0  0  0  0  0
  -27.7236  -22.3838   19.5060 O   0  0  0  0  0  0
  -31.4634  -12.3919   19.0964 H   0  0  0  0  0  0
  -30.3171  -11.2690   19.7672 H   0  0  0  0  0  0
  -29.7220  -11.8268   17.3944 H   0  0  0  0  0  0
  -29.6604  -13.5260   17.7909 H   0  0  0  0  0  0
  -27.8130  -11.3260   18.7811 H   0  0  0  0  0  0
  -27.3613  -12.6844   17.7867 H   0  0  0  0  0  0
  -27.7241  -14.2552   19.6079 H   0  0  0  0  0  0
  -28.6699  -11.8982   21.3096 H   0  0  0  0  0  0
  -28.4544  -13.5152   21.8908 H   0  0  0  0  0  0
  -25.2756   -9.5681   22.4746 H   0  0  0  0  0  0
  -24.0000   -7.4630   22.7474 H   0  0  0  0  0  0
  -21.0830   -8.8754   19.8949 H   0  0  0  0  0  0
  -22.3680  -10.9657   19.6157 H   0  0  0  0  0  0
  -21.2002   -7.6146   23.9711 H   0  0  0  0  0  0
  -21.1482   -6.0521   25.9077 H   0  0  0  0  0  0
  -22.0598   -2.7605   23.2846 H   0  0  0  0  0  0
  -22.4130  -11.9880   22.4789 H   0  0  0  0  0  0
  -21.1128  -13.1245   22.2611 H   0  0  0  0  0  0
  -24.6505  -15.8292   20.4935 H   0  0  0  0  0  0
  -26.2620  -15.6114   20.0290 H   0  0  0  0  0  0
  -26.7095  -32.5567   23.1160 H   0  0  0  0  0  0
  -25.0065  -33.9806   25.0494 H   0  0  0  0  0  0
  -22.6851  -31.3048   21.4102 H   0  0  0  0  0  0
  -23.3763  -35.9645   23.3300 H   0  0  0  0  0  0
  -24.3593  -36.8915   22.2048 H   0  0  0  0  0  0
  -23.7244  -37.6526   23.6642 H   0  0  0  0  0  0
  -26.0295  -31.6069   20.5897 H   0  0  0  0  0  0
  -26.8117  -30.9012   21.9766 H   0  0  0  0  0  0
  -28.0964  -29.1429   21.1682 H   0  0  0  0  0  0
  -26.1140  -25.9864   19.0074 H   0  0  0  0  0  0
  -23.9975  -27.2813   19.0336 H   0  0  0  0  0  0
  -23.7028  -30.5841   19.4016 H   0  0  0  0  0  0
  -22.7330  -29.2240   19.8839 H   0  0  0  0  0  0
  -25.1293  -36.1988   25.0833 H   0  0  0  0  0  0
  -20.9942  -28.3197   24.1451 H   0  0  0  0  0  0
  -20.5635  -26.2248   23.3599 H   0  0  0  0  0  0
  -21.6634  -26.7418   22.1223 H   0  0  0  0  0  0
  -19.6902  -25.6285   21.1219 H   0  0  0  0  0  0
  -19.6678  -27.3193   20.6748 H   0  0  0  0  0  0
  -17.4190  -26.6661   21.4008 H   0  0  0  0  0  0
  -18.0303  -26.0031   22.8992 H   0  0  0  0  0  0
  -19.7921  -30.7226   24.2294 H   0  0  0  0  0  0
  -17.5004  -31.6255   24.5138 H   0  0  0  0  0  0
  -15.5336  -30.2972   23.7637 H   0  0  0  0  0  0
  -15.8652  -28.0792   22.7087 H   0  0  0  0  0  0
  -24.5929  -30.7006   25.7796 H   0  0  0  0  0  0
  -24.8924  -32.2825   26.4922 H   0  0  0  0  0  0
  -25.8125  -30.8842   27.0200 H   0  0  0  0  0  0
  -26.2789  -29.6831   24.1087 H   0  0  0  0  0  0
  -27.4047  -29.7234   25.4456 H   0  0  0  0  0  0
  -27.8617  -30.4357   23.9149 H   0  0  0  0  0  0
  -27.2669  -33.3573   26.2100 H   0  0  0  0  0  0
  -28.3838  -32.6884   25.0291 H   0  0  0  0  0  0
  -28.0730  -31.8383   26.5345 H   0  0  0  0  0  0
  -28.2617  -38.0103   24.7526 H   0  0  0  0  0  0
  -28.1084  -36.2645   24.6287 H   0  0  0  0  0  0
  -27.2311  -37.1453   25.8864 H   0  0  0  0  0  0
  -20.9271  -29.8731   21.6970 H   0  0  0  0  0  0
  -26.0204  -38.2880   24.1393 H   0  0  0  0  0  0
  -26.4274  -17.8503   20.0750 H   0  0  0  0  0  0
  -28.0532  -16.2104   20.8903 H   0  0  0  0  0  0
  -26.9629  -20.2140   20.0013 H   0  0  0  0  0  0
  -33.3216  -19.9400   21.0245 H   0  0  0  0  0  0
  -32.0535  -20.3072   19.8612 H   0  0  0  0  0  0
  -32.5136  -18.6363   20.1646 H   0  0  0  0  0  0
  -31.6860  -18.8817   22.5570 H   0  0  0  0  0  0
  -31.2262  -20.5008   22.2434 H   0  0  0  0  0  0
  -30.7458  -16.7428   22.8774 H   0  0  0  0  0  0
  -31.6057  -16.8036   21.3612 H   0  0  0  0  0  0
  -29.5083  -24.2892   19.4923 H   0  0  0  0  0  0
  -30.3558  -23.7134   20.9065 H   0  0  0  0  0  0
  -27.4185  -24.5875   21.0947 H   0  0  0  0  0  0
  -28.5646  -24.3676   22.3848 H   0  0  0  0  0  0
  -29.9179  -26.3316   21.3825 H   0  0  0  0  0  0
  -28.3922  -26.7268   22.1337 H   0  0  0  0  0  0
  -30.2113  -21.6101   21.2453 H   0  0  0  0  0  0
  -29.4237  -14.8883   22.0746 H   0  0  0  0  0  0
  1 25  1  0  0  0
  1 30  2  0  0  0
  1 85  1  0  0  0
  2  3  1  0  0  0
  2 25  1  0  0  0
  2 87  1  0  0  0
  2 88  1  0  0  0
  3  4  1  0  0  0
  3 89  1  0  0  0
  3 90  1  0  0  0
  4  5  1  0  0  0
  4 91  1  0  0  0
  4 92  1  0  0  0
  5  6  1  0  0  0
  5 26  1  0  0  0
  5 93  1  0  0  0
  6 25  1  0  0  0
  6 94  1  0  0  0
  6 95  1  0  0  0
  7  8  2  0  0  0
  7 26  1  0  0  0
  7 29  1  0  0  0
  8  9  1  0  0  0
  8 22  1  0  0  0
  9 10  1  0  0  0
  9 27  2  0  0  0
 10 11  2  0  0  0
 10 15  1  0  0  0
 11 12  1  0  0  0
 11 96  1  0  0  0
 12 13  2  0  0  0
 12 97  1  0  0  0
 13 14  1  0  0  0
 13 31  1  0  0  0
 14 15  2  0  0  0
 14 98  1  0  0  0
 15 99  1  0  0  0
 16 17  2  0  0  0
 16 21  1  0  0  0
 16 31  1  0  0  0
 17 18  1  0  0  0
 17100  1  0  0  0
 18 19  2  0  0  0
 18101  1  0  0  0
 19 20  1  0  0  0
 19 24  1  0  0  0
 20 21  2  0  0  0
 20102  1  0  0  0
 21 23  1  0  0  0
 22 28  1  0  0  0
 22 32  2  0  0  0
 26 27  1  0  0  0
 28103  1  0  0  0
 28104  1  0  0  0
 29105  1  0  0  0
 29106  1  0  0  0
 33 34  1  0  0  0
 33 66  1  0  0  0
 33 70  2  0  0  0
 34 36  1  0  0  0
 34 59  1  0  0  0
 34107  1  0  0  0
 35 44  2  0  0  0
 35 45  1  0  0  0
 35 68  1  0  0  0
 36 56  1  0  0  0
 36108  1  0  0  0
 37 39  1  0  0  0
 37 47  1  0  0  0
 37 66  1  0  0  0
 37109  1  0  0  0
 38 43  2  0  0  0
 38 46  1  0  0  0
 38 47  1  0  0  0
 39 64  1  0  0  0
 39 67  2  0  0  0
 40 52  1  0  0  0
 40 53  2  0  0  0
 40 58  1  0  0  0
 41110  1  0  0  0
 41111  1  0  0  0
 41112  1  0  0  0
 41 48  1  0  0  0
 42 43  1  0  0  0
 42 66  1  0  0  0
 42113  1  0  0  0
 42114  1  0  0  0
 43 44  1  0  0  0
 44115  1  0  0  0
 45 46  2  0  0  0
 45116  1  0  0  0
 46117  1  0  0  0
 47118  1  0  0  0
 47119  1  0  0  0
 48 56  1  0  0  0
 48 65  1  0  0  0
 48120  1  0  0  0
 49 50  1  0  0  0
 49 53  1  0  0  0
 49 64  1  0  0  0
 49121  1  0  0  0
 50 51  1  0  0  0
 50122  1  0  0  0
 50123  1  0  0  0
 51 52  1  0  0  0
 51124  1  0  0  0
 51125  1  0  0  0
 52126  1  0  0  0
 52127  1  0  0  0
 53 54  1  0  0  0
 54 55  2  0  0  0
 54128  1  0  0  0
 55 57  1  0  0  0
 55129  1  0  0  0
 56 69  2  0  0  0
 57 58  2  0  0  0
 57130  1  0  0  0
 58131  1  0  0  0
 59 60  1  0  0  0
 59 61  1  0  0  0
 59 62  1  0  0  0
 60132  1  0  0  0
 60133  1  0  0  0
 60134  1  0  0  0
 61135  1  0  0  0
 61136  1  0  0  0
 61137  1  0  0  0
 62138  1  0  0  0
 62139  1  0  0  0
 62140  1  0  0  0
 63 65  1  0  0  0
 63141  1  0  0  0
 63142  1  0  0  0
 63143  1  0  0  0
 64144  1  0  0  0
 65145  1  0  0  0
 68 83  1  0  0  0
 71 72  2  0  0  0
 71 73  1  0  0  0
 71146  1  0  0  0
 72 74  1  0  0  0
 72147  1  0  0  0
 73 76  2  0  0  0
 73148  1  0  0  0
 74 75  2  0  0  0
 74 80  1  0  0  0
 75 76  1  0  0  0
 75 79  1  0  0  0
 76 84  1  0  0  0
 77 81  1  0  0  0
 77 84  1  0  0  0
 77 86  2  0  0  0
 78 79  1  0  0  0
 78149  1  0  0  0
 78150  1  0  0  0
 78151  1  0  0  0
 79152  1  0  0  0
 79153  1  0  0  0
 80 85  1  0  0  0
 80154  1  0  0  0
 80155  1  0  0  0
 81 82  1  0  0  0
 81156  1  0  0  0
 81157  1  0  0  0
 82 83  1  0  0  0
 82158  1  0  0  0
 82159  1  0  0  0
 83160  1  0  0  0
 83161  1  0  0  0
 84162  1  0  0  0
 85163  1  0  0  0
M  ISO  4   1 100  68 101  83 101  85 100
M  END
> <chiral flag>
0

> <version>
0

> <s_m_source_file>
/data/baiqing/PycharmProjects/Reinvent-master-3.2/result/LINK_invent/BTK/process_docking_weight1_custom_product_contain_oxygen_bond_distance_aromatic_linkinvent_7_9_3/rearranged_h_0139.sdf

> <i_m_source_file_index>
54

> <r_mmod_Potential_Energy-OPLS-2005>
-187.996398925781

> <r_mmod_Stretch_Energy-OPLS-2005>
36.4952125549316

> <r_mmod_Bend_Energy-OPLS-2005>
93.827522277832

> <r_mmod_Torsional_Energy-OPLS-2005>
224.611480712891

> <r_mmod_Improper_Torsional_Energy-OPLS-2005>
2.3102867603302

> <r_mmod_Van_der_Waal_Energy-OPLS-2005>
159.725708007812

> <r_mmod_Electrostatic_Energy-OPLS-2005>
-482.789611816406

> <r_mmod_Solvation_Energy-OPLS-2005>
-228.274810791016

> <b_mmod_Minimization_Converged-OPLS-2005>
0

> <r_mmod_RMS_Derivative-OPLS-2005>
1.23922371864319

$$$$
54
                    3D
 Structure written by MMmdl.
163171  0  0  1  0            999 V2000
  -30.6779  -14.5207   20.4734 C   0  0  0  0  0  0
  -30.4200  -12.3012   19.4545 C   0  0  0  0  0  0
  -29.4970  -12.4399   18.2237 C   0  0  0  0  0  0
  -28.0154  -12.3347   18.6315 C   0  0  0  0  0  0
  -27.6546  -13.2095   19.8630 C   0  0  2  0  0  0
  -28.6954  -13.0499   20.9950 C   0  0  0  0  0  0
  -25.2565  -13.8173   20.5672 C   0  0  0  0  0  0
  -24.1817  -13.0450   20.9177 C   0  0  0  0  0  0
  -24.6371  -11.6917   20.8731 C   0  0  0  0  0  0
  -23.9044  -10.4300   21.0403 C   0  0  0  0  0  0
  -24.3608   -9.4218   21.9180 C   0  0  0  0  0  0
  -23.6296   -8.2247   22.0748 C   0  0  0  0  0  0
  -22.4282   -8.0273   21.3538 C   0  0  0  0  0  0
  -21.9905   -9.0241   20.4643 C   0  0  0  0  0  0
  -22.7218  -10.2128   20.3053 C   0  0  0  0  0  0
  -21.6853   -6.0730   22.5272 C   0  0  0  0  0  0
  -21.4012   -6.5637   23.8202 C   0  0  0  0  0  0
  -21.3663   -5.6793   24.9168 C   0  0  0  0  0  0
  -21.6048   -4.3055   24.7222 C   0  0  0  0  0  0
  -21.8821   -3.8145   23.4343 C   0  0  0  0  0  0
  -21.9192   -4.6959   22.3397 C   0  0  0  0  0  0
  -22.7840  -13.5249   21.1845 C   0  0  0  0  0  0
  -22.1664   -4.2143   21.0976 F   0  0  0  0  0  0
  -21.5631   -3.4542   25.7738 F   0  0  0  0  0  0
  -30.0240  -13.3280   20.4319 N   0  0  0  0  0  0
  -26.2987  -12.9345   20.3323 N   0  0  0  0  0  0
  -25.9301  -11.6509   20.5782 N   0  0  0  0  0  0
  -22.0487  -12.8234   22.0401 N   0  0  0  0  0  0
  -25.4314  -15.1886   20.4081 N   0  0  0  0  0  0
  -31.8551  -14.6462   20.1283 O   0  0  0  0  0  0
  -21.6646   -6.8872   21.4234 O   0  0  0  0  0  0
  -22.3527  -14.5558   20.6697 O   0  0  0  0  0  0
  -24.6151  -31.8665   23.2076 C   0  0  0  0  0  0
  -25.9044  -32.4811   23.8377 C   0  0  1  0  0  0
  -27.2374  -27.4232   20.0935 C   0  0  0  0  0  0
  -25.5901  -33.8607   24.2307 N   0  0  0  0  0  0
  -23.4024  -30.4893   21.5475 C   0  0  2  0  0  0
  -24.8478  -28.9502   20.1107 C   0  0  0  0  0  0
  -22.7409  -29.4649   22.4974 C   0  0  0  0  0  0
  -18.0273  -28.1390   22.8489 C   0  0  0  0  0  0
  -24.1485  -36.7301   23.2638 C   0  0  0  0  0  0
  -25.9307  -30.8270   21.3626 C   0  0  0  0  0  0
  -26.0053  -29.4593   20.7114 C   0  0  0  0  0  0
  -27.1957  -28.6976   20.7081 C   0  0  0  0  0  0
  -26.0596  -26.9258   19.4911 C   0  0  0  0  0  0
  -24.8695  -27.6818   19.5025 C   0  0  0  0  0  0
  -23.6099  -29.8192   20.1617 C   0  0  0  0  0  0
  -25.4109  -36.3103   24.0332 C   0  0  1  0  0  0
  -20.5861  -28.3664   23.1322 C   0  0  2  0  0  0
  -20.6763  -26.9398   22.5423 C   0  0  0  0  0  0
  -19.5739  -26.6393   21.5219 C   0  0  0  0  0  0
  -18.1917  -26.7936   22.1628 C   0  0  0  0  0  0
  -19.1523  -28.8843   23.2904 C   0  0  0  0  0  0
  -18.9452  -30.1449   23.8913 C   0  0  0  0  0  0
  -17.6454  -30.6591   24.0564 C   0  0  0  0  0  0
  -25.9038  -34.9469   23.5118 C   0  0  0  0  0  0
  -16.5344  -29.9093   23.6326 C   0  0  0  0  0  0
  -16.7263  -28.6514   23.0343 C   0  0  0  0  0  0
  -26.4470  -31.6607   25.0718 C   0  0  0  0  0  0
  -25.3736  -31.3707   26.1466 C   0  0  0  0  0  0
  -27.0295  -30.3052   24.6094 C   0  0  0  0  0  0
  -27.6051  -32.4327   25.7477 C   0  0  0  0  0  0
  -27.5573  -37.1802   24.8465 C   0  0  0  0  0  0
  -21.4136  -29.3026   22.3718 N   0  0  0  0  0  0
  -26.4288  -37.3797   23.9408 N   0  0  0  0  0  0
  -24.6674  -31.0763   22.0977 N   0  0  0  0  0  0
  -23.4180  -28.8205   23.3025 O   0  0  0  0  0  0
  -28.4205  -26.7110   20.1427 O   0  0  0  0  0  0
  -26.5608  -34.8923   22.4682 O   0  0  0  0  0  0
  -23.5343  -32.1419   23.7472 O   0  0  0  0  0  0
  -29.5468  -18.0473   20.0655 C   0  0  0  0  0  0
  -29.5497  -18.7250   17.7330 C   0  0  0  0  0  0
  -29.9798  -16.4107   18.3105 C   0  0  0  0  0  0
  -29.4286  -19.0951   19.0967 C   0  0  0  0  0  0
  -29.8286  -16.6980   19.6861 C   0  0  0  0  0  0
  -29.8292  -17.4092   17.3445 C   0  0  0  0  0  0
  -26.9906  -20.6879   17.1533 C   0  0  0  0  0  0
  -29.2350  -20.5792   19.5573 C   0  0  0  0  0  0
  -27.4985  -21.8443   18.0266 C   0  0  0  0  0  0
  -28.5070  -24.1890   19.7641 C   0  0  0  0  0  0
  -29.4519  -23.1817   19.0275 C   0  0  0  0  0  0
  -28.6894  -25.6428   19.2231 C   0  0  0  0  0  0
  -28.9653  -21.7652   18.5300 C   0  0  1  0  0  0
  -29.9014  -15.6187   20.6409 N   0  0  0  0  0  0
  -29.8219  -21.6238   17.4096 O   0  0  0  0  0  0
  -29.9566  -17.1029   16.0315 F   0  0  0  0  0  0
  -31.4666  -12.3881   19.1559 H   0  0  0  0  0  0
  -30.3189  -11.3094   19.8977 H   0  0  0  0  0  0
  -29.7330  -11.6636   17.4948 H   0  0  0  0  0  0
  -29.6719  -13.3841   17.7144 H   0  0  0  0  0  0
  -27.8178  -11.2858   18.8546 H   0  0  0  0  0  0
  -27.3724  -12.5901   17.7884 H   0  0  0  0  0  0
  -27.6829  -14.2452   19.5246 H   0  0  0  0  0  0
  -28.6686  -12.0379   21.4020 H   0  0  0  0  0  0
  -28.4662  -13.7144   21.8294 H   0  0  0  0  0  0
  -25.2751   -9.5708   22.4755 H   0  0  0  0  0  0
  -24.0009   -7.4646   22.7469 H   0  0  0  0  0  0
  -21.0833   -8.8748   19.8958 H   0  0  0  0  0  0
  -22.3661  -10.9661   19.6164 H   0  0  0  0  0  0
  -21.2005   -7.6146   23.9702 H   0  0  0  0  0  0
  -21.1487   -6.0526   25.9069 H   0  0  0  0  0  0
  -22.0601   -2.7607   23.2841 H   0  0  0  0  0  0
  -22.4122  -11.9898   22.4777 H   0  0  0  0  0  0
  -21.1100  -13.1242   22.2619 H   0  0  0  0  0  0
  -24.6683  -15.8477   20.5165 H   0  0  0  0  0  0
  -26.2873  -15.6234   20.0878 H   0  0  0  0  0  0
  -26.7118  -32.5511   23.1142 H   0  0  0  0  0  0
  -25.0068  -33.9757   25.0465 H   0  0  0  0  0  0
  -22.6924  -31.3069   21.4091 H   0  0  0  0  0  0
  -23.3742  -35.9640   23.3318 H   0  0  0  0  0  0
  -24.3584  -36.8898   22.2050 H   0  0  0  0  0  0
  -23.7240  -37.6505   23.6649 H   0  0  0  0  0  0
  -26.0454  -31.5937   20.5946 H   0  0  0  0  0  0
  -26.8179  -30.8795   21.9816 H   0  0  0  0  0  0
  -28.0882  -29.0852   21.1792 H   0  0  0  0  0  0
  -26.0393  -25.9487   19.0312 H   0  0  0  0  0  0
  -23.9759  -27.2778   19.0460 H   0  0  0  0  0  0
  -23.7206  -30.5946   19.4030 H   0  0  0  0  0  0
  -22.7324  -29.2410   19.8653 H   0  0  0  0  0  0
  -25.1291  -36.1961   25.0826 H   0  0  0  0  0  0
  -20.9955  -28.3238   24.1443 H   0  0  0  0  0  0
  -20.5684  -26.2266   23.3611 H   0  0  0  0  0  0
  -21.6633  -26.7455   22.1204 H   0  0  0  0  0  0
  -19.6897  -25.6311   21.1232 H   0  0  0  0  0  0
  -19.6686  -27.3220   20.6761 H   0  0  0  0  0  0
  -17.4190  -26.6687   21.4025 H   0  0  0  0  0  0
  -18.0307  -26.0090   22.9035 H   0  0  0  0  0  0
  -19.7929  -30.7258   24.2296 H   0  0  0  0  0  0
  -17.5011  -31.6271   24.5165 H   0  0  0  0  0  0
  -15.5344  -30.2996   23.7646 H   0  0  0  0  0  0
  -15.8667  -28.0838   22.7044 H   0  0  0  0  0  0
  -24.5914  -30.7056   25.7796 H   0  0  0  0  0  0
  -24.8922  -32.2856   26.4931 H   0  0  0  0  0  0
  -25.8092  -30.8865   27.0218 H   0  0  0  0  0  0
  -26.2835  -29.6819   24.1153 H   0  0  0  0  0  0
  -27.4072  -29.7288   25.4550 H   0  0  0  0  0  0
  -27.8675  -30.4374   23.9245 H   0  0  0  0  0  0
  -27.2683  -33.3620   26.2089 H   0  0  0  0  0  0
  -28.3846  -32.6897   25.0292 H   0  0  0  0  0  0
  -28.0747  -31.8435   26.5361 H   0  0  0  0  0  0
  -28.2604  -38.0086   24.7511 H   0  0  0  0  0  0
  -28.1058  -36.2617   24.6304 H   0  0  0  0  0  0
  -27.2296  -37.1473   25.8870 H   0  0  0  0  0  0
  -20.9304  -29.8739   21.6931 H   0  0  0  0  0  0
  -26.0167  -38.2872   24.1414 H   0  0  0  0  0  0
  -29.4450  -18.2906   21.1141 H   0  0  0  0  0  0
  -29.4454  -19.4217   16.9240 H   0  0  0  0  0  0
  -30.2037  -15.4171   17.9615 H   0  0  0  0  0  0
  -25.9638  -20.8742   16.8371 H   0  0  0  0  0  0
  -26.9925  -19.7424   17.6945 H   0  0  0  0  0  0
  -27.5880  -20.5724   16.2490 H   0  0  0  0  0  0
  -30.1490  -20.8144   20.1033 H   0  0  0  0  0  0
  -28.4503  -20.5953   20.3145 H   0  0  0  0  0  0
  -26.8329  -21.9224   18.8866 H   0  0  0  0  0  0
  -27.3608  -22.7689   17.4626 H   0  0  0  0  0  0
  -28.7395  -24.1617   20.8284 H   0  0  0  0  0  0
  -27.4569  -23.9151   19.6891 H   0  0  0  0  0  0
  -30.3637  -23.0666   19.6154 H   0  0  0  0  0  0
  -29.7927  -23.7385   18.1520 H   0  0  0  0  0  0
  -28.1708  -25.7739   18.2725 H   0  0  0  0  0  0
  -29.7430  -25.7863   18.9811 H   0  0  0  0  0  0
  -29.0650  -15.4765   21.1880 H   0  0  0  0  0  0
  -29.5609  -22.2633   16.7570 H   0  0  0  0  0  0
  1 25  1  0  0  0
  1 30  2  0  0  0
  1 84  1  0  0  0
  2  3  1  0  0  0
  2 25  1  0  0  0
  2 87  1  0  0  0
  2 88  1  0  0  0
  3  4  1  0  0  0
  3 89  1  0  0  0
  3 90  1  0  0  0
  4  5  1  0  0  0
  4 91  1  0  0  0
  4 92  1  0  0  0
  5  6  1  0  0  0
  5 26  1  0  0  0
  5 93  1  0  0  0
  6 25  1  0  0  0
  6 94  1  0  0  0
  6 95  1  0  0  0
  7  8  2  0  0  0
  7 26  1  0  0  0
  7 29  1  0  0  0
  8  9  1  0  0  0
  8 22  1  0  0  0
  9 10  1  0  0  0
  9 27  2  0  0  0
 10 11  2  0  0  0
 10 15  1  0  0  0
 11 12  1  0  0  0
 11 96  1  0  0  0
 12 13  2  0  0  0
 12 97  1  0  0  0
 13 14  1  0  0  0
 13 31  1  0  0  0
 14 15  2  0  0  0
 14 98  1  0  0  0
 15 99  1  0  0  0
 16 17  2  0  0  0
 16 21  1  0  0  0
 16 31  1  0  0  0
 17 18  1  0  0  0
 17100  1  0  0  0
 18 19  2  0  0  0
 18101  1  0  0  0
 19 20  1  0  0  0
 19 24  1  0  0  0
 20 21  2  0  0  0
 20102  1  0  0  0
 21 23  1  0  0  0
 22 28  1  0  0  0
 22 32  2  0  0  0
 26 27  1  0  0  0
 28103  1  0  0  0
 28104  1  0  0  0
 29105  1  0  0  0
 29106  1  0  0  0
 33 34  1  0  0  0
 33 66  1  0  0  0
 33 70  2  0  0  0
 34 36  1  0  0  0
 34 59  1  0  0  0
 34107  1  0  0  0
 35 44  2  0  0  0
 35 45  1  0  0  0
 35 68  1  0  0  0
 36 56  1  0  0  0
 36108  1  0  0  0
 37 39  1  0  0  0
 37 47  1  0  0  0
 37 66  1  0  0  0
 37109  1  0  0  0
 38 43  2  0  0  0
 38 46  1  0  0  0
 38 47  1  0  0  0
 39 64  1  0  0  0
 39 67  2  0  0  0
 40 52  1  0  0  0
 40 53  2  0  0  0
 40 58  1  0  0  0
 41110  1  0  0  0
 41111  1  0  0  0
 41112  1  0  0  0
 41 48  1  0  0  0
 42 43  1  0  0  0
 42 66  1  0  0  0
 42113  1  0  0  0
 42114  1  0  0  0
 43 44  1  0  0  0
 44115  1  0  0  0
 45 46  2  0  0  0
 45116  1  0  0  0
 46117  1  0  0  0
 47118  1  0  0  0
 47119  1  0  0  0
 48 56  1  0  0  0
 48 65  1  0  0  0
 48120  1  0  0  0
 49 50  1  0  0  0
 49 53  1  0  0  0
 49 64  1  0  0  0
 49121  1  0  0  0
 50 51  1  0  0  0
 50122  1  0  0  0
 50123  1  0  0  0
 51 52  1  0  0  0
 51124  1  0  0  0
 51125  1  0  0  0
 52126  1  0  0  0
 52127  1  0  0  0
 53 54  1  0  0  0
 54 55  2  0  0  0
 54128  1  0  0  0
 55 57  1  0  0  0
 55129  1  0  0  0
 56 69  2  0  0  0
 57 58  2  0  0  0
 57130  1  0  0  0
 58131  1  0  0  0
 59 60  1  0  0  0
 59 61  1  0  0  0
 59 62  1  0  0  0
 60132  1  0  0  0
 60133  1  0  0  0
 60134  1  0  0  0
 61135  1  0  0  0
 61136  1  0  0  0
 61137  1  0  0  0
 62138  1  0  0  0
 62139  1  0  0  0
 62140  1  0  0  0
 63 65  1  0  0  0
 63141  1  0  0  0
 63142  1  0  0  0
 63143  1  0  0  0
 64144  1  0  0  0
 65145  1  0  0  0
 68 82  1  0  0  0
 71 74  2  0  0  0
 71 75  1  0  0  0
 71146  1  0  0  0
 72 74  1  0  0  0
 72 76  2  0  0  0
 72147  1  0  0  0
 73 75  2  0  0  0
 73 76  1  0  0  0
 73148  1  0  0  0
 74 78  1  0  0  0
 75 84  1  0  0  0
 76 86  1  0  0  0
 77 79  1  0  0  0
 77149  1  0  0  0
 77150  1  0  0  0
 77151  1  0  0  0
 78 83  1  0  0  0
 78152  1  0  0  0
 78153  1  0  0  0
 79 83  1  0  0  0
 79154  1  0  0  0
 79155  1  0  0  0
 80 81  1  0  0  0
 80 82  1  0  0  0
 80156  1  0  0  0
 80157  1  0  0  0
 81 83  1  0  0  0
 81158  1  0  0  0
 81159  1  0  0  0
 82160  1  0  0  0
 82161  1  0  0  0
 83 85  1  0  0  0
 84162  1  0  0  0
 85163  1  0  0  0
M  ISO  4   1 100  68 101  82 101  84 100
M  END
> <chiral flag>
0

> <version>
0

> <s_m_source_file>
/data/baiqing/PycharmProjects/Reinvent-master-3.2/result/LINK_invent/BTK/process_docking_weight1_custom_product_contain_oxygen_bond_distance_aromatic_linkinvent_7_9_3/rearranged_h_0139.sdf

> <i_m_source_file_index>
55

> <r_mmod_Potential_Energy-OPLS-2005>
81.4995651245117

> <r_mmod_Stretch_Energy-OPLS-2005>
53.5570182800293

> <r_mmod_Bend_Energy-OPLS-2005>
138.198120117188

> <r_mmod_Torsional_Energy-OPLS-2005>
280.536468505859

> <r_mmod_Improper_Torsional_Energy-OPLS-2005>
8.7722635269165

> <r_mmod_Van_der_Waal_Energy-OPLS-2005>
167.443740844727

> <r_mmod_Electrostatic_Energy-OPLS-2005>
-376.016754150391

> <r_mmod_Solvation_Energy-OPLS-2005>
-213.21174621582

> <b_mmod_Minimization_Converged-OPLS-2005>
0

> <r_mmod_RMS_Derivative-OPLS-2005>
1.22848987579346

$$$$
55
                    3D
 Structure written by MMmdl.
174182  0  0  1  0            999 V2000
  -30.5382  -14.9625   20.3886 C   0  0  0  0  0  0
  -30.4363  -12.5910   19.4995 C   0  0  0  0  0  0
  -29.5223  -12.5272   18.2524 C   0  0  0  0  0  0
  -28.0558  -12.3137   18.6709 C   0  0  0  0  0  0
  -27.6287  -13.2492   19.8325 C   0  0  2  0  0  0
  -28.6691  -13.2910   20.9706 C   0  0  0  0  0  0
  -25.2461  -13.8218   20.5699 C   0  0  0  0  0  0
  -24.1780  -13.0441   20.9218 C   0  0  0  0  0  0
  -24.6398  -11.6927   20.8759 C   0  0  0  0  0  0
  -23.9085  -10.4299   21.0419 C   0  0  0  0  0  0
  -24.3632   -9.4215   21.9196 C   0  0  0  0  0  0
  -23.6292   -8.2258   22.0770 C   0  0  0  0  0  0
  -22.4274   -8.0295   21.3553 C   0  0  0  0  0  0
  -21.9911   -9.0280   20.4662 C   0  0  0  0  0  0
  -22.7256  -10.2151   20.3069 C   0  0  0  0  0  0
  -21.6855   -6.0751   22.5294 C   0  0  0  0  0  0
  -21.4018   -6.5649   23.8226 C   0  0  0  0  0  0
  -21.3652   -5.6794   24.9184 C   0  0  0  0  0  0
  -21.6037   -4.3056   24.7227 C   0  0  0  0  0  0
  -21.8812   -3.8161   23.4342 C   0  0  0  0  0  0
  -21.9189   -4.6984   22.3408 C   0  0  0  0  0  0
  -22.7805  -13.5221   21.1864 C   0  0  0  0  0  0
  -22.1659   -4.2175   21.0982 F   0  0  0  0  0  0
  -21.5627   -3.4533   25.7733 F   0  0  0  0  0  0
  -29.9437  -13.7006   20.3685 N   0  0  0  0  0  0
  -26.2882  -12.9456   20.3200 N   0  0  0  0  0  0
  -25.9322  -11.6584   20.5706 N   0  0  0  0  0  0
  -22.0429  -12.8248   22.0424 N   0  0  0  0  0  0
  -25.4123  -15.1946   20.4157 N   0  0  0  0  0  0
  -31.7488  -14.9902   20.1385 O   0  0  0  0  0  0
  -21.6628   -6.8904   21.4256 O   0  0  0  0  0  0
  -22.3507  -14.5518   20.6684 O   0  0  0  0  0  0
  -24.6503  -31.8431   23.1898 C   0  0  0  0  0  0
  -25.9252  -32.4699   23.8289 C   0  0  1  0  0  0
  -27.2075  -27.0985   20.1198 C   0  0  0  0  0  0
  -25.5967  -33.8495   24.2186 N   0  0  0  0  0  0
  -23.4521  -30.4699   21.5384 C   0  0  2  0  0  0
  -24.8935  -28.9003   20.1119 C   0  0  0  0  0  0
  -22.7591  -29.4563   22.4860 C   0  0  0  0  0  0
  -18.0311  -28.1400   22.8472 C   0  0  0  0  0  0
  -24.1484  -36.7253   23.2639 C   0  0  0  0  0  0
  -26.0161  -30.7047   21.3946 C   0  0  0  0  0  0
  -26.0807  -29.3181   20.7234 C   0  0  0  0  0  0
  -27.2323  -28.4357   20.7083 C   0  0  0  0  0  0
  -25.9683  -26.7941   19.5095 C   0  0  0  0  0  0
  -24.8514  -27.6493   19.4957 C   0  0  0  0  0  0
  -23.6791  -29.8108   20.1562 C   0  0  0  0  0  0
  -25.4114  -36.3033   24.0315 C   0  0  1  0  0  0
  -20.5925  -28.3729   23.1218 C   0  0  2  0  0  0
  -20.6787  -26.9428   22.5394 C   0  0  0  0  0  0
  -19.5757  -26.6377   21.5204 C   0  0  0  0  0  0
  -18.1944  -26.7936   22.1620 C   0  0  0  0  0  0
  -19.1569  -28.8883   23.2839 C   0  0  0  0  0  0
  -18.9481  -30.1481   23.8867 C   0  0  0  0  0  0
  -17.6477  -30.6591   24.0561 C   0  0  0  0  0  0
  -25.9082  -34.9411   23.5060 C   0  0  0  0  0  0
  -16.5371  -29.9084   23.6343 C   0  0  0  0  0  0
  -16.7296  -28.6506   23.0357 C   0  0  0  0  0  0
  -26.4531  -31.6587   25.0762 C   0  0  0  0  0  0
  -25.3696  -31.3793   26.1452 C   0  0  0  0  0  0
  -27.0410  -30.2978   24.6396 C   0  0  0  0  0  0
  -27.6052  -32.4361   25.7548 C   0  0  0  0  0  0
  -27.5569  -37.1781   24.8457 C   0  0  0  0  0  0
  -21.4282  -29.3058   22.3595 N   0  0  0  0  0  0
  -26.4271  -37.3757   23.9419 N   0  0  0  0  0  0
  -24.7266  -31.0282   22.0946 N   0  0  0  0  0  0
  -23.4224  -28.8084   23.2995 O   0  0  0  0  0  0
  -28.2798  -26.1132   20.2115 O   0  0  0  0  0  0
  -26.5668  -34.8909   22.4643 O   0  0  0  0  0  0
  -23.5612  -32.1310   23.7111 O   0  0  0  0  0  0
  -30.6924  -20.4323   19.5113 C   0  0  0  0  0  0
  -29.1394  -18.8305   20.4581 C   0  0  0  0  0  0
  -31.2367  -18.0198   19.5729 C   0  0  0  0  0  0
  -29.4378  -20.2573   20.1211 C   0  0  0  0  0  0
  -31.5622  -19.3545   19.1962 C   0  0  0  0  0  0
  -30.0295  -17.6592   20.2176 C   0  0  0  0  0  0
  -31.4297  -19.7762   16.1750 C   0  0  0  0  0  0
  -33.6444  -18.4132   17.9938 C   0  0  0  0  0  0
  -33.7692  -20.5528   19.2410 C   0  0  0  0  0  0
  -29.7121  -24.9714   18.7955 C   0  0  0  0  0  0
  -27.4118  -24.2342   18.5592 C   0  0  0  0  0  0
  -32.4846  -20.4430   17.0784 C   0  0  0  0  0  0
  -28.8815  -23.2233   20.4753 C   0  0  0  0  0  0
  -28.4553  -21.5962   20.1474 C   0  0  2  0  0  0
  -32.8377  -19.6732   18.3844 C   0  0  0  0  0  0
  -28.4502  -24.6455   19.6208 C   0  0  0  0  0  0
  -29.7642  -16.1629   20.5057 N   0  0  0  0  0  0
  -27.2490  -21.2616   20.9198 N   0  3  0  0  0  0
  -31.4723  -12.7420   19.1920 H   0  0  0  0  0  0
  -30.4253  -11.6443   20.0423 H   0  0  0  0  0  0
  -29.8398  -11.7260   17.5826 H   0  0  0  0  0  0
  -29.6109  -13.4544   17.6831 H   0  0  0  0  0  0
  -27.9545  -11.2736   18.9828 H   0  0  0  0  0  0
  -27.3939  -12.4435   17.8139 H   0  0  0  0  0  0
  -27.5907  -14.2473   19.3959 H   0  0  0  0  0  0
  -28.7575  -12.3197   21.4579 H   0  0  0  0  0  0
  -28.3661  -14.0010   21.7421 H   0  0  0  0  0  0
  -25.2791   -9.5675   22.4754 H   0  0  0  0  0  0
  -24.0007   -7.4641   22.7469 H   0  0  0  0  0  0
  -21.0851   -8.8796   19.8963 H   0  0  0  0  0  0
  -22.3723  -10.9685   19.6166 H   0  0  0  0  0  0
  -21.2015   -7.6153   23.9741 H   0  0  0  0  0  0
  -21.1473   -6.0519   25.9082 H   0  0  0  0  0  0
  -22.0591   -2.7624   23.2833 H   0  0  0  0  0  0
  -22.4022  -11.9925   22.4858 H   0  0  0  0  0  0
  -21.1048  -13.1303   22.2576 H   0  0  0  0  0  0
  -24.6388  -15.8416   20.5229 H   0  0  0  0  0  0
  -26.2465  -15.6362   20.0532 H   0  0  0  0  0  0
  -26.7320  -32.5284   23.1015 H   0  0  0  0  0  0
  -25.0062  -33.9583   25.0301 H   0  0  0  0  0  0
  -22.7575  -31.2996   21.3880 H   0  0  0  0  0  0
  -23.3763  -35.9572   23.3271 H   0  0  0  0  0  0
  -24.3572  -36.8930   22.2063 H   0  0  0  0  0  0
  -23.7220  -37.6421   23.6711 H   0  0  0  0  0  0
  -26.1864  -31.4637   20.6297 H   0  0  0  0  0  0
  -26.8796  -30.7434   22.0469 H   0  0  0  0  0  0
  -28.1365  -28.7554   21.2058 H   0  0  0  0  0  0
  -25.7519  -25.8453   19.0737 H   0  0  0  0  0  0
  -23.9352  -27.3097   19.0317 H   0  0  0  0  0  0
  -23.8324  -30.5896   19.4087 H   0  0  0  0  0  0
  -22.7902  -29.2677   19.8334 H   0  0  0  0  0  0
  -25.1302  -36.1849   25.0808 H   0  0  0  0  0  0
  -21.0006  -28.3322   24.1342 H   0  0  0  0  0  0
  -20.5662  -26.2344   23.3615 H   0  0  0  0  0  0
  -21.6657  -26.7420   22.1205 H   0  0  0  0  0  0
  -19.6913  -25.6277   21.1257 H   0  0  0  0  0  0
  -19.6694  -27.3164   20.6714 H   0  0  0  0  0  0
  -17.4203  -26.6673   21.4038 H   0  0  0  0  0  0
  -18.0359  -26.0087   22.9022 H   0  0  0  0  0  0
  -19.7964  -30.7303   24.2213 H   0  0  0  0  0  0
  -17.5040  -31.6269   24.5165 H   0  0  0  0  0  0
  -15.5375  -30.2973   23.7688 H   0  0  0  0  0  0
  -15.8695  -28.0817   22.7081 H   0  0  0  0  0  0
  -24.5865  -30.7165   25.7758 H   0  0  0  0  0  0
  -24.8902  -32.2983   26.4836 H   0  0  0  0  0  0
  -25.7956  -30.8976   27.0266 H   0  0  0  0  0  0
  -26.3054  -29.6690   24.1371 H   0  0  0  0  0  0
  -27.3951  -29.7310   25.5017 H   0  0  0  0  0  0
  -27.8996  -30.4199   23.9791 H   0  0  0  0  0  0
  -27.2639  -33.3681   26.2062 H   0  0  0  0  0  0
  -28.3884  -32.6886   25.0391 H   0  0  0  0  0  0
  -28.0702  -31.8542   26.5512 H   0  0  0  0  0  0
  -28.2565  -38.0099   24.7545 H   0  0  0  0  0  0
  -28.1085  -36.2636   24.6229 H   0  0  0  0  0  0
  -27.2308  -37.1371   25.8863 H   0  0  0  0  0  0
  -20.9490  -29.8805   21.6801 H   0  0  0  0  0  0
  -26.0134  -38.2820   24.1448 H   0  0  0  0  0  0
  -30.9620  -21.4312   19.2000 H   0  0  0  0  0  0
  -28.1745  -18.6111   20.8911 H   0  0  0  0  0  0
  -31.9224  -17.2287   19.3283 H   0  0  0  0  0  0
  -31.2054  -20.4127   15.3191 H   0  0  0  0  0  0
  -30.4899  -19.6014   16.6988 H   0  0  0  0  0  0
  -31.7768  -18.8203   15.7845 H   0  0  0  0  0  0
  -34.0276  -17.8927   18.8723 H   0  0  0  0  0  0
  -34.5078  -18.6688   17.3787 H   0  0  0  0  0  0
  -33.0463  -17.7039   17.4212 H   0  0  0  0  0  0
  -34.0446  -20.0511   20.1688 H   0  0  0  0  0  0
  -33.3080  -21.5022   19.5127 H   0  0  0  0  0  0
  -34.6942  -20.7864   18.7126 H   0  0  0  0  0  0
  -29.5317  -25.7822   18.0892 H   0  0  0  0  0  0
  -30.0593  -24.1102   18.2213 H   0  0  0  0  0  0
  -30.5342  -25.2848   19.4407 H   0  0  0  0  0  0
  -27.2160  -25.0282   17.8382 H   0  0  0  0  0  0
  -26.4794  -23.8984   19.0113 H   0  0  0  0  0  0
  -27.7666  -23.4034   17.9518 H   0  0  0  0  0  0
  -32.1268  -21.4429   17.3247 H   0  0  0  0  0  0
  -33.3925  -20.6112   16.4970 H   0  0  0  0  0  0
  -29.9711  -23.2126   20.5285 H   0  0  0  0  0  0
  -28.6151  -23.4078   21.5158 H   0  0  0  0  0  0
  -28.1176  -21.6093   19.1115 H   0  0  0  0  0  0
  -28.8099  -15.9685   20.7696 H   0  0  0  0  0  0
  -27.4817  -21.1014   21.8832 H   0  0  0  0  0  0
  -26.8184  -20.4340   20.5488 H   0  0  0  0  0  0
  -26.5785  -22.0051   20.8726 H   0  0  0  0  0  0
  1 25  1  0  0  0
  1 30  2  0  0  0
  1 87  1  0  0  0
  2  3  1  0  0  0
  2 25  1  0  0  0
  2 89  1  0  0  0
  2 90  1  0  0  0
  3  4  1  0  0  0
  3 91  1  0  0  0
  3 92  1  0  0  0
  4  5  1  0  0  0
  4 93  1  0  0  0
  4 94  1  0  0  0
  5  6  1  0  0  0
  5 26  1  0  0  0
  5 95  1  0  0  0
  6 25  1  0  0  0
  6 96  1  0  0  0
  6 97  1  0  0  0
  7  8  2  0  0  0
  7 26  1  0  0  0
  7 29  1  0  0  0
  8  9  1  0  0  0
  8 22  1  0  0  0
  9 10  1  0  0  0
  9 27  2  0  0  0
 10 11  2  0  0  0
 10 15  1  0  0  0
 11 12  1  0  0  0
 11 98  1  0  0  0
 12 13  2  0  0  0
 12 99  1  0  0  0
 13 14  1  0  0  0
 13 31  1  0  0  0
 14 15  2  0  0  0
 14100  1  0  0  0
 15101  1  0  0  0
 16 17  2  0  0  0
 16 21  1  0  0  0
 16 31  1  0  0  0
 17 18  1  0  0  0
 17102  1  0  0  0
 18 19  2  0  0  0
 18103  1  0  0  0
 19 20  1  0  0  0
 19 24  1  0  0  0
 20 21  2  0  0  0
 20104  1  0  0  0
 21 23  1  0  0  0
 22 28  1  0  0  0
 22 32  2  0  0  0
 26 27  1  0  0  0
 28105  1  0  0  0
 28106  1  0  0  0
 29107  1  0  0  0
 29108  1  0  0  0
 33 34  1  0  0  0
 33 66  1  0  0  0
 33 70  2  0  0  0
 34 36  1  0  0  0
 34 59  1  0  0  0
 34109  1  0  0  0
 35 44  2  0  0  0
 35 45  1  0  0  0
 35 68  1  0  0  0
 36 56  1  0  0  0
 36110  1  0  0  0
 37 39  1  0  0  0
 37 47  1  0  0  0
 37 66  1  0  0  0
 37111  1  0  0  0
 38 43  2  0  0  0
 38 46  1  0  0  0
 38 47  1  0  0  0
 39 64  1  0  0  0
 39 67  2  0  0  0
 40 52  1  0  0  0
 40 53  2  0  0  0
 40 58  1  0  0  0
 41112  1  0  0  0
 41113  1  0  0  0
 41114  1  0  0  0
 41 48  1  0  0  0
 42 43  1  0  0  0
 42 66  1  0  0  0
 42115  1  0  0  0
 42116  1  0  0  0
 43 44  1  0  0  0
 44117  1  0  0  0
 45 46  2  0  0  0
 45118  1  0  0  0
 46119  1  0  0  0
 47120  1  0  0  0
 47121  1  0  0  0
 48 56  1  0  0  0
 48 65  1  0  0  0
 48122  1  0  0  0
 49 50  1  0  0  0
 49 53  1  0  0  0
 49 64  1  0  0  0
 49123  1  0  0  0
 50 51  1  0  0  0
 50124  1  0  0  0
 50125  1  0  0  0
 51 52  1  0  0  0
 51126  1  0  0  0
 51127  1  0  0  0
 52128  1  0  0  0
 52129  1  0  0  0
 53 54  1  0  0  0
 54 55  2  0  0  0
 54130  1  0  0  0
 55 57  1  0  0  0
 55131  1  0  0  0
 56 69  2  0  0  0
 57 58  2  0  0  0
 57132  1  0  0  0
 58133  1  0  0  0
 59 60  1  0  0  0
 59 61  1  0  0  0
 59 62  1  0  0  0
 60134  1  0  0  0
 60135  1  0  0  0
 60136  1  0  0  0
 61137  1  0  0  0
 61138  1  0  0  0
 61139  1  0  0  0
 62140  1  0  0  0
 62141  1  0  0  0
 62142  1  0  0  0
 63 65  1  0  0  0
 63143  1  0  0  0
 63144  1  0  0  0
 63145  1  0  0  0
 64146  1  0  0  0
 65147  1  0  0  0
 68 86  1  0  0  0
 71 74  2  0  0  0
 71 75  1  0  0  0
 71148  1  0  0  0
 72 74  1  0  0  0
 72 76  2  0  0  0
 72149  1  0  0  0
 73 75  2  0  0  0
 73 76  1  0  0  0
 73150  1  0  0  0
 74 84  1  0  0  0
 75 85  1  0  0  0
 76 87  1  0  0  0
 77 82  1  0  0  0
 77151  1  0  0  0
 77152  1  0  0  0
 77153  1  0  0  0
 78154  1  0  0  0
 78155  1  0  0  0
 78156  1  0  0  0
 78 85  1  0  0  0
 79 85  1  0  0  0
 79157  1  0  0  0
 79158  1  0  0  0
 79159  1  0  0  0
 80160  1  0  0  0
 80161  1  0  0  0
 80162  1  0  0  0
 80 86  1  0  0  0
 81 86  1  0  0  0
 81163  1  0  0  0
 81164  1  0  0  0
 81165  1  0  0  0
 82 85  1  0  0  0
 82166  1  0  0  0
 82167  1  0  0  0
 83 84  1  0  0  0
 83 86  1  0  0  0
 83168  1  0  0  0
 83169  1  0  0  0
 84 88  1  0  0  0
 84170  1  0  0  0
 87171  1  0  0  0
 88172  1  0  0  0
 88173  1  0  0  0
 88174  1  0  0  0
M  CHG  1  88   1
M  ISO  4   1 100  68 101  86 101  87 100
M  END
> <chiral flag>
0

> <version>
0

> <s_m_source_file>
/data/baiqing/PycharmProjects/Reinvent-master-3.2/result/LINK_invent/BTK/process_docking_weight1_custom_product_contain_oxygen_bond_distance_aromatic_linkinvent_7_9_3/rearranged_h_0139.sdf

> <i_m_source_file_index>
56

> <r_mmod_Potential_Energy-OPLS-2005>
371.920227050781

> <r_mmod_Stretch_Energy-OPLS-2005>
312.726593017578

> <r_mmod_Bend_Energy-OPLS-2005>
329.722015380859

> <r_mmod_Torsional_Energy-OPLS-2005>
250.045288085938

> <r_mmod_Improper_Torsional_Energy-OPLS-2005>
5.53921508789062

> <r_mmod_Van_der_Waal_Energy-OPLS-2005>
155.235275268555

> <r_mmod_Electrostatic_Energy-OPLS-2005>
-388.798675537109

> <r_mmod_Solvation_Energy-OPLS-2005>
-501.359100341797

> <b_mmod_Minimization_Converged-OPLS-2005>
0

> <r_mmod_RMS_Derivative-OPLS-2005>
2.57250690460205

$$$$
56
                    3D
 Structure written by MMmdl.
160168  0  0  1  0            999 V2000
  -30.6077  -14.7303   20.4832 C   0  0  0  0  0  0
  -30.4383  -12.4490   19.4732 C   0  0  0  0  0  0
  -29.5143  -12.5172   18.2363 C   0  0  0  0  0  0
  -28.0388  -12.3382   18.6475 C   0  0  0  0  0  0
  -27.6466  -13.2278   19.8566 C   0  0  2  0  0  0
  -28.6903  -13.1377   20.9918 C   0  0  0  0  0  0
  -25.2524  -13.8187   20.5710 C   0  0  0  0  0  0
  -24.1801  -13.0447   20.9208 C   0  0  0  0  0  0
  -24.6375  -11.6920   20.8732 C   0  0  0  0  0  0
  -23.9038  -10.4297   21.0389 C   0  0  0  0  0  0
  -24.3591   -9.4223   21.9175 C   0  0  0  0  0  0
  -23.6287   -8.2250   22.0746 C   0  0  0  0  0  0
  -22.4271   -8.0272   21.3535 C   0  0  0  0  0  0
  -21.9894   -9.0234   20.4629 C   0  0  0  0  0  0
  -22.7209  -10.2130   20.3040 C   0  0  0  0  0  0
  -21.6856   -6.0725   22.5277 C   0  0  0  0  0  0
  -21.4005   -6.5629   23.8212 C   0  0  0  0  0  0
  -21.3661   -5.6781   24.9172 C   0  0  0  0  0  0
  -21.6053   -4.3044   24.7216 C   0  0  0  0  0  0
  -21.8820   -3.8136   23.4335 C   0  0  0  0  0  0
  -21.9191   -4.6951   22.3392 C   0  0  0  0  0  0
  -22.7823  -13.5239   21.1864 C   0  0  0  0  0  0
  -22.1672   -4.2147   21.0970 F   0  0  0  0  0  0
  -21.5632   -3.4525   25.7726 F   0  0  0  0  0  0
  -29.9961  -13.4978   20.4204 N   0  0  0  0  0  0
  -26.2954  -12.9384   20.3296 N   0  0  0  0  0  0
  -25.9309  -11.6531   20.5730 N   0  0  0  0  0  0
  -22.0441  -12.8242   22.0406 N   0  0  0  0  0  0
  -25.4230  -15.1906   20.4116 N   0  0  0  0  0  0
  -31.7809  -14.8416   20.1221 O   0  0  0  0  0  0
  -21.6643   -6.8866   21.4241 O   0  0  0  0  0  0
  -22.3520  -14.5546   20.6708 O   0  0  0  0  0  0
  -24.6269  -31.8550   23.1983 C   0  0  0  0  0  0
  -25.9104  -32.4753   23.8314 C   0  0  1  0  0  0
  -27.2257  -27.2824   20.1400 C   0  0  0  0  0  0
  -25.5909  -33.8557   24.2241 N   0  0  0  0  0  0
  -23.4243  -30.4741   21.5421 C   0  0  2  0  0  0
  -24.8735  -28.9159   20.1163 C   0  0  0  0  0  0
  -22.7481  -29.4591   22.4946 C   0  0  0  0  0  0
  -18.0288  -28.1394   22.8490 C   0  0  0  0  0  0
  -24.1488  -36.7299   23.2640 C   0  0  0  0  0  0
  -25.9657  -30.7726   21.3752 C   0  0  0  0  0  0
  -26.0410  -29.3936   20.7266 C   0  0  0  0  0  0
  -27.2219  -28.5878   20.7291 C   0  0  0  0  0  0
  -26.0427  -26.8632   19.4993 C   0  0  0  0  0  0
  -24.8779  -27.6560   19.4930 C   0  0  0  0  0  0
  -23.6409  -29.7991   20.1606 C   0  0  0  0  0  0
  -25.4112  -36.3076   24.0321 C   0  0  1  0  0  0
  -20.5885  -28.3686   23.1295 C   0  0  2  0  0  0
  -20.6769  -26.9414   22.5414 C   0  0  0  0  0  0
  -19.5740  -26.6392   21.5216 C   0  0  0  0  0  0
  -18.1927  -26.7942   22.1633 C   0  0  0  0  0  0
  -19.1538  -28.8862   23.2881 C   0  0  0  0  0  0
  -18.9460  -30.1471   23.8874 C   0  0  0  0  0  0
  -17.6459  -30.6583   24.0573 C   0  0  0  0  0  0
  -25.9044  -34.9445   23.5092 C   0  0  0  0  0  0
  -16.5348  -29.9078   23.6355 C   0  0  0  0  0  0
  -16.7271  -28.6509   23.0343 C   0  0  0  0  0  0
  -26.4464  -31.6573   25.0702 C   0  0  0  0  0  0
  -25.3670  -31.3741   26.1415 C   0  0  0  0  0  0
  -27.0299  -30.2984   24.6175 C   0  0  0  0  0  0
  -27.6019  -32.4303   25.7486 C   0  0  0  0  0  0
  -27.5589  -37.1804   24.8455 C   0  0  0  0  0  0
  -21.4193  -29.3032   22.3684 N   0  0  0  0  0  0
  -26.4289  -37.3775   23.9411 N   0  0  0  0  0  0
  -24.6912  -31.0519   22.0958 N   0  0  0  0  0  0
  -23.4188  -28.8155   23.3053 O   0  0  0  0  0  0
  -28.3450  -26.4283   20.0994 O   0  0  0  0  0  0
  -26.5629  -34.8921   22.4668 O   0  0  0  0  0  0
  -23.5421  -32.1370   23.7290 O   0  0  0  0  0  0
  -30.7259  -19.4983   20.8635 C   0  0  0  0  0  0
  -31.0339  -18.0762   20.9550 C   0  0  0  0  0  0
  -29.4399  -19.8517   20.5089 C   0  0  0  0  0  0
  -29.9601  -17.2248   20.6989 C   0  0  0  0  0  0
  -29.2600  -22.3856   20.6824 C   0  0  0  0  0  0
  -32.5426  -17.0196   22.7129 C   0  0  0  0  0  0
  -29.7135  -25.4846   21.6877 C   0  0  0  0  0  0
  -27.2722  -24.9966   21.8701 C   0  0  0  0  0  0
  -32.4347  -17.6567   21.3213 C   0  0  0  0  0  0
  -28.6321  -23.7392   20.0575 C   0  0  0  0  0  0
  -28.4481  -25.1447   20.8787 C   0  0  0  0  0  0
  -28.8796  -21.1200   20.2605 N   0  0  0  0  0  0
  -29.8012  -15.8259   20.7617 N   0  0  0  0  0  0
  -30.1328  -22.4879   21.5448 O   0  0  0  0  0  0
  -28.5745  -18.3012   20.3208 S   0  0  0  0  0  0
  -31.4801  -12.5754   19.1737 H   0  0  0  0  0  0
  -30.3817  -11.4668   19.9458 H   0  0  0  0  0  0
  -29.7992  -11.7529   17.5122 H   0  0  0  0  0  0
  -29.6415  -13.4776   17.7335 H   0  0  0  0  0  0
  -27.8945  -11.2877   18.9007 H   0  0  0  0  0  0
  -27.3810  -12.5377   17.8013 H   0  0  0  0  0  0
  -27.6481  -14.2542   19.4891 H   0  0  0  0  0  0
  -28.7224  -12.1287   21.4057 H   0  0  0  0  0  0
  -28.4224  -13.7950   21.8211 H   0  0  0  0  0  0
  -25.2732   -9.5725   22.4757 H   0  0  0  0  0  0
  -24.0006   -7.4638   22.7465 H   0  0  0  0  0  0
  -21.0836   -8.8729   19.8929 H   0  0  0  0  0  0
  -22.3651  -10.9653   19.6144 H   0  0  0  0  0  0
  -21.2002   -7.6139   23.9717 H   0  0  0  0  0  0
  -21.1490   -6.0506   25.9082 H   0  0  0  0  0  0
  -22.0601   -2.7599   23.2825 H   0  0  0  0  0  0
  -22.4049  -11.9918   22.4825 H   0  0  0  0  0  0
  -21.1043  -13.1266   22.2556 H   0  0  0  0  0  0
  -24.6511  -15.8405   20.5121 H   0  0  0  0  0  0
  -26.2615  -15.6266   20.0504 H   0  0  0  0  0  0
  -26.7195  -32.5397   23.1077 H   0  0  0  0  0  0
  -25.0019  -33.9687   25.0363 H   0  0  0  0  0  0
  -22.7200  -31.2946   21.3943 H   0  0  0  0  0  0
  -23.3744  -35.9636   23.3276 H   0  0  0  0  0  0
  -24.3589  -36.8938   22.2063 H   0  0  0  0  0  0
  -23.7244  -37.6496   23.6674 H   0  0  0  0  0  0
  -26.0919  -31.5277   20.5992 H   0  0  0  0  0  0
  -26.8498  -30.8316   21.9985 H   0  0  0  0  0  0
  -28.1210  -28.9494   21.2091 H   0  0  0  0  0  0
  -26.0200  -25.9010   19.0075 H   0  0  0  0  0  0
  -23.9891  -27.2829   19.0021 H   0  0  0  0  0  0
  -23.7529  -30.5686   19.3960 H   0  0  0  0  0  0
  -22.7617  -29.2229   19.8683 H   0  0  0  0  0  0
  -25.1297  -36.1927   25.0813 H   0  0  0  0  0  0
  -20.9968  -28.3249   24.1417 H   0  0  0  0  0  0
  -20.5686  -26.2282   23.3602 H   0  0  0  0  0  0
  -21.6634  -26.7448   22.1202 H   0  0  0  0  0  0
  -19.6885  -25.6298   21.1255 H   0  0  0  0  0  0
  -19.6686  -27.3197   20.6744 H   0  0  0  0  0  0
  -17.4206  -26.6703   21.4033 H   0  0  0  0  0  0
  -18.0313  -26.0080   22.9026 H   0  0  0  0  0  0
  -19.7927  -30.7319   24.2202 H   0  0  0  0  0  0
  -17.5002  -31.6255   24.5186 H   0  0  0  0  0  0
  -15.5345  -30.2964   23.7688 H   0  0  0  0  0  0
  -15.8680  -28.0834   22.7027 H   0  0  0  0  0  0
  -24.5834  -30.7100   25.7753 H   0  0  0  0  0  0
  -24.8855  -32.2912   26.4821 H   0  0  0  0  0  0
  -25.7957  -30.8931   27.0210 H   0  0  0  0  0  0
  -26.2876  -29.6758   24.1162 H   0  0  0  0  0  0
  -27.3944  -29.7229   25.4696 H   0  0  0  0  0  0
  -27.8773  -30.4271   23.9431 H   0  0  0  0  0  0
  -27.2626  -33.3601   26.2069 H   0  0  0  0  0  0
  -28.3836  -32.6859   25.0322 H   0  0  0  0  0  0
  -28.0671  -31.8405   26.5396 H   0  0  0  0  0  0
  -28.2584  -38.0128   24.7526 H   0  0  0  0  0  0
  -28.1105  -36.2655   24.6236 H   0  0  0  0  0  0
  -27.2304  -37.1403   25.8855 H   0  0  0  0  0  0
  -20.9365  -29.8748   21.6894 H   0  0  0  0  0  0
  -26.0159  -38.2845   24.1407 H   0  0  0  0  0  0
  -31.4964  -20.2329   21.0496 H   0  0  0  0  0  0
  -33.5760  -16.7465   22.9310 H   0  0  0  0  0  0
  -31.9406  -16.1141   22.7886 H   0  0  0  0  0  0
  -32.2096  -17.7088   23.4903 H   0  0  0  0  0  0
  -29.9065  -24.7684   22.4838 H   0  0  0  0  0  0
  -29.6204  -26.4548   22.1754 H   0  0  0  0  0  0
  -30.5934  -25.5237   21.0451 H   0  0  0  0  0  0
  -27.1378  -25.8923   22.4764 H   0  0  0  0  0  0
  -27.4336  -24.1695   22.5615 H   0  0  0  0  0  0
  -26.3344  -24.7983   21.3505 H   0  0  0  0  0  0
  -33.0955  -18.5243   21.2952 H   0  0  0  0  0  0
  -32.8470  -16.9933   20.5637 H   0  0  0  0  0  0
  -29.2678  -23.9605   19.1998 H   0  0  0  0  0  0
  -27.6673  -23.4810   19.6214 H   0  0  0  0  0  0
  -28.0749  -21.1125   19.6477 H   0  0  0  0  0  0
  -28.8503  -15.5409   20.9415 H   0  0  0  0  0  0
  1 25  1  0  0  0
  1 30  2  0  0  0
  1 83  1  0  0  0
  2  3  1  0  0  0
  2 25  1  0  0  0
  2 86  1  0  0  0
  2 87  1  0  0  0
  3  4  1  0  0  0
  3 88  1  0  0  0
  3 89  1  0  0  0
  4  5  1  0  0  0
  4 90  1  0  0  0
  4 91  1  0  0  0
  5  6  1  0  0  0
  5 26  1  0  0  0
  5 92  1  0  0  0
  6 25  1  0  0  0
  6 93  1  0  0  0
  6 94  1  0  0  0
  7  8  2  0  0  0
  7 26  1  0  0  0
  7 29  1  0  0  0
  8  9  1  0  0  0
  8 22  1  0  0  0
  9 10  1  0  0  0
  9 27  2  0  0  0
 10 11  2  0  0  0
 10 15  1  0  0  0
 11 12  1  0  0  0
 11 95  1  0  0  0
 12 13  2  0  0  0
 12 96  1  0  0  0
 13 14  1  0  0  0
 13 31  1  0  0  0
 14 15  2  0  0  0
 14 97  1  0  0  0
 15 98  1  0  0  0
 16 17  2  0  0  0
 16 21  1  0  0  0
 16 31  1  0  0  0
 17 18  1  0  0  0
 17 99  1  0  0  0
 18 19  2  0  0  0
 18100  1  0  0  0
 19 20  1  0  0  0
 19 24  1  0  0  0
 20 21  2  0  0  0
 20101  1  0  0  0
 21 23  1  0  0  0
 22 28  1  0  0  0
 22 32  2  0  0  0
 26 27  1  0  0  0
 28102  1  0  0  0
 28103  1  0  0  0
 29104  1  0  0  0
 29105  1  0  0  0
 33 34  1  0  0  0
 33 66  1  0  0  0
 33 70  2  0  0  0
 34 36  1  0  0  0
 34 59  1  0  0  0
 34106  1  0  0  0
 35 44  2  0  0  0
 35 45  1  0  0  0
 35 68  1  0  0  0
 36 56  1  0  0  0
 36107  1  0  0  0
 37 39  1  0  0  0
 37 47  1  0  0  0
 37 66  1  0  0  0
 37108  1  0  0  0
 38 43  2  0  0  0
 38 46  1  0  0  0
 38 47  1  0  0  0
 39 64  1  0  0  0
 39 67  2  0  0  0
 40 52  1  0  0  0
 40 53  2  0  0  0
 40 58  1  0  0  0
 41109  1  0  0  0
 41110  1  0  0  0
 41111  1  0  0  0
 41 48  1  0  0  0
 42 43  1  0  0  0
 42 66  1  0  0  0
 42112  1  0  0  0
 42113  1  0  0  0
 43 44  1  0  0  0
 44114  1  0  0  0
 45 46  2  0  0  0
 45115  1  0  0  0
 46116  1  0  0  0
 47117  1  0  0  0
 47118  1  0  0  0
 48 56  1  0  0  0
 48 65  1  0  0  0
 48119  1  0  0  0
 49 50  1  0  0  0
 49 53  1  0  0  0
 49 64  1  0  0  0
 49120  1  0  0  0
 50 51  1  0  0  0
 50121  1  0  0  0
 50122  1  0  0  0
 51 52  1  0  0  0
 51123  1  0  0  0
 51124  1  0  0  0
 52125  1  0  0  0
 52126  1  0  0  0
 53 54  1  0  0  0
 54 55  2  0  0  0
 54127  1  0  0  0
 55 57  1  0  0  0
 55128  1  0  0  0
 56 69  2  0  0  0
 57 58  2  0  0  0
 57129  1  0  0  0
 58130  1  0  0  0
 59 60  1  0  0  0
 59 61  1  0  0  0
 59 62  1  0  0  0
 60131  1  0  0  0
 60132  1  0  0  0
 60133  1  0  0  0
 61134  1  0  0  0
 61135  1  0  0  0
 61136  1  0  0  0
 62137  1  0  0  0
 62138  1  0  0  0
 62139  1  0  0  0
 63 65  1  0  0  0
 63140  1  0  0  0
 63141  1  0  0  0
 63142  1  0  0  0
 64143  1  0  0  0
 65144  1  0  0  0
 68 81  1  0  0  0
 71 72  1  0  0  0
 71 73  2  0  0  0
 71145  1  0  0  0
 72 74  2  0  0  0
 72 79  1  0  0  0
 73 82  1  0  0  0
 73 85  1  0  0  0
 74 83  1  0  0  0
 74 85  1  0  0  0
 75 80  1  0  0  0
 75 82  1  0  0  0
 75 84  2  0  0  0
 76 79  1  0  0  0
 76146  1  0  0  0
 76147  1  0  0  0
 76148  1  0  0  0
 77149  1  0  0  0
 77150  1  0  0  0
 77151  1  0  0  0
 77 81  1  0  0  0
 78 81  1  0  0  0
 78152  1  0  0  0
 78153  1  0  0  0
 78154  1  0  0  0
 79155  1  0  0  0
 79156  1  0  0  0
 80 81  1  0  0  0
 80157  1  0  0  0
 80158  1  0  0  0
 82159  1  0  0  0
 83160  1  0  0  0
M  ISO  4   1 100  68 101  81 101  83 100
M  END
> <chiral flag>
0

> <version>
0

> <s_m_source_file>
/data/baiqing/PycharmProjects/Reinvent-master-3.2/result/LINK_invent/BTK/process_docking_weight1_custom_product_contain_oxygen_bond_distance_aromatic_linkinvent_7_9_3/rearranged_h_0139.sdf

> <i_m_source_file_index>
57

> <r_mmod_Potential_Energy-OPLS-2005>
134.662048339844

> <r_mmod_Stretch_Energy-OPLS-2005>
114.336547851562

> <r_mmod_Bend_Energy-OPLS-2005>
197.794692993164

> <r_mmod_Torsional_Energy-OPLS-2005>
240.40576171875

> <r_mmod_Improper_Torsional_Energy-OPLS-2005>
5.17991352081299

> <r_mmod_Van_der_Waal_Energy-OPLS-2005>
114.520133972168

> <r_mmod_Electrostatic_Energy-OPLS-2005>
-391.998626708984

> <r_mmod_Solvation_Energy-OPLS-2005>
-216.629943847656

> <b_mmod_Minimization_Converged-OPLS-2005>
0

> <r_mmod_RMS_Derivative-OPLS-2005>
2.14310455322266

$$$$
57
                    3D
 Structure written by MMmdl.
164174  0  0  1  0            999 V2000
  -30.7721  -14.3585   20.6068 C   0  0  0  0  0  0
  -30.4013  -12.2495   19.4153 C   0  0  0  0  0  0
  -29.4859  -12.5031   18.2026 C   0  0  0  0  0  0
  -28.0067  -12.3805   18.6130 C   0  0  0  0  0  0
  -27.6655  -13.2074   19.8820 C   0  0  2  0  0  0
  -28.7029  -12.9658   21.0032 C   0  0  0  0  0  0
  -25.2591  -13.8175   20.5683 C   0  0  0  0  0  0
  -24.1837  -13.0448   20.9162 C   0  0  0  0  0  0
  -24.6394  -11.6915   20.8726 C   0  0  0  0  0  0
  -23.9061  -10.4297   21.0398 C   0  0  0  0  0  0
  -24.3612   -9.4214   21.9177 C   0  0  0  0  0  0
  -23.6288   -8.2251   22.0755 C   0  0  0  0  0  0
  -22.4272   -8.0283   21.3544 C   0  0  0  0  0  0
  -21.9905   -9.0256   20.4644 C   0  0  0  0  0  0
  -22.7233  -10.2137   20.3050 C   0  0  0  0  0  0
  -21.6853   -6.0733   22.5277 C   0  0  0  0  0  0
  -21.4016   -6.5638   23.8209 C   0  0  0  0  0  0
  -21.3659   -5.6792   24.9171 C   0  0  0  0  0  0
  -21.6045   -4.3055   24.7224 C   0  0  0  0  0  0
  -21.8820   -3.8145   23.4345 C   0  0  0  0  0  0
  -21.9193   -4.6961   22.3401 C   0  0  0  0  0  0
  -22.7859  -13.5240   21.1829 C   0  0  0  0  0  0
  -22.1660   -4.2147   21.0977 F   0  0  0  0  0  0
  -21.5630   -3.4540   25.7737 F   0  0  0  0  0  0
  -30.0464  -13.2235   20.4578 N   0  0  0  0  0  0
  -26.3041  -12.9352   20.3398 N   0  0  0  0  0  0
  -25.9322  -11.6507   20.5775 N   0  0  0  0  0  0
  -22.0503  -12.8231   22.0388 N   0  0  0  0  0  0
  -25.4324  -15.1893   20.4105 N   0  0  0  0  0  0
  -31.8666  -14.5261   20.0628 O   0  0  0  0  0  0
  -21.6639   -6.8879   21.4239 O   0  0  0  0  0  0
  -22.3542  -14.5546   20.6681 O   0  0  0  0  0  0
  -24.6062  -31.8710   23.2111 C   0  0  0  0  0  0
  -25.8980  -32.4843   23.8393 C   0  0  1  0  0  0
  -27.2454  -27.5017   20.1134 C   0  0  0  0  0  0
  -25.5852  -33.8640   24.2335 N   0  0  0  0  0  0
  -23.3912  -30.4915   21.5503 C   0  0  2  0  0  0
  -24.8413  -28.9665   20.1100 C   0  0  0  0  0  0
  -22.7369  -29.4663   22.5019 C   0  0  0  0  0  0
  -18.0261  -28.1371   22.8496 C   0  0  0  0  0  0
  -24.1481  -36.7336   23.2643 C   0  0  0  0  0  0
  -25.9078  -30.8699   21.3430 C   0  0  0  0  0  0
  -25.9932  -29.5112   20.6884 C   0  0  0  0  0  0
  -27.2028  -28.7979   20.6625 C   0  0  0  0  0  0
  -26.0891  -26.9624   19.5148 C   0  0  0  0  0  0
  -24.8829  -27.6925   19.5115 C   0  0  0  0  0  0
  -23.5940  -29.8168   20.1653 C   0  0  0  0  0  0
  -25.4101  -36.3132   24.0345 C   0  0  1  0  0  0
  -20.5845  -28.3644   23.1348 C   0  0  2  0  0  0
  -20.6754  -26.9389   22.5426 C   0  0  0  0  0  0
  -19.5740  -26.6384   21.5213 C   0  0  0  0  0  0
  -18.1915  -26.7918   22.1623 C   0  0  0  0  0  0
  -19.1508  -28.8823   23.2921 C   0  0  0  0  0  0
  -18.9439  -30.1434   23.8925 C   0  0  0  0  0  0
  -17.6444  -30.6581   24.0569 C   0  0  0  0  0  0
  -25.9018  -34.9493   23.5143 C   0  0  0  0  0  0
  -16.5336  -29.9087   23.6323 C   0  0  0  0  0  0
  -16.7252  -28.6506   23.0342 C   0  0  0  0  0  0
  -26.4447  -31.6599   25.0689 C   0  0  0  0  0  0
  -25.3747  -31.3681   26.1463 C   0  0  0  0  0  0
  -27.0269  -30.3059   24.5994 C   0  0  0  0  0  0
  -27.6025  -32.4315   25.7445 C   0  0  0  0  0  0
  -27.5585  -37.1820   24.8466 C   0  0  0  0  0  0
  -21.4103  -29.3018   22.3764 N   0  0  0  0  0  0
  -26.4298  -37.3805   23.9409 N   0  0  0  0  0  0
  -24.6537  -31.0887   22.0958 N   0  0  0  0  0  0
  -23.4175  -28.8217   23.3041 O   0  0  0  0  0  0
  -28.3962  -26.7589   20.1501 O   0  0  0  0  0  0
  -26.5591  -34.8937   22.4710 O   0  0  0  0  0  0
  -23.5279  -32.1413   23.7568 O   0  0  0  0  0  0
  -32.1551  -23.9538   19.3395 C   0  0  0  0  0  0
  -31.7008  -25.2181   19.7790 C   0  0  0  0  0  0
  -31.1556  -17.2806   20.1289 C   0  0  0  0  0  0
  -31.5546  -18.6183   20.1560 C   0  0  0  0  0  0
  -31.1456  -24.2884   21.9925 C   0  0  0  0  0  0
  -30.4794  -17.5180   22.4246 C   0  0  0  0  0  0
  -31.5699  -23.0416   21.5208 C   0  0  0  0  0  0
  -32.0363  -22.8786   20.2366 C   0  0  0  0  0  0
  -31.1598  -25.3708   21.0820 C   0  0  0  0  0  0
  -30.6185  -16.6976   21.2950 C   0  0  0  0  0  0
  -31.3714  -19.3924   21.3228 C   0  0  0  0  0  0
  -31.4263  -21.7259   22.1863 C   0  0  0  0  0  0
  -32.2045  -21.4095   19.9954 C   0  0  0  0  0  0
  -28.2299  -26.9302   22.7361 C   0  0  0  0  0  0
  -30.4351  -26.6364   21.4791 C   0  0  0  0  0  0
  -28.9082  -26.3981   21.4501 C   0  0  2  0  0  0
  -30.8440  -18.8171   22.4355 N   0  0  0  0  0  0
  -31.7030  -20.7837   21.2472 N   0  0  0  0  0  0
  -30.2148  -15.3332   21.3382 N   0  0  0  0  0  0
  -31.0952  -21.5955   23.3708 O   0  0  0  0  0  0
  -31.4500  -12.3051   19.1173 H   0  0  0  0  0  0
  -30.2598  -11.2359   19.7936 H   0  0  0  0  0  0
  -29.7114  -11.7934   17.4056 H   0  0  0  0  0  0
  -29.6758  -13.4963   17.7923 H   0  0  0  0  0  0
  -27.7996  -11.3247   18.7911 H   0  0  0  0  0  0
  -27.3611  -12.6803   17.7867 H   0  0  0  0  0  0
  -27.7204  -14.2595   19.6016 H   0  0  0  0  0  0
  -28.6507  -11.9328   21.3500 H   0  0  0  0  0  0
  -28.4733  -13.5758   21.8775 H   0  0  0  0  0  0
  -25.2760   -9.5690   22.4751 H   0  0  0  0  0  0
  -23.9994   -7.4645   22.7480 H   0  0  0  0  0  0
  -21.0837   -8.8774   19.8953 H   0  0  0  0  0  0
  -22.3691  -10.9672   19.6157 H   0  0  0  0  0  0
  -21.2013   -7.6147   23.9711 H   0  0  0  0  0  0
  -21.1480   -6.0523   25.9072 H   0  0  0  0  0  0
  -22.0602   -2.7609   23.2847 H   0  0  0  0  0  0
  -22.4117  -11.9890   22.4770 H   0  0  0  0  0  0
  -21.1119  -13.1257   22.2596 H   0  0  0  0  0  0
  -24.6707  -15.8496   20.5232 H   0  0  0  0  0  0
  -26.2949  -15.6279   20.1114 H   0  0  0  0  0  0
  -26.7057  -32.5595   23.1177 H   0  0  0  0  0  0
  -24.9976  -33.9806   25.0460 H   0  0  0  0  0  0
  -22.6757  -31.3043   21.4110 H   0  0  0  0  0  0
  -23.3738  -35.9675   23.3313 H   0  0  0  0  0  0
  -24.3576  -36.8943   22.2056 H   0  0  0  0  0  0
  -23.7234  -37.6545   23.6650 H   0  0  0  0  0  0
  -25.9987  -31.6409   20.5765 H   0  0  0  0  0  0
  -26.8024  -30.9300   21.9510 H   0  0  0  0  0  0
  -28.0970  -29.2327   21.0859 H   0  0  0  0  0  0
  -26.1200  -25.9752   19.0753 H   0  0  0  0  0  0
  -23.9973  -27.2678   19.0597 H   0  0  0  0  0  0
  -23.6855  -30.5874   19.3989 H   0  0  0  0  0  0
  -22.7236  -29.2224   19.8812 H   0  0  0  0  0  0
  -25.1278  -36.2009   25.0839 H   0  0  0  0  0  0
  -20.9937  -28.3198   24.1466 H   0  0  0  0  0  0
  -20.5650  -26.2250   23.3601 H   0  0  0  0  0  0
  -21.6627  -26.7433   22.1223 H   0  0  0  0  0  0
  -19.6904  -25.6301   21.1230 H   0  0  0  0  0  0
  -19.6690  -27.3210   20.6756 H   0  0  0  0  0  0
  -17.4188  -26.6670   21.4022 H   0  0  0  0  0  0
  -18.0315  -26.0051   22.9008 H   0  0  0  0  0  0
  -19.7914  -30.7247   24.2304 H   0  0  0  0  0  0
  -17.4998  -31.6262   24.5165 H   0  0  0  0  0  0
  -15.5340  -30.3003   23.7626 H   0  0  0  0  0  0
  -15.8650  -28.0842   22.7033 H   0  0  0  0  0  0
  -24.5907  -30.7039   25.7807 H   0  0  0  0  0  0
  -24.8959  -32.2835   26.4951 H   0  0  0  0  0  0
  -25.8132  -30.8821   27.0188 H   0  0  0  0  0  0
  -26.2785  -29.6823   24.1085 H   0  0  0  0  0  0
  -27.4125  -29.7272   25.4398 H   0  0  0  0  0  0
  -27.8571  -30.4410   23.9056 H   0  0  0  0  0  0
  -27.2639  -33.3601   26.2054 H   0  0  0  0  0  0
  -28.3815  -32.6900   25.0261 H   0  0  0  0  0  0
  -28.0712  -31.8423   26.5337 H   0  0  0  0  0  0
  -28.2605  -38.0114   24.7508 H   0  0  0  0  0  0
  -28.1080  -36.2646   24.6296 H   0  0  0  0  0  0
  -27.2306  -37.1478   25.8870 H   0  0  0  0  0  0
  -20.9250  -29.8743   21.7000 H   0  0  0  0  0  0
  -26.0200  -38.2890   24.1406 H   0  0  0  0  0  0
  -32.5049  -23.8076   18.3265 H   0  0  0  0  0  0
  -31.7007  -26.0510   19.0889 H   0  0  0  0  0  0
  -31.2683  -16.7314   19.2062 H   0  0  0  0  0  0
  -31.9764  -19.0174   19.2469 H   0  0  0  0  0  0
  -30.7089  -24.3827   22.9778 H   0  0  0  0  0  0
  -30.0715  -17.1272   23.3456 H   0  0  0  0  0  0
  -33.2493  -21.1554   19.8134 H   0  0  0  0  0  0
  -31.6013  -21.1355   19.1294 H   0  0  0  0  0  0
  -28.6179  -26.4056   23.6095 H   0  0  0  0  0  0
  -27.1515  -26.7671   22.7276 H   0  0  0  0  0  0
  -28.4217  -27.9887   22.9047 H   0  0  0  0  0  0
  -30.7132  -27.4711   20.8345 H   0  0  0  0  0  0
  -30.7672  -26.9051   22.4827 H   0  0  0  0  0  0
  -28.7191  -25.3249   21.4998 H   0  0  0  0  0  0
  -29.4160  -15.0908   21.9067 H   0  0  0  0  0  0
  1 25  1  0  0  0
  1 30  2  0  0  0
  1 89  1  0  0  0
  2  3  1  0  0  0
  2 25  1  0  0  0
  2 91  1  0  0  0
  2 92  1  0  0  0
  3  4  1  0  0  0
  3 93  1  0  0  0
  3 94  1  0  0  0
  4  5  1  0  0  0
  4 95  1  0  0  0
  4 96  1  0  0  0
  5  6  1  0  0  0
  5 26  1  0  0  0
  5 97  1  0  0  0
  6 25  1  0  0  0
  6 98  1  0  0  0
  6 99  1  0  0  0
  7  8  2  0  0  0
  7 26  1  0  0  0
  7 29  1  0  0  0
  8  9  1  0  0  0
  8 22  1  0  0  0
  9 10  1  0  0  0
  9 27  2  0  0  0
 10 11  2  0  0  0
 10 15  1  0  0  0
 11 12  1  0  0  0
 11100  1  0  0  0
 12 13  2  0  0  0
 12101  1  0  0  0
 13 14  1  0  0  0
 13 31  1  0  0  0
 14 15  2  0  0  0
 14102  1  0  0  0
 15103  1  0  0  0
 16 17  2  0  0  0
 16 21  1  0  0  0
 16 31  1  0  0  0
 17 18  1  0  0  0
 17104  1  0  0  0
 18 19  2  0  0  0
 18105  1  0  0  0
 19 20  1  0  0  0
 19 24  1  0  0  0
 20 21  2  0  0  0
 20106  1  0  0  0
 21 23  1  0  0  0
 22 28  1  0  0  0
 22 32  2  0  0  0
 26 27  1  0  0  0
 28107  1  0  0  0
 28108  1  0  0  0
 29109  1  0  0  0
 29110  1  0  0  0
 33 34  1  0  0  0
 33 66  1  0  0  0
 33 70  2  0  0  0
 34 36  1  0  0  0
 34 59  1  0  0  0
 34111  1  0  0  0
 35 44  2  0  0  0
 35 45  1  0  0  0
 35 68  1  0  0  0
 36 56  1  0  0  0
 36112  1  0  0  0
 37 39  1  0  0  0
 37 47  1  0  0  0
 37 66  1  0  0  0
 37113  1  0  0  0
 38 43  2  0  0  0
 38 46  1  0  0  0
 38 47  1  0  0  0
 39 64  1  0  0  0
 39 67  2  0  0  0
 40 52  1  0  0  0
 40 53  2  0  0  0
 40 58  1  0  0  0
 41114  1  0  0  0
 41115  1  0  0  0
 41116  1  0  0  0
 41 48  1  0  0  0
 42 43  1  0  0  0
 42 66  1  0  0  0
 42117  1  0  0  0
 42118  1  0  0  0
 43 44  1  0  0  0
 44119  1  0  0  0
 45 46  2  0  0  0
 45120  1  0  0  0
 46121  1  0  0  0
 47122  1  0  0  0
 47123  1  0  0  0
 48 56  1  0  0  0
 48 65  1  0  0  0
 48124  1  0  0  0
 49 50  1  0  0  0
 49 53  1  0  0  0
 49 64  1  0  0  0
 49125  1  0  0  0
 50 51  1  0  0  0
 50126  1  0  0  0
 50127  1  0  0  0
 51 52  1  0  0  0
 51128  1  0  0  0
 51129  1  0  0  0
 52130  1  0  0  0
 52131  1  0  0  0
 53 54  1  0  0  0
 54 55  2  0  0  0
 54132  1  0  0  0
 55 57  1  0  0  0
 55133  1  0  0  0
 56 69  2  0  0  0
 57 58  2  0  0  0
 57134  1  0  0  0
 58135  1  0  0  0
 59 60  1  0  0  0
 59 61  1  0  0  0
 59 62  1  0  0  0
 60136  1  0  0  0
 60137  1  0  0  0
 60138  1  0  0  0
 61139  1  0  0  0
 61140  1  0  0  0
 61141  1  0  0  0
 62142  1  0  0  0
 62143  1  0  0  0
 62144  1  0  0  0
 63 65  1  0  0  0
 63145  1  0  0  0
 63146  1  0  0  0
 63147  1  0  0  0
 64148  1  0  0  0
 65149  1  0  0  0
 68 86  1  0  0  0
 71 72  2  0  0  0
 71 78  1  0  0  0
 71150  1  0  0  0
 72 79  1  0  0  0
 72151  1  0  0  0
 73 74  2  0  0  0
 73 80  1  0  0  0
 73152  1  0  0  0
 74 81  1  0  0  0
 74153  1  0  0  0
 75 77  1  0  0  0
 75 79  2  0  0  0
 75154  1  0  0  0
 76 80  2  0  0  0
 76 87  1  0  0  0
 76155  1  0  0  0
 77 78  2  0  0  0
 77 82  1  0  0  0
 78 83  1  0  0  0
 79 85  1  0  0  0
 80 89  1  0  0  0
 81 87  2  0  0  0
 81 88  1  0  0  0
 82 88  1  0  0  0
 82 90  2  0  0  0
 83 88  1  0  0  0
 83156  1  0  0  0
 83157  1  0  0  0
 84158  1  0  0  0
 84159  1  0  0  0
 84160  1  0  0  0
 84 86  1  0  0  0
 85 86  1  0  0  0
 85161  1  0  0  0
 85162  1  0  0  0
 86163  1  0  0  0
 89164  1  0  0  0
M  ISO  4   1 100  68 101  86 101  89 100
M  END
> <chiral flag>
0

> <version>
0

> <s_m_source_file>
/data/baiqing/PycharmProjects/Reinvent-master-3.2/result/LINK_invent/BTK/process_docking_weight1_custom_product_contain_oxygen_bond_distance_aromatic_linkinvent_7_9_3/rearranged_h_0139.sdf

> <i_m_source_file_index>
58

> <r_mmod_Potential_Energy-OPLS-2005>
-41.2650871276855

> <r_mmod_Stretch_Energy-OPLS-2005>
39.5432434082031

> <r_mmod_Bend_Energy-OPLS-2005>
170.410400390625

> <r_mmod_Torsional_Energy-OPLS-2005>
272.796417236328

> <r_mmod_Improper_Torsional_Energy-OPLS-2005>
4.45583534240723

> <r_mmod_Van_der_Waal_Energy-OPLS-2005>
198.251739501953

> <r_mmod_Electrostatic_Energy-OPLS-2005>
-502.391845703125

> <r_mmod_Solvation_Energy-OPLS-2005>
-235.227905273438

> <b_mmod_Minimization_Converged-OPLS-2005>
0

> <r_mmod_RMS_Derivative-OPLS-2005>
0.588898777961731

$$$$
58
                    3D
 Structure written by MMmdl.
174184  0  0  1  0            999 V2000
  -30.7028  -14.5510   20.4941 C   0  0  0  0  0  0
  -30.4109  -12.3307   19.4471 C   0  0  0  0  0  0
  -29.4986  -12.4949   18.2153 C   0  0  0  0  0  0
  -28.0201  -12.3554   18.6251 C   0  0  0  0  0  0
  -27.6529  -13.2228   19.8602 C   0  0  2  0  0  0
  -28.6975  -13.0809   20.9902 C   0  0  0  0  0  0
  -25.2557  -13.8197   20.5676 C   0  0  0  0  0  0
  -24.1837  -13.0454   20.9190 C   0  0  0  0  0  0
  -24.6420  -11.6919   20.8754 C   0  0  0  0  0  0
  -23.9096  -10.4298   21.0415 C   0  0  0  0  0  0
  -24.3637   -9.4206   21.9187 C   0  0  0  0  0  0
  -23.6300   -8.2250   22.0760 C   0  0  0  0  0  0
  -22.4281   -8.0303   21.3556 C   0  0  0  0  0  0
  -21.9929   -9.0274   20.4651 C   0  0  0  0  0  0
  -22.7272  -10.2144   20.3055 C   0  0  0  0  0  0
  -21.6854   -6.0749   22.5285 C   0  0  0  0  0  0
  -21.4011   -6.5640   23.8225 C   0  0  0  0  0  0
  -21.3655   -5.6796   24.9178 C   0  0  0  0  0  0
  -21.6046   -4.3058   24.7231 C   0  0  0  0  0  0
  -21.8817   -3.8154   23.4347 C   0  0  0  0  0  0
  -21.9188   -4.6974   22.3409 C   0  0  0  0  0  0
  -22.7850  -13.5234   21.1850 C   0  0  0  0  0  0
  -22.1658   -4.2162   21.0986 F   0  0  0  0  0  0
  -21.5626   -3.4542   25.7738 F   0  0  0  0  0  0
  -30.0188  -13.3709   20.4182 N   0  0  0  0  0  0
  -26.2993  -12.9391   20.3315 N   0  0  0  0  0  0
  -25.9348  -11.6536   20.5756 N   0  0  0  0  0  0
  -22.0488  -12.8230   22.0388 N   0  0  0  0  0  0
  -25.4254  -15.1928   20.4101 N   0  0  0  0  0  0
  -31.8765  -14.6119   20.1284 O   0  0  0  0  0  0
  -21.6640   -6.8897   21.4250 O   0  0  0  0  0  0
  -22.3535  -14.5546   20.6702 O   0  0  0  0  0  0
  -24.6225  -31.8622   23.2042 C   0  0  0  0  0  0
  -25.9115  -32.4774   23.8336 C   0  0  1  0  0  0
  -27.2199  -27.3526   20.1087 C   0  0  0  0  0  0
  -25.5964  -33.8576   24.2268 N   0  0  0  0  0  0
  -23.4090  -30.4871   21.5471 C   0  0  2  0  0  0
  -24.8521  -28.9416   20.1061 C   0  0  0  0  0  0
  -22.7437  -29.4647   22.4979 C   0  0  0  0  0  0
  -18.0284  -28.1388   22.8487 C   0  0  0  0  0  0
  -24.1493  -36.7284   23.2640 C   0  0  0  0  0  0
  -25.9457  -30.8038   21.3655 C   0  0  0  0  0  0
  -26.0150  -29.4319   20.7114 C   0  0  0  0  0  0
  -27.1965  -28.6435   20.7097 C   0  0  0  0  0  0
  -26.0402  -26.9027   19.4786 C   0  0  0  0  0  0
  -24.8642  -27.6801   19.4872 C   0  0  0  0  0  0
  -23.6150  -29.8160   20.1610 C   0  0  0  0  0  0
  -25.4123  -36.3063   24.0324 C   0  0  1  0  0  0
  -20.5880  -28.3683   23.1328 C   0  0  2  0  0  0
  -20.6790  -26.9421   22.5432 C   0  0  0  0  0  0
  -19.5765  -26.6383   21.5240 C   0  0  0  0  0  0
  -18.1930  -26.7933   22.1619 C   0  0  0  0  0  0
  -19.1536  -28.8852   23.2893 C   0  0  0  0  0  0
  -18.9468  -30.1459   23.8898 C   0  0  0  0  0  0
  -17.6468  -30.6590   24.0568 C   0  0  0  0  0  0
  -25.9077  -34.9443   23.5087 C   0  0  0  0  0  0
  -16.5361  -29.9089   23.6342 C   0  0  0  0  0  0
  -16.7270  -28.6512   23.0350 C   0  0  0  0  0  0
  -26.4528  -31.6574   25.0687 C   0  0  0  0  0  0
  -25.3780  -31.3703   26.1423 C   0  0  0  0  0  0
  -27.0405  -30.3010   24.6123 C   0  0  0  0  0  0
  -27.6066  -32.4329   25.7470 C   0  0  0  0  0  0
  -27.5583  -37.1791   24.8474 C   0  0  0  0  0  0
  -21.4161  -29.3032   22.3718 N   0  0  0  0  0  0
  -26.4291  -37.3767   23.9412 N   0  0  0  0  0  0
  -24.6781  -31.0666   22.0962 N   0  0  0  0  0  0
  -23.4190  -28.8214   23.3056 O   0  0  0  0  0  0
  -28.3749  -26.5782   20.1777 O   0  0  0  0  0  0
  -26.5618  -34.8914   22.4637 O   0  0  0  0  0  0
  -23.5416  -32.1442   23.7411 O   0  0  0  0  0  0
  -24.1674  -23.5554   20.7155 C   0  0  0  0  0  0
  -25.4911  -23.9236   21.0274 C   0  0  0  0  0  0
  -23.8879  -22.8489   19.5320 C   0  0  0  0  0  0
  -29.4712  -18.1184   21.1525 C   0  0  0  0  0  0
  -26.2575  -22.8984   18.9647 C   0  0  0  0  0  0
  -31.6332  -17.5152   20.2610 C   0  0  0  0  0  0
  -29.8273  -19.5151   21.2022 C   0  0  0  0  0  0
  -26.5638  -23.5884   20.1647 C   0  0  0  0  0  0
  -24.9352  -22.5189   18.6515 C   0  0  0  0  0  0
  -31.1659  -19.8539   20.8437 C   0  0  0  0  0  0
  -30.3694  -17.0861   20.7320 C   0  0  0  0  0  0
  -32.0213  -18.8629   20.3219 C   0  0  0  0  0  0
  -28.8622  -20.5016   21.8749 C   0  0  0  0  0  0
  -28.2999  -24.1743   21.9796 C   0  0  0  0  0  0
  -28.2842  -22.7778   22.6126 C   0  0  0  0  0  0
  -28.9307  -22.6441   20.3427 C   0  0  0  0  0  0
  -28.0354  -23.9498   20.4846 C   0  0  1  0  0  0
  -24.6428  -21.7480   17.3773 C   0  0  0  0  0  0
  -31.8004  -21.2202   21.0701 C   0  0  0  0  0  0
  -28.4898  -25.2195   19.6335 C   0  0  0  0  0  0
  -28.7752  -21.8469   21.5885 N   0  0  0  0  0  0
  -29.9857  -15.6747   20.8018 N   0  0  0  0  0  0
  -28.1952  -20.0392   22.8056 O   0  0  0  0  0  0
  -33.2702  -19.1973   19.9144 F   0  0  0  0  0  0
  -31.4600  -12.3928   19.1534 H   0  0  0  0  0  0
  -30.2864  -11.3373   19.8822 H   0  0  0  0  0  0
  -29.7486  -11.7525   17.4559 H   0  0  0  0  0  0
  -29.6656  -13.4700   17.7563 H   0  0  0  0  0  0
  -27.8417  -11.3027   18.8454 H   0  0  0  0  0  0
  -27.3713  -12.6024   17.7842 H   0  0  0  0  0  0
  -27.6736  -14.2590   19.5230 H   0  0  0  0  0  0
  -28.6818  -12.0708   21.4028 H   0  0  0  0  0  0
  -28.4660  -13.7477   21.8221 H   0  0  0  0  0  0
  -25.2782   -9.5672   22.4759 H   0  0  0  0  0  0
  -24.0005   -7.4638   22.7480 H   0  0  0  0  0  0
  -21.0861   -8.8809   19.8950 H   0  0  0  0  0  0
  -22.3753  -10.9686   19.6163 H   0  0  0  0  0  0
  -21.2005   -7.6147   23.9734 H   0  0  0  0  0  0
  -21.1473   -6.0520   25.9089 H   0  0  0  0  0  0
  -22.0597   -2.7617   23.2852 H   0  0  0  0  0  0
  -22.4080  -11.9884   22.4787 H   0  0  0  0  0  0
  -21.1104  -13.1252   22.2582 H   0  0  0  0  0  0
  -24.6548  -15.8446   20.5163 H   0  0  0  0  0  0
  -26.2751  -15.6350   20.0845 H   0  0  0  0  0  0
  -26.7179  -32.5438   23.1086 H   0  0  0  0  0  0
  -25.0158  -33.9726   25.0444 H   0  0  0  0  0  0
  -22.6994  -31.3069   21.4078 H   0  0  0  0  0  0
  -23.3751  -35.9625   23.3306 H   0  0  0  0  0  0
  -24.3587  -36.8907   22.2058 H   0  0  0  0  0  0
  -23.7270  -37.6492   23.6671 H   0  0  0  0  0  0
  -26.0730  -31.5673   20.5953 H   0  0  0  0  0  0
  -26.8284  -30.8518   21.9923 H   0  0  0  0  0  0
  -28.0899  -29.0131   21.1925 H   0  0  0  0  0  0
  -26.0031  -25.9390   18.9950 H   0  0  0  0  0  0
  -23.9681  -27.2983   19.0179 H   0  0  0  0  0  0
  -23.7221  -30.5918   19.4031 H   0  0  0  0  0  0
  -22.7329  -29.2435   19.8634 H   0  0  0  0  0  0
  -25.1304  -36.1897   25.0818 H   0  0  0  0  0  0
  -20.9983  -28.3277   24.1445 H   0  0  0  0  0  0
  -20.5783  -26.2283   23.3626 H   0  0  0  0  0  0
  -21.6652  -26.7512   22.1177 H   0  0  0  0  0  0
  -19.6958  -25.6305   21.1256 H   0  0  0  0  0  0
  -19.6707  -27.3213   20.6790 H   0  0  0  0  0  0
  -17.4226  -26.6733   21.3978 H   0  0  0  0  0  0
  -18.0276  -26.0059   22.8984 H   0  0  0  0  0  0
  -19.7951  -30.7278   24.2259 H   0  0  0  0  0  0
  -17.5030  -31.6270   24.5172 H   0  0  0  0  0  0
  -15.5371  -30.2991   23.7686 H   0  0  0  0  0  0
  -15.8659  -28.0846   22.7056 H   0  0  0  0  0  0
  -24.5964  -30.7031   25.7779 H   0  0  0  0  0  0
  -24.8962  -32.2863   26.4834 H   0  0  0  0  0  0
  -25.8128  -30.8912   27.0193 H   0  0  0  0  0  0
  -26.2982  -29.6699   24.1219 H   0  0  0  0  0  0
  -27.4227  -29.7306   25.4594 H   0  0  0  0  0  0
  -27.8772  -30.4321   23.9260 H   0  0  0  0  0  0
  -27.2657  -33.3628   26.2022 H   0  0  0  0  0  0
  -28.3898  -32.6892   25.0330 H   0  0  0  0  0  0
  -28.0713  -31.8476   26.5414 H   0  0  0  0  0  0
  -28.2592  -38.0088   24.7504 H   0  0  0  0  0  0
  -28.1065  -36.2612   24.6300 H   0  0  0  0  0  0
  -27.2279  -37.1453   25.8867 H   0  0  0  0  0  0
  -20.9364  -29.8691   21.6867 H   0  0  0  0  0  0
  -26.0157  -38.2840   24.1385 H   0  0  0  0  0  0
  -23.3633  -23.8071   21.3935 H   0  0  0  0  0  0
  -25.6574  -24.4659   21.9435 H   0  0  0  0  0  0
  -22.8694  -22.5661   19.3032 H   0  0  0  0  0  0
  -28.4925  -17.8263   21.5069 H   0  0  0  0  0  0
  -27.0434  -22.6481   18.2676 H   0  0  0  0  0  0
  -32.3758  -16.8386   19.8779 H   0  0  0  0  0  0
  -29.3048  -24.5843   22.0951 H   0  0  0  0  0  0
  -27.6429  -24.8889   22.4724 H   0  0  0  0  0  0
  -27.2704  -22.5022   22.9077 H   0  0  0  0  0  0
  -28.9095  -22.7565   23.5078 H   0  0  0  0  0  0
  -29.9653  -22.9706   20.2787 H   0  0  0  0  0  0
  -28.7488  -22.0421   19.4529 H   0  0  0  0  0  0
  -23.5951  -21.8403   17.0873 H   0  0  0  0  0  0
  -24.8604  -20.6873   17.5111 H   0  0  0  0  0  0
  -25.2487  -22.1143   16.5496 H   0  0  0  0  0  0
  -31.3303  -21.7931   21.8662 H   0  0  0  0  0  0
  -31.8084  -21.7980   20.1483 H   0  0  0  0  0  0
  -32.8393  -21.1033   21.3785 H   0  0  0  0  0  0
  -29.5657  -25.1246   19.4854 H   0  0  0  0  0  0
  -28.0905  -25.1714   18.6204 H   0  0  0  0  0  0
  -29.0357  -15.4884   21.0816 H   0  0  0  0  0  0
  1 25  1  0  0  0
  1 30  2  0  0  0
  1 92  1  0  0  0
  2  3  1  0  0  0
  2 25  1  0  0  0
  2 95  1  0  0  0
  2 96  1  0  0  0
  3  4  1  0  0  0
  3 97  1  0  0  0
  3 98  1  0  0  0
  4  5  1  0  0  0
  4 99  1  0  0  0
  4100  1  0  0  0
  5  6  1  0  0  0
  5 26  1  0  0  0
  5101  1  0  0  0
  6 25  1  0  0  0
  6102  1  0  0  0
  6103  1  0  0  0
  7  8  2  0  0  0
  7 26  1  0  0  0
  7 29  1  0  0  0
  8  9  1  0  0  0
  8 22  1  0  0  0
  9 10  1  0  0  0
  9 27  2  0  0  0
 10 11  2  0  0  0
 10 15  1  0  0  0
 11 12  1  0  0  0
 11104  1  0  0  0
 12 13  2  0  0  0
 12105  1  0  0  0
 13 14  1  0  0  0
 13 31  1  0  0  0
 14 15  2  0  0  0
 14106  1  0  0  0
 15107  1  0  0  0
 16 17  2  0  0  0
 16 21  1  0  0  0
 16 31  1  0  0  0
 17 18  1  0  0  0
 17108  1  0  0  0
 18 19  2  0  0  0
 18109  1  0  0  0
 19 20  1  0  0  0
 19 24  1  0  0  0
 20 21  2  0  0  0
 20110  1  0  0  0
 21 23  1  0  0  0
 22 28  1  0  0  0
 22 32  2  0  0  0
 26 27  1  0  0  0
 28111  1  0  0  0
 28112  1  0  0  0
 29113  1  0  0  0
 29114  1  0  0  0
 33 34  1  0  0  0
 33 66  1  0  0  0
 33 70  2  0  0  0
 34 36  1  0  0  0
 34 59  1  0  0  0
 34115  1  0  0  0
 35 44  2  0  0  0
 35 45  1  0  0  0
 35 68  1  0  0  0
 36 56  1  0  0  0
 36116  1  0  0  0
 37 39  1  0  0  0
 37 47  1  0  0  0
 37 66  1  0  0  0
 37117  1  0  0  0
 38 43  2  0  0  0
 38 46  1  0  0  0
 38 47  1  0  0  0
 39 64  1  0  0  0
 39 67  2  0  0  0
 40 52  1  0  0  0
 40 53  2  0  0  0
 40 58  1  0  0  0
 41118  1  0  0  0
 41119  1  0  0  0
 41120  1  0  0  0
 41 48  1  0  0  0
 42 43  1  0  0  0
 42 66  1  0  0  0
 42121  1  0  0  0
 42122  1  0  0  0
 43 44  1  0  0  0
 44123  1  0  0  0
 45 46  2  0  0  0
 45124  1  0  0  0
 46125  1  0  0  0
 47126  1  0  0  0
 47127  1  0  0  0
 48 56  1  0  0  0
 48 65  1  0  0  0
 48128  1  0  0  0
 49 50  1  0  0  0
 49 53  1  0  0  0
 49 64  1  0  0  0
 49129  1  0  0  0
 50 51  1  0  0  0
 50130  1  0  0  0
 50131  1  0  0  0
 51 52  1  0  0  0
 51132  1  0  0  0
 51133  1  0  0  0
 52134  1  0  0  0
 52135  1  0  0  0
 53 54  1  0  0  0
 54 55  2  0  0  0
 54136  1  0  0  0
 55 57  1  0  0  0
 55137  1  0  0  0
 56 69  2  0  0  0
 57 58  2  0  0  0
 57138  1  0  0  0
 58139  1  0  0  0
 59 60  1  0  0  0
 59 61  1  0  0  0
 59 62  1  0  0  0
 60140  1  0  0  0
 60141  1  0  0  0
 60142  1  0  0  0
 61143  1  0  0  0
 61144  1  0  0  0
 61145  1  0  0  0
 62146  1  0  0  0
 62147  1  0  0  0
 62148  1  0  0  0
 63 65  1  0  0  0
 63149  1  0  0  0
 63150  1  0  0  0
 63151  1  0  0  0
 64152  1  0  0  0
 65153  1  0  0  0
 68 90  1  0  0  0
 71 72  2  0  0  0
 71 73  1  0  0  0
 71154  1  0  0  0
 72 78  1  0  0  0
 72155  1  0  0  0
 73 79  2  0  0  0
 73156  1  0  0  0
 74 77  2  0  0  0
 74 81  1  0  0  0
 74157  1  0  0  0
 75 78  2  0  0  0
 75 79  1  0  0  0
 75158  1  0  0  0
 76 81  2  0  0  0
 76 82  1  0  0  0
 76159  1  0  0  0
 77 80  1  0  0  0
 77 83  1  0  0  0
 78 87  1  0  0  0
 79 88  1  0  0  0
 80 82  2  0  0  0
 80 89  1  0  0  0
 81 92  1  0  0  0
 82 94  1  0  0  0
 83 91  1  0  0  0
 83 93  2  0  0  0
 84 85  1  0  0  0
 84 87  1  0  0  0
 84160  1  0  0  0
 84161  1  0  0  0
 85 91  1  0  0  0
 85162  1  0  0  0
 85163  1  0  0  0
 86 87  1  0  0  0
 86 91  1  0  0  0
 86164  1  0  0  0
 86165  1  0  0  0
 87 90  1  0  0  0
 88166  1  0  0  0
 88167  1  0  0  0
 88168  1  0  0  0
 89169  1  0  0  0
 89170  1  0  0  0
 89171  1  0  0  0
 90172  1  0  0  0
 90173  1  0  0  0
 92174  1  0  0  0
M  ISO  4   1 100  68 101  90 101  92 100
M  END
> <chiral flag>
0

> <version>
0

> <s_m_source_file>
/data/baiqing/PycharmProjects/Reinvent-master-3.2/result/LINK_invent/BTK/process_docking_weight1_custom_product_contain_oxygen_bond_distance_aromatic_linkinvent_7_9_3/rearranged_h_0139.sdf

> <i_m_source_file_index>
59

> <r_mmod_Potential_Energy-OPLS-2005>
222.216690063477

> <r_mmod_Stretch_Energy-OPLS-2005>
76.5149307250977

> <r_mmod_Bend_Energy-OPLS-2005>
200.645721435547

> <r_mmod_Torsional_Energy-OPLS-2005>
322.061431884766

> <r_mmod_Improper_Torsional_Energy-OPLS-2005>
6.94660615921021

> <r_mmod_Van_der_Waal_Energy-OPLS-2005>
173.913208007812

> <r_mmod_Electrostatic_Energy-OPLS-2005>
-379.25537109375

> <r_mmod_Solvation_Energy-OPLS-2005>
-210.744522094727

> <b_mmod_Minimization_Converged-OPLS-2005>
0

> <r_mmod_RMS_Derivative-OPLS-2005>
2.53687238693237

$$$$
59
                    3D
 Structure written by MMmdl.
162171  0  0  1  0            999 V2000
  -30.6780  -14.5761   20.5201 C   0  0  0  0  0  0
  -30.4282  -12.3579   19.4654 C   0  0  0  0  0  0
  -29.5158  -12.5060   18.2293 C   0  0  0  0  0  0
  -28.0321  -12.3624   18.6276 C   0  0  0  0  0  0
  -27.6572  -13.2253   19.8643 C   0  0  2  0  0  0
  -28.6939  -13.0762   21.0010 C   0  0  0  0  0  0
  -25.2547  -13.8205   20.5669 C   0  0  0  0  0  0
  -24.1821  -13.0453   20.9174 C   0  0  0  0  0  0
  -24.6411  -11.6935   20.8717 C   0  0  0  0  0  0
  -23.9086  -10.4309   21.0403 C   0  0  0  0  0  0
  -24.3634   -9.4225   21.9188 C   0  0  0  0  0  0
  -23.6324   -8.2257   22.0741 C   0  0  0  0  0  0
  -22.4309   -8.0289   21.3533 C   0  0  0  0  0  0
  -21.9932   -9.0267   20.4638 C   0  0  0  0  0  0
  -22.7257  -10.2152   20.3049 C   0  0  0  0  0  0
  -21.6861   -6.0748   22.5285 C   0  0  0  0  0  0
  -21.4018   -6.5645   23.8220 C   0  0  0  0  0  0
  -21.3654   -5.6792   24.9183 C   0  0  0  0  0  0
  -21.6044   -4.3057   24.7231 C   0  0  0  0  0  0
  -21.8813   -3.8154   23.4346 C   0  0  0  0  0  0
  -21.9191   -4.6978   22.3405 C   0  0  0  0  0  0
  -22.7836  -13.5235   21.1825 C   0  0  0  0  0  0
  -22.1653   -4.2163   21.0987 F   0  0  0  0  0  0
  -21.5638   -3.4533   25.7739 F   0  0  0  0  0  0
  -30.0242  -13.3782   20.4505 N   0  0  0  0  0  0
  -26.2996  -12.9417   20.3284 N   0  0  0  0  0  0
  -25.9346  -11.6559   20.5730 N   0  0  0  0  0  0
  -22.0462  -12.8252   22.0389 N   0  0  0  0  0  0
  -25.4269  -15.1925   20.4088 N   0  0  0  0  0  0
  -31.8134  -14.7271   20.0622 O   0  0  0  0  0  0
  -21.6645   -6.8896   21.4252 O   0  0  0  0  0  0
  -22.3515  -14.5537   20.6659 O   0  0  0  0  0  0
  -24.6206  -31.8640   23.2080 C   0  0  0  0  0  0
  -25.9070  -32.4801   23.8400 C   0  0  1  0  0  0
  -27.2223  -27.3652   20.1093 C   0  0  0  0  0  0
  -25.5899  -33.8601   24.2321 N   0  0  0  0  0  0
  -23.4123  -30.4902   21.5490 C   0  0  2  0  0  0
  -24.8582  -28.9564   20.1100 C   0  0  0  0  0  0
  -22.7448  -29.4640   22.4953 C   0  0  0  0  0  0
  -18.0269  -28.1371   22.8501 C   0  0  0  0  0  0
  -24.1488  -36.7306   23.2641 C   0  0  0  0  0  0
  -25.9502  -30.8107   21.3723 C   0  0  0  0  0  0
  -26.0237  -29.4426   20.7139 C   0  0  0  0  0  0
  -27.2101  -28.6570   20.7048 C   0  0  0  0  0  0
  -26.0299  -26.9185   19.4903 C   0  0  0  0  0  0
  -24.8609  -27.6973   19.4916 C   0  0  0  0  0  0
  -23.6233  -29.8292   20.1624 C   0  0  0  0  0  0
  -25.4105  -36.3102   24.0342 C   0  0  1  0  0  0
  -20.5876  -28.3673   23.1296 C   0  0  2  0  0  0
  -20.6772  -26.9397   22.5419 C   0  0  0  0  0  0
  -19.5741  -26.6380   21.5227 C   0  0  0  0  0  0
  -18.1917  -26.7916   22.1634 C   0  0  0  0  0  0
  -19.1526  -28.8829   23.2898 C   0  0  0  0  0  0
  -18.9458  -30.1438   23.8906 C   0  0  0  0  0  0
  -17.6460  -30.6585   24.0558 C   0  0  0  0  0  0
  -25.9036  -34.9465   23.5128 C   0  0  0  0  0  0
  -16.5349  -29.9086   23.6322 C   0  0  0  0  0  0
  -16.7265  -28.6498   23.0357 C   0  0  0  0  0  0
  -26.4477  -31.6589   25.0742 C   0  0  0  0  0  0
  -25.3743  -31.3724   26.1501 C   0  0  0  0  0  0
  -27.0296  -30.3005   24.6164 C   0  0  0  0  0  0
  -27.6036  -32.4325   25.7500 C   0  0  0  0  0  0
  -27.5578  -37.1800   24.8456 C   0  0  0  0  0  0
  -21.4165  -29.3036   22.3689 N   0  0  0  0  0  0
  -26.4282  -37.3792   23.9417 N   0  0  0  0  0  0
  -24.6793  -31.0707   22.0996 N   0  0  0  0  0  0
  -23.4204  -28.8164   23.2999 O   0  0  0  0  0  0
  -28.3570  -26.5537   20.1547 O   0  0  0  0  0  0
  -26.5607  -34.8915   22.4699 O   0  0  0  0  0  0
  -23.5381  -32.1399   23.7441 O   0  0  0  0  0  0
  -30.0874  -18.1766   21.2617 C   0  0  0  0  0  0
  -30.2159  -19.5311   19.2663 C   0  0  0  0  0  0
  -30.1251  -17.2104   19.0530 C   0  0  0  0  0  0
  -30.2061  -19.4796   20.6756 C   0  0  0  0  0  0
  -30.0795  -17.0034   20.4494 C   0  0  0  0  0  0
  -30.4850  -20.6978   21.5036 C   0  0  0  0  0  0
  -29.6349  -24.3313   21.9331 C   0  0  0  0  0  0
  -30.3908  -23.0512   22.3277 C   0  0  0  0  0  0
  -29.0920  -22.6270   20.3687 C   0  0  0  0  0  0
  -29.3557  -24.1832   20.4350 C   0  0  2  0  0  0
  -30.6000  -24.5438   19.5957 C   0  0  0  0  0  0
  -28.1681  -25.1100   19.9808 C   0  0  0  0  0  0
  -30.1677  -18.4324   18.4762 N   0  0  0  0  0  0
  -30.0155  -21.9955   21.3557 N   0  0  0  0  0  0
  -29.9877  -15.6537   20.9821 N   0  0  0  0  0  0
  -31.3550  -20.4911   22.5142 N   0  3  0  0  0  0
  -31.4761  -12.4545   19.1732 H   0  0  0  0  0  0
  -30.3322  -11.3631   19.9027 H   0  0  0  0  0  0
  -29.7818  -11.7574   17.4801 H   0  0  0  0  0  0
  -29.6760  -13.4790   17.7595 H   0  0  0  0  0  0
  -27.8491  -11.3091   18.8453 H   0  0  0  0  0  0
  -27.3903  -12.6153   17.7828 H   0  0  0  0  0  0
  -27.6815  -14.2648   19.5332 H   0  0  0  0  0  0
  -28.6755  -12.0619   21.4039 H   0  0  0  0  0  0
  -28.4442  -13.7317   21.8379 H   0  0  0  0  0  0
  -25.2794   -9.5725   22.4742 H   0  0  0  0  0  0
  -24.0050   -7.4649   22.7455 H   0  0  0  0  0  0
  -21.0855   -8.8801   19.8946 H   0  0  0  0  0  0
  -22.3728  -10.9692   19.6145 H   0  0  0  0  0  0
  -21.2003   -7.6156   23.9734 H   0  0  0  0  0  0
  -21.1479   -6.0516   25.9083 H   0  0  0  0  0  0
  -22.0593   -2.7615   23.2841 H   0  0  0  0  0  0
  -22.4078  -11.9966   22.4887 H   0  0  0  0  0  0
  -21.1053  -13.1256   22.2508 H   0  0  0  0  0  0
  -24.6636  -15.8527   20.5131 H   0  0  0  0  0  0
  -26.2860  -15.6257   20.0947 H   0  0  0  0  0  0
  -26.7135  -32.5496   23.1159 H   0  0  0  0  0  0
  -25.0040  -33.9762   25.0457 H   0  0  0  0  0  0
  -22.7026  -31.3091   21.4125 H   0  0  0  0  0  0
  -23.3754  -35.9631   23.3278 H   0  0  0  0  0  0
  -24.3596  -36.8943   22.2061 H   0  0  0  0  0  0
  -23.7226  -37.6496   23.6671 H   0  0  0  0  0  0
  -26.0786  -31.5771   20.6069 H   0  0  0  0  0  0
  -26.8319  -30.8568   22.0000 H   0  0  0  0  0  0
  -28.1053  -29.0262   21.1852 H   0  0  0  0  0  0
  -25.9719  -25.9553   19.0070 H   0  0  0  0  0  0
  -23.9656  -27.3193   19.0168 H   0  0  0  0  0  0
  -23.7302  -30.6066   19.4053 H   0  0  0  0  0  0
  -22.7458  -29.2514   19.8669 H   0  0  0  0  0  0
  -25.1278  -36.1967   25.0833 H   0  0  0  0  0  0
  -20.9980  -28.3256   24.1415 H   0  0  0  0  0  0
  -20.5698  -26.2278   23.3618 H   0  0  0  0  0  0
  -21.6637  -26.7449   22.1198 H   0  0  0  0  0  0
  -19.6908  -25.6302   21.1228 H   0  0  0  0  0  0
  -19.6666  -27.3212   20.6774 H   0  0  0  0  0  0
  -17.4196  -26.6673   21.4025 H   0  0  0  0  0  0
  -18.0294  -26.0054   22.9019 H   0  0  0  0  0  0
  -19.7928  -30.7242   24.2289 H   0  0  0  0  0  0
  -17.5013  -31.6261   24.5159 H   0  0  0  0  0  0
  -15.5347  -30.2999   23.7625 H   0  0  0  0  0  0
  -15.8661  -28.0818   22.7075 H   0  0  0  0  0  0
  -24.5909  -30.7063   25.7870 H   0  0  0  0  0  0
  -24.8947  -32.2889   26.4942 H   0  0  0  0  0  0
  -25.8108  -30.8917   27.0269 H   0  0  0  0  0  0
  -26.2850  -29.6779   24.1189 H   0  0  0  0  0  0
  -27.3985  -29.7230   25.4655 H   0  0  0  0  0  0
  -27.8731  -30.4270   23.9371 H   0  0  0  0  0  0
  -27.2636  -33.3626   26.2069 H   0  0  0  0  0  0
  -28.3845  -32.6892   25.0330 H   0  0  0  0  0  0
  -28.0709  -31.8468   26.5428 H   0  0  0  0  0  0
  -28.2585  -38.0112   24.7529 H   0  0  0  0  0  0
  -28.1081  -36.2639   24.6241 H   0  0  0  0  0  0
  -27.2300  -37.1410   25.8860 H   0  0  0  0  0  0
  -20.9323  -29.8764   21.6913 H   0  0  0  0  0  0
  -26.0164  -38.2859   24.1445 H   0  0  0  0  0  0
  -30.0724  -18.0739   22.3381 H   0  0  0  0  0  0
  -30.3345  -20.4688   18.7452 H   0  0  0  0  0  0
  -30.1007  -16.3734   18.3685 H   0  0  0  0  0  0
  -30.2105  -25.2315   22.1513 H   0  0  0  0  0  0
  -28.7063  -24.3961   22.5032 H   0  0  0  0  0  0
  -30.1364  -22.7566   23.3464 H   0  0  0  0  0  0
  -31.4671  -23.2213   22.2763 H   0  0  0  0  0  0
  -29.2404  -22.2452   19.3605 H   0  0  0  0  0  0
  -28.0694  -22.3913   20.6651 H   0  0  0  0  0  0
  -31.4769  -23.9622   19.8784 H   0  0  0  0  0  0
  -30.8606  -25.5967   19.7090 H   0  0  0  0  0  0
  -30.4235  -24.3656   18.5339 H   0  0  0  0  0  0
  -27.2804  -24.7992   20.5344 H   0  0  0  0  0  0
  -27.9613  -24.9107   18.9276 H   0  0  0  0  0  0
  -29.1801  -15.4501   21.5538 H   0  0  0  0  0  0
  -31.8477  -19.6169   22.6160 H   0  0  0  0  0  0
  -31.6471  -21.2434   23.1200 H   0  0  0  0  0  0
  1 25  1  0  0  0
  1 30  2  0  0  0
  1 85  1  0  0  0
  2  3  1  0  0  0
  2 25  1  0  0  0
  2 87  1  0  0  0
  2 88  1  0  0  0
  3  4  1  0  0  0
  3 89  1  0  0  0
  3 90  1  0  0  0
  4  5  1  0  0  0
  4 91  1  0  0  0
  4 92  1  0  0  0
  5  6  1  0  0  0
  5 26  1  0  0  0
  5 93  1  0  0  0
  6 25  1  0  0  0
  6 94  1  0  0  0
  6 95  1  0  0  0
  7  8  2  0  0  0
  7 26  1  0  0  0
  7 29  1  0  0  0
  8  9  1  0  0  0
  8 22  1  0  0  0
  9 10  1  0  0  0
  9 27  2  0  0  0
 10 11  2  0  0  0
 10 15  1  0  0  0
 11 12  1  0  0  0
 11 96  1  0  0  0
 12 13  2  0  0  0
 12 97  1  0  0  0
 13 14  1  0  0  0
 13 31  1  0  0  0
 14 15  2  0  0  0
 14 98  1  0  0  0
 15 99  1  0  0  0
 16 17  2  0  0  0
 16 21  1  0  0  0
 16 31  1  0  0  0
 17 18  1  0  0  0
 17100  1  0  0  0
 18 19  2  0  0  0
 18101  1  0  0  0
 19 20  1  0  0  0
 19 24  1  0  0  0
 20 21  2  0  0  0
 20102  1  0  0  0
 21 23  1  0  0  0
 22 28  1  0  0  0
 22 32  2  0  0  0
 26 27  1  0  0  0
 28103  1  0  0  0
 28104  1  0  0  0
 29105  1  0  0  0
 29106  1  0  0  0
 33 34  1  0  0  0
 33 66  1  0  0  0
 33 70  2  0  0  0
 34 36  1  0  0  0
 34 59  1  0  0  0
 34107  1  0  0  0
 35 44  2  0  0  0
 35 45  1  0  0  0
 35 68  1  0  0  0
 36 56  1  0  0  0
 36108  1  0  0  0
 37 39  1  0  0  0
 37 47  1  0  0  0
 37 66  1  0  0  0
 37109  1  0  0  0
 38 43  2  0  0  0
 38 46  1  0  0  0
 38 47  1  0  0  0
 39 64  1  0  0  0
 39 67  2  0  0  0
 40 52  1  0  0  0
 40 53  2  0  0  0
 40 58  1  0  0  0
 41110  1  0  0  0
 41111  1  0  0  0
 41112  1  0  0  0
 41 48  1  0  0  0
 42 43  1  0  0  0
 42 66  1  0  0  0
 42113  1  0  0  0
 42114  1  0  0  0
 43 44  1  0  0  0
 44115  1  0  0  0
 45 46  2  0  0  0
 45116  1  0  0  0
 46117  1  0  0  0
 47118  1  0  0  0
 47119  1  0  0  0
 48 56  1  0  0  0
 48 65  1  0  0  0
 48120  1  0  0  0
 49 50  1  0  0  0
 49 53  1  0  0  0
 49 64  1  0  0  0
 49121  1  0  0  0
 50 51  1  0  0  0
 50122  1  0  0  0
 50123  1  0  0  0
 51 52  1  0  0  0
 51124  1  0  0  0
 51125  1  0  0  0
 52126  1  0  0  0
 52127  1  0  0  0
 53 54  1  0  0  0
 54 55  2  0  0  0
 54128  1  0  0  0
 55 57  1  0  0  0
 55129  1  0  0  0
 56 69  2  0  0  0
 57 58  2  0  0  0
 57130  1  0  0  0
 58131  1  0  0  0
 59 60  1  0  0  0
 59 61  1  0  0  0
 59 62  1  0  0  0
 60132  1  0  0  0
 60133  1  0  0  0
 60134  1  0  0  0
 61135  1  0  0  0
 61136  1  0  0  0
 61137  1  0  0  0
 62138  1  0  0  0
 62139  1  0  0  0
 62140  1  0  0  0
 63 65  1  0  0  0
 63141  1  0  0  0
 63142  1  0  0  0
 63143  1  0  0  0
 64144  1  0  0  0
 65145  1  0  0  0
 68 82  1  0  0  0
 71 74  2  0  0  0
 71 75  1  0  0  0
 71146  1  0  0  0
 72 74  1  0  0  0
 72 83  2  0  0  0
 72147  1  0  0  0
 73 75  2  0  0  0
 73 83  1  0  0  0
 73148  1  0  0  0
 74 76  1  0  0  0
 75 85  1  0  0  0
 76 84  1  0  0  0
 76 86  2  0  0  0
 77 78  1  0  0  0
 77 80  1  0  0  0
 77149  1  0  0  0
 77150  1  0  0  0
 78 84  1  0  0  0
 78151  1  0  0  0
 78152  1  0  0  0
 79 80  1  0  0  0
 79 84  1  0  0  0
 79153  1  0  0  0
 79154  1  0  0  0
 80 81  1  0  0  0
 80 82  1  0  0  0
 81155  1  0  0  0
 81156  1  0  0  0
 81157  1  0  0  0
 82158  1  0  0  0
 82159  1  0  0  0
 85160  1  0  0  0
 86161  1  0  0  0
 86162  1  0  0  0
M  CHG  1  86   1
M  ISO  4   1 100  68 101  82 101  85 100
M  END
> <chiral flag>
0

> <version>
0

> <s_m_source_file>
/data/baiqing/PycharmProjects/Reinvent-master-3.2/result/LINK_invent/BTK/process_docking_weight1_custom_product_contain_oxygen_bond_distance_aromatic_linkinvent_7_9_3/rearranged_h_0139.sdf

> <i_m_source_file_index>
60

> <r_mmod_Potential_Energy-OPLS-2005>
-91.0971984863281

> <r_mmod_Stretch_Energy-OPLS-2005>
63.6443328857422

> <r_mmod_Bend_Energy-OPLS-2005>
157.699890136719

> <r_mmod_Torsional_Energy-OPLS-2005>
309.595672607422

> <r_mmod_Improper_Torsional_Energy-OPLS-2005>
5.21177816390991

> <r_mmod_Van_der_Waal_Energy-OPLS-2005>
156.64143371582

> <r_mmod_Electrostatic_Energy-OPLS-2005>
-345.194976806641

> <r_mmod_Solvation_Energy-OPLS-2005>
-470.165496826172

> <b_mmod_Minimization_Converged-OPLS-2005>
0

> <r_mmod_RMS_Derivative-OPLS-2005>
2.87739539146423

$$$$
60
                    3D
 Structure written by MMmdl.
154163  0  0  1  0            999 V2000
  -30.6108  -14.8112   20.4221 C   0  0  0  0  0  0
  -30.4322  -12.4914   19.4902 C   0  0  0  0  0  0
  -29.5170  -12.5072   18.2461 C   0  0  0  0  0  0
  -28.0447  -12.3238   18.6593 C   0  0  0  0  0  0
  -27.6381  -13.2408   19.8436 C   0  0  2  0  0  0
  -28.6820  -13.2222   20.9821 C   0  0  0  0  0  0
  -25.2495  -13.8215   20.5703 C   0  0  0  0  0  0
  -24.1794  -13.0448   20.9214 C   0  0  0  0  0  0
  -24.6391  -11.6929   20.8738 C   0  0  0  0  0  0
  -23.9068  -10.4298   21.0400 C   0  0  0  0  0  0
  -24.3615   -9.4210   21.9180 C   0  0  0  0  0  0
  -23.6285   -8.2247   22.0752 C   0  0  0  0  0  0
  -22.4265   -8.0277   21.3547 C   0  0  0  0  0  0
  -21.9903   -9.0255   20.4655 C   0  0  0  0  0  0
  -22.7236  -10.2134   20.3056 C   0  0  0  0  0  0
  -21.6858   -6.0726   22.5273 C   0  0  0  0  0  0
  -21.4023   -6.5630   23.8207 C   0  0  0  0  0  0
  -21.3661   -5.6783   24.9168 C   0  0  0  0  0  0
  -21.6040   -4.3045   24.7221 C   0  0  0  0  0  0
  -21.8819   -3.8138   23.4344 C   0  0  0  0  0  0
  -21.9198   -4.6953   22.3400 C   0  0  0  0  0  0
  -22.7810  -13.5221   21.1863 C   0  0  0  0  0  0
  -22.1659   -4.2139   21.0977 F   0  0  0  0  0  0
  -21.5632   -3.4532   25.7738 F   0  0  0  0  0  0
  -29.9793  -13.5798   20.3953 N   0  0  0  0  0  0
  -26.2922  -12.9437   20.3255 N   0  0  0  0  0  0
  -25.9322  -11.6571   20.5729 N   0  0  0  0  0  0
  -22.0451  -12.8223   22.0422 N   0  0  0  0  0  0
  -25.4179  -15.1943   20.4129 N   0  0  0  0  0  0
  -31.8104  -14.8508   20.1345 O   0  0  0  0  0  0
  -21.6635   -6.8868   21.4237 O   0  0  0  0  0  0
  -22.3495  -14.5523   20.6699 O   0  0  0  0  0  0
  -24.6359  -31.8514   23.1965 C   0  0  0  0  0  0
  -25.9166  -32.4734   23.8322 C   0  0  1  0  0  0
  -27.2192  -27.2283   20.1365 C   0  0  0  0  0  0
  -25.5951  -33.8537   24.2245 N   0  0  0  0  0  0
  -23.4364  -30.4722   21.5402 C   0  0  2  0  0  0
  -24.8873  -28.9181   20.1061 C   0  0  0  0  0  0
  -22.7539  -29.4570   22.4900 C   0  0  0  0  0  0
  -18.0299  -28.1381   22.8477 C   0  0  0  0  0  0
  -24.1493  -36.7273   23.2639 C   0  0  0  0  0  0
  -25.9859  -30.7530   21.3837 C   0  0  0  0  0  0
  -26.0608  -29.3734   20.7239 C   0  0  0  0  0  0
  -27.2329  -28.5406   20.7294 C   0  0  0  0  0  0
  -26.0283  -26.8554   19.4785 C   0  0  0  0  0  0
  -24.8781  -27.6681   19.4697 C   0  0  0  0  0  0
  -23.6574  -29.8068   20.1564 C   0  0  0  0  0  0
  -25.4119  -36.3058   24.0324 C   0  0  1  0  0  0
  -20.5907  -28.3697   23.1256 C   0  0  2  0  0  0
  -20.6784  -26.9404   22.5408 C   0  0  0  0  0  0
  -19.5761  -26.6374   21.5206 C   0  0  0  0  0  0
  -18.1940  -26.7924   22.1616 C   0  0  0  0  0  0
  -19.1555  -28.8858   23.2856 C   0  0  0  0  0  0
  -18.9470  -30.1462   23.8872 C   0  0  0  0  0  0
  -17.6467  -30.6580   24.0554 C   0  0  0  0  0  0
  -25.9061  -34.9429   23.5088 C   0  0  0  0  0  0
  -16.5358  -29.9072   23.6329 C   0  0  0  0  0  0
  -16.7287  -28.6491   23.0349 C   0  0  0  0  0  0
  -26.4509  -31.6574   25.0730 C   0  0  0  0  0  0
  -25.3720  -31.3741   26.1443 C   0  0  0  0  0  0
  -27.0357  -30.2984   24.6249 C   0  0  0  0  0  0
  -27.6062  -32.4319   25.7495 C   0  0  0  0  0  0
  -27.5582  -37.1789   24.8460 C   0  0  0  0  0  0
  -21.4238  -29.3036   22.3640 N   0  0  0  0  0  0
  -26.4291  -37.3761   23.9407 N   0  0  0  0  0  0
  -24.7051  -31.0445   22.0958 N   0  0  0  0  0  0
  -23.4214  -28.8110   23.3019 O   0  0  0  0  0  0
  -28.2390  -26.2389   20.2053 O   0  0  0  0  0  0
  -26.5632  -34.8913   22.4658 O   0  0  0  0  0  0
  -23.5498  -32.1356   23.7231 O   0  0  0  0  0  0
  -31.1376  -17.6510   19.1987 C   0  0  0  0  0  0
  -31.4214  -18.9430   18.7153 C   0  0  0  0  0  0
  -29.4246  -18.6302   20.6084 C   0  0  0  0  0  0
  -29.6912  -19.9995   20.1213 C   0  0  0  0  0  0
  -30.1392  -17.4168   20.1725 C   0  0  0  0  0  0
  -30.7280  -20.0864   19.1571 C   0  0  0  0  0  0
  -28.2082  -23.6436   20.8108 C   0  0  0  0  0  0
  -27.8647  -25.0075   20.8384 C   0  0  0  0  0  0
  -27.4517  -22.6812   21.7200 C   0  0  0  0  0  0
  -29.2010  -22.6837   20.0557 C   0  0  0  0  0  0
  -28.0551  -21.2546   21.6185 C   0  0  0  0  0  0
  -29.0045  -21.2425   20.5176 N   0  0  0  0  0  0
  -29.8679  -15.9913   20.5991 N   0  0  0  0  0  0
  -31.0816  -21.2810   18.6236 F   0  0  0  0  0  0
  -31.4733  -12.6101   19.1842 H   0  0  0  0  0  0
  -30.3789  -11.5268   19.9969 H   0  0  0  0  0  0
  -29.8101  -11.7196   17.5501 H   0  0  0  0  0  0
  -29.6367  -13.4497   17.7102 H   0  0  0  0  0  0
  -27.9127  -11.2786   18.9408 H   0  0  0  0  0  0
  -27.3891  -12.4928   17.8049 H   0  0  0  0  0  0
  -27.6186  -14.2521   19.4370 H   0  0  0  0  0  0
  -28.7313  -12.2392   21.4527 H   0  0  0  0  0  0
  -28.4052  -13.9266   21.7681 H   0  0  0  0  0  0
  -25.2758   -9.5689   22.4757 H   0  0  0  0  0  0
  -23.9995   -7.4638   22.7470 H   0  0  0  0  0  0
  -21.0834   -8.8771   19.8965 H   0  0  0  0  0  0
  -22.3683  -10.9667   19.6166 H   0  0  0  0  0  0
  -21.2013   -7.6137   23.9704 H   0  0  0  0  0  0
  -21.1487   -6.0515   25.9069 H   0  0  0  0  0  0
  -22.0600   -2.7602   23.2847 H   0  0  0  0  0  0
  -22.4060  -11.9895   22.4841 H   0  0  0  0  0  0
  -21.1076  -13.1271   22.2618 H   0  0  0  0  0  0
  -24.6489  -15.8466   20.5216 H   0  0  0  0  0  0
  -26.2576  -15.6329   20.0564 H   0  0  0  0  0  0
  -26.7236  -32.5373   23.1064 H   0  0  0  0  0  0
  -25.0102  -33.9662   25.0394 H   0  0  0  0  0  0
  -22.7349  -31.2958   21.3931 H   0  0  0  0  0  0
  -23.3756  -35.9602   23.3293 H   0  0  0  0  0  0
  -24.3591  -36.8905   22.2057 H   0  0  0  0  0  0
  -23.7245  -37.6470   23.6671 H   0  0  0  0  0  0
  -26.1323  -31.5127   20.6145 H   0  0  0  0  0  0
  -26.8605  -30.8007   22.0207 H   0  0  0  0  0  0
  -28.1267  -28.8755   21.2362 H   0  0  0  0  0  0
  -25.9727  -25.8870   19.0010 H   0  0  0  0  0  0
  -23.9822  -27.3129   18.9789 H   0  0  0  0  0  0
  -23.7834  -30.5830   19.4011 H   0  0  0  0  0  0
  -22.7751  -29.2412   19.8510 H   0  0  0  0  0  0
  -25.1298  -36.1898   25.0814 H   0  0  0  0  0  0
  -20.9994  -28.3279   24.1381 H   0  0  0  0  0  0
  -20.5669  -26.2304   23.3620 H   0  0  0  0  0  0
  -21.6655  -26.7416   22.1212 H   0  0  0  0  0  0
  -19.6917  -25.6279   21.1249 H   0  0  0  0  0  0
  -19.6695  -27.3173   20.6723 H   0  0  0  0  0  0
  -17.4208  -26.6672   21.4018 H   0  0  0  0  0  0
  -18.0331  -26.0070   22.9016 H   0  0  0  0  0  0
  -19.7944  -30.7287   24.2229 H   0  0  0  0  0  0
  -17.5016  -31.6257   24.5160 H   0  0  0  0  0  0
  -15.5355  -30.2959   23.7668 H   0  0  0  0  0  0
  -15.8690  -28.0801   22.7074 H   0  0  0  0  0  0
  -24.5895  -30.7087   25.7775 H   0  0  0  0  0  0
  -24.8908  -32.2913   26.4846 H   0  0  0  0  0  0
  -25.8028  -30.8933   27.0235 H   0  0  0  0  0  0
  -26.2956  -29.6725   24.1257 H   0  0  0  0  0  0
  -27.3999  -29.7255   25.4784 H   0  0  0  0  0  0
  -27.8847  -30.4235   23.9528 H   0  0  0  0  0  0
  -27.2674  -33.3625   26.2056 H   0  0  0  0  0  0
  -28.3874  -32.6872   25.0324 H   0  0  0  0  0  0
  -28.0731  -31.8459   26.5421 H   0  0  0  0  0  0
  -28.2588  -38.0097   24.7525 H   0  0  0  0  0  0
  -28.1091  -36.2632   24.6257 H   0  0  0  0  0  0
  -27.2310  -37.1407   25.8866 H   0  0  0  0  0  0
  -20.9439  -29.8760   21.6832 H   0  0  0  0  0  0
  -26.0163  -38.2830   24.1418 H   0  0  0  0  0  0
  -31.7064  -16.8390   18.7734 H   0  0  0  0  0  0
  -32.1930  -19.0634   17.9693 H   0  0  0  0  0  0
  -28.6400  -18.5020   21.3386 H   0  0  0  0  0  0
  -27.0793  -25.2460   21.5443 H   0  0  0  0  0  0
  -26.4089  -22.6594   21.4009 H   0  0  0  0  0  0
  -27.4616  -23.0392   22.7509 H   0  0  0  0  0  0
  -30.2239  -23.0056   20.2576 H   0  0  0  0  0  0
  -29.0314  -22.7640   18.9806 H   0  0  0  0  0  0
  -27.2693  -20.5127   21.4641 H   0  0  0  0  0  0
  -28.5740  -20.9938   22.5428 H   0  0  0  0  0  0
  -28.9448  -15.8313   20.9748 H   0  0  0  0  0  0
  1 25  1  0  0  0
  1 30  2  0  0  0
  1 83  1  0  0  0
  2  3  1  0  0  0
  2 25  1  0  0  0
  2 85  1  0  0  0
  2 86  1  0  0  0
  3  4  1  0  0  0
  3 87  1  0  0  0
  3 88  1  0  0  0
  4  5  1  0  0  0
  4 89  1  0  0  0
  4 90  1  0  0  0
  5  6  1  0  0  0
  5 26  1  0  0  0
  5 91  1  0  0  0
  6 25  1  0  0  0
  6 92  1  0  0  0
  6 93  1  0  0  0
  7  8  2  0  0  0
  7 26  1  0  0  0
  7 29  1  0  0  0
  8  9  1  0  0  0
  8 22  1  0  0  0
  9 10  1  0  0  0
  9 27  2  0  0  0
 10 11  2  0  0  0
 10 15  1  0  0  0
 11 12  1  0  0  0
 11 94  1  0  0  0
 12 13  2  0  0  0
 12 95  1  0  0  0
 13 14  1  0  0  0
 13 31  1  0  0  0
 14 15  2  0  0  0
 14 96  1  0  0  0
 15 97  1  0  0  0
 16 17  2  0  0  0
 16 21  1  0  0  0
 16 31  1  0  0  0
 17 18  1  0  0  0
 17 98  1  0  0  0
 18 19  2  0  0  0
 18 99  1  0  0  0
 19 20  1  0  0  0
 19 24  1  0  0  0
 20 21  2  0  0  0
 20100  1  0  0  0
 21 23  1  0  0  0
 22 28  1  0  0  0
 22 32  2  0  0  0
 26 27  1  0  0  0
 28101  1  0  0  0
 28102  1  0  0  0
 29103  1  0  0  0
 29104  1  0  0  0
 33 34  1  0  0  0
 33 66  1  0  0  0
 33 70  2  0  0  0
 34 36  1  0  0  0
 34 59  1  0  0  0
 34105  1  0  0  0
 35 44  2  0  0  0
 35 45  1  0  0  0
 35 68  1  0  0  0
 36 56  1  0  0  0
 36106  1  0  0  0
 37 39  1  0  0  0
 37 47  1  0  0  0
 37 66  1  0  0  0
 37107  1  0  0  0
 38 43  2  0  0  0
 38 46  1  0  0  0
 38 47  1  0  0  0
 39 64  1  0  0  0
 39 67  2  0  0  0
 40 52  1  0  0  0
 40 53  2  0  0  0
 40 58  1  0  0  0
 41108  1  0  0  0
 41109  1  0  0  0
 41110  1  0  0  0
 41 48  1  0  0  0
 42 43  1  0  0  0
 42 66  1  0  0  0
 42111  1  0  0  0
 42112  1  0  0  0
 43 44  1  0  0  0
 44113  1  0  0  0
 45 46  2  0  0  0
 45114  1  0  0  0
 46115  1  0  0  0
 47116  1  0  0  0
 47117  1  0  0  0
 48 56  1  0  0  0
 48 65  1  0  0  0
 48118  1  0  0  0
 49 50  1  0  0  0
 49 53  1  0  0  0
 49 64  1  0  0  0
 49119  1  0  0  0
 50 51  1  0  0  0
 50120  1  0  0  0
 50121  1  0  0  0
 51 52  1  0  0  0
 51122  1  0  0  0
 51123  1  0  0  0
 52124  1  0  0  0
 52125  1  0  0  0
 53 54  1  0  0  0
 54 55  2  0  0  0
 54126  1  0  0  0
 55 57  1  0  0  0
 55127  1  0  0  0
 56 69  2  0  0  0
 57 58  2  0  0  0
 57128  1  0  0  0
 58129  1  0  0  0
 59 60  1  0  0  0
 59 61  1  0  0  0
 59 62  1  0  0  0
 60130  1  0  0  0
 60131  1  0  0  0
 60132  1  0  0  0
 61133  1  0  0  0
 61134  1  0  0  0
 61135  1  0  0  0
 62136  1  0  0  0
 62137  1  0  0  0
 62138  1  0  0  0
 63 65  1  0  0  0
 63139  1  0  0  0
 63140  1  0  0  0
 63141  1  0  0  0
 64142  1  0  0  0
 65143  1  0  0  0
 68 78  1  0  0  0
 71 72  2  0  0  0
 71 75  1  0  0  0
 71144  1  0  0  0
 72 76  1  0  0  0
 72145  1  0  0  0
 73 74  1  0  0  0
 73 75  2  0  0  0
 73146  1  0  0  0
 74 76  2  0  0  0
 74 82  1  0  0  0
 75 83  1  0  0  0
 76 84  1  0  0  0
 77 78  2  0  0  0
 77 79  1  0  0  0
 77 80  1  0  0  0
 78147  1  0  0  0
 79 81  1  0  0  0
 79148  1  0  0  0
 79149  1  0  0  0
 80 82  1  0  0  0
 80150  1  0  0  0
 80151  1  0  0  0
 81 82  1  0  0  0
 81152  1  0  0  0
 81153  1  0  0  0
 83154  1  0  0  0
M  ISO  4   1 100  68 101  78 101  83 100
M  END
> <chiral flag>
0

> <version>
0

> <s_m_source_file>
/data/baiqing/PycharmProjects/Reinvent-master-3.2/result/LINK_invent/BTK/process_docking_weight1_custom_product_contain_oxygen_bond_distance_aromatic_linkinvent_7_9_3/rearranged_h_0139.sdf

> <i_m_source_file_index>
61

> <r_mmod_Potential_Energy-OPLS-2005>
376.306884765625

> <r_mmod_Stretch_Energy-OPLS-2005>
149.737106323242

> <r_mmod_Bend_Energy-OPLS-2005>
254.353698730469

> <r_mmod_Torsional_Energy-OPLS-2005>
240.955078125

> <r_mmod_Improper_Torsional_Energy-OPLS-2005>
4.32701873779297

> <r_mmod_Van_der_Waal_Energy-OPLS-2005>
141.712615966797

> <r_mmod_Electrostatic_Energy-OPLS-2005>
-313.947509765625

> <r_mmod_Solvation_Energy-OPLS-2005>
-222.430572509766

> <b_mmod_Minimization_Converged-OPLS-2005>
0

> <r_mmod_RMS_Derivative-OPLS-2005>
1.3071357011795

$$$$
61
                    3D
 Structure written by MMmdl.
157165  0  0  1  0            999 V2000
  -30.6782  -14.5792   20.5322 C   0  0  0  0  0  0
  -30.4198  -12.3667   19.4407 C   0  0  0  0  0  0
  -29.4940  -12.4885   18.2123 C   0  0  0  0  0  0
  -28.0184  -12.3388   18.6307 C   0  0  0  0  0  0
  -27.6486  -13.2154   19.8562 C   0  0  2  0  0  0
  -28.6926  -13.0792   20.9865 C   0  0  0  0  0  0
  -25.2554  -13.8193   20.5690 C   0  0  0  0  0  0
  -24.1819  -13.0454   20.9204 C   0  0  0  0  0  0
  -24.6397  -11.6928   20.8763 C   0  0  0  0  0  0
  -23.9068  -10.4305   21.0423 C   0  0  0  0  0  0
  -24.3617   -9.4226   21.9203 C   0  0  0  0  0  0
  -23.6293   -8.2251   22.0762 C   0  0  0  0  0  0
  -22.4274   -8.0294   21.3556 C   0  0  0  0  0  0
  -21.9922   -9.0269   20.4645 C   0  0  0  0  0  0
  -22.7245  -10.2160   20.3071 C   0  0  0  0  0  0
  -21.6852   -6.0766   22.5281 C   0  0  0  0  0  0
  -21.4000   -6.5656   23.8215 C   0  0  0  0  0  0
  -21.3654   -5.6803   24.9175 C   0  0  0  0  0  0
  -21.6040   -4.3065   24.7217 C   0  0  0  0  0  0
  -21.8823   -3.8168   23.4333 C   0  0  0  0  0  0
  -21.9185   -4.6985   22.3395 C   0  0  0  0  0  0
  -22.7850  -13.5258   21.1859 C   0  0  0  0  0  0
  -22.1665   -4.2172   21.0972 F   0  0  0  0  0  0
  -21.5628   -3.4539   25.7733 F   0  0  0  0  0  0
  -30.0054  -13.3964   20.4131 N   0  0  0  0  0  0
  -26.2961  -12.9359   20.3291 N   0  0  0  0  0  0
  -25.9309  -11.6519   20.5753 N   0  0  0  0  0  0
  -22.0469  -12.8248   22.0399 N   0  0  0  0  0  0
  -25.4275  -15.1903   20.4076 N   0  0  0  0  0  0
  -31.8421  -14.6875   20.1352 O   0  0  0  0  0  0
  -21.6635   -6.8901   21.4245 O   0  0  0  0  0  0
  -22.3543  -14.5569   20.6707 O   0  0  0  0  0  0
  -24.6218  -31.8646   23.2081 C   0  0  0  0  0  0
  -25.9080  -32.4817   23.8395 C   0  0  1  0  0  0
  -27.2286  -27.3624   20.0932 C   0  0  0  0  0  0
  -25.5886  -33.8604   24.2329 N   0  0  0  0  0  0
  -23.4138  -30.4891   21.5452 C   0  0  2  0  0  0
  -24.8621  -28.9464   20.1124 C   0  0  0  0  0  0
  -22.7464  -29.4637   22.4922 C   0  0  0  0  0  0
  -18.0287  -28.1355   22.8454 C   0  0  0  0  0  0
  -24.1503  -36.7326   23.2633 C   0  0  0  0  0  0
  -25.9518  -30.8052   21.3751 C   0  0  0  0  0  0
  -26.0267  -29.4344   20.7168 C   0  0  0  0  0  0
  -27.2092  -28.6464   20.7089 C   0  0  0  0  0  0
  -26.0361  -26.9049   19.4883 C   0  0  0  0  0  0
  -24.8653  -27.6843   19.4960 C   0  0  0  0  0  0
  -23.6312  -29.8266   20.1586 C   0  0  0  0  0  0
  -25.4120  -36.3113   24.0332 C   0  0  1  0  0  0
  -20.5881  -28.3659   23.1288 C   0  0  2  0  0  0
  -20.6778  -26.9378   22.5395 C   0  0  0  0  0  0
  -19.5755  -26.6365   21.5173 C   0  0  0  0  0  0
  -18.1934  -26.7890   22.1593 C   0  0  0  0  0  0
  -19.1534  -28.8817   23.2877 C   0  0  0  0  0  0
  -18.9464  -30.1416   23.8905 C   0  0  0  0  0  0
  -17.6471  -30.6573   24.0530 C   0  0  0  0  0  0
  -25.9026  -34.9467   23.5141 C   0  0  0  0  0  0
  -16.5355  -29.9072   23.6294 C   0  0  0  0  0  0
  -16.7273  -28.6484   23.0319 C   0  0  0  0  0  0
  -26.4478  -31.6610   25.0752 C   0  0  0  0  0  0
  -25.3696  -31.3685   26.1469 C   0  0  0  0  0  0
  -27.0318  -30.3039   24.6171 C   0  0  0  0  0  0
  -27.6071  -32.4316   25.7512 C   0  0  0  0  0  0
  -27.5609  -37.1822   24.8459 C   0  0  0  0  0  0
  -21.4172  -29.3054   22.3708 N   0  0  0  0  0  0
  -26.4323  -37.3789   23.9398 N   0  0  0  0  0  0
  -24.6806  -31.0708   22.1000 N   0  0  0  0  0  0
  -23.4240  -28.8160   23.2947 O   0  0  0  0  0  0
  -28.3817  -26.5773   20.1342 O   0  0  0  0  0  0
  -26.5618  -34.8922   22.4724 O   0  0  0  0  0  0
  -23.5387  -32.1400   23.7435 O   0  0  0  0  0  0
  -32.2209  -18.3211   22.3502 C   0  0  0  0  0  0
  -31.7044  -17.0890   21.9255 C   0  0  0  0  0  0
  -29.7412  -18.2297   21.0233 C   0  0  0  0  0  0
  -31.5162  -19.5172   22.1234 C   0  0  0  0  0  0
  -30.4660  -17.0036   21.2504 C   0  0  0  0  0  0
  -30.2630  -19.5013   21.4528 C   0  0  0  0  0  0
  -29.1768  -21.5413   20.3495 C   0  0  0  0  0  0
  -32.1343  -20.8162   22.6279 C   0  0  0  0  0  0
  -29.0945  -23.0921   20.5994 C   0  0  0  0  0  0
  -28.0546  -23.9680   19.7997 C   0  0  0  0  0  0
  -28.5239  -25.3898   19.2944 C   0  0  0  0  0  0
  -29.5683  -20.7757   21.3990 N   0  0  0  0  0  0
  -29.9577  -15.6846   20.8982 N   0  0  0  0  0  0
  -28.8930  -21.0632   19.2483 O   0  0  0  0  0  0
  -31.4629  -12.4695   19.1354 H   0  0  0  0  0  0
  -30.3376  -11.3743   19.8862 H   0  0  0  0  0  0
  -29.7459  -11.7263   17.4745 H   0  0  0  0  0  0
  -29.6442  -13.4506   17.7227 H   0  0  0  0  0  0
  -27.8509  -11.2872   18.8667 H   0  0  0  0  0  0
  -27.3614  -12.5656   17.7905 H   0  0  0  0  0  0
  -27.6663  -14.2505   19.5100 H   0  0  0  0  0  0
  -28.6938  -12.0646   21.3852 H   0  0  0  0  0  0
  -28.4463  -13.7307   21.8264 H   0  0  0  0  0  0
  -25.2762   -9.5699   22.4790 H   0  0  0  0  0  0
  -23.9995   -7.4648   22.7494 H   0  0  0  0  0  0
  -21.0849   -8.8801   19.8941 H   0  0  0  0  0  0
  -22.3706  -10.9713   19.6187 H   0  0  0  0  0  0
  -21.1995   -7.6159   23.9726 H   0  0  0  0  0  0
  -21.1468   -6.0531   25.9083 H   0  0  0  0  0  0
  -22.0604   -2.7625   23.2824 H   0  0  0  0  0  0
  -22.4051  -11.9889   22.4771 H   0  0  0  0  0  0
  -21.1100  -13.1306   22.2604 H   0  0  0  0  0  0
  -24.6626  -15.8468   20.5210 H   0  0  0  0  0  0
  -26.2711  -15.6251   20.0575 H   0  0  0  0  0  0
  -26.7165  -32.5512   23.1161 H   0  0  0  0  0  0
  -24.9970  -33.9739   25.0434 H   0  0  0  0  0  0
  -22.7052  -31.3085   21.4055 H   0  0  0  0  0  0
  -23.3770  -35.9662   23.3281 H   0  0  0  0  0  0
  -24.3546  -36.8941   22.2043 H   0  0  0  0  0  0
  -23.7247  -37.6516   23.6666 H   0  0  0  0  0  0
  -26.0728  -31.5751   20.6125 H   0  0  0  0  0  0
  -26.8361  -30.8594   21.9982 H   0  0  0  0  0  0
  -28.1066  -29.0104   21.1900 H   0  0  0  0  0  0
  -25.9822  -25.9301   19.0269 H   0  0  0  0  0  0
  -23.9652  -27.3028   19.0336 H   0  0  0  0  0  0
  -23.7523  -30.6071   19.4050 H   0  0  0  0  0  0
  -22.7524  -29.2561   19.8524 H   0  0  0  0  0  0
  -25.1293  -36.1981   25.0820 H   0  0  0  0  0  0
  -20.9963  -28.3246   24.1406 H   0  0  0  0  0  0
  -20.5627  -26.2268   23.3595 H   0  0  0  0  0  0
  -21.6664  -26.7403   22.1207 H   0  0  0  0  0  0
  -19.6912  -25.6268   21.1211 H   0  0  0  0  0  0
  -19.6704  -27.3186   20.6708 H   0  0  0  0  0  0
  -17.4183  -26.6594   21.4019 H   0  0  0  0  0  0
  -18.0367  -26.0056   22.9023 H   0  0  0  0  0  0
  -19.7958  -30.7191   24.2336 H   0  0  0  0  0  0
  -17.5033  -31.6255   24.5141 H   0  0  0  0  0  0
  -15.5347  -30.2979   23.7623 H   0  0  0  0  0  0
  -15.8660  -28.0814   22.7021 H   0  0  0  0  0  0
  -24.5926  -30.6987   25.7762 H   0  0  0  0  0  0
  -24.8812  -32.2807   26.4916 H   0  0  0  0  0  0
  -25.8007  -30.8848   27.0247 H   0  0  0  0  0  0
  -26.2886  -29.6792   24.1207 H   0  0  0  0  0  0
  -27.4024  -29.7288   25.4675 H   0  0  0  0  0  0
  -27.8766  -30.4323   23.9390 H   0  0  0  0  0  0
  -27.2741  -33.3644   26.2090 H   0  0  0  0  0  0
  -28.3896  -32.6809   25.0323 H   0  0  0  0  0  0
  -28.0742  -31.8404   26.5399 H   0  0  0  0  0  0
  -28.2613  -38.0148   24.7527 H   0  0  0  0  0  0
  -28.1126  -36.2659   24.6288 H   0  0  0  0  0  0
  -27.2299  -37.1453   25.8856 H   0  0  0  0  0  0
  -20.9338  -29.8836   21.6975 H   0  0  0  0  0  0
  -26.0226  -38.2874   24.1380 H   0  0  0  0  0  0
  -33.1661  -18.3367   22.8743 H   0  0  0  0  0  0
  -32.2760  -16.2009   22.1502 H   0  0  0  0  0  0
  -28.7728  -18.1942   20.5440 H   0  0  0  0  0  0
  -33.1641  -20.6744   22.9607 H   0  0  0  0  0  0
  -31.5702  -21.2122   23.4727 H   0  0  0  0  0  0
  -32.1576  -21.5686   21.8389 H   0  0  0  0  0  0
  -30.0954  -23.4609   20.3745 H   0  0  0  0  0  0
  -28.9574  -23.2833   21.6632 H   0  0  0  0  0  0
  -27.1283  -24.0648   20.3642 H   0  0  0  0  0  0
  -27.7708  -23.4093   18.9070 H   0  0  0  0  0  0
  -28.0551  -25.5897   18.3301 H   0  0  0  0  0  0
  -29.5814  -25.3178   19.0420 H   0  0  0  0  0  0
  -29.7183  -21.3404   22.2232 H   0  0  0  0  0  0
  -28.9612  -15.5496   20.9751 H   0  0  0  0  0  0
  1 25  1  0  0  0
  1 30  2  0  0  0
  1 83  1  0  0  0
  2  3  1  0  0  0
  2 25  1  0  0  0
  2 85  1  0  0  0
  2 86  1  0  0  0
  3  4  1  0  0  0
  3 87  1  0  0  0
  3 88  1  0  0  0
  4  5  1  0  0  0
  4 89  1  0  0  0
  4 90  1  0  0  0
  5  6  1  0  0  0
  5 26  1  0  0  0
  5 91  1  0  0  0
  6 25  1  0  0  0
  6 92  1  0  0  0
  6 93  1  0  0  0
  7  8  2  0  0  0
  7 26  1  0  0  0
  7 29  1  0  0  0
  8  9  1  0  0  0
  8 22  1  0  0  0
  9 10  1  0  0  0
  9 27  2  0  0  0
 10 11  2  0  0  0
 10 15  1  0  0  0
 11 12  1  0  0  0
 11 94  1  0  0  0
 12 13  2  0  0  0
 12 95  1  0  0  0
 13 14  1  0  0  0
 13 31  1  0  0  0
 14 15  2  0  0  0
 14 96  1  0  0  0
 15 97  1  0  0  0
 16 17  2  0  0  0
 16 21  1  0  0  0
 16 31  1  0  0  0
 17 18  1  0  0  0
 17 98  1  0  0  0
 18 19  2  0  0  0
 18 99  1  0  0  0
 19 20  1  0  0  0
 19 24  1  0  0  0
 20 21  2  0  0  0
 20100  1  0  0  0
 21 23  1  0  0  0
 22 28  1  0  0  0
 22 32  2  0  0  0
 26 27  1  0  0  0
 28101  1  0  0  0
 28102  1  0  0  0
 29103  1  0  0  0
 29104  1  0  0  0
 33 34  1  0  0  0
 33 66  1  0  0  0
 33 70  2  0  0  0
 34 36  1  0  0  0
 34 59  1  0  0  0
 34105  1  0  0  0
 35 44  2  0  0  0
 35 45  1  0  0  0
 35 68  1  0  0  0
 36 56  1  0  0  0
 36106  1  0  0  0
 37 39  1  0  0  0
 37 47  1  0  0  0
 37 66  1  0  0  0
 37107  1  0  0  0
 38 43  2  0  0  0
 38 46  1  0  0  0
 38 47  1  0  0  0
 39 64  1  0  0  0
 39 67  2  0  0  0
 40 52  1  0  0  0
 40 53  2  0  0  0
 40 58  1  0  0  0
 41108  1  0  0  0
 41109  1  0  0  0
 41110  1  0  0  0
 41 48  1  0  0  0
 42 43  1  0  0  0
 42 66  1  0  0  0
 42111  1  0  0  0
 42112  1  0  0  0
 43 44  1  0  0  0
 44113  1  0  0  0
 45 46  2  0  0  0
 45114  1  0  0  0
 46115  1  0  0  0
 47116  1  0  0  0
 47117  1  0  0  0
 48 56  1  0  0  0
 48 65  1  0  0  0
 48118  1  0  0  0
 49 50  1  0  0  0
 49 53  1  0  0  0
 49 64  1  0  0  0
 49119  1  0  0  0
 50 51  1  0  0  0
 50120  1  0  0  0
 50121  1  0  0  0
 51 52  1  0  0  0
 51122  1  0  0  0
 51123  1  0  0  0
 52124  1  0  0  0
 52125  1  0  0  0
 53 54  1  0  0  0
 54 55  2  0  0  0
 54126  1  0  0  0
 55 57  1  0  0  0
 55127  1  0  0  0
 56 69  2  0  0  0
 57 58  2  0  0  0
 57128  1  0  0  0
 58129  1  0  0  0
 59 60  1  0  0  0
 59 61  1  0  0  0
 59 62  1  0  0  0
 60130  1  0  0  0
 60131  1  0  0  0
 60132  1  0  0  0
 61133  1  0  0  0
 61134  1  0  0  0
 61135  1  0  0  0
 62136  1  0  0  0
 62137  1  0  0  0
 62138  1  0  0  0
 63 65  1  0  0  0
 63139  1  0  0  0
 63140  1  0  0  0
 63141  1  0  0  0
 64142  1  0  0  0
 65143  1  0  0  0
 68 81  1  0  0  0
 71 72  2  0  0  0
 71 74  1  0  0  0
 71144  1  0  0  0
 72 75  1  0  0  0
 72145  1  0  0  0
 73 75  2  0  0  0
 73 76  1  0  0  0
 73146  1  0  0  0
 74 76  2  0  0  0
 74 78  1  0  0  0
 75 83  1  0  0  0
 76 82  1  0  0  0
 77 79  1  0  0  0
 77 82  1  0  0  0
 77 84  2  0  0  0
 78147  1  0  0  0
 78148  1  0  0  0
 78149  1  0  0  0
 79 80  1  0  0  0
 79150  1  0  0  0
 79151  1  0  0  0
 80 81  1  0  0  0
 80152  1  0  0  0
 80153  1  0  0  0
 81154  1  0  0  0
 81155  1  0  0  0
 82156  1  0  0  0
 83157  1  0  0  0
M  ISO  4   1 100  68 101  81 101  83 100
M  END
> <chiral flag>
0

> <version>
0

> <s_m_source_file>
/data/baiqing/PycharmProjects/Reinvent-master-3.2/result/LINK_invent/BTK/process_docking_weight1_custom_product_contain_oxygen_bond_distance_aromatic_linkinvent_7_9_3/rearranged_h_0139.sdf

> <i_m_source_file_index>
62

> <r_mmod_Potential_Energy-OPLS-2005>
-13.0477952957153

> <r_mmod_Stretch_Energy-OPLS-2005>
66.0539016723633

> <r_mmod_Bend_Energy-OPLS-2005>
141.347045898438

> <r_mmod_Torsional_Energy-OPLS-2005>
251.534240722656

> <r_mmod_Improper_Torsional_Energy-OPLS-2005>
6.97566699981689

> <r_mmod_Van_der_Waal_Energy-OPLS-2005>
149.191589355469

> <r_mmod_Electrostatic_Energy-OPLS-2005>
-428.111572265625

> <r_mmod_Solvation_Energy-OPLS-2005>
-232.091949462891

> <b_mmod_Minimization_Converged-OPLS-2005>
0

> <r_mmod_RMS_Derivative-OPLS-2005>
3.40348958969116

$$$$
62
                    3D
 Structure written by MMmdl.
180188  0  0  1  0            999 V2000
  -30.0466  -15.7172   20.4628 C   0  0  0  0  0  0
  -30.3891  -13.1692   19.5954 C   0  0  0  0  0  0
  -29.5565  -12.7043   18.3590 C   0  0  0  0  0  0
  -28.1302  -12.3026   18.7702 C   0  0  0  0  0  0
  -27.5711  -13.2931   19.8152 C   0  0  2  0  0  0
  -28.5380  -13.5941   20.9739 C   0  0  0  0  0  0
  -25.2207  -13.8211   20.5700 C   0  0  0  0  0  0
  -24.1613  -13.0396   20.9248 C   0  0  0  0  0  0
  -24.6297  -11.6897   20.8731 C   0  0  0  0  0  0
  -23.9046  -10.4266   21.0402 C   0  0  0  0  0  0
  -24.3615   -9.4200   21.9185 C   0  0  0  0  0  0
  -23.6285   -8.2238   22.0774 C   0  0  0  0  0  0
  -22.4266   -8.0274   21.3558 C   0  0  0  0  0  0
  -21.9894   -9.0240   20.4651 C   0  0  0  0  0  0
  -22.7225  -10.2113   20.3056 C   0  0  0  0  0  0
  -21.6846   -6.0737   22.5288 C   0  0  0  0  0  0
  -21.4011   -6.5640   23.8225 C   0  0  0  0  0  0
  -21.3658   -5.6790   24.9180 C   0  0  0  0  0  0
  -21.6038   -4.3055   24.7223 C   0  0  0  0  0  0
  -21.8822   -3.8152   23.4345 C   0  0  0  0  0  0
  -21.9194   -4.6967   22.3404 C   0  0  0  0  0  0
  -22.7652  -13.5168   21.1884 C   0  0  0  0  0  0
  -22.1661   -4.2155   21.0981 F   0  0  0  0  0  0
  -21.5628   -3.4538   25.7737 F   0  0  0  0  0  0
  -29.6759  -14.2998   20.3701 N   0  0  0  0  0  0
  -26.2543  -12.9473   20.3037 N   0  0  0  0  0  0
  -25.9199  -11.6574   20.5563 N   0  0  0  0  0  0
  -22.0307  -12.8192   22.0453 N   0  0  0  0  0  0
  -25.3851  -15.1953   20.4177 N   0  0  0  0  0  0
  -31.2790  -15.7556   20.2326 O   0  0  0  0  0  0
  -21.6640   -6.8874   21.4250 O   0  0  0  0  0  0
  -22.3364  -14.5460   20.6688 O   0  0  0  0  0  0
  -24.7774  -31.5573   23.2618 C   0  0  0  0  0  0
  -25.9620  -32.3894   23.8450 C   0  0  1  0  0  0
  -27.4713  -27.3697   19.9007 C   0  0  0  0  0  0
  -25.5493  -33.7842   24.1547 N   0  0  0  0  0  0
  -23.5999  -29.6791   21.8590 C   0  0  2  0  0  0
  -25.2128  -28.5586   19.3465 C   0  0  0  0  0  0
  -22.6692  -29.1409   22.8282 C   0  0  0  0  0  0
  -17.9662  -28.1338   22.8365 C   0  0  0  0  0  0
  -24.1470  -36.6982   23.2633 C   0  0  0  0  0  0
  -26.5092  -30.2743   21.5673 C   0  0  0  0  0  0
  -26.5821  -29.3502   19.9520 C   0  0  0  0  0  0
  -27.7691  -28.7058   19.8490 C   0  0  0  0  0  0
  -26.5854  -26.7882   18.9583 C   0  0  0  0  0  0
  -25.3456  -27.3741   18.7099 C   0  0  0  0  0  0
  -23.6262  -28.6627   20.2766 C   0  0  0  0  0  0
  -25.4101  -36.2606   24.0211 C   0  0  1  0  0  0
  -20.4808  -28.2689   23.2095 C   0  0  2  0  0  0
  -20.5794  -26.8579   22.5890 C   0  0  0  0  0  0
  -19.5171  -26.6180   21.5224 C   0  0  0  0  0  0
  -18.1264  -26.7920   22.1400 C   0  0  0  0  0  0
  -19.0891  -28.8554   23.3011 C   0  0  0  0  0  0
  -18.9166  -30.1241   23.8945 C   0  0  0  0  0  0
  -17.6277  -30.6623   24.0501 C   0  0  0  0  0  0
  -25.9030  -34.8943   23.4842 C   0  0  0  0  0  0
  -16.5073  -29.9277   23.6217 C   0  0  0  0  0  0
  -16.6775  -28.6697   23.0156 C   0  0  0  0  0  0
  -26.5231  -31.7133   25.1513 C   0  0  0  0  0  0
  -25.4215  -31.4008   26.1969 C   0  0  0  0  0  0
  -27.2736  -30.4085   24.8573 C   0  0  0  0  0  0
  -27.5945  -32.6122   25.7980 C   0  0  0  0  0  0
  -27.5484  -37.1581   24.8467 C   0  0  0  0  0  0
  -21.3798  -29.1473   22.5113 N   0  0  0  0  0  0
  -26.4223  -37.3399   23.9366 N   0  0  0  0  0  0
  -25.0069  -30.4626   22.4228 N   0  0  0  0  0  0
  -23.1283  -28.6210   23.8197 O   0  0  0  0  0  0
  -26.9961  -27.3377   21.1706 O   0  0  0  0  0  0
  -26.6033  -34.8600   22.4700 O   0  0  0  0  0  0
  -23.6429  -31.9271   23.6154 O   0  0  0  0  0  0
  -29.1641  -21.8748   20.5156 C   0  0  0  0  0  0
  -27.8513  -19.9109   20.9364 C   0  0  0  0  0  0
  -30.1403  -19.4927   20.3650 C   0  0  0  0  0  0
  -27.8405  -21.5433   20.8933 C   0  0  0  0  0  0
  -30.2343  -20.9336   20.2763 C   0  0  0  0  0  0
  -28.9680  -18.7476   20.6824 C   0  0  0  0  0  0
  -26.6928  -22.9604   21.0472 C   0  0  0  0  0  0
  -25.3776  -32.1336   19.9953 C   0  0  0  0  0  0
  -33.8610  -24.3905   21.2774 C   0  0  0  0  0  0
  -33.5434  -23.8256   18.8718 C   0  0  0  0  0  0
  -34.5832  -22.1501   20.4370 C   0  0  0  0  0  0
  -25.8921  -27.8890   23.0976 C   0  0  0  0  0  0
  -31.5815  -21.5110   19.8268 C   0  0  0  0  0  0
  -24.7327  -30.6823   20.0940 C   0  0  0  0  0  0
  -32.0994  -22.7131   20.6593 C   0  0  0  0  0  0
  -25.4545  -25.9941   21.3304 C   0  0  0  0  0  0
  -33.5120  -23.2498   20.3010 C   0  0  0  0  0  0
  -25.5763  -28.0066   21.5597 C   0  0  1  0  0  0
  -25.4553  -22.5138   20.8811 N   0  0  0  0  0  0
  -29.1114  -16.9914   20.6646 N   0  0  0  0  0  0
  -26.5884  -24.5374   21.2499 N   0  3  0  0  0  0
  -31.3663  -13.5061   19.2449 H   0  0  0  0  0  0
  -30.6076  -12.3237   20.2499 H   0  0  0  0  0  0
  -30.0531  -11.8788   17.8469 H   0  0  0  0  0  0
  -29.5047  -13.5226   17.6386 H   0  0  0  0  0  0
  -28.1691  -11.3014   19.2021 H   0  0  0  0  0  0
  -27.4799  -12.2427   17.8970 H   0  0  0  0  0  0
  -27.4437  -14.2210   19.2554 H   0  0  0  0  0  0
  -28.8206  -12.6901   21.5154 H   0  0  0  0  0  0
  -28.0636  -14.2548   21.7028 H   0  0  0  0  0  0
  -25.2760   -9.5686   22.4751 H   0  0  0  0  0  0
  -23.9998   -7.4637   22.7494 H   0  0  0  0  0  0
  -21.0833   -8.8750   19.8948 H   0  0  0  0  0  0
  -22.3681  -10.9651   19.6164 H   0  0  0  0  0  0
  -21.2006   -7.6147   23.9725 H   0  0  0  0  0  0
  -21.1466   -6.0519   25.9082 H   0  0  0  0  0  0
  -22.0599   -2.7613   23.2844 H   0  0  0  0  0  0
  -22.3938  -11.9878   22.4882 H   0  0  0  0  0  0
  -21.0920  -13.1219   22.2616 H   0  0  0  0  0  0
  -24.5981  -15.8290   20.5093 H   0  0  0  0  0  0
  -26.1849  -15.6224   19.9706 H   0  0  0  0  0  0
  -26.7721  -32.4418   23.1238 H   0  0  0  0  0  0
  -24.9148  -33.8929   24.9328 H   0  0  0  0  0  0
  -22.9479  -30.5415   21.6999 H   0  0  0  0  0  0
  -23.3707  -35.9330   23.3240 H   0  0  0  0  0  0
  -24.3536  -36.8697   22.2049 H   0  0  0  0  0  0
  -23.7279  -37.6159   23.6785 H   0  0  0  0  0  0
  -27.0447  -31.2128   21.4463 H   0  0  0  0  0  0
  -27.2360  -29.7987   22.2097 H   0  0  0  0  0  0
  -28.5647  -29.0719   20.4831 H   0  0  0  0  0  0
  -26.7208  -25.7504   18.6837 H   0  0  0  0  0  0
  -24.5221  -26.8069   18.3003 H   0  0  0  0  0  0
  -22.8517  -29.0199   19.5960 H   0  0  0  0  0  0
  -23.2726  -27.6525   20.5018 H   0  0  0  0  0  0
  -25.1315  -36.1330   25.0689 H   0  0  0  0  0  0
  -20.7894  -28.1802   24.2549 H   0  0  0  0  0  0
  -20.4170  -26.1271   23.3831 H   0  0  0  0  0  0
  -21.5761  -26.6376   22.2052 H   0  0  0  0  0  0
  -19.6197  -25.6166   21.1027 H   0  0  0  0  0  0
  -19.6539  -27.3194   20.6978 H   0  0  0  0  0  0
  -17.3663  -26.6877   21.3640 H   0  0  0  0  0  0
  -17.9371  -26.0013   22.8674 H   0  0  0  0  0  0
  -19.7760  -30.6806   24.2451 H   0  0  0  0  0  0
  -17.4976  -31.6313   24.5111 H   0  0  0  0  0  0
  -15.5134  -30.3378   23.7468 H   0  0  0  0  0  0
  -15.8096  -28.1245   22.6703 H   0  0  0  0  0  0
  -24.7106  -30.6497   25.8456 H   0  0  0  0  0  0
  -24.8541  -32.2943   26.4585 H   0  0  0  0  0  0
  -25.8495  -31.0104   27.1206 H   0  0  0  0  0  0
  -26.6058  -29.5793   24.7934 H   0  0  0  0  0  0
  -27.9111  -30.1319   25.6981 H   0  0  0  0  0  0
  -27.9556  -30.4809   24.0154 H   0  0  0  0  0  0
  -27.1816  -33.5575   26.1492 H   0  0  0  0  0  0
  -28.3909  -32.8501   25.0901 H   0  0  0  0  0  0
  -28.0613  -32.1457   26.6667 H   0  0  0  0  0  0
  -28.2453  -37.9904   24.7410 H   0  0  0  0  0  0
  -28.1010  -36.2395   24.6433 H   0  0  0  0  0  0
  -27.2187  -37.1365   25.8870 H   0  0  0  0  0  0
  -21.0542  -29.6016   21.6690 H   0  0  0  0  0  0
  -26.0034  -38.2440   24.1335 H   0  0  0  0  0  0
  -29.3605  -22.9262   20.3723 H   0  0  0  0  0  0
  -26.8803  -19.5053   21.1768 H   0  0  0  0  0  0
  -31.0294  -18.9177   20.1516 H   0  0  0  0  0  0
  -24.7767  -32.7689   19.3428 H   0  0  0  0  0  0
  -26.3687  -32.1119   19.5395 H   0  0  0  0  0  0
  -25.4385  -32.6834   20.9309 H   0  0  0  0  0  0
  -34.8401  -24.8222   21.0615 H   0  0  0  0  0  0
  -33.8798  -24.0453   22.3119 H   0  0  0  0  0  0
  -33.1345  -25.2019   21.2202 H   0  0  0  0  0  0
  -34.5284  -24.2281   18.6323 H   0  0  0  0  0  0
  -32.8282  -24.6399   18.7513 H   0  0  0  0  0  0
  -33.3171  -23.0723   18.1180 H   0  0  0  0  0  0
  -35.5892  -22.5653   20.3668 H   0  0  0  0  0  0
  -34.5004  -21.3955   19.6546 H   0  0  0  0  0  0
  -34.5129  -21.6381   21.3969 H   0  0  0  0  0  0
  -25.7006  -26.8984   23.5023 H   0  0  0  0  0  0
  -26.9480  -28.0351   23.3213 H   0  0  0  0  0  0
  -25.3342  -28.5115   23.7569 H   0  0  0  0  0  0
  -31.4860  -21.7963   18.7779 H   0  0  0  0  0  0
  -32.3254  -20.7155   19.8553 H   0  0  0  0  0  0
  -24.7256  -30.6630   18.9880 H   0  0  0  0  0  0
  -23.6941  -31.0215   20.0204 H   0  0  0  0  0  0
  -32.0897  -22.4309   21.7125 H   0  0  0  0  0  0
  -31.4035  -23.5459   20.5707 H   0  0  0  0  0  0
  -24.7818  -25.8127   20.4936 H   0  0  0  0  0  0
  -24.7826  -25.6853   22.1299 H   0  0  0  0  0  0
  -25.3132  -21.5335   20.6928 H   0  0  0  0  0  0
  -24.6676  -23.1372   20.8561 H   0  0  0  0  0  0
  -28.1982  -16.6045   20.8469 H   0  0  0  0  0  0
  -27.5250  -24.8994   21.3964 H   0  0  0  0  0  0
  1 25  1  0  0  0
  1 30  2  0  0  0
  1 90  1  0  0  0
  2  3  1  0  0  0
  2 25  1  0  0  0
  2 92  1  0  0  0
  2 93  1  0  0  0
  3  4  1  0  0  0
  3 94  1  0  0  0
  3 95  1  0  0  0
  4  5  1  0  0  0
  4 96  1  0  0  0
  4 97  1  0  0  0
  5  6  1  0  0  0
  5 26  1  0  0  0
  5 98  1  0  0  0
  6 25  1  0  0  0
  6 99  1  0  0  0
  6100  1  0  0  0
  7  8  2  0  0  0
  7 26  1  0  0  0
  7 29  1  0  0  0
  8  9  1  0  0  0
  8 22  1  0  0  0
  9 10  1  0  0  0
  9 27  2  0  0  0
 10 11  2  0  0  0
 10 15  1  0  0  0
 11 12  1  0  0  0
 11101  1  0  0  0
 12 13  2  0  0  0
 12102  1  0  0  0
 13 14  1  0  0  0
 13 31  1  0  0  0
 14 15  2  0  0  0
 14103  1  0  0  0
 15104  1  0  0  0
 16 17  2  0  0  0
 16 21  1  0  0  0
 16 31  1  0  0  0
 17 18  1  0  0  0
 17105  1  0  0  0
 18 19  2  0  0  0
 18106  1  0  0  0
 19 20  1  0  0  0
 19 24  1  0  0  0
 20 21  2  0  0  0
 20107  1  0  0  0
 21 23  1  0  0  0
 22 28  1  0  0  0
 22 32  2  0  0  0
 26 27  1  0  0  0
 28108  1  0  0  0
 28109  1  0  0  0
 29110  1  0  0  0
 29111  1  0  0  0
 33 34  1  0  0  0
 33 66  1  0  0  0
 33 70  2  0  0  0
 34 36  1  0  0  0
 34 59  1  0  0  0
 34112  1  0  0  0
 35 44  2  0  0  0
 35 45  1  0  0  0
 35 68  1  0  0  0
 36 56  1  0  0  0
 36113  1  0  0  0
 37 39  1  0  0  0
 37 47  1  0  0  0
 37 66  1  0  0  0
 37114  1  0  0  0
 38 43  2  0  0  0
 38 46  1  0  0  0
 38 47  1  0  0  0
 39 64  1  0  0  0
 39 67  2  0  0  0
 40 52  1  0  0  0
 40 53  2  0  0  0
 40 58  1  0  0  0
 41115  1  0  0  0
 41116  1  0  0  0
 41117  1  0  0  0
 41 48  1  0  0  0
 42 43  1  0  0  0
 42 66  1  0  0  0
 42118  1  0  0  0
 42119  1  0  0  0
 43 44  1  0  0  0
 44120  1  0  0  0
 45 46  2  0  0  0
 45121  1  0  0  0
 46122  1  0  0  0
 47123  1  0  0  0
 47124  1  0  0  0
 48 56  1  0  0  0
 48 65  1  0  0  0
 48125  1  0  0  0
 49 50  1  0  0  0
 49 53  1  0  0  0
 49 64  1  0  0  0
 49126  1  0  0  0
 50 51  1  0  0  0
 50127  1  0  0  0
 50128  1  0  0  0
 51 52  1  0  0  0
 51129  1  0  0  0
 51130  1  0  0  0
 52131  1  0  0  0
 52132  1  0  0  0
 53 54  1  0  0  0
 54 55  2  0  0  0
 54133  1  0  0  0
 55 57  1  0  0  0
 55134  1  0  0  0
 56 69  2  0  0  0
 57 58  2  0  0  0
 57135  1  0  0  0
 58136  1  0  0  0
 59 60  1  0  0  0
 59 61  1  0  0  0
 59 62  1  0  0  0
 60137  1  0  0  0
 60138  1  0  0  0
 60139  1  0  0  0
 61140  1  0  0  0
 61141  1  0  0  0
 61142  1  0  0  0
 62143  1  0  0  0
 62144  1  0  0  0
 62145  1  0  0  0
 63 65  1  0  0  0
 63146  1  0  0  0
 63147  1  0  0  0
 63148  1  0  0  0
 64149  1  0  0  0
 65150  1  0  0  0
 68 88  1  0  0  0
 71 74  2  0  0  0
 71 75  1  0  0  0
 71151  1  0  0  0
 72 74  1  0  0  0
 72 76  2  0  0  0
 72152  1  0  0  0
 73 75  2  0  0  0
 73 76  1  0  0  0
 73153  1  0  0  0
 74 77  1  0  0  0
 75 83  1  0  0  0
 76 90  1  0  0  0
 77 89  1  0  0  0
 77 91  2  0  0  0
 78 84  1  0  0  0
 78154  1  0  0  0
 78155  1  0  0  0
 78156  1  0  0  0
 79157  1  0  0  0
 79158  1  0  0  0
 79159  1  0  0  0
 79 87  1  0  0  0
 80 87  1  0  0  0
 80160  1  0  0  0
 80161  1  0  0  0
 80162  1  0  0  0
 81 87  1  0  0  0
 81163  1  0  0  0
 81164  1  0  0  0
 81165  1  0  0  0
 82166  1  0  0  0
 82167  1  0  0  0
 82168  1  0  0  0
 82 88  1  0  0  0
 83 85  1  0  0  0
 83169  1  0  0  0
 83170  1  0  0  0
 84 88  1  0  0  0
 84171  1  0  0  0
 84172  1  0  0  0
 85 87  1  0  0  0
 85173  1  0  0  0
 85174  1  0  0  0
 86 88  1  0  0  0
 86 91  1  0  0  0
 86175  1  0  0  0
 86176  1  0  0  0
 89177  1  0  0  0
 89178  1  0  0  0
 90179  1  0  0  0
 91180  1  0  0  0
M  CHG  1  91   1
M  ISO  4   1 100  68 101  88 101  90 100
M  END
> <chiral flag>
0

> <version>
0

> <s_m_source_file>
/data/baiqing/PycharmProjects/Reinvent-master-3.2/result/LINK_invent/BTK/process_docking_weight1_custom_product_contain_oxygen_bond_distance_aromatic_linkinvent_7_9_3/rearranged_h_0139.sdf

> <i_m_source_file_index>
63

> <r_mmod_Potential_Energy-OPLS-2005>
10030.482421875

> <r_mmod_Stretch_Energy-OPLS-2005>
5369.7744140625

> <r_mmod_Bend_Energy-OPLS-2005>
1119.77355957031

> <r_mmod_Torsional_Energy-OPLS-2005>
573.595947265625

> <r_mmod_Improper_Torsional_Energy-OPLS-2005>
57.0718803405762

> <r_mmod_Van_der_Waal_Energy-OPLS-2005>
1810.29016113281

> <r_mmod_Electrostatic_Energy-OPLS-2005>
-486.594451904297

> <r_mmod_Solvation_Energy-OPLS-2005>
-378.774932861328

> <b_mmod_Minimization_Converged-OPLS-2005>
0

> <r_mmod_RMS_Derivative-OPLS-2005>
4.61205387115479

$$$$
63
                    3D
 Structure written by MMmdl.
161170  0  0  1  0            999 V2000
  -30.6693  -14.5104   20.5568 C   0  0  0  0  0  0
  -30.4308  -12.3228   19.4331 C   0  0  0  0  0  0
  -29.5017  -12.5053   18.2134 C   0  0  0  0  0  0
  -28.0219  -12.3612   18.6222 C   0  0  0  0  0  0
  -27.6617  -13.2049   19.8740 C   0  0  2  0  0  0
  -28.7020  -12.9915   20.9978 C   0  0  0  0  0  0
  -25.2590  -13.8156   20.5658 C   0  0  0  0  0  0
  -24.1846  -13.0438   20.9186 C   0  0  0  0  0  0
  -24.6392  -11.6904   20.8743 C   0  0  0  0  0  0
  -23.9055  -10.4290   21.0410 C   0  0  0  0  0  0
  -24.3611   -9.4206   21.9186 C   0  0  0  0  0  0
  -23.6288   -8.2243   22.0757 C   0  0  0  0  0  0
  -22.4271   -8.0280   21.3545 C   0  0  0  0  0  0
  -21.9902   -9.0255   20.4650 C   0  0  0  0  0  0
  -22.7229  -10.2134   20.3060 C   0  0  0  0  0  0
  -21.6852   -6.0735   22.5278 C   0  0  0  0  0  0
  -21.4014   -6.5640   23.8211 C   0  0  0  0  0  0
  -21.3659   -5.6793   24.9173 C   0  0  0  0  0  0
  -21.6045   -4.3056   24.7224 C   0  0  0  0  0  0
  -21.8820   -3.8147   23.4346 C   0  0  0  0  0  0
  -21.9193   -4.6963   22.3400 C   0  0  0  0  0  0
  -22.7869  -13.5241   21.1846 C   0  0  0  0  0  0
  -22.1662   -4.2148   21.0978 F   0  0  0  0  0  0
  -21.5627   -3.4538   25.7736 F   0  0  0  0  0  0
  -30.0331  -13.3089   20.4515 N   0  0  0  0  0  0
  -26.3021  -12.9316   20.3340 N   0  0  0  0  0  0
  -25.9317  -11.6485   20.5766 N   0  0  0  0  0  0
  -22.0503  -12.8241   22.0401 N   0  0  0  0  0  0
  -25.4311  -15.1871   20.4009 N   0  0  0  0  0  0
  -31.8004  -14.6976   20.0973 O   0  0  0  0  0  0
  -21.6638   -6.8877   21.4240 O   0  0  0  0  0  0
  -22.3560  -14.5547   20.6690 O   0  0  0  0  0  0
  -24.6156  -31.8670   23.2089 C   0  0  0  0  0  0
  -25.9042  -32.4818   23.8392 C   0  0  1  0  0  0
  -27.2363  -27.4239   20.1021 C   0  0  0  0  0  0
  -25.5894  -33.8616   24.2325 N   0  0  0  0  0  0
  -23.4060  -30.4882   21.5490 C   0  0  2  0  0  0
  -24.8562  -28.9511   20.1154 C   0  0  0  0  0  0
  -22.7422  -29.4643   22.4980 C   0  0  0  0  0  0
  -18.0274  -28.1375   22.8494 C   0  0  0  0  0  0
  -24.1485  -36.7313   23.2634 C   0  0  0  0  0  0
  -25.9355  -30.8281   21.3656 C   0  0  0  0  0  0
  -26.0156  -29.4599   20.7163 C   0  0  0  0  0  0
  -27.2113  -28.7016   20.7115 C   0  0  0  0  0  0
  -26.0660  -26.9319   19.4929 C   0  0  0  0  0  0
  -24.8761  -27.6855   19.5014 C   0  0  0  0  0  0
  -23.6175  -29.8188   20.1643 C   0  0  0  0  0  0
  -25.4103  -36.3108   24.0338 C   0  0  1  0  0  0
  -20.5867  -28.3662   23.1314 C   0  0  2  0  0  0
  -20.6765  -26.9398   22.5418 C   0  0  0  0  0  0
  -19.5743  -26.6385   21.5213 C   0  0  0  0  0  0
  -18.1923  -26.7921   22.1629 C   0  0  0  0  0  0
  -19.1524  -28.8835   23.2902 C   0  0  0  0  0  0
  -18.9452  -30.1441   23.8913 C   0  0  0  0  0  0
  -17.6454  -30.6581   24.0566 C   0  0  0  0  0  0
  -25.9035  -34.9473   23.5132 C   0  0  0  0  0  0
  -16.5345  -29.9086   23.6322 C   0  0  0  0  0  0
  -16.7264  -28.6502   23.0346 C   0  0  0  0  0  0
  -26.4469  -31.6595   25.0719 C   0  0  0  0  0  0
  -25.3735  -31.3707   26.1470 C   0  0  0  0  0  0
  -27.0297  -30.3034   24.6095 C   0  0  0  0  0  0
  -27.6054  -32.4307   25.7476 C   0  0  0  0  0  0
  -27.5590  -37.1795   24.8453 C   0  0  0  0  0  0
  -21.4148  -29.3027   22.3719 N   0  0  0  0  0  0
  -26.4283  -37.3800   23.9427 N   0  0  0  0  0  0
  -24.6704  -31.0755   22.0999 N   0  0  0  0  0  0
  -23.4183  -28.8186   23.3031 O   0  0  0  0  0  0
  -28.3649  -26.6319   20.0908 O   0  0  0  0  0  0
  -26.5603  -34.8926   22.4696 O   0  0  0  0  0  0
  -23.5343  -32.1427   23.7472 O   0  0  0  0  0  0
  -28.6420  -19.0197   20.6679 C   0  0  0  0  0  0
  -30.9806  -19.0080   20.0367 C   0  0  0  0  0  0
  -28.7308  -17.6419   20.9907 C   0  0  0  0  0  0
  -31.0687  -17.6303   20.3562 C   0  0  0  0  0  0
  -29.7635  -19.7225   20.1680 C   0  0  0  0  0  0
  -29.9333  -16.9134   20.8111 C   0  0  0  0  0  0
  -28.7506  -24.3110   21.0957 C   0  0  0  0  0  0
  -29.0061  -23.5506   20.0084 C   0  0  0  0  0  0
  -29.6688  -21.1274   19.6758 C   0  0  0  0  0  0
  -28.6765  -23.4714   22.3459 C   0  0  0  0  0  0
  -28.8750  -22.0404   21.8297 C   0  0  0  0  0  0
  -29.0615  -24.0305   18.5615 C   0  0  0  0  0  0
  -28.5291  -25.8312   21.2741 C   0  0  0  0  0  0
  -29.1699  -22.1919   20.3894 N   0  0  0  0  0  0
  -29.9234  -15.5027   21.0955 N   0  0  0  0  0  0
  -30.1364  -21.3322   18.4465 N   0  3  0  0  0  0
  -31.4748  -12.4307   19.1338 H   0  0  0  0  0  0
  -30.3411  -11.3128   19.8365 H   0  0  0  0  0  0
  -29.7478  -11.7759   17.4405 H   0  0  0  0  0  0
  -29.6660  -13.4884   17.7689 H   0  0  0  0  0  0
  -27.8362  -11.3052   18.8235 H   0  0  0  0  0  0
  -27.3726  -12.6283   17.7878 H   0  0  0  0  0  0
  -27.7034  -14.2513   19.5712 H   0  0  0  0  0  0
  -28.6844  -11.9544   21.3361 H   0  0  0  0  0  0
  -28.4551  -13.5852   21.8789 H   0  0  0  0  0  0
  -25.2762   -9.5681   22.4754 H   0  0  0  0  0  0
  -23.9999   -7.4633   22.7474 H   0  0  0  0  0  0
  -21.0834   -8.8778   19.8955 H   0  0  0  0  0  0
  -22.3695  -10.9675   19.6168 H   0  0  0  0  0  0
  -21.2008   -7.6148   23.9715 H   0  0  0  0  0  0
  -21.1478   -6.0522   25.9076 H   0  0  0  0  0  0
  -22.0600   -2.7608   23.2849 H   0  0  0  0  0  0
  -22.4106  -11.9898   22.4795 H   0  0  0  0  0  0
  -21.1123  -13.1278   22.2601 H   0  0  0  0  0  0
  -24.6521  -15.8327   20.4728 H   0  0  0  0  0  0
  -26.2567  -15.6087   19.9962 H   0  0  0  0  0  0
  -26.7116  -32.5537   23.1162 H   0  0  0  0  0  0
  -25.0037  -33.9778   25.0464 H   0  0  0  0  0  0
  -22.6951  -31.3049   21.4074 H   0  0  0  0  0  0
  -23.3753  -35.9637   23.3271 H   0  0  0  0  0  0
  -24.3592  -36.8952   22.2054 H   0  0  0  0  0  0
  -23.7219  -37.6503   23.6663 H   0  0  0  0  0  0
  -26.0480  -31.5915   20.5943 H   0  0  0  0  0  0
  -26.8233  -30.8852   21.9836 H   0  0  0  0  0  0
  -28.1067  -29.0878   21.1786 H   0  0  0  0  0  0
  -26.0753  -25.9581   19.0237 H   0  0  0  0  0  0
  -23.9855  -27.2867   19.0355 H   0  0  0  0  0  0
  -23.7279  -30.5938   19.4050 H   0  0  0  0  0  0
  -22.7415  -29.2395   19.8671 H   0  0  0  0  0  0
  -25.1270  -36.1970   25.0827 H   0  0  0  0  0  0
  -20.9959  -28.3231   24.1435 H   0  0  0  0  0  0
  -20.5665  -26.2272   23.3606 H   0  0  0  0  0  0
  -21.6636  -26.7439   22.1210 H   0  0  0  0  0  0
  -19.6906  -25.6302   21.1228 H   0  0  0  0  0  0
  -19.6677  -27.3207   20.6752 H   0  0  0  0  0  0
  -17.4190  -26.6662   21.4037 H   0  0  0  0  0  0
  -18.0329  -26.0062   22.9025 H   0  0  0  0  0  0
  -19.7927  -30.7252   24.2293 H   0  0  0  0  0  0
  -17.5008  -31.6261   24.5168 H   0  0  0  0  0  0
  -15.5347  -30.2993   23.7635 H   0  0  0  0  0  0
  -15.8665  -28.0826   22.7052 H   0  0  0  0  0  0
  -24.5891  -30.7075   25.7805 H   0  0  0  0  0  0
  -24.8946  -32.2866   26.4943 H   0  0  0  0  0  0
  -25.8082  -30.8851   27.0215 H   0  0  0  0  0  0
  -26.2841  -29.6801   24.1144 H   0  0  0  0  0  0
  -27.4061  -29.7265   25.4552 H   0  0  0  0  0  0
  -27.8679  -30.4351   23.9248 H   0  0  0  0  0  0
  -27.2686  -33.3599   26.2085 H   0  0  0  0  0  0
  -28.3846  -32.6878   25.0288 H   0  0  0  0  0  0
  -28.0742  -31.8408   26.5363 H   0  0  0  0  0  0
  -28.2565  -38.0136   24.7574 H   0  0  0  0  0  0
  -28.1127  -36.2674   24.6176 H   0  0  0  0  0  0
  -27.2324  -37.1318   25.8856 H   0  0  0  0  0  0
  -20.9311  -29.8752   21.6941 H   0  0  0  0  0  0
  -26.0169  -38.2866   24.1474 H   0  0  0  0  0  0
  -27.6873  -19.5181   20.7604 H   0  0  0  0  0  0
  -31.8605  -19.5129   19.6621 H   0  0  0  0  0  0
  -27.8423  -17.1383   21.3462 H   0  0  0  0  0  0
  -32.0210  -17.1377   20.2263 H   0  0  0  0  0  0
  -27.7067  -23.5882   22.8308 H   0  0  0  0  0  0
  -29.4567  -23.7596   23.0509 H   0  0  0  0  0  0
  -27.9683  -21.4529   21.9766 H   0  0  0  0  0  0
  -29.6915  -21.5445   22.3580 H   0  0  0  0  0  0
  -28.4484  -24.9177   18.4190 H   0  0  0  0  0  0
  -28.6563  -23.2967   17.8658 H   0  0  0  0  0  0
  -30.0829  -24.2831   18.2753 H   0  0  0  0  0  0
  -29.3834  -26.2270   21.8238 H   0  0  0  0  0  0
  -27.6712  -25.9494   21.9401 H   0  0  0  0  0  0
  -29.0706  -15.1629   21.5110 H   0  0  0  0  0  0
  -30.4536  -20.5526   17.8929 H   0  0  0  0  0  0
  -30.1170  -22.2581   18.0530 H   0  0  0  0  0  0
  1 25  1  0  0  0
  1 30  2  0  0  0
  1 85  1  0  0  0
  2  3  1  0  0  0
  2 25  1  0  0  0
  2 87  1  0  0  0
  2 88  1  0  0  0
  3  4  1  0  0  0
  3 89  1  0  0  0
  3 90  1  0  0  0
  4  5  1  0  0  0
  4 91  1  0  0  0
  4 92  1  0  0  0
  5  6  1  0  0  0
  5 26  1  0  0  0
  5 93  1  0  0  0
  6 25  1  0  0  0
  6 94  1  0  0  0
  6 95  1  0  0  0
  7  8  2  0  0  0
  7 26  1  0  0  0
  7 29  1  0  0  0
  8  9  1  0  0  0
  8 22  1  0  0  0
  9 10  1  0  0  0
  9 27  2  0  0  0
 10 11  2  0  0  0
 10 15  1  0  0  0
 11 12  1  0  0  0
 11 96  1  0  0  0
 12 13  2  0  0  0
 12 97  1  0  0  0
 13 14  1  0  0  0
 13 31  1  0  0  0
 14 15  2  0  0  0
 14 98  1  0  0  0
 15 99  1  0  0  0
 16 17  2  0  0  0
 16 21  1  0  0  0
 16 31  1  0  0  0
 17 18  1  0  0  0
 17100  1  0  0  0
 18 19  2  0  0  0
 18101  1  0  0  0
 19 20  1  0  0  0
 19 24  1  0  0  0
 20 21  2  0  0  0
 20102  1  0  0  0
 21 23  1  0  0  0
 22 28  1  0  0  0
 22 32  2  0  0  0
 26 27  1  0  0  0
 28103  1  0  0  0
 28104  1  0  0  0
 29105  1  0  0  0
 29106  1  0  0  0
 33 34  1  0  0  0
 33 66  1  0  0  0
 33 70  2  0  0  0
 34 36  1  0  0  0
 34 59  1  0  0  0
 34107  1  0  0  0
 35 44  2  0  0  0
 35 45  1  0  0  0
 35 68  1  0  0  0
 36 56  1  0  0  0
 36108  1  0  0  0
 37 39  1  0  0  0
 37 47  1  0  0  0
 37 66  1  0  0  0
 37109  1  0  0  0
 38 43  2  0  0  0
 38 46  1  0  0  0
 38 47  1  0  0  0
 39 64  1  0  0  0
 39 67  2  0  0  0
 40 52  1  0  0  0
 40 53  2  0  0  0
 40 58  1  0  0  0
 41110  1  0  0  0
 41111  1  0  0  0
 41112  1  0  0  0
 41 48  1  0  0  0
 42 43  1  0  0  0
 42 66  1  0  0  0
 42113  1  0  0  0
 42114  1  0  0  0
 43 44  1  0  0  0
 44115  1  0  0  0
 45 46  2  0  0  0
 45116  1  0  0  0
 46117  1  0  0  0
 47118  1  0  0  0
 47119  1  0  0  0
 48 56  1  0  0  0
 48 65  1  0  0  0
 48120  1  0  0  0
 49 50  1  0  0  0
 49 53  1  0  0  0
 49 64  1  0  0  0
 49121  1  0  0  0
 50 51  1  0  0  0
 50122  1  0  0  0
 50123  1  0  0  0
 51 52  1  0  0  0
 51124  1  0  0  0
 51125  1  0  0  0
 52126  1  0  0  0
 52127  1  0  0  0
 53 54  1  0  0  0
 54 55  2  0  0  0
 54128  1  0  0  0
 55 57  1  0  0  0
 55129  1  0  0  0
 56 69  2  0  0  0
 57 58  2  0  0  0
 57130  1  0  0  0
 58131  1  0  0  0
 59 60  1  0  0  0
 59 61  1  0  0  0
 59 62  1  0  0  0
 60132  1  0  0  0
 60133  1  0  0  0
 60134  1  0  0  0
 61135  1  0  0  0
 61136  1  0  0  0
 61137  1  0  0  0
 62138  1  0  0  0
 62139  1  0  0  0
 62140  1  0  0  0
 63 65  1  0  0  0
 63141  1  0  0  0
 63142  1  0  0  0
 63143  1  0  0  0
 64144  1  0  0  0
 65145  1  0  0  0
 68 83  1  0  0  0
 71 73  2  0  0  0
 71 75  1  0  0  0
 71146  1  0  0  0
 72 74  1  0  0  0
 72 75  2  0  0  0
 72147  1  0  0  0
 73 76  1  0  0  0
 73148  1  0  0  0
 74 76  2  0  0  0
 74149  1  0  0  0
 75 79  1  0  0  0
 76 85  1  0  0  0
 77 78  2  0  0  0
 77 80  1  0  0  0
 77 83  1  0  0  0
 78 82  1  0  0  0
 78 84  1  0  0  0
 79 84  1  0  0  0
 79 86  2  0  0  0
 80 81  1  0  0  0
 80150  1  0  0  0
 80151  1  0  0  0
 81 84  1  0  0  0
 81152  1  0  0  0
 81153  1  0  0  0
 82154  1  0  0  0
 82155  1  0  0  0
 82156  1  0  0  0
 83157  1  0  0  0
 83158  1  0  0  0
 85159  1  0  0  0
 86160  1  0  0  0
 86161  1  0  0  0
M  CHG  1  86   1
M  ISO  4   1 100  68 101  83 101  85 100
M  END
> <chiral flag>
0

> <version>
0

> <s_m_source_file>
/data/baiqing/PycharmProjects/Reinvent-master-3.2/result/LINK_invent/BTK/process_docking_weight1_custom_product_contain_oxygen_bond_distance_aromatic_linkinvent_7_9_3/rearranged_h_0139.sdf

> <i_m_source_file_index>
64

> <r_mmod_Potential_Energy-OPLS-2005>
-90.7647094726562

> <r_mmod_Stretch_Energy-OPLS-2005>
48.0621871948242

> <r_mmod_Bend_Energy-OPLS-2005>
166.651031494141

> <r_mmod_Torsional_Energy-OPLS-2005>
240.299758911133

> <r_mmod_Improper_Torsional_Energy-OPLS-2005>
5.10332918167114

> <r_mmod_Van_der_Waal_Energy-OPLS-2005>
157.405700683594

> <r_mmod_Electrostatic_Energy-OPLS-2005>
-338.686706542969

> <r_mmod_Solvation_Energy-OPLS-2005>
-385.729095458984

> <b_mmod_Minimization_Converged-OPLS-2005>
0

> <r_mmod_RMS_Derivative-OPLS-2005>
0.634652495384216

$$$$
64
                    3D
 Structure written by MMmdl.
163171  0  0  1  0            999 V2000
  -30.6732  -14.5774   20.5251 C   0  0  0  0  0  0
  -30.4295  -12.3471   19.4876 C   0  0  0  0  0  0
  -29.5200  -12.4917   18.2475 C   0  0  0  0  0  0
  -28.0398  -12.3515   18.6501 C   0  0  0  0  0  0
  -27.6594  -13.2214   19.8785 C   0  0  2  0  0  0
  -28.6966  -13.0805   21.0195 C   0  0  0  0  0  0
  -25.2575  -13.8185   20.5701 C   0  0  0  0  0  0
  -24.1849  -13.0457   20.9169 C   0  0  0  0  0  0
  -24.6421  -11.6928   20.8736 C   0  0  0  0  0  0
  -23.9080  -10.4306   21.0410 C   0  0  0  0  0  0
  -24.3636   -9.4219   21.9178 C   0  0  0  0  0  0
  -23.6296   -8.2263   22.0766 C   0  0  0  0  0  0
  -22.4277   -8.0299   21.3543 C   0  0  0  0  0  0
  -21.9921   -9.0276   20.4655 C   0  0  0  0  0  0
  -22.7258  -10.2140   20.3051 C   0  0  0  0  0  0
  -21.6860   -6.0745   22.5280 C   0  0  0  0  0  0
  -21.4010   -6.5649   23.8208 C   0  0  0  0  0  0
  -21.3655   -5.6797   24.9170 C   0  0  0  0  0  0
  -21.6032   -4.3062   24.7212 C   0  0  0  0  0  0
  -21.8824   -3.8149   23.4347 C   0  0  0  0  0  0
  -21.9197   -4.6972   22.3398 C   0  0  0  0  0  0
  -22.7852  -13.5263   21.1836 C   0  0  0  0  0  0
  -22.1675   -4.2165   21.0974 F   0  0  0  0  0  0
  -21.5613   -3.4539   25.7723 F   0  0  0  0  0  0
  -30.0258  -13.3753   20.4639 N   0  0  0  0  0  0
  -26.3026  -12.9386   20.3372 N   0  0  0  0  0  0
  -25.9362  -11.6539   20.5795 N   0  0  0  0  0  0
  -22.0512  -12.8241   22.0402 N   0  0  0  0  0  0
  -25.4306  -15.1921   20.4146 N   0  0  0  0  0  0
  -31.8174  -14.7290   20.0861 O   0  0  0  0  0  0
  -21.6648   -6.8896   21.4246 O   0  0  0  0  0  0
  -22.3536  -14.5554   20.6701 O   0  0  0  0  0  0
  -24.6184  -31.8661   23.2096 C   0  0  0  0  0  0
  -25.9073  -32.4804   23.8409 C   0  0  1  0  0  0
  -27.2268  -27.3793   20.0894 C   0  0  0  0  0  0
  -25.5943  -33.8609   24.2347 N   0  0  0  0  0  0
  -23.4107  -30.4866   21.5509 C   0  0  2  0  0  0
  -24.8590  -28.9561   20.1065 C   0  0  0  0  0  0
  -22.7454  -29.4622   22.4985 C   0  0  0  0  0  0
  -18.0288  -28.1351   22.8442 C   0  0  0  0  0  0
  -24.1492  -36.7279   23.2637 C   0  0  0  0  0  0
  -25.9467  -30.8074   21.3798 C   0  0  0  0  0  0
  -26.0238  -29.4398   20.7201 C   0  0  0  0  0  0
  -27.2118  -28.6586   20.7116 C   0  0  0  0  0  0
  -26.0526  -26.9459   19.4374 C   0  0  0  0  0  0
  -24.8727  -27.7111   19.4602 C   0  0  0  0  0  0
  -23.6217  -29.8243   20.1624 C   0  0  0  0  0  0
  -25.4117  -36.3109   24.0349 C   0  0  1  0  0  0
  -20.5881  -28.3659   23.1315 C   0  0  2  0  0  0
  -20.6805  -26.9408   22.5401 C   0  0  0  0  0  0
  -19.5827  -26.6458   21.5139 C   0  0  0  0  0  0
  -18.1972  -26.7964   22.1472 C   0  0  0  0  0  0
  -19.1535  -28.8814   23.2903 C   0  0  0  0  0  0
  -18.9451  -30.1385   23.8958 C   0  0  0  0  0  0
  -17.6446  -30.6532   24.0582 C   0  0  0  0  0  0
  -25.9052  -34.9467   23.5154 C   0  0  0  0  0  0
  -16.5342  -29.9037   23.6307 C   0  0  0  0  0  0
  -16.7274  -28.6461   23.0308 C   0  0  0  0  0  0
  -26.4487  -31.6590   25.0751 C   0  0  0  0  0  0
  -25.3730  -31.3731   26.1490 C   0  0  0  0  0  0
  -27.0339  -30.3029   24.6173 C   0  0  0  0  0  0
  -27.6091  -32.4285   25.7484 C   0  0  0  0  0  0
  -27.5587  -37.1806   24.8472 C   0  0  0  0  0  0
  -21.4175  -29.3025   22.3717 N   0  0  0  0  0  0
  -26.4296  -37.3793   23.9418 N   0  0  0  0  0  0
  -24.6760  -31.0704   22.1020 N   0  0  0  0  0  0
  -23.4192  -28.8177   23.3058 O   0  0  0  0  0  0
  -28.3376  -26.5378   20.1096 O   0  0  0  0  0  0
  -26.5583  -34.8911   22.4694 O   0  0  0  0  0  0
  -23.5369  -32.1435   23.7460 O   0  0  0  0  0  0
  -29.7728  -18.1955   20.6030 C   0  0  0  0  0  0
  -29.3590  -16.6170   18.7833 C   0  0  0  0  0  0
  -29.1224  -19.0020   18.3936 C   0  0  0  0  0  0
  -29.7252  -16.8371   20.1262 C   0  0  0  0  0  0
  -29.4714  -19.2961   19.7290 C   0  0  0  0  0  0
  -29.0541  -17.6784   17.9248 C   0  0  0  0  0  0
  -26.1680  -22.8479   21.8519 C   0  0  0  0  0  0
  -27.6164  -22.1151   18.3291 C   0  0  0  0  0  0
  -26.3284  -22.7239   20.3221 C   0  0  0  0  0  0
  -28.6098  -23.9261   19.8190 C   0  0  0  0  0  0
  -28.0816  -25.1877   20.6212 C   0  0  0  0  0  0
  -28.4263  -21.3248   20.6033 C   0  0  0  0  0  0
  -27.7890  -22.5452   19.8047 C   0  0  2  0  0  0
  -29.9426  -15.6527   20.9309 N   0  0  0  0  0  0
  -29.5919  -20.6428   20.0851 O   0  0  0  0  0  0
  -28.7033  -17.4175   16.6443 F   0  0  0  0  0  0
  -31.4818  -12.4248   19.2107 H   0  0  0  0  0  0
  -30.3096  -11.3575   19.9318 H   0  0  0  0  0  0
  -29.7818  -11.7357   17.5065 H   0  0  0  0  0  0
  -29.6906  -13.4561   17.7667 H   0  0  0  0  0  0
  -27.8631  -11.2990   18.8760 H   0  0  0  0  0  0
  -27.3940  -12.5903   17.8033 H   0  0  0  0  0  0
  -27.6775  -14.2580   19.5429 H   0  0  0  0  0  0
  -28.6812  -12.0725   21.4365 H   0  0  0  0  0  0
  -28.4465  -13.7411   21.8512 H   0  0  0  0  0  0
  -25.2794   -9.5680   22.4733 H   0  0  0  0  0  0
  -24.0002   -7.4651   22.7485 H   0  0  0  0  0  0
  -21.0842   -8.8790   19.8956 H   0  0  0  0  0  0
  -22.3729  -10.9668   19.6144 H   0  0  0  0  0  0
  -21.2010   -7.6150   23.9711 H   0  0  0  0  0  0
  -21.1466   -6.0527   25.9067 H   0  0  0  0  0  0
  -22.0606   -2.7622   23.2830 H   0  0  0  0  0  0
  -22.4186  -11.9946   22.4793 H   0  0  0  0  0  0
  -21.1124  -13.1248   22.2600 H   0  0  0  0  0  0
  -24.6639  -15.8450   20.5261 H   0  0  0  0  0  0
  -26.2911  -15.6373   20.1257 H   0  0  0  0  0  0
  -26.7143  -32.5463   23.1170 H   0  0  0  0  0  0
  -25.0198  -33.9779   25.0570 H   0  0  0  0  0  0
  -22.6993  -31.3041   21.4139 H   0  0  0  0  0  0
  -23.3776  -35.9584   23.3309 H   0  0  0  0  0  0
  -24.3611  -36.8862   22.2050 H   0  0  0  0  0  0
  -23.7198  -37.6479   23.6618 H   0  0  0  0  0  0
  -26.0745  -31.5751   20.6161 H   0  0  0  0  0  0
  -26.8294  -30.8549   22.0055 H   0  0  0  0  0  0
  -28.1006  -29.0179   21.2139 H   0  0  0  0  0  0
  -26.0452  -26.0045   18.9062 H   0  0  0  0  0  0
  -23.9850  -27.3480   18.9604 H   0  0  0  0  0  0
  -23.7290  -30.6010   19.4032 H   0  0  0  0  0  0
  -22.7424  -29.2470   19.8686 H   0  0  0  0  0  0
  -25.1287  -36.1995   25.0837 H   0  0  0  0  0  0
  -20.9946  -28.3206   24.1440 H   0  0  0  0  0  0
  -20.5709  -26.2230   23.3542 H   0  0  0  0  0  0
  -21.6678  -26.7505   22.1194 H   0  0  0  0  0  0
  -19.7013  -25.6432   21.1019 H   0  0  0  0  0  0
  -19.6787  -27.3383   20.6760 H   0  0  0  0  0  0
  -17.4344  -26.6854   21.3748 H   0  0  0  0  0  0
  -18.0288  -25.9998   22.8725 H   0  0  0  0  0  0
  -19.7924  -30.7179   24.2385 H   0  0  0  0  0  0
  -17.4997  -31.6198   24.5199 H   0  0  0  0  0  0
  -15.5342  -30.2929   23.7631 H   0  0  0  0  0  0
  -15.8688  -28.0787   22.6995 H   0  0  0  0  0  0
  -24.5903  -30.7081   25.7831 H   0  0  0  0  0  0
  -24.8911  -32.2893   26.4903 H   0  0  0  0  0  0
  -25.8052  -30.8919   27.0269 H   0  0  0  0  0  0
  -26.2933  -29.6784   24.1161 H   0  0  0  0  0  0
  -27.4051  -29.7280   25.4667 H   0  0  0  0  0  0
  -27.8790  -30.4374   23.9413 H   0  0  0  0  0  0
  -27.2779  -33.3589   26.2100 H   0  0  0  0  0  0
  -28.3870  -32.6815   25.0269 H   0  0  0  0  0  0
  -28.0790  -31.8358   26.5341 H   0  0  0  0  0  0
  -28.2630  -38.0084   24.7526 H   0  0  0  0  0  0
  -28.1063  -36.2624   24.6296 H   0  0  0  0  0  0
  -27.2315  -37.1460   25.8878 H   0  0  0  0  0  0
  -20.9378  -29.8724   21.6895 H   0  0  0  0  0  0
  -26.0199  -38.2880   24.1398 H   0  0  0  0  0  0
  -30.0591  -18.4098   21.6257 H   0  0  0  0  0  0
  -29.3015  -15.6151   18.3930 H   0  0  0  0  0  0
  -28.9220  -19.7956   17.6939 H   0  0  0  0  0  0
  -25.2690  -23.4135   22.0999 H   0  0  0  0  0  0
  -27.0151  -23.3402   22.3290 H   0  0  0  0  0  0
  -26.0699  -21.8678   22.3176 H   0  0  0  0  0  0
  -27.0058  -22.8235   17.7660 H   0  0  0  0  0  0
  -27.1038  -21.1547   18.2616 H   0  0  0  0  0  0
  -28.5709  -22.0233   17.8103 H   0  0  0  0  0  0
  -25.8684  -23.5789   19.8265 H   0  0  0  0  0  0
  -25.7097  -21.8809   20.0041 H   0  0  0  0  0  0
  -29.6307  -23.7175   20.1444 H   0  0  0  0  0  0
  -28.7305  -24.2553   18.7868 H   0  0  0  0  0  0
  -28.5277  -25.1525   21.6143 H   0  0  0  0  0  0
  -27.0208  -25.0912   20.8168 H   0  0  0  0  0  0
  -27.6522  -20.5716   20.7651 H   0  0  0  0  0  0
  -28.7004  -21.6633   21.6012 H   0  0  0  0  0  0
  -29.1415  -15.3910   21.4843 H   0  0  0  0  0  0
  1 25  1  0  0  0
  1 30  2  0  0  0
  1 84  1  0  0  0
  2  3  1  0  0  0
  2 25  1  0  0  0
  2 87  1  0  0  0
  2 88  1  0  0  0
  3  4  1  0  0  0
  3 89  1  0  0  0
  3 90  1  0  0  0
  4  5  1  0  0  0
  4 91  1  0  0  0
  4 92  1  0  0  0
  5  6  1  0  0  0
  5 26  1  0  0  0
  5 93  1  0  0  0
  6 25  1  0  0  0
  6 94  1  0  0  0
  6 95  1  0  0  0
  7  8  2  0  0  0
  7 26  1  0  0  0
  7 29  1  0  0  0
  8  9  1  0  0  0
  8 22  1  0  0  0
  9 10  1  0  0  0
  9 27  2  0  0  0
 10 11  2  0  0  0
 10 15  1  0  0  0
 11 12  1  0  0  0
 11 96  1  0  0  0
 12 13  2  0  0  0
 12 97  1  0  0  0
 13 14  1  0  0  0
 13 31  1  0  0  0
 14 15  2  0  0  0
 14 98  1  0  0  0
 15 99  1  0  0  0
 16 17  2  0  0  0
 16 21  1  0  0  0
 16 31  1  0  0  0
 17 18  1  0  0  0
 17100  1  0  0  0
 18 19  2  0  0  0
 18101  1  0  0  0
 19 20  1  0  0  0
 19 24  1  0  0  0
 20 21  2  0  0  0
 20102  1  0  0  0
 21 23  1  0  0  0
 22 28  1  0  0  0
 22 32  2  0  0  0
 26 27  1  0  0  0
 28103  1  0  0  0
 28104  1  0  0  0
 29105  1  0  0  0
 29106  1  0  0  0
 33 34  1  0  0  0
 33 66  1  0  0  0
 33 70  2  0  0  0
 34 36  1  0  0  0
 34 59  1  0  0  0
 34107  1  0  0  0
 35 44  2  0  0  0
 35 45  1  0  0  0
 35 68  1  0  0  0
 36 56  1  0  0  0
 36108  1  0  0  0
 37 39  1  0  0  0
 37 47  1  0  0  0
 37 66  1  0  0  0
 37109  1  0  0  0
 38 43  2  0  0  0
 38 46  1  0  0  0
 38 47  1  0  0  0
 39 64  1  0  0  0
 39 67  2  0  0  0
 40 52  1  0  0  0
 40 53  2  0  0  0
 40 58  1  0  0  0
 41110  1  0  0  0
 41111  1  0  0  0
 41112  1  0  0  0
 41 48  1  0  0  0
 42 43  1  0  0  0
 42 66  1  0  0  0
 42113  1  0  0  0
 42114  1  0  0  0
 43 44  1  0  0  0
 44115  1  0  0  0
 45 46  2  0  0  0
 45116  1  0  0  0
 46117  1  0  0  0
 47118  1  0  0  0
 47119  1  0  0  0
 48 56  1  0  0  0
 48 65  1  0  0  0
 48120  1  0  0  0
 49 50  1  0  0  0
 49 53  1  0  0  0
 49 64  1  0  0  0
 49121  1  0  0  0
 50 51  1  0  0  0
 50122  1  0  0  0
 50123  1  0  0  0
 51 52  1  0  0  0
 51124  1  0  0  0
 51125  1  0  0  0
 52126  1  0  0  0
 52127  1  0  0  0
 53 54  1  0  0  0
 54 55  2  0  0  0
 54128  1  0  0  0
 55 57  1  0  0  0
 55129  1  0  0  0
 56 69  2  0  0  0
 57 58  2  0  0  0
 57130  1  0  0  0
 58131  1  0  0  0
 59 60  1  0  0  0
 59 61  1  0  0  0
 59 62  1  0  0  0
 60132  1  0  0  0
 60133  1  0  0  0
 60134  1  0  0  0
 61135  1  0  0  0
 61136  1  0  0  0
 61137  1  0  0  0
 62138  1  0  0  0
 62139  1  0  0  0
 62140  1  0  0  0
 63 65  1  0  0  0
 63141  1  0  0  0
 63142  1  0  0  0
 63143  1  0  0  0
 64144  1  0  0  0
 65145  1  0  0  0
 68 81  1  0  0  0
 71 74  2  0  0  0
 71 75  1  0  0  0
 71146  1  0  0  0
 72 74  1  0  0  0
 72 76  2  0  0  0
 72147  1  0  0  0
 73 75  2  0  0  0
 73 76  1  0  0  0
 73148  1  0  0  0
 74 84  1  0  0  0
 75 85  1  0  0  0
 76 86  1  0  0  0
 77 79  1  0  0  0
 77149  1  0  0  0
 77150  1  0  0  0
 77151  1  0  0  0
 78152  1  0  0  0
 78153  1  0  0  0
 78154  1  0  0  0
 78 83  1  0  0  0
 79 83  1  0  0  0
 79155  1  0  0  0
 79156  1  0  0  0
 80 81  1  0  0  0
 80 83  1  0  0  0
 80157  1  0  0  0
 80158  1  0  0  0
 81159  1  0  0  0
 81160  1  0  0  0
 82 83  1  0  0  0
 82 85  1  0  0  0
 82161  1  0  0  0
 82162  1  0  0  0
 84163  1  0  0  0
M  ISO  4   1 100  68 101  81 101  84 100
M  END
> <chiral flag>
0

> <version>
0

> <s_m_source_file>
/data/baiqing/PycharmProjects/Reinvent-master-3.2/result/LINK_invent/BTK/process_docking_weight1_custom_product_contain_oxygen_bond_distance_aromatic_linkinvent_7_9_3/rearranged_h_0139.sdf

> <i_m_source_file_index>
65

> <r_mmod_Potential_Energy-OPLS-2005>
196.102081298828

> <r_mmod_Stretch_Energy-OPLS-2005>
69.1907348632812

> <r_mmod_Bend_Energy-OPLS-2005>
139.369720458984

> <r_mmod_Torsional_Energy-OPLS-2005>
338.004486083984

> <r_mmod_Improper_Torsional_Energy-OPLS-2005>
7.08673238754272

> <r_mmod_Van_der_Waal_Energy-OPLS-2005>
155.534469604492

> <r_mmod_Electrostatic_Energy-OPLS-2005>
-340.424194335938

> <r_mmod_Solvation_Energy-OPLS-2005>
-204.793014526367

> <b_mmod_Minimization_Converged-OPLS-2005>
0

> <r_mmod_RMS_Derivative-OPLS-2005>
5.01268434524536

$$$$
65
                    3D
 Structure written by MMmdl.
171179  0  0  1  0            999 V2000
  -30.6278  -14.6896   20.5065 C   0  0  0  0  0  0
  -30.4463  -12.4243   19.4666 C   0  0  0  0  0  0
  -29.5173  -12.5163   18.2358 C   0  0  0  0  0  0
  -28.0378  -12.3494   18.6394 C   0  0  0  0  0  0
  -27.6499  -13.2258   19.8598 C   0  0  2  0  0  0
  -28.6954  -13.1158   20.9927 C   0  0  0  0  0  0
  -25.2497  -13.8140   20.5670 C   0  0  0  0  0  0
  -24.1792  -13.0396   20.9200 C   0  0  0  0  0  0
  -24.6398  -11.6884   20.8750 C   0  0  0  0  0  0
  -23.9069  -10.4264   21.0408 C   0  0  0  0  0  0
  -24.3605   -9.4176   21.9190 C   0  0  0  0  0  0
  -23.6259   -8.2232   22.0770 C   0  0  0  0  0  0
  -22.4249   -8.0273   21.3551 C   0  0  0  0  0  0
  -21.9903   -9.0245   20.4652 C   0  0  0  0  0  0
  -22.7241  -10.2118   20.3056 C   0  0  0  0  0  0
  -21.6852   -6.0706   22.5275 C   0  0  0  0  0  0
  -21.4012   -6.5614   23.8201 C   0  0  0  0  0  0
  -21.3647   -5.6772   24.9167 C   0  0  0  0  0  0
  -21.6034   -4.3032   24.7216 C   0  0  0  0  0  0
  -21.8822   -3.8122   23.4344 C   0  0  0  0  0  0
  -21.9192   -4.6938   22.3398 C   0  0  0  0  0  0
  -22.7812  -13.5215   21.1815 C   0  0  0  0  0  0
  -22.1672   -4.2128   21.0972 F   0  0  0  0  0  0
  -21.5620   -3.4497   25.7724 F   0  0  0  0  0  0
  -30.0103  -13.4625   20.4263 N   0  0  0  0  0  0
  -26.2954  -12.9373   20.3287 N   0  0  0  0  0  0
  -25.9330  -11.6514   20.5745 N   0  0  0  0  0  0
  -22.0411  -12.8254   22.0367 N   0  0  0  0  0  0
  -25.4052  -15.1846   20.4034 N   0  0  0  0  0  0
  -31.8027  -14.8331   20.1599 O   0  0  0  0  0  0
  -21.6611   -6.8862   21.4249 O   0  0  0  0  0  0
  -22.3525  -14.5512   20.6642 O   0  0  0  0  0  0
  -24.6281  -31.8576   23.2030 C   0  0  0  0  0  0
  -25.9132  -32.4764   23.8349 C   0  0  1  0  0  0
  -27.2440  -27.3048   20.1485 C   0  0  0  0  0  0
  -25.5954  -33.8556   24.2293 N   0  0  0  0  0  0
  -23.4247  -30.4776   21.5428 C   0  0  2  0  0  0
  -24.8822  -28.9225   20.1267 C   0  0  0  0  0  0
  -22.7478  -29.4603   22.4925 C   0  0  0  0  0  0
  -18.0294  -28.1387   22.8489 C   0  0  0  0  0  0
  -24.1494  -36.7250   23.2635 C   0  0  0  0  0  0
  -25.9652  -30.7826   21.3815 C   0  0  0  0  0  0
  -26.0457  -29.4007   20.7456 C   0  0  0  0  0  0
  -27.2300  -28.5986   20.7587 C   0  0  0  0  0  0
  -26.0705  -26.8997   19.4822 C   0  0  0  0  0  0
  -24.8953  -27.6738   19.4892 C   0  0  0  0  0  0
  -23.6473  -29.8015   20.1640 C   0  0  0  0  0  0
  -25.4114  -36.3048   24.0340 C   0  0  1  0  0  0
  -20.5889  -28.3677   23.1278 C   0  0  2  0  0  0
  -20.6772  -26.9399   22.5397 C   0  0  0  0  0  0
  -19.5753  -26.6387   21.5196 C   0  0  0  0  0  0
  -18.1933  -26.7943   22.1608 C   0  0  0  0  0  0
  -19.1543  -28.8852   23.2879 C   0  0  0  0  0  0
  -18.9465  -30.1471   23.8875 C   0  0  0  0  0  0
  -17.6455  -30.6589   24.0557 C   0  0  0  0  0  0
  -25.9050  -34.9430   23.5101 C   0  0  0  0  0  0
  -16.5344  -29.9072   23.6358 C   0  0  0  0  0  0
  -16.7279  -28.6495   23.0373 C   0  0  0  0  0  0
  -26.4539  -31.6559   25.0695 C   0  0  0  0  0  0
  -25.3794  -31.3669   26.1431 C   0  0  0  0  0  0
  -27.0357  -30.2972   24.6140 C   0  0  0  0  0  0
  -27.6100  -32.4288   25.7456 C   0  0  0  0  0  0
  -27.5581  -37.1773   24.8467 C   0  0  0  0  0  0
  -21.4181  -29.3030   22.3658 N   0  0  0  0  0  0
  -26.4280  -37.3758   23.9426 N   0  0  0  0  0  0
  -24.6896  -31.0586   22.0986 N   0  0  0  0  0  0
  -23.4180  -28.8152   23.3024 O   0  0  0  0  0  0
  -28.3618  -26.4603   20.0390 O   0  0  0  0  0  0
  -26.5574  -34.8909   22.4644 O   0  0  0  0  0  0
  -23.5435  -32.1351   23.7374 O   0  0  0  0  0  0
  -29.1067  -19.4819   20.0991 C   0  0  0  0  0  0
  -30.9712  -17.9265   21.4718 C   0  0  0  0  0  0
  -30.0538  -20.1962   20.8816 C   0  0  0  0  0  0
  -29.0500  -18.0520   20.0425 C   0  0  0  0  0  0
  -31.0005  -19.3573   21.5691 C   0  0  0  0  0  0
  -29.9878  -17.2229   20.7315 C   0  0  0  0  0  0
  -32.0818  -19.9440   22.4669 C   0  0  0  0  0  0
  -28.3943  -16.9172   17.8662 C   0  0  0  0  0  0
  -31.3178  -22.4063   20.4006 C   0  0  0  0  0  0
  -26.6738  -23.9884   20.8347 C   0  0  0  0  0  0
  -28.1904  -23.6254   22.7382 C   0  0  0  0  0  0
  -27.9288  -17.4243   19.2333 C   0  0  0  0  0  0
  -28.7921  -22.6543   20.4726 C   0  0  0  0  0  0
  -28.7288  -25.4651   21.0747 C   0  0  0  0  0  0
  -30.0434  -21.7932   21.0082 C   0  0  1  0  0  0
  -28.1617  -23.9496   21.2272 C   0  0  0  0  0  0
  -29.8117  -15.7600   20.7974 N   0  0  0  0  0  0
  -31.4876  -12.5560   19.1628 H   0  0  0  0  0  0
  -30.3901  -11.4338   19.9233 H   0  0  0  0  0  0
  -29.7913  -11.7607   17.4985 H   0  0  0  0  0  0
  -29.6558  -13.4848   17.7533 H   0  0  0  0  0  0
  -27.8703  -11.2965   18.8680 H   0  0  0  0  0  0
  -27.3925  -12.5807   17.7904 H   0  0  0  0  0  0
  -27.6539  -14.2543   19.5033 H   0  0  0  0  0  0
  -28.7128  -12.1063   21.4050 H   0  0  0  0  0  0
  -28.4296  -13.7702   21.8255 H   0  0  0  0  0  0
  -25.2744   -9.5622   22.4771 H   0  0  0  0  0  0
  -23.9930   -7.4615   22.7503 H   0  0  0  0  0  0
  -21.0833   -8.8770   19.8953 H   0  0  0  0  0  0
  -22.3704  -10.9660   19.6162 H   0  0  0  0  0  0
  -21.2022   -7.6128   23.9692 H   0  0  0  0  0  0
  -21.1487   -6.0507   25.9070 H   0  0  0  0  0  0
  -22.0633   -2.7585   23.2840 H   0  0  0  0  0  0
  -22.3989  -11.9943   22.4827 H   0  0  0  0  0  0
  -21.1047  -13.1374   22.2531 H   0  0  0  0  0  0
  -24.6169  -15.8188   20.4753 H   0  0  0  0  0  0
  -26.2101  -15.6038   19.9609 H   0  0  0  0  0  0
  -26.7191  -32.5483   23.1093 H   0  0  0  0  0  0
  -25.0229  -33.9686   25.0525 H   0  0  0  0  0  0
  -22.7192  -31.2978   21.3933 H   0  0  0  0  0  0
  -23.3765  -35.9568   23.3262 H   0  0  0  0  0  0
  -24.3612  -36.8886   22.2056 H   0  0  0  0  0  0
  -23.7229  -37.6440   23.6669 H   0  0  0  0  0  0
  -26.0963  -31.5348   20.6022 H   0  0  0  0  0  0
  -26.8451  -30.8440   22.0104 H   0  0  0  0  0  0
  -28.1284  -28.9699   21.2337 H   0  0  0  0  0  0
  -26.0624  -25.9673   18.9408 H   0  0  0  0  0  0
  -24.0120  -27.3068   18.9847 H   0  0  0  0  0  0
  -23.7644  -30.5680   19.3970 H   0  0  0  0  0  0
  -22.7698  -29.2219   19.8690 H   0  0  0  0  0  0
  -25.1300  -36.1879   25.0831 H   0  0  0  0  0  0
  -21.0016  -28.3263   24.1392 H   0  0  0  0  0  0
  -20.5677  -26.2271   23.3584 H   0  0  0  0  0  0
  -21.6639  -26.7433   22.1191 H   0  0  0  0  0  0
  -19.6881  -25.6295   21.1240 H   0  0  0  0  0  0
  -19.6720  -27.3184   20.6722 H   0  0  0  0  0  0
  -17.4213  -26.6727   21.3999 H   0  0  0  0  0  0
  -18.0323  -26.0076   22.8994 H   0  0  0  0  0  0
  -19.7926  -30.7317   24.2204 H   0  0  0  0  0  0
  -17.5005  -31.6281   24.5134 H   0  0  0  0  0  0
  -15.5339  -30.2954   23.7713 H   0  0  0  0  0  0
  -15.8686  -28.0814   22.7088 H   0  0  0  0  0  0
  -24.6047  -30.6917   25.7786 H   0  0  0  0  0  0
  -24.8891  -32.2798   26.4808 H   0  0  0  0  0  0
  -25.8166  -30.8927   27.0225 H   0  0  0  0  0  0
  -26.2889  -29.6716   24.1229 H   0  0  0  0  0  0
  -27.4093  -29.7258   25.4647 H   0  0  0  0  0  0
  -27.8772  -30.4201   23.9316 H   0  0  0  0  0  0
  -27.2730  -33.3629   26.1967 H   0  0  0  0  0  0
  -28.3949  -32.6769   25.0296 H   0  0  0  0  0  0
  -28.0724  -31.8438   26.5417 H   0  0  0  0  0  0
  -28.2565  -38.0102   24.7561 H   0  0  0  0  0  0
  -28.1108  -36.2632   24.6236 H   0  0  0  0  0  0
  -27.2305  -37.1354   25.8869 H   0  0  0  0  0  0
  -20.9350  -29.8701   21.6825 H   0  0  0  0  0  0
  -26.0144  -38.2820   24.1456 H   0  0  0  0  0  0
  -28.3695  -20.0413   19.5449 H   0  0  0  0  0  0
  -31.6976  -17.3528   22.0314 H   0  0  0  0  0  0
  -32.4130  -19.2202   23.2130 H   0  0  0  0  0  0
  -31.7410  -20.8215   23.0148 H   0  0  0  0  0  0
  -32.9596  -20.2142   21.8804 H   0  0  0  0  0  0
  -27.5741  -16.4361   17.3328 H   0  0  0  0  0  0
  -29.1976  -16.1868   17.9632 H   0  0  0  0  0  0
  -28.7616  -17.7394   17.2514 H   0  0  0  0  0  0
  -32.2317  -22.0411   20.8615 H   0  0  0  0  0  0
  -31.3237  -23.4875   20.5285 H   0  0  0  0  0  0
  -31.3864  -22.2001   19.3321 H   0  0  0  0  0  0
  -26.1389  -23.0954   21.1579 H   0  0  0  0  0  0
  -26.5671  -24.0491   19.7531 H   0  0  0  0  0  0
  -26.1614  -24.8391   21.2837 H   0  0  0  0  0  0
  -27.8409  -22.6102   22.9377 H   0  0  0  0  0  0
  -27.5492  -24.2960   23.3125 H   0  0  0  0  0  0
  -29.1956  -23.7186   23.1525 H   0  0  0  0  0  0
  -27.1209  -18.1451   19.1005 H   0  0  0  0  0  0
  -27.5031  -16.6092   19.8084 H   0  0  0  0  0  0
  -27.9781  -21.9332   20.4910 H   0  0  0  0  0  0
  -28.9208  -22.8703   19.4109 H   0  0  0  0  0  0
  -29.8170  -25.3935   21.0535 H   0  0  0  0  0  0
  -28.5213  -25.9882   22.0095 H   0  0  0  0  0  0
  -30.0944  -21.9633   22.0809 H   0  0  0  0  0  0
  -28.8569  -15.4706   20.9382 H   0  0  0  0  0  0
  1 25  1  0  0  0
  1 30  2  0  0  0
  1 87  1  0  0  0
  2  3  1  0  0  0
  2 25  1  0  0  0
  2 88  1  0  0  0
  2 89  1  0  0  0
  3  4  1  0  0  0
  3 90  1  0  0  0
  3 91  1  0  0  0
  4  5  1  0  0  0
  4 92  1  0  0  0
  4 93  1  0  0  0
  5  6  1  0  0  0
  5 26  1  0  0  0
  5 94  1  0  0  0
  6 25  1  0  0  0
  6 95  1  0  0  0
  6 96  1  0  0  0
  7  8  2  0  0  0
  7 26  1  0  0  0
  7 29  1  0  0  0
  8  9  1  0  0  0
  8 22  1  0  0  0
  9 10  1  0  0  0
  9 27  2  0  0  0
 10 11  2  0  0  0
 10 15  1  0  0  0
 11 12  1  0  0  0
 11 97  1  0  0  0
 12 13  2  0  0  0
 12 98  1  0  0  0
 13 14  1  0  0  0
 13 31  1  0  0  0
 14 15  2  0  0  0
 14 99  1  0  0  0
 15100  1  0  0  0
 16 17  2  0  0  0
 16 21  1  0  0  0
 16 31  1  0  0  0
 17 18  1  0  0  0
 17101  1  0  0  0
 18 19  2  0  0  0
 18102  1  0  0  0
 19 20  1  0  0  0
 19 24  1  0  0  0
 20 21  2  0  0  0
 20103  1  0  0  0
 21 23  1  0  0  0
 22 28  1  0  0  0
 22 32  2  0  0  0
 26 27  1  0  0  0
 28104  1  0  0  0
 28105  1  0  0  0
 29106  1  0  0  0
 29107  1  0  0  0
 33 34  1  0  0  0
 33 66  1  0  0  0
 33 70  2  0  0  0
 34 36  1  0  0  0
 34 59  1  0  0  0
 34108  1  0  0  0
 35 44  2  0  0  0
 35 45  1  0  0  0
 35 68  1  0  0  0
 36 56  1  0  0  0
 36109  1  0  0  0
 37 39  1  0  0  0
 37 47  1  0  0  0
 37 66  1  0  0  0
 37110  1  0  0  0
 38 43  2  0  0  0
 38 46  1  0  0  0
 38 47  1  0  0  0
 39 64  1  0  0  0
 39 67  2  0  0  0
 40 52  1  0  0  0
 40 53  2  0  0  0
 40 58  1  0  0  0
 41111  1  0  0  0
 41112  1  0  0  0
 41113  1  0  0  0
 41 48  1  0  0  0
 42 43  1  0  0  0
 42 66  1  0  0  0
 42114  1  0  0  0
 42115  1  0  0  0
 43 44  1  0  0  0
 44116  1  0  0  0
 45 46  2  0  0  0
 45117  1  0  0  0
 46118  1  0  0  0
 47119  1  0  0  0
 47120  1  0  0  0
 48 56  1  0  0  0
 48 65  1  0  0  0
 48121  1  0  0  0
 49 50  1  0  0  0
 49 53  1  0  0  0
 49 64  1  0  0  0
 49122  1  0  0  0
 50 51  1  0  0  0
 50123  1  0  0  0
 50124  1  0  0  0
 51 52  1  0  0  0
 51125  1  0  0  0
 51126  1  0  0  0
 52127  1  0  0  0
 52128  1  0  0  0
 53 54  1  0  0  0
 54 55  2  0  0  0
 54129  1  0  0  0
 55 57  1  0  0  0
 55130  1  0  0  0
 56 69  2  0  0  0
 57 58  2  0  0  0
 57131  1  0  0  0
 58132  1  0  0  0
 59 60  1  0  0  0
 59 61  1  0  0  0
 59 62  1  0  0  0
 60133  1  0  0  0
 60134  1  0  0  0
 60135  1  0  0  0
 61136  1  0  0  0
 61137  1  0  0  0
 61138  1  0  0  0
 62139  1  0  0  0
 62140  1  0  0  0
 62141  1  0  0  0
 63 65  1  0  0  0
 63142  1  0  0  0
 63143  1  0  0  0
 63144  1  0  0  0
 64145  1  0  0  0
 65146  1  0  0  0
 68 84  1  0  0  0
 71 73  2  0  0  0
 71 74  1  0  0  0
 71147  1  0  0  0
 72 75  2  0  0  0
 72 76  1  0  0  0
 72148  1  0  0  0
 73 75  1  0  0  0
 73 85  1  0  0  0
 74 76  2  0  0  0
 74 82  1  0  0  0
 75 77  1  0  0  0
 76 87  1  0  0  0
 77149  1  0  0  0
 77150  1  0  0  0
 77151  1  0  0  0
 78 82  1  0  0  0
 78152  1  0  0  0
 78153  1  0  0  0
 78154  1  0  0  0
 79155  1  0  0  0
 79156  1  0  0  0
 79157  1  0  0  0
 79 85  1  0  0  0
 80158  1  0  0  0
 80159  1  0  0  0
 80160  1  0  0  0
 80 86  1  0  0  0
 81 86  1  0  0  0
 81161  1  0  0  0
 81162  1  0  0  0
 81163  1  0  0  0
 82164  1  0  0  0
 82165  1  0  0  0
 83 85  1  0  0  0
 83 86  1  0  0  0
 83166  1  0  0  0
 83167  1  0  0  0
 84 86  1  0  0  0
 84168  1  0  0  0
 84169  1  0  0  0
 85170  1  0  0  0
 87171  1  0  0  0
M  ISO  4   1 100  68 101  84 101  87 100
M  END
> <chiral flag>
0

> <version>
0

> <s_m_source_file>
/data/baiqing/PycharmProjects/Reinvent-master-3.2/result/LINK_invent/BTK/process_docking_weight1_custom_product_contain_oxygen_bond_distance_aromatic_linkinvent_7_9_3/rearranged_h_0139.sdf

> <i_m_source_file_index>
66

> <r_mmod_Potential_Energy-OPLS-2005>
215.68798828125

> <r_mmod_Stretch_Energy-OPLS-2005>
108.557060241699

> <r_mmod_Bend_Energy-OPLS-2005>
206.565933227539

> <r_mmod_Torsional_Energy-OPLS-2005>
280.233062744141

> <r_mmod_Improper_Torsional_Energy-OPLS-2005>
6.51884698867798

> <r_mmod_Van_der_Waal_Energy-OPLS-2005>
137.509033203125

> <r_mmod_Electrostatic_Energy-OPLS-2005>
-390.212585449219

> <r_mmod_Solvation_Energy-OPLS-2005>
-191.278274536133

> <b_mmod_Minimization_Converged-OPLS-2005>
0

> <r_mmod_RMS_Derivative-OPLS-2005>
3.01722741127014

$$$$
66
                    3D
 Structure written by MMmdl.
156164  0  0  1  0            999 V2000
  -30.6168  -14.7923   20.4418 C   0  0  0  0  0  0
  -30.4255  -12.4824   19.4854 C   0  0  0  0  0  0
  -29.5097  -12.5114   18.2424 C   0  0  0  0  0  0
  -28.0380  -12.3285   18.6565 C   0  0  0  0  0  0
  -27.6361  -13.2404   19.8469 C   0  0  2  0  0  0
  -28.6808  -13.2108   20.9846 C   0  0  0  0  0  0
  -25.2483  -13.8210   20.5714 C   0  0  0  0  0  0
  -24.1785  -13.0441   20.9221 C   0  0  0  0  0  0
  -24.6391  -11.6925   20.8753 C   0  0  0  0  0  0
  -23.9073  -10.4295   21.0401 C   0  0  0  0  0  0
  -24.3621   -9.4213   21.9182 C   0  0  0  0  0  0
  -23.6297   -8.2247   22.0755 C   0  0  0  0  0  0
  -22.4282   -8.0279   21.3543 C   0  0  0  0  0  0
  -21.9918   -9.0253   20.4647 C   0  0  0  0  0  0
  -22.7245  -10.2132   20.3052 C   0  0  0  0  0  0
  -21.6854   -6.0734   22.5277 C   0  0  0  0  0  0
  -21.4021   -6.5641   23.8212 C   0  0  0  0  0  0
  -21.3659   -5.6792   24.9174 C   0  0  0  0  0  0
  -21.6043   -4.3055   24.7230 C   0  0  0  0  0  0
  -21.8815   -3.8146   23.4349 C   0  0  0  0  0  0
  -21.9199   -4.6963   22.3405 C   0  0  0  0  0  0
  -22.7808  -13.5213   21.1879 C   0  0  0  0  0  0
  -22.1662   -4.2151   21.0979 F   0  0  0  0  0  0
  -21.5628   -3.4537   25.7739 F   0  0  0  0  0  0
  -29.9764  -13.5675   20.3946 N   0  0  0  0  0  0
  -26.2910  -12.9433   20.3278 N   0  0  0  0  0  0
  -25.9324  -11.6563   20.5755 N   0  0  0  0  0  0
  -22.0458  -12.8197   22.0431 N   0  0  0  0  0  0
  -25.4149  -15.1939   20.4117 N   0  0  0  0  0  0
  -31.8133  -14.8231   20.1438 O   0  0  0  0  0  0
  -21.6644   -6.8882   21.4239 O   0  0  0  0  0  0
  -22.3494  -14.5520   20.6731 O   0  0  0  0  0  0
  -24.6347  -31.8534   23.1951 C   0  0  0  0  0  0
  -25.9156  -32.4748   23.8317 C   0  0  1  0  0  0
  -27.2217  -27.2338   20.1434 C   0  0  0  0  0  0
  -25.5946  -33.8550   24.2251 N   0  0  0  0  0  0
  -23.4343  -30.4720   21.5386 C   0  0  2  0  0  0
  -24.8877  -28.9172   20.1092 C   0  0  0  0  0  0
  -22.7532  -29.4578   22.4891 C   0  0  0  0  0  0
  -18.0306  -28.1391   22.8496 C   0  0  0  0  0  0
  -24.1482  -36.7262   23.2638 C   0  0  0  0  0  0
  -25.9830  -30.7573   21.3830 C   0  0  0  0  0  0
  -26.0609  -29.3772   20.7246 C   0  0  0  0  0  0
  -27.2340  -28.5475   20.7321 C   0  0  0  0  0  0
  -26.0303  -26.8496   19.4954 C   0  0  0  0  0  0
  -24.8796  -27.6623   19.4817 C   0  0  0  0  0  0
  -23.6577  -29.8049   20.1560 C   0  0  0  0  0  0
  -25.4108  -36.3066   24.0330 C   0  0  1  0  0  0
  -20.5912  -28.3709   23.1258 C   0  0  2  0  0  0
  -20.6781  -26.9423   22.5404 C   0  0  0  0  0  0
  -19.5749  -26.6392   21.5210 C   0  0  0  0  0  0
  -18.1938  -26.7936   22.1632 C   0  0  0  0  0  0
  -19.1560  -28.8872   23.2869 C   0  0  0  0  0  0
  -18.9475  -30.1472   23.8885 C   0  0  0  0  0  0
  -17.6471  -30.6586   24.0567 C   0  0  0  0  0  0
  -25.9055  -34.9437   23.5092 C   0  0  0  0  0  0
  -16.5363  -29.9077   23.6344 C   0  0  0  0  0  0
  -16.7292  -28.6495   23.0369 C   0  0  0  0  0  0
  -26.4502  -31.6583   25.0722 C   0  0  0  0  0  0
  -25.3713  -31.3743   26.1437 C   0  0  0  0  0  0
  -27.0356  -30.2995   24.6236 C   0  0  0  0  0  0
  -27.6048  -32.4330   25.7498 C   0  0  0  0  0  0
  -27.5574  -37.1782   24.8464 C   0  0  0  0  0  0
  -21.4235  -29.3028   22.3618 N   0  0  0  0  0  0
  -26.4280  -37.3769   23.9422 N   0  0  0  0  0  0
  -24.7025  -31.0465   22.0946 N   0  0  0  0  0  0
  -23.4212  -28.8133   23.3019 O   0  0  0  0  0  0
  -28.2396  -26.2457   20.2092 O   0  0  0  0  0  0
  -26.5627  -34.8916   22.4663 O   0  0  0  0  0  0
  -23.5485  -32.1374   23.7215 O   0  0  0  0  0  0
  -29.3028  -18.5741   20.5536 C   0  0  0  0  0  0
  -31.5807  -17.8156   20.2457 C   0  0  0  0  0  0
  -31.0500  -20.2210   20.1697 C   0  0  0  0  0  0
  -30.2341  -17.4370   20.4738 C   0  0  0  0  0  0
  -29.6801  -19.9901   20.4062 C   0  0  0  0  0  0
  -31.9750  -19.1608   20.0944 C   0  0  0  0  0  0
  -27.9388  -25.1142   21.0285 C   0  0  0  0  0  0
  -28.2101  -23.7340   21.1149 C   0  0  0  0  0  0
  -26.1768  -22.4942   22.0410 C   0  0  0  0  0  0
  -27.5708  -23.0700   22.3357 C   0  0  0  0  0  0
  -29.0366  -22.6452   20.2702 C   0  0  0  0  0  0
  -29.8728  -15.9725   20.6152 N   0  0  0  0  0  0
  -28.7752  -21.1384   20.4941 N   0  0  0  0  0  0
  -33.2824  -19.4409   19.8750 F   0  0  0  0  0  0
  -31.4676  -12.5932   19.1823 H   0  0  0  0  0  0
  -30.3654  -11.5150   19.9865 H   0  0  0  0  0  0
  -29.8006  -11.7316   17.5370 H   0  0  0  0  0  0
  -29.6309  -13.4608   17.7177 H   0  0  0  0  0  0
  -27.9042  -11.2822   18.9328 H   0  0  0  0  0  0
  -27.3794  -12.5045   17.8053 H   0  0  0  0  0  0
  -27.6198  -14.2556   19.4497 H   0  0  0  0  0  0
  -28.7267  -12.2247   21.4489 H   0  0  0  0  0  0
  -28.4098  -13.9110   21.7764 H   0  0  0  0  0  0
  -25.2761   -9.5694   22.4765 H   0  0  0  0  0  0
  -24.0007   -7.4642   22.7471 H   0  0  0  0  0  0
  -21.0854   -8.8770   19.8950 H   0  0  0  0  0  0
  -22.3700  -10.9671   19.6166 H   0  0  0  0  0  0
  -21.2010   -7.6150   23.9719 H   0  0  0  0  0  0
  -21.1482   -6.0522   25.9080 H   0  0  0  0  0  0
  -22.0596   -2.7610   23.2847 H   0  0  0  0  0  0
  -22.4080  -11.9852   22.4806 H   0  0  0  0  0  0
  -21.1075  -13.1212   22.2637 H   0  0  0  0  0  0
  -24.6417  -15.8418   20.5162 H   0  0  0  0  0  0
  -26.2524  -15.6343   20.0537 H   0  0  0  0  0  0
  -26.7227  -32.5401   23.1061 H   0  0  0  0  0  0
  -25.0089  -33.9683   25.0394 H   0  0  0  0  0  0
  -22.7318  -31.2946   21.3887 H   0  0  0  0  0  0
  -23.3759  -35.9581   23.3302 H   0  0  0  0  0  0
  -24.3562  -36.8875   22.2049 H   0  0  0  0  0  0
  -23.7215  -37.6450   23.6665 H   0  0  0  0  0  0
  -26.1290  -31.5174   20.6141 H   0  0  0  0  0  0
  -26.8558  -30.8068   22.0230 H   0  0  0  0  0  0
  -28.1275  -28.8839   21.2394 H   0  0  0  0  0  0
  -25.9801  -25.8741   19.0326 H   0  0  0  0  0  0
  -23.9829  -27.3010   18.9972 H   0  0  0  0  0  0
  -23.7820  -30.5799   19.3985 H   0  0  0  0  0  0
  -22.7783  -29.2360   19.8491 H   0  0  0  0  0  0
  -25.1292  -36.1900   25.0822 H   0  0  0  0  0  0
  -21.0018  -28.3285   24.1379 H   0  0  0  0  0  0
  -20.5677  -26.2317   23.3604 H   0  0  0  0  0  0
  -21.6644  -26.7423   22.1204 H   0  0  0  0  0  0
  -19.6900  -25.6306   21.1235 H   0  0  0  0  0  0
  -19.6682  -27.3193   20.6732 H   0  0  0  0  0  0
  -17.4205  -26.6701   21.4033 H   0  0  0  0  0  0
  -18.0340  -26.0062   22.9011 H   0  0  0  0  0  0
  -19.7946  -30.7298   24.2237 H   0  0  0  0  0  0
  -17.5022  -31.6268   24.5157 H   0  0  0  0  0  0
  -15.5364  -30.2977   23.7671 H   0  0  0  0  0  0
  -15.8693  -28.0802   22.7112 H   0  0  0  0  0  0
  -24.5909  -30.7069   25.7760 H   0  0  0  0  0  0
  -24.8879  -32.2916   26.4817 H   0  0  0  0  0  0
  -25.8029  -30.8957   27.0237 H   0  0  0  0  0  0
  -26.2957  -29.6735   24.1241 H   0  0  0  0  0  0
  -27.3992  -29.7271   25.4774 H   0  0  0  0  0  0
  -27.8853  -30.4243   23.9522 H   0  0  0  0  0  0
  -27.2657  -33.3638   26.2051 H   0  0  0  0  0  0
  -28.3875  -32.6869   25.0342 H   0  0  0  0  0  0
  -28.0703  -31.8471   26.5429 H   0  0  0  0  0  0
  -28.2582  -38.0088   24.7548 H   0  0  0  0  0  0
  -28.1085  -36.2627   24.6260 H   0  0  0  0  0  0
  -27.2303  -37.1389   25.8867 H   0  0  0  0  0  0
  -20.9437  -29.8729   21.6791 H   0  0  0  0  0  0
  -26.0157  -38.2834   24.1455 H   0  0  0  0  0  0
  -28.2606  -18.3526   20.7341 H   0  0  0  0  0  0
  -32.3704  -17.0871   20.1781 H   0  0  0  0  0  0
  -31.4275  -21.2235   20.0429 H   0  0  0  0  0  0
  -27.3105  -25.4938   21.8244 H   0  0  0  0  0  0
  -25.7209  -22.1070   22.9522 H   0  0  0  0  0  0
  -26.2137  -21.6797   21.3188 H   0  0  0  0  0  0
  -25.5100  -23.2602   21.6420 H   0  0  0  0  0  0
  -27.4710  -23.7976   23.1429 H   0  0  0  0  0  0
  -28.2339  -22.3079   22.7469 H   0  0  0  0  0  0
  -30.0852  -22.8468   20.4865 H   0  0  0  0  0  0
  -28.9041  -22.8717   19.2117 H   0  0  0  0  0  0
  -28.8997  -15.7947   20.8159 H   0  0  0  0  0  0
  -27.7930  -20.9097   20.6198 H   0  0  0  0  0  0
  1 25  1  0  0  0
  1 30  2  0  0  0
  1 82  1  0  0  0
  2  3  1  0  0  0
  2 25  1  0  0  0
  2 85  1  0  0  0
  2 86  1  0  0  0
  3  4  1  0  0  0
  3 87  1  0  0  0
  3 88  1  0  0  0
  4  5  1  0  0  0
  4 89  1  0  0  0
  4 90  1  0  0  0
  5  6  1  0  0  0
  5 26  1  0  0  0
  5 91  1  0  0  0
  6 25  1  0  0  0
  6 92  1  0  0  0
  6 93  1  0  0  0
  7  8  2  0  0  0
  7 26  1  0  0  0
  7 29  1  0  0  0
  8  9  1  0  0  0
  8 22  1  0  0  0
  9 10  1  0  0  0
  9 27  2  0  0  0
 10 11  2  0  0  0
 10 15  1  0  0  0
 11 12  1  0  0  0
 11 94  1  0  0  0
 12 13  2  0  0  0
 12 95  1  0  0  0
 13 14  1  0  0  0
 13 31  1  0  0  0
 14 15  2  0  0  0
 14 96  1  0  0  0
 15 97  1  0  0  0
 16 17  2  0  0  0
 16 21  1  0  0  0
 16 31  1  0  0  0
 17 18  1  0  0  0
 17 98  1  0  0  0
 18 19  2  0  0  0
 18 99  1  0  0  0
 19 20  1  0  0  0
 19 24  1  0  0  0
 20 21  2  0  0  0
 20100  1  0  0  0
 21 23  1  0  0  0
 22 28  1  0  0  0
 22 32  2  0  0  0
 26 27  1  0  0  0
 28101  1  0  0  0
 28102  1  0  0  0
 29103  1  0  0  0
 29104  1  0  0  0
 33 34  1  0  0  0
 33 66  1  0  0  0
 33 70  2  0  0  0
 34 36  1  0  0  0
 34 59  1  0  0  0
 34105  1  0  0  0
 35 44  2  0  0  0
 35 45  1  0  0  0
 35 68  1  0  0  0
 36 56  1  0  0  0
 36106  1  0  0  0
 37 39  1  0  0  0
 37 47  1  0  0  0
 37 66  1  0  0  0
 37107  1  0  0  0
 38 43  2  0  0  0
 38 46  1  0  0  0
 38 47  1  0  0  0
 39 64  1  0  0  0
 39 67  2  0  0  0
 40 52  1  0  0  0
 40 53  2  0  0  0
 40 58  1  0  0  0
 41108  1  0  0  0
 41109  1  0  0  0
 41110  1  0  0  0
 41 48  1  0  0  0
 42 43  1  0  0  0
 42 66  1  0  0  0
 42111  1  0  0  0
 42112  1  0  0  0
 43 44  1  0  0  0
 44113  1  0  0  0
 45 46  2  0  0  0
 45114  1  0  0  0
 46115  1  0  0  0
 47116  1  0  0  0
 47117  1  0  0  0
 48 56  1  0  0  0
 48 65  1  0  0  0
 48118  1  0  0  0
 49 50  1  0  0  0
 49 53  1  0  0  0
 49 64  1  0  0  0
 49119  1  0  0  0
 50 51  1  0  0  0
 50120  1  0  0  0
 50121  1  0  0  0
 51 52  1  0  0  0
 51122  1  0  0  0
 51123  1  0  0  0
 52124  1  0  0  0
 52125  1  0  0  0
 53 54  1  0  0  0
 54 55  2  0  0  0
 54126  1  0  0  0
 55 57  1  0  0  0
 55127  1  0  0  0
 56 69  2  0  0  0
 57 58  2  0  0  0
 57128  1  0  0  0
 58129  1  0  0  0
 59 60  1  0  0  0
 59 61  1  0  0  0
 59 62  1  0  0  0
 60130  1  0  0  0
 60131  1  0  0  0
 60132  1  0  0  0
 61133  1  0  0  0
 61134  1  0  0  0
 61135  1  0  0  0
 62136  1  0  0  0
 62137  1  0  0  0
 62138  1  0  0  0
 63 65  1  0  0  0
 63139  1  0  0  0
 63140  1  0  0  0
 63141  1  0  0  0
 64142  1  0  0  0
 65143  1  0  0  0
 68 77  1  0  0  0
 71 74  2  0  0  0
 71 75  1  0  0  0
 71144  1  0  0  0
 72 74  1  0  0  0
 72 76  2  0  0  0
 72145  1  0  0  0
 73 75  2  0  0  0
 73 76  1  0  0  0
 73146  1  0  0  0
 74 82  1  0  0  0
 75 83  1  0  0  0
 76 84  1  0  0  0
 77 78  2  0  0  0
 77147  1  0  0  0
 78 80  1  0  0  0
 78 81  1  0  0  0
 79 80  1  0  0  0
 79148  1  0  0  0
 79149  1  0  0  0
 79150  1  0  0  0
 80151  1  0  0  0
 80152  1  0  0  0
 81 83  1  0  0  0
 81153  1  0  0  0
 81154  1  0  0  0
 82155  1  0  0  0
 83156  1  0  0  0
M  ISO  4   1 100  68 101  77 101  82 100
M  END
> <chiral flag>
0

> <version>
0

> <s_m_source_file>
/data/baiqing/PycharmProjects/Reinvent-master-3.2/result/LINK_invent/BTK/process_docking_weight1_custom_product_contain_oxygen_bond_distance_aromatic_linkinvent_7_9_3/rearranged_h_0139.sdf

> <i_m_source_file_index>
67

> <r_mmod_Potential_Energy-OPLS-2005>
357.438995361328

> <r_mmod_Stretch_Energy-OPLS-2005>
155.539154052734

> <r_mmod_Bend_Energy-OPLS-2005>
238.453491210938

> <r_mmod_Torsional_Energy-OPLS-2005>
215.54313659668

> <r_mmod_Improper_Torsional_Energy-OPLS-2005>
4.95241832733154

> <r_mmod_Van_der_Waal_Energy-OPLS-2005>
147.643737792969

> <r_mmod_Electrostatic_Energy-OPLS-2005>
-317.153472900391

> <r_mmod_Solvation_Energy-OPLS-2005>
-201.842529296875

> <b_mmod_Minimization_Converged-OPLS-2005>
0

> <r_mmod_RMS_Derivative-OPLS-2005>
1.75878322124481

$$$$
67
                    3D
 Structure written by MMmdl.
168176  0  0  1  0            999 V2000
  -30.5535  -14.4652   20.5683 C   0  0  0  0  0  0
  -30.4309  -12.2999   19.3941 C   0  0  0  0  0  0
  -29.4881  -12.5145   18.1859 C   0  0  0  0  0  0
  -28.0019  -12.3743   18.5878 C   0  0  0  0  0  0
  -27.6619  -13.1716   19.8751 C   0  0  2  0  0  0
  -28.6927  -12.8440   20.9733 C   0  0  0  0  0  0
  -25.2632  -13.8120   20.5594 C   0  0  0  0  0  0
  -24.1821  -13.0416   20.9148 C   0  0  0  0  0  0
  -24.6378  -11.6887   20.8751 C   0  0  0  0  0  0
  -23.9041  -10.4289   21.0391 C   0  0  0  0  0  0
  -24.3603   -9.4227   21.9176 C   0  0  0  0  0  0
  -23.6311   -8.2247   22.0751 C   0  0  0  0  0  0
  -22.4246   -8.0299   21.3574 C   0  0  0  0  0  0
  -21.9890   -9.0254   20.4627 C   0  0  0  0  0  0
  -22.7211  -10.2139   20.3055 C   0  0  0  0  0  0
  -21.6850   -6.0714   22.5290 C   0  0  0  0  0  0
  -21.4000   -6.5641   23.8211 C   0  0  0  0  0  0
  -21.3653   -5.6803   24.9177 C   0  0  0  0  0  0
  -21.6047   -4.3069   24.7227 C   0  0  0  0  0  0
  -21.8817   -3.8154   23.4354 C   0  0  0  0  0  0
  -21.9191   -4.6956   22.3407 C   0  0  0  0  0  0
  -22.7859  -13.5258   21.1766 C   0  0  0  0  0  0
  -22.1665   -4.2172   21.0987 F   0  0  0  0  0  0
  -21.5622   -3.4532   25.7734 F   0  0  0  0  0  0
  -30.0192  -13.2242   20.4531 N   0  0  0  0  0  0
  -26.3011  -12.9195   20.3273 N   0  0  0  0  0  0
  -25.9268  -11.6389   20.5689 N   0  0  0  0  0  0
  -22.0551  -12.8261   22.0403 N   0  0  0  0  0  0
  -25.4352  -15.1808   20.3871 N   0  0  0  0  0  0
  -31.6198  -14.8010   20.0391 O   0  0  0  0  0  0
  -21.6627   -6.8851   21.4239 O   0  0  0  0  0  0
  -22.3545  -14.5602   20.6652 O   0  0  0  0  0  0
  -24.6230  -31.8753   23.2210 C   0  0  0  0  0  0
  -25.9079  -32.4886   23.8451 C   0  0  1  0  0  0
  -27.0845  -27.3533   20.0826 C   0  0  0  0  0  0
  -25.5950  -33.8670   24.2427 N   0  0  0  0  0  0
  -23.4047  -30.5253   21.5601 C   0  0  2  0  0  0
  -24.8322  -29.0369   20.0718 C   0  0  0  0  0  0
  -22.7243  -29.4851   22.4879 C   0  0  0  0  0  0
  -18.0069  -28.1547   22.8474 C   0  0  0  0  0  0
  -24.1470  -36.7319   23.2637 C   0  0  0  0  0  0
  -25.9445  -30.8002   21.4021 C   0  0  0  0  0  0
  -25.9904  -29.4534   20.7310 C   0  0  0  0  0  0
  -27.1318  -28.6025   20.7572 C   0  0  0  0  0  0
  -25.9844  -27.0959   19.2580 C   0  0  0  0  0  0
  -24.8376  -27.8738   19.3034 C   0  0  0  0  0  0
  -23.6069  -29.9075   20.1553 C   0  0  0  0  0  0
  -25.4098  -36.3120   24.0336 C   0  0  1  0  0  0
  -20.5686  -28.3929   23.1324 C   0  0  2  0  0  0
  -20.6431  -26.9673   22.5219 C   0  0  0  0  0  0
  -19.5459  -26.6987   21.4979 C   0  0  0  0  0  0
  -18.1718  -26.8041   22.1655 C   0  0  0  0  0  0
  -19.1331  -28.8904   23.3005 C   0  0  0  0  0  0
  -18.9224  -30.1439   23.9082 C   0  0  0  0  0  0
  -17.6206  -30.6550   24.0804 C   0  0  0  0  0  0
  -25.9009  -34.9515   23.5169 C   0  0  0  0  0  0
  -16.5062  -29.9240   23.6285 C   0  0  0  0  0  0
  -16.7059  -28.6833   23.0077 C   0  0  0  0  0  0
  -26.4439  -31.6630   25.0842 C   0  0  0  0  0  0
  -25.3655  -31.3761   26.1607 C   0  0  0  0  0  0
  -27.0264  -30.3034   24.6302 C   0  0  0  0  0  0
  -27.5989  -32.4347   25.7567 C   0  0  0  0  0  0
  -27.5593  -37.1832   24.8480 C   0  0  0  0  0  0
  -21.3917  -29.3446   22.3753 N   0  0  0  0  0  0
  -26.4307  -37.3837   23.9395 N   0  0  0  0  0  0
  -24.6758  -31.0820   22.1157 N   0  0  0  0  0  0
  -23.4018  -28.8019   23.2683 O   0  0  0  0  0  0
  -28.0021  -26.3432   20.3088 O   0  0  0  0  0  0
  -26.5561  -34.8956   22.4738 O   0  0  0  0  0  0
  -23.5425  -32.1466   23.7572 O   0  0  0  0  0  0
  -28.9395  -17.3726   22.1582 C   0  0  0  0  0  0
  -28.9078  -17.1106   19.7552 C   0  0  0  0  0  0
  -28.4251  -18.6884   22.0783 C   0  0  0  0  0  0
  -29.2480  -16.5960   21.0284 C   0  0  0  0  0  0
  -28.1882  -19.2642   20.7844 C   0  0  0  0  0  0
  -28.3860  -18.4340   19.6449 C   0  0  0  0  0  0
  -27.2798  -20.3826   23.7431 C   0  0  0  0  0  0
  -25.0446  -24.8236   20.8380 C   0  0  0  0  0  0
  -25.8430  -23.4974   18.9381 C   0  0  0  0  0  0
  -28.3391  -19.3337   23.4780 C   0  0  0  0  0  0
  -26.5908  -21.2405   20.6918 C   0  0  0  0  0  0
  -27.6605  -24.9253   20.0192 C   0  0  0  0  0  0
  -26.5797  -22.7349   21.2396 C   0  0  1  0  0  0
  -26.3096  -24.0339   20.3072 C   0  0  0  0  0  0
  -29.7838  -15.2992   21.3014 N   0  0  0  0  0  0
  -27.9213  -20.6393   20.4971 N   0  0  0  0  0  0
  -25.5675  -22.6507   22.2301 O   0  0  0  0  0  0
  -28.1434  -18.9423   18.4176 F   0  0  0  0  0  0
  -31.4714  -12.4544   19.1018 H   0  0  0  0  0  0
  -30.3767  -11.2647   19.7457 H   0  0  0  0  0  0
  -29.7185  -11.8035   17.3929 H   0  0  0  0  0  0
  -29.6585  -13.5037   17.7608 H   0  0  0  0  0  0
  -27.7906  -11.3137   18.7441 H   0  0  0  0  0  0
  -27.3576  -12.6911   17.7640 H   0  0  0  0  0  0
  -27.7323  -14.2267   19.6252 H   0  0  0  0  0  0
  -28.6740  -11.7679   21.1774 H   0  0  0  0  0  0
  -28.4353  -13.3018   21.9284 H   0  0  0  0  0  0
  -25.2706   -9.5685   22.4764 H   0  0  0  0  0  0
  -24.0004   -7.4601   22.7478 H   0  0  0  0  0  0
  -21.0799   -8.8728   19.8953 H   0  0  0  0  0  0
  -22.3627  -10.9655   19.6191 H   0  0  0  0  0  0
  -21.1994   -7.6149   23.9726 H   0  0  0  0  0  0
  -21.1473   -6.0521   25.9079 H   0  0  0  0  0  0
  -22.0603   -2.7628   23.2836 H   0  0  0  0  0  0
  -22.4143  -11.9916   22.4754 H   0  0  0  0  0  0
  -21.1197  -13.1318   22.2610 H   0  0  0  0  0  0
  -24.6601  -15.8304   20.4460 H   0  0  0  0  0  0
  -26.2807  -15.6063   20.0289 H   0  0  0  0  0  0
  -26.7224  -32.5549   23.1271 H   0  0  0  0  0  0
  -25.0128  -33.9802   25.0578 H   0  0  0  0  0  0
  -22.7138  -31.3684   21.4485 H   0  0  0  0  0  0
  -23.3773  -35.9635   23.3288 H   0  0  0  0  0  0
  -24.3595  -36.8921   22.2072 H   0  0  0  0  0  0
  -23.7174  -37.6517   23.6637 H   0  0  0  0  0  0
  -26.0999  -31.5607   20.6356 H   0  0  0  0  0  0
  -26.8272  -30.8289   22.0100 H   0  0  0  0  0  0
  -27.9887  -28.8684   21.3472 H   0  0  0  0  0  0
  -25.9497  -26.2350   18.6171 H   0  0  0  0  0  0
  -23.9738  -27.6049   18.7065 H   0  0  0  0  0  0
  -23.6794  -30.7065   19.4138 H   0  0  0  0  0  0
  -22.7351  -29.3266   19.8817 H   0  0  0  0  0  0
  -25.1256  -36.2049   25.0840 H   0  0  0  0  0  0
  -20.9907  -28.3509   24.1409 H   0  0  0  0  0  0
  -20.4832  -26.2470   23.3260 H   0  0  0  0  0  0
  -21.6352  -26.7689   22.1114 H   0  0  0  0  0  0
  -19.6713  -25.7129   21.0503 H   0  0  0  0  0  0
  -19.6145  -27.4476   20.6995 H   0  0  0  0  0  0
  -17.3638  -26.6086   21.4495 H   0  0  0  0  0  0
  -18.0839  -26.0264   22.9284 H   0  0  0  0  0  0
  -19.7570  -30.7372   24.2537 H   0  0  0  0  0  0
  -17.4708  -31.6023   24.5781 H   0  0  0  0  0  0
  -15.5109  -30.3260   23.7617 H   0  0  0  0  0  0
  -15.8312  -28.1499   22.6624 H   0  0  0  0  0  0
  -24.5897  -30.7028   25.8018 H   0  0  0  0  0  0
  -24.8809  -32.2928   26.4968 H   0  0  0  0  0  0
  -25.8024  -30.9074   27.0429 H   0  0  0  0  0  0
  -26.2881  -29.6861   24.1243 H   0  0  0  0  0  0
  -27.3856  -29.7262   25.4817 H   0  0  0  0  0  0
  -27.8786  -30.4365   23.9645 H   0  0  0  0  0  0
  -27.2648  -33.3715   26.2056 H   0  0  0  0  0  0
  -28.3831  -32.6775   25.0373 H   0  0  0  0  0  0
  -28.0639  -31.8523   26.5555 H   0  0  0  0  0  0
  -28.2606  -38.0123   24.7539 H   0  0  0  0  0  0
  -28.1063  -36.2658   24.6275 H   0  0  0  0  0  0
  -27.2311  -37.1478   25.8882 H   0  0  0  0  0  0
  -20.9021  -30.0094   21.7846 H   0  0  0  0  0  0
  -26.0184  -38.2919   24.1421 H   0  0  0  0  0  0
  -29.1845  -16.9623   23.1331 H   0  0  0  0  0  0
  -29.0673  -16.5362   18.8541 H   0  0  0  0  0  0
  -27.2468  -20.6146   24.8003 H   0  0  0  0  0  0
  -26.2820  -20.0501   23.4572 H   0  0  0  0  0  0
  -27.5411  -21.3089   23.2470 H   0  0  0  0  0  0
  -24.5574  -25.3892   20.0559 H   0  0  0  0  0  0
  -25.2895  -25.5407   21.6140 H   0  0  0  0  0  0
  -24.1962  -24.2160   21.1645 H   0  0  0  0  0  0
  -25.6345  -24.2782   18.2167 H   0  0  0  0  0  0
  -24.9122  -22.9248   19.0308 H   0  0  0  0  0  0
  -26.6164  -22.8613   18.4849 H   0  0  0  0  0  0
  -29.3221  -19.7302   23.7441 H   0  0  0  0  0  0
  -28.1634  -18.5457   24.2210 H   0  0  0  0  0  0
  -26.0187  -21.1712   19.7644 H   0  0  0  0  0  0
  -26.0492  -20.5749   21.3638 H   0  0  0  0  0  0
  -27.9410  -24.8136   18.9703 H   0  0  0  0  0  0
  -28.4617  -24.4128   20.5490 H   0  0  0  0  0  0
  -27.5286  -22.8855   21.7599 H   0  0  0  0  0  0
  -29.2409  -14.8171   22.0091 H   0  0  0  0  0  0
  -28.1847  -20.7971   19.5242 H   0  0  0  0  0  0
  -24.7485  -22.4594   21.7682 H   0  0  0  0  0  0
  1 25  1  0  0  0
  1 30  2  0  0  0
  1 85  1  0  0  0
  2  3  1  0  0  0
  2 25  1  0  0  0
  2 89  1  0  0  0
  2 90  1  0  0  0
  3  4  1  0  0  0
  3 91  1  0  0  0
  3 92  1  0  0  0
  4  5  1  0  0  0
  4 93  1  0  0  0
  4 94  1  0  0  0
  5  6  1  0  0  0
  5 26  1  0  0  0
  5 95  1  0  0  0
  6 25  1  0  0  0
  6 96  1  0  0  0
  6 97  1  0  0  0
  7  8  2  0  0  0
  7 26  1  0  0  0
  7 29  1  0  0  0
  8  9  1  0  0  0
  8 22  1  0  0  0
  9 10  1  0  0  0
  9 27  2  0  0  0
 10 11  2  0  0  0
 10 15  1  0  0  0
 11 12  1  0  0  0
 11 98  1  0  0  0
 12 13  2  0  0  0
 12 99  1  0  0  0
 13 14  1  0  0  0
 13 31  1  0  0  0
 14 15  2  0  0  0
 14100  1  0  0  0
 15101  1  0  0  0
 16 17  2  0  0  0
 16 21  1  0  0  0
 16 31  1  0  0  0
 17 18  1  0  0  0
 17102  1  0  0  0
 18 19  2  0  0  0
 18103  1  0  0  0
 19 20  1  0  0  0
 19 24  1  0  0  0
 20 21  2  0  0  0
 20104  1  0  0  0
 21 23  1  0  0  0
 22 28  1  0  0  0
 22 32  2  0  0  0
 26 27  1  0  0  0
 28105  1  0  0  0
 28106  1  0  0  0
 29107  1  0  0  0
 29108  1  0  0  0
 33 34  1  0  0  0
 33 66  1  0  0  0
 33 70  2  0  0  0
 34 36  1  0  0  0
 34 59  1  0  0  0
 34109  1  0  0  0
 35 44  2  0  0  0
 35 45  1  0  0  0
 35 68  1  0  0  0
 36 56  1  0  0  0
 36110  1  0  0  0
 37 39  1  0  0  0
 37 47  1  0  0  0
 37 66  1  0  0  0
 37111  1  0  0  0
 38 43  2  0  0  0
 38 46  1  0  0  0
 38 47  1  0  0  0
 39 64  1  0  0  0
 39 67  2  0  0  0
 40 52  1  0  0  0
 40 53  2  0  0  0
 40 58  1  0  0  0
 41112  1  0  0  0
 41113  1  0  0  0
 41114  1  0  0  0
 41 48  1  0  0  0
 42 43  1  0  0  0
 42 66  1  0  0  0
 42115  1  0  0  0
 42116  1  0  0  0
 43 44  1  0  0  0
 44117  1  0  0  0
 45 46  2  0  0  0
 45118  1  0  0  0
 46119  1  0  0  0
 47120  1  0  0  0
 47121  1  0  0  0
 48 56  1  0  0  0
 48 65  1  0  0  0
 48122  1  0  0  0
 49 50  1  0  0  0
 49 53  1  0  0  0
 49 64  1  0  0  0
 49123  1  0  0  0
 50 51  1  0  0  0
 50124  1  0  0  0
 50125  1  0  0  0
 51 52  1  0  0  0
 51126  1  0  0  0
 51127  1  0  0  0
 52128  1  0  0  0
 52129  1  0  0  0
 53 54  1  0  0  0
 54 55  2  0  0  0
 54130  1  0  0  0
 55 57  1  0  0  0
 55131  1  0  0  0
 56 69  2  0  0  0
 57 58  2  0  0  0
 57132  1  0  0  0
 58133  1  0  0  0
 59 60  1  0  0  0
 59 61  1  0  0  0
 59 62  1  0  0  0
 60134  1  0  0  0
 60135  1  0  0  0
 60136  1  0  0  0
 61137  1  0  0  0
 61138  1  0  0  0
 61139  1  0  0  0
 62140  1  0  0  0
 62141  1  0  0  0
 62142  1  0  0  0
 63 65  1  0  0  0
 63143  1  0  0  0
 63144  1  0  0  0
 63145  1  0  0  0
 64146  1  0  0  0
 65147  1  0  0  0
 68 82  1  0  0  0
 71 73  2  0  0  0
 71 74  1  0  0  0
 71148  1  0  0  0
 72 74  2  0  0  0
 72 76  1  0  0  0
 72149  1  0  0  0
 73 75  1  0  0  0
 73 80  1  0  0  0
 74 85  1  0  0  0
 75 76  2  0  0  0
 75 86  1  0  0  0
 76 88  1  0  0  0
 77 80  1  0  0  0
 77150  1  0  0  0
 77151  1  0  0  0
 77152  1  0  0  0
 78153  1  0  0  0
 78154  1  0  0  0
 78155  1  0  0  0
 78 84  1  0  0  0
 79 84  1  0  0  0
 79156  1  0  0  0
 79157  1  0  0  0
 79158  1  0  0  0
 80159  1  0  0  0
 80160  1  0  0  0
 81 83  1  0  0  0
 81 86  1  0  0  0
 81161  1  0  0  0
 81162  1  0  0  0
 82 84  1  0  0  0
 82163  1  0  0  0
 82164  1  0  0  0
 83 84  1  0  0  0
 83 87  1  0  0  0
 83165  1  0  0  0
 85166  1  0  0  0
 86167  1  0  0  0
 87168  1  0  0  0
M  ISO  4   1 100  68 101  82 101  85 100
M  END
> <chiral flag>
0

> <version>
0

> <s_m_source_file>
/data/baiqing/PycharmProjects/Reinvent-master-3.2/result/LINK_invent/BTK/process_docking_weight1_custom_product_contain_oxygen_bond_distance_aromatic_linkinvent_7_9_3/rearranged_h_0139.sdf

> <i_m_source_file_index>
68

> <r_mmod_Potential_Energy-OPLS-2005>
348.323394775391

> <r_mmod_Stretch_Energy-OPLS-2005>
86.2285995483398

> <r_mmod_Bend_Energy-OPLS-2005>
232.153030395508

> <r_mmod_Torsional_Energy-OPLS-2005>
328.007354736328

> <r_mmod_Improper_Torsional_Energy-OPLS-2005>
12.6217765808105

> <r_mmod_Van_der_Waal_Energy-OPLS-2005>
202.518646240234

> <r_mmod_Electrostatic_Energy-OPLS-2005>
-382.03125

> <r_mmod_Solvation_Energy-OPLS-2005>
-220.624313354492

> <b_mmod_Minimization_Converged-OPLS-2005>
0

> <r_mmod_RMS_Derivative-OPLS-2005>
19.3517532348633

$$$$
68
                    3D
 Structure written by MMmdl.
165174  0  0  1  0            999 V2000
  -30.7041  -14.4014   20.6415 C   0  0  0  0  0  0
  -30.4309  -12.2895   19.3873 C   0  0  0  0  0  0
  -29.4931  -12.5300   18.1854 C   0  0  0  0  0  0
  -28.0129  -12.3852   18.5958 C   0  0  0  0  0  0
  -27.6698  -13.1906   19.8755 C   0  0  2  0  0  0
  -28.7081  -12.8975   20.9811 C   0  0  0  0  0  0
  -25.2637  -13.8142   20.5632 C   0  0  0  0  0  0
  -24.1874  -13.0448   20.9171 C   0  0  0  0  0  0
  -24.6387  -11.6899   20.8715 C   0  0  0  0  0  0
  -23.9042  -10.4291   21.0390 C   0  0  0  0  0  0
  -24.3598   -9.4217   21.9177 C   0  0  0  0  0  0
  -23.6275   -8.2259   22.0771 C   0  0  0  0  0  0
  -22.4254   -8.0292   21.3561 C   0  0  0  0  0  0
  -21.9878   -9.0258   20.4662 C   0  0  0  0  0  0
  -22.7214  -10.2127   20.3056 C   0  0  0  0  0  0
  -21.6853   -6.0730   22.5274 C   0  0  0  0  0  0
  -21.4016   -6.5634   23.8207 C   0  0  0  0  0  0
  -21.3666   -5.6789   24.9173 C   0  0  0  0  0  0
  -21.6043   -4.3050   24.7218 C   0  0  0  0  0  0
  -21.8820   -3.8139   23.4338 C   0  0  0  0  0  0
  -21.9191   -4.6959   22.3394 C   0  0  0  0  0  0
  -22.7900  -13.5282   21.1804 C   0  0  0  0  0  0
  -22.1673   -4.2153   21.0969 F   0  0  0  0  0  0
  -21.5613   -3.4535   25.7727 F   0  0  0  0  0  0
  -30.0475  -13.2256   20.4514 N   0  0  0  0  0  0
  -26.3054  -12.9270   20.3314 N   0  0  0  0  0  0
  -25.9304  -11.6448   20.5728 N   0  0  0  0  0  0
  -22.0484  -12.8315   22.0344 N   0  0  0  0  0  0
  -25.4365  -15.1861   20.3989 N   0  0  0  0  0  0
  -31.7845  -14.6776   20.1104 O   0  0  0  0  0  0
  -21.6643   -6.8872   21.4239 O   0  0  0  0  0  0
  -22.3624  -14.5600   20.6651 O   0  0  0  0  0  0
  -24.6120  -31.8705   23.2114 C   0  0  0  0  0  0
  -25.9031  -32.4835   23.8402 C   0  0  1  0  0  0
  -27.2402  -27.4686   20.0756 C   0  0  0  0  0  0
  -25.5913  -33.8636   24.2344 N   0  0  0  0  0  0
  -23.4004  -30.4911   21.5512 C   0  0  2  0  0  0
  -24.8482  -28.9564   20.1188 C   0  0  0  0  0  0
  -22.7412  -29.4663   22.5002 C   0  0  0  0  0  0
  -18.0278  -28.1331   22.8519 C   0  0  0  0  0  0
  -24.1487  -36.7301   23.2635 C   0  0  0  0  0  0
  -25.9248  -30.8438   21.3601 C   0  0  0  0  0  0
  -26.0062  -29.4786   20.7100 C   0  0  0  0  0  0
  -27.2076  -28.7400   20.6879 C   0  0  0  0  0  0
  -26.0695  -26.9473   19.4897 C   0  0  0  0  0  0
  -24.8710  -27.6879   19.5114 C   0  0  0  0  0  0
  -23.6094  -29.8207   20.1667 C   0  0  0  0  0  0
  -25.4104  -36.3108   24.0335 C   0  0  1  0  0  0
  -20.5876  -28.3636   23.1323 C   0  0  2  0  0  0
  -20.6769  -26.9382   22.5389 C   0  0  0  0  0  0
  -19.5721  -26.6335   21.5225 C   0  0  0  0  0  0
  -18.1917  -26.7862   22.1681 C   0  0  0  0  0  0
  -19.1533  -28.8799   23.2915 C   0  0  0  0  0  0
  -18.9463  -30.1407   23.8909 C   0  0  0  0  0  0
  -17.6472  -30.6570   24.0543 C   0  0  0  0  0  0
  -25.9026  -34.9475   23.5134 C   0  0  0  0  0  0
  -16.5355  -29.9077   23.6311 C   0  0  0  0  0  0
  -16.7272  -28.6476   23.0370 C   0  0  0  0  0  0
  -26.4472  -31.6604   25.0711 C   0  0  0  0  0  0
  -25.3744  -31.3714   26.1467 C   0  0  0  0  0  0
  -27.0286  -30.3049   24.6050 C   0  0  0  0  0  0
  -27.6063  -32.4316   25.7472 C   0  0  0  0  0  0
  -27.5579  -37.1808   24.8470 C   0  0  0  0  0  0
  -21.4142  -29.3048   22.3757 N   0  0  0  0  0  0
  -26.4296  -37.3786   23.9411 N   0  0  0  0  0  0
  -24.6641  -31.0822   22.1002 N   0  0  0  0  0  0
  -23.4200  -28.8187   23.3015 O   0  0  0  0  0  0
  -28.3979  -26.7372   20.0469 O   0  0  0  0  0  0
  -26.5584  -34.8931   22.4687 O   0  0  0  0  0  0
  -23.5330  -32.1447   23.7522 O   0  0  0  0  0  0
  -31.5058  -18.6406   22.0904 C   0  0  0  0  0  0
  -30.3271  -19.4164   22.1495 C   0  0  0  0  0  0
  -31.4415  -17.2640   21.7933 C   0  0  0  0  0  0
  -29.0211  -17.4474   21.5683 C   0  0  0  0  0  0
  -29.0740  -18.8307   21.8566 C   0  0  0  0  0  0
  -30.1888  -16.6585   21.5565 C   0  0  0  0  0  0
  -27.8023  -19.5695   21.9495 C   0  0  0  0  0  0
  -28.5385  -24.3055   20.4210 C   0  0  0  0  0  0
  -26.5585  -22.9908   21.3061 C   0  0  0  0  0  0
  -26.2716  -21.5149   21.6079 C   0  0  0  0  0  0
  -28.4951  -21.7319   20.7641 C   0  0  0  0  0  0
  -28.0955  -23.1210   21.3117 C   0  0  1  0  0  0
  -28.6449  -23.2975   22.7514 C   0  0  0  0  0  0
  -28.4226  -25.7114   21.0398 C   0  0  0  0  0  0
  -27.5662  -20.8178   21.4661 N   0  0  0  0  0  0
  -30.0240  -15.2597   21.4128 N   0  0  0  0  0  0
  -26.7962  -18.9540   22.5697 N   0  3  0  0  0  0
  -28.9570  -24.1375   19.2714 O   0  0  0  0  0  0
  -31.4756  -12.3968   19.0883 H   0  0  0  0  0  0
  -30.3319  -11.2633   19.7465 H   0  0  0  0  0  0
  -29.7235  -11.8295   17.3828 H   0  0  0  0  0  0
  -29.6688  -13.5276   17.7779 H   0  0  0  0  0  0
  -27.8134  -11.3261   18.7593 H   0  0  0  0  0  0
  -27.3637  -12.6917   17.7741 H   0  0  0  0  0  0
  -27.7370  -14.2487   19.6216 H   0  0  0  0  0  0
  -28.6806  -11.8394   21.2480 H   0  0  0  0  0  0
  -28.4548  -13.4192   21.9035 H   0  0  0  0  0  0
  -25.2744   -9.5692   22.4758 H   0  0  0  0  0  0
  -23.9971   -7.4660   22.7509 H   0  0  0  0  0  0
  -21.0807   -8.8786   19.8981 H   0  0  0  0  0  0
  -22.3684  -10.9668   19.6173 H   0  0  0  0  0  0
  -21.2029   -7.6145   23.9707 H   0  0  0  0  0  0
  -21.1486   -6.0520   25.9075 H   0  0  0  0  0  0
  -22.0588   -2.7602   23.2834 H   0  0  0  0  0  0
  -22.4049  -11.9990   22.4792 H   0  0  0  0  0  0
  -21.1110  -13.1406   22.2483 H   0  0  0  0  0  0
  -24.6523  -15.8247   20.4695 H   0  0  0  0  0  0
  -26.2490  -15.6024   19.9624 H   0  0  0  0  0  0
  -26.7109  -32.5555   23.1184 H   0  0  0  0  0  0
  -25.0120  -33.9796   25.0535 H   0  0  0  0  0  0
  -22.6862  -31.3042   21.4118 H   0  0  0  0  0  0
  -23.3743  -35.9643   23.3319 H   0  0  0  0  0  0
  -24.3591  -36.8895   22.2049 H   0  0  0  0  0  0
  -23.7252  -37.6517   23.6634 H   0  0  0  0  0  0
  -26.0289  -31.6101   20.5897 H   0  0  0  0  0  0
  -26.8141  -30.9006   21.9757 H   0  0  0  0  0  0
  -28.1045  -29.1412   21.1409 H   0  0  0  0  0  0
  -26.0872  -25.9750   19.0176 H   0  0  0  0  0  0
  -23.9796  -27.2798   19.0563 H   0  0  0  0  0  0
  -23.7202  -30.5944   19.4068 H   0  0  0  0  0  0
  -22.7344  -29.2403   19.8690 H   0  0  0  0  0  0
  -25.1284  -36.1972   25.0827 H   0  0  0  0  0  0
  -20.9985  -28.3152   24.1444 H   0  0  0  0  0  0
  -20.5713  -26.2220   23.3548 H   0  0  0  0  0  0
  -21.6626  -26.7477   22.1134 H   0  0  0  0  0  0
  -19.6867  -25.6236   21.1266 H   0  0  0  0  0  0
  -19.6609  -27.3138   20.6738 H   0  0  0  0  0  0
  -17.4133  -26.6544   21.4131 H   0  0  0  0  0  0
  -18.0389  -26.0020   22.9105 H   0  0  0  0  0  0
  -19.7946  -30.7214   24.2278 H   0  0  0  0  0  0
  -17.5053  -31.6258   24.5133 H   0  0  0  0  0  0
  -15.5362  -30.3007   23.7607 H   0  0  0  0  0  0
  -15.8674  -28.0768   22.7128 H   0  0  0  0  0  0
  -24.5902  -30.7082   25.7802 H   0  0  0  0  0  0
  -24.8949  -32.2870   26.4941 H   0  0  0  0  0  0
  -25.8093  -30.8867   27.0215 H   0  0  0  0  0  0
  -26.2810  -29.6828   24.1113 H   0  0  0  0  0  0
  -27.4086  -29.7272   25.4487 H   0  0  0  0  0  0
  -27.8640  -30.4383   23.9168 H   0  0  0  0  0  0
  -27.2695  -33.3609   26.2093 H   0  0  0  0  0  0
  -28.3849  -32.6900   25.0275 H   0  0  0  0  0  0
  -28.0751  -31.8409   26.5357 H   0  0  0  0  0  0
  -28.2605  -38.0093   24.7490 H   0  0  0  0  0  0
  -28.1062  -36.2629   24.6317 H   0  0  0  0  0  0
  -27.2295  -37.1481   25.8872 H   0  0  0  0  0  0
  -20.9287  -29.8843   21.7045 H   0  0  0  0  0  0
  -26.0182  -38.2864   24.1417 H   0  0  0  0  0  0
  -32.4608  -19.0931   22.3175 H   0  0  0  0  0  0
  -30.3996  -20.4486   22.4586 H   0  0  0  0  0  0
  -32.3485  -16.6766   21.8026 H   0  0  0  0  0  0
  -28.0645  -16.9788   21.3777 H   0  0  0  0  0  0
  -26.0895  -23.6420   22.0435 H   0  0  0  0  0  0
  -26.1287  -23.2462   20.3350 H   0  0  0  0  0  0
  -25.5271  -21.1045   20.9238 H   0  0  0  0  0  0
  -25.8885  -21.4166   22.6242 H   0  0  0  0  0  0
  -29.5526  -21.5396   20.9233 H   0  0  0  0  0  0
  -28.3224  -21.6547   19.6884 H   0  0  0  0  0  0
  -28.1531  -24.1151   23.2780 H   0  0  0  0  0  0
  -29.7177  -23.5001   22.7519 H   0  0  0  0  0  0
  -28.4953  -22.4081   23.3615 H   0  0  0  0  0  0
  -27.5387  -25.7565   21.6782 H   0  0  0  0  0  0
  -29.2836  -25.8799   21.6856 H   0  0  0  0  0  0
  -29.1483  -14.8850   21.7412 H   0  0  0  0  0  0
  -26.9667  -18.0673   23.0177 H   0  0  0  0  0  0
  -25.8804  -19.3599   22.6446 H   0  0  0  0  0  0
  1 25  1  0  0  0
  1 30  2  0  0  0
  1 86  1  0  0  0
  2  3  1  0  0  0
  2 25  1  0  0  0
  2 89  1  0  0  0
  2 90  1  0  0  0
  3  4  1  0  0  0
  3 91  1  0  0  0
  3 92  1  0  0  0
  4  5  1  0  0  0
  4 93  1  0  0  0
  4 94  1  0  0  0
  5  6  1  0  0  0
  5 26  1  0  0  0
  5 95  1  0  0  0
  6 25  1  0  0  0
  6 96  1  0  0  0
  6 97  1  0  0  0
  7  8  2  0  0  0
  7 26  1  0  0  0
  7 29  1  0  0  0
  8  9  1  0  0  0
  8 22  1  0  0  0
  9 10  1  0  0  0
  9 27  2  0  0  0
 10 11  2  0  0  0
 10 15  1  0  0  0
 11 12  1  0  0  0
 11 98  1  0  0  0
 12 13  2  0  0  0
 12 99  1  0  0  0
 13 14  1  0  0  0
 13 31  1  0  0  0
 14 15  2  0  0  0
 14100  1  0  0  0
 15101  1  0  0  0
 16 17  2  0  0  0
 16 21  1  0  0  0
 16 31  1  0  0  0
 17 18  1  0  0  0
 17102  1  0  0  0
 18 19  2  0  0  0
 18103  1  0  0  0
 19 20  1  0  0  0
 19 24  1  0  0  0
 20 21  2  0  0  0
 20104  1  0  0  0
 21 23  1  0  0  0
 22 28  1  0  0  0
 22 32  2  0  0  0
 26 27  1  0  0  0
 28105  1  0  0  0
 28106  1  0  0  0
 29107  1  0  0  0
 29108  1  0  0  0
 33 34  1  0  0  0
 33 66  1  0  0  0
 33 70  2  0  0  0
 34 36  1  0  0  0
 34 59  1  0  0  0
 34109  1  0  0  0
 35 44  2  0  0  0
 35 45  1  0  0  0
 35 68  1  0  0  0
 36 56  1  0  0  0
 36110  1  0  0  0
 37 39  1  0  0  0
 37 47  1  0  0  0
 37 66  1  0  0  0
 37111  1  0  0  0
 38 43  2  0  0  0
 38 46  1  0  0  0
 38 47  1  0  0  0
 39 64  1  0  0  0
 39 67  2  0  0  0
 40 52  1  0  0  0
 40 53  2  0  0  0
 40 58  1  0  0  0
 41112  1  0  0  0
 41113  1  0  0  0
 41114  1  0  0  0
 41 48  1  0  0  0
 42 43  1  0  0  0
 42 66  1  0  0  0
 42115  1  0  0  0
 42116  1  0  0  0
 43 44  1  0  0  0
 44117  1  0  0  0
 45 46  2  0  0  0
 45118  1  0  0  0
 46119  1  0  0  0
 47120  1  0  0  0
 47121  1  0  0  0
 48 56  1  0  0  0
 48 65  1  0  0  0
 48122  1  0  0  0
 49 50  1  0  0  0
 49 53  1  0  0  0
 49 64  1  0  0  0
 49123  1  0  0  0
 50 51  1  0  0  0
 50124  1  0  0  0
 50125  1  0  0  0
 51 52  1  0  0  0
 51126  1  0  0  0
 51127  1  0  0  0
 52128  1  0  0  0
 52129  1  0  0  0
 53 54  1  0  0  0
 54 55  2  0  0  0
 54130  1  0  0  0
 55 57  1  0  0  0
 55131  1  0  0  0
 56 69  2  0  0  0
 57 58  2  0  0  0
 57132  1  0  0  0
 58133  1  0  0  0
 59 60  1  0  0  0
 59 61  1  0  0  0
 59 62  1  0  0  0
 60134  1  0  0  0
 60135  1  0  0  0
 60136  1  0  0  0
 61137  1  0  0  0
 61138  1  0  0  0
 61139  1  0  0  0
 62140  1  0  0  0
 62141  1  0  0  0
 62142  1  0  0  0
 63 65  1  0  0  0
 63143  1  0  0  0
 63144  1  0  0  0
 63145  1  0  0  0
 64146  1  0  0  0
 65147  1  0  0  0
 68 84  1  0  0  0
 71 72  2  0  0  0
 71 73  1  0  0  0
 71148  1  0  0  0
 72 75  1  0  0  0
 72149  1  0  0  0
 73 76  2  0  0  0
 73150  1  0  0  0
 74 75  2  0  0  0
 74 76  1  0  0  0
 74151  1  0  0  0
 75 77  1  0  0  0
 76 86  1  0  0  0
 77 85  1  0  0  0
 77 87  2  0  0  0
 78 84  1  0  0  0
 78 88  2  0  0  0
 78 82  1  0  0  0
 79 80  1  0  0  0
 79 82  1  0  0  0
 79152  1  0  0  0
 79153  1  0  0  0
 80 85  1  0  0  0
 80154  1  0  0  0
 80155  1  0  0  0
 81 82  1  0  0  0
 81 85  1  0  0  0
 81156  1  0  0  0
 81157  1  0  0  0
 82 83  1  0  0  0
 83158  1  0  0  0
 83159  1  0  0  0
 83160  1  0  0  0
 84161  1  0  0  0
 84162  1  0  0  0
 86163  1  0  0  0
 87164  1  0  0  0
 87165  1  0  0  0
M  CHG  1  87   1
M  ISO  4   1 100  68 101  84 101  86 100
M  END
> <chiral flag>
0

> <version>
0

> <s_m_source_file>
/data/baiqing/PycharmProjects/Reinvent-master-3.2/result/LINK_invent/BTK/process_docking_weight1_custom_product_contain_oxygen_bond_distance_aromatic_linkinvent_7_9_3/rearranged_h_0139.sdf

> <i_m_source_file_index>
69

> <r_mmod_Potential_Energy-OPLS-2005>
-115.415618896484

> <r_mmod_Stretch_Energy-OPLS-2005>
35.8939094543457

> <r_mmod_Bend_Energy-OPLS-2005>
137.783584594727

> <r_mmod_Torsional_Energy-OPLS-2005>
320.509155273438

> <r_mmod_Improper_Torsional_Energy-OPLS-2005>
4.31372928619385

> <r_mmod_Van_der_Waal_Energy-OPLS-2005>
161.271499633789

> <r_mmod_Electrostatic_Energy-OPLS-2005>
-359.025054931641

> <r_mmod_Solvation_Energy-OPLS-2005>
-424.018798828125

> <b_mmod_Minimization_Converged-OPLS-2005>
0

> <r_mmod_RMS_Derivative-OPLS-2005>
2.70040798187256

$$$$
69
                    3D
 Structure written by MMmdl.
159167  0  0  1  0            999 V2000
  -30.6410  -14.6846   20.4691 C   0  0  0  0  0  0
  -30.4314  -12.4135   19.4838 C   0  0  0  0  0  0
  -29.5191  -12.5046   18.2405 C   0  0  0  0  0  0
  -28.0415  -12.3400   18.6453 C   0  0  0  0  0  0
  -27.6497  -13.2313   19.8556 C   0  0  2  0  0  0
  -28.6892  -13.1433   20.9978 C   0  0  0  0  0  0
  -25.2539  -13.8194   20.5681 C   0  0  0  0  0  0
  -24.1813  -13.0443   20.9169 C   0  0  0  0  0  0
  -24.6398  -11.6913   20.8705 C   0  0  0  0  0  0
  -23.9064  -10.4292   21.0385 C   0  0  0  0  0  0
  -24.3607   -9.4208   21.9169 C   0  0  0  0  0  0
  -23.6283   -8.2246   22.0754 C   0  0  0  0  0  0
  -22.4263   -8.0279   21.3553 C   0  0  0  0  0  0
  -21.9893   -9.0253   20.4655 C   0  0  0  0  0  0
  -22.7224  -10.2132   20.3048 C   0  0  0  0  0  0
  -21.6863   -6.0716   22.5265 C   0  0  0  0  0  0
  -21.4026   -6.5622   23.8198 C   0  0  0  0  0  0
  -21.3658   -5.6777   24.9167 C   0  0  0  0  0  0
  -21.6049   -4.3041   24.7222 C   0  0  0  0  0  0
  -21.8822   -3.8127   23.4343 C   0  0  0  0  0  0
  -21.9198   -4.6942   22.3391 C   0  0  0  0  0  0
  -22.7836  -13.5241   21.1825 C   0  0  0  0  0  0
  -22.1670   -4.2120   21.0974 F   0  0  0  0  0  0
  -21.5620   -3.4526   25.7740 F   0  0  0  0  0  0
  -30.0054  -13.4674   20.4316 N   0  0  0  0  0  0
  -26.2972  -12.9410   20.3265 N   0  0  0  0  0  0
  -25.9332  -11.6551   20.5711 N   0  0  0  0  0  0
  -22.0481  -12.8258   22.0406 N   0  0  0  0  0  0
  -25.4234  -15.1921   20.4124 N   0  0  0  0  0  0
  -31.8118  -14.7861   20.0878 O   0  0  0  0  0  0
  -21.6649   -6.8861   21.4234 O   0  0  0  0  0  0
  -22.3515  -14.5528   20.6639 O   0  0  0  0  0  0
  -24.6273  -31.8610   23.2001 C   0  0  0  0  0  0
  -25.9110  -32.4783   23.8362 C   0  0  1  0  0  0
  -27.2182  -27.2973   20.1193 C   0  0  0  0  0  0
  -25.5909  -33.8585   24.2271 N   0  0  0  0  0  0
  -23.4240  -30.4836   21.5443 C   0  0  2  0  0  0
  -24.8690  -28.9398   20.1080 C   0  0  0  0  0  0
  -22.7502  -29.4624   22.4933 C   0  0  0  0  0  0
  -18.0284  -28.1396   22.8481 C   0  0  0  0  0  0
  -24.1488  -36.7299   23.2638 C   0  0  0  0  0  0
  -25.9688  -30.7784   21.3826 C   0  0  0  0  0  0
  -26.0384  -29.4071   20.7218 C   0  0  0  0  0  0
  -27.2140  -28.5969   20.7200 C   0  0  0  0  0  0
  -26.0306  -26.9016   19.4596 C   0  0  0  0  0  0
  -24.8706  -27.6942   19.4649 C   0  0  0  0  0  0
  -23.6397  -29.8217   20.1590 C   0  0  0  0  0  0
  -25.4116  -36.3090   24.0327 C   0  0  1  0  0  0
  -20.5890  -28.3697   23.1276 C   0  0  2  0  0  0
  -20.6775  -26.9419   22.5417 C   0  0  0  0  0  0
  -19.5749  -26.6391   21.5219 C   0  0  0  0  0  0
  -18.1923  -26.7938   22.1619 C   0  0  0  0  0  0
  -19.1541  -28.8864   23.2869 C   0  0  0  0  0  0
  -18.9459  -30.1464   23.8897 C   0  0  0  0  0  0
  -17.6460  -30.6593   24.0566 C   0  0  0  0  0  0
  -25.9055  -34.9455   23.5100 C   0  0  0  0  0  0
  -16.5352  -29.9100   23.6330 C   0  0  0  0  0  0
  -16.7270  -28.6515   23.0357 C   0  0  0  0  0  0
  -26.4474  -31.6622   25.0762 C   0  0  0  0  0  0
  -25.3675  -31.3816   26.1476 C   0  0  0  0  0  0
  -27.0309  -30.3022   24.6275 C   0  0  0  0  0  0
  -27.6043  -32.4374   25.7512 C   0  0  0  0  0  0
  -27.5590  -37.1808   24.8455 C   0  0  0  0  0  0
  -21.4217  -29.3042   22.3673 N   0  0  0  0  0  0
  -26.4299  -37.3782   23.9404 N   0  0  0  0  0  0
  -24.6921  -31.0599   22.0970 N   0  0  0  0  0  0
  -23.4216  -28.8171   23.3022 O   0  0  0  0  0  0
  -28.3239  -26.4270   20.1982 O   0  0  0  0  0  0
  -26.5641  -34.8928   22.4684 O   0  0  0  0  0  0
  -23.5423  -32.1440   23.7289 O   0  0  0  0  0  0
  -30.2203  -18.4294   18.0657 C   0  0  0  0  0  0
  -29.9699  -19.6462   18.7287 C   0  0  0  0  0  0
  -30.2248  -17.2037   18.7600 C   0  0  0  0  0  0
  -29.6841  -18.4055   20.8044 C   0  0  0  0  0  0
  -29.6964  -19.6824   20.1122 C   0  0  0  0  0  0
  -29.9651  -17.1417   20.1480 C   0  0  0  0  0  0
  -30.5234  -24.3067   20.4909 C   0  0  0  0  0  0
  -28.6623  -23.8469   22.1194 C   0  0  0  0  0  0
  -29.5196  -21.0889   20.8216 C   0  0  0  0  0  0
  -28.9141  -22.3647   20.0364 C   0  0  0  0  0  0
  -28.1464  -24.9740   19.9048 C   0  0  0  0  0  0
  -29.0549  -23.8650   20.6294 C   0  0  0  0  0  0
  -29.9110  -15.8120   20.7879 N   0  0  0  0  0  0
  -31.4778  -12.5133   19.1921 H   0  0  0  0  0  0
  -30.3522  -11.4303   19.9501 H   0  0  0  0  0  0
  -29.7992  -11.7376   17.5168 H   0  0  0  0  0  0
  -29.6621  -13.4650   17.7414 H   0  0  0  0  0  0
  -27.8889  -11.2906   18.8997 H   0  0  0  0  0  0
  -27.3917  -12.5472   17.7935 H   0  0  0  0  0  0
  -27.6557  -14.2577   19.4864 H   0  0  0  0  0  0
  -28.7008  -12.1455   21.4393 H   0  0  0  0  0  0
  -28.4282  -13.8279   21.8065 H   0  0  0  0  0  0
  -25.2755   -9.5692   22.4739 H   0  0  0  0  0  0
  -23.9994   -7.4647   22.7472 H   0  0  0  0  0  0
  -21.0820   -8.8762   19.8975 H   0  0  0  0  0  0
  -22.3668  -10.9661   19.6147 H   0  0  0  0  0  0
  -21.2036   -7.6130   23.9693 H   0  0  0  0  0  0
  -21.1477   -6.0510   25.9064 H   0  0  0  0  0  0
  -22.0608   -2.7587   23.2847 H   0  0  0  0  0  0
  -22.4096  -11.9954   22.4866 H   0  0  0  0  0  0
  -21.1082  -13.1293   22.2558 H   0  0  0  0  0  0
  -24.6537  -15.8439   20.5169 H   0  0  0  0  0  0
  -26.2761  -15.6341   20.0933 H   0  0  0  0  0  0
  -26.7185  -32.5445   23.1118 H   0  0  0  0  0  0
  -25.0009  -33.9732   25.0380 H   0  0  0  0  0  0
  -22.7170  -31.3038   21.4020 H   0  0  0  0  0  0
  -23.3758  -35.9622   23.3296 H   0  0  0  0  0  0
  -24.3566  -36.8926   22.2052 H   0  0  0  0  0  0
  -23.7239  -37.6498   23.6666 H   0  0  0  0  0  0
  -26.1183  -31.5410   20.6176 H   0  0  0  0  0  0
  -26.8422  -30.8175   22.0214 H   0  0  0  0  0  0
  -28.1082  -28.9458   21.2173 H   0  0  0  0  0  0
  -25.9662  -25.9615   18.9324 H   0  0  0  0  0  0
  -23.9796  -27.3394   18.9639 H   0  0  0  0  0  0
  -23.7593  -30.5999   19.4038 H   0  0  0  0  0  0
  -22.7585  -29.2524   19.8578 H   0  0  0  0  0  0
  -25.1298  -36.1948   25.0821 H   0  0  0  0  0  0
  -20.9972  -28.3282   24.1400 H   0  0  0  0  0  0
  -20.5674  -26.2316   23.3626 H   0  0  0  0  0  0
  -21.6644  -26.7451   22.1215 H   0  0  0  0  0  0
  -19.6907  -25.6301   21.1256 H   0  0  0  0  0  0
  -19.6677  -27.3196   20.6744 H   0  0  0  0  0  0
  -17.4201  -26.6691   21.4011 H   0  0  0  0  0  0
  -18.0293  -26.0089   22.9016 H   0  0  0  0  0  0
  -19.7940  -30.7272   24.2274 H   0  0  0  0  0  0
  -17.5019  -31.6269   24.5183 H   0  0  0  0  0  0
  -15.5352  -30.3002   23.7657 H   0  0  0  0  0  0
  -15.8670  -28.0833   22.7081 H   0  0  0  0  0  0
  -24.5809  -30.7213   25.7807 H   0  0  0  0  0  0
  -24.8902  -32.3006   26.4901 H   0  0  0  0  0  0
  -25.7947  -30.8984   27.0272 H   0  0  0  0  0  0
  -26.2902  -29.6795   24.1245 H   0  0  0  0  0  0
  -27.3900  -29.7276   25.4827 H   0  0  0  0  0  0
  -27.8824  -30.4282   23.9583 H   0  0  0  0  0  0
  -27.2652  -33.3659   26.2131 H   0  0  0  0  0  0
  -28.3812  -32.6992   25.0311 H   0  0  0  0  0  0
  -28.0777  -31.8503   26.5395 H   0  0  0  0  0  0
  -28.2613  -38.0102   24.7508 H   0  0  0  0  0  0
  -28.1082  -36.2640   24.6265 H   0  0  0  0  0  0
  -27.2303  -37.1436   25.8854 H   0  0  0  0  0  0
  -20.9411  -29.8775   21.6885 H   0  0  0  0  0  0
  -26.0184  -38.2856   24.1411 H   0  0  0  0  0  0
  -30.4155  -18.4332   17.0026 H   0  0  0  0  0  0
  -30.0103  -20.5556   18.1472 H   0  0  0  0  0  0
  -30.4118  -16.3002   18.1965 H   0  0  0  0  0  0
  -29.4764  -18.4059   21.8657 H   0  0  0  0  0  0
  -31.1999  -23.6256   21.0056 H   0  0  0  0  0  0
  -30.6854  -25.2991   20.9139 H   0  0  0  0  0  0
  -30.8261  -24.3452   19.4441 H   0  0  0  0  0  0
  -29.3049  -23.1852   22.7012 H   0  0  0  0  0  0
  -27.6329  -23.5110   22.2523 H   0  0  0  0  0  0
  -28.7371  -24.8410   22.5623 H   0  0  0  0  0  0
  -30.5128  -21.3616   21.1775 H   0  0  0  0  0  0
  -28.9308  -20.9245   21.7246 H   0  0  0  0  0  0
  -27.8588  -22.1583   19.8580 H   0  0  0  0  0  0
  -29.3571  -22.4022   19.0424 H   0  0  0  0  0  0
  -27.1237  -24.6804   20.1409 H   0  0  0  0  0  0
  -28.2482  -24.8572   18.8247 H   0  0  0  0  0  0
  -29.0833  -15.6387   21.3388 H   0  0  0  0  0  0
  1 25  1  0  0  0
  1 30  2  0  0  0
  1 83  1  0  0  0
  2  3  1  0  0  0
  2 25  1  0  0  0
  2 84  1  0  0  0
  2 85  1  0  0  0
  3  4  1  0  0  0
  3 86  1  0  0  0
  3 87  1  0  0  0
  4  5  1  0  0  0
  4 88  1  0  0  0
  4 89  1  0  0  0
  5  6  1  0  0  0
  5 26  1  0  0  0
  5 90  1  0  0  0
  6 25  1  0  0  0
  6 91  1  0  0  0
  6 92  1  0  0  0
  7  8  2  0  0  0
  7 26  1  0  0  0
  7 29  1  0  0  0
  8  9  1  0  0  0
  8 22  1  0  0  0
  9 10  1  0  0  0
  9 27  2  0  0  0
 10 11  2  0  0  0
 10 15  1  0  0  0
 11 12  1  0  0  0
 11 93  1  0  0  0
 12 13  2  0  0  0
 12 94  1  0  0  0
 13 14  1  0  0  0
 13 31  1  0  0  0
 14 15  2  0  0  0
 14 95  1  0  0  0
 15 96  1  0  0  0
 16 17  2  0  0  0
 16 21  1  0  0  0
 16 31  1  0  0  0
 17 18  1  0  0  0
 17 97  1  0  0  0
 18 19  2  0  0  0
 18 98  1  0  0  0
 19 20  1  0  0  0
 19 24  1  0  0  0
 20 21  2  0  0  0
 20 99  1  0  0  0
 21 23  1  0  0  0
 22 28  1  0  0  0
 22 32  2  0  0  0
 26 27  1  0  0  0
 28100  1  0  0  0
 28101  1  0  0  0
 29102  1  0  0  0
 29103  1  0  0  0
 33 34  1  0  0  0
 33 66  1  0  0  0
 33 70  2  0  0  0
 34 36  1  0  0  0
 34 59  1  0  0  0
 34104  1  0  0  0
 35 44  2  0  0  0
 35 45  1  0  0  0
 35 68  1  0  0  0
 36 56  1  0  0  0
 36105  1  0  0  0
 37 39  1  0  0  0
 37 47  1  0  0  0
 37 66  1  0  0  0
 37106  1  0  0  0
 38 43  2  0  0  0
 38 46  1  0  0  0
 38 47  1  0  0  0
 39 64  1  0  0  0
 39 67  2  0  0  0
 40 52  1  0  0  0
 40 53  2  0  0  0
 40 58  1  0  0  0
 41107  1  0  0  0
 41108  1  0  0  0
 41109  1  0  0  0
 41 48  1  0  0  0
 42 43  1  0  0  0
 42 66  1  0  0  0
 42110  1  0  0  0
 42111  1  0  0  0
 43 44  1  0  0  0
 44112  1  0  0  0
 45 46  2  0  0  0
 45113  1  0  0  0
 46114  1  0  0  0
 47115  1  0  0  0
 47116  1  0  0  0
 48 56  1  0  0  0
 48 65  1  0  0  0
 48117  1  0  0  0
 49 50  1  0  0  0
 49 53  1  0  0  0
 49 64  1  0  0  0
 49118  1  0  0  0
 50 51  1  0  0  0
 50119  1  0  0  0
 50120  1  0  0  0
 51 52  1  0  0  0
 51121  1  0  0  0
 51122  1  0  0  0
 52123  1  0  0  0
 52124  1  0  0  0
 53 54  1  0  0  0
 54 55  2  0  0  0
 54125  1  0  0  0
 55 57  1  0  0  0
 55126  1  0  0  0
 56 69  2  0  0  0
 57 58  2  0  0  0
 57127  1  0  0  0
 58128  1  0  0  0
 59 60  1  0  0  0
 59 61  1  0  0  0
 59 62  1  0  0  0
 60129  1  0  0  0
 60130  1  0  0  0
 60131  1  0  0  0
 61132  1  0  0  0
 61133  1  0  0  0
 61134  1  0  0  0
 62135  1  0  0  0
 62136  1  0  0  0
 62137  1  0  0  0
 63 65  1  0  0  0
 63138  1  0  0  0
 63139  1  0  0  0
 63140  1  0  0  0
 64141  1  0  0  0
 65142  1  0  0  0
 68 81  1  0  0  0
 71 72  2  0  0  0
 71 73  1  0  0  0
 71143  1  0  0  0
 72 75  1  0  0  0
 72144  1  0  0  0
 73 76  2  0  0  0
 73145  1  0  0  0
 74 75  2  0  0  0
 74 76  1  0  0  0
 74146  1  0  0  0
 75 79  1  0  0  0
 76 83  1  0  0  0
 77147  1  0  0  0
 77148  1  0  0  0
 77149  1  0  0  0
 77 82  1  0  0  0
 78 82  1  0  0  0
 78150  1  0  0  0
 78151  1  0  0  0
 78152  1  0  0  0
 79 80  1  0  0  0
 79153  1  0  0  0
 79154  1  0  0  0
 80 82  1  0  0  0
 80155  1  0  0  0
 80156  1  0  0  0
 81 82  1  0  0  0
 81157  1  0  0  0
 81158  1  0  0  0
 83159  1  0  0  0
M  ISO  4   1 100  68 101  81 101  83 100
M  END
> <chiral flag>
0

> <version>
0

> <s_m_source_file>
/data/baiqing/PycharmProjects/Reinvent-master-3.2/result/LINK_invent/BTK/process_docking_weight1_custom_product_contain_oxygen_bond_distance_aromatic_linkinvent_7_9_3/rearranged_h_0139.sdf

> <i_m_source_file_index>
70

> <r_mmod_Potential_Energy-OPLS-2005>
142.815521240234

> <r_mmod_Stretch_Energy-OPLS-2005>
104.606811523438

> <r_mmod_Bend_Energy-OPLS-2005>
145.346267700195

> <r_mmod_Torsional_Energy-OPLS-2005>
244.158004760742

> <r_mmod_Improper_Torsional_Energy-OPLS-2005>
4.63461065292358

> <r_mmod_Van_der_Waal_Energy-OPLS-2005>
142.589614868164

> <r_mmod_Electrostatic_Energy-OPLS-2005>
-364.641204833984

> <r_mmod_Solvation_Energy-OPLS-2005>
-198.513946533203

> <b_mmod_Minimization_Converged-OPLS-2005>
0

> <r_mmod_RMS_Derivative-OPLS-2005>
2.31451678276062

$$$$
70
                    3D
 Structure written by MMmdl.
173181  0  0  1  0            999 V2000
  -30.5410  -14.9707   20.4219 C   0  0  0  0  0  0
  -30.4366  -12.6080   19.4925 C   0  0  0  0  0  0
  -29.5180  -12.5270   18.2532 C   0  0  0  0  0  0
  -28.0529  -12.3067   18.6745 C   0  0  0  0  0  0
  -27.6232  -13.2487   19.8299 C   0  0  2  0  0  0
  -28.6661  -13.2990   20.9647 C   0  0  0  0  0  0
  -25.2428  -13.8216   20.5697 C   0  0  0  0  0  0
  -24.1757  -13.0435   20.9230 C   0  0  0  0  0  0
  -24.6377  -11.6928   20.8762 C   0  0  0  0  0  0
  -23.9068  -10.4294   21.0408 C   0  0  0  0  0  0
  -24.3627   -9.4204   21.9171 C   0  0  0  0  0  0
  -23.6307   -8.2239   22.0741 C   0  0  0  0  0  0
  -22.4284   -8.0274   21.3533 C   0  0  0  0  0  0
  -21.9916   -9.0244   20.4631 C   0  0  0  0  0  0
  -22.7245  -10.2127   20.3044 C   0  0  0  0  0  0
  -21.6856   -6.0734   22.5278 C   0  0  0  0  0  0
  -21.4015   -6.5636   23.8213 C   0  0  0  0  0  0
  -21.3661   -5.6786   24.9174 C   0  0  0  0  0  0
  -21.6047   -4.3049   24.7223 C   0  0  0  0  0  0
  -21.8820   -3.8144   23.4341 C   0  0  0  0  0  0
  -21.9190   -4.6964   22.3400 C   0  0  0  0  0  0
  -22.7773  -13.5197   21.1885 C   0  0  0  0  0  0
  -22.1656   -4.2148   21.0980 F   0  0  0  0  0  0
  -21.5632   -3.4533   25.7735 F   0  0  0  0  0  0
  -29.9335  -13.7163   20.3539 N   0  0  0  0  0  0
  -26.2852  -12.9448   20.3215 N   0  0  0  0  0  0
  -25.9310  -11.6579   20.5740 N   0  0  0  0  0  0
  -22.0427  -12.8192   22.0455 N   0  0  0  0  0  0
  -25.4085  -15.1950   20.4121 N   0  0  0  0  0  0
  -31.7560  -15.0007   20.1999 O   0  0  0  0  0  0
  -21.6641   -6.8876   21.4240 O   0  0  0  0  0  0
  -22.3458  -14.5498   20.6722 O   0  0  0  0  0  0
  -24.6455  -31.8414   23.1869 C   0  0  0  0  0  0
  -25.9217  -32.4684   23.8260 C   0  0  1  0  0  0
  -27.2234  -27.1200   20.1573 C   0  0  0  0  0  0
  -25.5962  -33.8492   24.2184 N   0  0  0  0  0  0
  -23.4508  -30.4600   21.5311 C   0  0  2  0  0  0
  -24.9022  -28.8808   20.1103 C   0  0  0  0  0  0
  -22.7574  -29.4539   22.4847 C   0  0  0  0  0  0
  -18.0309  -28.1392   22.8485 C   0  0  0  0  0  0
  -24.1489  -36.7252   23.2642 C   0  0  0  0  0  0
  -26.0072  -30.7114   21.3868 C   0  0  0  0  0  0
  -26.0793  -29.3198   20.7293 C   0  0  0  0  0  0
  -27.2400  -28.4565   20.7339 C   0  0  0  0  0  0
  -26.0203  -26.7845   19.4990 C   0  0  0  0  0  0
  -24.8873  -27.6278   19.4783 C   0  0  0  0  0  0
  -23.6791  -29.7849   20.1517 C   0  0  0  0  0  0
  -25.4125  -36.3035   24.0317 C   0  0  1  0  0  0
  -20.5923  -28.3724   23.1233 C   0  0  2  0  0  0
  -20.6789  -26.9425   22.5408 C   0  0  0  0  0  0
  -19.5765  -26.6381   21.5214 C   0  0  0  0  0  0
  -18.1946  -26.7932   22.1623 C   0  0  0  0  0  0
  -19.1566  -28.8876   23.2854 C   0  0  0  0  0  0
  -18.9480  -30.1472   23.8876 C   0  0  0  0  0  0
  -17.6476  -30.6589   24.0559 C   0  0  0  0  0  0
  -25.9077  -34.9405   23.5061 C   0  0  0  0  0  0
  -16.5368  -29.9081   23.6336 C   0  0  0  0  0  0
  -16.7294  -28.6499   23.0361 C   0  0  0  0  0  0
  -26.4530  -31.6559   25.0707 C   0  0  0  0  0  0
  -25.3715  -31.3752   26.1404 C   0  0  0  0  0  0
  -27.0392  -30.2954   24.6294 C   0  0  0  0  0  0
  -27.6062  -32.4322   25.7492 C   0  0  0  0  0  0
  -27.5580  -37.1787   24.8468 C   0  0  0  0  0  0
  -21.4263  -29.3048   22.3598 N   0  0  0  0  0  0
  -26.4287  -37.3753   23.9412 N   0  0  0  0  0  0
  -24.7210  -31.0255   22.0908 N   0  0  0  0  0  0
  -23.4203  -28.8084   23.3006 O   0  0  0  0  0  0
  -28.2783  -26.1334   20.2299 O   0  0  0  0  0  0
  -26.5665  -34.8904   22.4641 O   0  0  0  0  0  0
  -23.5571  -32.1289   23.7085 O   0  0  0  0  0  0
  -31.7476  -19.1687   21.7255 C   0  0  0  0  0  0
  -31.3031  -17.8784   21.4223 C   0  0  0  0  0  0
  -29.4034  -18.9342   20.3693 C   0  0  0  0  0  0
  -29.8287  -20.3555   20.6533 C   0  0  0  0  0  0
  -31.1233  -20.3739   21.3130 C   0  0  0  0  0  0
  -30.1294  -17.6603   20.6968 C   0  0  0  0  0  0
  -28.8984  -21.6871   20.2769 C   0  0  0  0  0  0
  -30.0913  -23.8610   18.0480 C   0  0  0  0  0  0
  -29.3851  -23.6187   21.9741 C   0  0  0  0  0  0
  -34.5236  -21.1018   21.8414 C   0  0  0  0  0  0
  -33.4267  -21.0817   19.5900 C   0  0  0  0  0  0
  -33.7431  -23.2251   20.8564 C   0  0  0  0  0  0
  -31.9942  -21.5840   21.7014 C   0  0  0  0  0  0
  -30.3745  -23.7109   19.5553 C   0  0  0  0  0  0
  -28.0330  -24.5886   20.0940 C   0  0  0  0  0  0
  -29.1548  -23.3564   20.4593 C   0  0  1  0  0  0
  -33.3920  -21.7268   20.9933 C   0  0  0  0  0  0
  -29.7686  -16.1783   20.4693 N   0  0  0  0  0  0
  -27.8061  -21.4346   19.7637 O   0  0  0  0  0  0
  -31.4684  -12.7703   19.1761 H   0  0  0  0  0  0
  -30.4387  -11.6649   20.0402 H   0  0  0  0  0  0
  -29.8440  -11.7238   17.5916 H   0  0  0  0  0  0
  -29.5973  -13.4516   17.6795 H   0  0  0  0  0  0
  -27.9585  -11.2686   18.9939 H   0  0  0  0  0  0
  -27.3871  -12.4208   17.8181 H   0  0  0  0  0  0
  -27.5783  -14.2445   19.3891 H   0  0  0  0  0  0
  -28.7620  -12.3303   21.4570 H   0  0  0  0  0  0
  -28.3613  -14.0117   21.7330 H   0  0  0  0  0  0
  -25.2767   -9.5693   22.4747 H   0  0  0  0  0  0
  -24.0014   -7.4632   22.7464 H   0  0  0  0  0  0
  -21.0835   -8.8760   19.8945 H   0  0  0  0  0  0
  -22.3685  -10.9664   19.6158 H   0  0  0  0  0  0
  -21.2006   -7.6142   23.9722 H   0  0  0  0  0  0
  -21.1486   -6.0512   25.9080 H   0  0  0  0  0  0
  -22.0599   -2.7606   23.2841 H   0  0  0  0  0  0
  -22.4054  -11.9875   22.4865 H   0  0  0  0  0  0
  -21.1034  -13.1202   22.2643 H   0  0  0  0  0  0
  -24.6383  -15.8453   20.5224 H   0  0  0  0  0  0
  -26.2469  -15.6369   20.0599 H   0  0  0  0  0  0
  -26.7283  -32.5284   23.0986 H   0  0  0  0  0  0
  -25.0095  -33.9603   25.0323 H   0  0  0  0  0  0
  -22.7557  -31.2878   21.3744 H   0  0  0  0  0  0
  -23.3765  -35.9569   23.3284 H   0  0  0  0  0  0
  -24.3571  -36.8903   22.2060 H   0  0  0  0  0  0
  -23.7225  -37.6435   23.6687 H   0  0  0  0  0  0
  -26.1638  -31.4657   20.6139 H   0  0  0  0  0  0
  -26.8766  -30.7627   22.0310 H   0  0  0  0  0  0
  -28.1363  -28.7898   21.2385 H   0  0  0  0  0  0
  -25.9254  -25.8254   19.0124 H   0  0  0  0  0  0
  -23.9896  -27.2867   18.9812 H   0  0  0  0  0  0
  -23.8189  -30.5577   19.3954 H   0  0  0  0  0  0
  -22.7933  -29.2285   19.8401 H   0  0  0  0  0  0
  -25.1313  -36.1861   25.0808 H   0  0  0  0  0  0
  -21.0024  -28.3315   24.1351 H   0  0  0  0  0  0
  -20.5681  -26.2338   23.3632 H   0  0  0  0  0  0
  -21.6656  -26.7425   22.1209 H   0  0  0  0  0  0
  -19.6925  -25.6285   21.1263 H   0  0  0  0  0  0
  -19.6698  -27.3174   20.6730 H   0  0  0  0  0  0
  -17.4221  -26.6696   21.4020 H   0  0  0  0  0  0
  -18.0335  -26.0065   22.9009 H   0  0  0  0  0  0
  -19.7956  -30.7303   24.2225 H   0  0  0  0  0  0
  -17.5028  -31.6268   24.5166 H   0  0  0  0  0  0
  -15.5367  -30.2978   23.7667 H   0  0  0  0  0  0
  -15.8696  -28.0811   22.7081 H   0  0  0  0  0  0
  -24.5907  -30.7078   25.7738 H   0  0  0  0  0  0
  -24.8882  -32.2928   26.4768 H   0  0  0  0  0  0
  -25.8002  -30.8978   27.0225 H   0  0  0  0  0  0
  -26.3006  -29.6678   24.1295 H   0  0  0  0  0  0
  -27.3996  -29.7256   25.4869 H   0  0  0  0  0  0
  -27.8919  -30.4191   23.9613 H   0  0  0  0  0  0
  -27.2658  -33.3641   26.2019 H   0  0  0  0  0  0
  -28.3899  -32.6851   25.0339 H   0  0  0  0  0  0
  -28.0696  -31.8476   26.5452 H   0  0  0  0  0  0
  -28.2598  -38.0084   24.7518 H   0  0  0  0  0  0
  -28.1075  -36.2618   24.6286 H   0  0  0  0  0  0
  -27.2300  -37.1423   25.8870 H   0  0  0  0  0  0
  -20.9472  -29.8765   21.6781 H   0  0  0  0  0  0
  -26.0155  -38.2821   24.1411 H   0  0  0  0  0  0
  -32.6493  -19.2178   22.3120 H   0  0  0  0  0  0
  -31.8927  -17.0475   21.7816 H   0  0  0  0  0  0
  -28.4557  -18.8235   19.8615 H   0  0  0  0  0  0
  -31.0267  -23.9165   17.4898 H   0  0  0  0  0  0
  -29.5374  -24.7721   17.8205 H   0  0  0  0  0  0
  -29.5289  -23.0141   17.6539 H   0  0  0  0  0  0
  -29.6229  -22.7220   22.5460 H   0  0  0  0  0  0
  -28.4882  -24.0076   22.4566 H   0  0  0  0  0  0
  -30.1692  -24.3574   22.1445 H   0  0  0  0  0  0
  -35.5052  -21.3740   21.4518 H   0  0  0  0  0  0
  -34.5050  -20.0141   21.8361 H   0  0  0  0  0  0
  -34.4847  -21.4360   22.8792 H   0  0  0  0  0  0
  -34.3740  -21.2845   19.0894 H   0  0  0  0  0  0
  -32.6364  -21.4574   18.9423 H   0  0  0  0  0  0
  -33.3202  -19.9976   19.6323 H   0  0  0  0  0  0
  -34.7554  -23.3672   20.4771 H   0  0  0  0  0  0
  -33.6888  -23.7366   21.8186 H   0  0  0  0  0  0
  -33.0840  -23.7501   20.1692 H   0  0  0  0  0  0
  -32.1350  -21.5521   22.7831 H   0  0  0  0  0  0
  -31.4779  -22.5087   21.5667 H   0  0  0  0  0  0
  -30.8668  -24.6138   19.9173 H   0  0  0  0  0  0
  -31.1104  -22.9195   19.5936 H   0  0  0  0  0  0
  -27.1403  -24.3818   20.6857 H   0  0  0  0  0  0
  -27.6899  -24.4216   19.0735 H   0  0  0  0  0  0
  -28.7792  -16.0060   20.3822 H   0  0  0  0  0  0
  1 25  1  0  0  0
  1 30  2  0  0  0
  1 88  1  0  0  0
  2  3  1  0  0  0
  2 25  1  0  0  0
  2 90  1  0  0  0
  2 91  1  0  0  0
  3  4  1  0  0  0
  3 92  1  0  0  0
  3 93  1  0  0  0
  4  5  1  0  0  0
  4 94  1  0  0  0
  4 95  1  0  0  0
  5  6  1  0  0  0
  5 26  1  0  0  0
  5 96  1  0  0  0
  6 25  1  0  0  0
  6 97  1  0  0  0
  6 98  1  0  0  0
  7  8  2  0  0  0
  7 26  1  0  0  0
  7 29  1  0  0  0
  8  9  1  0  0  0
  8 22  1  0  0  0
  9 10  1  0  0  0
  9 27  2  0  0  0
 10 11  2  0  0  0
 10 15  1  0  0  0
 11 12  1  0  0  0
 11 99  1  0  0  0
 12 13  2  0  0  0
 12100  1  0  0  0
 13 14  1  0  0  0
 13 31  1  0  0  0
 14 15  2  0  0  0
 14101  1  0  0  0
 15102  1  0  0  0
 16 17  2  0  0  0
 16 21  1  0  0  0
 16 31  1  0  0  0
 17 18  1  0  0  0
 17103  1  0  0  0
 18 19  2  0  0  0
 18104  1  0  0  0
 19 20  1  0  0  0
 19 24  1  0  0  0
 20 21  2  0  0  0
 20105  1  0  0  0
 21 23  1  0  0  0
 22 28  1  0  0  0
 22 32  2  0  0  0
 26 27  1  0  0  0
 28106  1  0  0  0
 28107  1  0  0  0
 29108  1  0  0  0
 29109  1  0  0  0
 33 34  1  0  0  0
 33 66  1  0  0  0
 33 70  2  0  0  0
 34 36  1  0  0  0
 34 59  1  0  0  0
 34110  1  0  0  0
 35 44  2  0  0  0
 35 45  1  0  0  0
 35 68  1  0  0  0
 36 56  1  0  0  0
 36111  1  0  0  0
 37 39  1  0  0  0
 37 47  1  0  0  0
 37 66  1  0  0  0
 37112  1  0  0  0
 38 43  2  0  0  0
 38 46  1  0  0  0
 38 47  1  0  0  0
 39 64  1  0  0  0
 39 67  2  0  0  0
 40 52  1  0  0  0
 40 53  2  0  0  0
 40 58  1  0  0  0
 41113  1  0  0  0
 41114  1  0  0  0
 41115  1  0  0  0
 41 48  1  0  0  0
 42 43  1  0  0  0
 42 66  1  0  0  0
 42116  1  0  0  0
 42117  1  0  0  0
 43 44  1  0  0  0
 44118  1  0  0  0
 45 46  2  0  0  0
 45119  1  0  0  0
 46120  1  0  0  0
 47121  1  0  0  0
 47122  1  0  0  0
 48 56  1  0  0  0
 48 65  1  0  0  0
 48123  1  0  0  0
 49 50  1  0  0  0
 49 53  1  0  0  0
 49 64  1  0  0  0
 49124  1  0  0  0
 50 51  1  0  0  0
 50125  1  0  0  0
 50126  1  0  0  0
 51 52  1  0  0  0
 51127  1  0  0  0
 51128  1  0  0  0
 52129  1  0  0  0
 52130  1  0  0  0
 53 54  1  0  0  0
 54 55  2  0  0  0
 54131  1  0  0  0
 55 57  1  0  0  0
 55132  1  0  0  0
 56 69  2  0  0  0
 57 58  2  0  0  0
 57133  1  0  0  0
 58134  1  0  0  0
 59 60  1  0  0  0
 59 61  1  0  0  0
 59 62  1  0  0  0
 60135  1  0  0  0
 60136  1  0  0  0
 60137  1  0  0  0
 61138  1  0  0  0
 61139  1  0  0  0
 61140  1  0  0  0
 62141  1  0  0  0
 62142  1  0  0  0
 62143  1  0  0  0
 63 65  1  0  0  0
 63144  1  0  0  0
 63145  1  0  0  0
 63146  1  0  0  0
 64147  1  0  0  0
 65148  1  0  0  0
 68 85  1  0  0  0
 71 72  2  0  0  0
 71 75  1  0  0  0
 71149  1  0  0  0
 72 76  1  0  0  0
 72150  1  0  0  0
 73 74  1  0  0  0
 73 76  2  0  0  0
 73151  1  0  0  0
 74 75  2  0  0  0
 74 77  1  0  0  0
 75 83  1  0  0  0
 76 88  1  0  0  0
 77 89  2  0  0  0
 77 86  1  0  0  0
 78 84  1  0  0  0
 78152  1  0  0  0
 78153  1  0  0  0
 78154  1  0  0  0
 79155  1  0  0  0
 79156  1  0  0  0
 79157  1  0  0  0
 79 86  1  0  0  0
 80158  1  0  0  0
 80159  1  0  0  0
 80160  1  0  0  0
 80 87  1  0  0  0
 81 87  1  0  0  0
 81161  1  0  0  0
 81162  1  0  0  0
 81163  1  0  0  0
 82 87  1  0  0  0
 82164  1  0  0  0
 82165  1  0  0  0
 82166  1  0  0  0
 83 87  1  0  0  0
 83167  1  0  0  0
 83168  1  0  0  0
 84 86  1  0  0  0
 84169  1  0  0  0
 84170  1  0  0  0
 85 86  1  0  0  0
 85171  1  0  0  0
 85172  1  0  0  0
 88173  1  0  0  0
M  ISO  4   1 100  68 101  85 101  88 100
M  END
> <chiral flag>
0

> <version>
0

> <s_m_source_file>
/data/baiqing/PycharmProjects/Reinvent-master-3.2/result/LINK_invent/BTK/process_docking_weight1_custom_product_contain_oxygen_bond_distance_aromatic_linkinvent_7_9_3/rearranged_h_0139.sdf

> <i_m_source_file_index>
71

> <r_mmod_Potential_Energy-OPLS-2005>
751.811340332031

> <r_mmod_Stretch_Energy-OPLS-2005>
332.108154296875

> <r_mmod_Bend_Energy-OPLS-2005>
311.896575927734

> <r_mmod_Torsional_Energy-OPLS-2005>
254.289566040039

> <r_mmod_Improper_Torsional_Energy-OPLS-2005>
6.3694429397583

> <r_mmod_Van_der_Waal_Energy-OPLS-2005>
156.5341796875

> <r_mmod_Electrostatic_Energy-OPLS-2005>
-317.359741210938

> <r_mmod_Solvation_Energy-OPLS-2005>
-200.375411987305

> <b_mmod_Minimization_Converged-OPLS-2005>
0

> <r_mmod_RMS_Derivative-OPLS-2005>
1.38152241706848

$$$$
71
                    3D
 Structure written by MMmdl.
158166  0  0  1  0            999 V2000
  -30.6202  -14.6665   20.4945 C   0  0  0  0  0  0
  -30.4329  -12.4026   19.4742 C   0  0  0  0  0  0
  -29.5174  -12.5296   18.2369 C   0  0  0  0  0  0
  -28.0360  -12.3730   18.6297 C   0  0  0  0  0  0
  -27.6558  -13.2226   19.8724 C   0  0  2  0  0  0
  -28.6980  -13.0869   21.0063 C   0  0  0  0  0  0
  -25.2558  -13.8199   20.5530 C   0  0  0  0  0  0
  -24.1839  -13.0461   20.9103 C   0  0  0  0  0  0
  -24.6423  -11.6926   20.8702 C   0  0  0  0  0  0
  -23.9093  -10.4303   21.0369 C   0  0  0  0  0  0
  -24.3661   -9.4229   21.9155 C   0  0  0  0  0  0
  -23.6335   -8.2269   22.0754 C   0  0  0  0  0  0
  -22.4309   -8.0302   21.3549 C   0  0  0  0  0  0
  -21.9926   -9.0267   20.4642 C   0  0  0  0  0  0
  -22.7257  -10.2141   20.3034 C   0  0  0  0  0  0
  -21.6868   -6.0752   22.5265 C   0  0  0  0  0  0
  -21.4012   -6.5641   23.8198 C   0  0  0  0  0  0
  -21.3659   -5.6782   24.9148 C   0  0  0  0  0  0
  -21.6056   -4.3054   24.7189 C   0  0  0  0  0  0
  -21.8837   -3.8155   23.4310 C   0  0  0  0  0  0
  -21.9205   -4.6984   22.3363 C   0  0  0  0  0  0
  -22.7865  -13.5241   21.1776 C   0  0  0  0  0  0
  -22.1684   -4.2178   21.0938 F   0  0  0  0  0  0
  -21.5626   -3.4524   25.7697 F   0  0  0  0  0  0
  -30.0129  -13.4339   20.4486 N   0  0  0  0  0  0
  -26.3018  -12.9373   20.3347 N   0  0  0  0  0  0
  -25.9367  -11.6526   20.5790 N   0  0  0  0  0  0
  -22.0536  -12.8223   22.0359 N   0  0  0  0  0  0
  -25.4213  -15.1903   20.3693 N   0  0  0  0  0  0
  -31.7654  -14.8195   20.0581 O   0  0  0  0  0  0
  -21.6669   -6.8910   21.4239 O   0  0  0  0  0  0
  -22.3507  -14.5529   20.6614 O   0  0  0  0  0  0
  -24.6309  -31.8561   23.1986 C   0  0  0  0  0  0
  -25.9135  -32.4751   23.8338 C   0  0  1  0  0  0
  -27.2144  -27.2766   20.1091 C   0  0  0  0  0  0
  -25.5953  -33.8563   24.2267 N   0  0  0  0  0  0
  -23.4259  -30.4792   21.5444 C   0  0  2  0  0  0
  -24.8694  -28.9347   20.1043 C   0  0  0  0  0  0
  -22.7484  -29.4587   22.4926 C   0  0  0  0  0  0
  -18.0269  -28.1359   22.8467 C   0  0  0  0  0  0
  -24.1490  -36.7292   23.2628 C   0  0  0  0  0  0
  -25.9706  -30.7711   21.3772 C   0  0  0  0  0  0
  -26.0409  -29.3948   20.7185 C   0  0  0  0  0  0
  -27.2150  -28.5753   20.7142 C   0  0  0  0  0  0
  -26.0240  -26.8956   19.4438 C   0  0  0  0  0  0
  -24.8661  -27.6942   19.4536 C   0  0  0  0  0  0
  -23.6400  -29.8183   20.1587 C   0  0  0  0  0  0
  -25.4117  -36.3078   24.0319 C   0  0  1  0  0  0
  -20.5876  -28.3674   23.1260 C   0  0  2  0  0  0
  -20.6742  -26.9387   22.5392 C   0  0  0  0  0  0
  -19.5743  -26.6360   21.5175 C   0  0  0  0  0  0
  -18.1932  -26.7903   22.1599 C   0  0  0  0  0  0
  -19.1526  -28.8837   23.2858 C   0  0  0  0  0  0
  -18.9453  -30.1429   23.8891 C   0  0  0  0  0  0
  -17.6460  -30.6577   24.0541 C   0  0  0  0  0  0
  -25.9055  -34.9446   23.5091 C   0  0  0  0  0  0
  -16.5347  -29.9074   23.6318 C   0  0  0  0  0  0
  -16.7259  -28.6480   23.0359 C   0  0  0  0  0  0
  -26.4508  -31.6574   25.0726 C   0  0  0  0  0  0
  -25.3714  -31.3714   26.1431 C   0  0  0  0  0  0
  -27.0327  -30.2998   24.6161 C   0  0  0  0  0  0
  -27.6084  -32.4276   25.7525 C   0  0  0  0  0  0
  -27.5590  -37.1799   24.8458 C   0  0  0  0  0  0
  -21.4194  -29.3037   22.3667 N   0  0  0  0  0  0
  -26.4295  -37.3787   23.9410 N   0  0  0  0  0  0
  -24.6953  -31.0509   22.0980 N   0  0  0  0  0  0
  -23.4176  -28.8091   23.3005 O   0  0  0  0  0  0
  -28.3053  -26.3808   20.1847 O   0  0  0  0  0  0
  -26.5623  -34.8923   22.4654 O   0  0  0  0  0  0
  -23.5465  -32.1401   23.7296 O   0  0  0  0  0  0
  -28.5500  -19.3241   18.9222 C   0  0  0  0  0  0
  -29.6999  -18.3317   20.8165 C   0  0  0  0  0  0
  -28.9523  -16.9043   18.9932 C   0  0  0  0  0  0
  -29.2178  -19.5327   20.1530 C   0  0  0  0  0  0
  -28.3988  -18.0348   18.3560 C   0  0  0  0  0  0
  -29.5808  -16.9997   20.2516 C   0  0  0  0  0  0
  -29.3818  -20.9880   20.6806 C   0  0  0  0  0  0
  -27.6673  -17.8429   17.0733 C   0  0  0  0  0  0
  -26.5193  -18.7983   16.7635 C   0  0  0  0  0  0
  -28.6005  -22.2360   20.0565 C   0  0  0  0  0  0
  -28.9795  -23.7503   20.4735 C   0  0  0  0  0  0
  -28.0734  -24.9331   19.8739 C   0  0  0  0  0  0
  -30.1562  -21.2252   21.6515 N   0  0  0  0  0  0
  -29.8793  -15.7360   20.9443 N   0  0  0  0  0  0
  -27.8989  -16.9141   16.2943 O   0  0  0  0  0  0
  -31.4785  -12.5104   19.1805 H   0  0  0  0  0  0
  -30.3504  -11.4046   19.9082 H   0  0  0  0  0  0
  -29.7910  -11.7936   17.4793 H   0  0  0  0  0  0
  -29.6709  -13.5096   17.7815 H   0  0  0  0  0  0
  -27.8494  -11.3185   18.8276 H   0  0  0  0  0  0
  -27.4001  -12.6397   17.7838 H   0  0  0  0  0  0
  -27.6669  -14.2606   19.5454 H   0  0  0  0  0  0
  -28.7147  -12.0643   21.3881 H   0  0  0  0  0  0
  -28.4374  -13.7189   21.8580 H   0  0  0  0  0  0
  -25.2833   -9.5706   22.4690 H   0  0  0  0  0  0
  -24.0058   -7.4669   22.7476 H   0  0  0  0  0  0
  -21.0868   -8.8793   19.8936 H   0  0  0  0  0  0
  -22.3746  -10.9681   19.6127 H   0  0  0  0  0  0
  -21.2008   -7.6147   23.9709 H   0  0  0  0  0  0
  -21.1470   -6.0496   25.9054 H   0  0  0  0  0  0
  -22.0631   -2.7627   23.2766 H   0  0  0  0  0  0
  -22.4194  -11.9902   22.4734 H   0  0  0  0  0  0
  -21.1167  -13.1245   22.2618 H   0  0  0  0  0  0
  -24.6225  -15.8163   20.3612 H   0  0  0  0  0  0
  -26.2529  -15.6076   19.9698 H   0  0  0  0  0  0
  -26.7190  -32.5400   23.1078 H   0  0  0  0  0  0
  -25.0122  -33.9728   25.0424 H   0  0  0  0  0  0
  -22.7223  -31.3010   21.3998 H   0  0  0  0  0  0
  -23.3771  -35.9609   23.3264 H   0  0  0  0  0  0
  -24.3580  -36.8942   22.2046 H   0  0  0  0  0  0
  -23.7223  -37.6476   23.6663 H   0  0  0  0  0  0
  -26.0940  -31.5275   20.6004 H   0  0  0  0  0  0
  -26.8548  -30.8268   22.0016 H   0  0  0  0  0  0
  -28.1124  -28.9157   21.2120 H   0  0  0  0  0  0
  -25.9467  -25.9611   18.9086 H   0  0  0  0  0  0
  -23.9762  -27.3429   18.9504 H   0  0  0  0  0  0
  -23.7581  -30.5945   19.4027 H   0  0  0  0  0  0
  -22.7594  -29.2480   19.8555 H   0  0  0  0  0  0
  -25.1293  -36.1934   25.0815 H   0  0  0  0  0  0
  -20.9939  -28.3224   24.1383 H   0  0  0  0  0  0
  -20.5569  -26.2286   23.3598 H   0  0  0  0  0  0
  -21.6623  -26.7366   22.1237 H   0  0  0  0  0  0
  -19.6901  -25.6248   21.1251 H   0  0  0  0  0  0
  -19.6697  -27.3121   20.6661 H   0  0  0  0  0  0
  -17.4170  -26.6606   21.4020 H   0  0  0  0  0  0
  -18.0366  -26.0049   22.9007 H   0  0  0  0  0  0
  -19.7935  -30.7228   24.2285 H   0  0  0  0  0  0
  -17.5018  -31.6262   24.5121 H   0  0  0  0  0  0
  -15.5352  -30.2985   23.7638 H   0  0  0  0  0  0
  -15.8648  -28.0787   22.7127 H   0  0  0  0  0  0
  -24.5921  -30.7035   25.7732 H   0  0  0  0  0  0
  -24.8878  -32.2877   26.4828 H   0  0  0  0  0  0
  -25.8027  -30.8909   27.0221 H   0  0  0  0  0  0
  -26.2881  -29.6782   24.1170 H   0  0  0  0  0  0
  -27.3994  -29.7229   25.4656 H   0  0  0  0  0  0
  -27.8776  -30.4282   23.9395 H   0  0  0  0  0  0
  -27.2717  -33.3571   26.2142 H   0  0  0  0  0  0
  -28.3925  -32.6823   25.0372 H   0  0  0  0  0  0
  -28.0719  -31.8341   26.5430 H   0  0  0  0  0  0
  -28.2573  -38.0129   24.7545 H   0  0  0  0  0  0
  -28.1123  -36.2659   24.6235 H   0  0  0  0  0  0
  -27.2305  -37.1378   25.8859 H   0  0  0  0  0  0
  -20.9353  -29.8846   21.6965 H   0  0  0  0  0  0
  -26.0174  -38.2858   24.1440 H   0  0  0  0  0  0
  -28.1538  -20.1685   18.3826 H   0  0  0  0  0  0
  -30.1614  -18.4336   21.7875 H   0  0  0  0  0  0
  -28.8250  -15.9355   18.5284 H   0  0  0  0  0  0
  -26.8851  -19.7051   16.2857 H   0  0  0  0  0  0
  -25.9858  -19.0687   17.6755 H   0  0  0  0  0  0
  -25.8051  -18.3182   16.0940 H   0  0  0  0  0  0
  -27.5409  -22.0861   20.2688 H   0  0  0  0  0  0
  -28.6872  -22.1849   18.9699 H   0  0  0  0  0  0
  -30.0218  -23.9322   20.2139 H   0  0  0  0  0  0
  -28.9297  -23.8206   21.5612 H   0  0  0  0  0  0
  -27.0661  -24.6678   20.1934 H   0  0  0  0  0  0
  -28.0854  -24.8361   18.7856 H   0  0  0  0  0  0
  -30.6184  -20.3868   21.9853 H   0  0  0  0  0  0
  -29.1192  -15.4280   21.5370 H   0  0  0  0  0  0
  1 25  1  0  0  0
  1 30  2  0  0  0
  1 84  1  0  0  0
  2  3  1  0  0  0
  2 25  1  0  0  0
  2 86  1  0  0  0
  2 87  1  0  0  0
  3  4  1  0  0  0
  3 88  1  0  0  0
  3 89  1  0  0  0
  4  5  1  0  0  0
  4 90  1  0  0  0
  4 91  1  0  0  0
  5  6  1  0  0  0
  5 26  1  0  0  0
  5 92  1  0  0  0
  6 25  1  0  0  0
  6 93  1  0  0  0
  6 94  1  0  0  0
  7  8  2  0  0  0
  7 26  1  0  0  0
  7 29  1  0  0  0
  8  9  1  0  0  0
  8 22  1  0  0  0
  9 10  1  0  0  0
  9 27  2  0  0  0
 10 11  2  0  0  0
 10 15  1  0  0  0
 11 12  1  0  0  0
 11 95  1  0  0  0
 12 13  2  0  0  0
 12 96  1  0  0  0
 13 14  1  0  0  0
 13 31  1  0  0  0
 14 15  2  0  0  0
 14 97  1  0  0  0
 15 98  1  0  0  0
 16 17  2  0  0  0
 16 21  1  0  0  0
 16 31  1  0  0  0
 17 18  1  0  0  0
 17 99  1  0  0  0
 18 19  2  0  0  0
 18100  1  0  0  0
 19 20  1  0  0  0
 19 24  1  0  0  0
 20 21  2  0  0  0
 20101  1  0  0  0
 21 23  1  0  0  0
 22 28  1  0  0  0
 22 32  2  0  0  0
 26 27  1  0  0  0
 28102  1  0  0  0
 28103  1  0  0  0
 29104  1  0  0  0
 29105  1  0  0  0
 33 34  1  0  0  0
 33 66  1  0  0  0
 33 70  2  0  0  0
 34 36  1  0  0  0
 34 59  1  0  0  0
 34106  1  0  0  0
 35 44  2  0  0  0
 35 45  1  0  0  0
 35 68  1  0  0  0
 36 56  1  0  0  0
 36107  1  0  0  0
 37 39  1  0  0  0
 37 47  1  0  0  0
 37 66  1  0  0  0
 37108  1  0  0  0
 38 43  2  0  0  0
 38 46  1  0  0  0
 38 47  1  0  0  0
 39 64  1  0  0  0
 39 67  2  0  0  0
 40 52  1  0  0  0
 40 53  2  0  0  0
 40 58  1  0  0  0
 41109  1  0  0  0
 41110  1  0  0  0
 41111  1  0  0  0
 41 48  1  0  0  0
 42 43  1  0  0  0
 42 66  1  0  0  0
 42112  1  0  0  0
 42113  1  0  0  0
 43 44  1  0  0  0
 44114  1  0  0  0
 45 46  2  0  0  0
 45115  1  0  0  0
 46116  1  0  0  0
 47117  1  0  0  0
 47118  1  0  0  0
 48 56  1  0  0  0
 48 65  1  0  0  0
 48119  1  0  0  0
 49 50  1  0  0  0
 49 53  1  0  0  0
 49 64  1  0  0  0
 49120  1  0  0  0
 50 51  1  0  0  0
 50121  1  0  0  0
 50122  1  0  0  0
 51 52  1  0  0  0
 51123  1  0  0  0
 51124  1  0  0  0
 52125  1  0  0  0
 52126  1  0  0  0
 53 54  1  0  0  0
 54 55  2  0  0  0
 54127  1  0  0  0
 55 57  1  0  0  0
 55128  1  0  0  0
 56 69  2  0  0  0
 57 58  2  0  0  0
 57129  1  0  0  0
 58130  1  0  0  0
 59 60  1  0  0  0
 59 61  1  0  0  0
 59 62  1  0  0  0
 60131  1  0  0  0
 60132  1  0  0  0
 60133  1  0  0  0
 61134  1  0  0  0
 61135  1  0  0  0
 61136  1  0  0  0
 62137  1  0  0  0
 62138  1  0  0  0
 62139  1  0  0  0
 63 65  1  0  0  0
 63140  1  0  0  0
 63141  1  0  0  0
 63142  1  0  0  0
 64143  1  0  0  0
 65144  1  0  0  0
 68 82  1  0  0  0
 71 74  2  0  0  0
 71 75  1  0  0  0
 71145  1  0  0  0
 72 74  1  0  0  0
 72 76  2  0  0  0
 72146  1  0  0  0
 73 75  2  0  0  0
 73 76  1  0  0  0
 73147  1  0  0  0
 74 77  1  0  0  0
 75 78  1  0  0  0
 76 84  1  0  0  0
 77 80  1  0  0  0
 77 83  2  0  0  0
 78 79  1  0  0  0
 78 85  2  0  0  0
 79148  1  0  0  0
 79149  1  0  0  0
 79150  1  0  0  0
 80 81  1  0  0  0
 80151  1  0  0  0
 80152  1  0  0  0
 81 82  1  0  0  0
 81153  1  0  0  0
 81154  1  0  0  0
 82155  1  0  0  0
 82156  1  0  0  0
 83157  1  0  0  0
 84158  1  0  0  0
M  ISO  4   1 100  68 101  82 101  84 100
M  END
> <chiral flag>
0

> <version>
0

> <s_m_source_file>
/data/baiqing/PycharmProjects/Reinvent-master-3.2/result/LINK_invent/BTK/process_docking_weight1_custom_product_contain_oxygen_bond_distance_aromatic_linkinvent_7_9_3/rearranged_h_0139.sdf

> <i_m_source_file_index>
72

> <r_mmod_Potential_Energy-OPLS-2005>
84.0426559448242

> <r_mmod_Stretch_Energy-OPLS-2005>
110.765045166016

> <r_mmod_Bend_Energy-OPLS-2005>
146.012329101562

> <r_mmod_Torsional_Energy-OPLS-2005>
278.343658447266

> <r_mmod_Improper_Torsional_Energy-OPLS-2005>
7.39725828170776

> <r_mmod_Van_der_Waal_Energy-OPLS-2005>
141.616607666016

> <r_mmod_Electrostatic_Energy-OPLS-2005>
-424.370239257812

> <r_mmod_Solvation_Energy-OPLS-2005>
-240.372177124023

> <b_mmod_Minimization_Converged-OPLS-2005>
0

> <r_mmod_RMS_Derivative-OPLS-2005>
3.81723189353943

$$$$
72
                    3D
 Structure written by MMmdl.
160168  0  0  1  0            999 V2000
  -30.6773  -14.7035   20.5699 C   0  0  0  0  0  0
  -30.4272  -12.4687   19.4627 C   0  0  0  0  0  0
  -29.4989  -12.5480   18.2315 C   0  0  0  0  0  0
  -28.0259  -12.3721   18.6471 C   0  0  0  0  0  0
  -27.6510  -13.2364   19.8822 C   0  0  2  0  0  0
  -28.7082  -13.0825   20.9984 C   0  0  0  0  0  0
  -25.2480  -13.8183   20.5676 C   0  0  0  0  0  0
  -24.1785  -13.0426   20.9189 C   0  0  0  0  0  0
  -24.6399  -11.6910   20.8761 C   0  0  0  0  0  0
  -23.9078  -10.4284   21.0408 C   0  0  0  0  0  0
  -24.3624   -9.4196   21.9186 C   0  0  0  0  0  0
  -23.6292   -8.2233   22.0756 C   0  0  0  0  0  0
  -22.4272   -8.0274   21.3542 C   0  0  0  0  0  0
  -21.9910   -9.0253   20.4644 C   0  0  0  0  0  0
  -22.7247  -10.2131   20.3055 C   0  0  0  0  0  0
  -21.6854   -6.0725   22.5277 C   0  0  0  0  0  0
  -21.4012   -6.5631   23.8207 C   0  0  0  0  0  0
  -21.3661   -5.6788   24.9170 C   0  0  0  0  0  0
  -21.6048   -4.3050   24.7225 C   0  0  0  0  0  0
  -21.8818   -3.8138   23.4345 C   0  0  0  0  0  0
  -21.9192   -4.6953   22.3399 C   0  0  0  0  0  0
  -22.7802  -13.5203   21.1844 C   0  0  0  0  0  0
  -22.1665   -4.2139   21.0977 F   0  0  0  0  0  0
  -21.5633   -3.4533   25.7738 F   0  0  0  0  0  0
  -29.9939  -13.5060   20.4389 N   0  0  0  0  0  0
  -26.2986  -12.9427   20.3472 N   0  0  0  0  0  0
  -25.9351  -11.6551   20.5838 N   0  0  0  0  0  0
  -22.0469  -12.8199   22.0417 N   0  0  0  0  0  0
  -25.4042  -15.1880   20.3912 N   0  0  0  0  0  0
  -31.7861  -14.8022   20.0419 O   0  0  0  0  0  0
  -21.6636   -6.8873   21.4239 O   0  0  0  0  0  0
  -22.3468  -14.5499   20.6693 O   0  0  0  0  0  0
  -24.6288  -31.8582   23.2031 C   0  0  0  0  0  0
  -25.9131  -32.4766   23.8356 C   0  0  1  0  0  0
  -27.2057  -27.2658   20.1404 C   0  0  0  0  0  0
  -25.5934  -33.8567   24.2273 N   0  0  0  0  0  0
  -23.4254  -30.4826   21.5451 C   0  0  2  0  0  0
  -24.8745  -28.9364   20.1090 C   0  0  0  0  0  0
  -22.7490  -29.4614   22.4918 C   0  0  0  0  0  0
  -18.0309  -28.1376   22.8478 C   0  0  0  0  0  0
  -24.1496  -36.7293   23.2635 C   0  0  0  0  0  0
  -25.9711  -30.7671   21.3915 C   0  0  0  0  0  0
  -26.0403  -29.3880   20.7423 C   0  0  0  0  0  0
  -27.2073  -28.5586   20.7630 C   0  0  0  0  0  0
  -26.0573  -26.9354   19.3993 C   0  0  0  0  0  0
  -24.8868  -27.7136   19.4252 C   0  0  0  0  0  0
  -23.6446  -29.8205   20.1593 C   0  0  0  0  0  0
  -25.4118  -36.3076   24.0324 C   0  0  1  0  0  0
  -20.5901  -28.3709   23.1275 C   0  0  2  0  0  0
  -20.6807  -26.9424   22.5444 C   0  0  0  0  0  0
  -19.5798  -26.6369   21.5237 C   0  0  0  0  0  0
  -18.1971  -26.7907   22.1650 C   0  0  0  0  0  0
  -19.1552  -28.8865   23.2859 C   0  0  0  0  0  0
  -18.9467  -30.1466   23.8864 C   0  0  0  0  0  0
  -17.6463  -30.6591   24.0521 C   0  0  0  0  0  0
  -25.9052  -34.9442   23.5097 C   0  0  0  0  0  0
  -16.5357  -29.9072   23.6307 C   0  0  0  0  0  0
  -16.7289  -28.6481   23.0346 C   0  0  0  0  0  0
  -26.4500  -31.6585   25.0740 C   0  0  0  0  0  0
  -25.3717  -31.3745   26.1457 C   0  0  0  0  0  0
  -27.0347  -30.2997   24.6233 C   0  0  0  0  0  0
  -27.6053  -32.4329   25.7513 C   0  0  0  0  0  0
  -27.5580  -37.1801   24.8462 C   0  0  0  0  0  0
  -21.4198  -29.3061   22.3664 N   0  0  0  0  0  0
  -26.4295  -37.3773   23.9403 N   0  0  0  0  0  0
  -24.6933  -31.0544   22.1022 N   0  0  0  0  0  0
  -23.4193  -28.8145   23.3007 O   0  0  0  0  0  0
  -28.2895  -26.3631   20.1344 O   0  0  0  0  0  0
  -26.5625  -34.8910   22.4666 O   0  0  0  0  0  0
  -23.5437  -32.1412   23.7320 O   0  0  0  0  0  0
  -27.4134  -19.0343   21.5666 C   0  0  0  0  0  0
  -27.1249  -17.7345   21.9963 C   0  0  0  0  0  0
  -29.5772  -18.2753   20.8004 C   0  0  0  0  0  0
  -28.6483  -19.3969   20.9721 C   0  0  0  0  0  0
  -29.2904  -16.8952   21.2139 C   0  0  0  0  0  0
  -28.0537  -16.6988   21.8629 C   0  0  0  0  0  0
  -26.0420  -23.9458   20.1851 C   0  0  0  0  0  0
  -27.5087  -22.2332   22.3569 C   0  0  0  0  0  0
  -28.9099  -20.9539   20.5649 C   0  0  0  0  0  0
  -28.2502  -25.0003   20.8005 C   0  0  0  0  0  0
  -27.5836  -23.6381   20.1915 C   0  0  1  0  0  0
  -27.7681  -22.1109   20.8367 C   0  0  2  0  0  0
  -30.2737  -15.7916   21.3277 N   0  0  0  0  0  0
  -26.7248  -21.4400   20.1452 O   0  0  0  0  0  0
  -27.7644  -15.5380   22.4805 F   0  0  0  0  0  0
  -31.4659  -12.5858   19.1501 H   0  0  0  0  0  0
  -30.3823  -11.4754   19.9130 H   0  0  0  0  0  0
  -29.7773  -11.7925   17.4955 H   0  0  0  0  0  0
  -29.6251  -13.5146   17.7409 H   0  0  0  0  0  0
  -27.8732  -11.3168   18.8780 H   0  0  0  0  0  0
  -27.3647  -12.5987   17.8101 H   0  0  0  0  0  0
  -27.6657  -14.2771   19.5567 H   0  0  0  0  0  0
  -28.7547  -12.0403   21.3162 H   0  0  0  0  0  0
  -28.4733  -13.6107   21.9081 H   0  0  0  0  0  0
  -25.2769   -9.5664   22.4766 H   0  0  0  0  0  0
  -23.9992   -7.4623   22.7478 H   0  0  0  0  0  0
  -21.0840   -8.8774   19.8955 H   0  0  0  0  0  0
  -22.3703  -10.9670   19.6163 H   0  0  0  0  0  0
  -21.2005   -7.6140   23.9699 H   0  0  0  0  0  0
  -21.1488   -6.0526   25.9073 H   0  0  0  0  0  0
  -22.0597   -2.7600   23.2849 H   0  0  0  0  0  0
  -22.4097  -11.9856   22.4791 H   0  0  0  0  0  0
  -21.1084  -13.1207   22.2628 H   0  0  0  0  0  0
  -24.6436  -15.8440   20.5239 H   0  0  0  0  0  0
  -26.2789  -15.6308   20.1484 H   0  0  0  0  0  0
  -26.7193  -32.5432   23.1093 H   0  0  0  0  0  0
  -25.0073  -33.9717   25.0410 H   0  0  0  0  0  0
  -22.7216  -31.3054   21.4013 H   0  0  0  0  0  0
  -23.3754  -35.9632   23.3294 H   0  0  0  0  0  0
  -24.3582  -36.8914   22.2048 H   0  0  0  0  0  0
  -23.7255  -37.6494   23.6663 H   0  0  0  0  0  0
  -26.1107  -31.5227   20.6168 H   0  0  0  0  0  0
  -26.8493  -30.8179   22.0233 H   0  0  0  0  0  0
  -28.0955  -28.8933   21.2808 H   0  0  0  0  0  0
  -26.0607  -26.0512   18.7853 H   0  0  0  0  0  0
  -24.0131  -27.3830   18.8816 H   0  0  0  0  0  0
  -23.7650  -30.5987   19.4049 H   0  0  0  0  0  0
  -22.7649  -29.2511   19.8549 H   0  0  0  0  0  0
  -25.1298  -36.1921   25.0817 H   0  0  0  0  0  0
  -20.9987  -28.3311   24.1399 H   0  0  0  0  0  0
  -20.5693  -26.2339   23.3664 H   0  0  0  0  0  0
  -21.6692  -26.7447   22.1278 H   0  0  0  0  0  0
  -19.6975  -25.6268   21.1300 H   0  0  0  0  0  0
  -19.6750  -27.3155   20.6745 H   0  0  0  0  0  0
  -17.4225  -26.6599   21.4082 H   0  0  0  0  0  0
  -18.0418  -26.0072   22.9078 H   0  0  0  0  0  0
  -19.7939  -30.7300   24.2223 H   0  0  0  0  0  0
  -17.5002  -31.6281   24.5094 H   0  0  0  0  0  0
  -15.5353  -30.2965   23.7624 H   0  0  0  0  0  0
  -15.8687  -28.0794   22.7080 H   0  0  0  0  0  0
  -24.5903  -30.7078   25.7788 H   0  0  0  0  0  0
  -24.8901  -32.2919   26.4852 H   0  0  0  0  0  0
  -25.8027  -30.8947   27.0251 H   0  0  0  0  0  0
  -26.2935  -29.6746   24.1240 H   0  0  0  0  0  0
  -27.3994  -29.7259   25.4759 H   0  0  0  0  0  0
  -27.8831  -30.4260   23.9505 H   0  0  0  0  0  0
  -27.2657  -33.3635   26.2077 H   0  0  0  0  0  0
  -28.3874  -32.6875   25.0348 H   0  0  0  0  0  0
  -28.0714  -31.8464   26.5439 H   0  0  0  0  0  0
  -28.2592  -38.0101   24.7503 H   0  0  0  0  0  0
  -28.1074  -36.2626   24.6294 H   0  0  0  0  0  0
  -27.2292  -37.1462   25.8862 H   0  0  0  0  0  0
  -20.9377  -29.8789   21.6875 H   0  0  0  0  0  0
  -26.0168  -38.2846   24.1399 H   0  0  0  0  0  0
  -26.6287  -19.7467   21.7530 H   0  0  0  0  0  0
  -26.1860  -17.5385   22.4923 H   0  0  0  0  0  0
  -30.5500  -18.4909   20.3815 H   0  0  0  0  0  0
  -25.6460  -23.9827   19.1698 H   0  0  0  0  0  0
  -25.8062  -24.8706   20.7017 H   0  0  0  0  0  0
  -25.4025  -23.2632   20.7434 H   0  0  0  0  0  0
  -28.2697  -22.8696   22.8089 H   0  0  0  0  0  0
  -27.5649  -21.2917   22.8966 H   0  0  0  0  0  0
  -26.5441  -22.6808   22.5908 H   0  0  0  0  0  0
  -29.1640  -20.9597   19.5040 H   0  0  0  0  0  0
  -29.8259  -21.2629   21.0699 H   0  0  0  0  0  0
  -29.2990  -24.7591   20.9741 H   0  0  0  0  0  0
  -27.8480  -25.1601   21.8020 H   0  0  0  0  0  0
  -27.9201  -23.5779   19.1555 H   0  0  0  0  0  0
  -31.1509  -16.2076   21.5999 H   0  0  0  0  0  0
  -26.0308  -22.0740   20.0020 H   0  0  0  0  0  0
  1 25  1  0  0  0
  1 30  2  0  0  0
  1 83  1  0  0  0
  2  3  1  0  0  0
  2 25  1  0  0  0
  2 86  1  0  0  0
  2 87  1  0  0  0
  3  4  1  0  0  0
  3 88  1  0  0  0
  3 89  1  0  0  0
  4  5  1  0  0  0
  4 90  1  0  0  0
  4 91  1  0  0  0
  5  6  1  0  0  0
  5 26  1  0  0  0
  5 92  1  0  0  0
  6 25  1  0  0  0
  6 93  1  0  0  0
  6 94  1  0  0  0
  7  8  2  0  0  0
  7 26  1  0  0  0
  7 29  1  0  0  0
  8  9  1  0  0  0
  8 22  1  0  0  0
  9 10  1  0  0  0
  9 27  2  0  0  0
 10 11  2  0  0  0
 10 15  1  0  0  0
 11 12  1  0  0  0
 11 95  1  0  0  0
 12 13  2  0  0  0
 12 96  1  0  0  0
 13 14  1  0  0  0
 13 31  1  0  0  0
 14 15  2  0  0  0
 14 97  1  0  0  0
 15 98  1  0  0  0
 16 17  2  0  0  0
 16 21  1  0  0  0
 16 31  1  0  0  0
 17 18  1  0  0  0
 17 99  1  0  0  0
 18 19  2  0  0  0
 18100  1  0  0  0
 19 20  1  0  0  0
 19 24  1  0  0  0
 20 21  2  0  0  0
 20101  1  0  0  0
 21 23  1  0  0  0
 22 28  1  0  0  0
 22 32  2  0  0  0
 26 27  1  0  0  0
 28102  1  0  0  0
 28103  1  0  0  0
 29104  1  0  0  0
 29105  1  0  0  0
 33 34  1  0  0  0
 33 66  1  0  0  0
 33 70  2  0  0  0
 34 36  1  0  0  0
 34 59  1  0  0  0
 34106  1  0  0  0
 35 44  2  0  0  0
 35 45  1  0  0  0
 35 68  1  0  0  0
 36 56  1  0  0  0
 36107  1  0  0  0
 37 39  1  0  0  0
 37 47  1  0  0  0
 37 66  1  0  0  0
 37108  1  0  0  0
 38 43  2  0  0  0
 38 46  1  0  0  0
 38 47  1  0  0  0
 39 64  1  0  0  0
 39 67  2  0  0  0
 40 52  1  0  0  0
 40 53  2  0  0  0
 40 58  1  0  0  0
 41109  1  0  0  0
 41110  1  0  0  0
 41111  1  0  0  0
 41 48  1  0  0  0
 42 43  1  0  0  0
 42 66  1  0  0  0
 42112  1  0  0  0
 42113  1  0  0  0
 43 44  1  0  0  0
 44114  1  0  0  0
 45 46  2  0  0  0
 45115  1  0  0  0
 46116  1  0  0  0
 47117  1  0  0  0
 47118  1  0  0  0
 48 56  1  0  0  0
 48 65  1  0  0  0
 48119  1  0  0  0
 49 50  1  0  0  0
 49 53  1  0  0  0
 49 64  1  0  0  0
 49120  1  0  0  0
 50 51  1  0  0  0
 50121  1  0  0  0
 50122  1  0  0  0
 51 52  1  0  0  0
 51123  1  0  0  0
 51124  1  0  0  0
 52125  1  0  0  0
 52126  1  0  0  0
 53 54  1  0  0  0
 54 55  2  0  0  0
 54127  1  0  0  0
 55 57  1  0  0  0
 55128  1  0  0  0
 56 69  2  0  0  0
 57 58  2  0  0  0
 57129  1  0  0  0
 58130  1  0  0  0
 59 60  1  0  0  0
 59 61  1  0  0  0
 59 62  1  0  0  0
 60131  1  0  0  0
 60132  1  0  0  0
 60133  1  0  0  0
 61134  1  0  0  0
 61135  1  0  0  0
 61136  1  0  0  0
 62137  1  0  0  0
 62138  1  0  0  0
 62139  1  0  0  0
 63 65  1  0  0  0
 63140  1  0  0  0
 63141  1  0  0  0
 63142  1  0  0  0
 64143  1  0  0  0
 65144  1  0  0  0
 68 80  1  0  0  0
 71 72  2  0  0  0
 71 74  1  0  0  0
 71145  1  0  0  0
 72 76  1  0  0  0
 72146  1  0  0  0
 73 74  2  0  0  0
 73 75  1  0  0  0
 73147  1  0  0  0
 74 79  1  0  0  0
 75 76  2  0  0  0
 75 83  1  0  0  0
 76 85  1  0  0  0
 77148  1  0  0  0
 77149  1  0  0  0
 77150  1  0  0  0
 77 81  1  0  0  0
 78151  1  0  0  0
 78152  1  0  0  0
 78153  1  0  0  0
 78 82  1  0  0  0
 79 82  1  0  0  0
 79154  1  0  0  0
 79155  1  0  0  0
 80 81  1  0  0  0
 80156  1  0  0  0
 80157  1  0  0  0
 81 82  1  0  0  0
 81158  1  0  0  0
 82 84  1  0  0  0
 83159  1  0  0  0
 84160  1  0  0  0
M  ISO  4   1 100  68 101  80 101  83 100
M  END
> <chiral flag>
0

> <version>
0

> <s_m_source_file>
/data/baiqing/PycharmProjects/Reinvent-master-3.2/result/LINK_invent/BTK/process_docking_weight1_custom_product_contain_oxygen_bond_distance_aromatic_linkinvent_7_9_3/rearranged_h_0139.sdf

> <i_m_source_file_index>
73

> <r_mmod_Potential_Energy-OPLS-2005>
413.156158447266

> <r_mmod_Stretch_Energy-OPLS-2005>
163.915451049805

> <r_mmod_Bend_Energy-OPLS-2005>
301.472412109375

> <r_mmod_Torsional_Energy-OPLS-2005>
306.208465576172

> <r_mmod_Improper_Torsional_Energy-OPLS-2005>
9.79993915557861

> <r_mmod_Van_der_Waal_Energy-OPLS-2005>
180.078994750977

> <r_mmod_Electrostatic_Energy-OPLS-2005>
-427.512756347656

> <r_mmod_Solvation_Energy-OPLS-2005>
-192.507293701172

> <b_mmod_Minimization_Converged-OPLS-2005>
0

> <r_mmod_RMS_Derivative-OPLS-2005>
1.25132310390472

$$$$
73
                    3D
 Structure written by MMmdl.
162170  0  0  1  0            999 V2000
  -30.6984  -14.4960   20.5738 C   0  0  0  0  0  0
  -30.4113  -12.3198   19.4465 C   0  0  0  0  0  0
  -29.4933  -12.5107   18.2192 C   0  0  0  0  0  0
  -28.0117  -12.3737   18.6250 C   0  0  0  0  0  0
  -27.6543  -13.2159   19.8796 C   0  0  2  0  0  0
  -28.6876  -13.0204   21.0096 C   0  0  0  0  0  0
  -25.2504  -13.8186   20.5671 C   0  0  0  0  0  0
  -24.1786  -13.0455   20.9172 C   0  0  0  0  0  0
  -24.6346  -11.6928   20.8737 C   0  0  0  0  0  0
  -23.9020  -10.4314   21.0401 C   0  0  0  0  0  0
  -24.3577   -9.4250   21.9173 C   0  0  0  0  0  0
  -23.6278   -8.2265   22.0740 C   0  0  0  0  0  0
  -22.4260   -8.0264   21.3530 C   0  0  0  0  0  0
  -21.9891   -9.0239   20.4646 C   0  0  0  0  0  0
  -22.7181  -10.2142   20.3068 C   0  0  0  0  0  0
  -21.6871   -6.0750   22.5281 C   0  0  0  0  0  0
  -21.4011   -6.5660   23.8200 C   0  0  0  0  0  0
  -21.3652   -5.6814   24.9177 C   0  0  0  0  0  0
  -21.6031   -4.3069   24.7220 C   0  0  0  0  0  0
  -21.8814   -3.8152   23.4343 C   0  0  0  0  0  0
  -21.9196   -4.6988   22.3397 C   0  0  0  0  0  0
  -22.7810  -13.5273   21.1851 C   0  0  0  0  0  0
  -22.1656   -4.2171   21.0982 F   0  0  0  0  0  0
  -21.5641   -3.4540   25.7728 F   0  0  0  0  0  0
  -30.0210  -13.3199   20.4623 N   0  0  0  0  0  0
  -26.2970  -12.9387   20.3368 N   0  0  0  0  0  0
  -25.9282  -11.6539   20.5744 N   0  0  0  0  0  0
  -22.0483  -12.8237   22.0433 N   0  0  0  0  0  0
  -25.4252  -15.1876   20.3993 N   0  0  0  0  0  0
  -31.8501  -14.6164   20.1398 O   0  0  0  0  0  0
  -21.6645   -6.8860   21.4217 O   0  0  0  0  0  0
  -22.3497  -14.5588   20.6740 O   0  0  0  0  0  0
  -24.6192  -31.8605   23.2108 C   0  0  0  0  0  0
  -25.9069  -32.4763   23.8395 C   0  0  1  0  0  0
  -27.2211  -27.3807   20.1315 C   0  0  0  0  0  0
  -25.5906  -33.8563   24.2314 N   0  0  0  0  0  0
  -23.4118  -30.4867   21.5529 C   0  0  2  0  0  0
  -24.8615  -28.9517   20.1143 C   0  0  0  0  0  0
  -22.7415  -29.4662   22.4989 C   0  0  0  0  0  0
  -18.0262  -28.1357   22.8490 C   0  0  0  0  0  0
  -24.1510  -36.7331   23.2642 C   0  0  0  0  0  0
  -25.9500  -30.8112   21.3767 C   0  0  0  0  0  0
  -26.0225  -29.4436   20.7230 C   0  0  0  0  0  0
  -27.2098  -28.6682   20.7310 C   0  0  0  0  0  0
  -26.0550  -26.9260   19.4866 C   0  0  0  0  0  0
  -24.8766  -27.6940   19.4844 C   0  0  0  0  0  0
  -23.6202  -29.8160   20.1684 C   0  0  0  0  0  0
  -25.4117  -36.3054   24.0329 C   0  0  1  0  0  0
  -20.5853  -28.3657   23.1282 C   0  0  2  0  0  0
  -20.6754  -26.9376   22.5388 C   0  0  0  0  0  0
  -19.5726  -26.6356   21.5188 C   0  0  0  0  0  0
  -18.1912  -26.7895   22.1630 C   0  0  0  0  0  0
  -19.1506  -28.8825   23.2893 C   0  0  0  0  0  0
  -18.9422  -30.1421   23.8903 C   0  0  0  0  0  0
  -17.6423  -30.6555   24.0544 C   0  0  0  0  0  0
  -25.9025  -34.9418   23.5091 C   0  0  0  0  0  0
  -16.5321  -29.9045   23.6327 C   0  0  0  0  0  0
  -16.7250  -28.6469   23.0356 C   0  0  0  0  0  0
  -26.4510  -31.6519   25.0703 C   0  0  0  0  0  0
  -25.3808  -31.3621   26.1451 C   0  0  0  0  0  0
  -27.0319  -30.2933   24.6114 C   0  0  0  0  0  0
  -27.6050  -32.4281   25.7458 C   0  0  0  0  0  0
  -27.5586  -37.1804   24.8442 C   0  0  0  0  0  0
  -21.4151  -29.3028   22.3702 N   0  0  0  0  0  0
  -26.4304  -37.3721   23.9377 N   0  0  0  0  0  0
  -24.6799  -31.0665   22.1044 N   0  0  0  0  0  0
  -23.4147  -28.8194   23.3055 O   0  0  0  0  0  0
  -28.3198  -26.5342   20.1316 O   0  0  0  0  0  0
  -26.5596  -34.8877   22.4657 O   0  0  0  0  0  0
  -23.5371  -32.1418   23.7471 O   0  0  0  0  0  0
  -30.8343  -18.8336   19.8775 C   0  0  0  0  0  0
  -31.0434  -17.4278   19.8429 C   0  0  0  0  0  0
  -29.8799  -19.0830   20.8294 C   0  0  0  0  0  0
  -30.2184  -16.8915   20.8001 C   0  0  0  0  0  0
  -30.2011  -24.5766   19.5287 C   0  0  0  0  0  0
  -29.2548  -26.3336   22.2942 C   0  0  0  0  0  0
  -27.1123  -25.0977   21.8233 C   0  0  0  0  0  0
  -29.1933  -20.3611   21.2857 C   0  0  0  0  0  0
  -29.5646  -21.6349   20.4613 C   0  0  0  0  0  0
  -28.6493  -22.8810   20.6964 C   0  0  0  0  0  0
  -29.3529  -24.2860   20.7846 C   0  0  2  0  0  0
  -28.4710  -25.5533   21.2173 C   0  0  0  0  0  0
  -30.0182  -15.5609   21.0758 N   0  0  0  0  0  0
  -29.5018  -17.8905   21.4171 O   0  0  0  0  0  0
  -31.4576  -12.4059   19.1512 H   0  0  0  0  0  0
  -30.2996  -11.3123   19.8434 H   0  0  0  0  0  0
  -29.7285  -11.7786   17.4438 H   0  0  0  0  0  0
  -29.6650  -13.4959   17.7808 H   0  0  0  0  0  0
  -27.8130  -11.3163   18.8053 H   0  0  0  0  0  0
  -27.3714  -12.6602   17.7944 H   0  0  0  0  0  0
  -27.6971  -14.2643   19.5778 H   0  0  0  0  0  0
  -28.6589  -11.9964   21.3812 H   0  0  0  0  0  0
  -28.4476  -13.6604   21.8603 H   0  0  0  0  0  0
  -25.2731   -9.5783   22.4738 H   0  0  0  0  0  0
  -24.0039   -7.4680   22.7462 H   0  0  0  0  0  0
  -21.0828   -8.8698   19.8949 H   0  0  0  0  0  0
  -22.3571  -10.9666   19.6167 H   0  0  0  0  0  0
  -21.1984   -7.6162   23.9705 H   0  0  0  0  0  0
  -21.1481   -6.0546   25.9069 H   0  0  0  0  0  0
  -22.0599   -2.7612   23.2830 H   0  0  0  0  0  0
  -22.4080  -11.9873   22.4815 H   0  0  0  0  0  0
  -21.1084  -13.1214   22.2666 H   0  0  0  0  0  0
  -24.6556  -15.8457   20.4765 H   0  0  0  0  0  0
  -26.2826  -15.6174   20.0750 H   0  0  0  0  0  0
  -26.7098  -32.5470   23.1111 H   0  0  0  0  0  0
  -24.9959  -33.9749   25.0397 H   0  0  0  0  0  0
  -22.7049  -31.3096   21.4137 H   0  0  0  0  0  0
  -23.3717  -35.9713   23.3310 H   0  0  0  0  0  0
  -24.3626  -36.8962   22.2059 H   0  0  0  0  0  0
  -23.7345  -37.6574   23.6658 H   0  0  0  0  0  0
  -26.0743  -31.5764   20.6088 H   0  0  0  0  0  0
  -26.8312  -30.8542   22.0044 H   0  0  0  0  0  0
  -28.0996  -29.0493   21.2132 H   0  0  0  0  0  0
  -26.0559  -25.9509   19.0198 H   0  0  0  0  0  0
  -23.9901  -27.3148   18.9941 H   0  0  0  0  0  0
  -23.7144  -30.5902   19.4050 H   0  0  0  0  0  0
  -22.7522  -29.2157   19.8860 H   0  0  0  0  0  0
  -25.1308  -36.1902   25.0825 H   0  0  0  0  0  0
  -20.9941  -28.3197   24.1400 H   0  0  0  0  0  0
  -20.5601  -26.2267   23.3583 H   0  0  0  0  0  0
  -21.6639  -26.7377   22.1197 H   0  0  0  0  0  0
  -19.6903  -25.6265   21.1203 H   0  0  0  0  0  0
  -19.6657  -27.3187   20.6730 H   0  0  0  0  0  0
  -17.4169  -26.6601   21.4052 H   0  0  0  0  0  0
  -18.0362  -26.0032   22.9036 H   0  0  0  0  0  0
  -19.7881  -30.7232   24.2283 H   0  0  0  0  0  0
  -17.4956  -31.6232   24.5119 H   0  0  0  0  0  0
  -15.5314  -30.2937   23.7606 H   0  0  0  0  0  0
  -15.8672  -28.0749   22.7097 H   0  0  0  0  0  0
  -24.5933  -30.7057   25.7734 H   0  0  0  0  0  0
  -24.9122  -32.2795   26.4990 H   0  0  0  0  0  0
  -25.8167  -30.8664   27.0132 H   0  0  0  0  0  0
  -26.2865  -29.6710   24.1140 H   0  0  0  0  0  0
  -27.3993  -29.7110   25.4568 H   0  0  0  0  0  0
  -27.8740  -30.4207   23.9321 H   0  0  0  0  0  0
  -27.2556  -33.3461   26.2179 H   0  0  0  0  0  0
  -28.3717  -32.7043   25.0214 H   0  0  0  0  0  0
  -28.0867  -31.8382   26.5256 H   0  0  0  0  0  0
  -28.2524  -38.0160   24.7433 H   0  0  0  0  0  0
  -28.1138  -36.2661   24.6284 H   0  0  0  0  0  0
  -27.2300  -37.1473   25.8844 H   0  0  0  0  0  0
  -20.9306  -29.8727   21.6905 H   0  0  0  0  0  0
  -26.0184  -38.2785   24.1365 H   0  0  0  0  0  0
  -31.3098  -19.5726   19.2497 H   0  0  0  0  0  0
  -31.6954  -16.8922   19.1687 H   0  0  0  0  0  0
  -29.6261  -24.4169   18.6172 H   0  0  0  0  0  0
  -31.0962  -23.9541   19.4795 H   0  0  0  0  0  0
  -30.5510  -25.6070   19.5049 H   0  0  0  0  0  0
  -28.7127  -27.2075   22.6552 H   0  0  0  0  0  0
  -30.2059  -26.6990   21.9085 H   0  0  0  0  0  0
  -29.4810  -25.7081   23.1585 H   0  0  0  0  0  0
  -26.4972  -25.9318   22.1580 H   0  0  0  0  0  0
  -27.2452  -24.4464   22.6893 H   0  0  0  0  0  0
  -26.5173  -24.5440   21.1005 H   0  0  0  0  0  0
  -28.1115  -20.2203   21.2329 H   0  0  0  0  0  0
  -29.4294  -20.5443   22.3372 H   0  0  0  0  0  0
  -29.4798  -21.3722   19.4051 H   0  0  0  0  0  0
  -30.6166  -21.8762   20.6281 H   0  0  0  0  0  0
  -28.1054  -22.6977   21.6242 H   0  0  0  0  0  0
  -27.9017  -22.9043   19.9010 H   0  0  0  0  0  0
  -30.0799  -24.1272   21.5836 H   0  0  0  0  0  0
  -29.1700  -15.3464   21.5799 H   0  0  0  0  0  0
  1 25  1  0  0  0
  1 30  2  0  0  0
  1 83  1  0  0  0
  2  3  1  0  0  0
  2 25  1  0  0  0
  2 85  1  0  0  0
  2 86  1  0  0  0
  3  4  1  0  0  0
  3 87  1  0  0  0
  3 88  1  0  0  0
  4  5  1  0  0  0
  4 89  1  0  0  0
  4 90  1  0  0  0
  5  6  1  0  0  0
  5 26  1  0  0  0
  5 91  1  0  0  0
  6 25  1  0  0  0
  6 92  1  0  0  0
  6 93  1  0  0  0
  7  8  2  0  0  0
  7 26  1  0  0  0
  7 29  1  0  0  0
  8  9  1  0  0  0
  8 22  1  0  0  0
  9 10  1  0  0  0
  9 27  2  0  0  0
 10 11  2  0  0  0
 10 15  1  0  0  0
 11 12  1  0  0  0
 11 94  1  0  0  0
 12 13  2  0  0  0
 12 95  1  0  0  0
 13 14  1  0  0  0
 13 31  1  0  0  0
 14 15  2  0  0  0
 14 96  1  0  0  0
 15 97  1  0  0  0
 16 17  2  0  0  0
 16 21  1  0  0  0
 16 31  1  0  0  0
 17 18  1  0  0  0
 17 98  1  0  0  0
 18 19  2  0  0  0
 18 99  1  0  0  0
 19 20  1  0  0  0
 19 24  1  0  0  0
 20 21  2  0  0  0
 20100  1  0  0  0
 21 23  1  0  0  0
 22 28  1  0  0  0
 22 32  2  0  0  0
 26 27  1  0  0  0
 28101  1  0  0  0
 28102  1  0  0  0
 29103  1  0  0  0
 29104  1  0  0  0
 33 34  1  0  0  0
 33 66  1  0  0  0
 33 70  2  0  0  0
 34 36  1  0  0  0
 34 59  1  0  0  0
 34105  1  0  0  0
 35 44  2  0  0  0
 35 45  1  0  0  0
 35 68  1  0  0  0
 36 56  1  0  0  0
 36106  1  0  0  0
 37 39  1  0  0  0
 37 47  1  0  0  0
 37 66  1  0  0  0
 37107  1  0  0  0
 38 43  2  0  0  0
 38 46  1  0  0  0
 38 47  1  0  0  0
 39 64  1  0  0  0
 39 67  2  0  0  0
 40 52  1  0  0  0
 40 53  2  0  0  0
 40 58  1  0  0  0
 41108  1  0  0  0
 41109  1  0  0  0
 41110  1  0  0  0
 41 48  1  0  0  0
 42 43  1  0  0  0
 42 66  1  0  0  0
 42111  1  0  0  0
 42112  1  0  0  0
 43 44  1  0  0  0
 44113  1  0  0  0
 45 46  2  0  0  0
 45114  1  0  0  0
 46115  1  0  0  0
 47116  1  0  0  0
 47117  1  0  0  0
 48 56  1  0  0  0
 48 65  1  0  0  0
 48118  1  0  0  0
 49 50  1  0  0  0
 49 53  1  0  0  0
 49 64  1  0  0  0
 49119  1  0  0  0
 50 51  1  0  0  0
 50120  1  0  0  0
 50121  1  0  0  0
 51 52  1  0  0  0
 51122  1  0  0  0
 51123  1  0  0  0
 52124  1  0  0  0
 52125  1  0  0  0
 53 54  1  0  0  0
 54 55  2  0  0  0
 54126  1  0  0  0
 55 57  1  0  0  0
 55127  1  0  0  0
 56 69  2  0  0  0
 57 58  2  0  0  0
 57128  1  0  0  0
 58129  1  0  0  0
 59 60  1  0  0  0
 59 61  1  0  0  0
 59 62  1  0  0  0
 60130  1  0  0  0
 60131  1  0  0  0
 60132  1  0  0  0
 61133  1  0  0  0
 61134  1  0  0  0
 61135  1  0  0  0
 62136  1  0  0  0
 62137  1  0  0  0
 62138  1  0  0  0
 63 65  1  0  0  0
 63139  1  0  0  0
 63140  1  0  0  0
 63141  1  0  0  0
 64142  1  0  0  0
 65143  1  0  0  0
 68 82  1  0  0  0
 71 72  1  0  0  0
 71 73  2  0  0  0
 71144  1  0  0  0
 72 74  2  0  0  0
 72145  1  0  0  0
 73 78  1  0  0  0
 73 84  1  0  0  0
 74 83  1  0  0  0
 74 84  1  0  0  0
 75146  1  0  0  0
 75147  1  0  0  0
 75148  1  0  0  0
 75 81  1  0  0  0
 76149  1  0  0  0
 76150  1  0  0  0
 76151  1  0  0  0
 76 82  1  0  0  0
 77 82  1  0  0  0
 77152  1  0  0  0
 77153  1  0  0  0
 77154  1  0  0  0
 78 79  1  0  0  0
 78155  1  0  0  0
 78156  1  0  0  0
 79 80  1  0  0  0
 79157  1  0  0  0
 79158  1  0  0  0
 80 81  1  0  0  0
 80159  1  0  0  0
 80160  1  0  0  0
 81 82  1  0  0  0
 81161  1  0  0  0
 83162  1  0  0  0
M  ISO  4   1 100  68 101  82 101  83 100
M  END
> <chiral flag>
0

> <version>
0

> <s_m_source_file>
/data/baiqing/PycharmProjects/Reinvent-master-3.2/result/LINK_invent/BTK/process_docking_weight1_custom_product_contain_oxygen_bond_distance_aromatic_linkinvent_7_9_3/rearranged_h_0139.sdf

> <i_m_source_file_index>
74

> <r_mmod_Potential_Energy-OPLS-2005>
5.34047269821167

> <r_mmod_Stretch_Energy-OPLS-2005>
53.9869728088379

> <r_mmod_Bend_Energy-OPLS-2005>
122.479042053223

> <r_mmod_Torsional_Energy-OPLS-2005>
273.445434570312

> <r_mmod_Improper_Torsional_Energy-OPLS-2005>
3.50782036781311

> <r_mmod_Van_der_Waal_Energy-OPLS-2005>
141.195495605469

> <r_mmod_Electrostatic_Energy-OPLS-2005>
-423.731964111328

> <r_mmod_Solvation_Energy-OPLS-2005>
-188.633377075195

> <b_mmod_Minimization_Converged-OPLS-2005>
0

> <r_mmod_RMS_Derivative-OPLS-2005>
7.0111985206604

$$$$
74
                    3D
 Structure written by MMmdl.
164172  0  0  1  0            999 V2000
  -30.5578  -14.9393   20.4368 C   0  0  0  0  0  0
  -30.4420  -12.5894   19.4878 C   0  0  0  0  0  0
  -29.5243  -12.5305   18.2470 C   0  0  0  0  0  0
  -28.0562  -12.3173   18.6665 C   0  0  0  0  0  0
  -27.6298  -13.2483   19.8334 C   0  0  2  0  0  0
  -28.6759  -13.2766   20.9660 C   0  0  0  0  0  0
  -25.2468  -13.8214   20.5683 C   0  0  0  0  0  0
  -24.1789  -13.0442   20.9233 C   0  0  0  0  0  0
  -24.6405  -11.6930   20.8761 C   0  0  0  0  0  0
  -23.9080  -10.4302   21.0410 C   0  0  0  0  0  0
  -24.3629   -9.4217   21.9180 C   0  0  0  0  0  0
  -23.6308   -8.2251   22.0746 C   0  0  0  0  0  0
  -22.4289   -8.0283   21.3537 C   0  0  0  0  0  0
  -21.9920   -9.0258   20.4644 C   0  0  0  0  0  0
  -22.7251  -10.2142   20.3058 C   0  0  0  0  0  0
  -21.6863   -6.0735   22.5277 C   0  0  0  0  0  0
  -21.4021   -6.5634   23.8212 C   0  0  0  0  0  0
  -21.3661   -5.6782   24.9172 C   0  0  0  0  0  0
  -21.6043   -4.3044   24.7211 C   0  0  0  0  0  0
  -21.8823   -3.8141   23.4330 C   0  0  0  0  0  0
  -21.9199   -4.6966   22.3395 C   0  0  0  0  0  0
  -22.7801  -13.5212   21.1870 C   0  0  0  0  0  0
  -22.1655   -4.2149   21.0966 F   0  0  0  0  0  0
  -21.5641   -3.4529   25.7721 F   0  0  0  0  0  0
  -29.9444  -13.6922   20.3554 N   0  0  0  0  0  0
  -26.2892  -12.9445   20.3224 N   0  0  0  0  0  0
  -25.9337  -11.6578   20.5739 N   0  0  0  0  0  0
  -22.0420  -12.8242   22.0440 N   0  0  0  0  0  0
  -25.4111  -15.1934   20.4051 N   0  0  0  0  0  0
  -31.7744  -14.9775   20.2286 O   0  0  0  0  0  0
  -21.6651   -6.8881   21.4238 O   0  0  0  0  0  0
  -22.3492  -14.5504   20.6680 O   0  0  0  0  0  0
  -24.6476  -31.8436   23.1917 C   0  0  0  0  0  0
  -25.9246  -32.4679   23.8296 C   0  0  1  0  0  0
  -27.2011  -27.0967   20.1216 C   0  0  0  0  0  0
  -25.5998  -33.8492   24.2203 N   0  0  0  0  0  0
  -23.4516  -30.4682   21.5395 C   0  0  2  0  0  0
  -24.8966  -28.9071   20.1097 C   0  0  0  0  0  0
  -22.7589  -29.4540   22.4858 C   0  0  0  0  0  0
  -18.0301  -28.1392   22.8451 C   0  0  0  0  0  0
  -24.1503  -36.7245   23.2640 C   0  0  0  0  0  0
  -26.0158  -30.6956   21.4104 C   0  0  0  0  0  0
  -26.0771  -29.3099   20.7426 C   0  0  0  0  0  0
  -27.2231  -28.4192   20.7423 C   0  0  0  0  0  0
  -25.9978  -26.8473   19.4214 C   0  0  0  0  0  0
  -24.8732  -27.6878   19.4341 C   0  0  0  0  0  0
  -23.6781  -29.8104   20.1562 C   0  0  0  0  0  0
  -25.4136  -36.3022   24.0311 C   0  0  1  0  0  0
  -20.5916  -28.3723   23.1208 C   0  0  2  0  0  0
  -20.6786  -26.9421   22.5382 C   0  0  0  0  0  0
  -19.5764  -26.6368   21.5192 C   0  0  0  0  0  0
  -18.1946  -26.7925   22.1601 C   0  0  0  0  0  0
  -19.1559  -28.8878   23.2817 C   0  0  0  0  0  0
  -18.9478  -30.1476   23.8841 C   0  0  0  0  0  0
  -17.6474  -30.6586   24.0546 C   0  0  0  0  0  0
  -25.9087  -34.9398   23.5059 C   0  0  0  0  0  0
  -16.5362  -29.9072   23.6339 C   0  0  0  0  0  0
  -16.7283  -28.6494   23.0347 C   0  0  0  0  0  0
  -26.4555  -31.6555   25.0753 C   0  0  0  0  0  0
  -25.3714  -31.3768   26.1426 C   0  0  0  0  0  0
  -27.0439  -30.2923   24.6432 C   0  0  0  0  0  0
  -27.6066  -32.4355   25.7530 C   0  0  0  0  0  0
  -27.5584  -37.1781   24.8458 C   0  0  0  0  0  0
  -21.4280  -29.3051   22.3593 N   0  0  0  0  0  0
  -26.4298  -37.3735   23.9398 N   0  0  0  0  0  0
  -24.7247  -31.0243   22.0994 N   0  0  0  0  0  0
  -23.4211  -28.8071   23.3015 O   0  0  0  0  0  0
  -28.2580  -26.0943   20.2114 O   0  0  0  0  0  0
  -26.5655  -34.8890   22.4628 O   0  0  0  0  0  0
  -23.5585  -32.1359   23.7091 O   0  0  0  0  0  0
  -30.6021  -20.3712   21.7062 C   0  0  0  0  0  0
  -31.3032  -19.2564   22.2136 C   0  0  0  0  0  0
  -29.3827  -18.8367   20.2958 C   0  0  0  0  0  0
  -29.6187  -20.2550   20.7062 C   0  0  0  0  0  0
  -31.0858  -17.9283   21.7769 C   0  0  0  0  0  0
  -30.0982  -17.6225   20.7988 C   0  0  0  0  0  0
  -27.0459  -23.9999   19.0686 C   0  0  0  0  0  0
  -30.4140  -23.6893   20.9043 C   0  0  0  0  0  0
  -28.2196  -23.2777   22.0332 C   0  0  0  0  0  0
  -31.5333  -16.6840   23.7778 C   0  0  0  0  0  0
  -28.8924  -21.6337   20.1255 C   0  0  0  0  0  0
  -28.2847  -24.5569   19.7912 C   0  0  2  0  0  0
  -28.9470  -23.2636   20.6787 C   0  0  0  0  0  0
  -29.7943  -16.1422   20.4892 N   0  0  0  0  0  0
  -31.8540  -16.9247   22.3765 N   0  0  0  0  0  0
  -31.4781  -12.7460   19.1806 H   0  0  0  0  0  0
  -30.4266  -11.6389   20.0239 H   0  0  0  0  0  0
  -29.8461  -11.7334   17.5748 H   0  0  0  0  0  0
  -29.6137  -13.4606   17.6841 H   0  0  0  0  0  0
  -27.9540  -11.2756   18.9715 H   0  0  0  0  0  0
  -27.3939  -12.4493   17.8107 H   0  0  0  0  0  0
  -27.5903  -14.2513   19.4080 H   0  0  0  0  0  0
  -28.7712  -12.2978   21.4373 H   0  0  0  0  0  0
  -28.3804  -13.9747   21.7520 H   0  0  0  0  0  0
  -25.2772   -9.5704   22.4762 H   0  0  0  0  0  0
  -24.0023   -7.4645   22.7462 H   0  0  0  0  0  0
  -21.0854   -8.8781   19.8955 H   0  0  0  0  0  0
  -22.3698  -10.9683   19.6179 H   0  0  0  0  0  0
  -21.2005   -7.6137   23.9716 H   0  0  0  0  0  0
  -21.1486   -6.0505   25.9076 H   0  0  0  0  0  0
  -22.0601   -2.7603   23.2827 H   0  0  0  0  0  0
  -22.4001  -11.9930   22.4916 H   0  0  0  0  0  0
  -21.1017  -13.1279   22.2554 H   0  0  0  0  0  0
  -24.6376  -15.8410   20.5074 H   0  0  0  0  0  0
  -26.2448  -15.6337   20.0394 H   0  0  0  0  0  0
  -26.7299  -32.5257   23.1003 H   0  0  0  0  0  0
  -25.0142  -33.9622   25.0348 H   0  0  0  0  0  0
  -22.7562  -31.2961   21.3886 H   0  0  0  0  0  0
  -23.3777  -35.9563   23.3279 H   0  0  0  0  0  0
  -24.3584  -36.8903   22.2057 H   0  0  0  0  0  0
  -23.7248  -37.6432   23.6690 H   0  0  0  0  0  0
  -26.1972  -31.4532   20.6470 H   0  0  0  0  0  0
  -26.8756  -30.7273   22.0674 H   0  0  0  0  0  0
  -28.1157  -28.7206   21.2724 H   0  0  0  0  0  0
  -25.8259  -25.9869   18.8203 H   0  0  0  0  0  0
  -23.9853  -27.3842   18.8966 H   0  0  0  0  0  0
  -23.8200  -30.5885   19.4058 H   0  0  0  0  0  0
  -22.7927  -29.2559   19.8398 H   0  0  0  0  0  0
  -25.1326  -36.1854   25.0804 H   0  0  0  0  0  0
  -20.9994  -28.3302   24.1335 H   0  0  0  0  0  0
  -20.5676  -26.2334   23.3604 H   0  0  0  0  0  0
  -21.6654  -26.7418   22.1189 H   0  0  0  0  0  0
  -19.6931  -25.6267   21.1254 H   0  0  0  0  0  0
  -19.6715  -27.3145   20.6699 H   0  0  0  0  0  0
  -17.4217  -26.6652   21.4006 H   0  0  0  0  0  0
  -18.0354  -26.0072   22.9007 H   0  0  0  0  0  0
  -19.7956  -30.7305   24.2179 H   0  0  0  0  0  0
  -17.5026  -31.6261   24.5156 H   0  0  0  0  0  0
  -15.5361  -30.2960   23.7701 H   0  0  0  0  0  0
  -15.8676  -28.0808   22.7087 H   0  0  0  0  0  0
  -24.5884  -30.7139   25.7723 H   0  0  0  0  0  0
  -24.8924  -32.2961   26.4803 H   0  0  0  0  0  0
  -25.7971  -30.8948   27.0235 H   0  0  0  0  0  0
  -26.3088  -29.6609   24.1424 H   0  0  0  0  0  0
  -27.3961  -29.7279   25.5081 H   0  0  0  0  0  0
  -27.9044  -30.4106   23.9842 H   0  0  0  0  0  0
  -27.2622  -33.3651   26.2076 H   0  0  0  0  0  0
  -28.3873  -32.6939   25.0358 H   0  0  0  0  0  0
  -28.0743  -31.8520   26.5475 H   0  0  0  0  0  0
  -28.2585  -38.0094   24.7511 H   0  0  0  0  0  0
  -28.1105  -36.2626   24.6281 H   0  0  0  0  0  0
  -27.2297  -37.1404   25.8859 H   0  0  0  0  0  0
  -20.9504  -29.8789   21.6784 H   0  0  0  0  0  0
  -26.0170  -38.2807   24.1389 H   0  0  0  0  0  0
  -30.8494  -21.3290   22.1223 H   0  0  0  0  0  0
  -32.0446  -19.4404   22.9778 H   0  0  0  0  0  0
  -28.6141  -18.6724   19.5555 H   0  0  0  0  0  0
  -27.1492  -22.9531   18.8024 H   0  0  0  0  0  0
  -26.9098  -24.4769   18.0987 H   0  0  0  0  0  0
  -26.1449  -24.0707   19.6793 H   0  0  0  0  0  0
  -30.8270  -23.3398   21.8464 H   0  0  0  0  0  0
  -30.5076  -24.7756   20.9472 H   0  0  0  0  0  0
  -31.0554  -23.3433   20.0934 H   0  0  0  0  0  0
  -28.6715  -22.5784   22.7370 H   0  0  0  0  0  0
  -27.1732  -22.9929   21.9188 H   0  0  0  0  0  0
  -28.2427  -24.2680   22.4905 H   0  0  0  0  0  0
  -31.9325  -15.7204   24.0982 H   0  0  0  0  0  0
  -30.4539  -16.6700   23.9432 H   0  0  0  0  0  0
  -31.9668  -17.4535   24.4173 H   0  0  0  0  0  0
  -27.8399  -21.3550   20.0921 H   0  0  0  0  0  0
  -29.1951  -21.6695   19.0782 H   0  0  0  0  0  0
  -28.9945  -24.6296   18.9658 H   0  0  0  0  0  0
  -28.8129  -15.9637   20.3528 H   0  0  0  0  0  0
  -31.9359  -16.0853   21.7990 H   0  0  0  0  0  0
  1 25  1  0  0  0
  1 30  2  0  0  0
  1 84  1  0  0  0
  2  3  1  0  0  0
  2 25  1  0  0  0
  2 86  1  0  0  0
  2 87  1  0  0  0
  3  4  1  0  0  0
  3 88  1  0  0  0
  3 89  1  0  0  0
  4  5  1  0  0  0
  4 90  1  0  0  0
  4 91  1  0  0  0
  5  6  1  0  0  0
  5 26  1  0  0  0
  5 92  1  0  0  0
  6 25  1  0  0  0
  6 93  1  0  0  0
  6 94  1  0  0  0
  7  8  2  0  0  0
  7 26  1  0  0  0
  7 29  1  0  0  0
  8  9  1  0  0  0
  8 22  1  0  0  0
  9 10  1  0  0  0
  9 27  2  0  0  0
 10 11  2  0  0  0
 10 15  1  0  0  0
 11 12  1  0  0  0
 11 95  1  0  0  0
 12 13  2  0  0  0
 12 96  1  0  0  0
 13 14  1  0  0  0
 13 31  1  0  0  0
 14 15  2  0  0  0
 14 97  1  0  0  0
 15 98  1  0  0  0
 16 17  2  0  0  0
 16 21  1  0  0  0
 16 31  1  0  0  0
 17 18  1  0  0  0
 17 99  1  0  0  0
 18 19  2  0  0  0
 18100  1  0  0  0
 19 20  1  0  0  0
 19 24  1  0  0  0
 20 21  2  0  0  0
 20101  1  0  0  0
 21 23  1  0  0  0
 22 28  1  0  0  0
 22 32  2  0  0  0
 26 27  1  0  0  0
 28102  1  0  0  0
 28103  1  0  0  0
 29104  1  0  0  0
 29105  1  0  0  0
 33 34  1  0  0  0
 33 66  1  0  0  0
 33 70  2  0  0  0
 34 36  1  0  0  0
 34 59  1  0  0  0
 34106  1  0  0  0
 35 44  2  0  0  0
 35 45  1  0  0  0
 35 68  1  0  0  0
 36 56  1  0  0  0
 36107  1  0  0  0
 37 39  1  0  0  0
 37 47  1  0  0  0
 37 66  1  0  0  0
 37108  1  0  0  0
 38 43  2  0  0  0
 38 46  1  0  0  0
 38 47  1  0  0  0
 39 64  1  0  0  0
 39 67  2  0  0  0
 40 52  1  0  0  0
 40 53  2  0  0  0
 40 58  1  0  0  0
 41109  1  0  0  0
 41110  1  0  0  0
 41111  1  0  0  0
 41 48  1  0  0  0
 42 43  1  0  0  0
 42 66  1  0  0  0
 42112  1  0  0  0
 42113  1  0  0  0
 43 44  1  0  0  0
 44114  1  0  0  0
 45 46  2  0  0  0
 45115  1  0  0  0
 46116  1  0  0  0
 47117  1  0  0  0
 47118  1  0  0  0
 48 56  1  0  0  0
 48 65  1  0  0  0
 48119  1  0  0  0
 49 50  1  0  0  0
 49 53  1  0  0  0
 49 64  1  0  0  0
 49120  1  0  0  0
 50 51  1  0  0  0
 50121  1  0  0  0
 50122  1  0  0  0
 51 52  1  0  0  0
 51123  1  0  0  0
 51124  1  0  0  0
 52125  1  0  0  0
 52126  1  0  0  0
 53 54  1  0  0  0
 54 55  2  0  0  0
 54127  1  0  0  0
 55 57  1  0  0  0
 55128  1  0  0  0
 56 69  2  0  0  0
 57 58  2  0  0  0
 57129  1  0  0  0
 58130  1  0  0  0
 59 60  1  0  0  0
 59 61  1  0  0  0
 59 62  1  0  0  0
 60131  1  0  0  0
 60132  1  0  0  0
 60133  1  0  0  0
 61134  1  0  0  0
 61135  1  0  0  0
 61136  1  0  0  0
 62137  1  0  0  0
 62138  1  0  0  0
 62139  1  0  0  0
 63 65  1  0  0  0
 63140  1  0  0  0
 63141  1  0  0  0
 63142  1  0  0  0
 64143  1  0  0  0
 65144  1  0  0  0
 68 82  1  0  0  0
 71 72  2  0  0  0
 71 74  1  0  0  0
 71145  1  0  0  0
 72 75  1  0  0  0
 72146  1  0  0  0
 73 74  2  0  0  0
 73 76  1  0  0  0
 73147  1  0  0  0
 74 81  1  0  0  0
 75 76  2  0  0  0
 75 85  1  0  0  0
 76 84  1  0  0  0
 77148  1  0  0  0
 77149  1  0  0  0
 77150  1  0  0  0
 77 82  1  0  0  0
 78151  1  0  0  0
 78152  1  0  0  0
 78153  1  0  0  0
 78 83  1  0  0  0
 79 83  1  0  0  0
 79154  1  0  0  0
 79155  1  0  0  0
 79156  1  0  0  0
 80 85  1  0  0  0
 80157  1  0  0  0
 80158  1  0  0  0
 80159  1  0  0  0
 81 83  1  0  0  0
 81160  1  0  0  0
 81161  1  0  0  0
 82 83  1  0  0  0
 82162  1  0  0  0
 84163  1  0  0  0
 85164  1  0  0  0
M  ISO  4   1 100  68 101  82 101  84 100
M  END
> <chiral flag>
0

> <version>
0

> <s_m_source_file>
/data/baiqing/PycharmProjects/Reinvent-master-3.2/result/LINK_invent/BTK/process_docking_weight1_custom_product_contain_oxygen_bond_distance_aromatic_linkinvent_7_9_3/rearranged_h_0139.sdf

> <i_m_source_file_index>
75

> <r_mmod_Potential_Energy-OPLS-2005>
581.143310546875

> <r_mmod_Stretch_Energy-OPLS-2005>
305.920745849609

> <r_mmod_Bend_Energy-OPLS-2005>
307.395111083984

> <r_mmod_Torsional_Energy-OPLS-2005>
257.820831298828

> <r_mmod_Improper_Torsional_Energy-OPLS-2005>
10.6620197296143

> <r_mmod_Van_der_Waal_Energy-OPLS-2005>
158.893005371094

> <r_mmod_Electrostatic_Energy-OPLS-2005>
-458.123779296875

> <r_mmod_Solvation_Energy-OPLS-2005>
-207.344360351562

> <b_mmod_Minimization_Converged-OPLS-2005>
0

> <r_mmod_RMS_Derivative-OPLS-2005>
1.95848298072815

$$$$
75
                    3D
 Structure written by MMmdl.
171179  0  0  1  0            999 V2000
  -30.5993  -14.6266   20.5194 C   0  0  0  0  0  0
  -30.4461  -12.3852   19.4463 C   0  0  0  0  0  0
  -29.5124  -12.5093   18.2204 C   0  0  0  0  0  0
  -28.0320  -12.3501   18.6266 C   0  0  0  0  0  0
  -27.6561  -13.2066   19.8650 C   0  0  2  0  0  0
  -28.6994  -13.0314   20.9915 C   0  0  0  0  0  0
  -25.2572  -13.8140   20.5643 C   0  0  0  0  0  0
  -24.1839  -13.0427   20.9190 C   0  0  0  0  0  0
  -24.6390  -11.6892   20.8739 C   0  0  0  0  0  0
  -23.9053  -10.4284   21.0410 C   0  0  0  0  0  0
  -24.3605   -9.4205   21.9185 C   0  0  0  0  0  0
  -23.6281   -8.2241   22.0754 C   0  0  0  0  0  0
  -22.4267   -8.0279   21.3541 C   0  0  0  0  0  0
  -21.9896   -9.0252   20.4646 C   0  0  0  0  0  0
  -22.7222  -10.2132   20.3058 C   0  0  0  0  0  0
  -21.6851   -6.0732   22.5278 C   0  0  0  0  0  0
  -21.4022   -6.5641   23.8211 C   0  0  0  0  0  0
  -21.3656   -5.6790   24.9171 C   0  0  0  0  0  0
  -21.6042   -4.3054   24.7224 C   0  0  0  0  0  0
  -21.8822   -3.8144   23.4345 C   0  0  0  0  0  0
  -21.9194   -4.6960   22.3397 C   0  0  0  0  0  0
  -22.7866  -13.5237   21.1849 C   0  0  0  0  0  0
  -22.1662   -4.2147   21.0976 F   0  0  0  0  0  0
  -21.5618   -3.4538   25.7734 F   0  0  0  0  0  0
  -30.0167  -13.3889   20.4377 N   0  0  0  0  0  0
  -26.2991  -12.9304   20.3289 N   0  0  0  0  0  0
  -25.9314  -11.6471   20.5744 N   0  0  0  0  0  0
  -22.0492  -12.8243   22.0404 N   0  0  0  0  0  0
  -25.4274  -15.1852   20.3982 N   0  0  0  0  0  0
  -31.7567  -14.8280   20.1365 O   0  0  0  0  0  0
  -21.6632   -6.8875   21.4239 O   0  0  0  0  0  0
  -22.3560  -14.5537   20.6678 O   0  0  0  0  0  0
  -24.6240  -31.8607   23.2029 C   0  0  0  0  0  0
  -25.9096  -32.4780   23.8358 C   0  0  1  0  0  0
  -27.2329  -27.3371   20.1188 C   0  0  0  0  0  0
  -25.5914  -33.8580   24.2286 N   0  0  0  0  0  0
  -23.4170  -30.4832   21.5448 C   0  0  2  0  0  0
  -24.8642  -28.9365   20.1144 C   0  0  0  0  0  0
  -22.7457  -29.4629   22.4947 C   0  0  0  0  0  0
  -18.0284  -28.1384   22.8492 C   0  0  0  0  0  0
  -24.1486  -36.7293   23.2637 C   0  0  0  0  0  0
  -25.9556  -30.7987   21.3691 C   0  0  0  0  0  0
  -26.0315  -29.4263   20.7133 C   0  0  0  0  0  0
  -27.2175  -28.6388   20.7026 C   0  0  0  0  0  0
  -26.0388  -26.8871   19.5102 C   0  0  0  0  0  0
  -24.8688  -27.6714   19.5054 C   0  0  0  0  0  0
  -23.6307  -29.8141   20.1614 C   0  0  0  0  0  0
  -25.4108  -36.3082   24.0332 C   0  0  1  0  0  0
  -20.5880  -28.3683   23.1290 C   0  0  2  0  0  0
  -20.6771  -26.9409   22.5407 C   0  0  0  0  0  0
  -19.5747  -26.6388   21.5209 C   0  0  0  0  0  0
  -18.1927  -26.7930   22.1623 C   0  0  0  0  0  0
  -19.1535  -28.8850   23.2890 C   0  0  0  0  0  0
  -18.9458  -30.1448   23.8912 C   0  0  0  0  0  0
  -17.6460  -30.6584   24.0565 C   0  0  0  0  0  0
  -25.9046  -34.9452   23.5109 C   0  0  0  0  0  0
  -16.5351  -29.9084   23.6328 C   0  0  0  0  0  0
  -16.7270  -28.6498   23.0359 C   0  0  0  0  0  0
  -26.4492  -31.6585   25.0718 C   0  0  0  0  0  0
  -25.3738  -31.3724   26.1456 C   0  0  0  0  0  0
  -27.0326  -30.3009   24.6153 C   0  0  0  0  0  0
  -27.6061  -32.4312   25.7479 C   0  0  0  0  0  0
  -27.5580  -37.1797   24.8460 C   0  0  0  0  0  0
  -21.4174  -29.3040   22.3683 N   0  0  0  0  0  0
  -26.4287  -37.3774   23.9409 N   0  0  0  0  0  0
  -24.6842  -31.0639   22.0964 N   0  0  0  0  0  0
  -23.4188  -28.8176   23.3025 O   0  0  0  0  0  0
  -28.3837  -26.5400   20.1530 O   0  0  0  0  0  0
  -26.5615  -34.8918   22.4676 O   0  0  0  0  0  0
  -23.5407  -32.1398   23.7366 O   0  0  0  0  0  0
  -30.7594  -19.3397   20.8107 C   0  0  0  0  0  0
  -30.8870  -17.9163   20.7762 C   0  0  0  0  0  0
  -28.4931  -17.7453   20.7972 C   0  0  0  0  0  0
  -29.5015  -20.0198   20.8322 C   0  0  0  0  0  0
  -28.3584  -19.1651   20.8105 C   0  0  0  0  0  0
  -29.7443  -17.0794   20.7929 C   0  0  0  0  0  0
  -26.9502  -19.7351   20.8651 C   0  0  0  0  0  0
  -30.1989  -21.8457   22.3776 C   0  0  0  0  0  0
  -30.3981  -24.7462   21.3426 C   0  0  0  0  0  0
  -30.4821  -24.9578   18.9051 C   0  0  0  0  0  0
  -31.0337  -22.1835   19.2355 C   0  0  0  0  0  0
  -28.6168  -22.2970   18.7827 C   0  0  0  0  0  0
  -28.2862  -25.0691   20.0249 C   0  0  0  0  0  0
  -29.3959  -21.5939   21.0838 C   0  0  1  0  0  0
  -29.6781  -24.2858   20.0585 C   0  0  0  0  0  0
  -29.6790  -22.6299   19.8563 C   0  0  0  0  0  0
  -29.7391  -15.6236   20.8874 N   0  0  0  0  0  0
  -31.4868  -12.5240   19.1472 H   0  0  0  0  0  0
  -30.3882  -11.3833   19.8751 H   0  0  0  0  0  0
  -29.7752  -11.7633   17.4690 H   0  0  0  0  0  0
  -29.6584  -13.4821   17.7478 H   0  0  0  0  0  0
  -27.8585  -11.2945   18.8401 H   0  0  0  0  0  0
  -27.3835  -12.5990   17.7860 H   0  0  0  0  0  0
  -27.6807  -14.2460   19.5378 H   0  0  0  0  0  0
  -28.7114  -11.9980   21.3412 H   0  0  0  0  0  0
  -28.4417  -13.6314   21.8659 H   0  0  0  0  0  0
  -25.2754   -9.5680   22.4756 H   0  0  0  0  0  0
  -23.9988   -7.4637   22.7477 H   0  0  0  0  0  0
  -21.0824   -8.8776   19.8954 H   0  0  0  0  0  0
  -22.3686  -10.9672   19.6167 H   0  0  0  0  0  0
  -21.2029   -7.6151   23.9716 H   0  0  0  0  0  0
  -21.1468   -6.0520   25.9072 H   0  0  0  0  0  0
  -22.0603   -2.7607   23.2848 H   0  0  0  0  0  0
  -22.4094  -11.9906   22.4804 H   0  0  0  0  0  0
  -21.1108  -13.1288   22.2581 H   0  0  0  0  0  0
  -24.6454  -15.8267   20.4749 H   0  0  0  0  0  0
  -26.2427  -15.6047   19.9720 H   0  0  0  0  0  0
  -26.7166  -32.5466   23.1113 H   0  0  0  0  0  0
  -25.0060  -33.9725   25.0427 H   0  0  0  0  0  0
  -22.7100  -31.3028   21.4007 H   0  0  0  0  0  0
  -23.3751  -35.9623   23.3291 H   0  0  0  0  0  0
  -24.3582  -36.8917   22.2053 H   0  0  0  0  0  0
  -23.7235  -37.6489   23.6667 H   0  0  0  0  0  0
  -26.0825  -31.5631   20.6013 H   0  0  0  0  0  0
  -26.8373  -30.8493   21.9963 H   0  0  0  0  0  0
  -28.1167  -29.0132   21.1722 H   0  0  0  0  0  0
  -25.9807  -25.9204   19.0350 H   0  0  0  0  0  0
  -23.9726  -27.2881   19.0372 H   0  0  0  0  0  0
  -23.7457  -30.5885   19.4019 H   0  0  0  0  0  0
  -22.7517  -29.2398   19.8621 H   0  0  0  0  0  0
  -25.1283  -36.1939   25.0823 H   0  0  0  0  0  0
  -20.9977  -28.3262   24.1409 H   0  0  0  0  0  0
  -20.5666  -26.2293   23.3604 H   0  0  0  0  0  0
  -21.6643  -26.7439   22.1206 H   0  0  0  0  0  0
  -19.6907  -25.6301   21.1229 H   0  0  0  0  0  0
  -19.6682  -27.3207   20.6748 H   0  0  0  0  0  0
  -17.4190  -26.6678   21.4031 H   0  0  0  0  0  0
  -18.0333  -26.0071   22.9019 H   0  0  0  0  0  0
  -19.7932  -30.7262   24.2296 H   0  0  0  0  0  0
  -17.5010  -31.6269   24.5158 H   0  0  0  0  0  0
  -15.5351  -30.2990   23.7646 H   0  0  0  0  0  0
  -15.8669  -28.0814   22.7085 H   0  0  0  0  0  0
  -24.5889  -30.7100   25.7786 H   0  0  0  0  0  0
  -24.8966  -32.2896   26.4917 H   0  0  0  0  0  0
  -25.8067  -30.8864   27.0207 H   0  0  0  0  0  0
  -26.2886  -29.6759   24.1196 H   0  0  0  0  0  0
  -27.4050  -29.7264   25.4645 H   0  0  0  0  0  0
  -27.8748  -30.4294   23.9349 H   0  0  0  0  0  0
  -27.2688  -33.3624   26.2043 H   0  0  0  0  0  0
  -28.3879  -32.6842   25.0305 H   0  0  0  0  0  0
  -28.0720  -31.8441   26.5402 H   0  0  0  0  0  0
  -28.2587  -38.0105   24.7519 H   0  0  0  0  0  0
  -28.1086  -36.2637   24.6266 H   0  0  0  0  0  0
  -27.2302  -37.1418   25.8864 H   0  0  0  0  0  0
  -20.9348  -29.8758   21.6892 H   0  0  0  0  0  0
  -26.0170  -38.2845   24.1423 H   0  0  0  0  0  0
  -31.6688  -19.9205   20.8638 H   0  0  0  0  0  0
  -31.8750  -17.4773   20.7879 H   0  0  0  0  0  0
  -27.5938  -17.1468   20.8232 H   0  0  0  0  0  0
  -26.1964  -18.9627   20.7085 H   0  0  0  0  0  0
  -26.8035  -20.4890   20.0933 H   0  0  0  0  0  0
  -26.7565  -20.1888   21.8375 H   0  0  0  0  0  0
  -30.0239  -21.0452   23.0974 H   0  0  0  0  0  0
  -29.8890  -22.7418   22.9022 H   0  0  0  0  0  0
  -31.2727  -21.8905   22.2006 H   0  0  0  0  0  0
  -30.6889  -25.7959   21.2827 H   0  0  0  0  0  0
  -31.3111  -24.1834   21.5323 H   0  0  0  0  0  0
  -29.7454  -24.6905   22.2116 H   0  0  0  0  0  0
  -30.4411  -26.0461   18.9484 H   0  0  0  0  0  0
  -30.1074  -24.6793   17.9209 H   0  0  0  0  0  0
  -31.5458  -24.7218   18.9458 H   0  0  0  0  0  0
  -31.0465  -21.1258   18.9870 H   0  0  0  0  0  0
  -31.8705  -22.3788   19.9054 H   0  0  0  0  0  0
  -31.2509  -22.6541   18.2788 H   0  0  0  0  0  0
  -28.6361  -21.2420   18.5072 H   0  0  0  0  0  0
  -28.7676  -22.8593   17.8621 H   0  0  0  0  0  0
  -27.6088  -22.5127   19.1362 H   0  0  0  0  0  0
  -27.6300  -24.6864   20.8083 H   0  0  0  0  0  0
  -27.8063  -24.8469   19.0733 H   0  0  0  0  0  0
  -28.3706  -21.7993   21.3859 H   0  0  0  0  0  0
  -28.8417  -15.2412   21.1431 H   0  0  0  0  0  0
  1 25  1  0  0  0
  1 30  2  0  0  0
  1 87  1  0  0  0
  2  3  1  0  0  0
  2 25  1  0  0  0
  2 88  1  0  0  0
  2 89  1  0  0  0
  3  4  1  0  0  0
  3 90  1  0  0  0
  3 91  1  0  0  0
  4  5  1  0  0  0
  4 92  1  0  0  0
  4 93  1  0  0  0
  5  6  1  0  0  0
  5 26  1  0  0  0
  5 94  1  0  0  0
  6 25  1  0  0  0
  6 95  1  0  0  0
  6 96  1  0  0  0
  7  8  2  0  0  0
  7 26  1  0  0  0
  7 29  1  0  0  0
  8  9  1  0  0  0
  8 22  1  0  0  0
  9 10  1  0  0  0
  9 27  2  0  0  0
 10 11  2  0  0  0
 10 15  1  0  0  0
 11 12  1  0  0  0
 11 97  1  0  0  0
 12 13  2  0  0  0
 12 98  1  0  0  0
 13 14  1  0  0  0
 13 31  1  0  0  0
 14 15  2  0  0  0
 14 99  1  0  0  0
 15100  1  0  0  0
 16 17  2  0  0  0
 16 21  1  0  0  0
 16 31  1  0  0  0
 17 18  1  0  0  0
 17101  1  0  0  0
 18 19  2  0  0  0
 18102  1  0  0  0
 19 20  1  0  0  0
 19 24  1  0  0  0
 20 21  2  0  0  0
 20103  1  0  0  0
 21 23  1  0  0  0
 22 28  1  0  0  0
 22 32  2  0  0  0
 26 27  1  0  0  0
 28104  1  0  0  0
 28105  1  0  0  0
 29106  1  0  0  0
 29107  1  0  0  0
 33 34  1  0  0  0
 33 66  1  0  0  0
 33 70  2  0  0  0
 34 36  1  0  0  0
 34 59  1  0  0  0
 34108  1  0  0  0
 35 44  2  0  0  0
 35 45  1  0  0  0
 35 68  1  0  0  0
 36 56  1  0  0  0
 36109  1  0  0  0
 37 39  1  0  0  0
 37 47  1  0  0  0
 37 66  1  0  0  0
 37110  1  0  0  0
 38 43  2  0  0  0
 38 46  1  0  0  0
 38 47  1  0  0  0
 39 64  1  0  0  0
 39 67  2  0  0  0
 40 52  1  0  0  0
 40 53  2  0  0  0
 40 58  1  0  0  0
 41111  1  0  0  0
 41112  1  0  0  0
 41113  1  0  0  0
 41 48  1  0  0  0
 42 43  1  0  0  0
 42 66  1  0  0  0
 42114  1  0  0  0
 42115  1  0  0  0
 43 44  1  0  0  0
 44116  1  0  0  0
 45 46  2  0  0  0
 45117  1  0  0  0
 46118  1  0  0  0
 47119  1  0  0  0
 47120  1  0  0  0
 48 56  1  0  0  0
 48 65  1  0  0  0
 48121  1  0  0  0
 49 50  1  0  0  0
 49 53  1  0  0  0
 49 64  1  0  0  0
 49122  1  0  0  0
 50 51  1  0  0  0
 50123  1  0  0  0
 50124  1  0  0  0
 51 52  1  0  0  0
 51125  1  0  0  0
 51126  1  0  0  0
 52127  1  0  0  0
 52128  1  0  0  0
 53 54  1  0  0  0
 54 55  2  0  0  0
 54129  1  0  0  0
 55 57  1  0  0  0
 55130  1  0  0  0
 56 69  2  0  0  0
 57 58  2  0  0  0
 57131  1  0  0  0
 58132  1  0  0  0
 59 60  1  0  0  0
 59 61  1  0  0  0
 59 62  1  0  0  0
 60133  1  0  0  0
 60134  1  0  0  0
 60135  1  0  0  0
 61136  1  0  0  0
 61137  1  0  0  0
 61138  1  0  0  0
 62139  1  0  0  0
 62140  1  0  0  0
 62141  1  0  0  0
 63 65  1  0  0  0
 63142  1  0  0  0
 63143  1  0  0  0
 63144  1  0  0  0
 64145  1  0  0  0
 65146  1  0  0  0
 68 83  1  0  0  0
 71 72  2  0  0  0
 71 74  1  0  0  0
 71147  1  0  0  0
 72 76  1  0  0  0
 72148  1  0  0  0
 73 75  1  0  0  0
 73 76  2  0  0  0
 73149  1  0  0  0
 74 75  2  0  0  0
 74 84  1  0  0  0
 75 77  1  0  0  0
 76 87  1  0  0  0
 77150  1  0  0  0
 77151  1  0  0  0
 77152  1  0  0  0
 78153  1  0  0  0
 78154  1  0  0  0
 78155  1  0  0  0
 78 84  1  0  0  0
 79156  1  0  0  0
 79157  1  0  0  0
 79158  1  0  0  0
 79 85  1  0  0  0
 80 85  1  0  0  0
 80159  1  0  0  0
 80160  1  0  0  0
 80161  1  0  0  0
 81162  1  0  0  0
 81163  1  0  0  0
 81164  1  0  0  0
 81 86  1  0  0  0
 82 86  1  0  0  0
 82165  1  0  0  0
 82166  1  0  0  0
 82167  1  0  0  0
 83 85  1  0  0  0
 83168  1  0  0  0
 83169  1  0  0  0
 84 86  1  0  0  0
 84170  1  0  0  0
 85 86  1  0  0  0
 87171  1  0  0  0
M  ISO  4   1 100  68 101  83 101  87 100
M  END
> <chiral flag>
0

> <version>
0

> <s_m_source_file>
/data/baiqing/PycharmProjects/Reinvent-master-3.2/result/LINK_invent/BTK/process_docking_weight1_custom_product_contain_oxygen_bond_distance_aromatic_linkinvent_7_9_3/rearranged_h_0139.sdf

> <i_m_source_file_index>
76

> <r_mmod_Potential_Energy-OPLS-2005>
176.700119018555

> <r_mmod_Stretch_Energy-OPLS-2005>
108.334571838379

> <r_mmod_Bend_Energy-OPLS-2005>
182.99951171875

> <r_mmod_Torsional_Energy-OPLS-2005>
257.746673583984

> <r_mmod_Improper_Torsional_Energy-OPLS-2005>
6.02970314025879

> <r_mmod_Van_der_Waal_Energy-OPLS-2005>
171.838073730469

> <r_mmod_Electrostatic_Energy-OPLS-2005>
-404.464752197266

> <r_mmod_Solvation_Energy-OPLS-2005>
-187.065719604492

> <b_mmod_Minimization_Converged-OPLS-2005>
0

> <r_mmod_RMS_Derivative-OPLS-2005>
1.11513078212738

$$$$
76
                    3D
 Structure written by MMmdl.
155164  0  0  1  0            999 V2000
  -30.6247  -14.6539   20.5020 C   0  0  0  0  0  0
  -30.4400  -12.4015   19.4572 C   0  0  0  0  0  0
  -29.5105  -12.5089   18.2276 C   0  0  0  0  0  0
  -28.0336  -12.3439   18.6384 C   0  0  0  0  0  0
  -27.6534  -13.2174   19.8632 C   0  0  2  0  0  0
  -28.6983  -13.0819   20.9942 C   0  0  0  0  0  0
  -25.2563  -13.8174   20.5688 C   0  0  0  0  0  0
  -24.1829  -13.0439   20.9192 C   0  0  0  0  0  0
  -24.6394  -11.6909   20.8735 C   0  0  0  0  0  0
  -23.9061  -10.4293   21.0398 C   0  0  0  0  0  0
  -24.3614   -9.4209   21.9176 C   0  0  0  0  0  0
  -23.6288   -8.2247   22.0752 C   0  0  0  0  0  0
  -22.4270   -8.0282   21.3541 C   0  0  0  0  0  0
  -21.9901   -9.0258   20.4646 C   0  0  0  0  0  0
  -22.7230  -10.2135   20.3053 C   0  0  0  0  0  0
  -21.6858   -6.0731   22.5274 C   0  0  0  0  0  0
  -21.4019   -6.5634   23.8208 C   0  0  0  0  0  0
  -21.3660   -5.6789   24.9169 C   0  0  0  0  0  0
  -21.6045   -4.3051   24.7221 C   0  0  0  0  0  0
  -21.8820   -3.8143   23.4344 C   0  0  0  0  0  0
  -21.9194   -4.6958   22.3398 C   0  0  0  0  0  0
  -22.7852  -13.5232   21.1852 C   0  0  0  0  0  0
  -22.1662   -4.2144   21.0973 F   0  0  0  0  0  0
  -21.5627   -3.4535   25.7736 F   0  0  0  0  0  0
  -30.0132  -13.4274   20.4307 N   0  0  0  0  0  0
  -26.2989  -12.9353   20.3316 N   0  0  0  0  0  0
  -25.9326  -11.6508   20.5757 N   0  0  0  0  0  0
  -22.0490  -12.8233   22.0411 N   0  0  0  0  0  0
  -25.4273  -15.1898   20.4102 N   0  0  0  0  0  0
  -31.7884  -14.8056   20.1197 O   0  0  0  0  0  0
  -21.6641   -6.8877   21.4237 O   0  0  0  0  0  0
  -22.3536  -14.5534   20.6696 O   0  0  0  0  0  0
  -24.6275  -31.8607   23.2043 C   0  0  0  0  0  0
  -25.9121  -32.4781   23.8368 C   0  0  1  0  0  0
  -27.2182  -27.3106   20.1099 C   0  0  0  0  0  0
  -25.5936  -33.8582   24.2289 N   0  0  0  0  0  0
  -23.4209  -30.4877   21.5476 C   0  0  2  0  0  0
  -24.8664  -28.9514   20.1078 C   0  0  0  0  0  0
  -22.7479  -29.4632   22.4927 C   0  0  0  0  0  0
  -18.0290  -28.1387   22.8481 C   0  0  0  0  0  0
  -24.1490  -36.7298   23.2633 C   0  0  0  0  0  0
  -25.9655  -30.7878   21.3800 C   0  0  0  0  0  0
  -26.0379  -29.4170   20.7185 C   0  0  0  0  0  0
  -27.2160  -28.6078   20.7148 C   0  0  0  0  0  0
  -26.0224  -26.9176   19.4570 C   0  0  0  0  0  0
  -24.8614  -27.7065   19.4687 C   0  0  0  0  0  0
  -23.6355  -29.8314   20.1604 C   0  0  0  0  0  0
  -25.4109  -36.3082   24.0328 C   0  0  1  0  0  0
  -20.5891  -28.3692   23.1273 C   0  0  2  0  0  0
  -20.6780  -26.9413   22.5400 C   0  0  0  0  0  0
  -19.5754  -26.6383   21.5206 C   0  0  0  0  0  0
  -18.1937  -26.7927   22.1623 C   0  0  0  0  0  0
  -19.1543  -28.8854   23.2873 C   0  0  0  0  0  0
  -18.9466  -30.1456   23.8894 C   0  0  0  0  0  0
  -17.6465  -30.6585   24.0563 C   0  0  0  0  0  0
  -25.9051  -34.9452   23.5105 C   0  0  0  0  0  0
  -16.5357  -29.9083   23.6327 C   0  0  0  0  0  0
  -16.7279  -28.6502   23.0346 C   0  0  0  0  0  0
  -26.4497  -31.6590   25.0738 C   0  0  0  0  0  0
  -25.3729  -31.3745   26.1467 C   0  0  0  0  0  0
  -27.0334  -30.3006   24.6203 C   0  0  0  0  0  0
  -27.6056  -32.4326   25.7510 C   0  0  0  0  0  0
  -27.5583  -37.1795   24.8453 C   0  0  0  0  0  0
  -21.4194  -29.3048   22.3666 N   0  0  0  0  0  0
  -26.4284  -37.3779   23.9415 N   0  0  0  0  0  0
  -24.6902  -31.0614   22.1006 N   0  0  0  0  0  0
  -23.4199  -28.8155   23.2997 O   0  0  0  0  0  0
  -28.3133  -26.4234   20.1785 O   0  0  0  0  0  0
  -26.5612  -34.8920   22.4668 O   0  0  0  0  0  0
  -23.5436  -32.1415   23.7363 O   0  0  0  0  0  0
  -31.1289  -19.2972   20.2585 C   0  0  0  0  0  0
  -28.8302  -19.4101   20.9381 C   0  0  0  0  0  0
  -31.1049  -17.8714   20.3433 C   0  0  0  0  0  0
  -28.8056  -17.9830   21.0281 C   0  0  0  0  0  0
  -29.9983  -20.1131   20.5504 C   0  0  0  0  0  0
  -29.9361  -17.1659   20.7349 C   0  0  0  0  0  0
  -29.0587  -22.5926   19.8137 C   0  0  0  0  0  0
  -28.9644  -23.8342   20.3579 C   0  0  0  0  0  0
  -29.8432  -23.9149   21.5844 C   0  0  0  0  0  0
  -30.3266  -22.4438   21.8109 C   0  0  0  0  0  0
  -30.1093  -21.6876   20.4766 C   0  0  1  0  0  0
  -28.0132  -24.9938   19.9072 C   0  0  0  0  0  0
  -29.8168  -15.7065   20.8576 N   0  0  0  0  0  0
  -31.4808  -12.5281   19.1538 H   0  0  0  0  0  0
  -30.3779  -11.4080   19.9041 H   0  0  0  0  0  0
  -29.7785  -11.7553   17.4861 H   0  0  0  0  0  0
  -29.6512  -13.4772   17.7442 H   0  0  0  0  0  0
  -27.8740  -11.2911   18.8738 H   0  0  0  0  0  0
  -27.3798  -12.5696   17.7950 H   0  0  0  0  0  0
  -27.6690  -14.2508   19.5176 H   0  0  0  0  0  0
  -28.7129  -12.0630   21.3838 H   0  0  0  0  0  0
  -28.4407  -13.7192   21.8413 H   0  0  0  0  0  0
  -25.2761   -9.5688   22.4746 H   0  0  0  0  0  0
  -24.0000   -7.4640   22.7472 H   0  0  0  0  0  0
  -21.0828   -8.8779   19.8954 H   0  0  0  0  0  0
  -22.3687  -10.9677   19.6163 H   0  0  0  0  0  0
  -21.2014   -7.6144   23.9710 H   0  0  0  0  0  0
  -21.1479   -6.0516   25.9071 H   0  0  0  0  0  0
  -22.0600   -2.7603   23.2847 H   0  0  0  0  0  0
  -22.4106  -11.9900   22.4809 H   0  0  0  0  0  0
  -21.1108  -13.1268   22.2613 H   0  0  0  0  0  0
  -24.6563  -15.8414   20.5125 H   0  0  0  0  0  0
  -26.2670  -15.6263   20.0526 H   0  0  0  0  0  0
  -26.7189  -32.5450   23.1117 H   0  0  0  0  0  0
  -25.0082  -33.9728   25.0433 H   0  0  0  0  0  0
  -22.7149  -31.3091   21.4078 H   0  0  0  0  0  0
  -23.3750  -35.9631   23.3280 H   0  0  0  0  0  0
  -24.3588  -36.8934   22.2051 H   0  0  0  0  0  0
  -23.7242  -37.6497   23.6663 H   0  0  0  0  0  0
  -26.1005  -31.5530   20.6142 H   0  0  0  0  0  0
  -26.8446  -30.8331   22.0110 H   0  0  0  0  0  0
  -28.1097  -28.9565   21.2133 H   0  0  0  0  0  0
  -25.9372  -25.9774   18.9344 H   0  0  0  0  0  0
  -23.9669  -27.3474   18.9783 H   0  0  0  0  0  0
  -23.7558  -30.6121   19.4085 H   0  0  0  0  0  0
  -22.7551  -29.2635   19.8539 H   0  0  0  0  0  0
  -25.1284  -36.1933   25.0818 H   0  0  0  0  0  0
  -20.9987  -28.3271   24.1392 H   0  0  0  0  0  0
  -20.5680  -26.2301   23.3600 H   0  0  0  0  0  0
  -21.6650  -26.7439   22.1195 H   0  0  0  0  0  0
  -19.6914  -25.6293   21.1235 H   0  0  0  0  0  0
  -19.6688  -27.3190   20.6733 H   0  0  0  0  0  0
  -17.4198  -26.6660   21.4037 H   0  0  0  0  0  0
  -18.0350  -26.0075   22.9028 H   0  0  0  0  0  0
  -19.7943  -30.7270   24.2263 H   0  0  0  0  0  0
  -17.5021  -31.6264   24.5165 H   0  0  0  0  0  0
  -15.5359  -30.2984   23.7652 H   0  0  0  0  0  0
  -15.8679  -28.0820   22.7062 H   0  0  0  0  0  0
  -24.5883  -30.7117   25.7799 H   0  0  0  0  0  0
  -24.8953  -32.2926   26.4902 H   0  0  0  0  0  0
  -25.8049  -30.8906   27.0235 H   0  0  0  0  0  0
  -26.2913  -29.6765   24.1210 H   0  0  0  0  0  0
  -27.4001  -29.7254   25.4714 H   0  0  0  0  0  0
  -27.8800  -30.4278   23.9453 H   0  0  0  0  0  0
  -27.2655  -33.3616   26.2101 H   0  0  0  0  0  0
  -28.3862  -32.6905   25.0339 H   0  0  0  0  0  0
  -28.0729  -31.8448   26.5421 H   0  0  0  0  0  0
  -28.2568  -38.0123   24.7542 H   0  0  0  0  0  0
  -28.1113  -36.2660   24.6219 H   0  0  0  0  0  0
  -27.2311  -37.1373   25.8856 H   0  0  0  0  0  0
  -20.9365  -29.8795   21.6902 H   0  0  0  0  0  0
  -26.0165  -38.2847   24.1444 H   0  0  0  0  0  0
  -32.0555  -19.7718   19.9663 H   0  0  0  0  0  0
  -27.9361  -19.9665   21.1836 H   0  0  0  0  0  0
  -32.0100  -17.3311   20.1074 H   0  0  0  0  0  0
  -27.8820  -17.5132   21.3364 H   0  0  0  0  0  0
  -28.5076  -22.2650   18.9436 H   0  0  0  0  0  0
  -29.2880  -24.2937   22.4434 H   0  0  0  0  0  0
  -30.6757  -24.5913   21.3871 H   0  0  0  0  0  0
  -29.7011  -21.9911   22.5817 H   0  0  0  0  0  0
  -31.3574  -22.3861   22.1625 H   0  0  0  0  0  0
  -30.9958  -21.8689   19.8666 H   0  0  0  0  0  0
  -27.0774  -24.7451   20.4102 H   0  0  0  0  0  0
  -27.8456  -24.8672   18.8366 H   0  0  0  0  0  0
  -28.9090  -15.3924   21.1642 H   0  0  0  0  0  0
  1 25  1  0  0  0
  1 30  2  0  0  0
  1 83  1  0  0  0
  2  3  1  0  0  0
  2 25  1  0  0  0
  2 84  1  0  0  0
  2 85  1  0  0  0
  3  4  1  0  0  0
  3 86  1  0  0  0
  3 87  1  0  0  0
  4  5  1  0  0  0
  4 88  1  0  0  0
  4 89  1  0  0  0
  5  6  1  0  0  0
  5 26  1  0  0  0
  5 90  1  0  0  0
  6 25  1  0  0  0
  6 91  1  0  0  0
  6 92  1  0  0  0
  7  8  2  0  0  0
  7 26  1  0  0  0
  7 29  1  0  0  0
  8  9  1  0  0  0
  8 22  1  0  0  0
  9 10  1  0  0  0
  9 27  2  0  0  0
 10 11  2  0  0  0
 10 15  1  0  0  0
 11 12  1  0  0  0
 11 93  1  0  0  0
 12 13  2  0  0  0
 12 94  1  0  0  0
 13 14  1  0  0  0
 13 31  1  0  0  0
 14 15  2  0  0  0
 14 95  1  0  0  0
 15 96  1  0  0  0
 16 17  2  0  0  0
 16 21  1  0  0  0
 16 31  1  0  0  0
 17 18  1  0  0  0
 17 97  1  0  0  0
 18 19  2  0  0  0
 18 98  1  0  0  0
 19 20  1  0  0  0
 19 24  1  0  0  0
 20 21  2  0  0  0
 20 99  1  0  0  0
 21 23  1  0  0  0
 22 28  1  0  0  0
 22 32  2  0  0  0
 26 27  1  0  0  0
 28100  1  0  0  0
 28101  1  0  0  0
 29102  1  0  0  0
 29103  1  0  0  0
 33 34  1  0  0  0
 33 66  1  0  0  0
 33 70  2  0  0  0
 34 36  1  0  0  0
 34 59  1  0  0  0
 34104  1  0  0  0
 35 44  2  0  0  0
 35 45  1  0  0  0
 35 68  1  0  0  0
 36 56  1  0  0  0
 36105  1  0  0  0
 37 39  1  0  0  0
 37 47  1  0  0  0
 37 66  1  0  0  0
 37106  1  0  0  0
 38 43  2  0  0  0
 38 46  1  0  0  0
 38 47  1  0  0  0
 39 64  1  0  0  0
 39 67  2  0  0  0
 40 52  1  0  0  0
 40 53  2  0  0  0
 40 58  1  0  0  0
 41107  1  0  0  0
 41108  1  0  0  0
 41109  1  0  0  0
 41 48  1  0  0  0
 42 43  1  0  0  0
 42 66  1  0  0  0
 42110  1  0  0  0
 42111  1  0  0  0
 43 44  1  0  0  0
 44112  1  0  0  0
 45 46  2  0  0  0
 45113  1  0  0  0
 46114  1  0  0  0
 47115  1  0  0  0
 47116  1  0  0  0
 48 56  1  0  0  0
 48 65  1  0  0  0
 48117  1  0  0  0
 49 50  1  0  0  0
 49 53  1  0  0  0
 49 64  1  0  0  0
 49118  1  0  0  0
 50 51  1  0  0  0
 50119  1  0  0  0
 50120  1  0  0  0
 51 52  1  0  0  0
 51121  1  0  0  0
 51122  1  0  0  0
 52123  1  0  0  0
 52124  1  0  0  0
 53 54  1  0  0  0
 54 55  2  0  0  0
 54125  1  0  0  0
 55 57  1  0  0  0
 55126  1  0  0  0
 56 69  2  0  0  0
 57 58  2  0  0  0
 57127  1  0  0  0
 58128  1  0  0  0
 59 60  1  0  0  0
 59 61  1  0  0  0
 59 62  1  0  0  0
 60129  1  0  0  0
 60130  1  0  0  0
 60131  1  0  0  0
 61132  1  0  0  0
 61133  1  0  0  0
 61134  1  0  0  0
 62135  1  0  0  0
 62136  1  0  0  0
 62137  1  0  0  0
 63 65  1  0  0  0
 63138  1  0  0  0
 63139  1  0  0  0
 63140  1  0  0  0
 64141  1  0  0  0
 65142  1  0  0  0
 68 82  1  0  0  0
 71 73  2  0  0  0
 71 75  1  0  0  0
 71143  1  0  0  0
 72 74  1  0  0  0
 72 75  2  0  0  0
 72144  1  0  0  0
 73 76  1  0  0  0
 73145  1  0  0  0
 74 76  2  0  0  0
 74146  1  0  0  0
 75 81  1  0  0  0
 76 83  1  0  0  0
 77 78  2  0  0  0
 77 81  1  0  0  0
 77147  1  0  0  0
 78 79  1  0  0  0
 78 82  1  0  0  0
 79 80  1  0  0  0
 79148  1  0  0  0
 79149  1  0  0  0
 80 81  1  0  0  0
 80150  1  0  0  0
 80151  1  0  0  0
 81152  1  0  0  0
 82153  1  0  0  0
 82154  1  0  0  0
 83155  1  0  0  0
M  ISO  4   1 100  68 101  82 101  83 100
M  END
> <chiral flag>
0

> <version>
0

> <s_m_source_file>
/data/baiqing/PycharmProjects/Reinvent-master-3.2/result/LINK_invent/BTK/process_docking_weight1_custom_product_contain_oxygen_bond_distance_aromatic_linkinvent_7_9_3/rearranged_h_0139.sdf

> <i_m_source_file_index>
77

> <r_mmod_Potential_Energy-OPLS-2005>
139.778045654297

> <r_mmod_Stretch_Energy-OPLS-2005>
78.1653366088867

> <r_mmod_Bend_Energy-OPLS-2005>
198.015258789062

> <r_mmod_Torsional_Energy-OPLS-2005>
223.271377563477

> <r_mmod_Improper_Torsional_Energy-OPLS-2005>
4.23331785202026

> <r_mmod_Van_der_Waal_Energy-OPLS-2005>
144.398742675781

> <r_mmod_Electrostatic_Energy-OPLS-2005>
-362.496215820312

> <r_mmod_Solvation_Energy-OPLS-2005>
-201.322387695312

> <b_mmod_Minimization_Converged-OPLS-2005>
0

> <r_mmod_RMS_Derivative-OPLS-2005>
0.818231046199799

$$$$
77
                    3D
 Structure written by MMmdl.
166175  0  0  1  0            999 V2000
  -30.7181  -14.5120   20.5514 C   0  0  0  0  0  0
  -30.4108  -12.3295   19.4289 C   0  0  0  0  0  0
  -29.4978  -12.4979   18.2017 C   0  0  0  0  0  0
  -28.0186  -12.3643   18.6154 C   0  0  0  0  0  0
  -27.6543  -13.2173   19.8640 C   0  0  2  0  0  0
  -28.6996  -13.0356   20.9878 C   0  0  0  0  0  0
  -25.2524  -13.8162   20.5633 C   0  0  0  0  0  0
  -24.1831  -13.0427   20.9182 C   0  0  0  0  0  0
  -24.6393  -11.6871   20.8683 C   0  0  0  0  0  0
  -23.9083  -10.4247   21.0320 C   0  0  0  0  0  0
  -24.3626   -9.4165   21.9106 C   0  0  0  0  0  0
  -23.6296   -8.2215   22.0731 C   0  0  0  0  0  0
  -22.4260   -8.0247   21.3562 C   0  0  0  0  0  0
  -21.9900   -9.0184   20.4632 C   0  0  0  0  0  0
  -22.7237  -10.2064   20.2989 C   0  0  0  0  0  0
  -21.6840   -6.0703   22.5276 C   0  0  0  0  0  0
  -21.3998   -6.5596   23.8211 C   0  0  0  0  0  0
  -21.3688   -5.6761   24.9178 C   0  0  0  0  0  0
  -21.6091   -4.3020   24.7238 C   0  0  0  0  0  0
  -21.8822   -3.8120   23.4339 C   0  0  0  0  0  0
  -21.9191   -4.6936   22.3404 C   0  0  0  0  0  0
  -22.7839  -13.5179   21.1886 C   0  0  0  0  0  0
  -22.1645   -4.2109   21.0978 F   0  0  0  0  0  0
  -21.5672   -3.4509   25.7753 F   0  0  0  0  0  0
  -30.0270  -13.3410   20.4278 N   0  0  0  0  0  0
  -26.2974  -12.9374   20.3279 N   0  0  0  0  0  0
  -25.9323  -11.6514   20.5730 N   0  0  0  0  0  0
  -22.0521  -12.8161   22.0442 N   0  0  0  0  0  0
  -25.4235  -15.1900   20.4047 N   0  0  0  0  0  0
  -31.8606  -14.6447   20.1072 O   0  0  0  0  0  0
  -21.6654   -6.8814   21.4231 O   0  0  0  0  0  0
  -22.3546  -14.5509   20.6742 O   0  0  0  0  0  0
  -24.6155  -31.8663   23.2144 C   0  0  0  0  0  0
  -25.9047  -32.4825   23.8458 C   0  0  1  0  0  0
  -27.2598  -27.4030   20.1300 C   0  0  0  0  0  0
  -25.5968  -33.8660   24.2369 N   0  0  0  0  0  0
  -23.4094  -30.4784   21.5553 C   0  0  2  0  0  0
  -24.8672  -28.9576   20.1060 C   0  0  0  0  0  0
  -22.7455  -29.4573   22.5055 C   0  0  0  0  0  0
  -18.0263  -28.1354   22.8433 C   0  0  0  0  0  0
  -24.1441  -36.7278   23.2616 C   0  0  0  0  0  0
  -25.9356  -30.8192   21.3772 C   0  0  0  0  0  0
  -26.0216  -29.4545   20.7212 C   0  0  0  0  0  0
  -27.2186  -28.6895   20.7289 C   0  0  0  0  0  0
  -26.0938  -26.9756   19.4349 C   0  0  0  0  0  0
  -24.9026  -27.7245   19.4421 C   0  0  0  0  0  0
  -23.6222  -29.8152   20.1650 C   0  0  0  0  0  0
  -25.4111  -36.3143   24.0276 C   0  0  1  0  0  0
  -20.5838  -28.3636   23.1328 C   0  0  2  0  0  0
  -20.6814  -26.9392   22.5415 C   0  0  0  0  0  0
  -19.5833  -26.6365   21.5187 C   0  0  0  0  0  0
  -18.1972  -26.7926   22.1525 C   0  0  0  0  0  0
  -19.1505  -28.8835   23.2843 C   0  0  0  0  0  0
  -18.9423  -30.1444   23.8833 C   0  0  0  0  0  0
  -17.6429  -30.6560   24.0551 C   0  0  0  0  0  0
  -25.9040  -34.9483   23.5108 C   0  0  0  0  0  0
  -16.5318  -29.9032   23.6346 C   0  0  0  0  0  0
  -16.7255  -28.6454   23.0350 C   0  0  0  0  0  0
  -26.4503  -31.6651   25.0801 C   0  0  0  0  0  0
  -25.3761  -31.3721   26.1510 C   0  0  0  0  0  0
  -27.0315  -30.3084   24.6220 C   0  0  0  0  0  0
  -27.6099  -32.4393   25.7558 C   0  0  0  0  0  0
  -27.5552  -37.1804   24.8474 C   0  0  0  0  0  0
  -21.4173  -29.2993   22.3802 N   0  0  0  0  0  0
  -26.4289  -37.3830   23.9384 N   0  0  0  0  0  0
  -24.6686  -31.0685   22.1078 N   0  0  0  0  0  0
  -23.4216  -28.8154   23.3149 O   0  0  0  0  0  0
  -28.4049  -26.5991   20.2532 O   0  0  0  0  0  0
  -26.5509  -34.8928   22.4609 O   0  0  0  0  0  0
  -23.5328  -32.1447   23.7490 O   0  0  0  0  0  0
  -29.6986  -19.1930   20.0331 C   0  0  0  0  0  0
  -31.9353  -18.8905   20.9159 C   0  0  0  0  0  0
  -29.4088  -17.8287   20.2868 C   0  0  0  0  0  0
  -31.6478  -17.5192   21.1618 C   0  0  0  0  0  0
  -30.9597  -19.7500   20.3517 C   0  0  0  0  0  0
  -30.3800  -16.9612   20.8362 C   0  0  0  0  0  0
  -31.2241  -21.1850   20.0436 C   0  0  0  0  0  0
  -29.9264  -23.2197   22.9409 C   0  0  0  0  0  0
  -28.8321  -24.0306   22.1933 C   0  0  0  0  0  0
  -30.3238  -21.9232   22.2118 C   0  0  0  0  0  0
  -30.4192  -23.5834   20.2844 C   0  0  0  0  0  0
  -28.9313  -23.9396   20.6401 C   0  0  1  0  0  0
  -28.0401  -22.7634   20.1160 C   0  0  0  0  0  0
  -28.2523  -25.1866   19.9321 C   0  0  0  0  0  0
  -30.7701  -22.2099   20.8220 N   0  0  0  0  0  0
  -30.0412  -15.5735   21.0436 N   0  0  0  0  0  0
  -31.8734  -21.4903   18.9233 N   0  3  0  0  0  0
  -31.4528  -12.4132   19.1258 H   0  0  0  0  0  0
  -30.3053  -11.3280   19.8436 H   0  0  0  0  0  0
  -29.7394  -11.7469   17.4475 H   0  0  0  0  0  0
  -29.6772  -13.4682   17.7368 H   0  0  0  0  0  0
  -27.8353  -11.3095   18.8249 H   0  0  0  0  0  0
  -27.3685  -12.6190   17.7776 H   0  0  0  0  0  0
  -27.6847  -14.2621   19.5564 H   0  0  0  0  0  0
  -28.6834  -12.0060   21.3515 H   0  0  0  0  0  0
  -28.4610  -13.6603   21.8506 H   0  0  0  0  0  0
  -25.2740   -9.5679   22.4702 H   0  0  0  0  0  0
  -24.0013   -7.4620   22.7441 H   0  0  0  0  0  0
  -21.0832   -8.8666   19.8929 H   0  0  0  0  0  0
  -22.3633  -10.9584   19.6113 H   0  0  0  0  0  0
  -21.1950   -7.6083   23.9702 H   0  0  0  0  0  0
  -21.1545   -6.0479   25.9093 H   0  0  0  0  0  0
  -22.0597   -2.7574   23.2855 H   0  0  0  0  0  0
  -22.4155  -11.9787   22.4751 H   0  0  0  0  0  0
  -21.1135  -13.1178   22.2679 H   0  0  0  0  0  0
  -24.6506  -15.8361   20.5256 H   0  0  0  0  0  0
  -26.2690  -15.6340   20.0732 H   0  0  0  0  0  0
  -26.7117  -32.5492   23.1231 H   0  0  0  0  0  0
  -25.0596  -33.9940   25.0830 H   0  0  0  0  0  0
  -22.6973  -31.2932   21.4184 H   0  0  0  0  0  0
  -23.3761  -35.9552   23.3334 H   0  0  0  0  0  0
  -24.3592  -36.8846   22.2034 H   0  0  0  0  0  0
  -23.7084  -37.6434   23.6632 H   0  0  0  0  0  0
  -26.0630  -31.5932   20.6185 H   0  0  0  0  0  0
  -26.8147  -30.8634   22.0037 H   0  0  0  0  0  0
  -28.0978  -29.0867   21.2176 H   0  0  0  0  0  0
  -26.0695  -26.0589   18.8643 H   0  0  0  0  0  0
  -24.0316  -27.3661   18.9063 H   0  0  0  0  0  0
  -23.7106  -30.5907   19.4024 H   0  0  0  0  0  0
  -22.7572  -29.2126   19.8779 H   0  0  0  0  0  0
  -25.1311  -36.2035   25.0759 H   0  0  0  0  0  0
  -20.9806  -28.3139   24.1496 H   0  0  0  0  0  0
  -20.5759  -26.2238   23.3578 H   0  0  0  0  0  0
  -21.6722  -26.7530   22.1232 H   0  0  0  0  0  0
  -19.7048  -25.6264   21.1263 H   0  0  0  0  0  0
  -19.6830  -27.3137   20.6688 H   0  0  0  0  0  0
  -17.4329  -26.6658   21.3836 H   0  0  0  0  0  0
  -18.0323  -26.0040   22.8866 H   0  0  0  0  0  0
  -19.7908  -30.7280   24.2179 H   0  0  0  0  0  0
  -17.4971  -31.6252   24.5144 H   0  0  0  0  0  0
  -15.5316  -30.2904   23.7727 H   0  0  0  0  0  0
  -15.8654  -28.0745   22.7110 H   0  0  0  0  0  0
  -24.6171  -30.6772   25.7872 H   0  0  0  0  0  0
  -24.8682  -32.2803   26.4746 H   0  0  0  0  0  0
  -25.8152  -30.9156   27.0393 H   0  0  0  0  0  0
  -26.2791  -29.6831   24.1367 H   0  0  0  0  0  0
  -27.4127  -29.7366   25.4697 H   0  0  0  0  0  0
  -27.8675  -30.4399   23.9352 H   0  0  0  0  0  0
  -27.2814  -33.3815   26.1967 H   0  0  0  0  0  0
  -28.4001  -32.6717   25.0408 H   0  0  0  0  0  0
  -28.0654  -31.8611   26.5600 H   0  0  0  0  0  0
  -28.2633  -38.0056   24.7601 H   0  0  0  0  0  0
  -28.0977  -36.2602   24.6278 H   0  0  0  0  0  0
  -27.2283  -37.1451   25.8882 H   0  0  0  0  0  0
  -20.9390  -29.8667   21.6934 H   0  0  0  0  0  0
  -26.0156  -38.2859   24.1542 H   0  0  0  0  0  0
  -28.9401  -19.8079   19.5708 H   0  0  0  0  0  0
  -32.9093  -19.2905   21.1658 H   0  0  0  0  0  0
  -28.4318  -17.4436   20.0314 H   0  0  0  0  0  0
  -32.4093  -16.8867   21.6007 H   0  0  0  0  0  0
  -29.6219  -23.0064   23.9676 H   0  0  0  0  0  0
  -30.8232  -23.8340   23.0370 H   0  0  0  0  0  0
  -28.9303  -25.0749   22.4920 H   0  0  0  0  0  0
  -27.8396  -23.7325   22.5420 H   0  0  0  0  0  0
  -29.4972  -21.2096   22.2198 H   0  0  0  0  0  0
  -31.1545  -21.4632   22.7507 H   0  0  0  0  0  0
  -31.0943  -24.3163   20.7287 H   0  0  0  0  0  0
  -30.5682  -23.6518   19.2063 H   0  0  0  0  0  0
  -28.5772  -21.8597   19.8756 H   0  0  0  0  0  0
  -27.5593  -23.0055   19.1670 H   0  0  0  0  0  0
  -27.2547  -22.4924   20.8228 H   0  0  0  0  0  0
  -27.2085  -24.9561   20.1409 H   0  0  0  0  0  0
  -28.3964  -25.1012   18.8549 H   0  0  0  0  0  0
  -29.0902  -15.3689   21.3158 H   0  0  0  0  0  0
  -32.0510  -20.7690   18.2402 H   0  0  0  0  0  0
  -32.3335  -22.3826   18.8193 H   0  0  0  0  0  0
  1 25  1  0  0  0
  1 30  2  0  0  0
  1 86  1  0  0  0
  2  3  1  0  0  0
  2 25  1  0  0  0
  2 88  1  0  0  0
  2 89  1  0  0  0
  3  4  1  0  0  0
  3 90  1  0  0  0
  3 91  1  0  0  0
  4  5  1  0  0  0
  4 92  1  0  0  0
  4 93  1  0  0  0
  5  6  1  0  0  0
  5 26  1  0  0  0
  5 94  1  0  0  0
  6 25  1  0  0  0
  6 95  1  0  0  0
  6 96  1  0  0  0
  7  8  2  0  0  0
  7 26  1  0  0  0
  7 29  1  0  0  0
  8  9  1  0  0  0
  8 22  1  0  0  0
  9 10  1  0  0  0
  9 27  2  0  0  0
 10 11  2  0  0  0
 10 15  1  0  0  0
 11 12  1  0  0  0
 11 97  1  0  0  0
 12 13  2  0  0  0
 12 98  1  0  0  0
 13 14  1  0  0  0
 13 31  1  0  0  0
 14 15  2  0  0  0
 14 99  1  0  0  0
 15100  1  0  0  0
 16 17  2  0  0  0
 16 21  1  0  0  0
 16 31  1  0  0  0
 17 18  1  0  0  0
 17101  1  0  0  0
 18 19  2  0  0  0
 18102  1  0  0  0
 19 20  1  0  0  0
 19 24  1  0  0  0
 20 21  2  0  0  0
 20103  1  0  0  0
 21 23  1  0  0  0
 22 28  1  0  0  0
 22 32  2  0  0  0
 26 27  1  0  0  0
 28104  1  0  0  0
 28105  1  0  0  0
 29106  1  0  0  0
 29107  1  0  0  0
 33 34  1  0  0  0
 33 66  1  0  0  0
 33 70  2  0  0  0
 34 36  1  0  0  0
 34 59  1  0  0  0
 34108  1  0  0  0
 35 44  2  0  0  0
 35 45  1  0  0  0
 35 68  1  0  0  0
 36 56  1  0  0  0
 36109  1  0  0  0
 37 39  1  0  0  0
 37 47  1  0  0  0
 37 66  1  0  0  0
 37110  1  0  0  0
 38 43  2  0  0  0
 38 46  1  0  0  0
 38 47  1  0  0  0
 39 64  1  0  0  0
 39 67  2  0  0  0
 40 52  1  0  0  0
 40 53  2  0  0  0
 40 58  1  0  0  0
 41111  1  0  0  0
 41112  1  0  0  0
 41113  1  0  0  0
 41 48  1  0  0  0
 42 43  1  0  0  0
 42 66  1  0  0  0
 42114  1  0  0  0
 42115  1  0  0  0
 43 44  1  0  0  0
 44116  1  0  0  0
 45 46  2  0  0  0
 45117  1  0  0  0
 46118  1  0  0  0
 47119  1  0  0  0
 47120  1  0  0  0
 48 56  1  0  0  0
 48 65  1  0  0  0
 48121  1  0  0  0
 49 50  1  0  0  0
 49 53  1  0  0  0
 49 64  1  0  0  0
 49122  1  0  0  0
 50 51  1  0  0  0
 50123  1  0  0  0
 50124  1  0  0  0
 51 52  1  0  0  0
 51125  1  0  0  0
 51126  1  0  0  0
 52127  1  0  0  0
 52128  1  0  0  0
 53 54  1  0  0  0
 54 55  2  0  0  0
 54129  1  0  0  0
 55 57  1  0  0  0
 55130  1  0  0  0
 56 69  2  0  0  0
 57 58  2  0  0  0
 57131  1  0  0  0
 58132  1  0  0  0
 59 60  1  0  0  0
 59 61  1  0  0  0
 59 62  1  0  0  0
 60133  1  0  0  0
 60134  1  0  0  0
 60135  1  0  0  0
 61136  1  0  0  0
 61137  1  0  0  0
 61138  1  0  0  0
 62139  1  0  0  0
 62140  1  0  0  0
 62141  1  0  0  0
 63 65  1  0  0  0
 63142  1  0  0  0
 63143  1  0  0  0
 63144  1  0  0  0
 64145  1  0  0  0
 65146  1  0  0  0
 68 84  1  0  0  0
 71 73  2  0  0  0
 71 75  1  0  0  0
 71147  1  0  0  0
 72 74  1  0  0  0
 72 75  2  0  0  0
 72148  1  0  0  0
 73 76  1  0  0  0
 73149  1  0  0  0
 74 76  2  0  0  0
 74150  1  0  0  0
 75 77  1  0  0  0
 76 86  1  0  0  0
 77 85  1  0  0  0
 77 87  2  0  0  0
 78 79  1  0  0  0
 78 80  1  0  0  0
 78151  1  0  0  0
 78152  1  0  0  0
 79 82  1  0  0  0
 79153  1  0  0  0
 79154  1  0  0  0
 80 85  1  0  0  0
 80155  1  0  0  0
 80156  1  0  0  0
 81 82  1  0  0  0
 81 85  1  0  0  0
 81157  1  0  0  0
 81158  1  0  0  0
 82 83  1  0  0  0
 82 84  1  0  0  0
 83159  1  0  0  0
 83160  1  0  0  0
 83161  1  0  0  0
 84162  1  0  0  0
 84163  1  0  0  0
 86164  1  0  0  0
 87165  1  0  0  0
 87166  1  0  0  0
M  CHG  1  87   1
M  ISO  4   1 100  68 101  84 101  86 100
M  END
> <chiral flag>
0

> <version>
0

> <s_m_source_file>
/data/baiqing/PycharmProjects/Reinvent-master-3.2/result/LINK_invent/BTK/process_docking_weight1_custom_product_contain_oxygen_bond_distance_aromatic_linkinvent_7_9_3/rearranged_h_0139.sdf

> <i_m_source_file_index>
78

> <r_mmod_Potential_Energy-OPLS-2005>
0.180227667093277

> <r_mmod_Stretch_Energy-OPLS-2005>
62.4673538208008

> <r_mmod_Bend_Energy-OPLS-2005>
149.641616821289

> <r_mmod_Torsional_Energy-OPLS-2005>
338.925262451172

> <r_mmod_Improper_Torsional_Energy-OPLS-2005>
5.330002784729

> <r_mmod_Van_der_Waal_Energy-OPLS-2005>
193.519714355469

> <r_mmod_Electrostatic_Energy-OPLS-2005>
-382.062622070312

> <r_mmod_Solvation_Energy-OPLS-2005>
-393.592834472656

> <b_mmod_Minimization_Converged-OPLS-2005>
0

> <r_mmod_RMS_Derivative-OPLS-2005>
7.2965350151062

$$$$
78
                    3D
 Structure written by MMmdl.
166174  0  0  1  0            999 V2000
  -30.7326  -14.3905   20.6494 C   0  0  0  0  0  0
  -30.4236  -12.2881   19.3992 C   0  0  0  0  0  0
  -29.4915  -12.5298   18.1969 C   0  0  0  0  0  0
  -28.0136  -12.3863   18.6084 C   0  0  0  0  0  0
  -27.6693  -13.2006   19.8832 C   0  0  2  0  0  0
  -28.7071  -12.9275   20.9947 C   0  0  0  0  0  0
  -25.2620  -13.8154   20.5666 C   0  0  0  0  0  0
  -24.1860  -13.0433   20.9155 C   0  0  0  0  0  0
  -24.6402  -11.6901   20.8713 C   0  0  0  0  0  0
  -23.9059  -10.4289   21.0378 C   0  0  0  0  0  0
  -24.3608   -9.4207   21.9159 C   0  0  0  0  0  0
  -23.6287   -8.2247   22.0741 C   0  0  0  0  0  0
  -22.4273   -8.0276   21.3539 C   0  0  0  0  0  0
  -21.9900   -9.0245   20.4637 C   0  0  0  0  0  0
  -22.7224  -10.2124   20.3038 C   0  0  0  0  0  0
  -21.6858   -6.0727   22.5273 C   0  0  0  0  0  0
  -21.4016   -6.5630   23.8205 C   0  0  0  0  0  0
  -21.3661   -5.6784   24.9168 C   0  0  0  0  0  0
  -21.6045   -4.3049   24.7218 C   0  0  0  0  0  0
  -21.8822   -3.8139   23.4340 C   0  0  0  0  0  0
  -21.9194   -4.6958   22.3395 C   0  0  0  0  0  0
  -22.7877  -13.5231   21.1817 C   0  0  0  0  0  0
  -22.1661   -4.2141   21.0975 F   0  0  0  0  0  0
  -21.5631   -3.4532   25.7732 F   0  0  0  0  0  0
  -30.0499  -13.2306   20.4628 N   0  0  0  0  0  0
  -26.3064  -12.9312   20.3387 N   0  0  0  0  0  0
  -25.9331  -11.6473   20.5752 N   0  0  0  0  0  0
  -22.0517  -12.8238   22.0382 N   0  0  0  0  0  0
  -25.4355  -15.1875   20.4085 N   0  0  0  0  0  0
  -31.7769  -14.6645   20.0483 O   0  0  0  0  0  0
  -21.6644   -6.8872   21.4238 O   0  0  0  0  0  0
  -22.3554  -14.5520   20.6645 O   0  0  0  0  0  0
  -24.6111  -31.8693   23.2123 C   0  0  0  0  0  0
  -25.9013  -32.4832   23.8410 C   0  0  1  0  0  0
  -27.2446  -27.4733   20.0876 C   0  0  0  0  0  0
  -25.5886  -33.8629   24.2341 N   0  0  0  0  0  0
  -23.3994  -30.4919   21.5499 C   0  0  2  0  0  0
  -24.8503  -28.9594   20.1146 C   0  0  0  0  0  0
  -22.7395  -29.4660   22.4988 C   0  0  0  0  0  0
  -18.0271  -28.1375   22.8495 C   0  0  0  0  0  0
  -24.1485  -36.7324   23.2639 C   0  0  0  0  0  0
  -25.9241  -30.8449   21.3612 C   0  0  0  0  0  0
  -26.0059  -29.4807   20.7121 C   0  0  0  0  0  0
  -27.2072  -28.7401   20.7047 C   0  0  0  0  0  0
  -26.0775  -26.9506   19.4973 C   0  0  0  0  0  0
  -24.8789  -27.6903   19.5075 C   0  0  0  0  0  0
  -23.6081  -29.8205   20.1648 C   0  0  0  0  0  0
  -25.4105  -36.3121   24.0344 C   0  0  1  0  0  0
  -20.5859  -28.3657   23.1328 C   0  0  2  0  0  0
  -20.6760  -26.9396   22.5422 C   0  0  0  0  0  0
  -19.5740  -26.6383   21.5215 C   0  0  0  0  0  0
  -18.1916  -26.7924   22.1625 C   0  0  0  0  0  0
  -19.1518  -28.8831   23.2909 C   0  0  0  0  0  0
  -18.9449  -30.1441   23.8915 C   0  0  0  0  0  0
  -17.6450  -30.6584   24.0568 C   0  0  0  0  0  0
  -25.9027  -34.9482   23.5138 C   0  0  0  0  0  0
  -16.5340  -29.9089   23.6325 C   0  0  0  0  0  0
  -16.7257  -28.6505   23.0343 C   0  0  0  0  0  0
  -26.4464  -31.6603   25.0720 C   0  0  0  0  0  0
  -25.3744  -31.3693   26.1479 C   0  0  0  0  0  0
  -27.0295  -30.3051   24.6073 C   0  0  0  0  0  0
  -27.6051  -32.4311   25.7478 C   0  0  0  0  0  0
  -27.5582  -37.1819   24.8466 C   0  0  0  0  0  0
  -21.4124  -29.3026   22.3728 N   0  0  0  0  0  0
  -26.4296  -37.3801   23.9408 N   0  0  0  0  0  0
  -24.6624  -31.0823   22.1002 N   0  0  0  0  0  0
  -23.4177  -28.8202   23.3019 O   0  0  0  0  0  0
  -28.3915  -26.7238   20.0884 O   0  0  0  0  0  0
  -26.5581  -34.8930   22.4697 O   0  0  0  0  0  0
  -23.5311  -32.1429   23.7539 O   0  0  0  0  0  0
  -30.8922  -19.3633   22.1342 C   0  0  0  0  0  0
  -30.5043  -17.1259   23.0340 C   0  0  0  0  0  0
  -30.6063  -17.4737   20.6228 C   0  0  0  0  0  0
  -30.7311  -18.5018   23.2388 C   0  0  0  0  0  0
  -30.8108  -18.8579   20.8167 C   0  0  0  0  0  0
  -30.4627  -16.6000   21.7277 C   0  0  0  0  0  0
  -30.0818  -24.5147   18.5729 C   0  0  0  0  0  0
  -30.8005  -19.0504   24.6501 C   0  0  0  0  0  0
  -31.9726  -21.8507   17.5167 C   0  0  0  0  0  0
  -30.9178  -19.7563   19.5852 C   0  0  0  0  0  0
  -30.4183  -25.9499   19.0029 C   0  0  0  0  0  0
  -31.0516  -21.2740   19.8473 C   0  0  0  0  0  0
  -29.2384  -26.9442   18.9699 C   0  0  0  0  0  0
  -30.8997  -22.1424   18.5791 C   0  0  1  0  0  0
  -30.1976  -15.2161   21.5615 N   0  0  0  0  0  0
  -30.9534  -23.5615   18.9393 N   0  0  0  0  0  0
  -29.0762  -24.2714   17.9027 O   0  0  0  0  0  0
  -31.4666  -12.3923   19.0965 H   0  0  0  0  0  0
  -30.3232  -11.2630   19.7594 H   0  0  0  0  0  0
  -29.7269  -11.8323   17.3922 H   0  0  0  0  0  0
  -29.6653  -13.5291   17.7948 H   0  0  0  0  0  0
  -27.8163  -11.3278   18.7804 H   0  0  0  0  0  0
  -27.3629  -12.6847   17.7861 H   0  0  0  0  0  0
  -27.7312  -14.2571   19.6210 H   0  0  0  0  0  0
  -28.6719  -11.8778   21.2907 H   0  0  0  0  0  0
  -28.4534  -13.4840   21.8971 H   0  0  0  0  0  0
  -25.2755   -9.5695   22.4725 H   0  0  0  0  0  0
  -24.0000   -7.4646   22.7465 H   0  0  0  0  0  0
  -21.0825   -8.8754   19.8951 H   0  0  0  0  0  0
  -22.3668  -10.9655   19.6145 H   0  0  0  0  0  0
  -21.2006   -7.6138   23.9707 H   0  0  0  0  0  0
  -21.1484   -6.0511   25.9068 H   0  0  0  0  0  0
  -22.0604   -2.7601   23.2839 H   0  0  0  0  0  0
  -22.4127  -11.9920   22.4810 H   0  0  0  0  0  0
  -21.1125  -13.1260   22.2561 H   0  0  0  0  0  0
  -24.6733  -15.8472   20.5174 H   0  0  0  0  0  0
  -26.2988  -15.6271   20.1120 H   0  0  0  0  0  0
  -26.7083  -32.5567   23.1179 H   0  0  0  0  0  0
  -25.0050  -33.9792   25.0496 H   0  0  0  0  0  0
  -22.6867  -31.3073   21.4098 H   0  0  0  0  0  0
  -23.3742  -35.9665   23.3319 H   0  0  0  0  0  0
  -24.3581  -36.8914   22.2050 H   0  0  0  0  0  0
  -23.7241  -37.6542   23.6632 H   0  0  0  0  0  0
  -26.0297  -31.6103   20.5907 H   0  0  0  0  0  0
  -26.8141  -30.9025   21.9765 H   0  0  0  0  0  0
  -28.0988  -29.1341   21.1714 H   0  0  0  0  0  0
  -26.0993  -25.9726   19.0367 H   0  0  0  0  0  0
  -23.9892  -27.2793   19.0492 H   0  0  0  0  0  0
  -23.7117  -30.5932   19.4025 H   0  0  0  0  0  0
  -22.7346  -29.2349   19.8715 H   0  0  0  0  0  0
  -25.1281  -36.2000   25.0839 H   0  0  0  0  0  0
  -20.9960  -28.3222   24.1446 H   0  0  0  0  0  0
  -20.5665  -26.2262   23.3604 H   0  0  0  0  0  0
  -21.6630  -26.7440   22.1210 H   0  0  0  0  0  0
  -19.6901  -25.6299   21.1227 H   0  0  0  0  0  0
  -19.6686  -27.3208   20.6757 H   0  0  0  0  0  0
  -17.4192  -26.6679   21.4019 H   0  0  0  0  0  0
  -18.0315  -26.0057   22.9012 H   0  0  0  0  0  0
  -19.7922  -30.7251   24.2290 H   0  0  0  0  0  0
  -17.5007  -31.6268   24.5164 H   0  0  0  0  0  0
  -15.5341  -30.2999   23.7639 H   0  0  0  0  0  0
  -15.8656  -28.0835   22.7046 H   0  0  0  0  0  0
  -24.5909  -30.7048   25.7816 H   0  0  0  0  0  0
  -24.8946  -32.2846   26.4957 H   0  0  0  0  0  0
  -25.8112  -30.8841   27.0216 H   0  0  0  0  0  0
  -26.2830  -29.6811   24.1142 H   0  0  0  0  0  0
  -27.4095  -29.7283   25.4517 H   0  0  0  0  0  0
  -27.8650  -30.4379   23.9194 H   0  0  0  0  0  0
  -27.2675  -33.3590   26.2106 H   0  0  0  0  0  0
  -28.3837  -32.6901   25.0289 H   0  0  0  0  0  0
  -28.0747  -31.8403   26.5352 H   0  0  0  0  0  0
  -28.2612  -38.0103   24.7507 H   0  0  0  0  0  0
  -28.1064  -36.2639   24.6300 H   0  0  0  0  0  0
  -27.2302  -37.1481   25.8868 H   0  0  0  0  0  0
  -20.9276  -29.8754   21.6962 H   0  0  0  0  0  0
  -26.0194  -38.2886   24.1404 H   0  0  0  0  0  0
  -31.0649  -20.4141   22.3147 H   0  0  0  0  0  0
  -30.3739  -16.4726   23.8865 H   0  0  0  0  0  0
  -30.5400  -17.0888   19.6144 H   0  0  0  0  0  0
  -30.7451  -20.1394   24.6622 H   0  0  0  0  0  0
  -31.7368  -18.7540   25.1237 H   0  0  0  0  0  0
  -29.9746  -18.6679   25.2508 H   0  0  0  0  0  0
  -31.9084  -20.8249   17.1546 H   0  0  0  0  0  0
  -32.9784  -22.0036   17.9096 H   0  0  0  0  0  0
  -31.8519  -22.4979   16.6471 H   0  0  0  0  0  0
  -30.0313  -19.5787   18.9749 H   0  0  0  0  0  0
  -31.7658  -19.4082   18.9943 H   0  0  0  0  0  0
  -31.1947  -26.3076   18.3270 H   0  0  0  0  0  0
  -30.8612  -25.9424   19.9994 H   0  0  0  0  0  0
  -32.0057  -21.4796   20.3355 H   0  0  0  0  0  0
  -30.2697  -21.5805   20.5437 H   0  0  0  0  0  0
  -28.6816  -26.8660   18.0340 H   0  0  0  0  0  0
  -29.6260  -27.9629   19.0187 H   0  0  0  0  0  0
  -29.9266  -21.9142   18.1399 H   0  0  0  0  0  0
  -29.4677  -14.8223   22.1367 H   0  0  0  0  0  0
  -31.7465  -23.8615   19.4920 H   0  0  0  0  0  0
  1 25  1  0  0  0
  1 30  2  0  0  0
  1 85  1  0  0  0
  2  3  1  0  0  0
  2 25  1  0  0  0
  2 88  1  0  0  0
  2 89  1  0  0  0
  3  4  1  0  0  0
  3 90  1  0  0  0
  3 91  1  0  0  0
  4  5  1  0  0  0
  4 92  1  0  0  0
  4 93  1  0  0  0
  5  6  1  0  0  0
  5 26  1  0  0  0
  5 94  1  0  0  0
  6 25  1  0  0  0
  6 95  1  0  0  0
  6 96  1  0  0  0
  7  8  2  0  0  0
  7 26  1  0  0  0
  7 29  1  0  0  0
  8  9  1  0  0  0
  8 22  1  0  0  0
  9 10  1  0  0  0
  9 27  2  0  0  0
 10 11  2  0  0  0
 10 15  1  0  0  0
 11 12  1  0  0  0
 11 97  1  0  0  0
 12 13  2  0  0  0
 12 98  1  0  0  0
 13 14  1  0  0  0
 13 31  1  0  0  0
 14 15  2  0  0  0
 14 99  1  0  0  0
 15100  1  0  0  0
 16 17  2  0  0  0
 16 21  1  0  0  0
 16 31  1  0  0  0
 17 18  1  0  0  0
 17101  1  0  0  0
 18 19  2  0  0  0
 18102  1  0  0  0
 19 20  1  0  0  0
 19 24  1  0  0  0
 20 21  2  0  0  0
 20103  1  0  0  0
 21 23  1  0  0  0
 22 28  1  0  0  0
 22 32  2  0  0  0
 26 27  1  0  0  0
 28104  1  0  0  0
 28105  1  0  0  0
 29106  1  0  0  0
 29107  1  0  0  0
 33 34  1  0  0  0
 33 66  1  0  0  0
 33 70  2  0  0  0
 34 36  1  0  0  0
 34 59  1  0  0  0
 34108  1  0  0  0
 35 44  2  0  0  0
 35 45  1  0  0  0
 35 68  1  0  0  0
 36 56  1  0  0  0
 36109  1  0  0  0
 37 39  1  0  0  0
 37 47  1  0  0  0
 37 66  1  0  0  0
 37110  1  0  0  0
 38 43  2  0  0  0
 38 46  1  0  0  0
 38 47  1  0  0  0
 39 64  1  0  0  0
 39 67  2  0  0  0
 40 52  1  0  0  0
 40 53  2  0  0  0
 40 58  1  0  0  0
 41111  1  0  0  0
 41112  1  0  0  0
 41113  1  0  0  0
 41 48  1  0  0  0
 42 43  1  0  0  0
 42 66  1  0  0  0
 42114  1  0  0  0
 42115  1  0  0  0
 43 44  1  0  0  0
 44116  1  0  0  0
 45 46  2  0  0  0
 45117  1  0  0  0
 46118  1  0  0  0
 47119  1  0  0  0
 47120  1  0  0  0
 48 56  1  0  0  0
 48 65  1  0  0  0
 48121  1  0  0  0
 49 50  1  0  0  0
 49 53  1  0  0  0
 49 64  1  0  0  0
 49122  1  0  0  0
 50 51  1  0  0  0
 50123  1  0  0  0
 50124  1  0  0  0
 51 52  1  0  0  0
 51125  1  0  0  0
 51126  1  0  0  0
 52127  1  0  0  0
 52128  1  0  0  0
 53 54  1  0  0  0
 54 55  2  0  0  0
 54129  1  0  0  0
 55 57  1  0  0  0
 55130  1  0  0  0
 56 69  2  0  0  0
 57 58  2  0  0  0
 57131  1  0  0  0
 58132  1  0  0  0
 59 60  1  0  0  0
 59 61  1  0  0  0
 59 62  1  0  0  0
 60133  1  0  0  0
 60134  1  0  0  0
 60135  1  0  0  0
 61136  1  0  0  0
 61137  1  0  0  0
 61138  1  0  0  0
 62139  1  0  0  0
 62140  1  0  0  0
 62141  1  0  0  0
 63 65  1  0  0  0
 63142  1  0  0  0
 63143  1  0  0  0
 63144  1  0  0  0
 64145  1  0  0  0
 65146  1  0  0  0
 68 83  1  0  0  0
 71 74  2  0  0  0
 71 75  1  0  0  0
 71147  1  0  0  0
 72 74  1  0  0  0
 72 76  2  0  0  0
 72148  1  0  0  0
 73 75  2  0  0  0
 73 76  1  0  0  0
 73149  1  0  0  0
 74 78  1  0  0  0
 75 80  1  0  0  0
 76 85  1  0  0  0
 77 81  1  0  0  0
 77 86  1  0  0  0
 77 87  2  0  0  0
 78150  1  0  0  0
 78151  1  0  0  0
 78152  1  0  0  0
 79153  1  0  0  0
 79154  1  0  0  0
 79155  1  0  0  0
 79 84  1  0  0  0
 80 82  1  0  0  0
 80156  1  0  0  0
 80157  1  0  0  0
 81 83  1  0  0  0
 81158  1  0  0  0
 81159  1  0  0  0
 82 84  1  0  0  0
 82160  1  0  0  0
 82161  1  0  0  0
 83162  1  0  0  0
 83163  1  0  0  0
 84 86  1  0  0  0
 84164  1  0  0  0
 85165  1  0  0  0
 86166  1  0  0  0
M  ISO  4   1 100  68 101  83 101  85 100
M  END
> <chiral flag>
0

> <version>
0

> <s_m_source_file>
/data/baiqing/PycharmProjects/Reinvent-master-3.2/result/LINK_invent/BTK/process_docking_weight1_custom_product_contain_oxygen_bond_distance_aromatic_linkinvent_7_9_3/rearranged_h_0139.sdf

> <i_m_source_file_index>
79

> <r_mmod_Potential_Energy-OPLS-2005>
-118.998603820801

> <r_mmod_Stretch_Energy-OPLS-2005>
32.8745231628418

> <r_mmod_Bend_Energy-OPLS-2005>
91.0142059326172

> <r_mmod_Torsional_Energy-OPLS-2005>
233.231399536133

> <r_mmod_Improper_Torsional_Energy-OPLS-2005>
2.24888896942139

> <r_mmod_Van_der_Waal_Energy-OPLS-2005>
153.926315307617

> <r_mmod_Electrostatic_Energy-OPLS-2005>
-407.537384033203

> <r_mmod_Solvation_Energy-OPLS-2005>
-231.624740600586

> <b_mmod_Minimization_Converged-OPLS-2005>
0

> <r_mmod_RMS_Derivative-OPLS-2005>
1.34783208370209

$$$$
79
                    3D
 Structure written by MMmdl.
159167  0  0  1  0            999 V2000
  -30.6704  -14.6879   20.4766 C   0  0  0  0  0  0
  -30.4185  -12.4190   19.4786 C   0  0  0  0  0  0
  -29.5040  -12.4975   18.2383 C   0  0  0  0  0  0
  -28.0304  -12.3331   18.6511 C   0  0  0  0  0  0
  -27.6427  -13.2340   19.8548 C   0  0  2  0  0  0
  -28.6870  -13.1675   20.9918 C   0  0  0  0  0  0
  -25.2505  -13.8214   20.5702 C   0  0  0  0  0  0
  -24.1796  -13.0454   20.9210 C   0  0  0  0  0  0
  -24.6391  -11.6932   20.8760 C   0  0  0  0  0  0
  -23.9072  -10.4301   21.0411 C   0  0  0  0  0  0
  -24.3620   -9.4216   21.9187 C   0  0  0  0  0  0
  -23.6295   -8.2252   22.0755 C   0  0  0  0  0  0
  -22.4280   -8.0285   21.3544 C   0  0  0  0  0  0
  -21.9918   -9.0261   20.4648 C   0  0  0  0  0  0
  -22.7246  -10.2141   20.3059 C   0  0  0  0  0  0
  -21.6857   -6.0739   22.5278 C   0  0  0  0  0  0
  -21.4015   -6.5642   23.8212 C   0  0  0  0  0  0
  -21.3658   -5.6793   24.9173 C   0  0  0  0  0  0
  -21.6045   -4.3056   24.7225 C   0  0  0  0  0  0
  -21.8819   -3.8149   23.4345 C   0  0  0  0  0  0
  -21.9193   -4.6966   22.3402 C   0  0  0  0  0  0
  -22.7817  -13.5231   21.1867 C   0  0  0  0  0  0
  -22.1662   -4.2153   21.0979 F   0  0  0  0  0  0
  -21.5629   -3.4539   25.7737 F   0  0  0  0  0  0
  -29.9953  -13.4909   20.4105 N   0  0  0  0  0  0
  -26.2939  -12.9428   20.3315 N   0  0  0  0  0  0
  -25.9324  -11.6567   20.5780 N   0  0  0  0  0  0
  -22.0462  -12.8217   22.0419 N   0  0  0  0  0  0
  -25.4196  -15.1937   20.4103 N   0  0  0  0  0  0
  -31.8537  -14.7110   20.1369 O   0  0  0  0  0  0
  -21.6644   -6.8883   21.4240 O   0  0  0  0  0  0
  -22.3505  -14.5539   20.6717 O   0  0  0  0  0  0
  -24.6295  -31.8590   23.2051 C   0  0  0  0  0  0
  -25.9133  -32.4774   23.8374 C   0  0  1  0  0  0
  -27.1943  -27.2653   20.1349 C   0  0  0  0  0  0
  -25.5947  -33.8579   24.2289 N   0  0  0  0  0  0
  -23.4254  -30.4861   21.5480 C   0  0  2  0  0  0
  -24.8716  -28.9501   20.1038 C   0  0  0  0  0  0
  -22.7497  -29.4617   22.4916 C   0  0  0  0  0  0
  -18.0293  -28.1383   22.8472 C   0  0  0  0  0  0
  -24.1498  -36.7296   23.2636 C   0  0  0  0  0  0
  -25.9728  -30.7684   21.3953 C   0  0  0  0  0  0
  -26.0405  -29.3935   20.7385 C   0  0  0  0  0  0
  -27.2041  -28.5580   20.7591 C   0  0  0  0  0  0
  -26.0389  -26.9463   19.3919 C   0  0  0  0  0  0
  -24.8761  -27.7321   19.4167 C   0  0  0  0  0  0
  -23.6430  -29.8343   20.1590 C   0  0  0  0  0  0
  -25.4123  -36.3080   24.0325 C   0  0  1  0  0  0
  -20.5897  -28.3692   23.1262 C   0  0  2  0  0  0
  -20.6788  -26.9409   22.5403 C   0  0  0  0  0  0
  -19.5760  -26.6378   21.5212 C   0  0  0  0  0  0
  -18.1939  -26.7919   22.1618 C   0  0  0  0  0  0
  -19.1548  -28.8853   23.2857 C   0  0  0  0  0  0
  -18.9468  -30.1450   23.8877 C   0  0  0  0  0  0
  -17.6469  -30.6577   24.0555 C   0  0  0  0  0  0
  -25.9064  -34.9448   23.5102 C   0  0  0  0  0  0
  -16.5361  -29.9070   23.6340 C   0  0  0  0  0  0
  -16.7282  -28.6497   23.0350 C   0  0  0  0  0  0
  -26.4501  -31.6592   25.0759 C   0  0  0  0  0  0
  -25.3712  -31.3744   26.1467 C   0  0  0  0  0  0
  -27.0352  -30.3001   24.6261 C   0  0  0  0  0  0
  -27.6053  -32.4339   25.7523 C   0  0  0  0  0  0
  -27.5577  -37.1804   24.8460 C   0  0  0  0  0  0
  -21.4208  -29.3047   22.3656 N   0  0  0  0  0  0
  -26.4296  -37.3776   23.9402 N   0  0  0  0  0  0
  -24.6940  -31.0560   22.1045 N   0  0  0  0  0  0
  -23.4200  -28.8146   23.3002 O   0  0  0  0  0  0
  -28.2495  -26.3220   20.1891 O   0  0  0  0  0  0
  -26.5628  -34.8910   22.4668 O   0  0  0  0  0  0
  -23.5453  -32.1434   23.7347 O   0  0  0  0  0  0
  -32.1279  -18.9784   20.1890 C   0  0  0  0  0  0
  -31.2203  -20.0416   20.3278 C   0  0  0  0  0  0
  -31.7165  -17.6411   20.3272 C   0  0  0  0  0  0
  -29.4617  -18.4157   20.7563 C   0  0  0  0  0  0
  -29.8596  -19.8118   20.6153 C   0  0  0  0  0  0
  -30.3708  -17.2888   20.6052 C   0  0  0  0  0  0
  -28.9603  -21.0561   20.8213 C   0  0  0  0  0  0
  -26.7412  -24.2020   20.2443 C   0  0  0  0  0  0
  -27.8529  -25.1544   22.2482 C   0  0  0  0  0  0
  -29.0928  -22.3718   19.9305 C   0  0  0  0  0  0
  -29.2399  -23.8683   20.5455 C   0  0  0  0  0  0
  -28.0219  -24.9186   20.7337 C   0  0  0  0  0  0
  -28.0425  -21.0279   21.6889 N   0  0  0  0  0  0
  -29.9658  -15.8585   20.7304 N   0  0  0  0  0  0
  -31.4634  -12.5066   19.1762 H   0  0  0  0  0  0
  -30.3340  -11.4432   19.9600 H   0  0  0  0  0  0
  -29.7780  -11.7265   17.5168 H   0  0  0  0  0  0
  -29.6427  -13.4557   17.7341 H   0  0  0  0  0  0
  -27.8789  -11.2847   18.9099 H   0  0  0  0  0  0
  -27.3744  -12.5329   17.8027 H   0  0  0  0  0  0
  -27.6406  -14.2561   19.4759 H   0  0  0  0  0  0
  -28.7072  -12.1748   21.4442 H   0  0  0  0  0  0
  -28.4315  -13.8631   21.7928 H   0  0  0  0  0  0
  -25.2761   -9.5696   22.4764 H   0  0  0  0  0  0
  -24.0008   -7.4643   22.7472 H   0  0  0  0  0  0
  -21.0855   -8.8777   19.8949 H   0  0  0  0  0  0
  -22.3701  -10.9680   19.6172 H   0  0  0  0  0  0
  -21.2006   -7.6149   23.9717 H   0  0  0  0  0  0
  -21.1481   -6.0522   25.9076 H   0  0  0  0  0  0
  -22.0599   -2.7612   23.2844 H   0  0  0  0  0  0
  -22.4085  -11.9878   22.4799 H   0  0  0  0  0  0
  -21.1077  -13.1237   22.2626 H   0  0  0  0  0  0
  -24.6492  -15.8456   20.5127 H   0  0  0  0  0  0
  -26.2633  -15.6319   20.0638 H   0  0  0  0  0  0
  -26.7191  -32.5422   23.1105 H   0  0  0  0  0  0
  -25.0098  -33.9734   25.0431 H   0  0  0  0  0  0
  -22.7210  -31.3090   21.4094 H   0  0  0  0  0  0
  -23.3755  -35.9632   23.3313 H   0  0  0  0  0  0
  -24.3578  -36.8915   22.2047 H   0  0  0  0  0  0
  -23.7265  -37.6504   23.6659 H   0  0  0  0  0  0
  -26.1204  -31.5298   20.6281 H   0  0  0  0  0  0
  -26.8472  -30.8093   22.0328 H   0  0  0  0  0  0
  -28.0871  -28.8789   21.2934 H   0  0  0  0  0  0
  -26.0059  -26.0622   18.7783 H   0  0  0  0  0  0
  -24.0017  -27.4085   18.8698 H   0  0  0  0  0  0
  -23.7653  -30.6189   19.4108 H   0  0  0  0  0  0
  -22.7614  -29.2693   19.8511 H   0  0  0  0  0  0
  -25.1302  -36.1932   25.0819 H   0  0  0  0  0  0
  -20.9982  -28.3270   24.1388 H   0  0  0  0  0  0
  -20.5712  -26.2292   23.3602 H   0  0  0  0  0  0
  -21.6652  -26.7450   22.1177 H   0  0  0  0  0  0
  -19.6930  -25.6289   21.1238 H   0  0  0  0  0  0
  -19.6703  -27.3189   20.6739 H   0  0  0  0  0  0
  -17.4214  -26.6672   21.4014 H   0  0  0  0  0  0
  -18.0323  -26.0065   22.9019 H   0  0  0  0  0  0
  -19.7951  -30.7263   24.2237 H   0  0  0  0  0  0
  -17.5031  -31.6257   24.5151 H   0  0  0  0  0  0
  -15.5357  -30.2963   23.7678 H   0  0  0  0  0  0
  -15.8684  -28.0808   22.7069 H   0  0  0  0  0  0
  -24.5906  -30.7072   25.7790 H   0  0  0  0  0  0
  -24.8871  -32.2906   26.4854 H   0  0  0  0  0  0
  -25.8010  -30.8947   27.0269 H   0  0  0  0  0  0
  -26.2939  -29.6735   24.1284 H   0  0  0  0  0  0
  -27.4020  -29.7276   25.4791 H   0  0  0  0  0  0
  -27.8830  -30.4265   23.9528 H   0  0  0  0  0  0
  -27.2673  -33.3667   26.2053 H   0  0  0  0  0  0
  -28.3874  -32.6865   25.0351 H   0  0  0  0  0  0
  -28.0701  -31.8498   26.5476 H   0  0  0  0  0  0
  -28.2589  -38.0102   24.7505 H   0  0  0  0  0  0
  -28.1079  -36.2630   24.6294 H   0  0  0  0  0  0
  -27.2287  -37.1463   25.8861 H   0  0  0  0  0  0
  -20.9395  -29.8784   21.6873 H   0  0  0  0  0  0
  -26.0178  -38.2853   24.1399 H   0  0  0  0  0  0
  -33.1671  -19.1928   19.9824 H   0  0  0  0  0  0
  -31.5981  -21.0501   20.2404 H   0  0  0  0  0  0
  -32.4956  -16.9066   20.2145 H   0  0  0  0  0  0
  -28.4260  -18.2094   20.9854 H   0  0  0  0  0  0
  -26.6517  -23.2075   20.6797 H   0  0  0  0  0  0
  -26.7352  -24.0746   19.1618 H   0  0  0  0  0  0
  -25.8273  -24.7069   20.5537 H   0  0  0  0  0  0
  -27.6944  -24.2161   22.7810 H   0  0  0  0  0  0
  -26.9987  -25.7963   22.4672 H   0  0  0  0  0  0
  -28.7345  -25.6305   22.6765 H   0  0  0  0  0  0
  -28.2903  -22.3511   19.1955 H   0  0  0  0  0  0
  -29.9737  -22.2280   19.3078 H   0  0  0  0  0  0
  -29.9302  -24.3796   19.8745 H   0  0  0  0  0  0
  -29.8118  -23.7923   21.4718 H   0  0  0  0  0  0
  -28.0287  -20.1441   22.1862 H   0  0  0  0  0  0
  -28.9976  -15.7028   20.9657 H   0  0  0  0  0  0
  1 25  1  0  0  0
  1 30  2  0  0  0
  1 84  1  0  0  0
  2  3  1  0  0  0
  2 25  1  0  0  0
  2 85  1  0  0  0
  2 86  1  0  0  0
  3  4  1  0  0  0
  3 87  1  0  0  0
  3 88  1  0  0  0
  4  5  1  0  0  0
  4 89  1  0  0  0
  4 90  1  0  0  0
  5  6  1  0  0  0
  5 26  1  0  0  0
  5 91  1  0  0  0
  6 25  1  0  0  0
  6 92  1  0  0  0
  6 93  1  0  0  0
  7  8  2  0  0  0
  7 26  1  0  0  0
  7 29  1  0  0  0
  8  9  1  0  0  0
  8 22  1  0  0  0
  9 10  1  0  0  0
  9 27  2  0  0  0
 10 11  2  0  0  0
 10 15  1  0  0  0
 11 12  1  0  0  0
 11 94  1  0  0  0
 12 13  2  0  0  0
 12 95  1  0  0  0
 13 14  1  0  0  0
 13 31  1  0  0  0
 14 15  2  0  0  0
 14 96  1  0  0  0
 15 97  1  0  0  0
 16 17  2  0  0  0
 16 21  1  0  0  0
 16 31  1  0  0  0
 17 18  1  0  0  0
 17 98  1  0  0  0
 18 19  2  0  0  0
 18 99  1  0  0  0
 19 20  1  0  0  0
 19 24  1  0  0  0
 20 21  2  0  0  0
 20100  1  0  0  0
 21 23  1  0  0  0
 22 28  1  0  0  0
 22 32  2  0  0  0
 26 27  1  0  0  0
 28101  1  0  0  0
 28102  1  0  0  0
 29103  1  0  0  0
 29104  1  0  0  0
 33 34  1  0  0  0
 33 66  1  0  0  0
 33 70  2  0  0  0
 34 36  1  0  0  0
 34 59  1  0  0  0
 34105  1  0  0  0
 35 44  2  0  0  0
 35 45  1  0  0  0
 35 68  1  0  0  0
 36 56  1  0  0  0
 36106  1  0  0  0
 37 39  1  0  0  0
 37 47  1  0  0  0
 37 66  1  0  0  0
 37107  1  0  0  0
 38 43  2  0  0  0
 38 46  1  0  0  0
 38 47  1  0  0  0
 39 64  1  0  0  0
 39 67  2  0  0  0
 40 52  1  0  0  0
 40 53  2  0  0  0
 40 58  1  0  0  0
 41108  1  0  0  0
 41109  1  0  0  0
 41110  1  0  0  0
 41 48  1  0  0  0
 42 43  1  0  0  0
 42 66  1  0  0  0
 42111  1  0  0  0
 42112  1  0  0  0
 43 44  1  0  0  0
 44113  1  0  0  0
 45 46  2  0  0  0
 45114  1  0  0  0
 46115  1  0  0  0
 47116  1  0  0  0
 47117  1  0  0  0
 48 56  1  0  0  0
 48 65  1  0  0  0
 48118  1  0  0  0
 49 50  1  0  0  0
 49 53  1  0  0  0
 49 64  1  0  0  0
 49119  1  0  0  0
 50 51  1  0  0  0
 50120  1  0  0  0
 50121  1  0  0  0
 51 52  1  0  0  0
 51122  1  0  0  0
 51123  1  0  0  0
 52124  1  0  0  0
 52125  1  0  0  0
 53 54  1  0  0  0
 54 55  2  0  0  0
 54126  1  0  0  0
 55 57  1  0  0  0
 55127  1  0  0  0
 56 69  2  0  0  0
 57 58  2  0  0  0
 57128  1  0  0  0
 58129  1  0  0  0
 59 60  1  0  0  0
 59 61  1  0  0  0
 59 62  1  0  0  0
 60130  1  0  0  0
 60131  1  0  0  0
 60132  1  0  0  0
 61133  1  0  0  0
 61134  1  0  0  0
 61135  1  0  0  0
 62136  1  0  0  0
 62137  1  0  0  0
 62138  1  0  0  0
 63 65  1  0  0  0
 63139  1  0  0  0
 63140  1  0  0  0
 63141  1  0  0  0
 64142  1  0  0  0
 65143  1  0  0  0
 68 82  1  0  0  0
 71 72  2  0  0  0
 71 73  1  0  0  0
 71144  1  0  0  0
 72 75  1  0  0  0
 72145  1  0  0  0
 73 76  2  0  0  0
 73146  1  0  0  0
 74 75  2  0  0  0
 74 76  1  0  0  0
 74147  1  0  0  0
 75 77  1  0  0  0
 76 84  1  0  0  0
 77 80  1  0  0  0
 77 83  2  0  0  0
 78148  1  0  0  0
 78149  1  0  0  0
 78150  1  0  0  0
 78 82  1  0  0  0
 79 82  1  0  0  0
 79151  1  0  0  0
 79152  1  0  0  0
 79153  1  0  0  0
 80 81  1  0  0  0
 80154  1  0  0  0
 80155  1  0  0  0
 81 82  1  0  0  0
 81156  1  0  0  0
 81157  1  0  0  0
 83158  1  0  0  0
 84159  1  0  0  0
M  ISO  4   1 100  68 101  82 101  84 100
M  END
> <chiral flag>
0

> <version>
0

> <s_m_source_file>
/data/baiqing/PycharmProjects/Reinvent-master-3.2/result/LINK_invent/BTK/process_docking_weight1_custom_product_contain_oxygen_bond_distance_aromatic_linkinvent_7_9_3/rearranged_h_0139.sdf

> <i_m_source_file_index>
80

> <r_mmod_Potential_Energy-OPLS-2005>
168.050369262695

> <r_mmod_Stretch_Energy-OPLS-2005>
127.14379119873

> <r_mmod_Bend_Energy-OPLS-2005>
178.882461547852

> <r_mmod_Torsional_Energy-OPLS-2005>
249.454162597656

> <r_mmod_Improper_Torsional_Energy-OPLS-2005>
4.63813400268555

> <r_mmod_Van_der_Waal_Energy-OPLS-2005>
163.114593505859

> <r_mmod_Electrostatic_Energy-OPLS-2005>
-428.278900146484

> <r_mmod_Solvation_Energy-OPLS-2005>
-207.443893432617

> <b_mmod_Minimization_Converged-OPLS-2005>
0

> <r_mmod_RMS_Derivative-OPLS-2005>
1.18585979938507

$$$$
80
                    3D
 Structure written by MMmdl.
160168  0  0  1  0            999 V2000
  -30.6499  -14.5611   20.5168 C   0  0  0  0  0  0
  -30.4302  -12.3435   19.4445 C   0  0  0  0  0  0
  -29.5036  -12.5012   18.2193 C   0  0  0  0  0  0
  -28.0241  -12.3535   18.6283 C   0  0  0  0  0  0
  -27.6570  -13.2109   19.8691 C   0  0  2  0  0  0
  -28.6985  -13.0309   20.9970 C   0  0  0  0  0  0
  -25.2573  -13.8165   20.5678 C   0  0  0  0  0  0
  -24.1833  -13.0438   20.9183 C   0  0  0  0  0  0
  -24.6392  -11.6906   20.8738 C   0  0  0  0  0  0
  -23.9063  -10.4292   21.0405 C   0  0  0  0  0  0
  -24.3615   -9.4207   21.9183 C   0  0  0  0  0  0
  -23.6290   -8.2243   22.0753 C   0  0  0  0  0  0
  -22.4273   -8.0281   21.3543 C   0  0  0  0  0  0
  -21.9908   -9.0255   20.4646 C   0  0  0  0  0  0
  -22.7236  -10.2134   20.3054 C   0  0  0  0  0  0
  -21.6851   -6.0736   22.5280 C   0  0  0  0  0  0
  -21.4014   -6.5641   23.8213 C   0  0  0  0  0  0
  -21.3659   -5.6793   24.9175 C   0  0  0  0  0  0
  -21.6043   -4.3055   24.7225 C   0  0  0  0  0  0
  -21.8819   -3.8147   23.4345 C   0  0  0  0  0  0
  -21.9193   -4.6965   22.3402 C   0  0  0  0  0  0
  -22.7855  -13.5234   21.1849 C   0  0  0  0  0  0
  -22.1660   -4.2151   21.0979 F   0  0  0  0  0  0
  -21.5630   -3.4538   25.7738 F   0  0  0  0  0  0
  -30.0231  -13.3503   20.4411 N   0  0  0  0  0  0
  -26.3001  -12.9337   20.3332 N   0  0  0  0  0  0
  -25.9318  -11.6497   20.5758 N   0  0  0  0  0  0
  -22.0498  -12.8225   22.0406 N   0  0  0  0  0  0
  -25.4297  -15.1885   20.4088 N   0  0  0  0  0  0
  -31.8037  -14.7210   20.1052 O   0  0  0  0  0  0
  -21.6636   -6.8878   21.4241 O   0  0  0  0  0  0
  -22.3544  -14.5542   20.6700 O   0  0  0  0  0  0
  -24.6187  -31.8632   23.2053 C   0  0  0  0  0  0
  -25.9060  -32.4798   23.8364 C   0  0  1  0  0  0
  -27.2346  -27.3815   20.1076 C   0  0  0  0  0  0
  -25.5902  -33.8598   24.2294 N   0  0  0  0  0  0
  -23.4086  -30.4844   21.5471 C   0  0  2  0  0  0
  -24.8546  -28.9405   20.1138 C   0  0  0  0  0  0
  -22.7430  -29.4627   22.4976 C   0  0  0  0  0  0
  -18.0273  -28.1378   22.8487 C   0  0  0  0  0  0
  -24.1489  -36.7303   23.2640 C   0  0  0  0  0  0
  -25.9411  -30.8131   21.3650 C   0  0  0  0  0  0
  -26.0162  -29.4433   20.7113 C   0  0  0  0  0  0
  -27.2056  -28.6726   20.6997 C   0  0  0  0  0  0
  -26.0520  -26.9048   19.4996 C   0  0  0  0  0  0
  -24.8703  -27.6736   19.5041 C   0  0  0  0  0  0
  -23.6187  -29.8128   20.1630 C   0  0  0  0  0  0
  -25.4113  -36.3098   24.0333 C   0  0  1  0  0  0
  -20.5864  -28.3665   23.1311 C   0  0  2  0  0  0
  -20.6762  -26.9396   22.5420 C   0  0  0  0  0  0
  -19.5742  -26.6378   21.5216 C   0  0  0  0  0  0
  -18.1918  -26.7922   22.1620 C   0  0  0  0  0  0
  -19.1523  -28.8840   23.2894 C   0  0  0  0  0  0
  -18.9454  -30.1448   23.8901 C   0  0  0  0  0  0
  -17.6456  -30.6584   24.0563 C   0  0  0  0  0  0
  -25.9040  -34.9464   23.5112 C   0  0  0  0  0  0
  -16.5346  -29.9084   23.6330 C   0  0  0  0  0  0
  -16.7264  -28.6504   23.0345 C   0  0  0  0  0  0
  -26.4474  -31.6599   25.0713 C   0  0  0  0  0  0
  -25.3732  -31.3719   26.1459 C   0  0  0  0  0  0
  -27.0319  -30.3039   24.6122 C   0  0  0  0  0  0
  -27.6041  -32.4333   25.7478 C   0  0  0  0  0  0
  -27.5582  -37.1805   24.8464 C   0  0  0  0  0  0
  -21.4153  -29.3027   22.3720 N   0  0  0  0  0  0
  -26.4295  -37.3787   23.9407 N   0  0  0  0  0  0
  -24.6745  -31.0694   22.0971 N   0  0  0  0  0  0
  -23.4183  -28.8173   23.3037 O   0  0  0  0  0  0
  -28.4179  -26.6531   20.1376 O   0  0  0  0  0  0
  -26.5610  -34.8922   22.4680 O   0  0  0  0  0  0
  -23.5370  -32.1401   23.7427 O   0  0  0  0  0  0
  -29.0328  -17.9754   21.1994 C   0  0  0  0  0  0
  -30.9955  -17.6398   19.9782 C   0  0  0  0  0  0
  -29.9963  -17.0264   20.6967 C   0  0  0  0  0  0
  -29.3019  -19.2941   20.8683 C   0  0  0  0  0  0
  -30.5692  -23.1019   21.1957 C   0  0  0  0  0  0
  -28.5370  -25.1127   22.4402 C   0  0  0  0  0  0
  -26.6958  -23.9732   21.2393 C   0  0  0  0  0  0
  -28.6442  -21.6464   20.4219 C   0  0  0  0  0  0
  -28.4807  -25.2105   19.9167 C   0  0  0  0  0  0
  -29.0388  -22.9164   21.2652 C   0  0  2  0  0  0
  -28.2058  -24.2867   21.1701 C   0  0  0  0  0  0
  -29.8713  -15.6000   20.9297 N   0  0  0  0  0  0
  -28.6757  -20.4551   21.2577 O   0  0  0  0  0  0
  -30.7749  -19.3805   19.9191 S   0  0  0  0  0  0
  -31.4745  -12.4508   19.1461 H   0  0  0  0  0  0
  -30.3432  -11.3412   19.8664 H   0  0  0  0  0  0
  -29.7561  -11.7615   17.4583 H   0  0  0  0  0  0
  -29.6619  -13.4783   17.7599 H   0  0  0  0  0  0
  -27.8457  -11.2992   18.8426 H   0  0  0  0  0  0
  -27.3738  -12.6059   17.7899 H   0  0  0  0  0  0
  -27.6876  -14.2519   19.5470 H   0  0  0  0  0  0
  -28.6899  -12.0034   21.3637 H   0  0  0  0  0  0
  -28.4533  -13.6522   21.8596 H   0  0  0  0  0  0
  -25.2761   -9.5681   22.4755 H   0  0  0  0  0  0
  -24.0000   -7.4634   22.7470 H   0  0  0  0  0  0
  -21.0841   -8.8772   19.8951 H   0  0  0  0  0  0
  -22.3696  -10.9672   19.6162 H   0  0  0  0  0  0
  -21.2006   -7.6149   23.9717 H   0  0  0  0  0  0
  -21.1482   -6.0523   25.9078 H   0  0  0  0  0  0
  -22.0599   -2.7610   23.2844 H   0  0  0  0  0  0
  -22.4111  -11.9882   22.4788 H   0  0  0  0  0  0
  -21.1118  -13.1254   22.2618 H   0  0  0  0  0  0
  -24.6607  -15.8420   20.5098 H   0  0  0  0  0  0
  -26.2760  -15.6248   20.0652 H   0  0  0  0  0  0
  -26.7124  -32.5489   23.1116 H   0  0  0  0  0  0
  -25.0063  -33.9753   25.0447 H   0  0  0  0  0  0
  -22.6997  -31.3024   21.4047 H   0  0  0  0  0  0
  -23.3751  -35.9637   23.3311 H   0  0  0  0  0  0
  -24.3572  -36.8912   22.2051 H   0  0  0  0  0  0
  -23.7244  -37.6507   23.6655 H   0  0  0  0  0  0
  -26.0605  -31.5785   20.5968 H   0  0  0  0  0  0
  -26.8262  -30.8648   21.9875 H   0  0  0  0  0  0
  -28.1028  -29.0570   21.1642 H   0  0  0  0  0  0
  -26.0196  -25.9378   19.0219 H   0  0  0  0  0  0
  -23.9771  -27.2807   19.0380 H   0  0  0  0  0  0
  -23.7293  -30.5857   19.4018 H   0  0  0  0  0  0
  -22.7417  -29.2339   19.8679 H   0  0  0  0  0  0
  -25.1295  -36.1956   25.0828 H   0  0  0  0  0  0
  -20.9952  -28.3234   24.1432 H   0  0  0  0  0  0
  -20.5669  -26.2271   23.3609 H   0  0  0  0  0  0
  -21.6634  -26.7439   22.1212 H   0  0  0  0  0  0
  -19.6905  -25.6293   21.1238 H   0  0  0  0  0  0
  -19.6686  -27.3198   20.6752 H   0  0  0  0  0  0
  -17.4192  -26.6675   21.4018 H   0  0  0  0  0  0
  -18.0310  -26.0066   22.9016 H   0  0  0  0  0  0
  -19.7935  -30.7258   24.2270 H   0  0  0  0  0  0
  -17.5016  -31.6265   24.5165 H   0  0  0  0  0  0
  -15.5347  -30.2988   23.7658 H   0  0  0  0  0  0
  -15.8659  -28.0830   22.7049 H   0  0  0  0  0  0
  -24.5894  -30.7081   25.7788 H   0  0  0  0  0  0
  -24.8937  -32.2881   26.4916 H   0  0  0  0  0  0
  -25.8073  -30.8872   27.0214 H   0  0  0  0  0  0
  -26.2878  -29.6785   24.1173 H   0  0  0  0  0  0
  -27.4076  -29.7291   25.4597 H   0  0  0  0  0  0
  -27.8715  -30.4349   23.9291 H   0  0  0  0  0  0
  -27.2651  -33.3624   26.2075 H   0  0  0  0  0  0
  -28.3838  -32.6912   25.0298 H   0  0  0  0  0  0
  -28.0727  -31.8452   26.5379 H   0  0  0  0  0  0
  -28.2605  -38.0097   24.7510 H   0  0  0  0  0  0
  -28.1071  -36.2627   24.6296 H   0  0  0  0  0  0
  -27.2294  -37.1462   25.8866 H   0  0  0  0  0  0
  -20.9323  -29.8756   21.6943 H   0  0  0  0  0  0
  -26.0182  -38.2864   24.1409 H   0  0  0  0  0  0
  -28.1874  -17.6697   21.7994 H   0  0  0  0  0  0
  -31.8504  -17.1979   19.4803 H   0  0  0  0  0  0
  -31.0777  -22.1703   21.4465 H   0  0  0  0  0  0
  -30.9339  -23.8521   21.8951 H   0  0  0  0  0  0
  -30.9002  -23.3837   20.1965 H   0  0  0  0  0  0
  -27.8744  -25.9722   22.5485 H   0  0  0  0  0  0
  -29.5522  -25.5078   22.4177 H   0  0  0  0  0  0
  -28.4299  -24.5246   23.3524 H   0  0  0  0  0  0
  -26.1043  -24.8724   21.4122 H   0  0  0  0  0  0
  -26.4671  -23.2817   22.0509 H   0  0  0  0  0  0
  -26.3283  -23.5305   20.3138 H   0  0  0  0  0  0
  -29.2535  -21.5746   19.5215 H   0  0  0  0  0  0
  -27.6213  -21.7289   20.0601 H   0  0  0  0  0  0
  -27.8961  -24.8982   19.0522 H   0  0  0  0  0  0
  -29.5090  -25.0511   19.5990 H   0  0  0  0  0  0
  -28.8505  -22.5831   22.2869 H   0  0  0  0  0  0
  -28.9945  -15.3062   21.3325 H   0  0  0  0  0  0
  1 25  1  0  0  0
  1 30  2  0  0  0
  1 82  1  0  0  0
  2  3  1  0  0  0
  2 25  1  0  0  0
  2 85  1  0  0  0
  2 86  1  0  0  0
  3  4  1  0  0  0
  3 87  1  0  0  0
  3 88  1  0  0  0
  4  5  1  0  0  0
  4 89  1  0  0  0
  4 90  1  0  0  0
  5  6  1  0  0  0
  5 26  1  0  0  0
  5 91  1  0  0  0
  6 25  1  0  0  0
  6 92  1  0  0  0
  6 93  1  0  0  0
  7  8  2  0  0  0
  7 26  1  0  0  0
  7 29  1  0  0  0
  8  9  1  0  0  0
  8 22  1  0  0  0
  9 10  1  0  0  0
  9 27  2  0  0  0
 10 11  2  0  0  0
 10 15  1  0  0  0
 11 12  1  0  0  0
 11 94  1  0  0  0
 12 13  2  0  0  0
 12 95  1  0  0  0
 13 14  1  0  0  0
 13 31  1  0  0  0
 14 15  2  0  0  0
 14 96  1  0  0  0
 15 97  1  0  0  0
 16 17  2  0  0  0
 16 21  1  0  0  0
 16 31  1  0  0  0
 17 18  1  0  0  0
 17 98  1  0  0  0
 18 19  2  0  0  0
 18 99  1  0  0  0
 19 20  1  0  0  0
 19 24  1  0  0  0
 20 21  2  0  0  0
 20100  1  0  0  0
 21 23  1  0  0  0
 22 28  1  0  0  0
 22 32  2  0  0  0
 26 27  1  0  0  0
 28101  1  0  0  0
 28102  1  0  0  0
 29103  1  0  0  0
 29104  1  0  0  0
 33 34  1  0  0  0
 33 66  1  0  0  0
 33 70  2  0  0  0
 34 36  1  0  0  0
 34 59  1  0  0  0
 34105  1  0  0  0
 35 44  2  0  0  0
 35 45  1  0  0  0
 35 68  1  0  0  0
 36 56  1  0  0  0
 36106  1  0  0  0
 37 39  1  0  0  0
 37 47  1  0  0  0
 37 66  1  0  0  0
 37107  1  0  0  0
 38 43  2  0  0  0
 38 46  1  0  0  0
 38 47  1  0  0  0
 39 64  1  0  0  0
 39 67  2  0  0  0
 40 52  1  0  0  0
 40 53  2  0  0  0
 40 58  1  0  0  0
 41108  1  0  0  0
 41109  1  0  0  0
 41110  1  0  0  0
 41 48  1  0  0  0
 42 43  1  0  0  0
 42 66  1  0  0  0
 42111  1  0  0  0
 42112  1  0  0  0
 43 44  1  0  0  0
 44113  1  0  0  0
 45 46  2  0  0  0
 45114  1  0  0  0
 46115  1  0  0  0
 47116  1  0  0  0
 47117  1  0  0  0
 48 56  1  0  0  0
 48 65  1  0  0  0
 48118  1  0  0  0
 49 50  1  0  0  0
 49 53  1  0  0  0
 49 64  1  0  0  0
 49119  1  0  0  0
 50 51  1  0  0  0
 50120  1  0  0  0
 50121  1  0  0  0
 51 52  1  0  0  0
 51122  1  0  0  0
 51123  1  0  0  0
 52124  1  0  0  0
 52125  1  0  0  0
 53 54  1  0  0  0
 54 55  2  0  0  0
 54126  1  0  0  0
 55 57  1  0  0  0
 55127  1  0  0  0
 56 69  2  0  0  0
 57 58  2  0  0  0
 57128  1  0  0  0
 58129  1  0  0  0
 59 60  1  0  0  0
 59 61  1  0  0  0
 59 62  1  0  0  0
 60130  1  0  0  0
 60131  1  0  0  0
 60132  1  0  0  0
 61133  1  0  0  0
 61134  1  0  0  0
 61135  1  0  0  0
 62136  1  0  0  0
 62137  1  0  0  0
 62138  1  0  0  0
 63 65  1  0  0  0
 63139  1  0  0  0
 63140  1  0  0  0
 63141  1  0  0  0
 64142  1  0  0  0
 65143  1  0  0  0
 68 79  1  0  0  0
 71 73  1  0  0  0
 71 74  2  0  0  0
 71144  1  0  0  0
 72 73  2  0  0  0
 72 84  1  0  0  0
 72145  1  0  0  0
 73 82  1  0  0  0
 74 83  1  0  0  0
 74 84  1  0  0  0
 75146  1  0  0  0
 75147  1  0  0  0
 75148  1  0  0  0
 75 80  1  0  0  0
 76149  1  0  0  0
 76150  1  0  0  0
 76151  1  0  0  0
 76 81  1  0  0  0
 77 81  1  0  0  0
 77152  1  0  0  0
 77153  1  0  0  0
 77154  1  0  0  0
 78 80  1  0  0  0
 78 83  1  0  0  0
 78155  1  0  0  0
 78156  1  0  0  0
 79 81  1  0  0  0
 79157  1  0  0  0
 79158  1  0  0  0
 80 81  1  0  0  0
 80159  1  0  0  0
 82160  1  0  0  0
M  ISO  4   1 100  68 101  79 101  82 100
M  END
> <chiral flag>
0

> <version>
0

> <s_m_source_file>
/data/baiqing/PycharmProjects/Reinvent-master-3.2/result/LINK_invent/BTK/process_docking_weight1_custom_product_contain_oxygen_bond_distance_aromatic_linkinvent_7_9_3/rearranged_h_0139.sdf

> <i_m_source_file_index>
81

> <r_mmod_Potential_Energy-OPLS-2005>
68.5028533935547

> <r_mmod_Stretch_Energy-OPLS-2005>
59.8517150878906

> <r_mmod_Bend_Energy-OPLS-2005>
160.717239379883

> <r_mmod_Torsional_Energy-OPLS-2005>
242.047439575195

> <r_mmod_Improper_Torsional_Energy-OPLS-2005>
4.1361231803894

> <r_mmod_Van_der_Waal_Energy-OPLS-2005>
132.627716064453

> <r_mmod_Electrostatic_Energy-OPLS-2005>
-352.724273681641

> <r_mmod_Solvation_Energy-OPLS-2005>
-202.788299560547

> <b_mmod_Minimization_Converged-OPLS-2005>
0

> <r_mmod_RMS_Derivative-OPLS-2005>
0.475611239671707

$$$$
81
                    3D
 Structure written by MMmdl.
160169  0  0  1  0            999 V2000
  -30.7071  -14.5737   20.5173 C   0  0  0  0  0  0
  -30.4133  -12.3563   19.4535 C   0  0  0  0  0  0
  -29.4964  -12.4965   18.2219 C   0  0  0  0  0  0
  -28.0206  -12.3484   18.6353 C   0  0  0  0  0  0
  -27.6505  -13.2244   19.8627 C   0  0  2  0  0  0
  -28.6956  -13.0984   20.9951 C   0  0  0  0  0  0
  -25.2539  -13.8198   20.5697 C   0  0  0  0  0  0
  -24.1817  -13.0450   20.9201 C   0  0  0  0  0  0
  -24.6398  -11.6925   20.8755 C   0  0  0  0  0  0
  -23.9075  -10.4301   21.0412 C   0  0  0  0  0  0
  -24.3624   -9.4212   21.9187 C   0  0  0  0  0  0
  -23.6298   -8.2248   22.0755 C   0  0  0  0  0  0
  -22.4280   -8.0287   21.3547 C   0  0  0  0  0  0
  -21.9918   -9.0262   20.4648 C   0  0  0  0  0  0
  -22.7248  -10.2141   20.3060 C   0  0  0  0  0  0
  -21.6853   -6.0740   22.5280 C   0  0  0  0  0  0
  -21.4013   -6.5643   23.8213 C   0  0  0  0  0  0
  -21.3660   -5.6795   24.9174 C   0  0  0  0  0  0
  -21.6044   -4.3058   24.7224 C   0  0  0  0  0  0
  -21.8819   -3.8151   23.4345 C   0  0  0  0  0  0
  -21.9192   -4.6968   22.3402 C   0  0  0  0  0  0
  -22.7837  -13.5233   21.1860 C   0  0  0  0  0  0
  -22.1661   -4.2156   21.0979 F   0  0  0  0  0  0
  -21.5630   -3.4540   25.7736 F   0  0  0  0  0  0
  -30.0148  -13.3976   20.4221 N   0  0  0  0  0  0
  -26.2977  -12.9398   20.3339 N   0  0  0  0  0  0
  -25.9330  -11.6544   20.5782 N   0  0  0  0  0  0
  -22.0480  -12.8221   22.0413 N   0  0  0  0  0  0
  -25.4238  -15.1919   20.4097 N   0  0  0  0  0  0
  -31.8643  -14.6472   20.0987 O   0  0  0  0  0  0
  -21.6641   -6.8886   21.4243 O   0  0  0  0  0  0
  -22.3522  -14.5540   20.6710 O   0  0  0  0  0  0
  -24.6213  -31.8637   23.2071 C   0  0  0  0  0  0
  -25.9080  -32.4802   23.8385 C   0  0  1  0  0  0
  -27.2193  -27.3673   20.1128 C   0  0  0  0  0  0
  -25.5913  -33.8602   24.2312 N   0  0  0  0  0  0
  -23.4136  -30.4886   21.5480 C   0  0  2  0  0  0
  -24.8615  -28.9559   20.1057 C   0  0  0  0  0  0
  -22.7458  -29.4639   22.4951 C   0  0  0  0  0  0
  -18.0284  -28.1377   22.8488 C   0  0  0  0  0  0
  -24.1489  -36.7304   23.2639 C   0  0  0  0  0  0
  -25.9506  -30.8099   21.3726 C   0  0  0  0  0  0
  -26.0274  -29.4425   20.7129 C   0  0  0  0  0  0
  -27.2137  -28.6575   20.7114 C   0  0  0  0  0  0
  -26.0433  -26.9324   19.4638 C   0  0  0  0  0  0
  -24.8686  -27.7040   19.4717 C   0  0  0  0  0  0
  -23.6260  -29.8280   20.1607 C   0  0  0  0  0  0
  -25.4112  -36.3100   24.0337 C   0  0  1  0  0  0
  -20.5881  -28.3676   23.1292 C   0  0  2  0  0  0
  -20.6771  -26.9405   22.5408 C   0  0  0  0  0  0
  -19.5747  -26.6380   21.5210 C   0  0  0  0  0  0
  -18.1927  -26.7921   22.1624 C   0  0  0  0  0  0
  -19.1536  -28.8845   23.2885 C   0  0  0  0  0  0
  -18.9461  -30.1446   23.8902 C   0  0  0  0  0  0
  -17.6462  -30.6581   24.0563 C   0  0  0  0  0  0
  -25.9043  -34.9465   23.5123 C   0  0  0  0  0  0
  -16.5353  -29.9082   23.6327 C   0  0  0  0  0  0
  -16.7273  -28.6498   23.0351 C   0  0  0  0  0  0
  -26.4483  -31.6596   25.0734 C   0  0  0  0  0  0
  -25.3734  -31.3714   26.1473 C   0  0  0  0  0  0
  -27.0322  -30.3031   24.6150 C   0  0  0  0  0  0
  -27.6055  -32.4318   25.7497 C   0  0  0  0  0  0
  -27.5582  -37.1807   24.8467 C   0  0  0  0  0  0
  -21.4176  -29.3039   22.3696 N   0  0  0  0  0  0
  -26.4297  -37.3786   23.9409 N   0  0  0  0  0  0
  -24.6803  -31.0689   22.1001 N   0  0  0  0  0  0
  -23.4202  -28.8174   23.3012 O   0  0  0  0  0  0
  -28.3039  -26.4969   20.1813 O   0  0  0  0  0  0
  -26.5605  -34.8922   22.4685 O   0  0  0  0  0  0
  -23.5388  -32.1414   23.7425 O   0  0  0  0  0  0
  -32.3952  -18.6316   21.3037 C   0  0  0  0  0  0
  -31.5485  -19.7356   21.1188 C   0  0  0  0  0  0
  -31.8862  -17.3232   21.2488 C   0  0  0  0  0  0
  -29.6623  -18.2169   20.8239 C   0  0  0  0  0  0
  -30.1664  -19.5623   20.8963 C   0  0  0  0  0  0
  -30.5187  -17.0707   20.9749 C   0  0  0  0  0  0
  -29.6480  -21.7873   19.6024 C   0  0  0  0  0  0
  -29.3594  -21.7076   22.0789 C   0  0  0  0  0  0
  -28.8324  -23.1244   19.5486 C   0  0  0  0  0  0
  -28.5420  -23.0255   22.0141 C   0  0  0  0  0  0
  -29.2825  -20.8453   20.7909 C   0  0  2  0  0  0
  -28.9181  -23.9800   20.8441 C   0  0  2  0  0  0
  -27.9810  -25.2522   20.8855 C   0  0  0  0  0  0
  -30.0235  -15.6982   20.8955 N   0  0  0  0  0  0
  -31.4597  -12.4323   19.1528 H   0  0  0  0  0  0
  -30.3078  -11.3668   19.9011 H   0  0  0  0  0  0
  -29.7515  -11.7451   17.4734 H   0  0  0  0  0  0
  -29.6532  -13.4674   17.7488 H   0  0  0  0  0  0
  -27.8503  -11.2964   18.8673 H   0  0  0  0  0  0
  -27.3669  -12.5821   17.7942 H   0  0  0  0  0  0
  -27.6668  -14.2577   19.5157 H   0  0  0  0  0  0
  -28.6911  -12.0912   21.4142 H   0  0  0  0  0  0
  -28.4551  -13.7695   21.8211 H   0  0  0  0  0  0
  -25.2767   -9.5686   22.4765 H   0  0  0  0  0  0
  -24.0007   -7.4637   22.7474 H   0  0  0  0  0  0
  -21.0852   -8.8784   19.8952 H   0  0  0  0  0  0
  -22.3709  -10.9683   19.6173 H   0  0  0  0  0  0
  -21.2003   -7.6150   23.9720 H   0  0  0  0  0  0
  -21.1482   -6.0523   25.9078 H   0  0  0  0  0  0
  -22.0597   -2.7614   23.2841 H   0  0  0  0  0  0
  -22.4095  -11.9878   22.4794 H   0  0  0  0  0  0
  -21.1098  -13.1247   22.2625 H   0  0  0  0  0  0
  -24.6550  -15.8452   20.5147 H   0  0  0  0  0  0
  -26.2704  -15.6306   20.0706 H   0  0  0  0  0  0
  -26.7153  -32.5493   23.1144 H   0  0  0  0  0  0
  -25.0073  -33.9757   25.0465 H   0  0  0  0  0  0
  -22.7053  -31.3078   21.4086 H   0  0  0  0  0  0
  -23.3748  -35.9638   23.3307 H   0  0  0  0  0  0
  -24.3584  -36.8915   22.2052 H   0  0  0  0  0  0
  -23.7241  -37.6511   23.6650 H   0  0  0  0  0  0
  -26.0761  -31.5772   20.6076 H   0  0  0  0  0  0
  -26.8332  -30.8575   21.9990 H   0  0  0  0  0  0
  -28.1053  -29.0174   21.2054 H   0  0  0  0  0  0
  -26.0219  -25.9730   18.9666 H   0  0  0  0  0  0
  -23.9780  -27.3284   18.9868 H   0  0  0  0  0  0
  -23.7383  -30.6066   19.4055 H   0  0  0  0  0  0
  -22.7484  -29.2527   19.8605 H   0  0  0  0  0  0
  -25.1287  -36.1966   25.0829 H   0  0  0  0  0  0
  -20.9972  -28.3244   24.1414 H   0  0  0  0  0  0
  -20.5670  -26.2289   23.3606 H   0  0  0  0  0  0
  -21.6639  -26.7435   22.1203 H   0  0  0  0  0  0
  -19.6909  -25.6293   21.1235 H   0  0  0  0  0  0
  -19.6682  -27.3196   20.6743 H   0  0  0  0  0  0
  -17.4195  -26.6673   21.4026 H   0  0  0  0  0  0
  -18.0325  -26.0061   22.9018 H   0  0  0  0  0  0
  -19.7939  -30.7254   24.2279 H   0  0  0  0  0  0
  -17.5020  -31.6265   24.5157 H   0  0  0  0  0  0
  -15.5354  -30.2984   23.7646 H   0  0  0  0  0  0
  -15.8675  -28.0817   22.7064 H   0  0  0  0  0  0
  -24.5909  -30.7063   25.7806 H   0  0  0  0  0  0
  -24.8924  -32.2872   26.4919 H   0  0  0  0  0  0
  -25.8072  -30.8882   27.0237 H   0  0  0  0  0  0
  -26.2883  -29.6789   24.1185 H   0  0  0  0  0  0
  -27.4055  -29.7275   25.4630 H   0  0  0  0  0  0
  -27.8737  -30.4337   23.9343 H   0  0  0  0  0  0
  -27.2679  -33.3618   26.2083 H   0  0  0  0  0  0
  -28.3859  -32.6875   25.0318 H   0  0  0  0  0  0
  -28.0728  -31.8437   26.5407 H   0  0  0  0  0  0
  -28.2601  -38.0101   24.7508 H   0  0  0  0  0  0
  -28.1072  -36.2631   24.6297 H   0  0  0  0  0  0
  -27.2298  -37.1465   25.8870 H   0  0  0  0  0  0
  -20.9346  -29.8785   21.6933 H   0  0  0  0  0  0
  -26.0185  -38.2866   24.1401 H   0  0  0  0  0  0
  -33.4467  -18.7895   21.4989 H   0  0  0  0  0  0
  -31.9720  -20.7284   21.1762 H   0  0  0  0  0  0
  -32.5837  -16.5179   21.4245 H   0  0  0  0  0  0
  -28.6059  -18.0670   20.6493 H   0  0  0  0  0  0
  -30.7071  -22.0410   19.6526 H   0  0  0  0  0  0
  -29.5166  -21.2478   18.6638 H   0  0  0  0  0  0
  -29.0184  -21.1147   22.9284 H   0  0  0  0  0  0
  -30.3958  -21.9680   22.2946 H   0  0  0  0  0  0
  -27.7873  -22.8866   19.3453 H   0  0  0  0  0  0
  -29.1713  -23.7227   18.7018 H   0  0  0  0  0  0
  -28.6580  -23.5528   22.9619 H   0  0  0  0  0  0
  -27.4829  -22.7725   21.9449 H   0  0  0  0  0  0
  -28.2491  -20.5207   20.6596 H   0  0  0  0  0  0
  -29.9486  -24.3075   20.9879 H   0  0  0  0  0  0
  -27.9002  -25.5554   21.9307 H   0  0  0  0  0  0
  -26.9830  -24.8951   20.6335 H   0  0  0  0  0  0
  -29.0397  -15.5636   21.0715 H   0  0  0  0  0  0
  1 25  1  0  0  0
  1 30  2  0  0  0
  1 84  1  0  0  0
  2  3  1  0  0  0
  2 25  1  0  0  0
  2 85  1  0  0  0
  2 86  1  0  0  0
  3  4  1  0  0  0
  3 87  1  0  0  0
  3 88  1  0  0  0
  4  5  1  0  0  0
  4 89  1  0  0  0
  4 90  1  0  0  0
  5  6  1  0  0  0
  5 26  1  0  0  0
  5 91  1  0  0  0
  6 25  1  0  0  0
  6 92  1  0  0  0
  6 93  1  0  0  0
  7  8  2  0  0  0
  7 26  1  0  0  0
  7 29  1  0  0  0
  8  9  1  0  0  0
  8 22  1  0  0  0
  9 10  1  0  0  0
  9 27  2  0  0  0
 10 11  2  0  0  0
 10 15  1  0  0  0
 11 12  1  0  0  0
 11 94  1  0  0  0
 12 13  2  0  0  0
 12 95  1  0  0  0
 13 14  1  0  0  0
 13 31  1  0  0  0
 14 15  2  0  0  0
 14 96  1  0  0  0
 15 97  1  0  0  0
 16 17  2  0  0  0
 16 21  1  0  0  0
 16 31  1  0  0  0
 17 18  1  0  0  0
 17 98  1  0  0  0
 18 19  2  0  0  0
 18 99  1  0  0  0
 19 20  1  0  0  0
 19 24  1  0  0  0
 20 21  2  0  0  0
 20100  1  0  0  0
 21 23  1  0  0  0
 22 28  1  0  0  0
 22 32  2  0  0  0
 26 27  1  0  0  0
 28101  1  0  0  0
 28102  1  0  0  0
 29103  1  0  0  0
 29104  1  0  0  0
 33 34  1  0  0  0
 33 66  1  0  0  0
 33 70  2  0  0  0
 34 36  1  0  0  0
 34 59  1  0  0  0
 34105  1  0  0  0
 35 44  2  0  0  0
 35 45  1  0  0  0
 35 68  1  0  0  0
 36 56  1  0  0  0
 36106  1  0  0  0
 37 39  1  0  0  0
 37 47  1  0  0  0
 37 66  1  0  0  0
 37107  1  0  0  0
 38 43  2  0  0  0
 38 46  1  0  0  0
 38 47  1  0  0  0
 39 64  1  0  0  0
 39 67  2  0  0  0
 40 52  1  0  0  0
 40 53  2  0  0  0
 40 58  1  0  0  0
 41108  1  0  0  0
 41109  1  0  0  0
 41110  1  0  0  0
 41 48  1  0  0  0
 42 43  1  0  0  0
 42 66  1  0  0  0
 42111  1  0  0  0
 42112  1  0  0  0
 43 44  1  0  0  0
 44113  1  0  0  0
 45 46  2  0  0  0
 45114  1  0  0  0
 46115  1  0  0  0
 47116  1  0  0  0
 47117  1  0  0  0
 48 56  1  0  0  0
 48 65  1  0  0  0
 48118  1  0  0  0
 49 50  1  0  0  0
 49 53  1  0  0  0
 49 64  1  0  0  0
 49119  1  0  0  0
 50 51  1  0  0  0
 50120  1  0  0  0
 50121  1  0  0  0
 51 52  1  0  0  0
 51122  1  0  0  0
 51123  1  0  0  0
 52124  1  0  0  0
 52125  1  0  0  0
 53 54  1  0  0  0
 54 55  2  0  0  0
 54126  1  0  0  0
 55 57  1  0  0  0
 55127  1  0  0  0
 56 69  2  0  0  0
 57 58  2  0  0  0
 57128  1  0  0  0
 58129  1  0  0  0
 59 60  1  0  0  0
 59 61  1  0  0  0
 59 62  1  0  0  0
 60130  1  0  0  0
 60131  1  0  0  0
 60132  1  0  0  0
 61133  1  0  0  0
 61134  1  0  0  0
 61135  1  0  0  0
 62136  1  0  0  0
 62137  1  0  0  0
 62138  1  0  0  0
 63 65  1  0  0  0
 63139  1  0  0  0
 63140  1  0  0  0
 63141  1  0  0  0
 64142  1  0  0  0
 65143  1  0  0  0
 68 83  1  0  0  0
 71 72  2  0  0  0
 71 73  1  0  0  0
 71144  1  0  0  0
 72 75  1  0  0  0
 72145  1  0  0  0
 73 76  2  0  0  0
 73146  1  0  0  0
 74 75  2  0  0  0
 74 76  1  0  0  0
 74147  1  0  0  0
 75 81  1  0  0  0
 76 84  1  0  0  0
 77 79  1  0  0  0
 77 81  1  0  0  0
 77148  1  0  0  0
 77149  1  0  0  0
 78 80  1  0  0  0
 78 81  1  0  0  0
 78150  1  0  0  0
 78151  1  0  0  0
 79 82  1  0  0  0
 79152  1  0  0  0
 79153  1  0  0  0
 80 82  1  0  0  0
 80154  1  0  0  0
 80155  1  0  0  0
 81156  1  0  0  0
 82 83  1  0  0  0
 82157  1  0  0  0
 83158  1  0  0  0
 83159  1  0  0  0
 84160  1  0  0  0
M  ISO  4   1 100  68 101  83 101  84 100
M  END
> <chiral flag>
0

> <version>
0

> <s_m_source_file>
/data/baiqing/PycharmProjects/Reinvent-master-3.2/result/LINK_invent/BTK/process_docking_weight1_custom_product_contain_oxygen_bond_distance_aromatic_linkinvent_7_9_3/rearranged_h_0139.sdf

> <i_m_source_file_index>
82

> <r_mmod_Potential_Energy-OPLS-2005>
81.3016891479492

> <r_mmod_Stretch_Energy-OPLS-2005>
63.6011428833008

> <r_mmod_Bend_Energy-OPLS-2005>
122.261848449707

> <r_mmod_Torsional_Energy-OPLS-2005>
253.930267333984

> <r_mmod_Improper_Torsional_Energy-OPLS-2005>
4.47344636917114

> <r_mmod_Van_der_Waal_Energy-OPLS-2005>
157.178756713867

> <r_mmod_Electrostatic_Energy-OPLS-2005>
-359.534820556641

> <r_mmod_Solvation_Energy-OPLS-2005>
-197.36376953125

> <b_mmod_Minimization_Converged-OPLS-2005>
0

> <r_mmod_RMS_Derivative-OPLS-2005>
0.430582523345947

$$$$
82
                    3D
 Structure written by MMmdl.
154162  0  0  1  0            999 V2000
  -30.6193  -14.7169   20.4832 C   0  0  0  0  0  0
  -30.4289  -12.4354   19.4954 C   0  0  0  0  0  0
  -29.5185  -12.5252   18.2513 C   0  0  0  0  0  0
  -28.0423  -12.3500   18.6504 C   0  0  0  0  0  0
  -27.6475  -13.2359   19.8625 C   0  0  2  0  0  0
  -28.6840  -13.1498   21.0067 C   0  0  0  0  0  0
  -25.2505  -13.8206   20.5687 C   0  0  0  0  0  0
  -24.1794  -13.0447   20.9182 C   0  0  0  0  0  0
  -24.6389  -11.6929   20.8726 C   0  0  0  0  0  0
  -23.9059  -10.4308   21.0393 C   0  0  0  0  0  0
  -24.3604   -9.4227   21.9175 C   0  0  0  0  0  0
  -23.6285   -8.2258   22.0761 C   0  0  0  0  0  0
  -22.4267   -8.0285   21.3551 C   0  0  0  0  0  0
  -21.9896   -9.0256   20.4650 C   0  0  0  0  0  0
  -22.7222  -10.2135   20.3056 C   0  0  0  0  0  0
  -21.6859   -6.0731   22.5279 C   0  0  0  0  0  0
  -21.4019   -6.5631   23.8206 C   0  0  0  0  0  0
  -21.3661   -5.6787   24.9165 C   0  0  0  0  0  0
  -21.6048   -4.3051   24.7220 C   0  0  0  0  0  0
  -21.8813   -3.8141   23.4337 C   0  0  0  0  0  0
  -21.9196   -4.6962   22.3395 C   0  0  0  0  0  0
  -22.7814  -13.5234   21.1852 C   0  0  0  0  0  0
  -22.1660   -4.2150   21.0975 F   0  0  0  0  0  0
  -21.5629   -3.4530   25.7723 F   0  0  0  0  0  0
  -30.0002  -13.4869   20.4483 N   0  0  0  0  0  0
  -26.2954  -12.9428   20.3305 N   0  0  0  0  0  0
  -25.9330  -11.6565   20.5733 N   0  0  0  0  0  0
  -22.0456  -12.8247   22.0418 N   0  0  0  0  0  0
  -25.4204  -15.1934   20.4145 N   0  0  0  0  0  0
  -31.7708  -14.8391   20.0555 O   0  0  0  0  0  0
  -21.6647   -6.8871   21.4236 O   0  0  0  0  0  0
  -22.3507  -14.5550   20.6712 O   0  0  0  0  0  0
  -24.6324  -31.8561   23.1996 C   0  0  0  0  0  0
  -25.9156  -32.4748   23.8339 C   0  0  1  0  0  0
  -27.2146  -27.2584   20.1277 C   0  0  0  0  0  0
  -25.5967  -33.8557   24.2266 N   0  0  0  0  0  0
  -23.4289  -30.4805   21.5428 C   0  0  2  0  0  0
  -24.8748  -28.9324   20.1051 C   0  0  0  0  0  0
  -22.7509  -29.4620   22.4907 C   0  0  0  0  0  0
  -18.0288  -28.1387   22.8471 C   0  0  0  0  0  0
  -24.1492  -36.7280   23.2640 C   0  0  0  0  0  0
  -25.9756  -30.7668   21.3810 C   0  0  0  0  0  0
  -26.0459  -29.3899   20.7220 C   0  0  0  0  0  0
  -27.2170  -28.5643   20.7257 C   0  0  0  0  0  0
  -26.0260  -26.8840   19.4581 C   0  0  0  0  0  0
  -24.8714  -27.6874   19.4615 C   0  0  0  0  0  0
  -23.6462  -29.8191   20.1567 C   0  0  0  0  0  0
  -25.4117  -36.3071   24.0329 C   0  0  1  0  0  0
  -20.5889  -28.3730   23.1219 C   0  0  2  0  0  0
  -20.6794  -26.9463   22.5356 C   0  0  0  0  0  0
  -19.5740  -26.6364   21.5209 C   0  0  0  0  0  0
  -18.1944  -26.7916   22.1656 C   0  0  0  0  0  0
  -19.1537  -28.8875   23.2833 C   0  0  0  0  0  0
  -18.9445  -30.1471   23.8856 C   0  0  0  0  0  0
  -17.6437  -30.6571   24.0561 C   0  0  0  0  0  0
  -25.9066  -34.9442   23.5092 C   0  0  0  0  0  0
  -16.5342  -29.9059   23.6337 C   0  0  0  0  0  0
  -16.7270  -28.6492   23.0340 C   0  0  0  0  0  0
  -26.4515  -31.6580   25.0736 C   0  0  0  0  0  0
  -25.3730  -31.3736   26.1452 C   0  0  0  0  0  0
  -27.0361  -30.3002   24.6218 C   0  0  0  0  0  0
  -27.6059  -32.4323   25.7510 C   0  0  0  0  0  0
  -27.5579  -37.1803   24.8466 C   0  0  0  0  0  0
  -21.4218  -29.3064   22.3616 N   0  0  0  0  0  0
  -26.4290  -37.3773   23.9408 N   0  0  0  0  0  0
  -24.6979  -31.0535   22.0966 N   0  0  0  0  0  0
  -23.4190  -28.8156   23.3020 O   0  0  0  0  0  0
  -28.2971  -26.3469   20.2178 O   0  0  0  0  0  0
  -26.5617  -34.8920   22.4655 O   0  0  0  0  0  0
  -23.5484  -32.1390   23.7308 O   0  0  0  0  0  0
  -29.6420  -18.4471   20.8217 C   0  0  0  0  0  0
  -29.4949  -17.0959   18.8034 C   0  0  0  0  0  0
  -29.0799  -19.5167   18.7157 C   0  0  0  0  0  0
  -29.7275  -17.1314   20.1951 C   0  0  0  0  0  0
  -29.3370  -19.6774   20.0975 C   0  0  0  0  0  0
  -29.1676  -18.2605   18.0827 C   0  0  0  0  0  0
  -28.6911  -23.6483   22.1069 C   0  0  0  0  0  0
  -28.0653  -24.8827   19.9411 C   0  0  0  0  0  0
  -28.7579  -22.1846   19.9911 C   0  0  0  0  0  0
  -28.9420  -23.6829   20.5940 C   0  0  2  0  0  0
  -29.8963  -15.8279   20.8877 N   0  0  0  0  0  0
  -29.2985  -20.9771   20.6975 O   0  0  0  0  0  0
  -28.9200  -18.1706   16.7535 F   0  0  0  0  0  0
  -31.4773  -12.5366   19.2095 H   0  0  0  0  0  0
  -30.3446  -11.4521   19.9601 H   0  0  0  0  0  0
  -29.8028  -11.7712   17.5171 H   0  0  0  0  0  0
  -29.6537  -13.4926   17.7659 H   0  0  0  0  0  0
  -27.8886  -11.2974   18.8933 H   0  0  0  0  0  0
  -27.3950  -12.5648   17.7997 H   0  0  0  0  0  0
  -27.6482  -14.2633   19.4975 H   0  0  0  0  0  0
  -28.6998  -12.1490   21.4391 H   0  0  0  0  0  0
  -28.4150  -13.8251   21.8210 H   0  0  0  0  0  0
  -25.2742   -9.5715   22.4748 H   0  0  0  0  0  0
  -24.0000   -7.4656   22.7490 H   0  0  0  0  0  0
  -21.0824   -8.8770   19.8953 H   0  0  0  0  0  0
  -22.3675  -10.9668   19.6168 H   0  0  0  0  0  0
  -21.2010   -7.6142   23.9709 H   0  0  0  0  0  0
  -21.1493   -6.0517   25.9069 H   0  0  0  0  0  0
  -22.0591   -2.7607   23.2839 H   0  0  0  0  0  0
  -22.4063  -11.9908   22.4812 H   0  0  0  0  0  0
  -21.1079  -13.1278   22.2621 H   0  0  0  0  0  0
  -24.6527  -15.8463   20.5282 H   0  0  0  0  0  0
  -26.2774  -15.6398   20.1138 H   0  0  0  0  0  0
  -26.7228  -32.5395   23.1080 H   0  0  0  0  0  0
  -25.0151  -33.9685   25.0438 H   0  0  0  0  0  0
  -22.7261  -31.3044   21.3991 H   0  0  0  0  0  0
  -23.3756  -35.9610   23.3296 H   0  0  0  0  0  0
  -24.3591  -36.8913   22.2058 H   0  0  0  0  0  0
  -23.7242  -37.6484   23.6658 H   0  0  0  0  0  0
  -26.1156  -31.5268   20.6114 H   0  0  0  0  0  0
  -26.8537  -30.8146   22.0131 H   0  0  0  0  0  0
  -28.1090  -28.9061   21.2316 H   0  0  0  0  0  0
  -25.9514  -25.9446   18.9317 H   0  0  0  0  0  0
  -23.9817  -27.3353   18.9587 H   0  0  0  0  0  0
  -23.7680  -30.5988   19.4043 H   0  0  0  0  0  0
  -22.7630  -29.2551   19.8502 H   0  0  0  0  0  0
  -25.1294  -36.1919   25.0820 H   0  0  0  0  0  0
  -20.9962  -28.3323   24.1350 H   0  0  0  0  0  0
  -20.5785  -26.2348   23.3569 H   0  0  0  0  0  0
  -21.6644  -26.7541   22.1092 H   0  0  0  0  0  0
  -19.6910  -25.6254   21.1285 H   0  0  0  0  0  0
  -19.6625  -27.3139   20.6705 H   0  0  0  0  0  0
  -17.4178  -26.6610   21.4111 H   0  0  0  0  0  0
  -18.0367  -26.0094   22.9107 H   0  0  0  0  0  0
  -19.7906  -30.7319   24.2228 H   0  0  0  0  0  0
  -17.4977  -31.6231   24.5190 H   0  0  0  0  0  0
  -15.5343  -30.2951   23.7668 H   0  0  0  0  0  0
  -15.8674  -28.0801   22.7048 H   0  0  0  0  0  0
  -24.5903  -30.7082   25.7791 H   0  0  0  0  0  0
  -24.8917  -32.2906   26.4863 H   0  0  0  0  0  0
  -25.8049  -30.8933   27.0243 H   0  0  0  0  0  0
  -26.2952  -29.6751   24.1226 H   0  0  0  0  0  0
  -27.4035  -29.7257   25.4733 H   0  0  0  0  0  0
  -27.8828  -30.4280   23.9467 H   0  0  0  0  0  0
  -27.2656  -33.3627   26.2066 H   0  0  0  0  0  0
  -28.3876  -32.6890   25.0345 H   0  0  0  0  0  0
  -28.0712  -31.8467   26.5448 H   0  0  0  0  0  0
  -28.2590  -38.0107   24.7514 H   0  0  0  0  0  0
  -28.1082  -36.2639   24.6276 H   0  0  0  0  0  0
  -27.2303  -37.1437   25.8874 H   0  0  0  0  0  0
  -20.9441  -29.8738   21.6755 H   0  0  0  0  0  0
  -26.0168  -38.2848   24.1415 H   0  0  0  0  0  0
  -29.8119  -18.5196   21.8867 H   0  0  0  0  0  0
  -29.5204  -16.1571   18.2709 H   0  0  0  0  0  0
  -28.8143  -20.3529   18.0900 H   0  0  0  0  0  0
  -28.8881  -24.6211   22.5594 H   0  0  0  0  0  0
  -29.3380  -22.9184   22.5947 H   0  0  0  0  0  0
  -27.6582  -23.3783   22.3291 H   0  0  0  0  0  0
  -27.0433  -24.6383   20.2292 H   0  0  0  0  0  0
  -28.0993  -24.7675   18.8575 H   0  0  0  0  0  0
  -29.1875  -22.2250   18.9904 H   0  0  0  0  0  0
  -27.6919  -22.0039   19.8535 H   0  0  0  0  0  0
  -29.9914  -23.9416   20.4455 H   0  0  0  0  0  0
  -29.1339  -15.5975   21.5082 H   0  0  0  0  0  0
  1 25  1  0  0  0
  1 30  2  0  0  0
  1 81  1  0  0  0
  2  3  1  0  0  0
  2 25  1  0  0  0
  2 84  1  0  0  0
  2 85  1  0  0  0
  3  4  1  0  0  0
  3 86  1  0  0  0
  3 87  1  0  0  0
  4  5  1  0  0  0
  4 88  1  0  0  0
  4 89  1  0  0  0
  5  6  1  0  0  0
  5 26  1  0  0  0
  5 90  1  0  0  0
  6 25  1  0  0  0
  6 91  1  0  0  0
  6 92  1  0  0  0
  7  8  2  0  0  0
  7 26  1  0  0  0
  7 29  1  0  0  0
  8  9  1  0  0  0
  8 22  1  0  0  0
  9 10  1  0  0  0
  9 27  2  0  0  0
 10 11  2  0  0  0
 10 15  1  0  0  0
 11 12  1  0  0  0
 11 93  1  0  0  0
 12 13  2  0  0  0
 12 94  1  0  0  0
 13 14  1  0  0  0
 13 31  1  0  0  0
 14 15  2  0  0  0
 14 95  1  0  0  0
 15 96  1  0  0  0
 16 17  2  0  0  0
 16 21  1  0  0  0
 16 31  1  0  0  0
 17 18  1  0  0  0
 17 97  1  0  0  0
 18 19  2  0  0  0
 18 98  1  0  0  0
 19 20  1  0  0  0
 19 24  1  0  0  0
 20 21  2  0  0  0
 20 99  1  0  0  0
 21 23  1  0  0  0
 22 28  1  0  0  0
 22 32  2  0  0  0
 26 27  1  0  0  0
 28100  1  0  0  0
 28101  1  0  0  0
 29102  1  0  0  0
 29103  1  0  0  0
 33 34  1  0  0  0
 33 66  1  0  0  0
 33 70  2  0  0  0
 34 36  1  0  0  0
 34 59  1  0  0  0
 34104  1  0  0  0
 35 44  2  0  0  0
 35 45  1  0  0  0
 35 68  1  0  0  0
 36 56  1  0  0  0
 36105  1  0  0  0
 37 39  1  0  0  0
 37 47  1  0  0  0
 37 66  1  0  0  0
 37106  1  0  0  0
 38 43  2  0  0  0
 38 46  1  0  0  0
 38 47  1  0  0  0
 39 64  1  0  0  0
 39 67  2  0  0  0
 40 52  1  0  0  0
 40 53  2  0  0  0
 40 58  1  0  0  0
 41107  1  0  0  0
 41108  1  0  0  0
 41109  1  0  0  0
 41 48  1  0  0  0
 42 43  1  0  0  0
 42 66  1  0  0  0
 42110  1  0  0  0
 42111  1  0  0  0
 43 44  1  0  0  0
 44112  1  0  0  0
 45 46  2  0  0  0
 45113  1  0  0  0
 46114  1  0  0  0
 47115  1  0  0  0
 47116  1  0  0  0
 48 56  1  0  0  0
 48 65  1  0  0  0
 48117  1  0  0  0
 49 50  1  0  0  0
 49 53  1  0  0  0
 49 64  1  0  0  0
 49118  1  0  0  0
 50 51  1  0  0  0
 50119  1  0  0  0
 50120  1  0  0  0
 51 52  1  0  0  0
 51121  1  0  0  0
 51122  1  0  0  0
 52123  1  0  0  0
 52124  1  0  0  0
 53 54  1  0  0  0
 54 55  2  0  0  0
 54125  1  0  0  0
 55 57  1  0  0  0
 55126  1  0  0  0
 56 69  2  0  0  0
 57 58  2  0  0  0
 57127  1  0  0  0
 58128  1  0  0  0
 59 60  1  0  0  0
 59 61  1  0  0  0
 59 62  1  0  0  0
 60129  1  0  0  0
 60130  1  0  0  0
 60131  1  0  0  0
 61132  1  0  0  0
 61133  1  0  0  0
 61134  1  0  0  0
 62135  1  0  0  0
 62136  1  0  0  0
 62137  1  0  0  0
 63 65  1  0  0  0
 63138  1  0  0  0
 63139  1  0  0  0
 63140  1  0  0  0
 64141  1  0  0  0
 65142  1  0  0  0
 68 78  1  0  0  0
 71 74  2  0  0  0
 71 75  1  0  0  0
 71143  1  0  0  0
 72 74  1  0  0  0
 72 76  2  0  0  0
 72144  1  0  0  0
 73 75  2  0  0  0
 73 76  1  0  0  0
 73145  1  0  0  0
 74 81  1  0  0  0
 75 82  1  0  0  0
 76 83  1  0  0  0
 77146  1  0  0  0
 77147  1  0  0  0
 77148  1  0  0  0
 77 80  1  0  0  0
 78 80  1  0  0  0
 78149  1  0  0  0
 78150  1  0  0  0
 79 80  1  0  0  0
 79 82  1  0  0  0
 79151  1  0  0  0
 79152  1  0  0  0
 80153  1  0  0  0
 81154  1  0  0  0
M  ISO  4   1 100  68 101  78 101  81 100
M  END
> <chiral flag>
0

> <version>
0

> <s_m_source_file>
/data/baiqing/PycharmProjects/Reinvent-master-3.2/result/LINK_invent/BTK/process_docking_weight1_custom_product_contain_oxygen_bond_distance_aromatic_linkinvent_7_9_3/rearranged_h_0139.sdf

> <i_m_source_file_index>
83

> <r_mmod_Potential_Energy-OPLS-2005>
218.874053955078

> <r_mmod_Stretch_Energy-OPLS-2005>
126.629623413086

> <r_mmod_Bend_Energy-OPLS-2005>
165.085662841797

> <r_mmod_Torsional_Energy-OPLS-2005>
248.945556640625

> <r_mmod_Improper_Torsional_Energy-OPLS-2005>
4.99188184738159

> <r_mmod_Van_der_Waal_Energy-OPLS-2005>
141.650421142578

> <r_mmod_Electrostatic_Energy-OPLS-2005>
-338.114440917969

> <r_mmod_Solvation_Energy-OPLS-2005>
-211.948669433594

> <b_mmod_Minimization_Converged-OPLS-2005>
0

> <r_mmod_RMS_Derivative-OPLS-2005>
2.26938986778259

$$$$
83
                    3D
 Structure written by MMmdl.
170179  0  0  1  0            999 V2000
  -30.7154  -14.4268   20.6009 C   0  0  0  0  0  0
  -30.4180  -12.2857   19.4196 C   0  0  0  0  0  0
  -29.4971  -12.5310   18.2063 C   0  0  0  0  0  0
  -28.0150  -12.3975   18.6086 C   0  0  0  0  0  0
  -27.6689  -13.2089   19.8848 C   0  0  2  0  0  0
  -28.7068  -12.9544   21.0029 C   0  0  0  0  0  0
  -25.2604  -13.8158   20.5666 C   0  0  0  0  0  0
  -24.1849  -13.0437   20.9149 C   0  0  0  0  0  0
  -24.6398  -11.6905   20.8698 C   0  0  0  0  0  0
  -23.9049  -10.4296   21.0362 C   0  0  0  0  0  0
  -24.3613   -9.4226   21.9146 C   0  0  0  0  0  0
  -23.6306   -8.2252   22.0736 C   0  0  0  0  0  0
  -22.4286   -8.0275   21.3531 C   0  0  0  0  0  0
  -21.9903   -9.0239   20.4636 C   0  0  0  0  0  0
  -22.7214  -10.2128   20.3029 C   0  0  0  0  0  0
  -21.6857   -6.0729   22.5277 C   0  0  0  0  0  0
  -21.4019   -6.5634   23.8210 C   0  0  0  0  0  0
  -21.3670   -5.6789   24.9170 C   0  0  0  0  0  0
  -21.6046   -4.3053   24.7216 C   0  0  0  0  0  0
  -21.8823   -3.8138   23.4340 C   0  0  0  0  0  0
  -21.9204   -4.6958   22.3398 C   0  0  0  0  0  0
  -22.7879  -13.5234   21.1823 C   0  0  0  0  0  0
  -22.1666   -4.2145   21.0973 F   0  0  0  0  0  0
  -21.5636   -3.4543   25.7724 F   0  0  0  0  0  0
  -30.0500  -13.2476   20.4702 N   0  0  0  0  0  0
  -26.3068  -12.9344   20.3396 N   0  0  0  0  0  0
  -25.9340  -11.6495   20.5754 N   0  0  0  0  0  0
  -22.0523  -12.8237   22.0399 N   0  0  0  0  0  0
  -25.4316  -15.1881   20.4113 N   0  0  0  0  0  0
  -31.7918  -14.6597   20.0435 O   0  0  0  0  0  0
  -21.6652   -6.8874   21.4238 O   0  0  0  0  0  0
  -22.3569  -14.5538   20.6676 O   0  0  0  0  0  0
  -24.6152  -31.8673   23.2101 C   0  0  0  0  0  0
  -25.9047  -32.4819   23.8391 C   0  0  1  0  0  0
  -27.2293  -27.4230   20.0747 C   0  0  0  0  0  0
  -25.5899  -33.8615   24.2314 N   0  0  0  0  0  0
  -23.4013  -30.4944   21.5501 C   0  0  2  0  0  0
  -24.8435  -28.9600   20.1135 C   0  0  0  0  0  0
  -22.7406  -29.4672   22.4979 C   0  0  0  0  0  0
  -18.0270  -28.1377   22.8492 C   0  0  0  0  0  0
  -24.1480  -36.7310   23.2638 C   0  0  0  0  0  0
  -25.9339  -30.8270   21.3668 C   0  0  0  0  0  0
  -26.0061  -29.4622   20.7095 C   0  0  0  0  0  0
  -27.1966  -28.6965   20.6944 C   0  0  0  0  0  0
  -26.0324  -26.9284   19.5009 C   0  0  0  0  0  0
  -24.8517  -27.6909   19.5135 C   0  0  0  0  0  0
  -23.6078  -29.8290   20.1637 C   0  0  0  0  0  0
  -25.4106  -36.3107   24.0333 C   0  0  1  0  0  0
  -20.5864  -28.3669   23.1313 C   0  0  2  0  0  0
  -20.6761  -26.9407   22.5416 C   0  0  0  0  0  0
  -19.5739  -26.6382   21.5211 C   0  0  0  0  0  0
  -18.1915  -26.7921   22.1623 C   0  0  0  0  0  0
  -19.1521  -28.8837   23.2899 C   0  0  0  0  0  0
  -18.9450  -30.1442   23.8913 C   0  0  0  0  0  0
  -17.6455  -30.6584   24.0567 C   0  0  0  0  0  0
  -25.9036  -34.9472   23.5121 C   0  0  0  0  0  0
  -16.5344  -29.9090   23.6329 C   0  0  0  0  0  0
  -16.7260  -28.6505   23.0351 C   0  0  0  0  0  0
  -26.4469  -31.6609   25.0733 C   0  0  0  0  0  0
  -25.3739  -31.3732   26.1489 C   0  0  0  0  0  0
  -27.0304  -30.3042   24.6145 C   0  0  0  0  0  0
  -27.6032  -32.4349   25.7496 C   0  0  0  0  0  0
  -27.5584  -37.1804   24.8460 C   0  0  0  0  0  0
  -21.4130  -29.3039   22.3715 N   0  0  0  0  0  0
  -26.4290  -37.3801   23.9412 N   0  0  0  0  0  0
  -24.6681  -31.0772   22.1002 N   0  0  0  0  0  0
  -23.4179  -28.8210   23.3019 O   0  0  0  0  0  0
  -28.4076  -26.6963   20.1015 O   0  0  0  0  0  0
  -26.5600  -34.8929   22.4682 O   0  0  0  0  0  0
  -23.5345  -32.1429   23.7497 O   0  0  0  0  0  0
  -29.7430  -17.1249   19.6468 C   0  0  0  0  0  0
  -29.8287  -17.7072   22.0003 C   0  0  0  0  0  0
  -29.4162  -18.4582   19.3043 C   0  0  0  0  0  0
  -29.5251  -19.0518   21.6852 C   0  0  0  0  0  0
  -29.9289  -16.7309   20.9895 C   0  0  0  0  0  0
  -29.3089  -19.4403   20.3328 C   0  0  0  0  0  0
  -29.4778  -21.9369   20.1647 C   0  0  0  0  0  0
  -27.8524  -18.7409   16.1487 C   0  0  0  0  0  0
  -28.6327  -17.6787   16.9200 C   0  0  0  0  0  0
  -27.9724  -19.5971   17.4063 C   0  0  0  0  0  0
  -29.2301  -18.7933   17.8164 C   0  0  0  0  0  0
  -29.3891  -20.0458   22.8294 C   0  0  0  0  0  0
  -30.5720  -19.3471   17.3245 C   0  0  0  0  0  0
  -28.6554  -23.1897   19.8001 C   0  0  0  0  0  0
  -29.4785  -24.4976   19.6574 C   0  0  0  0  0  0
  -28.6806  -25.7027   19.0974 C   0  0  0  0  0  0
  -28.8468  -20.7560   20.0193 N   0  0  0  0  0  0
  -30.1032  -15.3612   21.3477 N   0  0  0  0  0  0
  -30.6421  -22.0405   20.5575 O   0  0  0  0  0  0
  -31.4673  -12.3650   19.1283 H   0  0  0  0  0  0
  -30.2910  -11.2664   19.7865 H   0  0  0  0  0  0
  -29.7319  -11.8292   17.4054 H   0  0  0  0  0  0
  -29.6794  -13.5288   17.8014 H   0  0  0  0  0  0
  -27.8065  -11.3403   18.7723 H   0  0  0  0  0  0
  -27.3736  -12.7085   17.7827 H   0  0  0  0  0  0
  -27.7250  -14.2646   19.6185 H   0  0  0  0  0  0
  -28.6657  -11.9130   21.3255 H   0  0  0  0  0  0
  -28.4637  -13.5394   21.8902 H   0  0  0  0  0  0
  -25.2755   -9.5728   22.4717 H   0  0  0  0  0  0
  -24.0028   -7.4652   22.7452 H   0  0  0  0  0  0
  -21.0833   -8.8745   19.8949 H   0  0  0  0  0  0
  -22.3643  -10.9666   19.6147 H   0  0  0  0  0  0
  -21.2001   -7.6138   23.9716 H   0  0  0  0  0  0
  -21.1498   -6.0505   25.9073 H   0  0  0  0  0  0
  -22.0593   -2.7599   23.2832 H   0  0  0  0  0  0
  -22.4141  -11.9923   22.4834 H   0  0  0  0  0  0
  -21.1139  -13.1257   22.2571 H   0  0  0  0  0  0
  -24.6634  -15.8414   20.5141 H   0  0  0  0  0  0
  -26.2971  -15.6365   20.1403 H   0  0  0  0  0  0
  -26.7113  -32.5513   23.1143 H   0  0  0  0  0  0
  -25.0062  -33.9775   25.0469 H   0  0  0  0  0  0
  -22.6902  -31.3119   21.4135 H   0  0  0  0  0  0
  -23.3745  -35.9642   23.3297 H   0  0  0  0  0  0
  -24.3585  -36.8936   22.2057 H   0  0  0  0  0  0
  -23.7226  -37.6509   23.6657 H   0  0  0  0  0  0
  -26.0567  -31.5963   20.6031 H   0  0  0  0  0  0
  -26.8170  -30.8704   21.9923 H   0  0  0  0  0  0
  -28.0937  -29.0812   21.1596 H   0  0  0  0  0  0
  -25.9620  -25.9445   19.0655 H   0  0  0  0  0  0
  -23.9503  -27.2895   19.0704 H   0  0  0  0  0  0
  -23.7140  -30.6031   19.4032 H   0  0  0  0  0  0
  -22.7299  -29.2503   19.8704 H   0  0  0  0  0  0
  -25.1282  -36.1969   25.0829 H   0  0  0  0  0  0
  -20.9959  -28.3229   24.1434 H   0  0  0  0  0  0
  -20.5656  -26.2277   23.3602 H   0  0  0  0  0  0
  -21.6628  -26.7447   22.1207 H   0  0  0  0  0  0
  -19.6896  -25.6291   21.1233 H   0  0  0  0  0  0
  -19.6674  -27.3195   20.6740 H   0  0  0  0  0  0
  -17.4188  -26.6678   21.4022 H   0  0  0  0  0  0
  -18.0318  -26.0063   22.9018 H   0  0  0  0  0  0
  -19.7929  -30.7247   24.2286 H   0  0  0  0  0  0
  -17.5017  -31.6267   24.5159 H   0  0  0  0  0  0
  -15.5349  -30.2998   23.7639 H   0  0  0  0  0  0
  -15.8659  -28.0824   22.7064 H   0  0  0  0  0  0
  -24.5893  -30.7097   25.7835 H   0  0  0  0  0  0
  -24.8958  -32.2901   26.4947 H   0  0  0  0  0  0
  -25.8102  -30.8896   27.0238 H   0  0  0  0  0  0
  -26.2860  -29.6805   24.1183 H   0  0  0  0  0  0
  -27.4028  -29.7293   25.4632 H   0  0  0  0  0  0
  -27.8717  -30.4338   23.9337 H   0  0  0  0  0  0
  -27.2619  -33.3627   26.2099 H   0  0  0  0  0  0
  -28.3823  -32.6950   25.0319 H   0  0  0  0  0  0
  -28.0718  -31.8470   26.5399 H   0  0  0  0  0  0
  -28.2584  -38.0117   24.7532 H   0  0  0  0  0  0
  -28.1094  -36.2649   24.6244 H   0  0  0  0  0  0
  -27.2313  -37.1414   25.8866 H   0  0  0  0  0  0
  -20.9274  -29.8775   21.6960 H   0  0  0  0  0  0
  -26.0172  -38.2872   24.1437 H   0  0  0  0  0  0
  -29.8215  -16.3849   18.8640 H   0  0  0  0  0  0
  -29.9668  -17.4193   23.0337 H   0  0  0  0  0  0
  -26.8320  -18.4614   15.8824 H   0  0  0  0  0  0
  -28.3969  -19.1471   15.2947 H   0  0  0  0  0  0
  -29.3633  -17.1248   16.3284 H   0  0  0  0  0  0
  -27.9614  -16.9988   17.4496 H   0  0  0  0  0  0
  -27.1251  -19.4399   18.0761 H   0  0  0  0  0  0
  -28.1439  -20.6574   17.2214 H   0  0  0  0  0  0
  -28.4914  -20.6529   22.7180 H   0  0  0  0  0  0
  -29.3221  -19.5422   23.7928 H   0  0  0  0  0  0
  -30.2555  -20.7064   22.8614 H   0  0  0  0  0  0
  -31.3635  -18.6018   17.4112 H   0  0  0  0  0  0
  -30.8816  -20.2231   17.8955 H   0  0  0  0  0  0
  -30.5318  -19.6463   16.2780 H   0  0  0  0  0  0
  -27.8860  -23.3285   20.5606 H   0  0  0  0  0  0
  -28.1335  -22.9903   18.8628 H   0  0  0  0  0  0
  -30.3076  -24.3011   18.9763 H   0  0  0  0  0  0
  -29.9373  -24.7616   20.6114 H   0  0  0  0  0  0
  -27.8201  -25.3338   18.5468 H   0  0  0  0  0  0
  -29.2903  -26.2039   18.3444 H   0  0  0  0  0  0
  -27.9417  -20.8009   19.5738 H   0  0  0  0  0  0
  -29.4326  -15.0015   22.0107 H   0  0  0  0  0  0
  1 25  1  0  0  0
  1 30  2  0  0  0
  1 88  1  0  0  0
  2  3  1  0  0  0
  2 25  1  0  0  0
  2 90  1  0  0  0
  2 91  1  0  0  0
  3  4  1  0  0  0
  3 92  1  0  0  0
  3 93  1  0  0  0
  4  5  1  0  0  0
  4 94  1  0  0  0
  4 95  1  0  0  0
  5  6  1  0  0  0
  5 26  1  0  0  0
  5 96  1  0  0  0
  6 25  1  0  0  0
  6 97  1  0  0  0
  6 98  1  0  0  0
  7  8  2  0  0  0
  7 26  1  0  0  0
  7 29  1  0  0  0
  8  9  1  0  0  0
  8 22  1  0  0  0
  9 10  1  0  0  0
  9 27  2  0  0  0
 10 11  2  0  0  0
 10 15  1  0  0  0
 11 12  1  0  0  0
 11 99  1  0  0  0
 12 13  2  0  0  0
 12100  1  0  0  0
 13 14  1  0  0  0
 13 31  1  0  0  0
 14 15  2  0  0  0
 14101  1  0  0  0
 15102  1  0  0  0
 16 17  2  0  0  0
 16 21  1  0  0  0
 16 31  1  0  0  0
 17 18  1  0  0  0
 17103  1  0  0  0
 18 19  2  0  0  0
 18104  1  0  0  0
 19 20  1  0  0  0
 19 24  1  0  0  0
 20 21  2  0  0  0
 20105  1  0  0  0
 21 23  1  0  0  0
 22 28  1  0  0  0
 22 32  2  0  0  0
 26 27  1  0  0  0
 28106  1  0  0  0
 28107  1  0  0  0
 29108  1  0  0  0
 29109  1  0  0  0
 33 34  1  0  0  0
 33 66  1  0  0  0
 33 70  2  0  0  0
 34 36  1  0  0  0
 34 59  1  0  0  0
 34110  1  0  0  0
 35 44  2  0  0  0
 35 45  1  0  0  0
 35 68  1  0  0  0
 36 56  1  0  0  0
 36111  1  0  0  0
 37 39  1  0  0  0
 37 47  1  0  0  0
 37 66  1  0  0  0
 37112  1  0  0  0
 38 43  2  0  0  0
 38 46  1  0  0  0
 38 47  1  0  0  0
 39 64  1  0  0  0
 39 67  2  0  0  0
 40 52  1  0  0  0
 40 53  2  0  0  0
 40 58  1  0  0  0
 41113  1  0  0  0
 41114  1  0  0  0
 41115  1  0  0  0
 41 48  1  0  0  0
 42 43  1  0  0  0
 42 66  1  0  0  0
 42116  1  0  0  0
 42117  1  0  0  0
 43 44  1  0  0  0
 44118  1  0  0  0
 45 46  2  0  0  0
 45119  1  0  0  0
 46120  1  0  0  0
 47121  1  0  0  0
 47122  1  0  0  0
 48 56  1  0  0  0
 48 65  1  0  0  0
 48123  1  0  0  0
 49 50  1  0  0  0
 49 53  1  0  0  0
 49 64  1  0  0  0
 49124  1  0  0  0
 50 51  1  0  0  0
 50125  1  0  0  0
 50126  1  0  0  0
 51 52  1  0  0  0
 51127  1  0  0  0
 51128  1  0  0  0
 52129  1  0  0  0
 52130  1  0  0  0
 53 54  1  0  0  0
 54 55  2  0  0  0
 54131  1  0  0  0
 55 57  1  0  0  0
 55132  1  0  0  0
 56 69  2  0  0  0
 57 58  2  0  0  0
 57133  1  0  0  0
 58134  1  0  0  0
 59 60  1  0  0  0
 59 61  1  0  0  0
 59 62  1  0  0  0
 60135  1  0  0  0
 60136  1  0  0  0
 60137  1  0  0  0
 61138  1  0  0  0
 61139  1  0  0  0
 61140  1  0  0  0
 62141  1  0  0  0
 62142  1  0  0  0
 62143  1  0  0  0
 63 65  1  0  0  0
 63144  1  0  0  0
 63145  1  0  0  0
 63146  1  0  0  0
 64147  1  0  0  0
 65148  1  0  0  0
 68 86  1  0  0  0
 71 73  2  0  0  0
 71 75  1  0  0  0
 71149  1  0  0  0
 72 74  1  0  0  0
 72 75  2  0  0  0
 72150  1  0  0  0
 73 76  1  0  0  0
 73 81  1  0  0  0
 74 76  2  0  0  0
 74 82  1  0  0  0
 75 88  1  0  0  0
 76 87  1  0  0  0
 77 84  1  0  0  0
 77 87  1  0  0  0
 77 89  2  0  0  0
 78 79  1  0  0  0
 78 80  1  0  0  0
 78151  1  0  0  0
 78152  1  0  0  0
 79 81  1  0  0  0
 79153  1  0  0  0
 79154  1  0  0  0
 80 81  1  0  0  0
 80155  1  0  0  0
 80156  1  0  0  0
 81 83  1  0  0  0
 82157  1  0  0  0
 82158  1  0  0  0
 82159  1  0  0  0
 83160  1  0  0  0
 83161  1  0  0  0
 83162  1  0  0  0
 84 85  1  0  0  0
 84163  1  0  0  0
 84164  1  0  0  0
 85 86  1  0  0  0
 85165  1  0  0  0
 85166  1  0  0  0
 86167  1  0  0  0
 86168  1  0  0  0
 87169  1  0  0  0
 88170  1  0  0  0
M  ISO  4   1 100  68 101  86 101  88 100
M  END
> <chiral flag>
0

> <version>
0

> <s_m_source_file>
/data/baiqing/PycharmProjects/Reinvent-master-3.2/result/LINK_invent/BTK/process_docking_weight1_custom_product_contain_oxygen_bond_distance_aromatic_linkinvent_7_9_3/rearranged_h_0139.sdf

> <i_m_source_file_index>
84

> <r_mmod_Potential_Energy-OPLS-2005>
-47.013240814209

> <r_mmod_Stretch_Energy-OPLS-2005>
41.5426254272461

> <r_mmod_Bend_Energy-OPLS-2005>
128.443603515625

> <r_mmod_Torsional_Energy-OPLS-2005>
300.773101806641

> <r_mmod_Improper_Torsional_Energy-OPLS-2005>
4.61629009246826

> <r_mmod_Van_der_Waal_Energy-OPLS-2005>
155.879608154297

> <r_mmod_Electrostatic_Energy-OPLS-2005>
-461.846160888672

> <r_mmod_Solvation_Energy-OPLS-2005>
-227.159271240234

> <b_mmod_Minimization_Converged-OPLS-2005>
0

> <r_mmod_RMS_Derivative-OPLS-2005>
2.19854307174683

$$$$
84
                    3D
 Structure written by MMmdl.
163172  0  0  1  0            999 V2000
  -30.7263  -14.4964   20.5556 C   0  0  0  0  0  0
  -30.4093  -12.3171   19.4401 C   0  0  0  0  0  0
  -29.4932  -12.5014   18.2151 C   0  0  0  0  0  0
  -28.0157  -12.3594   18.6264 C   0  0  0  0  0  0
  -27.6557  -13.2166   19.8696 C   0  0  2  0  0  0
  -28.6971  -13.0450   20.9992 C   0  0  0  0  0  0
  -25.2556  -13.8180   20.5684 C   0  0  0  0  0  0
  -24.1816  -13.0443   20.9173 C   0  0  0  0  0  0
  -24.6379  -11.6911   20.8721 C   0  0  0  0  0  0
  -23.9047  -10.4291   21.0388 C   0  0  0  0  0  0
  -24.3603   -9.4213   21.9169 C   0  0  0  0  0  0
  -23.6286   -8.2246   22.0749 C   0  0  0  0  0  0
  -22.4269   -8.0274   21.3542 C   0  0  0  0  0  0
  -21.9896   -9.0248   20.4651 C   0  0  0  0  0  0
  -22.7217  -10.2131   20.3044 C   0  0  0  0  0  0
  -21.6859   -6.0720   22.5273 C   0  0  0  0  0  0
  -21.4021   -6.5623   23.8207 C   0  0  0  0  0  0
  -21.3659   -5.6782   24.9173 C   0  0  0  0  0  0
  -21.6043   -4.3044   24.7229 C   0  0  0  0  0  0
  -21.8821   -3.8137   23.4350 C   0  0  0  0  0  0
  -21.9200   -4.6948   22.3399 C   0  0  0  0  0  0
  -22.7842  -13.5233   21.1838 C   0  0  0  0  0  0
  -22.1667   -4.2131   21.0978 F   0  0  0  0  0  0
  -21.5626   -3.4531   25.7745 F   0  0  0  0  0  0
  -30.0266  -13.3324   20.4393 N   0  0  0  0  0  0
  -26.2993  -12.9369   20.3348 N   0  0  0  0  0  0
  -25.9311  -11.6517   20.5754 N   0  0  0  0  0  0
  -22.0493  -12.8224   22.0406 N   0  0  0  0  0  0
  -25.4282  -15.1903   20.4089 N   0  0  0  0  0  0
  -31.8527  -14.6125   20.0689 O   0  0  0  0  0  0
  -21.6642   -6.8867   21.4234 O   0  0  0  0  0  0
  -22.3524  -14.5538   20.6690 O   0  0  0  0  0  0
  -24.6184  -31.8663   23.2104 C   0  0  0  0  0  0
  -25.9075  -32.4805   23.8398 C   0  0  1  0  0  0
  -27.2155  -27.4010   20.1039 C   0  0  0  0  0  0
  -25.5923  -33.8605   24.2332 N   0  0  0  0  0  0
  -23.4070  -30.4937   21.5509 C   0  0  2  0  0  0
  -24.8515  -28.9660   20.1060 C   0  0  0  0  0  0
  -22.7441  -29.4648   22.4963 C   0  0  0  0  0  0
  -18.0280  -28.1378   22.8477 C   0  0  0  0  0  0
  -24.1492  -36.7302   23.2634 C   0  0  0  0  0  0
  -25.9414  -30.8228   21.3702 C   0  0  0  0  0  0
  -26.0154  -29.4580   20.7116 C   0  0  0  0  0  0
  -27.2037  -28.6837   20.7073 C   0  0  0  0  0  0
  -26.0424  -26.9535   19.4558 C   0  0  0  0  0  0
  -24.8623  -27.7152   19.4702 C   0  0  0  0  0  0
  -23.6156  -29.8350   20.1620 C   0  0  0  0  0  0
  -25.4104  -36.3096   24.0339 C   0  0  1  0  0  0
  -20.5872  -28.3666   23.1300 C   0  0  2  0  0  0
  -20.6759  -26.9390   22.5420 C   0  0  0  0  0  0
  -19.5747  -26.6380   21.5203 C   0  0  0  0  0  0
  -18.1922  -26.7928   22.1602 C   0  0  0  0  0  0
  -19.1529  -28.8837   23.2885 C   0  0  0  0  0  0
  -18.9454  -30.1445   23.8892 C   0  0  0  0  0  0
  -17.6452  -30.6576   24.0563 C   0  0  0  0  0  0
  -25.9037  -34.9462   23.5125 C   0  0  0  0  0  0
  -16.5344  -29.9076   23.6327 C   0  0  0  0  0  0
  -16.7266  -28.6501   23.0332 C   0  0  0  0  0  0
  -26.4484  -31.6584   25.0736 C   0  0  0  0  0  0
  -25.3749  -31.3709   26.1492 C   0  0  0  0  0  0
  -27.0290  -30.3007   24.6134 C   0  0  0  0  0  0
  -27.6074  -32.4289   25.7487 C   0  0  0  0  0  0
  -27.5583  -37.1793   24.8456 C   0  0  0  0  0  0
  -21.4165  -29.3029   22.3709 N   0  0  0  0  0  0
  -26.4283  -37.3786   23.9419 N   0  0  0  0  0  0
  -24.6738  -31.0756   22.1014 N   0  0  0  0  0  0
  -23.4209  -28.8169   23.2994 O   0  0  0  0  0  0
  -28.3269  -26.5748   20.1593 O   0  0  0  0  0  0
  -26.5593  -34.8917   22.4684 O   0  0  0  0  0  0
  -23.5371  -32.1424   23.7489 O   0  0  0  0  0  0
  -32.3907  -18.5583   21.2987 C   0  0  0  0  0  0
  -31.4785  -19.6250   21.2380 C   0  0  0  0  0  0
  -31.9313  -17.2294   21.2743 C   0  0  0  0  0  0
  -29.6322  -18.0218   21.1550 C   0  0  0  0  0  0
  -30.0937  -19.3713   21.1793 C   0  0  0  0  0  0
  -30.5488  -16.9287   21.1643 C   0  0  0  0  0  0
  -29.1760  -20.5314   21.2037 C   0  0  0  0  0  0
  -29.0646  -22.1003   17.9585 C   0  0  0  0  0  0
  -27.8367  -22.6184   18.7297 C   0  0  0  0  0  0
  -29.9445  -21.3896   19.0018 C   0  0  0  0  0  0
  -28.3223  -22.7274   20.1796 C   0  0  2  0  0  0
  -29.0395  -24.1081   20.4018 C   0  0  0  0  0  0
  -28.0476  -25.2645   20.7306 C   0  0  0  0  0  0
  -29.2041  -21.5282   20.2704 N   0  0  0  0  0  0
  -30.0754  -15.5639   21.0852 N   0  0  0  0  0  0
  -28.2976  -20.5989   22.2004 N   0  3  0  0  0  0
  -31.4564  -12.3853   19.1414 H   0  0  0  0  0  0
  -30.2891  -11.3169   19.8597 H   0  0  0  0  0  0
  -29.7394  -11.7695   17.4446 H   0  0  0  0  0  0
  -29.6620  -13.4831   17.7701 H   0  0  0  0  0  0
  -27.8328  -11.3051   18.8378 H   0  0  0  0  0  0
  -27.3649  -12.6176   17.7903 H   0  0  0  0  0  0
  -27.6875  -14.2575   19.5474 H   0  0  0  0  0  0
  -28.6737  -12.0263   21.3882 H   0  0  0  0  0  0
  -28.4583  -13.6902   21.8457 H   0  0  0  0  0  0
  -25.2754   -9.5698   22.4728 H   0  0  0  0  0  0
  -24.0005   -7.4640   22.7462 H   0  0  0  0  0  0
  -21.0828   -8.8760   19.8964 H   0  0  0  0  0  0
  -22.3667  -10.9658   19.6142 H   0  0  0  0  0  0
  -21.2014   -7.6128   23.9700 H   0  0  0  0  0  0
  -21.1474   -6.0516   25.9075 H   0  0  0  0  0  0
  -22.0602   -2.7599   23.2858 H   0  0  0  0  0  0
  -22.4105  -11.9880   22.4785 H   0  0  0  0  0  0
  -21.1119  -13.1258   22.2623 H   0  0  0  0  0  0
  -24.6601  -15.8463   20.5052 H   0  0  0  0  0  0
  -26.2769  -15.6238   20.0688 H   0  0  0  0  0  0
  -26.7141  -32.5513   23.1155 H   0  0  0  0  0  0
  -25.0113  -33.9756   25.0502 H   0  0  0  0  0  0
  -22.6961  -31.3119   21.4168 H   0  0  0  0  0  0
  -23.3754  -35.9634   23.3291 H   0  0  0  0  0  0
  -24.3597  -36.8920   22.2051 H   0  0  0  0  0  0
  -23.7245  -37.6504   23.6652 H   0  0  0  0  0  0
  -26.0641  -31.5904   20.6048 H   0  0  0  0  0  0
  -26.8255  -30.8688   21.9943 H   0  0  0  0  0  0
  -28.0965  -29.0497   21.1941 H   0  0  0  0  0  0
  -26.0245  -26.0028   18.9425 H   0  0  0  0  0  0
  -23.9735  -27.3380   18.9834 H   0  0  0  0  0  0
  -23.7247  -30.6145   19.4071 H   0  0  0  0  0  0
  -22.7386  -29.2581   19.8640 H   0  0  0  0  0  0
  -25.1272  -36.1950   25.0828 H   0  0  0  0  0  0
  -20.9962  -28.3235   24.1420 H   0  0  0  0  0  0
  -20.5630  -26.2274   23.3613 H   0  0  0  0  0  0
  -21.6637  -26.7407   22.1241 H   0  0  0  0  0  0
  -19.6906  -25.6293   21.1228 H   0  0  0  0  0  0
  -19.6696  -27.3195   20.6737 H   0  0  0  0  0  0
  -17.4199  -26.6692   21.3991 H   0  0  0  0  0  0
  -18.0300  -26.0065   22.8989 H   0  0  0  0  0  0
  -19.7932  -30.7264   24.2251 H   0  0  0  0  0  0
  -17.5009  -31.6248   24.5178 H   0  0  0  0  0  0
  -15.5339  -30.2967   23.7658 H   0  0  0  0  0  0
  -15.8677  -28.0824   22.7022 H   0  0  0  0  0  0
  -24.5975  -30.6968   25.7873 H   0  0  0  0  0  0
  -24.8873  -32.2859   26.4865 H   0  0  0  0  0  0
  -25.8126  -30.8981   27.0295 H   0  0  0  0  0  0
  -26.2825  -29.6791   24.1177 H   0  0  0  0  0  0
  -27.4010  -29.7226   25.4603 H   0  0  0  0  0  0
  -27.8698  -30.4283   23.9313 H   0  0  0  0  0  0
  -27.2710  -33.3583   26.2089 H   0  0  0  0  0  0
  -28.3870  -32.6844   25.0299 H   0  0  0  0  0  0
  -28.0764  -31.8399   26.5379 H   0  0  0  0  0  0
  -28.2586  -38.0102   24.7515 H   0  0  0  0  0  0
  -28.1082  -36.2632   24.6239 H   0  0  0  0  0  0
  -27.2321  -37.1417   25.8864 H   0  0  0  0  0  0
  -20.9328  -29.8765   21.6944 H   0  0  0  0  0  0
  -26.0167  -38.2856   24.1437 H   0  0  0  0  0  0
  -33.4505  -18.7564   21.3718 H   0  0  0  0  0  0
  -31.8451  -20.6425   21.2734 H   0  0  0  0  0  0
  -32.6763  -16.4511   21.3401 H   0  0  0  0  0  0
  -28.5685  -17.8327   21.1053 H   0  0  0  0  0  0
  -29.6169  -22.9263   17.5091 H   0  0  0  0  0  0
  -28.7712  -21.4273   17.1521 H   0  0  0  0  0  0
  -27.0168  -21.9007   18.6687 H   0  0  0  0  0  0
  -27.4717  -23.5647   18.3269 H   0  0  0  0  0  0
  -30.9311  -21.8488   19.0785 H   0  0  0  0  0  0
  -30.0829  -20.3440   18.7192 H   0  0  0  0  0  0
  -27.4770  -22.6409   20.8642 H   0  0  0  0  0  0
  -29.6011  -24.3784   19.5080 H   0  0  0  0  0  0
  -29.7812  -24.0287   21.1964 H   0  0  0  0  0  0
  -28.0048  -25.3848   21.8141 H   0  0  0  0  0  0
  -27.0544  -24.9082   20.4651 H   0  0  0  0  0  0
  -29.1152  -15.3970   21.3426 H   0  0  0  0  0  0
  -28.3095  -19.8796   22.9077 H   0  0  0  0  0  0
  -27.6677  -21.3731   22.3142 H   0  0  0  0  0  0
  1 25  1  0  0  0
  1 30  2  0  0  0
  1 85  1  0  0  0
  2  3  1  0  0  0
  2 25  1  0  0  0
  2 87  1  0  0  0
  2 88  1  0  0  0
  3  4  1  0  0  0
  3 89  1  0  0  0
  3 90  1  0  0  0
  4  5  1  0  0  0
  4 91  1  0  0  0
  4 92  1  0  0  0
  5  6  1  0  0  0
  5 26  1  0  0  0
  5 93  1  0  0  0
  6 25  1  0  0  0
  6 94  1  0  0  0
  6 95  1  0  0  0
  7  8  2  0  0  0
  7 26  1  0  0  0
  7 29  1  0  0  0
  8  9  1  0  0  0
  8 22  1  0  0  0
  9 10  1  0  0  0
  9 27  2  0  0  0
 10 11  2  0  0  0
 10 15  1  0  0  0
 11 12  1  0  0  0
 11 96  1  0  0  0
 12 13  2  0  0  0
 12 97  1  0  0  0
 13 14  1  0  0  0
 13 31  1  0  0  0
 14 15  2  0  0  0
 14 98  1  0  0  0
 15 99  1  0  0  0
 16 17  2  0  0  0
 16 21  1  0  0  0
 16 31  1  0  0  0
 17 18  1  0  0  0
 17100  1  0  0  0
 18 19  2  0  0  0
 18101  1  0  0  0
 19 20  1  0  0  0
 19 24  1  0  0  0
 20 21  2  0  0  0
 20102  1  0  0  0
 21 23  1  0  0  0
 22 28  1  0  0  0
 22 32  2  0  0  0
 26 27  1  0  0  0
 28103  1  0  0  0
 28104  1  0  0  0
 29105  1  0  0  0
 29106  1  0  0  0
 33 34  1  0  0  0
 33 66  1  0  0  0
 33 70  2  0  0  0
 34 36  1  0  0  0
 34 59  1  0  0  0
 34107  1  0  0  0
 35 44  2  0  0  0
 35 45  1  0  0  0
 35 68  1  0  0  0
 36 56  1  0  0  0
 36108  1  0  0  0
 37 39  1  0  0  0
 37 47  1  0  0  0
 37 66  1  0  0  0
 37109  1  0  0  0
 38 43  2  0  0  0
 38 46  1  0  0  0
 38 47  1  0  0  0
 39 64  1  0  0  0
 39 67  2  0  0  0
 40 52  1  0  0  0
 40 53  2  0  0  0
 40 58  1  0  0  0
 41110  1  0  0  0
 41111  1  0  0  0
 41112  1  0  0  0
 41 48  1  0  0  0
 42 43  1  0  0  0
 42 66  1  0  0  0
 42113  1  0  0  0
 42114  1  0  0  0
 43 44  1  0  0  0
 44115  1  0  0  0
 45 46  2  0  0  0
 45116  1  0  0  0
 46117  1  0  0  0
 47118  1  0  0  0
 47119  1  0  0  0
 48 56  1  0  0  0
 48 65  1  0  0  0
 48120  1  0  0  0
 49 50  1  0  0  0
 49 53  1  0  0  0
 49 64  1  0  0  0
 49121  1  0  0  0
 50 51  1  0  0  0
 50122  1  0  0  0
 50123  1  0  0  0
 51 52  1  0  0  0
 51124  1  0  0  0
 51125  1  0  0  0
 52126  1  0  0  0
 52127  1  0  0  0
 53 54  1  0  0  0
 54 55  2  0  0  0
 54128  1  0  0  0
 55 57  1  0  0  0
 55129  1  0  0  0
 56 69  2  0  0  0
 57 58  2  0  0  0
 57130  1  0  0  0
 58131  1  0  0  0
 59 60  1  0  0  0
 59 61  1  0  0  0
 59 62  1  0  0  0
 60132  1  0  0  0
 60133  1  0  0  0
 60134  1  0  0  0
 61135  1  0  0  0
 61136  1  0  0  0
 61137  1  0  0  0
 62138  1  0  0  0
 62139  1  0  0  0
 62140  1  0  0  0
 63 65  1  0  0  0
 63141  1  0  0  0
 63142  1  0  0  0
 63143  1  0  0  0
 64144  1  0  0  0
 65145  1  0  0  0
 68 83  1  0  0  0
 71 72  2  0  0  0
 71 73  1  0  0  0
 71146  1  0  0  0
 72 75  1  0  0  0
 72147  1  0  0  0
 73 76  2  0  0  0
 73148  1  0  0  0
 74 75  2  0  0  0
 74 76  1  0  0  0
 74149  1  0  0  0
 75 77  1  0  0  0
 76 85  1  0  0  0
 77 84  1  0  0  0
 77 86  2  0  0  0
 78 79  1  0  0  0
 78 80  1  0  0  0
 78150  1  0  0  0
 78151  1  0  0  0
 79 81  1  0  0  0
 79152  1  0  0  0
 79153  1  0  0  0
 80 84  1  0  0  0
 80154  1  0  0  0
 80155  1  0  0  0
 81 82  1  0  0  0
 81 84  1  0  0  0
 81156  1  0  0  0
 82 83  1  0  0  0
 82157  1  0  0  0
 82158  1  0  0  0
 83159  1  0  0  0
 83160  1  0  0  0
 85161  1  0  0  0
 86162  1  0  0  0
 86163  1  0  0  0
M  CHG  1  86   1
M  ISO  4   1 100  68 101  83 101  85 100
M  END
> <chiral flag>
0

> <version>
0

> <s_m_source_file>
/data/baiqing/PycharmProjects/Reinvent-master-3.2/result/LINK_invent/BTK/process_docking_weight1_custom_product_contain_oxygen_bond_distance_aromatic_linkinvent_7_9_3/rearranged_h_0139.sdf

> <i_m_source_file_index>
85

> <r_mmod_Potential_Energy-OPLS-2005>
-72.0535430908203

> <r_mmod_Stretch_Energy-OPLS-2005>
48.7645072937012

> <r_mmod_Bend_Energy-OPLS-2005>
137.781692504883

> <r_mmod_Torsional_Energy-OPLS-2005>
324.303344726562

> <r_mmod_Improper_Torsional_Energy-OPLS-2005>
4.285804271698

> <r_mmod_Van_der_Waal_Energy-OPLS-2005>
163.589706420898

> <r_mmod_Electrostatic_Energy-OPLS-2005>
-376.480865478516

> <r_mmod_Solvation_Energy-OPLS-2005>
-396.50634765625

> <b_mmod_Minimization_Converged-OPLS-2005>
0

> <r_mmod_RMS_Derivative-OPLS-2005>
1.29425895214081

$$$$
85
                    3D
 Structure written by MMmdl.
173182  0  0  1  0            999 V2000
  -30.7403  -14.5139   20.6056 C   0  0  0  0  0  0
  -30.4144  -12.3301   19.4335 C   0  0  0  0  0  0
  -29.4964  -12.4970   18.2121 C   0  0  0  0  0  0
  -28.0236  -12.3424   18.6337 C   0  0  0  0  0  0
  -27.6668  -13.2193   19.8606 C   0  0  2  0  0  0
  -28.7007  -13.0651   20.9936 C   0  0  0  0  0  0
  -25.2524  -13.8168   20.5430 C   0  0  0  0  0  0
  -24.1855  -13.0433   20.9110 C   0  0  0  0  0  0
  -24.6414  -11.6931   20.8791 C   0  0  0  0  0  0
  -23.9076  -10.4309   21.0446 C   0  0  0  0  0  0
  -24.3613   -9.4155   21.9088 C   0  0  0  0  0  0
  -23.6304   -8.2209   22.0709 C   0  0  0  0  0  0
  -22.4216   -8.0269   21.3613 C   0  0  0  0  0  0
  -21.9885   -9.0298   20.4736 C   0  0  0  0  0  0
  -22.7204  -10.2196   20.3141 C   0  0  0  0  0  0
  -21.6763   -6.0733   22.5425 C   0  0  0  0  0  0
  -21.3955   -6.5645   23.8362 C   0  0  0  0  0  0
  -21.3683   -5.6790   24.9332 C   0  0  0  0  0  0
  -21.6031   -4.3038   24.7271 C   0  0  0  0  0  0
  -21.8771   -3.8160   23.4377 C   0  0  0  0  0  0
  -21.9160   -4.7008   22.3462 C   0  0  0  0  0  0
  -22.7815  -13.5151   21.1840 C   0  0  0  0  0  0
  -22.1668   -4.2311   21.1020 F   0  0  0  0  0  0
  -21.5627   -3.4451   25.7722 F   0  0  0  0  0  0
  -30.0468  -13.3390   20.4552 N   0  0  0  0  0  0
  -26.3075  -12.9458   20.3269 N   0  0  0  0  0  0
  -25.9348  -11.6595   20.5821 N   0  0  0  0  0  0
  -22.0407  -12.8120   22.0286 N   0  0  0  0  0  0
  -25.4165  -15.1871   20.3623 N   0  0  0  0  0  0
  -31.7393  -14.7754   19.9287 O   0  0  0  0  0  0
  -21.6469   -6.8917   21.4404 O   0  0  0  0  0  0
  -22.3434  -14.5440   20.6643 O   0  0  0  0  0  0
  -24.6254  -31.8628   23.2115 C   0  0  0  0  0  0
  -25.9124  -32.4809   23.8412 C   0  0  1  0  0  0
  -27.2072  -27.3290   20.0922 C   0  0  0  0  0  0
  -25.5972  -33.8590   24.2343 N   0  0  0  0  0  0
  -23.4175  -30.4950   21.5551 C   0  0  2  0  0  0
  -24.8585  -28.9703   20.1040 C   0  0  0  0  0  0
  -22.7501  -29.4617   22.4942 C   0  0  0  0  0  0
  -18.0283  -28.1376   22.8494 C   0  0  0  0  0  0
  -24.1483  -36.7279   23.2639 C   0  0  0  0  0  0
  -25.9618  -30.7976   21.3820 C   0  0  0  0  0  0
  -26.0333  -29.4290   20.7162 C   0  0  0  0  0  0
  -27.2080  -28.6199   20.7049 C   0  0  0  0  0  0
  -26.0156  -26.9530   19.4165 C   0  0  0  0  0  0
  -24.8511  -27.7342   19.4477 C   0  0  0  0  0  0
  -23.6280  -29.8459   20.1650 C   0  0  0  0  0  0
  -25.4107  -36.3094   24.0337 C   0  0  1  0  0  0
  -20.5892  -28.3673   23.1301 C   0  0  2  0  0  0
  -20.6781  -26.9394   22.5406 C   0  0  0  0  0  0
  -19.5749  -26.6372   21.5224 C   0  0  0  0  0  0
  -18.1933  -26.7909   22.1636 C   0  0  0  0  0  0
  -19.1539  -28.8836   23.2899 C   0  0  0  0  0  0
  -18.9455  -30.1446   23.8908 C   0  0  0  0  0  0
  -17.6454  -30.6581   24.0544 C   0  0  0  0  0  0
  -25.9044  -34.9468   23.5113 C   0  0  0  0  0  0
  -16.5346  -29.9081   23.6320 C   0  0  0  0  0  0
  -16.7273  -28.6494   23.0361 C   0  0  0  0  0  0
  -26.4497  -31.6585   25.0754 C   0  0  0  0  0  0
  -25.3736  -31.3729   26.1484 C   0  0  0  0  0  0
  -27.0303  -30.3006   24.6182 C   0  0  0  0  0  0
  -27.6050  -32.4301   25.7576 C   0  0  0  0  0  0
  -27.5576  -37.1805   24.8476 C   0  0  0  0  0  0
  -21.4217  -29.3035   22.3699 N   0  0  0  0  0  0
  -26.4311  -37.3775   23.9402 N   0  0  0  0  0  0
  -24.6874  -31.0664   22.1058 N   0  0  0  0  0  0
  -23.4230  -28.8103   23.2974 O   0  0  0  0  0  0
  -28.2884  -26.4279   20.1963 O   0  0  0  0  0  0
  -26.5594  -34.8914   22.4675 O   0  0  0  0  0  0
  -23.5420  -32.1414   23.7466 O   0  0  0  0  0  0
  -28.8404  -18.9090   23.0188 C   0  0  0  0  0  0
  -29.8888  -17.7023   21.1759 C   0  0  0  0  0  0
  -29.3072  -16.5566   23.2536 C   0  0  0  0  0  0
  -29.3323  -18.9269   21.6875 C   0  0  0  0  0  0
  -28.7774  -17.7349   23.7981 C   0  0  0  0  0  0
  -29.8911  -16.5067   21.9778 C   0  0  0  0  0  0
  -29.3094  -20.2690   20.9237 C   0  0  0  0  0  0
  -25.7459  -21.1487   20.5757 C   0  0  0  0  0  0
  -26.3353  -22.5353   20.5296 C   0  0  0  0  0  0
  -26.8669  -20.3441   21.2104 C   0  0  0  0  0  0
  -27.8455  -22.3620   20.2611 C   0  0  2  0  0  0
  -26.8674  -16.8150   25.1233 C   0  0  0  0  0  0
  -27.7591  -19.0866   25.7283 C   0  0  0  0  0  0
  -29.1224  -17.0681   26.2164 C   0  0  0  0  0  0
  -28.6187  -23.7176   20.6416 C   0  0  0  0  0  0
  -27.9835  -25.0010   19.9350 C   0  0  0  0  0  0
  -28.1377  -17.6870   25.2002 C   0  0  0  0  0  0
  -28.1523  -21.0210   20.9151 N   0  0  0  0  0  0
  -30.5092  -15.2252   21.7230 N   0  0  0  0  0  0
  -30.3367  -20.6396   20.3483 O   0  0  0  0  0  0
  -31.4597  -12.3802   19.1302 H   0  0  0  0  0  0
  -30.2793  -11.3290   19.8435 H   0  0  0  0  0  0
  -29.7455  -11.7651   17.4371 H   0  0  0  0  0  0
  -29.6448  -13.4792   17.7654 H   0  0  0  0  0  0
  -27.8639  -11.2845   18.8557 H   0  0  0  0  0  0
  -27.3643  -12.5727   17.7942 H   0  0  0  0  0  0
  -27.7074  -14.2538   19.5032 H   0  0  0  0  0  0
  -28.6798  -12.0572   21.4207 H   0  0  0  0  0  0
  -28.4416  -13.7479   21.8021 H   0  0  0  0  0  0
  -25.2838   -9.5645   22.4524 H   0  0  0  0  0  0
  -24.0010   -7.4575   22.7361 H   0  0  0  0  0  0
  -21.0736   -8.8857   19.9089 H   0  0  0  0  0  0
  -22.3667  -10.9747   19.6219 H   0  0  0  0  0  0
  -21.1913   -7.6159   23.9923 H   0  0  0  0  0  0
  -21.1552   -6.0493   25.9285 H   0  0  0  0  0  0
  -22.0474   -2.7627   23.2874 H   0  0  0  0  0  0
  -22.3922  -11.9767   22.4710 H   0  0  0  0  0  0
  -21.0785  -13.0696   22.1812 H   0  0  0  0  0  0
  -24.6546  -15.8490   20.4589 H   0  0  0  0  0  0
  -26.2867  -15.6254   20.0950 H   0  0  0  0  0  0
  -26.7197  -32.5467   23.1150 H   0  0  0  0  0  0
  -25.0153  -33.9770   25.0524 H   0  0  0  0  0  0
  -22.7065  -31.3138   21.4206 H   0  0  0  0  0  0
  -23.3762  -35.9599   23.3318 H   0  0  0  0  0  0
  -24.3550  -36.8892   22.2051 H   0  0  0  0  0  0
  -23.7234  -37.6486   23.6634 H   0  0  0  0  0  0
  -26.0900  -31.5632   20.6166 H   0  0  0  0  0  0
  -26.8505  -30.8432   22.0003 H   0  0  0  0  0  0
  -28.1051  -28.9569   21.2043 H   0  0  0  0  0  0
  -25.9387  -26.0298   18.8601 H   0  0  0  0  0  0
  -23.9506  -27.3903   18.9522 H   0  0  0  0  0  0
  -23.7429  -30.6317   19.4175 H   0  0  0  0  0  0
  -22.7457  -29.2829   19.8555 H   0  0  0  0  0  0
  -25.1287  -36.1942   25.0838 H   0  0  0  0  0  0
  -20.9993  -28.3231   24.1425 H   0  0  0  0  0  0
  -20.5714  -26.2264   23.3594 H   0  0  0  0  0  0
  -21.6638  -26.7434   22.1163 H   0  0  0  0  0  0
  -19.6893  -25.6297   21.1234 H   0  0  0  0  0  0
  -19.6674  -27.3207   20.6781 H   0  0  0  0  0  0
  -17.4185  -26.6674   21.4056 H   0  0  0  0  0  0
  -18.0322  -26.0066   22.9050 H   0  0  0  0  0  0
  -19.7933  -30.7269   24.2287 H   0  0  0  0  0  0
  -17.5001  -31.6262   24.5140 H   0  0  0  0  0  0
  -15.5351  -30.2972   23.7641 H   0  0  0  0  0  0
  -15.8682  -28.0806   22.7088 H   0  0  0  0  0  0
  -24.5950  -30.7019   25.7845 H   0  0  0  0  0  0
  -24.8858  -32.2881   26.4850 H   0  0  0  0  0  0
  -25.8071  -30.8974   27.0292 H   0  0  0  0  0  0
  -26.2857  -29.6827   24.1138 H   0  0  0  0  0  0
  -27.3934  -29.7190   25.4671 H   0  0  0  0  0  0
  -27.8762  -30.4310   23.9427 H   0  0  0  0  0  0
  -27.2652  -33.3599   26.2157 H   0  0  0  0  0  0
  -28.3901  -32.6885   25.0457 H   0  0  0  0  0  0
  -28.0663  -31.8405   26.5519 H   0  0  0  0  0  0
  -28.2614  -38.0091   24.7509 H   0  0  0  0  0  0
  -28.1069  -36.2616   24.6323 H   0  0  0  0  0  0
  -27.2279  -37.1480   25.8887 H   0  0  0  0  0  0
  -20.9368  -29.8778   21.6947 H   0  0  0  0  0  0
  -26.0179  -38.2852   24.1423 H   0  0  0  0  0  0
  -28.4778  -19.8394   23.4281 H   0  0  0  0  0  0
  -30.3236  -17.6881   20.1868 H   0  0  0  0  0  0
  -29.2603  -15.6452   23.8311 H   0  0  0  0  0  0
  -25.5480  -20.7952   19.5627 H   0  0  0  0  0  0
  -24.8085  -21.0798   21.1342 H   0  0  0  0  0  0
  -26.2073  -22.9916   21.5164 H   0  0  0  0  0  0
  -25.8106  -23.1537   19.7990 H   0  0  0  0  0  0
  -26.8218  -19.3094   20.8596 H   0  0  0  0  0  0
  -26.6963  -20.3222   22.2858 H   0  0  0  0  0  0
  -27.9723  -22.2105   19.1856 H   0  0  0  0  0  0
  -26.1364  -17.2370   24.4286 H   0  0  0  0  0  0
  -26.3738  -16.7065   26.0904 H   0  0  0  0  0  0
  -27.1099  -15.8091   24.7750 H   0  0  0  0  0  0
  -26.9748  -19.5392   25.1273 H   0  0  0  0  0  0
  -28.6168  -19.7600   25.7260 H   0  0  0  0  0  0
  -27.3829  -19.0422   26.7518 H   0  0  0  0  0  0
  -29.3743  -16.0374   25.9682 H   0  0  0  0  0  0
  -28.6997  -17.0495   27.2241 H   0  0  0  0  0  0
  -30.0526  -17.6397   26.2429 H   0  0  0  0  0  0
  -29.6794  -23.6340   20.3923 H   0  0  0  0  0  0
  -28.5657  -23.8466   21.7219 H   0  0  0  0  0  0
  -26.9640  -24.8855   20.2640 H   0  0  0  0  0  0
  -27.9845  -24.8424   18.8527 H   0  0  0  0  0  0
  -31.0219  -14.8528   22.5178 H   0  0  0  0  0  0
  1 25  1  0  0  0
  1 30  2  0  0  0
  1 89  1  0  0  0
  2  3  1  0  0  0
  2 25  1  0  0  0
  2 91  1  0  0  0
  2 92  1  0  0  0
  3  4  1  0  0  0
  3 93  1  0  0  0
  3 94  1  0  0  0
  4  5  1  0  0  0
  4 95  1  0  0  0
  4 96  1  0  0  0
  5  6  1  0  0  0
  5 26  1  0  0  0
  5 97  1  0  0  0
  6 25  1  0  0  0
  6 98  1  0  0  0
  6 99  1  0  0  0
  7  8  2  0  0  0
  7 26  1  0  0  0
  7 29  1  0  0  0
  8  9  1  0  0  0
  8 22  1  0  0  0
  9 10  1  0  0  0
  9 27  2  0  0  0
 10 11  2  0  0  0
 10 15  1  0  0  0
 11 12  1  0  0  0
 11100  1  0  0  0
 12 13  2  0  0  0
 12101  1  0  0  0
 13 14  1  0  0  0
 13 31  1  0  0  0
 14 15  2  0  0  0
 14102  1  0  0  0
 15103  1  0  0  0
 16 17  2  0  0  0
 16 21  1  0  0  0
 16 31  1  0  0  0
 17 18  1  0  0  0
 17104  1  0  0  0
 18 19  2  0  0  0
 18105  1  0  0  0
 19 20  1  0  0  0
 19 24  1  0  0  0
 20 21  2  0  0  0
 20106  1  0  0  0
 21 23  1  0  0  0
 22 28  1  0  0  0
 22 32  2  0  0  0
 26 27  1  0  0  0
 28107  1  0  0  0
 28108  1  0  0  0
 29109  1  0  0  0
 29110  1  0  0  0
 33 34  1  0  0  0
 33 66  1  0  0  0
 33 70  2  0  0  0
 34 36  1  0  0  0
 34 59  1  0  0  0
 34111  1  0  0  0
 35 44  2  0  0  0
 35 45  1  0  0  0
 35 68  1  0  0  0
 36 56  1  0  0  0
 36112  1  0  0  0
 37 39  1  0  0  0
 37 47  1  0  0  0
 37 66  1  0  0  0
 37113  1  0  0  0
 38 43  2  0  0  0
 38 46  1  0  0  0
 38 47  1  0  0  0
 39 64  1  0  0  0
 39 67  2  0  0  0
 40 52  1  0  0  0
 40 53  2  0  0  0
 40 58  1  0  0  0
 41114  1  0  0  0
 41115  1  0  0  0
 41116  1  0  0  0
 41 48  1  0  0  0
 42 43  1  0  0  0
 42 66  1  0  0  0
 42117  1  0  0  0
 42118  1  0  0  0
 43 44  1  0  0  0
 44119  1  0  0  0
 45 46  2  0  0  0
 45120  1  0  0  0
 46121  1  0  0  0
 47122  1  0  0  0
 47123  1  0  0  0
 48 56  1  0  0  0
 48 65  1  0  0  0
 48124  1  0  0  0
 49 50  1  0  0  0
 49 53  1  0  0  0
 49 64  1  0  0  0
 49125  1  0  0  0
 50 51  1  0  0  0
 50126  1  0  0  0
 50127  1  0  0  0
 51 52  1  0  0  0
 51128  1  0  0  0
 51129  1  0  0  0
 52130  1  0  0  0
 52131  1  0  0  0
 53 54  1  0  0  0
 54 55  2  0  0  0
 54132  1  0  0  0
 55 57  1  0  0  0
 55133  1  0  0  0
 56 69  2  0  0  0
 57 58  2  0  0  0
 57134  1  0  0  0
 58135  1  0  0  0
 59 60  1  0  0  0
 59 61  1  0  0  0
 59 62  1  0  0  0
 60136  1  0  0  0
 60137  1  0  0  0
 60138  1  0  0  0
 61139  1  0  0  0
 61140  1  0  0  0
 61141  1  0  0  0
 62142  1  0  0  0
 62143  1  0  0  0
 62144  1  0  0  0
 63 65  1  0  0  0
 63145  1  0  0  0
 63146  1  0  0  0
 63147  1  0  0  0
 64148  1  0  0  0
 65149  1  0  0  0
 68 86  1  0  0  0
 71 74  2  0  0  0
 71 75  1  0  0  0
 71150  1  0  0  0
 72 74  1  0  0  0
 72 76  2  0  0  0
 72151  1  0  0  0
 73 75  2  0  0  0
 73 76  1  0  0  0
 73152  1  0  0  0
 74 77  1  0  0  0
 75 87  1  0  0  0
 76 89  1  0  0  0
 77 88  1  0  0  0
 77 90  2  0  0  0
 78 79  1  0  0  0
 78 80  1  0  0  0
 78153  1  0  0  0
 78154  1  0  0  0
 79 81  1  0  0  0
 79155  1  0  0  0
 79156  1  0  0  0
 80 88  1  0  0  0
 80157  1  0  0  0
 80158  1  0  0  0
 81 85  1  0  0  0
 81 88  1  0  0  0
 81159  1  0  0  0
 82160  1  0  0  0
 82161  1  0  0  0
 82162  1  0  0  0
 82 87  1  0  0  0
 83 87  1  0  0  0
 83163  1  0  0  0
 83164  1  0  0  0
 83165  1  0  0  0
 84 87  1  0  0  0
 84166  1  0  0  0
 84167  1  0  0  0
 84168  1  0  0  0
 85 86  1  0  0  0
 85169  1  0  0  0
 85170  1  0  0  0
 86171  1  0  0  0
 86172  1  0  0  0
 89173  1  0  0  0
M  ISO  4   1 100  68 101  86 101  89 100
M  END
> <chiral flag>
0

> <version>
0

> <s_m_source_file>
/data/baiqing/PycharmProjects/Reinvent-master-3.2/result/LINK_invent/BTK/process_docking_weight1_custom_product_contain_oxygen_bond_distance_aromatic_linkinvent_7_9_3/rearranged_h_0139.sdf

> <i_m_source_file_index>
86

> <r_mmod_Potential_Energy-OPLS-2005>
297.201568603516

> <r_mmod_Stretch_Energy-OPLS-2005>
90.5691909790039

> <r_mmod_Bend_Energy-OPLS-2005>
212.408294677734

> <r_mmod_Torsional_Energy-OPLS-2005>
370.48486328125

> <r_mmod_Improper_Torsional_Energy-OPLS-2005>
10.0837488174438

> <r_mmod_Van_der_Waal_Energy-OPLS-2005>
166.727798461914

> <r_mmod_Electrostatic_Energy-OPLS-2005>
-376.622467041016

> <r_mmod_Solvation_Energy-OPLS-2005>
-217.244293212891

> <b_mmod_Minimization_Converged-OPLS-2005>
0

> <r_mmod_RMS_Derivative-OPLS-2005>
10.3099746704102

$$$$
86
                    3D
 Structure written by MMmdl.
157166  0  0  1  0            999 V2000
  -30.5329  -14.9963   20.4015 C   0  0  0  0  0  0
  -30.4374  -12.6168   19.5079 C   0  0  0  0  0  0
  -29.5222  -12.5318   18.2640 C   0  0  0  0  0  0
  -28.0593  -12.3073   18.6855 C   0  0  0  0  0  0
  -27.6265  -13.2526   19.8362 C   0  0  2  0  0  0
  -28.6669  -13.3096   20.9756 C   0  0  0  0  0  0
  -25.2446  -13.8230   20.5715 C   0  0  0  0  0  0
  -24.1765  -13.0443   20.9234 C   0  0  0  0  0  0
  -24.6391  -11.6931   20.8766 C   0  0  0  0  0  0
  -23.9082  -10.4296   21.0419 C   0  0  0  0  0  0
  -24.3629   -9.4208   21.9197 C   0  0  0  0  0  0
  -23.6299   -8.2247   22.0760 C   0  0  0  0  0  0
  -22.4281   -8.0290   21.3548 C   0  0  0  0  0  0
  -21.9925   -9.0262   20.4646 C   0  0  0  0  0  0
  -22.7260  -10.2140   20.3061 C   0  0  0  0  0  0
  -21.6854   -6.0744   22.5280 C   0  0  0  0  0  0
  -21.4012   -6.5646   23.8216 C   0  0  0  0  0  0
  -21.3658   -5.6795   24.9175 C   0  0  0  0  0  0
  -21.6042   -4.3058   24.7224 C   0  0  0  0  0  0
  -21.8819   -3.8153   23.4345 C   0  0  0  0  0  0
  -21.9190   -4.6970   22.3401 C   0  0  0  0  0  0
  -22.7782  -13.5209   21.1892 C   0  0  0  0  0  0
  -22.1658   -4.2157   21.0977 F   0  0  0  0  0  0
  -21.5629   -3.4540   25.7734 F   0  0  0  0  0  0
  -29.9406  -13.7288   20.3750 N   0  0  0  0  0  0
  -26.2872  -12.9466   20.3248 N   0  0  0  0  0  0
  -25.9327  -11.6595   20.5752 N   0  0  0  0  0  0
  -22.0433  -12.8191   22.0439 N   0  0  0  0  0  0
  -25.4107  -15.1962   20.4133 N   0  0  0  0  0  0
  -31.7386  -15.0333   20.1295 O   0  0  0  0  0  0
  -21.6645   -6.8889   21.4242 O   0  0  0  0  0  0
  -22.3465  -14.5516   20.6740 O   0  0  0  0  0  0
  -24.6472  -31.8399   23.1846 C   0  0  0  0  0  0
  -25.9223  -32.4679   23.8254 C   0  0  1  0  0  0
  -27.2216  -27.1021   20.1580 C   0  0  0  0  0  0
  -25.5965  -33.8486   24.2167 N   0  0  0  0  0  0
  -23.4535  -30.4578   21.5301 C   0  0  2  0  0  0
  -24.9053  -28.8780   20.1084 C   0  0  0  0  0  0
  -22.7586  -29.4534   22.4843 C   0  0  0  0  0  0
  -18.0303  -28.1418   22.8476 C   0  0  0  0  0  0
  -24.1484  -36.7236   23.2647 C   0  0  0  0  0  0
  -26.0117  -30.7034   21.3893 C   0  0  0  0  0  0
  -26.0825  -29.3107   20.7311 C   0  0  0  0  0  0
  -27.2398  -28.4394   20.7375 C   0  0  0  0  0  0
  -26.0193  -26.7802   19.4903 C   0  0  0  0  0  0
  -24.8883  -27.6273   19.4724 C   0  0  0  0  0  0
  -23.6821  -29.7831   20.1508 C   0  0  0  0  0  0
  -25.4118  -36.3022   24.0317 C   0  0  1  0  0  0
  -20.5922  -28.3739   23.1229 C   0  0  2  0  0  0
  -20.6793  -26.9442   22.5405 C   0  0  0  0  0  0
  -19.5765  -26.6391   21.5223 C   0  0  0  0  0  0
  -18.1939  -26.7959   22.1618 C   0  0  0  0  0  0
  -19.1564  -28.8896   23.2843 C   0  0  0  0  0  0
  -18.9482  -30.1491   23.8870 C   0  0  0  0  0  0
  -17.6481  -30.6610   24.0566 C   0  0  0  0  0  0
  -25.9071  -34.9401   23.5046 C   0  0  0  0  0  0
  -16.5366  -29.9103   23.6353 C   0  0  0  0  0  0
  -16.7287  -28.6526   23.0365 C   0  0  0  0  0  0
  -26.4535  -31.6568   25.0714 C   0  0  0  0  0  0
  -25.3705  -31.3767   26.1401 C   0  0  0  0  0  0
  -27.0426  -30.2967   24.6326 C   0  0  0  0  0  0
  -27.6056  -32.4352   25.7498 C   0  0  0  0  0  0
  -27.5570  -37.1770   24.8465 C   0  0  0  0  0  0
  -21.4273  -29.3054   22.3596 N   0  0  0  0  0  0
  -26.4272  -37.3747   23.9423 N   0  0  0  0  0  0
  -24.7241  -31.0230   22.0891 N   0  0  0  0  0  0
  -23.4214  -28.8090   23.3012 O   0  0  0  0  0  0
  -28.2659  -26.0968   20.2467 O   0  0  0  0  0  0
  -26.5662  -34.8908   22.4628 O   0  0  0  0  0  0
  -23.5578  -32.1293   23.7033 O   0  0  0  0  0  0
  -31.4530  -19.5046   19.3693 C   0  0  0  0  0  0
  -31.1993  -18.1455   19.7088 C   0  0  0  0  0  0
  -29.0667  -18.8549   20.5741 C   0  0  0  0  0  0
  -30.5335  -20.5604   19.6079 C   0  0  0  0  0  0
  -29.3133  -20.2938   20.2466 C   0  0  0  0  0  0
  -29.9894  -17.7104   20.3084 C   0  0  0  0  0  0
  -30.7975  -21.9777   19.0719 C   0  0  0  0  0  0
  -28.3450  -21.6064   20.4200 C   0  0  0  0  0  0
  -30.3623  -23.1797   19.9693 C   0  0  0  0  0  0
  -28.9083  -23.1948   20.5481 C   0  0  2  0  0  0
  -29.0186  -23.4377   22.0674 C   0  0  0  0  0  0
  -28.0163  -24.5589   20.0169 C   0  0  0  0  0  0
  -29.7557  -16.1950   20.5583 N   0  0  0  0  0  0
  -31.4705  -12.7725   19.1943 H   0  0  0  0  0  0
  -30.4344  -11.6725   20.0548 H   0  0  0  0  0  0
  -29.8498  -11.7263   17.6056 H   0  0  0  0  0  0
  -29.6008  -13.4540   17.6857 H   0  0  0  0  0  0
  -27.9696  -11.2701   19.0119 H   0  0  0  0  0  0
  -27.3917  -12.4144   17.8299 H   0  0  0  0  0  0
  -27.5816  -14.2474   19.3923 H   0  0  0  0  0  0
  -28.7627  -12.3441   21.4736 H   0  0  0  0  0  0
  -28.3553  -14.0220   21.7412 H   0  0  0  0  0  0
  -25.2773   -9.5687   22.4774 H   0  0  0  0  0  0
  -24.0008   -7.4638   22.7483 H   0  0  0  0  0  0
  -21.0858   -8.8787   19.8945 H   0  0  0  0  0  0
  -22.3729  -10.9680   19.6168 H   0  0  0  0  0  0
  -21.2006   -7.6156   23.9722 H   0  0  0  0  0  0
  -21.1475   -6.0524   25.9078 H   0  0  0  0  0  0
  -22.0597   -2.7615   23.2840 H   0  0  0  0  0  0
  -22.4036  -11.9841   22.4814 H   0  0  0  0  0  0
  -21.1057  -13.1222   22.2661 H   0  0  0  0  0  0
  -24.6391  -15.8462   20.5194 H   0  0  0  0  0  0
  -26.2521  -15.6373   20.0649 H   0  0  0  0  0  0
  -26.7290  -32.5275   23.0981 H   0  0  0  0  0  0
  -25.0117  -33.9598   25.0321 H   0  0  0  0  0  0
  -22.7580  -31.2845   21.3708 H   0  0  0  0  0  0
  -23.3768  -35.9548   23.3287 H   0  0  0  0  0  0
  -24.3577  -36.8884   22.2068 H   0  0  0  0  0  0
  -23.7208  -37.6409   23.6698 H   0  0  0  0  0  0
  -26.1732  -31.4554   20.6157 H   0  0  0  0  0  0
  -26.8802  -30.7543   22.0343 H   0  0  0  0  0  0
  -28.1341  -28.7648   21.2494 H   0  0  0  0  0  0
  -25.9187  -25.8248   18.9974 H   0  0  0  0  0  0
  -23.9905  -27.2901   18.9730 H   0  0  0  0  0  0
  -23.8190  -30.5556   19.3930 H   0  0  0  0  0  0
  -22.7972  -29.2244   19.8410 H   0  0  0  0  0  0
  -25.1304  -36.1839   25.0808 H   0  0  0  0  0  0
  -21.0003  -28.3333   24.1355 H   0  0  0  0  0  0
  -20.5708  -26.2352   23.3625 H   0  0  0  0  0  0
  -21.6655  -26.7463   22.1187 H   0  0  0  0  0  0
  -19.6931  -25.6297   21.1267 H   0  0  0  0  0  0
  -19.6710  -27.3191   20.6748 H   0  0  0  0  0  0
  -17.4217  -26.6718   21.4009 H   0  0  0  0  0  0
  -18.0317  -26.0107   22.9015 H   0  0  0  0  0  0
  -19.7960  -30.7318   24.2219 H   0  0  0  0  0  0
  -17.5036  -31.6290   24.5176 H   0  0  0  0  0  0
  -15.5369  -30.3001   23.7708 H   0  0  0  0  0  0
  -15.8678  -28.0842   22.7103 H   0  0  0  0  0  0
  -24.5898  -30.7102   25.7723 H   0  0  0  0  0  0
  -24.8883  -32.2953   26.4756 H   0  0  0  0  0  0
  -25.7976  -30.8990   27.0226 H   0  0  0  0  0  0
  -26.3070  -29.6666   24.1316 H   0  0  0  0  0  0
  -27.4026  -29.7293   25.4916 H   0  0  0  0  0  0
  -27.8974  -30.4218   23.9674 H   0  0  0  0  0  0
  -27.2652  -33.3697   26.1973 H   0  0  0  0  0  0
  -28.3917  -32.6836   25.0355 H   0  0  0  0  0  0
  -28.0668  -31.8541   26.5493 H   0  0  0  0  0  0
  -28.2562  -38.0092   24.7545 H   0  0  0  0  0  0
  -28.1080  -36.2621   24.6240 H   0  0  0  0  0  0
  -27.2295  -37.1353   25.8868 H   0  0  0  0  0  0
  -20.9498  -29.8752   21.6751 H   0  0  0  0  0  0
  -26.0127  -38.2803   24.1456 H   0  0  0  0  0  0
  -32.3852  -19.7319   18.8702 H   0  0  0  0  0  0
  -31.9628  -17.4250   19.4557 H   0  0  0  0  0  0
  -28.1150  -18.6208   21.0297 H   0  0  0  0  0  0
  -30.2902  -22.0562   18.1093 H   0  0  0  0  0  0
  -31.8614  -22.0761   18.8509 H   0  0  0  0  0  0
  -27.6546  -21.3986   21.2383 H   0  0  0  0  0  0
  -27.7131  -21.5873   19.5315 H   0  0  0  0  0  0
  -30.5364  -24.1046   19.4188 H   0  0  0  0  0  0
  -31.0796  -23.2193   20.7907 H   0  0  0  0  0  0
  -29.6028  -22.6579   22.5584 H   0  0  0  0  0  0
  -28.0357  -23.4523   22.5396 H   0  0  0  0  0  0
  -29.4969  -24.3944   22.2833 H   0  0  0  0  0  0
  -27.0118  -24.3826   20.4023 H   0  0  0  0  0  0
  -27.9162  -24.4494   18.9368 H   0  0  0  0  0  0
  -28.8080  -15.9818   20.8308 H   0  0  0  0  0  0
  1 25  1  0  0  0
  1 30  2  0  0  0
  1 83  1  0  0  0
  2  3  1  0  0  0
  2 25  1  0  0  0
  2 84  1  0  0  0
  2 85  1  0  0  0
  3  4  1  0  0  0
  3 86  1  0  0  0
  3 87  1  0  0  0
  4  5  1  0  0  0
  4 88  1  0  0  0
  4 89  1  0  0  0
  5  6  1  0  0  0
  5 26  1  0  0  0
  5 90  1  0  0  0
  6 25  1  0  0  0
  6 91  1  0  0  0
  6 92  1  0  0  0
  7  8  2  0  0  0
  7 26  1  0  0  0
  7 29  1  0  0  0
  8  9  1  0  0  0
  8 22  1  0  0  0
  9 10  1  0  0  0
  9 27  2  0  0  0
 10 11  2  0  0  0
 10 15  1  0  0  0
 11 12  1  0  0  0
 11 93  1  0  0  0
 12 13  2  0  0  0
 12 94  1  0  0  0
 13 14  1  0  0  0
 13 31  1  0  0  0
 14 15  2  0  0  0
 14 95  1  0  0  0
 15 96  1  0  0  0
 16 17  2  0  0  0
 16 21  1  0  0  0
 16 31  1  0  0  0
 17 18  1  0  0  0
 17 97  1  0  0  0
 18 19  2  0  0  0
 18 98  1  0  0  0
 19 20  1  0  0  0
 19 24  1  0  0  0
 20 21  2  0  0  0
 20 99  1  0  0  0
 21 23  1  0  0  0
 22 28  1  0  0  0
 22 32  2  0  0  0
 26 27  1  0  0  0
 28100  1  0  0  0
 28101  1  0  0  0
 29102  1  0  0  0
 29103  1  0  0  0
 33 34  1  0  0  0
 33 66  1  0  0  0
 33 70  2  0  0  0
 34 36  1  0  0  0
 34 59  1  0  0  0
 34104  1  0  0  0
 35 44  2  0  0  0
 35 45  1  0  0  0
 35 68  1  0  0  0
 36 56  1  0  0  0
 36105  1  0  0  0
 37 39  1  0  0  0
 37 47  1  0  0  0
 37 66  1  0  0  0
 37106  1  0  0  0
 38 43  2  0  0  0
 38 46  1  0  0  0
 38 47  1  0  0  0
 39 64  1  0  0  0
 39 67  2  0  0  0
 40 52  1  0  0  0
 40 53  2  0  0  0
 40 58  1  0  0  0
 41107  1  0  0  0
 41108  1  0  0  0
 41109  1  0  0  0
 41 48  1  0  0  0
 42 43  1  0  0  0
 42 66  1  0  0  0
 42110  1  0  0  0
 42111  1  0  0  0
 43 44  1  0  0  0
 44112  1  0  0  0
 45 46  2  0  0  0
 45113  1  0  0  0
 46114  1  0  0  0
 47115  1  0  0  0
 47116  1  0  0  0
 48 56  1  0  0  0
 48 65  1  0  0  0
 48117  1  0  0  0
 49 50  1  0  0  0
 49 53  1  0  0  0
 49 64  1  0  0  0
 49118  1  0  0  0
 50 51  1  0  0  0
 50119  1  0  0  0
 50120  1  0  0  0
 51 52  1  0  0  0
 51121  1  0  0  0
 51122  1  0  0  0
 52123  1  0  0  0
 52124  1  0  0  0
 53 54  1  0  0  0
 54 55  2  0  0  0
 54125  1  0  0  0
 55 57  1  0  0  0
 55126  1  0  0  0
 56 69  2  0  0  0
 57 58  2  0  0  0
 57127  1  0  0  0
 58128  1  0  0  0
 59 60  1  0  0  0
 59 61  1  0  0  0
 59 62  1  0  0  0
 60129  1  0  0  0
 60130  1  0  0  0
 60131  1  0  0  0
 61132  1  0  0  0
 61133  1  0  0  0
 61134  1  0  0  0
 62135  1  0  0  0
 62136  1  0  0  0
 62137  1  0  0  0
 63 65  1  0  0  0
 63138  1  0  0  0
 63139  1  0  0  0
 63140  1  0  0  0
 64141  1  0  0  0
 65142  1  0  0  0
 68 82  1  0  0  0
 71 72  2  0  0  0
 71 74  1  0  0  0
 71143  1  0  0  0
 72 76  1  0  0  0
 72144  1  0  0  0
 73 75  1  0  0  0
 73 76  2  0  0  0
 73145  1  0  0  0
 74 75  2  0  0  0
 74 77  1  0  0  0
 75 78  1  0  0  0
 76 83  1  0  0  0
 77 79  1  0  0  0
 77146  1  0  0  0
 77147  1  0  0  0
 78 80  1  0  0  0
 78148  1  0  0  0
 78149  1  0  0  0
 79 80  1  0  0  0
 79150  1  0  0  0
 79151  1  0  0  0
 80 81  1  0  0  0
 80 82  1  0  0  0
 81152  1  0  0  0
 81153  1  0  0  0
 81154  1  0  0  0
 82155  1  0  0  0
 82156  1  0  0  0
 83157  1  0  0  0
M  ISO  4   1 100  68 101  82 101  83 100
M  END
> <chiral flag>
0

> <version>
0

> <s_m_source_file>
/data/baiqing/PycharmProjects/Reinvent-master-3.2/result/LINK_invent/BTK/process_docking_weight1_custom_product_contain_oxygen_bond_distance_aromatic_linkinvent_7_9_3/rearranged_h_0139.sdf

> <i_m_source_file_index>
87

> <r_mmod_Potential_Energy-OPLS-2005>
589.286193847656

> <r_mmod_Stretch_Energy-OPLS-2005>
292.257995605469

> <r_mmod_Bend_Energy-OPLS-2005>
265.529327392578

> <r_mmod_Torsional_Energy-OPLS-2005>
236.30534362793

> <r_mmod_Improper_Torsional_Energy-OPLS-2005>
4.25792694091797

> <r_mmod_Van_der_Waal_Energy-OPLS-2005>
135.838821411133

> <r_mmod_Electrostatic_Energy-OPLS-2005>
-367.223236083984

> <r_mmod_Solvation_Energy-OPLS-2005>
-203.921020507812

> <b_mmod_Minimization_Converged-OPLS-2005>
0

> <r_mmod_RMS_Derivative-OPLS-2005>
1.19787418842316

$$$$
87
                    3D
 Structure written by MMmdl.
165173  0  0  1  0            999 V2000
  -30.5359  -14.9751   20.3898 C   0  0  0  0  0  0
  -30.4399  -12.6047   19.4778 C   0  0  0  0  0  0
  -29.5108  -12.5228   18.2461 C   0  0  0  0  0  0
  -28.0472  -12.3053   18.6743 C   0  0  0  0  0  0
  -27.6259  -13.2452   19.8350 C   0  0  2  0  0  0
  -28.6784  -13.2997   20.9604 C   0  0  0  0  0  0
  -25.2467  -13.8208   20.5741 C   0  0  0  0  0  0
  -24.1786  -13.0442   20.9236 C   0  0  0  0  0  0
  -24.6411  -11.6917   20.8792 C   0  0  0  0  0  0
  -23.9102  -10.4291   21.0436 C   0  0  0  0  0  0
  -24.3660   -9.4199   21.9204 C   0  0  0  0  0  0
  -23.6337   -8.2234   22.0757 C   0  0  0  0  0  0
  -22.4315   -8.0284   21.3551 C   0  0  0  0  0  0
  -21.9954   -9.0259   20.4648 C   0  0  0  0  0  0
  -22.7278  -10.2143   20.3082 C   0  0  0  0  0  0
  -21.6862   -6.0749   22.5273 C   0  0  0  0  0  0
  -21.3997   -6.5650   23.8205 C   0  0  0  0  0  0
  -21.3672   -5.6806   24.9165 C   0  0  0  0  0  0
  -21.6062   -4.3064   24.7209 C   0  0  0  0  0  0
  -21.8819   -3.8161   23.4332 C   0  0  0  0  0  0
  -21.9189   -4.6984   22.3388 C   0  0  0  0  0  0
  -22.7803  -13.5201   21.1885 C   0  0  0  0  0  0
  -22.1659   -4.2178   21.0966 F   0  0  0  0  0  0
  -21.5655   -3.4540   25.7718 F   0  0  0  0  0  0
  -29.9396  -13.7155   20.3337 N   0  0  0  0  0  0
  -26.2893  -12.9436   20.3290 N   0  0  0  0  0  0
  -25.9347  -11.6568   20.5793 N   0  0  0  0  0  0
  -22.0480  -12.8180   22.0437 N   0  0  0  0  0  0
  -25.4122  -15.1945   20.4149 N   0  0  0  0  0  0
  -31.7592  -15.0183   20.2087 O   0  0  0  0  0  0
  -21.6662   -6.8900   21.4240 O   0  0  0  0  0  0
  -22.3479  -14.5512   20.6724 O   0  0  0  0  0  0
  -24.6431  -31.8432   23.1893 C   0  0  0  0  0  0
  -25.9201  -32.4691   23.8295 C   0  0  1  0  0  0
  -27.2106  -27.1313   20.1423 C   0  0  0  0  0  0
  -25.5959  -33.8507   24.2222 N   0  0  0  0  0  0
  -23.4471  -30.4635   21.5314 C   0  0  2  0  0  0
  -24.8955  -28.8901   20.1093 C   0  0  0  0  0  0
  -22.7556  -29.4543   22.4823 C   0  0  0  0  0  0
  -18.0308  -28.1357   22.8498 C   0  0  0  0  0  0
  -24.1499  -36.7238   23.2637 C   0  0  0  0  0  0
  -26.0034  -30.7156   21.3912 C   0  0  0  0  0  0
  -26.0715  -29.3250   20.7333 C   0  0  0  0  0  0
  -27.2264  -28.4564   20.7415 C   0  0  0  0  0  0
  -26.0143  -26.8094   19.4641 C   0  0  0  0  0  0
  -24.8788  -27.6466   19.4620 C   0  0  0  0  0  0
  -23.6737  -29.7921   20.1507 C   0  0  0  0  0  0
  -25.4130  -36.3032   24.0317 C   0  0  1  0  0  0
  -20.5923  -28.3695   23.1216 C   0  0  2  0  0  0
  -20.6778  -26.9387   22.5389 C   0  0  0  0  0  0
  -19.5745  -26.6349   21.5205 C   0  0  0  0  0  0
  -18.1933  -26.7903   22.1627 C   0  0  0  0  0  0
  -19.1566  -28.8840   23.2862 C   0  0  0  0  0  0
  -18.9484  -30.1437   23.8884 C   0  0  0  0  0  0
  -17.6477  -30.6566   24.0550 C   0  0  0  0  0  0
  -25.9078  -34.9407   23.5076 C   0  0  0  0  0  0
  -16.5367  -29.9062   23.6321 C   0  0  0  0  0  0
  -16.7293  -28.6466   23.0377 C   0  0  0  0  0  0
  -26.4551  -31.6548   25.0722 C   0  0  0  0  0  0
  -25.3746  -31.3740   26.1423 C   0  0  0  0  0  0
  -27.0415  -30.2940   24.6300 C   0  0  0  0  0  0
  -27.6100  -32.4305   25.7477 C   0  0  0  0  0  0
  -27.5582  -37.1774   24.8465 C   0  0  0  0  0  0
  -21.4238  -29.3045   22.3590 N   0  0  0  0  0  0
  -26.4293  -37.3743   23.9409 N   0  0  0  0  0  0
  -24.7170  -31.0287   22.0919 N   0  0  0  0  0  0
  -23.4187  -28.8062   23.2967 O   0  0  0  0  0  0
  -28.2555  -26.1394   20.2271 O   0  0  0  0  0  0
  -26.5652  -34.8891   22.4645 O   0  0  0  0  0  0
  -23.5540  -32.1318   23.7089 O   0  0  0  0  0  0
  -31.4148  -19.3158   21.7698 C   0  0  0  0  0  0
  -30.7014  -20.4257   21.2663 C   0  0  0  0  0  0
  -31.1043  -17.9826   21.4303 C   0  0  0  0  0  0
  -29.2931  -18.8695   20.0857 C   0  0  0  0  0  0
  -29.6025  -20.3083   20.3876 C   0  0  0  0  0  0
  -30.0308  -17.6630   20.5747 C   0  0  0  0  0  0
  -27.3065  -20.6927   17.9099 C   0  0  0  0  0  0
  -29.8359  -21.9897   18.4909 C   0  0  0  0  0  0
  -30.2648  -23.8695   20.8291 C   0  0  0  0  0  0
  -28.1798  -23.0095   21.8844 C   0  0  0  0  0  0
  -27.5005  -21.3744   19.2851 C   0  0  0  0  0  0
  -28.0573  -24.6273   19.8735 C   0  0  0  0  0  0
  -28.9561  -21.7201   19.7378 C   0  0  1  0  0  0
  -28.8649  -23.2722   20.5259 C   0  0  0  0  0  0
  -29.7443  -16.1659   20.3463 N   0  0  0  0  0  0
  -31.4672  -12.7781   19.1524 H   0  0  0  0  0  0
  -30.4491  -11.6626   20.0293 H   0  0  0  0  0  0
  -29.8345  -11.7263   17.5749 H   0  0  0  0  0  0
  -29.5805  -13.4505   17.6763 H   0  0  0  0  0  0
  -27.9408  -11.2633   18.9808 H   0  0  0  0  0  0
  -27.3810  -12.4387   17.8221 H   0  0  0  0  0  0
  -27.5780  -14.2394   19.3918 H   0  0  0  0  0  0
  -28.7861  -12.3339   21.4540 H   0  0  0  0  0  0
  -28.3850  -14.0158   21.7299 H   0  0  0  0  0  0
  -25.2807   -9.5670   22.4778 H   0  0  0  0  0  0
  -24.0056   -7.4610   22.7457 H   0  0  0  0  0  0
  -21.0896   -8.8779   19.8937 H   0  0  0  0  0  0
  -22.3742  -10.9698   19.6206 H   0  0  0  0  0  0
  -21.1971   -7.6156   23.9709 H   0  0  0  0  0  0
  -21.1512   -6.0534   25.9075 H   0  0  0  0  0  0
  -22.0597   -2.7626   23.2808 H   0  0  0  0  0  0
  -22.4140  -11.9847   22.4814 H   0  0  0  0  0  0
  -21.1094  -13.1158   22.2656 H   0  0  0  0  0  0
  -24.6463  -15.8465   20.5432 H   0  0  0  0  0  0
  -26.2600  -15.6414   20.0937 H   0  0  0  0  0  0
  -26.7251  -32.5320   23.1015 H   0  0  0  0  0  0
  -25.0157  -33.9656   25.0403 H   0  0  0  0  0  0
  -22.7546  -31.2924   21.3743 H   0  0  0  0  0  0
  -23.3783  -35.9549   23.3293 H   0  0  0  0  0  0
  -24.3588  -36.8873   22.2051 H   0  0  0  0  0  0
  -23.7233  -37.6419   23.6685 H   0  0  0  0  0  0
  -26.1625  -31.4720   20.6210 H   0  0  0  0  0  0
  -26.8726  -30.7659   22.0349 H   0  0  0  0  0  0
  -28.1176  -28.7749   21.2643 H   0  0  0  0  0  0
  -25.9202  -25.8686   18.9443 H   0  0  0  0  0  0
  -23.9814  -27.3157   18.9568 H   0  0  0  0  0  0
  -23.8134  -30.5655   19.3949 H   0  0  0  0  0  0
  -22.7912  -29.2303   19.8400 H   0  0  0  0  0  0
  -25.1319  -36.1868   25.0809 H   0  0  0  0  0  0
  -21.0073  -28.3293   24.1314 H   0  0  0  0  0  0
  -20.5630  -26.2320   23.3619 H   0  0  0  0  0  0
  -21.6644  -26.7345   22.1204 H   0  0  0  0  0  0
  -19.6899  -25.6259   21.1235 H   0  0  0  0  0  0
  -19.6674  -27.3150   20.6731 H   0  0  0  0  0  0
  -17.4198  -26.6660   21.4035 H   0  0  0  0  0  0
  -18.0339  -26.0030   22.9005 H   0  0  0  0  0  0
  -19.7958  -30.7258   24.2249 H   0  0  0  0  0  0
  -17.5027  -31.6256   24.5124 H   0  0  0  0  0  0
  -15.5365  -30.2956   23.7636 H   0  0  0  0  0  0
  -15.8697  -28.0755   22.7128 H   0  0  0  0  0  0
  -24.5835  -30.7219   25.7704 H   0  0  0  0  0  0
  -24.9057  -32.2941   26.4919 H   0  0  0  0  0  0
  -25.7999  -30.8784   27.0156 H   0  0  0  0  0  0
  -26.3037  -29.6658   24.1290 H   0  0  0  0  0  0
  -27.4017  -29.7243   25.4879 H   0  0  0  0  0  0
  -27.8963  -30.4182   23.9643 H   0  0  0  0  0  0
  -27.2704  -33.3583   26.2092 H   0  0  0  0  0  0
  -28.3873  -32.6897   25.0279 H   0  0  0  0  0  0
  -28.0827  -31.8413   26.5344 H   0  0  0  0  0  0
  -28.2574  -38.0092   24.7522 H   0  0  0  0  0  0
  -28.1094  -36.2614   24.6279 H   0  0  0  0  0  0
  -27.2296  -37.1415   25.8867 H   0  0  0  0  0  0
  -20.9415  -29.8798   21.6822 H   0  0  0  0  0  0
  -26.0158  -38.2801   24.1435 H   0  0  0  0  0  0
  -32.2438  -19.5016   22.4374 H   0  0  0  0  0  0
  -31.0615  -21.3867   21.5688 H   0  0  0  0  0  0
  -31.6974  -17.1931   21.8690 H   0  0  0  0  0  0
  -28.4599  -18.6690   19.4333 H   0  0  0  0  0  0
  -26.2751  -20.3582   17.7913 H   0  0  0  0  0  0
  -27.9481  -19.8258   17.7651 H   0  0  0  0  0  0
  -27.5156  -21.3796   17.0887 H   0  0  0  0  0  0
  -29.8607  -21.1540   17.7924 H   0  0  0  0  0  0
  -30.8785  -22.1484   18.7667 H   0  0  0  0  0  0
  -29.5027  -22.8719   17.9445 H   0  0  0  0  0  0
  -30.1707  -24.8781   21.2317 H   0  0  0  0  0  0
  -30.8902  -23.9632   19.9415 H   0  0  0  0  0  0
  -30.8195  -23.3457   21.5985 H   0  0  0  0  0  0
  -28.2316  -23.8817   22.5393 H   0  0  0  0  0  0
  -28.6315  -22.1703   22.4132 H   0  0  0  0  0  0
  -27.1239  -22.7663   21.7546 H   0  0  0  0  0  0
  -27.0252  -20.7723   20.0619 H   0  0  0  0  0  0
  -26.9035  -22.2814   19.2338 H   0  0  0  0  0  0
  -27.0036  -24.4175   20.0473 H   0  0  0  0  0  0
  -28.1674  -24.5895   18.7899 H   0  0  0  0  0  0
  -28.7714  -15.9644   20.1694 H   0  0  0  0  0  0
  1 25  1  0  0  0
  1 30  2  0  0  0
  1 85  1  0  0  0
  2  3  1  0  0  0
  2 25  1  0  0  0
  2 86  1  0  0  0
  2 87  1  0  0  0
  3  4  1  0  0  0
  3 88  1  0  0  0
  3 89  1  0  0  0
  4  5  1  0  0  0
  4 90  1  0  0  0
  4 91  1  0  0  0
  5  6  1  0  0  0
  5 26  1  0  0  0
  5 92  1  0  0  0
  6 25  1  0  0  0
  6 93  1  0  0  0
  6 94  1  0  0  0
  7  8  2  0  0  0
  7 26  1  0  0  0
  7 29  1  0  0  0
  8  9  1  0  0  0
  8 22  1  0  0  0
  9 10  1  0  0  0
  9 27  2  0  0  0
 10 11  2  0  0  0
 10 15  1  0  0  0
 11 12  1  0  0  0
 11 95  1  0  0  0
 12 13  2  0  0  0
 12 96  1  0  0  0
 13 14  1  0  0  0
 13 31  1  0  0  0
 14 15  2  0  0  0
 14 97  1  0  0  0
 15 98  1  0  0  0
 16 17  2  0  0  0
 16 21  1  0  0  0
 16 31  1  0  0  0
 17 18  1  0  0  0
 17 99  1  0  0  0
 18 19  2  0  0  0
 18100  1  0  0  0
 19 20  1  0  0  0
 19 24  1  0  0  0
 20 21  2  0  0  0
 20101  1  0  0  0
 21 23  1  0  0  0
 22 28  1  0  0  0
 22 32  2  0  0  0
 26 27  1  0  0  0
 28102  1  0  0  0
 28103  1  0  0  0
 29104  1  0  0  0
 29105  1  0  0  0
 33 34  1  0  0  0
 33 66  1  0  0  0
 33 70  2  0  0  0
 34 36  1  0  0  0
 34 59  1  0  0  0
 34106  1  0  0  0
 35 44  2  0  0  0
 35 45  1  0  0  0
 35 68  1  0  0  0
 36 56  1  0  0  0
 36107  1  0  0  0
 37 39  1  0  0  0
 37 47  1  0  0  0
 37 66  1  0  0  0
 37108  1  0  0  0
 38 43  2  0  0  0
 38 46  1  0  0  0
 38 47  1  0  0  0
 39 64  1  0  0  0
 39 67  2  0  0  0
 40 52  1  0  0  0
 40 53  2  0  0  0
 40 58  1  0  0  0
 41109  1  0  0  0
 41110  1  0  0  0
 41111  1  0  0  0
 41 48  1  0  0  0
 42 43  1  0  0  0
 42 66  1  0  0  0
 42112  1  0  0  0
 42113  1  0  0  0
 43 44  1  0  0  0
 44114  1  0  0  0
 45 46  2  0  0  0
 45115  1  0  0  0
 46116  1  0  0  0
 47117  1  0  0  0
 47118  1  0  0  0
 48 56  1  0  0  0
 48 65  1  0  0  0
 48119  1  0  0  0
 49 50  1  0  0  0
 49 53  1  0  0  0
 49 64  1  0  0  0
 49120  1  0  0  0
 50 51  1  0  0  0
 50121  1  0  0  0
 50122  1  0  0  0
 51 52  1  0  0  0
 51123  1  0  0  0
 51124  1  0  0  0
 52125  1  0  0  0
 52126  1  0  0  0
 53 54  1  0  0  0
 54 55  2  0  0  0
 54127  1  0  0  0
 55 57  1  0  0  0
 55128  1  0  0  0
 56 69  2  0  0  0
 57 58  2  0  0  0
 57129  1  0  0  0
 58130  1  0  0  0
 59 60  1  0  0  0
 59 61  1  0  0  0
 59 62  1  0  0  0
 60131  1  0  0  0
 60132  1  0  0  0
 60133  1  0  0  0
 61134  1  0  0  0
 61135  1  0  0  0
 61136  1  0  0  0
 62137  1  0  0  0
 62138  1  0  0  0
 62139  1  0  0  0
 63 65  1  0  0  0
 63140  1  0  0  0
 63141  1  0  0  0
 63142  1  0  0  0
 64143  1  0  0  0
 65144  1  0  0  0
 68 82  1  0  0  0
 71 72  2  0  0  0
 71 73  1  0  0  0
 71145  1  0  0  0
 72 75  1  0  0  0
 72146  1  0  0  0
 73 76  2  0  0  0
 73147  1  0  0  0
 74 75  2  0  0  0
 74 76  1  0  0  0
 74148  1  0  0  0
 75 83  1  0  0  0
 76 85  1  0  0  0
 77 81  1  0  0  0
 77149  1  0  0  0
 77150  1  0  0  0
 77151  1  0  0  0
 78152  1  0  0  0
 78153  1  0  0  0
 78154  1  0  0  0
 78 83  1  0  0  0
 79155  1  0  0  0
 79156  1  0  0  0
 79157  1  0  0  0
 79 84  1  0  0  0
 80 84  1  0  0  0
 80158  1  0  0  0
 80159  1  0  0  0
 80160  1  0  0  0
 81 83  1  0  0  0
 81161  1  0  0  0
 81162  1  0  0  0
 82 84  1  0  0  0
 82163  1  0  0  0
 82164  1  0  0  0
 83 84  1  0  0  0
 85165  1  0  0  0
M  ISO  4   1 100  68 101  82 101  85 100
M  END
> <chiral flag>
0

> <version>
0

> <s_m_source_file>
/data/baiqing/PycharmProjects/Reinvent-master-3.2/result/LINK_invent/BTK/process_docking_weight1_custom_product_contain_oxygen_bond_distance_aromatic_linkinvent_7_9_3/rearranged_h_0139.sdf

> <i_m_source_file_index>
88

> <r_mmod_Potential_Energy-OPLS-2005>
635.748413085938

> <r_mmod_Stretch_Energy-OPLS-2005>
310.908325195312

> <r_mmod_Bend_Energy-OPLS-2005>
277.553253173828

> <r_mmod_Torsional_Energy-OPLS-2005>
263.599029541016

> <r_mmod_Improper_Torsional_Energy-OPLS-2005>
7.72237920761108

> <r_mmod_Van_der_Waal_Energy-OPLS-2005>
148.113540649414

> <r_mmod_Electrostatic_Energy-OPLS-2005>
-386.198852539062

> <r_mmod_Solvation_Energy-OPLS-2005>
-194.703643798828

> <b_mmod_Minimization_Converged-OPLS-2005>
0

> <r_mmod_RMS_Derivative-OPLS-2005>
3.06700158119202

$$$$
88
                    3D
 Structure written by MMmdl.
157165  0  0  1  0            999 V2000
  -30.6232  -14.7637   20.4532 C   0  0  0  0  0  0
  -30.4306  -12.4611   19.4930 C   0  0  0  0  0  0
  -29.5216  -12.5202   18.2441 C   0  0  0  0  0  0
  -28.0426  -12.3549   18.6410 C   0  0  0  0  0  0
  -27.6460  -13.2449   19.8502 C   0  0  2  0  0  0
  -28.6882  -13.1858   20.9924 C   0  0  0  0  0  0
  -25.2512  -13.8241   20.5663 C   0  0  0  0  0  0
  -24.1814  -13.0465   20.9197 C   0  0  0  0  0  0
  -24.6425  -11.6941   20.8722 C   0  0  0  0  0  0
  -23.9096  -10.4313   21.0395 C   0  0  0  0  0  0
  -24.3650   -9.4223   21.9162 C   0  0  0  0  0  0
  -23.6336   -8.2253   22.0727 C   0  0  0  0  0  0
  -22.4313   -8.0289   21.3516 C   0  0  0  0  0  0
  -21.9948   -9.0269   20.4620 C   0  0  0  0  0  0
  -22.7269  -10.2156   20.3030 C   0  0  0  0  0  0
  -21.6870   -6.0757   22.5282 C   0  0  0  0  0  0
  -21.4015   -6.5645   23.8217 C   0  0  0  0  0  0
  -21.3657   -5.6788   24.9169 C   0  0  0  0  0  0
  -21.6055   -4.3050   24.7219 C   0  0  0  0  0  0
  -21.8815   -3.8153   23.4331 C   0  0  0  0  0  0
  -21.9197   -4.6977   22.3391 C   0  0  0  0  0  0
  -22.7825  -13.5219   21.1865 C   0  0  0  0  0  0
  -22.1658   -4.2152   21.0974 F   0  0  0  0  0  0
  -21.5633   -3.4526   25.7726 F   0  0  0  0  0  0
  -29.9971  -13.5310   20.4262 N   0  0  0  0  0  0
  -26.2962  -12.9472   20.3249 N   0  0  0  0  0  0
  -25.9370  -11.6600   20.5722 N   0  0  0  0  0  0
  -22.0462  -12.8213   22.0416 N   0  0  0  0  0  0
  -25.4203  -15.1977   20.4117 N   0  0  0  0  0  0
  -31.7863  -14.8554   20.0558 O   0  0  0  0  0  0
  -21.6650   -6.8906   21.4249 O   0  0  0  0  0  0
  -22.3492  -14.5497   20.6683 O   0  0  0  0  0  0
  -24.6360  -31.8513   23.1975 C   0  0  0  0  0  0
  -25.9164  -32.4741   23.8344 C   0  0  1  0  0  0
  -27.2215  -27.2250   20.1406 C   0  0  0  0  0  0
  -25.5920  -33.8541   24.2246 N   0  0  0  0  0  0
  -23.4365  -30.4748   21.5390 C   0  0  2  0  0  0
  -24.8862  -28.9193   20.1089 C   0  0  0  0  0  0
  -22.7544  -29.4580   22.4881 C   0  0  0  0  0  0
  -18.0305  -28.1377   22.8504 C   0  0  0  0  0  0
  -24.1477  -36.7295   23.2642 C   0  0  0  0  0  0
  -25.9866  -30.7519   21.3856 C   0  0  0  0  0  0
  -26.0587  -29.3723   20.7276 C   0  0  0  0  0  0
  -27.2284  -28.5379   20.7327 C   0  0  0  0  0  0
  -26.0290  -26.8614   19.4739 C   0  0  0  0  0  0
  -24.8796  -27.6737   19.4684 C   0  0  0  0  0  0
  -23.6607  -29.8117   20.1546 C   0  0  0  0  0  0
  -25.4094  -36.3064   24.0332 C   0  0  1  0  0  0
  -20.5917  -28.3702   23.1263 C   0  0  2  0  0  0
  -20.6768  -26.9407   22.5422 C   0  0  0  0  0  0
  -19.5738  -26.6374   21.5231 C   0  0  0  0  0  0
  -18.1924  -26.7921   22.1647 C   0  0  0  0  0  0
  -19.1559  -28.8853   23.2878 C   0  0  0  0  0  0
  -18.9476  -30.1447   23.8898 C   0  0  0  0  0  0
  -17.6469  -30.6584   24.0561 C   0  0  0  0  0  0
  -25.9047  -34.9435   23.5093 C   0  0  0  0  0  0
  -16.5364  -29.9082   23.6319 C   0  0  0  0  0  0
  -16.7284  -28.6493   23.0363 C   0  0  0  0  0  0
  -26.4487  -31.6587   25.0765 C   0  0  0  0  0  0
  -25.3673  -31.3795   26.1474 C   0  0  0  0  0  0
  -27.0352  -30.2985   24.6318 C   0  0  0  0  0  0
  -27.6035  -32.4325   25.7541 C   0  0  0  0  0  0
  -27.5572  -37.1798   24.8451 C   0  0  0  0  0  0
  -21.4235  -29.3055   22.3645 N   0  0  0  0  0  0
  -26.4277  -37.3759   23.9413 N   0  0  0  0  0  0
  -24.7052  -31.0455   22.0959 N   0  0  0  0  0  0
  -23.4221  -28.8102   23.2983 O   0  0  0  0  0  0
  -28.2920  -26.2849   20.2287 O   0  0  0  0  0  0
  -26.5653  -34.8917   22.4687 O   0  0  0  0  0  0
  -23.5495  -32.1355   23.7231 O   0  0  0  0  0  0
  -30.7362  -20.8267   21.0129 C   0  0  0  0  0  0
  -31.0912  -19.4242   20.9653 C   0  0  0  0  0  0
  -30.0288  -18.6990   20.4527 C   0  0  0  0  0  0
  -29.4854  -20.9529   20.4846 C   0  0  0  0  0  0
  -32.3793  -18.7869   21.3236 C   0  0  0  0  0  0
  -33.6251  -19.6586   21.2374 C   0  0  0  0  0  0
  -27.0818  -24.5516   21.5214 C   0  0  0  0  0  0
  -29.8843  -17.2160   19.8878 C   0  0  0  0  0  0
  -29.1543  -23.6268   20.3535 C   0  0  0  0  0  0
  -27.9980  -24.7872   20.3006 C   0  0  2  0  0  0
  -28.7060  -22.1657   20.2702 N   0  0  0  0  0  0
  -29.8674  -15.9059   20.6864 N   0  0  0  0  0  0
  -32.4795  -17.6015   21.6430 O   0  0  0  0  0  0
  -29.0309  -19.6612   20.1528 O   0  0  0  0  0  0
  -31.4740  -12.5709   19.1968 H   0  0  0  0  0  0
  -30.3640  -11.4827   19.9710 H   0  0  0  0  0  0
  -29.8086  -11.7473   17.5297 H   0  0  0  0  0  0
  -29.6609  -13.4755   17.7344 H   0  0  0  0  0  0
  -27.8796  -11.3035   18.8788 H   0  0  0  0  0  0
  -27.3998  -12.5753   17.7864 H   0  0  0  0  0  0
  -27.6404  -14.2697   19.4766 H   0  0  0  0  0  0
  -28.7162  -12.1918   21.4426 H   0  0  0  0  0  0
  -28.4225  -13.8768   21.7925 H   0  0  0  0  0  0
  -25.2803   -9.5717   22.4725 H   0  0  0  0  0  0
  -24.0049   -7.4653   22.7454 H   0  0  0  0  0  0
  -21.0859   -8.8803   19.8942 H   0  0  0  0  0  0
  -22.3726  -10.9700   19.6122 H   0  0  0  0  0  0
  -21.1995   -7.6151   23.9728 H   0  0  0  0  0  0
  -21.1481   -6.0503   25.9078 H   0  0  0  0  0  0
  -22.0599   -2.7617   23.2823 H   0  0  0  0  0  0
  -22.4112  -11.9928   22.4872 H   0  0  0  0  0  0
  -21.1053  -13.1214   22.2543 H   0  0  0  0  0  0
  -24.6523  -15.8523   20.5227 H   0  0  0  0  0  0
  -26.2729  -15.6399   20.0904 H   0  0  0  0  0  0
  -26.7239  -32.5349   23.1097 H   0  0  0  0  0  0
  -24.9974  -33.9632   25.0326 H   0  0  0  0  0  0
  -22.7349  -31.2978   21.3908 H   0  0  0  0  0  0
  -23.3731  -35.9641   23.3285 H   0  0  0  0  0  0
  -24.3562  -36.8934   22.2059 H   0  0  0  0  0  0
  -23.7240  -37.6492   23.6684 H   0  0  0  0  0  0
  -26.1333  -31.5060   20.6109 H   0  0  0  0  0  0
  -26.8607  -30.8006   22.0235 H   0  0  0  0  0  0
  -28.1189  -28.8733   21.2465 H   0  0  0  0  0  0
  -25.9390  -25.9123   18.9692 H   0  0  0  0  0  0
  -23.9883  -27.3205   18.9682 H   0  0  0  0  0  0
  -23.7955  -30.5887   19.4016 H   0  0  0  0  0  0
  -22.7768  -29.2534   19.8436 H   0  0  0  0  0  0
  -25.1275  -36.1910   25.0828 H   0  0  0  0  0  0
  -21.0026  -28.3282   24.1377 H   0  0  0  0  0  0
  -20.5662  -26.2308   23.3638 H   0  0  0  0  0  0
  -21.6626  -26.7404   22.1214 H   0  0  0  0  0  0
  -19.6879  -25.6287   21.1246 H   0  0  0  0  0  0
  -19.6654  -27.3189   20.6767 H   0  0  0  0  0  0
  -17.4193  -26.6706   21.4044 H   0  0  0  0  0  0
  -18.0299  -26.0059   22.9035 H   0  0  0  0  0  0
  -19.7939  -30.7271   24.2275 H   0  0  0  0  0  0
  -17.5013  -31.6263   24.5170 H   0  0  0  0  0  0
  -15.5354  -30.2989   23.7611 H   0  0  0  0  0  0
  -15.8693  -28.0797   22.7086 H   0  0  0  0  0  0
  -24.5810  -30.7193   25.7790 H   0  0  0  0  0  0
  -24.8912  -32.3005   26.4864 H   0  0  0  0  0  0
  -25.7939  -30.8966   27.0280 H   0  0  0  0  0  0
  -26.2998  -29.6729   24.1258 H   0  0  0  0  0  0
  -27.3901  -29.7253   25.4893 H   0  0  0  0  0  0
  -27.8915  -30.4224   23.9687 H   0  0  0  0  0  0
  -27.2643  -33.3607   26.2154 H   0  0  0  0  0  0
  -28.3849  -32.6919   25.0386 H   0  0  0  0  0  0
  -28.0734  -31.8438   26.5432 H   0  0  0  0  0  0
  -28.2574  -38.0107   24.7507 H   0  0  0  0  0  0
  -28.1080  -36.2639   24.6255 H   0  0  0  0  0  0
  -27.2306  -37.1430   25.8856 H   0  0  0  0  0  0
  -20.9416  -29.8819   21.6887 H   0  0  0  0  0  0
  -26.0150  -38.2833   24.1409 H   0  0  0  0  0  0
  -31.3579  -21.6416   21.3618 H   0  0  0  0  0  0
  -33.4549  -20.5167   20.5873 H   0  0  0  0  0  0
  -34.4509  -19.0816   20.8206 H   0  0  0  0  0  0
  -33.9171  -20.0130   22.2239 H   0  0  0  0  0  0
  -26.8052  -23.5012   21.6113 H   0  0  0  0  0  0
  -26.1453  -25.1027   21.4597 H   0  0  0  0  0  0
  -27.5742  -24.8390   22.4499 H   0  0  0  0  0  0
  -30.6553  -17.0987   19.1256 H   0  0  0  0  0  0
  -28.9555  -17.1830   19.3197 H   0  0  0  0  0  0
  -29.7486  -23.7622   21.2577 H   0  0  0  0  0  0
  -29.8480  -23.7993   19.5296 H   0  0  0  0  0  0
  -27.4404  -24.5401   19.3992 H   0  0  0  0  0  0
  -27.7466  -22.0393   19.9576 H   0  0  0  0  0  0
  -28.9821  -15.7204   21.1326 H   0  0  0  0  0  0
  1 25  1  0  0  0
  1 30  2  0  0  0
  1 82  1  0  0  0
  2  3  1  0  0  0
  2 25  1  0  0  0
  2 85  1  0  0  0
  2 86  1  0  0  0
  3  4  1  0  0  0
  3 87  1  0  0  0
  3 88  1  0  0  0
  4  5  1  0  0  0
  4 89  1  0  0  0
  4 90  1  0  0  0
  5  6  1  0  0  0
  5 26  1  0  0  0
  5 91  1  0  0  0
  6 25  1  0  0  0
  6 92  1  0  0  0
  6 93  1  0  0  0
  7  8  2  0  0  0
  7 26  1  0  0  0
  7 29  1  0  0  0
  8  9  1  0  0  0
  8 22  1  0  0  0
  9 10  1  0  0  0
  9 27  2  0  0  0
 10 11  2  0  0  0
 10 15  1  0  0  0
 11 12  1  0  0  0
 11 94  1  0  0  0
 12 13  2  0  0  0
 12 95  1  0  0  0
 13 14  1  0  0  0
 13 31  1  0  0  0
 14 15  2  0  0  0
 14 96  1  0  0  0
 15 97  1  0  0  0
 16 17  2  0  0  0
 16 21  1  0  0  0
 16 31  1  0  0  0
 17 18  1  0  0  0
 17 98  1  0  0  0
 18 19  2  0  0  0
 18 99  1  0  0  0
 19 20  1  0  0  0
 19 24  1  0  0  0
 20 21  2  0  0  0
 20100  1  0  0  0
 21 23  1  0  0  0
 22 28  1  0  0  0
 22 32  2  0  0  0
 26 27  1  0  0  0
 28101  1  0  0  0
 28102  1  0  0  0
 29103  1  0  0  0
 29104  1  0  0  0
 33 34  1  0  0  0
 33 66  1  0  0  0
 33 70  2  0  0  0
 34 36  1  0  0  0
 34 59  1  0  0  0
 34105  1  0  0  0
 35 44  2  0  0  0
 35 45  1  0  0  0
 35 68  1  0  0  0
 36 56  1  0  0  0
 36106  1  0  0  0
 37 39  1  0  0  0
 37 47  1  0  0  0
 37 66  1  0  0  0
 37107  1  0  0  0
 38 43  2  0  0  0
 38 46  1  0  0  0
 38 47  1  0  0  0
 39 64  1  0  0  0
 39 67  2  0  0  0
 40 52  1  0  0  0
 40 53  2  0  0  0
 40 58  1  0  0  0
 41108  1  0  0  0
 41109  1  0  0  0
 41110  1  0  0  0
 41 48  1  0  0  0
 42 43  1  0  0  0
 42 66  1  0  0  0
 42111  1  0  0  0
 42112  1  0  0  0
 43 44  1  0  0  0
 44113  1  0  0  0
 45 46  2  0  0  0
 45114  1  0  0  0
 46115  1  0  0  0
 47116  1  0  0  0
 47117  1  0  0  0
 48 56  1  0  0  0
 48 65  1  0  0  0
 48118  1  0  0  0
 49 50  1  0  0  0
 49 53  1  0  0  0
 49 64  1  0  0  0
 49119  1  0  0  0
 50 51  1  0  0  0
 50120  1  0  0  0
 50121  1  0  0  0
 51 52  1  0  0  0
 51122  1  0  0  0
 51123  1  0  0  0
 52124  1  0  0  0
 52125  1  0  0  0
 53 54  1  0  0  0
 54 55  2  0  0  0
 54126  1  0  0  0
 55 57  1  0  0  0
 55127  1  0  0  0
 56 69  2  0  0  0
 57 58  2  0  0  0
 57128  1  0  0  0
 58129  1  0  0  0
 59 60  1  0  0  0
 59 61  1  0  0  0
 59 62  1  0  0  0
 60130  1  0  0  0
 60131  1  0  0  0
 60132  1  0  0  0
 61133  1  0  0  0
 61134  1  0  0  0
 61135  1  0  0  0
 62136  1  0  0  0
 62137  1  0  0  0
 62138  1  0  0  0
 63 65  1  0  0  0
 63139  1  0  0  0
 63140  1  0  0  0
 63141  1  0  0  0
 64142  1  0  0  0
 65143  1  0  0  0
 68 80  1  0  0  0
 71 72  1  0  0  0
 71 74  2  0  0  0
 71144  1  0  0  0
 72 73  2  0  0  0
 72 75  1  0  0  0
 73 78  1  0  0  0
 73 84  1  0  0  0
 74 81  1  0  0  0
 74 84  1  0  0  0
 75 76  1  0  0  0
 75 83  2  0  0  0
 76145  1  0  0  0
 76146  1  0  0  0
 76147  1  0  0  0
 77148  1  0  0  0
 77149  1  0  0  0
 77150  1  0  0  0
 77 80  1  0  0  0
 78 82  1  0  0  0
 78151  1  0  0  0
 78152  1  0  0  0
 79 80  1  0  0  0
 79 81  1  0  0  0
 79153  1  0  0  0
 79154  1  0  0  0
 80155  1  0  0  0
 81156  1  0  0  0
 82157  1  0  0  0
M  ISO  4   1 100  68 101  80 101  82 100
M  END
> <chiral flag>
0

> <version>
0

> <s_m_source_file>
/data/baiqing/PycharmProjects/Reinvent-master-3.2/result/LINK_invent/BTK/process_docking_weight1_custom_product_contain_oxygen_bond_distance_aromatic_linkinvent_7_9_3/rearranged_h_0139.sdf

> <i_m_source_file_index>
89

> <r_mmod_Potential_Energy-OPLS-2005>
75.7511520385742

> <r_mmod_Stretch_Energy-OPLS-2005>
141.581436157227

> <r_mmod_Bend_Energy-OPLS-2005>
197.841690063477

> <r_mmod_Torsional_Energy-OPLS-2005>
258.226135253906

> <r_mmod_Improper_Torsional_Energy-OPLS-2005>
9.68265056610107

> <r_mmod_Van_der_Waal_Energy-OPLS-2005>
117.681022644043

> <r_mmod_Electrostatic_Energy-OPLS-2005>
-512.307739257812

> <r_mmod_Solvation_Energy-OPLS-2005>
-240.006744384766

> <b_mmod_Minimization_Converged-OPLS-2005>
0

> <r_mmod_RMS_Derivative-OPLS-2005>
3.35698699951172

$$$$
89
                    3D
 Structure written by MMmdl.
148156  0  0  1  0            999 V2000
  -30.5010  -15.0236   20.3858 C   0  0  0  0  0  0
  -30.4425  -12.6233   19.5238 C   0  0  0  0  0  0
  -29.5357  -12.5432   18.2717 C   0  0  0  0  0  0
  -28.0656  -12.3213   18.6763 C   0  0  0  0  0  0
  -27.6263  -13.2591   19.8299 C   0  0  2  0  0  0
  -28.6609  -13.3148   20.9701 C   0  0  0  0  0  0
  -25.2454  -13.8232   20.5705 C   0  0  0  0  0  0
  -24.1770  -13.0445   20.9193 C   0  0  0  0  0  0
  -24.6395  -11.6932   20.8710 C   0  0  0  0  0  0
  -23.9077  -10.4299   21.0381 C   0  0  0  0  0  0
  -24.3623   -9.4218   21.9166 C   0  0  0  0  0  0
  -23.6297   -8.2253   22.0749 C   0  0  0  0  0  0
  -22.4280   -8.0281   21.3542 C   0  0  0  0  0  0
  -21.9910   -9.0258   20.4649 C   0  0  0  0  0  0
  -22.7238  -10.2139   20.3047 C   0  0  0  0  0  0
  -21.6864   -6.0729   22.5275 C   0  0  0  0  0  0
  -21.4023   -6.5633   23.8207 C   0  0  0  0  0  0
  -21.3665   -5.6786   24.9169 C   0  0  0  0  0  0
  -21.6044   -4.3047   24.7224 C   0  0  0  0  0  0
  -21.8817   -3.8140   23.4345 C   0  0  0  0  0  0
  -21.9196   -4.6955   22.3401 C   0  0  0  0  0  0
  -22.7793  -13.5213   21.1864 C   0  0  0  0  0  0
  -22.1662   -4.2136   21.0980 F   0  0  0  0  0  0
  -21.5633   -3.4534   25.7741 F   0  0  0  0  0  0
  -29.9412  -13.7377   20.3870 N   0  0  0  0  0  0
  -26.2872  -12.9477   20.3188 N   0  0  0  0  0  0
  -25.9325  -11.6594   20.5670 N   0  0  0  0  0  0
  -22.0458  -12.8208   22.0436 N   0  0  0  0  0  0
  -25.4149  -15.1963   20.4212 N   0  0  0  0  0  0
  -31.7055  -15.0577   20.1173 O   0  0  0  0  0  0
  -21.6648   -6.8875   21.4237 O   0  0  0  0  0  0
  -22.3463  -14.5514   20.6713 O   0  0  0  0  0  0
  -24.6506  -31.8382   23.1815 C   0  0  0  0  0  0
  -25.9252  -32.4661   23.8233 C   0  0  1  0  0  0
  -27.2162  -27.0713   20.1581 C   0  0  0  0  0  0
  -25.5980  -33.8468   24.2153 N   0  0  0  0  0  0
  -23.4570  -30.4569   21.5282 C   0  0  2  0  0  0
  -24.9047  -28.8724   20.1116 C   0  0  0  0  0  0
  -22.7604  -29.4528   22.4821 C   0  0  0  0  0  0
  -18.0314  -28.1404   22.8464 C   0  0  0  0  0  0
  -24.1495  -36.7240   23.2643 C   0  0  0  0  0  0
  -26.0177  -30.6944   21.3868 C   0  0  0  0  0  0
  -26.0876  -29.2993   20.7280 C   0  0  0  0  0  0
  -27.2427  -28.4179   20.7270 C   0  0  0  0  0  0
  -25.9931  -26.7544   19.5247 C   0  0  0  0  0  0
  -24.8742  -27.6151   19.4937 C   0  0  0  0  0  0
  -23.6864  -29.7841   20.1495 C   0  0  0  0  0  0
  -25.4130  -36.3010   24.0308 C   0  0  1  0  0  0
  -20.5932  -28.3745   23.1209 C   0  0  2  0  0  0
  -20.6798  -26.9442   22.5396 C   0  0  0  0  0  0
  -19.5772  -26.6388   21.5205 C   0  0  0  0  0  0
  -18.1955  -26.7941   22.1617 C   0  0  0  0  0  0
  -19.1573  -28.8892   23.2831 C   0  0  0  0  0  0
  -18.9488  -30.1482   23.8864 C   0  0  0  0  0  0
  -17.6485  -30.6599   24.0559 C   0  0  0  0  0  0
  -25.9084  -34.9388   23.5042 C   0  0  0  0  0  0
  -16.5375  -29.9090   23.6337 C   0  0  0  0  0  0
  -16.7300  -28.6511   23.0352 C   0  0  0  0  0  0
  -26.4544  -31.6547   25.0698 C   0  0  0  0  0  0
  -25.3714  -31.3768   26.1388 C   0  0  0  0  0  0
  -27.0398  -30.2926   24.6317 C   0  0  0  0  0  0
  -27.6072  -32.4314   25.7491 C   0  0  0  0  0  0
  -27.5576  -37.1776   24.8466 C   0  0  0  0  0  0
  -21.4288  -29.3060   22.3571 N   0  0  0  0  0  0
  -26.4289  -37.3730   23.9406 N   0  0  0  0  0  0
  -24.7289  -31.0188   22.0874 N   0  0  0  0  0  0
  -23.4215  -28.8082   23.3001 O   0  0  0  0  0  0
  -28.2638  -26.0562   20.2345 O   0  0  0  0  0  0
  -26.5675  -34.8900   22.4621 O   0  0  0  0  0  0
  -23.5608  -32.1279   23.7006 O   0  0  0  0  0  0
  -29.7915  -20.3577   20.4105 C   0  0  0  0  0  0
  -27.5748  -20.9209   20.2810 C   0  0  0  0  0  0
  -28.8094  -21.5284   20.3756 C   0  0  0  0  0  0
  -29.3422  -18.9835   20.3773 C   0  0  0  0  0  0
  -30.0527  -17.5361   20.3765 C   0  0  0  0  0  0
  -28.1056  -24.3645   18.4171 C   0  0  0  0  0  0
  -29.0216  -23.1902   20.5346 C   0  0  0  0  0  0
  -28.0761  -24.5022   19.9495 C   0  0  1  0  0  0
  -29.6424  -16.2416   20.5326 N   0  0  0  0  0  0
  -27.5993  -19.1306   20.2719 S   0  0  0  0  0  0
  -31.4802  -12.7697   19.2210 H   0  0  0  0  0  0
  -30.4279  -11.6782   20.0699 H   0  0  0  0  0  0
  -29.8709  -11.7423   17.6113 H   0  0  0  0  0  0
  -29.6208  -13.4678   17.6988 H   0  0  0  0  0  0
  -27.9649  -11.2821   18.9905 H   0  0  0  0  0  0
  -27.4102  -12.4443   17.8135 H   0  0  0  0  0  0
  -27.5829  -14.2577   19.3941 H   0  0  0  0  0  0
  -28.7513  -12.3472   21.4671 H   0  0  0  0  0  0
  -28.3451  -14.0264   21.7345 H   0  0  0  0  0  0
  -25.2772   -9.5705   22.4729 H   0  0  0  0  0  0
  -24.0013   -7.4652   22.7472 H   0  0  0  0  0  0
  -21.0835   -8.8775   19.8967 H   0  0  0  0  0  0
  -22.3680  -10.9672   19.6158 H   0  0  0  0  0  0
  -21.2018   -7.6143   23.9707 H   0  0  0  0  0  0
  -21.1490   -6.0517   25.9071 H   0  0  0  0  0  0
  -22.0592   -2.7599   23.2849 H   0  0  0  0  0  0
  -22.4099  -11.9895   22.4853 H   0  0  0  0  0  0
  -21.1074  -13.1226   22.2640 H   0  0  0  0  0  0
  -24.6605  -15.8595   20.5591 H   0  0  0  0  0  0
  -26.2907  -15.6352   20.1620 H   0  0  0  0  0  0
  -26.7320  -32.5241   23.0958 H   0  0  0  0  0  0
  -25.0114  -33.9564   25.0297 H   0  0  0  0  0  0
  -22.7640  -31.2855   21.3697 H   0  0  0  0  0  0
  -23.3761  -35.9568   23.3288 H   0  0  0  0  0  0
  -24.3581  -36.8891   22.2062 H   0  0  0  0  0  0
  -23.7250  -37.6430   23.6693 H   0  0  0  0  0  0
  -26.1782  -31.4465   20.6130 H   0  0  0  0  0  0
  -26.8861  -30.7469   22.0318 H   0  0  0  0  0  0
  -28.1433  -28.7433   21.2283 H   0  0  0  0  0  0
  -25.8467  -25.7836   19.0802 H   0  0  0  0  0  0
  -23.9667  -27.2758   19.0134 H   0  0  0  0  0  0
  -23.8325  -30.5564   19.3933 H   0  0  0  0  0  0
  -22.7987  -29.2322   19.8349 H   0  0  0  0  0  0
  -25.1320  -36.1827   25.0800 H   0  0  0  0  0  0
  -21.0021  -28.3346   24.1332 H   0  0  0  0  0  0
  -20.5683  -26.2366   23.3625 H   0  0  0  0  0  0
  -21.6667  -26.7437   22.1203 H   0  0  0  0  0  0
  -19.6939  -25.6290   21.1257 H   0  0  0  0  0  0
  -19.6706  -27.3177   20.6715 H   0  0  0  0  0  0
  -17.4221  -26.6672   21.4027 H   0  0  0  0  0  0
  -18.0368  -26.0095   22.9027 H   0  0  0  0  0  0
  -19.7967  -30.7304   24.2220 H   0  0  0  0  0  0
  -17.5041  -31.6271   24.5177 H   0  0  0  0  0  0
  -15.5375  -30.2985   23.7677 H   0  0  0  0  0  0
  -15.8700  -28.0821   22.7080 H   0  0  0  0  0  0
  -24.5916  -30.7081   25.7724 H   0  0  0  0  0  0
  -24.8877  -32.2956   26.4711 H   0  0  0  0  0  0
  -25.7993  -30.9028   27.0230 H   0  0  0  0  0  0
  -26.3016  -29.6651   24.1308 H   0  0  0  0  0  0
  -27.3963  -29.7233   25.4911 H   0  0  0  0  0  0
  -27.8950  -30.4133   23.9665 H   0  0  0  0  0  0
  -27.2668  -33.3645   26.1995 H   0  0  0  0  0  0
  -28.3929  -32.6821   25.0351 H   0  0  0  0  0  0
  -28.0684  -31.8482   26.5472 H   0  0  0  0  0  0
  -28.2588  -38.0076   24.7505 H   0  0  0  0  0  0
  -28.1078  -36.2607   24.6301 H   0  0  0  0  0  0
  -27.2296  -37.1436   25.8870 H   0  0  0  0  0  0
  -20.9513  -29.8768   21.6735 H   0  0  0  0  0  0
  -26.0147  -38.2795   24.1410 H   0  0  0  0  0  0
  -30.8470  -20.5809   20.4833 H   0  0  0  0  0  0
  -26.6123  -21.4191   20.2479 H   0  0  0  0  0  0
  -31.1242  -17.6602   20.1944 H   0  0  0  0  0  0
  -27.7767  -23.3711   18.1110 H   0  0  0  0  0  0
  -29.1199  -24.5032   18.0421 H   0  0  0  0  0  0
  -27.4770  -25.0870   17.9021 H   0  0  0  0  0  0
  -30.0349  -23.4011   20.1915 H   0  0  0  0  0  0
  -29.0866  -23.3718   21.6077 H   0  0  0  0  0  0
  -27.0658  -24.2815   20.2954 H   0  0  0  0  0  0
  1 25  1  0  0  0
  1 30  2  0  0  0
  1 79  1  0  0  0
  2  3  1  0  0  0
  2 25  1  0  0  0
  2 81  1  0  0  0
  2 82  1  0  0  0
  3  4  1  0  0  0
  3 83  1  0  0  0
  3 84  1  0  0  0
  4  5  1  0  0  0
  4 85  1  0  0  0
  4 86  1  0  0  0
  5  6  1  0  0  0
  5 26  1  0  0  0
  5 87  1  0  0  0
  6 25  1  0  0  0
  6 88  1  0  0  0
  6 89  1  0  0  0
  7  8  2  0  0  0
  7 26  1  0  0  0
  7 29  1  0  0  0
  8  9  1  0  0  0
  8 22  1  0  0  0
  9 10  1  0  0  0
  9 27  2  0  0  0
 10 11  2  0  0  0
 10 15  1  0  0  0
 11 12  1  0  0  0
 11 90  1  0  0  0
 12 13  2  0  0  0
 12 91  1  0  0  0
 13 14  1  0  0  0
 13 31  1  0  0  0
 14 15  2  0  0  0
 14 92  1  0  0  0
 15 93  1  0  0  0
 16 17  2  0  0  0
 16 21  1  0  0  0
 16 31  1  0  0  0
 17 18  1  0  0  0
 17 94  1  0  0  0
 18 19  2  0  0  0
 18 95  1  0  0  0
 19 20  1  0  0  0
 19 24  1  0  0  0
 20 21  2  0  0  0
 20 96  1  0  0  0
 21 23  1  0  0  0
 22 28  1  0  0  0
 22 32  2  0  0  0
 26 27  1  0  0  0
 28 97  1  0  0  0
 28 98  1  0  0  0
 29 99  1  0  0  0
 29100  1  0  0  0
 33 34  1  0  0  0
 33 66  1  0  0  0
 33 70  2  0  0  0
 34 36  1  0  0  0
 34 59  1  0  0  0
 34101  1  0  0  0
 35 44  2  0  0  0
 35 45  1  0  0  0
 35 68  1  0  0  0
 36 56  1  0  0  0
 36102  1  0  0  0
 37 39  1  0  0  0
 37 47  1  0  0  0
 37 66  1  0  0  0
 37103  1  0  0  0
 38 43  2  0  0  0
 38 46  1  0  0  0
 38 47  1  0  0  0
 39 64  1  0  0  0
 39 67  2  0  0  0
 40 52  1  0  0  0
 40 53  2  0  0  0
 40 58  1  0  0  0
 41104  1  0  0  0
 41105  1  0  0  0
 41106  1  0  0  0
 41 48  1  0  0  0
 42 43  1  0  0  0
 42 66  1  0  0  0
 42107  1  0  0  0
 42108  1  0  0  0
 43 44  1  0  0  0
 44109  1  0  0  0
 45 46  2  0  0  0
 45110  1  0  0  0
 46111  1  0  0  0
 47112  1  0  0  0
 47113  1  0  0  0
 48 56  1  0  0  0
 48 65  1  0  0  0
 48114  1  0  0  0
 49 50  1  0  0  0
 49 53  1  0  0  0
 49 64  1  0  0  0
 49115  1  0  0  0
 50 51  1  0  0  0
 50116  1  0  0  0
 50117  1  0  0  0
 51 52  1  0  0  0
 51118  1  0  0  0
 51119  1  0  0  0
 52120  1  0  0  0
 52121  1  0  0  0
 53 54  1  0  0  0
 54 55  2  0  0  0
 54122  1  0  0  0
 55 57  1  0  0  0
 55123  1  0  0  0
 56 69  2  0  0  0
 57 58  2  0  0  0
 57124  1  0  0  0
 58125  1  0  0  0
 59 60  1  0  0  0
 59 61  1  0  0  0
 59 62  1  0  0  0
 60126  1  0  0  0
 60127  1  0  0  0
 60128  1  0  0  0
 61129  1  0  0  0
 61130  1  0  0  0
 61131  1  0  0  0
 62132  1  0  0  0
 62133  1  0  0  0
 62134  1  0  0  0
 63 65  1  0  0  0
 63135  1  0  0  0
 63136  1  0  0  0
 63137  1  0  0  0
 64138  1  0  0  0
 65139  1  0  0  0
 68 78  1  0  0  0
 71 73  1  0  0  0
 71 74  2  0  0  0
 71140  1  0  0  0
 72 73  2  0  0  0
 72 80  1  0  0  0
 72141  1  0  0  0
 73 77  1  0  0  0
 74 75  1  0  0  0
 74 80  1  0  0  0
 75 79  2  0  0  0
 75142  1  0  0  0
 76143  1  0  0  0
 76144  1  0  0  0
 76145  1  0  0  0
 76 78  1  0  0  0
 77 78  1  0  0  0
 77146  1  0  0  0
 77147  1  0  0  0
 78148  1  0  0  0
M  ISO  4   1 100  68 101  78 101  79 100
M  END
> <chiral flag>
0

> <version>
0

> <s_m_source_file>
/data/baiqing/PycharmProjects/Reinvent-master-3.2/result/LINK_invent/BTK/process_docking_weight1_custom_product_contain_oxygen_bond_distance_aromatic_linkinvent_7_9_3/rearranged_h_0139.sdf

> <i_m_source_file_index>
90

> <r_mmod_Potential_Energy-OPLS-2005>
641.752319335938

> <r_mmod_Stretch_Energy-OPLS-2005>
328.974578857422

> <r_mmod_Bend_Energy-OPLS-2005>
279.025115966797

> <r_mmod_Torsional_Energy-OPLS-2005>
166.970031738281

> <r_mmod_Improper_Torsional_Energy-OPLS-2005>
3.75591015815735

> <r_mmod_Van_der_Waal_Energy-OPLS-2005>
111.394538879395

> <r_mmod_Electrostatic_Energy-OPLS-2005>
-311.341857910156

> <r_mmod_Solvation_Energy-OPLS-2005>
-185.613128662109

> <b_mmod_Minimization_Converged-OPLS-2005>
0

> <r_mmod_RMS_Derivative-OPLS-2005>
1.08533024787903

$$$$
90
                    3D
 Structure written by MMmdl.
160168  0  0  1  0            999 V2000
  -30.6024  -14.7387   20.4627 C   0  0  0  0  0  0
  -30.4337  -12.4502   19.4637 C   0  0  0  0  0  0
  -29.5071  -12.4977   18.2298 C   0  0  0  0  0  0
  -28.0344  -12.3202   18.6483 C   0  0  0  0  0  0
  -27.6394  -13.2246   19.8459 C   0  0  2  0  0  0
  -28.6858  -13.1581   20.9789 C   0  0  0  0  0  0
  -25.2510  -13.8176   20.5682 C   0  0  0  0  0  0
  -24.1800  -13.0433   20.9219 C   0  0  0  0  0  0
  -24.6382  -11.6908   20.8754 C   0  0  0  0  0  0
  -23.9060  -10.4290   21.0411 C   0  0  0  0  0  0
  -24.3614   -9.4206   21.9189 C   0  0  0  0  0  0
  -23.6295   -8.2237   22.0757 C   0  0  0  0  0  0
  -22.4278   -8.0275   21.3549 C   0  0  0  0  0  0
  -21.9911   -9.0243   20.4645 C   0  0  0  0  0  0
  -22.7235  -10.2127   20.3056 C   0  0  0  0  0  0
  -21.6848   -6.0734   22.5283 C   0  0  0  0  0  0
  -21.4012   -6.5642   23.8214 C   0  0  0  0  0  0
  -21.3661   -5.6796   24.9178 C   0  0  0  0  0  0
  -21.6046   -4.3056   24.7227 C   0  0  0  0  0  0
  -21.8818   -3.8150   23.4347 C   0  0  0  0  0  0
  -21.9190   -4.6965   22.3405 C   0  0  0  0  0  0
  -22.7822  -13.5223   21.1880 C   0  0  0  0  0  0
  -22.1661   -4.2153   21.0980 F   0  0  0  0  0  0
  -21.5628   -3.4539   25.7737 F   0  0  0  0  0  0
  -29.9828  -13.5122   20.3897 N   0  0  0  0  0  0
  -26.2923  -12.9369   20.3265 N   0  0  0  0  0  0
  -25.9305  -11.6523   20.5753 N   0  0  0  0  0  0
  -22.0463  -12.8208   22.0427 N   0  0  0  0  0  0
  -25.4188  -15.1898   20.4069 N   0  0  0  0  0  0
  -31.8032  -14.8352   20.1914 O   0  0  0  0  0  0
  -21.6641   -6.8875   21.4245 O   0  0  0  0  0  0
  -22.3511  -14.5530   20.6722 O   0  0  0  0  0  0
  -24.6317  -31.8535   23.1972 C   0  0  0  0  0  0
  -25.9144  -32.4740   23.8317 C   0  0  1  0  0  0
  -27.2196  -27.2641   20.1380 C   0  0  0  0  0  0
  -25.5944  -33.8547   24.2245 N   0  0  0  0  0  0
  -23.4285  -30.4762   21.5393 C   0  0  2  0  0  0
  -24.8753  -28.9189   20.1128 C   0  0  0  0  0  0
  -22.7499  -29.4603   22.4896 C   0  0  0  0  0  0
  -18.0292  -28.1394   22.8486 C   0  0  0  0  0  0
  -24.1484  -36.7270   23.2643 C   0  0  0  0  0  0
  -25.9730  -30.7708   21.3743 C   0  0  0  0  0  0
  -26.0470  -29.3920   20.7184 C   0  0  0  0  0  0
  -27.2250  -28.5788   20.7131 C   0  0  0  0  0  0
  -26.0254  -26.8507   19.5131 C   0  0  0  0  0  0
  -24.8693  -27.6566   19.4982 C   0  0  0  0  0  0
  -23.6467  -29.8072   20.1565 C   0  0  0  0  0  0
  -25.4111  -36.3063   24.0330 C   0  0  1  0  0  0
  -20.5893  -28.3703   23.1263 C   0  0  2  0  0  0
  -20.6772  -26.9416   22.5407 C   0  0  0  0  0  0
  -19.5747  -26.6389   21.5213 C   0  0  0  0  0  0
  -18.1931  -26.7937   22.1628 C   0  0  0  0  0  0
  -19.1543  -28.8866   23.2873 C   0  0  0  0  0  0
  -18.9474  -30.1469   23.8888 C   0  0  0  0  0  0
  -17.6472  -30.6592   24.0570 C   0  0  0  0  0  0
  -25.9058  -34.9435   23.5089 C   0  0  0  0  0  0
  -16.5360  -29.9094   23.6339 C   0  0  0  0  0  0
  -16.7280  -28.6516   23.0351 C   0  0  0  0  0  0
  -26.4511  -31.6571   25.0711 C   0  0  0  0  0  0
  -25.3741  -31.3716   26.1437 C   0  0  0  0  0  0
  -27.0367  -30.2990   24.6204 C   0  0  0  0  0  0
  -27.6058  -32.4318   25.7491 C   0  0  0  0  0  0
  -27.5573  -37.1790   24.8472 C   0  0  0  0  0  0
  -21.4208  -29.3046   22.3647 N   0  0  0  0  0  0
  -26.4282  -37.3767   23.9417 N   0  0  0  0  0  0
  -24.6966  -31.0516   22.0936 N   0  0  0  0  0  0
  -23.4194  -28.8138   23.2991 O   0  0  0  0  0  0
  -28.3215  -26.3835   20.1408 O   0  0  0  0  0  0
  -26.5629  -34.8922   22.4658 O   0  0  0  0  0  0
  -23.5466  -32.1344   23.7281 O   0  0  0  0  0  0
  -31.5527  -18.9931   21.8370 C   0  0  0  0  0  0
  -31.2480  -17.6467   21.5427 C   0  0  0  0  0  0
  -30.7516  -20.0594   21.3736 C   0  0  0  0  0  0
  -29.3111  -18.4245   20.3014 C   0  0  0  0  0  0
  -30.1175  -17.3025   20.7686 C   0  0  0  0  0  0
  -29.6017  -19.8256   20.5875 C   0  0  0  0  0  0
  -28.0691  -22.5402   17.5160 C   0  0  0  0  0  0
  -30.0930  -23.9336   19.3697 C   0  0  0  0  0  0
  -27.6913  -23.5293   18.6336 C   0  0  0  0  0  0
  -28.1569  -24.9787   20.6577 C   0  0  0  0  0  0
  -28.6873  -22.2628   20.7035 C   0  0  0  0  0  0
  -28.6551  -23.6549   19.8444 C   0  0  2  0  0  0
  -29.7943  -15.8657   20.5644 N   0  0  0  0  0  0
  -28.8453  -20.9156   20.0586 O   0  0  0  0  0  0
  -31.4734  -12.5822   19.1597 H   0  0  0  0  0  0
  -30.3846  -11.4739   19.9480 H   0  0  0  0  0  0
  -29.7875  -11.7223   17.5153 H   0  0  0  0  0  0
  -29.6313  -13.4506   17.7134 H   0  0  0  0  0  0
  -27.8972  -11.2723   18.9194 H   0  0  0  0  0  0
  -27.3733  -12.5025   17.8009 H   0  0  0  0  0  0
  -27.6317  -14.2444   19.4613 H   0  0  0  0  0  0
  -28.7214  -12.1598   21.4168 H   0  0  0  0  0  0
  -28.4239  -13.8393   21.7906 H   0  0  0  0  0  0
  -25.2748   -9.5688   22.4774 H   0  0  0  0  0  0
  -24.0003   -7.4627   22.7469 H   0  0  0  0  0  0
  -21.0847   -8.8759   19.8939 H   0  0  0  0  0  0
  -22.3691  -10.9669   19.6167 H   0  0  0  0  0  0
  -21.2005   -7.6149   23.9722 H   0  0  0  0  0  0
  -21.1486   -6.0524   25.9083 H   0  0  0  0  0  0
  -22.0595   -2.7614   23.2845 H   0  0  0  0  0  0
  -22.4078  -11.9871   22.4813 H   0  0  0  0  0  0
  -21.1075  -13.1227   22.2617 H   0  0  0  0  0  0
  -24.6465  -15.8386   20.5129 H   0  0  0  0  0  0
  -26.2547  -15.6306   20.0467 H   0  0  0  0  0  0
  -26.7216  -32.5395   23.1062 H   0  0  0  0  0  0
  -25.0102  -33.9675   25.0401 H   0  0  0  0  0  0
  -22.7264  -31.2988   21.3910 H   0  0  0  0  0  0
  -23.3750  -35.9599   23.3304 H   0  0  0  0  0  0
  -24.3566  -36.8894   22.2056 H   0  0  0  0  0  0
  -23.7237  -37.6472   23.6664 H   0  0  0  0  0  0
  -26.1121  -31.5332   20.6065 H   0  0  0  0  0  0
  -26.8496  -30.8174   22.0090 H   0  0  0  0  0  0
  -28.1267  -28.9385   21.1885 H   0  0  0  0  0  0
  -25.9752  -25.8816   19.0401 H   0  0  0  0  0  0
  -23.9723  -27.2900   19.0179 H   0  0  0  0  0  0
  -23.7729  -30.5810   19.3991 H   0  0  0  0  0  0
  -22.7658  -29.2410   19.8491 H   0  0  0  0  0  0
  -25.1292  -36.1897   25.0820 H   0  0  0  0  0  0
  -20.9999  -28.3285   24.1377 H   0  0  0  0  0  0
  -20.5665  -26.2313   23.3615 H   0  0  0  0  0  0
  -21.6640  -26.7431   22.1208 H   0  0  0  0  0  0
  -19.6912  -25.6303   21.1242 H   0  0  0  0  0  0
  -19.6689  -27.3199   20.6742 H   0  0  0  0  0  0
  -17.4198  -26.6689   21.4032 H   0  0  0  0  0  0
  -18.0335  -26.0081   22.9022 H   0  0  0  0  0  0
  -19.7951  -30.7291   24.2243 H   0  0  0  0  0  0
  -17.5029  -31.6269   24.5176 H   0  0  0  0  0  0
  -15.5363  -30.2992   23.7674 H   0  0  0  0  0  0
  -15.8679  -28.0841   22.7055 H   0  0  0  0  0  0
  -24.5931  -30.7048   25.7769 H   0  0  0  0  0  0
  -24.8926  -32.2885   26.4847 H   0  0  0  0  0  0
  -25.8074  -30.8914   27.0222 H   0  0  0  0  0  0
  -26.2955  -29.6722   24.1233 H   0  0  0  0  0  0
  -27.4056  -29.7262   25.4724 H   0  0  0  0  0  0
  -27.8824  -30.4251   23.9439 H   0  0  0  0  0  0
  -27.2654  -33.3623   26.2038 H   0  0  0  0  0  0
  -28.3882  -32.6865   25.0332 H   0  0  0  0  0  0
  -28.0707  -31.8469   26.5438 H   0  0  0  0  0  0
  -28.2592  -38.0084   24.7510 H   0  0  0  0  0  0
  -28.1063  -36.2616   24.6296 H   0  0  0  0  0  0
  -27.2294  -37.1436   25.8878 H   0  0  0  0  0  0
  -20.9397  -29.8762   21.6850 H   0  0  0  0  0  0
  -26.0156  -38.2840   24.1421 H   0  0  0  0  0  0
  -32.4269  -19.2140   22.4325 H   0  0  0  0  0  0
  -31.8920  -16.8750   21.9410 H   0  0  0  0  0  0
  -31.0675  -21.0639   21.6121 H   0  0  0  0  0  0
  -28.4397  -18.2089   19.6998 H   0  0  0  0  0  0
  -28.0984  -21.5084   17.8593 H   0  0  0  0  0  0
  -29.0334  -22.7784   17.0681 H   0  0  0  0  0  0
  -27.3280  -22.5791   16.7171 H   0  0  0  0  0  0
  -30.1304  -24.7776   18.6811 H   0  0  0  0  0  0
  -30.5247  -23.0692   18.8653 H   0  0  0  0  0  0
  -30.7415  -24.1697   20.2144 H   0  0  0  0  0  0
  -26.6936  -23.2823   19.0000 H   0  0  0  0  0  0
  -27.5980  -24.5096   18.1641 H   0  0  0  0  0  0
  -27.1172  -24.8234   20.9480 H   0  0  0  0  0  0
  -28.6904  -24.9741   21.6083 H   0  0  0  0  0  0
  -29.4021  -22.3865   21.5147 H   0  0  0  0  0  0
  -27.7265  -22.1990   21.2146 H   0  0  0  0  0  0
  -28.8098  -15.6535   20.5239 H   0  0  0  0  0  0
  1 25  1  0  0  0
  1 30  2  0  0  0
  1 83  1  0  0  0
  2  3  1  0  0  0
  2 25  1  0  0  0
  2 85  1  0  0  0
  2 86  1  0  0  0
  3  4  1  0  0  0
  3 87  1  0  0  0
  3 88  1  0  0  0
  4  5  1  0  0  0
  4 89  1  0  0  0
  4 90  1  0  0  0
  5  6  1  0  0  0
  5 26  1  0  0  0
  5 91  1  0  0  0
  6 25  1  0  0  0
  6 92  1  0  0  0
  6 93  1  0  0  0
  7  8  2  0  0  0
  7 26  1  0  0  0
  7 29  1  0  0  0
  8  9  1  0  0  0
  8 22  1  0  0  0
  9 10  1  0  0  0
  9 27  2  0  0  0
 10 11  2  0  0  0
 10 15  1  0  0  0
 11 12  1  0  0  0
 11 94  1  0  0  0
 12 13  2  0  0  0
 12 95  1  0  0  0
 13 14  1  0  0  0
 13 31  1  0  0  0
 14 15  2  0  0  0
 14 96  1  0  0  0
 15 97  1  0  0  0
 16 17  2  0  0  0
 16 21  1  0  0  0
 16 31  1  0  0  0
 17 18  1  0  0  0
 17 98  1  0  0  0
 18 19  2  0  0  0
 18 99  1  0  0  0
 19 20  1  0  0  0
 19 24  1  0  0  0
 20 21  2  0  0  0
 20100  1  0  0  0
 21 23  1  0  0  0
 22 28  1  0  0  0
 22 32  2  0  0  0
 26 27  1  0  0  0
 28101  1  0  0  0
 28102  1  0  0  0
 29103  1  0  0  0
 29104  1  0  0  0
 33 34  1  0  0  0
 33 66  1  0  0  0
 33 70  2  0  0  0
 34 36  1  0  0  0
 34 59  1  0  0  0
 34105  1  0  0  0
 35 44  2  0  0  0
 35 45  1  0  0  0
 35 68  1  0  0  0
 36 56  1  0  0  0
 36106  1  0  0  0
 37 39  1  0  0  0
 37 47  1  0  0  0
 37 66  1  0  0  0
 37107  1  0  0  0
 38 43  2  0  0  0
 38 46  1  0  0  0
 38 47  1  0  0  0
 39 64  1  0  0  0
 39 67  2  0  0  0
 40 52  1  0  0  0
 40 53  2  0  0  0
 40 58  1  0  0  0
 41108  1  0  0  0
 41109  1  0  0  0
 41110  1  0  0  0
 41 48  1  0  0  0
 42 43  1  0  0  0
 42 66  1  0  0  0
 42111  1  0  0  0
 42112  1  0  0  0
 43 44  1  0  0  0
 44113  1  0  0  0
 45 46  2  0  0  0
 45114  1  0  0  0
 46115  1  0  0  0
 47116  1  0  0  0
 47117  1  0  0  0
 48 56  1  0  0  0
 48 65  1  0  0  0
 48118  1  0  0  0
 49 50  1  0  0  0
 49 53  1  0  0  0
 49 64  1  0  0  0
 49119  1  0  0  0
 50 51  1  0  0  0
 50120  1  0  0  0
 50121  1  0  0  0
 51 52  1  0  0  0
 51122  1  0  0  0
 51123  1  0  0  0
 52124  1  0  0  0
 52125  1  0  0  0
 53 54  1  0  0  0
 54 55  2  0  0  0
 54126  1  0  0  0
 55 57  1  0  0  0
 55127  1  0  0  0
 56 69  2  0  0  0
 57 58  2  0  0  0
 57128  1  0  0  0
 58129  1  0  0  0
 59 60  1  0  0  0
 59 61  1  0  0  0
 59 62  1  0  0  0
 60130  1  0  0  0
 60131  1  0  0  0
 60132  1  0  0  0
 61133  1  0  0  0
 61134  1  0  0  0
 61135  1  0  0  0
 62136  1  0  0  0
 62137  1  0  0  0
 62138  1  0  0  0
 63 65  1  0  0  0
 63139  1  0  0  0
 63140  1  0  0  0
 63141  1  0  0  0
 64142  1  0  0  0
 65143  1  0  0  0
 68 80  1  0  0  0
 71 72  2  0  0  0
 71 73  1  0  0  0
 71144  1  0  0  0
 72 75  1  0  0  0
 72145  1  0  0  0
 73 76  2  0  0  0
 73146  1  0  0  0
 74 75  2  0  0  0
 74 76  1  0  0  0
 74147  1  0  0  0
 75 83  1  0  0  0
 76 84  1  0  0  0
 77 79  1  0  0  0
 77148  1  0  0  0
 77149  1  0  0  0
 77150  1  0  0  0
 78151  1  0  0  0
 78152  1  0  0  0
 78153  1  0  0  0
 78 82  1  0  0  0
 79 82  1  0  0  0
 79154  1  0  0  0
 79155  1  0  0  0
 80 82  1  0  0  0
 80156  1  0  0  0
 80157  1  0  0  0
 81 82  1  0  0  0
 81 84  1  0  0  0
 81158  1  0  0  0
 81159  1  0  0  0
 83160  1  0  0  0
M  ISO  4   1 100  68 101  80 101  83 100
M  END
> <chiral flag>
0

> <version>
0

> <s_m_source_file>
/data/baiqing/PycharmProjects/Reinvent-master-3.2/result/LINK_invent/BTK/process_docking_weight1_custom_product_contain_oxygen_bond_distance_aromatic_linkinvent_7_9_3/rearranged_h_0139.sdf

> <i_m_source_file_index>
91

> <r_mmod_Potential_Energy-OPLS-2005>
242.349365234375

> <r_mmod_Stretch_Energy-OPLS-2005>
129.418182373047

> <r_mmod_Bend_Energy-OPLS-2005>
178.748611450195

> <r_mmod_Torsional_Energy-OPLS-2005>
261.273773193359

> <r_mmod_Improper_Torsional_Energy-OPLS-2005>
6.93518686294556

> <r_mmod_Van_der_Waal_Energy-OPLS-2005>
134.900360107422

> <r_mmod_Electrostatic_Energy-OPLS-2005>
-347.595062255859

> <r_mmod_Solvation_Energy-OPLS-2005>
-203.896240234375

> <b_mmod_Minimization_Converged-OPLS-2005>
0

> <r_mmod_RMS_Derivative-OPLS-2005>
1.26099383831024

$$$$
91
                    3D
 Structure written by MMmdl.
168177  0  0  1  0            999 V2000
  -30.6715  -14.6144   20.5151 C   0  0  0  0  0  0
  -30.4178  -12.3807   19.4554 C   0  0  0  0  0  0
  -29.4977  -12.4991   18.2228 C   0  0  0  0  0  0
  -28.0207  -12.3473   18.6342 C   0  0  0  0  0  0
  -27.6475  -13.2229   19.8614 C   0  0  2  0  0  0
  -28.6916  -13.1021   20.9948 C   0  0  0  0  0  0
  -25.2532  -13.8186   20.5675 C   0  0  0  0  0  0
  -24.1816  -13.0450   20.9200 C   0  0  0  0  0  0
  -24.6387  -11.6914   20.8754 C   0  0  0  0  0  0
  -23.9069  -10.4300   21.0406 C   0  0  0  0  0  0
  -24.3617   -9.4211   21.9185 C   0  0  0  0  0  0
  -23.6296   -8.2248   22.0757 C   0  0  0  0  0  0
  -22.4284   -8.0284   21.3539 C   0  0  0  0  0  0
  -21.9913   -9.0255   20.4643 C   0  0  0  0  0  0
  -22.7238  -10.2143   20.3053 C   0  0  0  0  0  0
  -21.6858   -6.0739   22.5279 C   0  0  0  0  0  0
  -21.4019   -6.5636   23.8210 C   0  0  0  0  0  0
  -21.3658   -5.6795   24.9169 C   0  0  0  0  0  0
  -21.6045   -4.3056   24.7226 C   0  0  0  0  0  0
  -21.8821   -3.8146   23.4346 C   0  0  0  0  0  0
  -21.9192   -4.6966   22.3399 C   0  0  0  0  0  0
  -22.7838  -13.5233   21.1855 C   0  0  0  0  0  0
  -22.1664   -4.2146   21.0977 F   0  0  0  0  0  0
  -21.5625   -3.4540   25.7737 F   0  0  0  0  0  0
  -30.0048  -13.4214   20.4213 N   0  0  0  0  0  0
  -26.2960  -12.9383   20.3327 N   0  0  0  0  0  0
  -25.9317  -11.6529   20.5768 N   0  0  0  0  0  0
  -22.0491  -12.8223   22.0409 N   0  0  0  0  0  0
  -25.4210  -15.1910   20.4043 N   0  0  0  0  0  0
  -31.8360  -14.7016   20.1189 O   0  0  0  0  0  0
  -21.6643   -6.8885   21.4237 O   0  0  0  0  0  0
  -22.3532  -14.5535   20.6694 O   0  0  0  0  0  0
  -24.6283  -31.8624   23.2011 C   0  0  0  0  0  0
  -25.9148  -32.4774   23.8327 C   0  0  1  0  0  0
  -27.2127  -27.3082   20.1281 C   0  0  0  0  0  0
  -25.5969  -33.8567   24.2249 N   0  0  0  0  0  0
  -23.4209  -30.4817   21.5497 C   0  0  2  0  0  0
  -24.8661  -28.9282   20.1205 C   0  0  0  0  0  0
  -22.7491  -29.4605   22.4990 C   0  0  0  0  0  0
  -18.0278  -28.1368   22.8449 C   0  0  0  0  0  0
  -24.1509  -36.7294   23.2631 C   0  0  0  0  0  0
  -25.9617  -30.7842   21.3788 C   0  0  0  0  0  0
  -26.0349  -29.4069   20.7280 C   0  0  0  0  0  0
  -27.2167  -28.6061   20.7253 C   0  0  0  0  0  0
  -26.0309  -26.8875   19.4914 C   0  0  0  0  0  0
  -24.8628  -27.6708   19.4963 C   0  0  0  0  0  0
  -23.6366  -29.8131   20.1657 C   0  0  0  0  0  0
  -25.4135  -36.3078   24.0302 C   0  0  1  0  0  0
  -20.5874  -28.3682   23.1291 C   0  0  2  0  0  0
  -20.6791  -26.9412   22.5413 C   0  0  0  0  0  0
  -19.5774  -26.6378   21.5194 C   0  0  0  0  0  0
  -18.1938  -26.7905   22.1590 C   0  0  0  0  0  0
  -19.1524  -28.8847   23.2857 C   0  0  0  0  0  0
  -18.9463  -30.1455   23.8876 C   0  0  0  0  0  0
  -17.6461  -30.6584   24.0542 C   0  0  0  0  0  0
  -25.9088  -34.9450   23.5076 C   0  0  0  0  0  0
  -16.5350  -29.9075   23.6314 C   0  0  0  0  0  0
  -16.7264  -28.6495   23.0320 C   0  0  0  0  0  0
  -26.4510  -31.6599   25.0709 C   0  0  0  0  0  0
  -25.3711  -31.3742   26.1417 C   0  0  0  0  0  0
  -27.0343  -30.3005   24.6172 C   0  0  0  0  0  0
  -27.6063  -32.4352   25.7485 C   0  0  0  0  0  0
  -27.5598  -37.1786   24.8444 C   0  0  0  0  0  0
  -21.4214  -29.3023   22.3709 N   0  0  0  0  0  0
  -26.4309  -37.3771   23.9396 N   0  0  0  0  0  0
  -24.6882  -31.0610   22.0981 N   0  0  0  0  0  0
  -23.4219  -28.8152   23.3080 O   0  0  0  0  0  0
  -28.3197  -26.4601   20.0617 O   0  0  0  0  0  0
  -26.5658  -34.8930   22.4642 O   0  0  0  0  0  0
  -23.5465  -32.1434   23.7345 O   0  0  0  0  0  0
  -31.3603  -19.8154   21.1278 C   0  0  0  0  0  0
  -31.7345  -17.4101   21.2732 C   0  0  0  0  0  0
  -32.2203  -18.7251   21.3504 C   0  0  0  0  0  0
  -29.5057  -18.2728   20.7514 C   0  0  0  0  0  0
  -29.9896  -19.6421   20.8244 C   0  0  0  0  0  0
  -30.3858  -17.1342   20.9469 C   0  0  0  0  0  0
  -28.8393  -23.1271   19.4940 C   0  0  0  0  0  0
  -28.4886  -22.9038   21.9532 C   0  0  0  0  0  0
  -29.7993  -21.9210   19.8050 C   0  0  0  0  0  0
  -28.4464  -21.3377   21.7709 C   0  0  0  0  0  0
  -28.0951  -23.7829   20.7117 C   0  0  0  0  0  0
  -33.6871  -18.9690   21.6571 C   0  0  0  0  0  0
  -28.0432  -17.9951   20.4384 C   0  0  0  0  0  0
  -26.5678  -23.6352   20.5170 C   0  0  0  0  0  0
  -28.4397  -25.3351   21.0095 C   0  0  0  0  0  0
  -29.1971  -20.8297   20.6061 N   0  0  0  0  0  0
  -29.9465  -15.7335   20.8586 N   0  0  0  0  0  0
  -31.4621  -12.4781   19.1541 H   0  0  0  0  0  0
  -30.3320  -11.3915   19.9083 H   0  0  0  0  0  0
  -29.7562  -11.7421   17.4814 H   0  0  0  0  0  0
  -29.6485  -13.4654   17.7399 H   0  0  0  0  0  0
  -27.8476  -11.2948   18.8623 H   0  0  0  0  0  0
  -27.3693  -12.5847   17.7911 H   0  0  0  0  0  0
  -27.6609  -14.2538   19.5082 H   0  0  0  0  0  0
  -28.7005  -12.0939   21.4104 H   0  0  0  0  0  0
  -28.4458  -13.7665   21.8248 H   0  0  0  0  0  0
  -25.2760   -9.5701   22.4763 H   0  0  0  0  0  0
  -24.0000   -7.4652   22.7482 H   0  0  0  0  0  0
  -21.0846   -8.8779   19.8951 H   0  0  0  0  0  0
  -22.3687  -10.9685   19.6174 H   0  0  0  0  0  0
  -21.2018   -7.6152   23.9713 H   0  0  0  0  0  0
  -21.1475   -6.0526   25.9079 H   0  0  0  0  0  0
  -22.0599   -2.7611   23.2846 H   0  0  0  0  0  0
  -22.4100  -11.9875   22.4778 H   0  0  0  0  0  0
  -21.1115  -13.1256   22.2618 H   0  0  0  0  0  0
  -24.6432  -15.8366   20.4922 H   0  0  0  0  0  0
  -26.2508  -15.6239   20.0226 H   0  0  0  0  0  0
  -26.7205  -32.5453   23.1070 H   0  0  0  0  0  0
  -25.0053  -33.9677   25.0351 H   0  0  0  0  0  0
  -22.7139  -31.3022   21.4049 H   0  0  0  0  0  0
  -23.3781  -35.9623   23.3265 H   0  0  0  0  0  0
  -24.3612  -36.8959   22.2058 H   0  0  0  0  0  0
  -23.7253  -37.6466   23.6699 H   0  0  0  0  0  0
  -26.0976  -31.5468   20.6106 H   0  0  0  0  0  0
  -26.8396  -30.8316   22.0119 H   0  0  0  0  0  0
  -28.1223  -28.9679   21.1927 H   0  0  0  0  0  0
  -26.0074  -25.9441   18.9763 H   0  0  0  0  0  0
  -23.9683  -27.3018   19.0143 H   0  0  0  0  0  0
  -23.7653  -30.5915   19.4113 H   0  0  0  0  0  0
  -22.7549  -29.2465   19.8574 H   0  0  0  0  0  0
  -25.1306  -36.1909   25.0785 H   0  0  0  0  0  0
  -20.9909  -28.3283   24.1430 H   0  0  0  0  0  0
  -20.5731  -26.2285   23.3611 H   0  0  0  0  0  0
  -21.6661  -26.7502   22.1173 H   0  0  0  0  0  0
  -19.6972  -25.6280   21.1244 H   0  0  0  0  0  0
  -19.6726  -27.3190   20.6716 H   0  0  0  0  0  0
  -17.4207  -26.6638   21.3993 H   0  0  0  0  0  0
  -18.0351  -26.0058   22.8998 H   0  0  0  0  0  0
  -19.7952  -30.7248   24.2270 H   0  0  0  0  0  0
  -17.5020  -31.6256   24.5173 H   0  0  0  0  0  0
  -15.5349  -30.2961   23.7679 H   0  0  0  0  0  0
  -15.8659  -28.0838   22.7018 H   0  0  0  0  0  0
  -24.5914  -30.7068   25.7719 H   0  0  0  0  0  0
  -24.8873  -32.2912   26.4799 H   0  0  0  0  0  0
  -25.8010  -30.8945   27.0223 H   0  0  0  0  0  0
  -26.2898  -29.6758   24.1216 H   0  0  0  0  0  0
  -27.4020  -29.7263   25.4692 H   0  0  0  0  0  0
  -27.8789  -30.4221   23.9379 H   0  0  0  0  0  0
  -27.2654  -33.3677   26.1992 H   0  0  0  0  0  0
  -28.3899  -32.6887   25.0328 H   0  0  0  0  0  0
  -28.0690  -31.8522   26.5453 H   0  0  0  0  0  0
  -28.2551  -38.0152   24.7585 H   0  0  0  0  0  0
  -28.1156  -36.2678   24.6158 H   0  0  0  0  0  0
  -27.2320  -37.1274   25.8845 H   0  0  0  0  0  0
  -20.9456  -29.8711   21.6854 H   0  0  0  0  0  0
  -26.0194  -38.2832   24.1448 H   0  0  0  0  0  0
  -31.7866  -20.8041   21.2098 H   0  0  0  0  0  0
  -32.4310  -16.6095   21.4697 H   0  0  0  0  0  0
  -28.1079  -22.7741   18.7654 H   0  0  0  0  0  0
  -29.4060  -23.8948   18.9661 H   0  0  0  0  0  0
  -29.4990  -23.1739   22.2625 H   0  0  0  0  0  0
  -27.8615  -23.1728   22.8047 H   0  0  0  0  0  0
  -30.6674  -22.3233   20.3258 H   0  0  0  0  0  0
  -30.1728  -21.5094   18.8658 H   0  0  0  0  0  0
  -27.4145  -20.9935   21.6858 H   0  0  0  0  0  0
  -28.8334  -20.8771   22.6819 H   0  0  0  0  0  0
  -33.8185  -19.8692   22.2594 H   0  0  0  0  0  0
  -34.2471  -19.0954   20.7296 H   0  0  0  0  0  0
  -34.1264  -18.1316   22.2030 H   0  0  0  0  0  0
  -27.4737  -18.9042   20.2470 H   0  0  0  0  0  0
  -27.5720  -17.4805   21.2763 H   0  0  0  0  0  0
  -27.9600  -17.3613   19.5542 H   0  0  0  0  0  0
  -26.2446  -22.5988   20.6158 H   0  0  0  0  0  0
  -26.2493  -23.9479   19.5263 H   0  0  0  0  0  0
  -26.0058  -24.2209   21.2465 H   0  0  0  0  0  0
  -29.4893  -25.3717   21.3042 H   0  0  0  0  0  0
  -27.8993  -25.6256   21.9132 H   0  0  0  0  0  0
  -28.9651  -15.5646   21.0163 H   0  0  0  0  0  0
  1 25  1  0  0  0
  1 30  2  0  0  0
  1 87  1  0  0  0
  2  3  1  0  0  0
  2 25  1  0  0  0
  2 88  1  0  0  0
  2 89  1  0  0  0
  3  4  1  0  0  0
  3 90  1  0  0  0
  3 91  1  0  0  0
  4  5  1  0  0  0
  4 92  1  0  0  0
  4 93  1  0  0  0
  5  6  1  0  0  0
  5 26  1  0  0  0
  5 94  1  0  0  0
  6 25  1  0  0  0
  6 95  1  0  0  0
  6 96  1  0  0  0
  7  8  2  0  0  0
  7 26  1  0  0  0
  7 29  1  0  0  0
  8  9  1  0  0  0
  8 22  1  0  0  0
  9 10  1  0  0  0
  9 27  2  0  0  0
 10 11  2  0  0  0
 10 15  1  0  0  0
 11 12  1  0  0  0
 11 97  1  0  0  0
 12 13  2  0  0  0
 12 98  1  0  0  0
 13 14  1  0  0  0
 13 31  1  0  0  0
 14 15  2  0  0  0
 14 99  1  0  0  0
 15100  1  0  0  0
 16 17  2  0  0  0
 16 21  1  0  0  0
 16 31  1  0  0  0
 17 18  1  0  0  0
 17101  1  0  0  0
 18 19  2  0  0  0
 18102  1  0  0  0
 19 20  1  0  0  0
 19 24  1  0  0  0
 20 21  2  0  0  0
 20103  1  0  0  0
 21 23  1  0  0  0
 22 28  1  0  0  0
 22 32  2  0  0  0
 26 27  1  0  0  0
 28104  1  0  0  0
 28105  1  0  0  0
 29106  1  0  0  0
 29107  1  0  0  0
 33 34  1  0  0  0
 33 66  1  0  0  0
 33 70  2  0  0  0
 34 36  1  0  0  0
 34 59  1  0  0  0
 34108  1  0  0  0
 35 44  2  0  0  0
 35 45  1  0  0  0
 35 68  1  0  0  0
 36 56  1  0  0  0
 36109  1  0  0  0
 37 39  1  0  0  0
 37 47  1  0  0  0
 37 66  1  0  0  0
 37110  1  0  0  0
 38 43  2  0  0  0
 38 46  1  0  0  0
 38 47  1  0  0  0
 39 64  1  0  0  0
 39 67  2  0  0  0
 40 52  1  0  0  0
 40 53  2  0  0  0
 40 58  1  0  0  0
 41111  1  0  0  0
 41112  1  0  0  0
 41113  1  0  0  0
 41 48  1  0  0  0
 42 43  1  0  0  0
 42 66  1  0  0  0
 42114  1  0  0  0
 42115  1  0  0  0
 43 44  1  0  0  0
 44116  1  0  0  0
 45 46  2  0  0  0
 45117  1  0  0  0
 46118  1  0  0  0
 47119  1  0  0  0
 47120  1  0  0  0
 48 56  1  0  0  0
 48 65  1  0  0  0
 48121  1  0  0  0
 49 50  1  0  0  0
 49 53  1  0  0  0
 49 64  1  0  0  0
 49122  1  0  0  0
 50 51  1  0  0  0
 50123  1  0  0  0
 50124  1  0  0  0
 51 52  1  0  0  0
 51125  1  0  0  0
 51126  1  0  0  0
 52127  1  0  0  0
 52128  1  0  0  0
 53 54  1  0  0  0
 54 55  2  0  0  0
 54129  1  0  0  0
 55 57  1  0  0  0
 55130  1  0  0  0
 56 69  2  0  0  0
 57 58  2  0  0  0
 57131  1  0  0  0
 58132  1  0  0  0
 59 60  1  0  0  0
 59 61  1  0  0  0
 59 62  1  0  0  0
 60133  1  0  0  0
 60134  1  0  0  0
 60135  1  0  0  0
 61136  1  0  0  0
 61137  1  0  0  0
 61138  1  0  0  0
 62139  1  0  0  0
 62140  1  0  0  0
 62141  1  0  0  0
 63 65  1  0  0  0
 63142  1  0  0  0
 63143  1  0  0  0
 63144  1  0  0  0
 64145  1  0  0  0
 65146  1  0  0  0
 68 85  1  0  0  0
 71 73  2  0  0  0
 71 75  1  0  0  0
 71147  1  0  0  0
 72 73  1  0  0  0
 72 76  2  0  0  0
 72148  1  0  0  0
 73 82  1  0  0  0
 74 75  2  0  0  0
 74 76  1  0  0  0
 74 83  1  0  0  0
 75 86  1  0  0  0
 76 87  1  0  0  0
 77 79  1  0  0  0
 77 81  1  0  0  0
 77149  1  0  0  0
 77150  1  0  0  0
 78 80  1  0  0  0
 78 81  1  0  0  0
 78151  1  0  0  0
 78152  1  0  0  0
 79 86  1  0  0  0
 79153  1  0  0  0
 79154  1  0  0  0
 80 86  1  0  0  0
 80155  1  0  0  0
 80156  1  0  0  0
 81 84  1  0  0  0
 81 85  1  0  0  0
 82157  1  0  0  0
 82158  1  0  0  0
 82159  1  0  0  0
 83160  1  0  0  0
 83161  1  0  0  0
 83162  1  0  0  0
 84163  1  0  0  0
 84164  1  0  0  0
 84165  1  0  0  0
 85166  1  0  0  0
 85167  1  0  0  0
 87168  1  0  0  0
M  ISO  4   1 100  68 101  85 101  87 100
M  END
> <chiral flag>
0

> <version>
0

> <s_m_source_file>
/data/baiqing/PycharmProjects/Reinvent-master-3.2/result/LINK_invent/BTK/process_docking_weight1_custom_product_contain_oxygen_bond_distance_aromatic_linkinvent_7_9_3/rearranged_h_0139.sdf

> <i_m_source_file_index>
92

> <r_mmod_Potential_Energy-OPLS-2005>
185.545440673828

> <r_mmod_Stretch_Energy-OPLS-2005>
90.2495346069336

> <r_mmod_Bend_Energy-OPLS-2005>
156.233276367188

> <r_mmod_Torsional_Energy-OPLS-2005>
316.165985107422

> <r_mmod_Improper_Torsional_Energy-OPLS-2005>
8.75351047515869

> <r_mmod_Van_der_Waal_Energy-OPLS-2005>
157.876510620117

> <r_mmod_Electrostatic_Energy-OPLS-2005>
-382.932403564453

> <r_mmod_Solvation_Energy-OPLS-2005>
-206.143844604492

> <b_mmod_Minimization_Converged-OPLS-2005>
0

> <r_mmod_RMS_Derivative-OPLS-2005>
3.04028630256653

$$$$
92
                    3D
 Structure written by MMmdl.
160169  0  0  1  0            999 V2000
  -30.5880  -14.7516   20.4302 C   0  0  0  0  0  0
  -30.4448  -12.4579   19.4506 C   0  0  0  0  0  0
  -29.5064  -12.4779   18.2250 C   0  0  0  0  0  0
  -28.0371  -12.2943   18.6570 C   0  0  0  0  0  0
  -27.6388  -13.2174   19.8399 C   0  0  2  0  0  0
  -28.6909  -13.1647   20.9663 C   0  0  0  0  0  0
  -25.2536  -13.8174   20.5731 C   0  0  0  0  0  0
  -24.1806  -13.0435   20.9227 C   0  0  0  0  0  0
  -24.6376  -11.6904   20.8764 C   0  0  0  0  0  0
  -23.9049  -10.4296   21.0411 C   0  0  0  0  0  0
  -24.3609   -9.4209   21.9175 C   0  0  0  0  0  0
  -23.6302   -8.2239   22.0736 C   0  0  0  0  0  0
  -22.4277   -8.0282   21.3536 C   0  0  0  0  0  0
  -21.9911   -9.0254   20.4637 C   0  0  0  0  0  0
  -22.7231  -10.2136   20.3056 C   0  0  0  0  0  0
  -21.6842   -6.0747   22.5286 C   0  0  0  0  0  0
  -21.4009   -6.5637   23.8223 C   0  0  0  0  0  0
  -21.3658   -5.6778   24.9179 C   0  0  0  0  0  0
  -21.6040   -4.3048   24.7212 C   0  0  0  0  0  0
  -21.8824   -3.8150   23.4329 C   0  0  0  0  0  0
  -21.9190   -4.6976   22.3397 C   0  0  0  0  0  0
  -22.7830  -13.5228   21.1875 C   0  0  0  0  0  0
  -22.1665   -4.2168   21.0973 F   0  0  0  0  0  0
  -21.5624   -3.4525   25.7724 F   0  0  0  0  0  0
  -29.9816  -13.5204   20.3643 N   0  0  0  0  0  0
  -26.2931  -12.9337   20.3277 N   0  0  0  0  0  0
  -25.9294  -11.6492   20.5757 N   0  0  0  0  0  0
  -22.0458  -12.8248   22.0433 N   0  0  0  0  0  0
  -25.4270  -15.1904   20.4205 N   0  0  0  0  0  0
  -31.7968  -14.8596   20.2069 O   0  0  0  0  0  0
  -21.6627   -6.8893   21.4245 O   0  0  0  0  0  0
  -22.3518  -14.5532   20.6708 O   0  0  0  0  0  0
  -24.6266  -31.8551   23.1989 C   0  0  0  0  0  0
  -25.9100  -32.4762   23.8326 C   0  0  1  0  0  0
  -27.2325  -27.2900   20.1256 C   0  0  0  0  0  0
  -25.5896  -33.8560   24.2225 N   0  0  0  0  0  0
  -23.4253  -30.4746   21.5410 C   0  0  2  0  0  0
  -24.8759  -28.9169   20.1185 C   0  0  0  0  0  0
  -22.7490  -29.4579   22.4919 C   0  0  0  0  0  0
  -18.0274  -28.1395   22.8470 C   0  0  0  0  0  0
  -24.1489  -36.7291   23.2635 C   0  0  0  0  0  0
  -25.9700  -30.7742   21.3793 C   0  0  0  0  0  0
  -26.0461  -29.3980   20.7215 C   0  0  0  0  0  0
  -27.2295  -28.5968   20.7107 C   0  0  0  0  0  0
  -26.0399  -26.8583   19.5110 C   0  0  0  0  0  0
  -24.8737  -27.6508   19.5089 C   0  0  0  0  0  0
  -23.6464  -29.8037   20.1594 C   0  0  0  0  0  0
  -25.4116  -36.3072   24.0317 C   0  0  1  0  0  0
  -20.5882  -28.3687   23.1287 C   0  0  2  0  0  0
  -20.6770  -26.9403   22.5422 C   0  0  0  0  0  0
  -19.5753  -26.6385   21.5216 C   0  0  0  0  0  0
  -18.1927  -26.7936   22.1619 C   0  0  0  0  0  0
  -19.1534  -28.8857   23.2871 C   0  0  0  0  0  0
  -18.9463  -30.1466   23.8868 C   0  0  0  0  0  0
  -17.6465  -30.6588   24.0568 C   0  0  0  0  0  0
  -25.9054  -34.9453   23.5077 C   0  0  0  0  0  0
  -16.5349  -29.9093   23.6334 C   0  0  0  0  0  0
  -16.7266  -28.6530   23.0313 C   0  0  0  0  0  0
  -26.4459  -31.6608   25.0735 C   0  0  0  0  0  0
  -25.3699  -31.3789   26.1483 C   0  0  0  0  0  0
  -27.0294  -30.3013   24.6253 C   0  0  0  0  0  0
  -27.5981  -32.4387   25.7505 C   0  0  0  0  0  0
  -27.5586  -37.1786   24.8440 C   0  0  0  0  0  0
  -21.4201  -29.3036   22.3682 N   0  0  0  0  0  0
  -26.4275  -37.3790   23.9421 N   0  0  0  0  0  0
  -24.6922  -31.0536   22.0951 N   0  0  0  0  0  0
  -23.4203  -28.8113   23.2999 O   0  0  0  0  0  0
  -28.3473  -26.4333   20.1060 O   0  0  0  0  0  0
  -26.5654  -34.8925   22.4659 O   0  0  0  0  0  0
  -23.5419  -32.1342   23.7298 O   0  0  0  0  0  0
  -29.9520  -19.8584   22.1685 C   0  0  0  0  0  0
  -30.2859  -18.7039   22.9004 C   0  0  0  0  0  0
  -29.5668  -18.4605   20.2227 C   0  0  0  0  0  0
  -29.5875  -19.7965   20.8074 C   0  0  0  0  0  0
  -30.2705  -17.4174   22.3220 C   0  0  0  0  0  0
  -29.9184  -17.2430   20.9562 C   0  0  0  0  0  0
  -27.9806  -21.3839   19.3300 C   0  0  0  0  0  0
  -27.7820  -22.9212   19.0893 C   0  0  0  0  0  0
  -29.3667  -22.5554   20.8509 C   0  0  0  0  0  0
  -29.3271  -21.1834   20.0496 C   0  0  1  0  0  0
  -28.7897  -23.7261   19.9527 C   0  0  2  0  0  0
  -30.5737  -16.2391   23.2346 C   0  0  0  0  0  0
  -28.2107  -25.0576   20.6724 C   0  0  0  0  0  0
  -29.7542  -15.8627   20.4388 N   0  0  0  0  0  0
  -31.4777  -12.6132   19.1344 H   0  0  0  0  0  0
  -30.4237  -11.4880   19.9513 H   0  0  0  0  0  0
  -29.7948  -11.6911   17.5256 H   0  0  0  0  0  0
  -29.6163  -13.4209   17.6879 H   0  0  0  0  0  0
  -27.9182  -11.2520   18.9548 H   0  0  0  0  0  0
  -27.3664  -12.4442   17.8109 H   0  0  0  0  0  0
  -27.6258  -14.2304   19.4377 H   0  0  0  0  0  0
  -28.7377  -12.1706   21.4149 H   0  0  0  0  0  0
  -28.4284  -13.8569   21.7689 H   0  0  0  0  0  0
  -25.2754   -9.5681   22.4741 H   0  0  0  0  0  0
  -24.0020   -7.4611   22.7432 H   0  0  0  0  0  0
  -21.0848   -8.8777   19.8937 H   0  0  0  0  0  0
  -22.3698  -10.9677   19.6167 H   0  0  0  0  0  0
  -21.2012   -7.6144   23.9745 H   0  0  0  0  0  0
  -21.1469   -6.0496   25.9088 H   0  0  0  0  0  0
  -22.0607   -2.7617   23.2812 H   0  0  0  0  0  0
  -22.4059  -11.9918   22.4852 H   0  0  0  0  0  0
  -21.1070  -13.1270   22.2600 H   0  0  0  0  0  0
  -24.6697  -15.8506   20.5623 H   0  0  0  0  0  0
  -26.2855  -15.6380   20.1263 H   0  0  0  0  0  0
  -26.7164  -32.5412   23.1065 H   0  0  0  0  0  0
  -25.0001  -33.9699   25.0342 H   0  0  0  0  0  0
  -22.7191  -31.2942   21.3917 H   0  0  0  0  0  0
  -23.3771  -35.9599   23.3250 H   0  0  0  0  0  0
  -24.3580  -36.8973   22.2058 H   0  0  0  0  0  0
  -23.7222  -37.6462   23.6701 H   0  0  0  0  0  0
  -26.1133  -31.5373   20.6133 H   0  0  0  0  0  0
  -26.8446  -30.8166   22.0180 H   0  0  0  0  0  0
  -28.1311  -28.9602   21.1839 H   0  0  0  0  0  0
  -26.0086  -25.8872   19.0378 H   0  0  0  0  0  0
  -23.9764  -27.2715   19.0397 H   0  0  0  0  0  0
  -23.7760  -30.5775   19.4014 H   0  0  0  0  0  0
  -22.7656  -29.2378   19.8512 H   0  0  0  0  0  0
  -25.1298  -36.1888   25.0808 H   0  0  0  0  0  0
  -20.9957  -28.3264   24.1418 H   0  0  0  0  0  0
  -20.5664  -26.2282   23.3619 H   0  0  0  0  0  0
  -21.6638  -26.7430   22.1221 H   0  0  0  0  0  0
  -19.6912  -25.6301   21.1229 H   0  0  0  0  0  0
  -19.6707  -27.3210   20.6761 H   0  0  0  0  0  0
  -17.4199  -26.6664   21.4021 H   0  0  0  0  0  0
  -18.0334  -26.0089   22.9025 H   0  0  0  0  0  0
  -19.7942  -30.7298   24.2207 H   0  0  0  0  0  0
  -17.5018  -31.6257   24.5196 H   0  0  0  0  0  0
  -15.5349  -30.2986   23.7689 H   0  0  0  0  0  0
  -15.8666  -28.0878   22.6979 H   0  0  0  0  0  0
  -24.5804  -30.7206   25.7842 H   0  0  0  0  0  0
  -24.8984  -32.2985   26.4959 H   0  0  0  0  0  0
  -25.8034  -30.8920   27.0230 H   0  0  0  0  0  0
  -26.2881  -29.6794   24.1227 H   0  0  0  0  0  0
  -27.3874  -29.7254   25.4794 H   0  0  0  0  0  0
  -27.8803  -30.4253   23.9557 H   0  0  0  0  0  0
  -27.2514  -33.3643   26.2112 H   0  0  0  0  0  0
  -28.3766  -32.7048   25.0346 H   0  0  0  0  0  0
  -28.0686  -31.8532   26.5412 H   0  0  0  0  0  0
  -28.2551  -38.0138   24.7570 H   0  0  0  0  0  0
  -28.1134  -36.2673   24.6144 H   0  0  0  0  0  0
  -27.2320  -37.1294   25.8843 H   0  0  0  0  0  0
  -20.9369  -29.8770   21.6914 H   0  0  0  0  0  0
  -26.0139  -38.2836   24.1506 H   0  0  0  0  0  0
  -29.9898  -20.8059   22.6837 H   0  0  0  0  0  0
  -30.5434  -18.8177   23.9446 H   0  0  0  0  0  0
  -29.2763  -18.3756   19.1845 H   0  0  0  0  0  0
  -27.9226  -20.8158   18.4012 H   0  0  0  0  0  0
  -27.1733  -21.0249   19.9703 H   0  0  0  0  0  0
  -26.7540  -23.2016   19.3223 H   0  0  0  0  0  0
  -27.9332  -23.1682   18.0374 H   0  0  0  0  0  0
  -30.3737  -22.7842   21.2033 H   0  0  0  0  0  0
  -28.7325  -22.4741   21.7349 H   0  0  0  0  0  0
  -30.1081  -21.2460   19.2893 H   0  0  0  0  0  0
  -29.6100  -24.0425   19.3056 H   0  0  0  0  0  0
  -31.4151  -15.6592   22.8596 H   0  0  0  0  0  0
  -29.7024  -15.5882   23.3159 H   0  0  0  0  0  0
  -30.8408  -16.5666   24.2393 H   0  0  0  0  0  0
  -28.7389  -25.1288   21.6232 H   0  0  0  0  0  0
  -27.1785  -24.8729   20.9716 H   0  0  0  0  0  0
  -28.7977  -15.6257   20.2314 H   0  0  0  0  0  0
  1 25  1  0  0  0
  1 30  2  0  0  0
  1 84  1  0  0  0
  2  3  1  0  0  0
  2 25  1  0  0  0
  2 85  1  0  0  0
  2 86  1  0  0  0
  3  4  1  0  0  0
  3 87  1  0  0  0
  3 88  1  0  0  0
  4  5  1  0  0  0
  4 89  1  0  0  0
  4 90  1  0  0  0
  5  6  1  0  0  0
  5 26  1  0  0  0
  5 91  1  0  0  0
  6 25  1  0  0  0
  6 92  1  0  0  0
  6 93  1  0  0  0
  7  8  2  0  0  0
  7 26  1  0  0  0
  7 29  1  0  0  0
  8  9  1  0  0  0
  8 22  1  0  0  0
  9 10  1  0  0  0
  9 27  2  0  0  0
 10 11  2  0  0  0
 10 15  1  0  0  0
 11 12  1  0  0  0
 11 94  1  0  0  0
 12 13  2  0  0  0
 12 95  1  0  0  0
 13 14  1  0  0  0
 13 31  1  0  0  0
 14 15  2  0  0  0
 14 96  1  0  0  0
 15 97  1  0  0  0
 16 17  2  0  0  0
 16 21  1  0  0  0
 16 31  1  0  0  0
 17 18  1  0  0  0
 17 98  1  0  0  0
 18 19  2  0  0  0
 18 99  1  0  0  0
 19 20  1  0  0  0
 19 24  1  0  0  0
 20 21  2  0  0  0
 20100  1  0  0  0
 21 23  1  0  0  0
 22 28  1  0  0  0
 22 32  2  0  0  0
 26 27  1  0  0  0
 28101  1  0  0  0
 28102  1  0  0  0
 29103  1  0  0  0
 29104  1  0  0  0
 33 34  1  0  0  0
 33 66  1  0  0  0
 33 70  2  0  0  0
 34 36  1  0  0  0
 34 59  1  0  0  0
 34105  1  0  0  0
 35 44  2  0  0  0
 35 45  1  0  0  0
 35 68  1  0  0  0
 36 56  1  0  0  0
 36106  1  0  0  0
 37 39  1  0  0  0
 37 47  1  0  0  0
 37 66  1  0  0  0
 37107  1  0  0  0
 38 43  2  0  0  0
 38 46  1  0  0  0
 38 47  1  0  0  0
 39 64  1  0  0  0
 39 67  2  0  0  0
 40 52  1  0  0  0
 40 53  2  0  0  0
 40 58  1  0  0  0
 41108  1  0  0  0
 41109  1  0  0  0
 41110  1  0  0  0
 41 48  1  0  0  0
 42 43  1  0  0  0
 42 66  1  0  0  0
 42111  1  0  0  0
 42112  1  0  0  0
 43 44  1  0  0  0
 44113  1  0  0  0
 45 46  2  0  0  0
 45114  1  0  0  0
 46115  1  0  0  0
 47116  1  0  0  0
 47117  1  0  0  0
 48 56  1  0  0  0
 48 65  1  0  0  0
 48118  1  0  0  0
 49 50  1  0  0  0
 49 53  1  0  0  0
 49 64  1  0  0  0
 49119  1  0  0  0
 50 51  1  0  0  0
 50120  1  0  0  0
 50121  1  0  0  0
 51 52  1  0  0  0
 51122  1  0  0  0
 51123  1  0  0  0
 52124  1  0  0  0
 52125  1  0  0  0
 53 54  1  0  0  0
 54 55  2  0  0  0
 54126  1  0  0  0
 55 57  1  0  0  0
 55127  1  0  0  0
 56 69  2  0  0  0
 57 58  2  0  0  0
 57128  1  0  0  0
 58129  1  0  0  0
 59 60  1  0  0  0
 59 61  1  0  0  0
 59 62  1  0  0  0
 60130  1  0  0  0
 60131  1  0  0  0
 60132  1  0  0  0
 61133  1  0  0  0
 61134  1  0  0  0
 61135  1  0  0  0
 62136  1  0  0  0
 62137  1  0  0  0
 62138  1  0  0  0
 63 65  1  0  0  0
 63139  1  0  0  0
 63140  1  0  0  0
 63141  1  0  0  0
 64142  1  0  0  0
 65143  1  0  0  0
 68 83  1  0  0  0
 71 72  2  0  0  0
 71 74  1  0  0  0
 71144  1  0  0  0
 72 75  1  0  0  0
 72145  1  0  0  0
 73 74  2  0  0  0
 73 76  1  0  0  0
 73146  1  0  0  0
 74 80  1  0  0  0
 75 76  2  0  0  0
 75 82  1  0  0  0
 76 84  1  0  0  0
 77 78  1  0  0  0
 77 80  1  0  0  0
 77147  1  0  0  0
 77148  1  0  0  0
 78 81  1  0  0  0
 78149  1  0  0  0
 78150  1  0  0  0
 79 80  1  0  0  0
 79 81  1  0  0  0
 79151  1  0  0  0
 79152  1  0  0  0
 80153  1  0  0  0
 81 83  1  0  0  0
 81154  1  0  0  0
 82155  1  0  0  0
 82156  1  0  0  0
 82157  1  0  0  0
 83158  1  0  0  0
 83159  1  0  0  0
 84160  1  0  0  0
M  ISO  4   1 100  68 101  83 101  84 100
M  END
> <chiral flag>
0

> <version>
0

> <s_m_source_file>
/data/baiqing/PycharmProjects/Reinvent-master-3.2/result/LINK_invent/BTK/process_docking_weight1_custom_product_contain_oxygen_bond_distance_aromatic_linkinvent_7_9_3/rearranged_h_0139.sdf

> <i_m_source_file_index>
93

> <r_mmod_Potential_Energy-OPLS-2005>
257.267761230469

> <r_mmod_Stretch_Energy-OPLS-2005>
110.614967346191

> <r_mmod_Bend_Energy-OPLS-2005>
184.41259765625

> <r_mmod_Torsional_Energy-OPLS-2005>
316.343353271484

> <r_mmod_Improper_Torsional_Energy-OPLS-2005>
8.94413089752197

> <r_mmod_Van_der_Waal_Energy-OPLS-2005>
134.018646240234

> <r_mmod_Electrostatic_Energy-OPLS-2005>
-379.895477294922

> <r_mmod_Solvation_Energy-OPLS-2005>
-199.345901489258

> <b_mmod_Minimization_Converged-OPLS-2005>
0

> <r_mmod_RMS_Derivative-OPLS-2005>
2.51457810401917

$$$$
93
                    3D
 Structure written by MMmdl.
164172  0  0  1  0            999 V2000
  -30.5232  -15.0481   20.4862 C   0  0  0  0  0  0
  -30.4455  -12.6450   19.6080 C   0  0  0  0  0  0
  -29.5788  -12.5653   18.3260 C   0  0  0  0  0  0
  -28.0953  -12.3535   18.6909 C   0  0  0  0  0  0
  -27.6377  -13.2747   19.8537 C   0  0  2  0  0  0
  -28.6514  -13.3346   21.0249 C   0  0  0  0  0  0
  -25.2436  -13.8264   20.5676 C   0  0  0  0  0  0
  -24.1767  -13.0452   20.9219 C   0  0  0  0  0  0
  -24.6470  -11.6946   20.8732 C   0  0  0  0  0  0
  -23.9156  -10.4308   21.0415 C   0  0  0  0  0  0
  -24.3709   -9.4223   21.9176 C   0  0  0  0  0  0
  -23.6380   -8.2260   22.0731 C   0  0  0  0  0  0
  -22.4335   -8.0314   21.3543 C   0  0  0  0  0  0
  -21.9974   -9.0310   20.4680 C   0  0  0  0  0  0
  -22.7309  -10.2191   20.3051 C   0  0  0  0  0  0
  -21.6876   -6.0794   22.5291 C   0  0  0  0  0  0
  -21.4049   -6.5691   23.8245 C   0  0  0  0  0  0
  -21.3647   -5.6809   24.9181 C   0  0  0  0  0  0
  -21.6013   -4.3060   24.7210 C   0  0  0  0  0  0
  -21.8794   -3.8191   23.4317 C   0  0  0  0  0  0
  -21.9213   -4.7013   22.3391 C   0  0  0  0  0  0
  -22.7780  -13.5211   21.1869 C   0  0  0  0  0  0
  -22.1658   -4.2209   21.0946 F   0  0  0  0  0  0
  -21.5617   -3.4527   25.7710 F   0  0  0  0  0  0
  -29.9462  -13.7642   20.4749 N   0  0  0  0  0  0
  -26.2906  -12.9565   20.3200 N   0  0  0  0  0  0
  -25.9407  -11.6686   20.5698 N   0  0  0  0  0  0
  -22.0453  -12.8209   22.0446 N   0  0  0  0  0  0
  -25.4043  -15.1993   20.4076 N   0  0  0  0  0  0
  -31.6715  -15.1079   20.0182 O   0  0  0  0  0  0
  -21.6645   -6.8944   21.4264 O   0  0  0  0  0  0
  -22.3485  -14.5553   20.6738 O   0  0  0  0  0  0
  -24.6459  -31.8414   23.1852 C   0  0  0  0  0  0
  -25.9188  -32.4719   23.8280 C   0  0  1  0  0  0
  -27.2537  -27.1361   20.1655 C   0  0  0  0  0  0
  -25.5924  -33.8528   24.2214 N   0  0  0  0  0  0
  -23.4570  -30.4530   21.5299 C   0  0  2  0  0  0
  -24.9124  -28.8708   20.1195 C   0  0  0  0  0  0
  -22.7604  -29.4508   22.4858 C   0  0  0  0  0  0
  -18.0297  -28.1410   22.8469 C   0  0  0  0  0  0
  -24.1472  -36.7267   23.2648 C   0  0  0  0  0  0
  -26.0127  -30.7181   21.3808 C   0  0  0  0  0  0
  -26.0895  -29.3234   20.7310 C   0  0  0  0  0  0
  -27.2615  -28.4774   20.7234 C   0  0  0  0  0  0
  -26.0503  -26.7813   19.5166 C   0  0  0  0  0  0
  -24.9054  -27.6128   19.4930 C   0  0  0  0  0  0
  -23.6892  -29.7732   20.1544 C   0  0  0  0  0  0
  -25.4091  -36.3068   24.0337 C   0  0  1  0  0  0
  -20.5925  -28.3735   23.1228 C   0  0  2  0  0  0
  -20.6776  -26.9434   22.5416 C   0  0  0  0  0  0
  -19.5775  -26.6403   21.5195 C   0  0  0  0  0  0
  -18.1938  -26.7951   22.1584 C   0  0  0  0  0  0
  -19.1556  -28.8872   23.2851 C   0  0  0  0  0  0
  -18.9476  -30.1452   23.8894 C   0  0  0  0  0  0
  -17.6475  -30.6598   24.0576 C   0  0  0  0  0  0
  -25.9057  -34.9447   23.5105 C   0  0  0  0  0  0
  -16.5357  -29.9097   23.6334 C   0  0  0  0  0  0
  -16.7294  -28.6520   23.0355 C   0  0  0  0  0  0
  -26.4486  -31.6602   25.0750 C   0  0  0  0  0  0
  -25.3664  -31.3793   26.1453 C   0  0  0  0  0  0
  -27.0337  -30.2997   24.6325 C   0  0  0  0  0  0
  -27.6026  -32.4360   25.7523 C   0  0  0  0  0  0
  -27.5576  -37.1786   24.8437 C   0  0  0  0  0  0
  -21.4280  -29.3070   22.3595 N   0  0  0  0  0  0
  -26.4252  -37.3772   23.9439 N   0  0  0  0  0  0
  -24.7254  -31.0260   22.0892 N   0  0  0  0  0  0
  -23.4215  -28.8086   23.3043 O   0  0  0  0  0  0
  -28.3353  -26.1786   20.1748 O   0  0  0  0  0  0
  -26.5664  -34.8925   22.4700 O   0  0  0  0  0  0
  -23.5575  -32.1294   23.7030 O   0  0  0  0  0  0
  -27.8246  -18.5664   18.9059 C   0  0  0  0  0  0
  -28.5912  -17.4845   19.3601 C   0  0  0  0  0  0
  -27.9377  -19.8541   19.4649 C   0  0  0  0  0  0
  -28.9287  -20.1654   20.4381 C   0  0  0  0  0  0
  -29.4762  -17.6235   20.4420 C   0  0  0  0  0  0
  -30.1439  -23.0026   23.1880 C   0  0  0  0  0  0
  -27.6827  -21.8463   21.9401 C   0  0  0  0  0  0
  -28.3069  -23.0538   18.7591 C   0  0  0  0  0  0
  -30.3951  -23.6155   19.7845 C   0  0  0  0  0  0
  -30.1525  -21.8648   22.1170 C   0  0  0  0  0  0
  -28.1656  -24.7062   20.6688 C   0  0  0  0  0  0
  -28.9618  -21.7630   21.0782 C   0  0  1  0  0  0
  -28.9311  -23.2604   20.1502 C   0  0  0  0  0  0
  -29.6079  -18.9807   20.9458 N   0  0  0  0  0  0
  -29.8760  -16.2301   20.9989 N   0  0  0  0  0  0
  -26.9935  -20.7436   19.1038 F   0  0  0  0  0  0
  -31.5005  -12.7637   19.3578 H   0  0  0  0  0  0
  -30.3972  -11.7043   20.1604 H   0  0  0  0  0  0
  -29.9443  -11.7551   17.6920 H   0  0  0  0  0  0
  -29.7017  -13.4796   17.7437 H   0  0  0  0  0  0
  -27.9687  -11.3097   18.9728 H   0  0  0  0  0  0
  -27.4671  -12.5121   17.8134 H   0  0  0  0  0  0
  -27.5986  -14.2775   19.4246 H   0  0  0  0  0  0
  -28.7273  -12.3786   21.5495 H   0  0  0  0  0  0
  -28.3151  -14.0564   21.7691 H   0  0  0  0  0  0
  -25.2897   -9.5721   22.4714 H   0  0  0  0  0  0
  -24.0135   -7.4639   22.7413 H   0  0  0  0  0  0
  -21.0884   -8.8863   19.8969 H   0  0  0  0  0  0
  -22.3809  -10.9742   19.6134 H   0  0  0  0  0  0
  -21.2075   -7.6212   23.9791 H   0  0  0  0  0  0
  -21.1458   -6.0508   25.9090 H   0  0  0  0  0  0
  -22.0605   -2.7650   23.2767 H   0  0  0  0  0  0
  -22.4114  -11.9914   22.4905 H   0  0  0  0  0  0
  -21.1050  -13.1253   22.2608 H   0  0  0  0  0  0
  -24.6176  -15.8337   20.4844 H   0  0  0  0  0  0
  -26.2479  -15.6491   20.0811 H   0  0  0  0  0  0
  -26.7295  -32.5307   23.1062 H   0  0  0  0  0  0
  -25.0040  -33.9623   25.0342 H   0  0  0  0  0  0
  -22.7647  -31.2809   21.3651 H   0  0  0  0  0  0
  -23.3772  -35.9552   23.3229 H   0  0  0  0  0  0
  -24.3591  -36.8976   22.2085 H   0  0  0  0  0  0
  -23.7154  -37.6416   23.6714 H   0  0  0  0  0  0
  -26.1632  -31.4667   20.5986 H   0  0  0  0  0  0
  -26.8875  -30.7759   22.0199 H   0  0  0  0  0  0
  -28.1712  -28.8364   21.1850 H   0  0  0  0  0  0
  -25.9927  -25.8268   19.0141 H   0  0  0  0  0  0
  -24.0096  -27.2627   18.9999 H   0  0  0  0  0  0
  -23.8379  -30.5438   19.3961 H   0  0  0  0  0  0
  -22.8044  -29.2152   19.8424 H   0  0  0  0  0  0
  -25.1266  -36.1921   25.0815 H   0  0  0  0  0  0
  -21.0010  -28.3338   24.1354 H   0  0  0  0  0  0
  -20.5616  -26.2363   23.3648 H   0  0  0  0  0  0
  -21.6647  -26.7406   22.1259 H   0  0  0  0  0  0
  -19.6930  -25.6308   21.1247 H   0  0  0  0  0  0
  -19.6729  -27.3196   20.6718 H   0  0  0  0  0  0
  -17.4226  -26.6737   21.3964 H   0  0  0  0  0  0
  -18.0302  -26.0090   22.8967 H   0  0  0  0  0  0
  -19.7948  -30.7242   24.2333 H   0  0  0  0  0  0
  -17.5035  -31.6266   24.5192 H   0  0  0  0  0  0
  -15.5378  -30.3007   23.7636 H   0  0  0  0  0  0
  -15.8699  -28.0834   22.7094 H   0  0  0  0  0  0
  -24.5831  -30.7153   25.7785 H   0  0  0  0  0  0
  -24.8851  -32.2975   26.4847 H   0  0  0  0  0  0
  -25.7948  -30.9001   27.0277 H   0  0  0  0  0  0
  -26.2952  -29.6754   24.1289 H   0  0  0  0  0  0
  -27.3901  -29.7275   25.4911 H   0  0  0  0  0  0
  -27.8886  -30.4252   23.9670 H   0  0  0  0  0  0
  -27.2617  -33.3634   26.2144 H   0  0  0  0  0  0
  -28.3802  -32.6989   25.0335 H   0  0  0  0  0  0
  -28.0757  -31.8484   26.5414 H   0  0  0  0  0  0
  -28.2560  -38.0126   24.7552 H   0  0  0  0  0  0
  -28.1120  -36.2670   24.6148 H   0  0  0  0  0  0
  -27.2351  -37.1305   25.8854 H   0  0  0  0  0  0
  -20.9500  -29.8800   21.6779 H   0  0  0  0  0  0
  -26.0146  -38.2841   24.1468 H   0  0  0  0  0  0
  -27.0558  -18.3721   18.1643 H   0  0  0  0  0  0
  -28.3979  -16.5125   18.9411 H   0  0  0  0  0  0
  -31.1585  -23.2625   23.4989 H   0  0  0  0  0  0
  -29.6040  -22.7180   24.0946 H   0  0  0  0  0  0
  -29.7120  -23.9323   22.8473 H   0  0  0  0  0  0
  -27.5927  -20.9851   22.6018 H   0  0  0  0  0  0
  -26.7891  -21.9035   21.3208 H   0  0  0  0  0  0
  -27.6548  -22.7247   22.5844 H   0  0  0  0  0  0
  -28.4786  -23.9130   18.1098 H   0  0  0  0  0  0
  -27.2271  -22.9538   18.8131 H   0  0  0  0  0  0
  -28.7246  -22.1857   18.2479 H   0  0  0  0  0  0
  -30.4745  -24.4699   19.1117 H   0  0  0  0  0  0
  -30.8559  -22.7710   19.2711 H   0  0  0  0  0  0
  -31.0250  -23.8580   20.6374 H   0  0  0  0  0  0
  -30.2148  -20.9412   22.6872 H   0  0  0  0  0  0
  -31.1062  -21.8961   21.5972 H   0  0  0  0  0  0
  -28.3426  -24.8163   21.7306 H   0  0  0  0  0  0
  -27.0964  -24.5039   20.6494 H   0  0  0  0  0  0
  -29.2436  -15.9633   21.7420 H   0  0  0  0  0  0
  1 25  1  0  0  0
  1 30  2  0  0  0
  1 85  1  0  0  0
  2  3  1  0  0  0
  2 25  1  0  0  0
  2 87  1  0  0  0
  2 88  1  0  0  0
  3  4  1  0  0  0
  3 89  1  0  0  0
  3 90  1  0  0  0
  4  5  1  0  0  0
  4 91  1  0  0  0
  4 92  1  0  0  0
  5  6  1  0  0  0
  5 26  1  0  0  0
  5 93  1  0  0  0
  6 25  1  0  0  0
  6 94  1  0  0  0
  6 95  1  0  0  0
  7  8  2  0  0  0
  7 26  1  0  0  0
  7 29  1  0  0  0
  8  9  1  0  0  0
  8 22  1  0  0  0
  9 10  1  0  0  0
  9 27  2  0  0  0
 10 11  2  0  0  0
 10 15  1  0  0  0
 11 12  1  0  0  0
 11 96  1  0  0  0
 12 13  2  0  0  0
 12 97  1  0  0  0
 13 14  1  0  0  0
 13 31  1  0  0  0
 14 15  2  0  0  0
 14 98  1  0  0  0
 15 99  1  0  0  0
 16 17  2  0  0  0
 16 21  1  0  0  0
 16 31  1  0  0  0
 17 18  1  0  0  0
 17100  1  0  0  0
 18 19  2  0  0  0
 18101  1  0  0  0
 19 20  1  0  0  0
 19 24  1  0  0  0
 20 21  2  0  0  0
 20102  1  0  0  0
 21 23  1  0  0  0
 22 28  1  0  0  0
 22 32  2  0  0  0
 26 27  1  0  0  0
 28103  1  0  0  0
 28104  1  0  0  0
 29105  1  0  0  0
 29106  1  0  0  0
 33 34  1  0  0  0
 33 66  1  0  0  0
 33 70  2  0  0  0
 34 36  1  0  0  0
 34 59  1  0  0  0
 34107  1  0  0  0
 35 44  2  0  0  0
 35 45  1  0  0  0
 35 68  1  0  0  0
 36 56  1  0  0  0
 36108  1  0  0  0
 37 39  1  0  0  0
 37 47  1  0  0  0
 37 66  1  0  0  0
 37109  1  0  0  0
 38 43  2  0  0  0
 38 46  1  0  0  0
 38 47  1  0  0  0
 39 64  1  0  0  0
 39 67  2  0  0  0
 40 52  1  0  0  0
 40 53  2  0  0  0
 40 58  1  0  0  0
 41110  1  0  0  0
 41111  1  0  0  0
 41112  1  0  0  0
 41 48  1  0  0  0
 42 43  1  0  0  0
 42 66  1  0  0  0
 42113  1  0  0  0
 42114  1  0  0  0
 43 44  1  0  0  0
 44115  1  0  0  0
 45 46  2  0  0  0
 45116  1  0  0  0
 46117  1  0  0  0
 47118  1  0  0  0
 47119  1  0  0  0
 48 56  1  0  0  0
 48 65  1  0  0  0
 48120  1  0  0  0
 49 50  1  0  0  0
 49 53  1  0  0  0
 49 64  1  0  0  0
 49121  1  0  0  0
 50 51  1  0  0  0
 50122  1  0  0  0
 50123  1  0  0  0
 51 52  1  0  0  0
 51124  1  0  0  0
 51125  1  0  0  0
 52126  1  0  0  0
 52127  1  0  0  0
 53 54  1  0  0  0
 54 55  2  0  0  0
 54128  1  0  0  0
 55 57  1  0  0  0
 55129  1  0  0  0
 56 69  2  0  0  0
 57 58  2  0  0  0
 57130  1  0  0  0
 58131  1  0  0  0
 59 60  1  0  0  0
 59 61  1  0  0  0
 59 62  1  0  0  0
 60132  1  0  0  0
 60133  1  0  0  0
 60134  1  0  0  0
 61135  1  0  0  0
 61136  1  0  0  0
 61137  1  0  0  0
 62138  1  0  0  0
 62139  1  0  0  0
 62140  1  0  0  0
 63 65  1  0  0  0
 63141  1  0  0  0
 63142  1  0  0  0
 63143  1  0  0  0
 64144  1  0  0  0
 65145  1  0  0  0
 68 81  1  0  0  0
 71 72  2  0  0  0
 71 73  1  0  0  0
 71146  1  0  0  0
 72 75  1  0  0  0
 72147  1  0  0  0
 73 74  2  0  0  0
 73 86  1  0  0  0
 74 82  1  0  0  0
 74 84  1  0  0  0
 75 84  2  0  0  0
 75 85  1  0  0  0
 76 80  1  0  0  0
 76148  1  0  0  0
 76149  1  0  0  0
 76150  1  0  0  0
 77151  1  0  0  0
 77152  1  0  0  0
 77153  1  0  0  0
 77 82  1  0  0  0
 78154  1  0  0  0
 78155  1  0  0  0
 78156  1  0  0  0
 78 83  1  0  0  0
 79 83  1  0  0  0
 79157  1  0  0  0
 79158  1  0  0  0
 79159  1  0  0  0
 80 82  1  0  0  0
 80160  1  0  0  0
 80161  1  0  0  0
 81 83  1  0  0  0
 81162  1  0  0  0
 81163  1  0  0  0
 82 83  1  0  0  0
 85164  1  0  0  0
M  ISO  4   1 100  68 101  81 101  85 100
M  END
> <chiral flag>
0

> <version>
0

> <s_m_source_file>
/data/baiqing/PycharmProjects/Reinvent-master-3.2/result/LINK_invent/BTK/process_docking_weight1_custom_product_contain_oxygen_bond_distance_aromatic_linkinvent_7_9_3/rearranged_h_0139.sdf

> <i_m_source_file_index>
94

> <r_mmod_Potential_Energy-OPLS-2005>
751.424865722656

> <r_mmod_Stretch_Energy-OPLS-2005>
378.415710449219

> <r_mmod_Bend_Energy-OPLS-2005>
337.078063964844

> <r_mmod_Torsional_Energy-OPLS-2005>
312.066070556641

> <r_mmod_Improper_Torsional_Energy-OPLS-2005>
8.02890777587891

> <r_mmod_Van_der_Waal_Energy-OPLS-2005>
147.49365234375

> <r_mmod_Electrostatic_Energy-OPLS-2005>
-451.559600830078

> <r_mmod_Solvation_Energy-OPLS-2005>
-209.760925292969

> <b_mmod_Minimization_Converged-OPLS-2005>
0

> <r_mmod_RMS_Derivative-OPLS-2005>
9.03741550445557

$$$$
94
                    3D
 Structure written by MMmdl.
170178  0  0  1  0            999 V2000
  -30.6802  -14.4718   20.4811 C   0  0  0  0  0  0
  -30.4184  -12.2890   19.4250 C   0  0  0  0  0  0
  -29.5036  -12.5107   18.2030 C   0  0  0  0  0  0
  -28.0185  -12.3851   18.5989 C   0  0  0  0  0  0
  -27.6580  -13.2129   19.8613 C   0  0  2  0  0  0
  -28.6976  -12.9998   20.9844 C   0  0  0  0  0  0
  -25.2563  -13.8171   20.5618 C   0  0  0  0  0  0
  -24.1841  -13.0477   20.9162 C   0  0  0  0  0  0
  -24.6403  -11.6929   20.8724 C   0  0  0  0  0  0
  -23.9059  -10.4321   21.0421 C   0  0  0  0  0  0
  -24.3623   -9.4224   21.9187 C   0  0  0  0  0  0
  -23.6314   -8.2247   22.0747 C   0  0  0  0  0  0
  -22.4303   -8.0266   21.3529 C   0  0  0  0  0  0
  -21.9926   -9.0250   20.4645 C   0  0  0  0  0  0
  -22.7245  -10.2133   20.3056 C   0  0  0  0  0  0
  -21.6862   -6.0745   22.5289 C   0  0  0  0  0  0
  -21.4011   -6.5643   23.8224 C   0  0  0  0  0  0
  -21.3661   -5.6789   24.9177 C   0  0  0  0  0  0
  -21.6024   -4.3049   24.7235 C   0  0  0  0  0  0
  -21.8821   -3.8153   23.4356 C   0  0  0  0  0  0
  -21.9192   -4.6971   22.3413 C   0  0  0  0  0  0
  -22.7837  -13.5247   21.1817 C   0  0  0  0  0  0
  -22.1659   -4.2166   21.0994 F   0  0  0  0  0  0
  -21.5629   -3.4519   25.7745 F   0  0  0  0  0  0
  -30.0367  -13.2772   20.4391 N   0  0  0  0  0  0
  -26.3005  -12.9349   20.3268 N   0  0  0  0  0  0
  -25.9321  -11.6511   20.5731 N   0  0  0  0  0  0
  -22.0464  -12.8270   22.0365 N   0  0  0  0  0  0
  -25.4306  -15.1909   20.4013 N   0  0  0  0  0  0
  -31.8365  -14.6383   20.0826 O   0  0  0  0  0  0
  -21.6630   -6.8889   21.4258 O   0  0  0  0  0  0
  -22.3524  -14.5568   20.6660 O   0  0  0  0  0  0
  -24.6075  -31.8721   23.2101 C   0  0  0  0  0  0
  -25.8990  -32.4859   23.8383 C   0  0  1  0  0  0
  -27.2460  -27.4718   20.1222 C   0  0  0  0  0  0
  -25.5848  -33.8651   24.2337 N   0  0  0  0  0  0
  -23.3972  -30.4938   21.5451 C   0  0  2  0  0  0
  -24.8528  -28.9615   20.1196 C   0  0  0  0  0  0
  -22.7416  -29.4655   22.4952 C   0  0  0  0  0  0
  -18.0259  -28.1377   22.8481 C   0  0  0  0  0  0
  -24.1495  -36.7342   23.2639 C   0  0  0  0  0  0
  -25.9245  -30.8491   21.3647 C   0  0  0  0  0  0
  -26.0056  -29.4816   20.7252 C   0  0  0  0  0  0
  -27.2063  -28.7420   20.7322 C   0  0  0  0  0  0
  -26.0925  -26.9763   19.4811 C   0  0  0  0  0  0
  -24.8872  -27.6995   19.4999 C   0  0  0  0  0  0
  -23.6120  -29.8215   20.1603 C   0  0  0  0  0  0
  -25.4116  -36.3161   24.0354 C   0  0  1  0  0  0
  -20.5856  -28.3634   23.1324 C   0  0  2  0  0  0
  -20.6774  -26.9380   22.5406 C   0  0  0  0  0  0
  -19.5764  -26.6379   21.5206 C   0  0  0  0  0  0
  -18.1931  -26.7920   22.1600 C   0  0  0  0  0  0
  -19.1513  -28.8828   23.2882 C   0  0  0  0  0  0
  -18.9442  -30.1436   23.8895 C   0  0  0  0  0  0
  -17.6448  -30.6583   24.0573 C   0  0  0  0  0  0
  -25.9024  -34.9511   23.5154 C   0  0  0  0  0  0
  -16.5335  -29.9092   23.6336 C   0  0  0  0  0  0
  -16.7243  -28.6509   23.0349 C   0  0  0  0  0  0
  -26.4434  -31.6615   25.0698 C   0  0  0  0  0  0
  -25.3725  -31.3680   26.1466 C   0  0  0  0  0  0
  -27.0236  -30.3054   24.6052 C   0  0  0  0  0  0
  -27.6030  -32.4305   25.7456 C   0  0  0  0  0  0
  -27.5597  -37.1842   24.8470 C   0  0  0  0  0  0
  -21.4138  -29.3010   22.3750 N   0  0  0  0  0  0
  -26.4311  -37.3835   23.9415 N   0  0  0  0  0  0
  -24.6585  -31.0908   22.0952 N   0  0  0  0  0  0
  -23.4255  -28.8217   23.2954 O   0  0  0  0  0  0
  -28.3889  -26.7125   20.0895 O   0  0  0  0  0  0
  -26.5618  -34.8954   22.4735 O   0  0  0  0  0  0
  -23.5284  -32.1390   23.7559 O   0  0  0  0  0  0
  -29.5862  -17.9372   20.9385 C   0  0  0  0  0  0
  -30.2157  -16.9841   18.7950 C   0  0  0  0  0  0
  -29.9227  -16.8060   20.1698 C   0  0  0  0  0  0
  -29.5771  -19.2370   20.3797 C   0  0  0  0  0  0
  -29.8898  -19.4154   18.9997 C   0  0  0  0  0  0
  -30.1996  -18.2696   18.2149 C   0  0  0  0  0  0
  -29.4264  -22.5179   22.3219 C   0  0  0  0  0  0
  -28.9338  -22.3371   17.0521 C   0  0  0  0  0  0
  -27.4805  -24.2372   20.8020 C   0  0  0  0  0  0
  -27.5823  -25.1127   23.1481 C   0  0  0  0  0  0
  -29.6605  -24.0243   22.1423 C   0  0  0  0  0  0
  -29.7972  -21.6219   21.1305 C   0  0  0  0  0  0
  -29.5256  -20.9244   17.1305 C   0  0  0  0  0  0
  -28.9134  -26.3074   21.3621 C   0  0  0  0  0  0
  -28.4043  -24.9064   21.8527 C   0  0  0  0  0  0
  -29.8966  -15.5176   20.7901 N   0  0  0  0  0  0
  -29.2098  -20.2889   21.2431 N   0  0  0  0  0  0
  -28.9381  -22.0468   23.3552 O   0  0  0  0  0  0
  -29.8820  -20.7016   18.4911 O   0  0  0  0  0  0
  -30.4987  -18.3819   16.8959 F   0  0  0  0  0  0
  -31.4639  -12.3851   19.1309 H   0  0  0  0  0  0
  -30.3012  -11.2797   19.8237 H   0  0  0  0  0  0
  -29.7443  -11.7872   17.4232 H   0  0  0  0  0  0
  -29.6902  -13.4933   17.7686 H   0  0  0  0  0  0
  -27.8074  -11.3299   18.7670 H   0  0  0  0  0  0
  -27.3838  -12.6829   17.7628 H   0  0  0  0  0  0
  -27.6947  -14.2611   19.5637 H   0  0  0  0  0  0
  -28.6528  -11.9728   21.3478 H   0  0  0  0  0  0
  -28.4639  -13.6379   21.8374 H   0  0  0  0  0  0
  -25.2790   -9.5679   22.4732 H   0  0  0  0  0  0
  -24.0023   -7.4631   22.7457 H   0  0  0  0  0  0
  -21.0848   -8.8780   19.8960 H   0  0  0  0  0  0
  -22.3739  -10.9651   19.6133 H   0  0  0  0  0  0
  -21.2001   -7.6151   23.9743 H   0  0  0  0  0  0
  -21.1477   -6.0507   25.9078 H   0  0  0  0  0  0
  -22.0607   -2.7617   23.2855 H   0  0  0  0  0  0
  -22.4074  -11.9979   22.4842 H   0  0  0  0  0  0
  -21.1054  -13.1259   22.2501 H   0  0  0  0  0  0
  -24.6680  -15.8524   20.5010 H   0  0  0  0  0  0
  -26.2861  -15.6194   20.0722 H   0  0  0  0  0  0
  -26.7083  -32.5609   23.1175 H   0  0  0  0  0  0
  -25.0040  -33.9820   25.0516 H   0  0  0  0  0  0
  -22.6823  -31.3056   21.4043 H   0  0  0  0  0  0
  -23.3772  -35.9656   23.3333 H   0  0  0  0  0  0
  -24.3592  -36.8917   22.2043 H   0  0  0  0  0  0
  -23.7226  -37.6554   23.6617 H   0  0  0  0  0  0
  -26.0497  -31.6106   20.5947 H   0  0  0  0  0  0
  -26.8127  -30.9025   21.9829 H   0  0  0  0  0  0
  -28.0992  -29.1500   21.1883 H   0  0  0  0  0  0
  -26.1364  -26.0190   18.9800 H   0  0  0  0  0  0
  -24.0059  -27.2900   19.0221 H   0  0  0  0  0  0
  -23.7129  -30.5932   19.3957 H   0  0  0  0  0  0
  -22.7422  -29.2290   19.8664 H   0  0  0  0  0  0
  -25.1302  -36.2037   25.0848 H   0  0  0  0  0  0
  -20.9930  -28.3195   24.1449 H   0  0  0  0  0  0
  -20.5709  -26.2237   23.3590 H   0  0  0  0  0  0
  -21.6645  -26.7450   22.1190 H   0  0  0  0  0  0
  -19.6921  -25.6296   21.1223 H   0  0  0  0  0  0
  -19.6705  -27.3225   20.6782 H   0  0  0  0  0  0
  -17.4194  -26.6639   21.4005 H   0  0  0  0  0  0
  -18.0305  -26.0064   22.8987 H   0  0  0  0  0  0
  -19.7913  -30.7243   24.2277 H   0  0  0  0  0  0
  -17.5004  -31.6275   24.5163 H   0  0  0  0  0  0
  -15.5340  -30.3016   23.7671 H   0  0  0  0  0  0
  -15.8624  -28.0866   22.7064 H   0  0  0  0  0  0
  -24.5918  -30.7008   25.7812 H   0  0  0  0  0  0
  -24.8894  -32.2807   26.4949 H   0  0  0  0  0  0
  -25.8105  -30.8824   27.0198 H   0  0  0  0  0  0
  -26.2723  -29.6870   24.1131 H   0  0  0  0  0  0
  -27.4026  -29.7249   25.4478 H   0  0  0  0  0  0
  -27.8581  -30.4394   23.9171 H   0  0  0  0  0  0
  -27.2671  -33.3590   26.2085 H   0  0  0  0  0  0
  -28.3814  -32.6879   25.0264 H   0  0  0  0  0  0
  -28.0733  -31.8376   26.5316 H   0  0  0  0  0  0
  -28.2650  -38.0123   24.7550 H   0  0  0  0  0  0
  -28.1052  -36.2651   24.6255 H   0  0  0  0  0  0
  -27.2309  -37.1485   25.8875 H   0  0  0  0  0  0
  -20.9274  -29.8739   21.6998 H   0  0  0  0  0  0
  -26.0221  -38.2927   24.1377 H   0  0  0  0  0  0
  -29.3575  -17.8042   21.9883 H   0  0  0  0  0  0
  -30.4422  -16.1413   18.1573 H   0  0  0  0  0  0
  -28.5804  -22.5805   16.0476 H   0  0  0  0  0  0
  -29.6641  -23.0927   17.3436 H   0  0  0  0  0  0
  -28.0819  -22.4251   17.7269 H   0  0  0  0  0  0
  -26.5342  -24.7646   20.7369 H   0  0  0  0  0  0
  -27.2074  -23.2106   21.0467 H   0  0  0  0  0  0
  -27.9321  -24.2243   19.8077 H   0  0  0  0  0  0
  -26.7581  -25.8127   22.9934 H   0  0  0  0  0  0
  -28.1938  -25.5221   23.9541 H   0  0  0  0  0  0
  -27.1471  -24.1838   23.5148 H   0  0  0  0  0  0
  -30.3714  -24.1258   21.3225 H   0  0  0  0  0  0
  -30.1806  -24.3960   23.0253 H   0  0  0  0  0  0
  -30.8840  -21.5431   21.0574 H   0  0  0  0  0  0
  -29.4452  -22.1338   20.2334 H   0  0  0  0  0  0
  -30.3938  -20.8463   16.4745 H   0  0  0  0  0  0
  -28.7722  -20.2067   16.8000 H   0  0  0  0  0  0
  -29.9973  -26.2948   21.2527 H   0  0  0  0  0  0
  -28.7508  -27.0687   22.1277 H   0  0  0  0  0  0
  -29.0738  -15.3006   21.3295 H   0  0  0  0  0  0
  -28.9427  -20.0618   22.1981 H   0  0  0  0  0  0
  1 25  1  0  0  0
  1 30  2  0  0  0
  1 86  1  0  0  0
  2  3  1  0  0  0
  2 25  1  0  0  0
  2 91  1  0  0  0
  2 92  1  0  0  0
  3  4  1  0  0  0
  3 93  1  0  0  0
  3 94  1  0  0  0
  4  5  1  0  0  0
  4 95  1  0  0  0
  4 96  1  0  0  0
  5  6  1  0  0  0
  5 26  1  0  0  0
  5 97  1  0  0  0
  6 25  1  0  0  0
  6 98  1  0  0  0
  6 99  1  0  0  0
  7  8  2  0  0  0
  7 26  1  0  0  0
  7 29  1  0  0  0
  8  9  1  0  0  0
  8 22  1  0  0  0
  9 10  1  0  0  0
  9 27  2  0  0  0
 10 11  2  0  0  0
 10 15  1  0  0  0
 11 12  1  0  0  0
 11100  1  0  0  0
 12 13  2  0  0  0
 12101  1  0  0  0
 13 14  1  0  0  0
 13 31  1  0  0  0
 14 15  2  0  0  0
 14102  1  0  0  0
 15103  1  0  0  0
 16 17  2  0  0  0
 16 21  1  0  0  0
 16 31  1  0  0  0
 17 18  1  0  0  0
 17104  1  0  0  0
 18 19  2  0  0  0
 18105  1  0  0  0
 19 20  1  0  0  0
 19 24  1  0  0  0
 20 21  2  0  0  0
 20106  1  0  0  0
 21 23  1  0  0  0
 22 28  1  0  0  0
 22 32  2  0  0  0
 26 27  1  0  0  0
 28107  1  0  0  0
 28108  1  0  0  0
 29109  1  0  0  0
 29110  1  0  0  0
 33 34  1  0  0  0
 33 66  1  0  0  0
 33 70  2  0  0  0
 34 36  1  0  0  0
 34 59  1  0  0  0
 34111  1  0  0  0
 35 44  2  0  0  0
 35 45  1  0  0  0
 35 68  1  0  0  0
 36 56  1  0  0  0
 36112  1  0  0  0
 37 39  1  0  0  0
 37 47  1  0  0  0
 37 66  1  0  0  0
 37113  1  0  0  0
 38 43  2  0  0  0
 38 46  1  0  0  0
 38 47  1  0  0  0
 39 64  1  0  0  0
 39 67  2  0  0  0
 40 52  1  0  0  0
 40 53  2  0  0  0
 40 58  1  0  0  0
 41114  1  0  0  0
 41115  1  0  0  0
 41116  1  0  0  0
 41 48  1  0  0  0
 42 43  1  0  0  0
 42 66  1  0  0  0
 42117  1  0  0  0
 42118  1  0  0  0
 43 44  1  0  0  0
 44119  1  0  0  0
 45 46  2  0  0  0
 45120  1  0  0  0
 46121  1  0  0  0
 47122  1  0  0  0
 47123  1  0  0  0
 48 56  1  0  0  0
 48 65  1  0  0  0
 48124  1  0  0  0
 49 50  1  0  0  0
 49 53  1  0  0  0
 49 64  1  0  0  0
 49125  1  0  0  0
 50 51  1  0  0  0
 50126  1  0  0  0
 50127  1  0  0  0
 51 52  1  0  0  0
 51128  1  0  0  0
 51129  1  0  0  0
 52130  1  0  0  0
 52131  1  0  0  0
 53 54  1  0  0  0
 54 55  2  0  0  0
 54132  1  0  0  0
 55 57  1  0  0  0
 55133  1  0  0  0
 56 69  2  0  0  0
 57 58  2  0  0  0
 57134  1  0  0  0
 58135  1  0  0  0
 59 60  1  0  0  0
 59 61  1  0  0  0
 59 62  1  0  0  0
 60136  1  0  0  0
 60137  1  0  0  0
 60138  1  0  0  0
 61139  1  0  0  0
 61140  1  0  0  0
 61141  1  0  0  0
 62142  1  0  0  0
 62143  1  0  0  0
 62144  1  0  0  0
 63 65  1  0  0  0
 63145  1  0  0  0
 63146  1  0  0  0
 63147  1  0  0  0
 64148  1  0  0  0
 65149  1  0  0  0
 68 84  1  0  0  0
 71 73  2  0  0  0
 71 74  1  0  0  0
 71150  1  0  0  0
 72 73  1  0  0  0
 72 76  2  0  0  0
 72151  1  0  0  0
 73 86  1  0  0  0
 74 75  2  0  0  0
 74 87  1  0  0  0
 75 76  1  0  0  0
 75 89  1  0  0  0
 76 90  1  0  0  0
 77 81  1  0  0  0
 77 82  1  0  0  0
 77 88  2  0  0  0
 78 83  1  0  0  0
 78152  1  0  0  0
 78153  1  0  0  0
 78154  1  0  0  0
 79155  1  0  0  0
 79156  1  0  0  0
 79157  1  0  0  0
 79 85  1  0  0  0
 80 85  1  0  0  0
 80158  1  0  0  0
 80159  1  0  0  0
 80160  1  0  0  0
 81 85  1  0  0  0
 81161  1  0  0  0
 81162  1  0  0  0
 82 87  1  0  0  0
 82163  1  0  0  0
 82164  1  0  0  0
 83 89  1  0  0  0
 83165  1  0  0  0
 83166  1  0  0  0
 84 85  1  0  0  0
 84167  1  0  0  0
 84168  1  0  0  0
 86169  1  0  0  0
 87170  1  0  0  0
M  ISO  4   1 100  68 101  84 101  86 100
M  END
> <chiral flag>
0

> <version>
0

> <s_m_source_file>
/data/baiqing/PycharmProjects/Reinvent-master-3.2/result/LINK_invent/BTK/process_docking_weight1_custom_product_contain_oxygen_bond_distance_aromatic_linkinvent_7_9_3/rearranged_h_0139.sdf

> <i_m_source_file_index>
95

> <r_mmod_Potential_Energy-OPLS-2005>
85.58740234375

> <r_mmod_Stretch_Energy-OPLS-2005>
41.0181770324707

> <r_mmod_Bend_Energy-OPLS-2005>
120.644721984863

> <r_mmod_Torsional_Energy-OPLS-2005>
271.398468017578

> <r_mmod_Improper_Torsional_Energy-OPLS-2005>
8.36469554901123

> <r_mmod_Van_der_Waal_Energy-OPLS-2005>
165.440795898438

> <r_mmod_Electrostatic_Energy-OPLS-2005>
-310.172912597656

> <r_mmod_Solvation_Energy-OPLS-2005>
-224.473648071289

> <b_mmod_Minimization_Converged-OPLS-2005>
0

> <r_mmod_RMS_Derivative-OPLS-2005>
5.15135622024536

$$$$
95
                    3D
 Structure written by MMmdl.
161169  0  0  1  0            999 V2000
  -30.7210  -14.4632   20.6312 C   0  0  0  0  0  0
  -30.4268  -12.3218   19.4235 C   0  0  0  0  0  0
  -29.5000  -12.5282   18.2088 C   0  0  0  0  0  0
  -28.0215  -12.3750   18.6157 C   0  0  0  0  0  0
  -27.6626  -13.2074   19.8758 C   0  0  2  0  0  0
  -28.7028  -12.9865   20.9966 C   0  0  0  0  0  0
  -25.2582  -13.8152   20.5666 C   0  0  0  0  0  0
  -24.1836  -13.0438   20.9172 C   0  0  0  0  0  0
  -24.6377  -11.6898   20.8713 C   0  0  0  0  0  0
  -23.9035  -10.4286   21.0367 C   0  0  0  0  0  0
  -24.3594   -9.4209   21.9147 C   0  0  0  0  0  0
  -23.6286   -8.2246   22.0730 C   0  0  0  0  0  0
  -22.4269   -8.0266   21.3532 C   0  0  0  0  0  0
  -21.9888   -9.0224   20.4631 C   0  0  0  0  0  0
  -22.7203  -10.2109   20.3026 C   0  0  0  0  0  0
  -21.6855   -6.0720   22.5276 C   0  0  0  0  0  0
  -21.4023   -6.5623   23.8212 C   0  0  0  0  0  0
  -21.3666   -5.6780   24.9172 C   0  0  0  0  0  0
  -21.6041   -4.3044   24.7224 C   0  0  0  0  0  0
  -21.8821   -3.8132   23.4348 C   0  0  0  0  0  0
  -21.9198   -4.6946   22.3403 C   0  0  0  0  0  0
  -22.7853  -13.5230   21.1841 C   0  0  0  0  0  0
  -22.1657   -4.2128   21.0979 F   0  0  0  0  0  0
  -21.5629   -3.4535   25.7735 F   0  0  0  0  0  0
  -30.0371  -13.2978   20.4532 N   0  0  0  0  0  0
  -26.3017  -12.9317   20.3352 N   0  0  0  0  0  0
  -25.9312  -11.6475   20.5754 N   0  0  0  0  0  0
  -22.0484  -12.8231   22.0403 N   0  0  0  0  0  0
  -25.4316  -15.1869   20.4058 N   0  0  0  0  0  0
  -31.8412  -14.6603   20.1483 O   0  0  0  0  0  0
  -21.6637   -6.8856   21.4232 O   0  0  0  0  0  0
  -22.3526  -14.5529   20.6684 O   0  0  0  0  0  0
  -24.6167  -31.8668   23.2121 C   0  0  0  0  0  0
  -25.9070  -32.4821   23.8396 C   0  0  1  0  0  0
  -27.2372  -27.4194   20.0945 C   0  0  0  0  0  0
  -25.5933  -33.8625   24.2332 N   0  0  0  0  0  0
  -23.4053  -30.4927   21.5509 C   0  0  2  0  0  0
  -24.8488  -28.9537   20.1193 C   0  0  0  0  0  0
  -22.7412  -29.4674   22.4972 C   0  0  0  0  0  0
  -18.0279  -28.1385   22.8502 C   0  0  0  0  0  0
  -24.1480  -36.7297   23.2648 C   0  0  0  0  0  0
  -25.9361  -30.8255   21.3703 C   0  0  0  0  0  0
  -26.0093  -29.4601   20.7136 C   0  0  0  0  0  0
  -27.2008  -28.6992   20.7001 C   0  0  0  0  0  0
  -26.0455  -26.9210   19.5149 C   0  0  0  0  0  0
  -24.8601  -27.6823   19.5218 C   0  0  0  0  0  0
  -23.6157  -29.8281   20.1637 C   0  0  0  0  0  0
  -25.4108  -36.3101   24.0340 C   0  0  1  0  0  0
  -20.5870  -28.3681   23.1308 C   0  0  2  0  0  0
  -20.6773  -26.9415   22.5415 C   0  0  0  0  0  0
  -19.5757  -26.6394   21.5213 C   0  0  0  0  0  0
  -18.1933  -26.7944   22.1611 C   0  0  0  0  0  0
  -19.1532  -28.8846   23.2909 C   0  0  0  0  0  0
  -18.9458  -30.1452   23.8917 C   0  0  0  0  0  0
  -17.6459  -30.6599   24.0570 C   0  0  0  0  0  0
  -25.9034  -34.9476   23.5117 C   0  0  0  0  0  0
  -16.5347  -29.9101   23.6334 C   0  0  0  0  0  0
  -16.7265  -28.6514   23.0365 C   0  0  0  0  0  0
  -26.4512  -31.6627   25.0738 C   0  0  0  0  0  0
  -25.3802  -31.3735   26.1506 C   0  0  0  0  0  0
  -27.0385  -30.3073   24.6164 C   0  0  0  0  0  0
  -27.6062  -32.4390   25.7492 C   0  0  0  0  0  0
  -27.5583  -37.1809   24.8467 C   0  0  0  0  0  0
  -21.4146  -29.3043   22.3697 N   0  0  0  0  0  0
  -26.4292  -37.3784   23.9412 N   0  0  0  0  0  0
  -24.6702  -31.0761   22.1029 N   0  0  0  0  0  0
  -23.4162  -28.8214   23.3033 O   0  0  0  0  0  0
  -28.4363  -26.7265   20.1132 O   0  0  0  0  0  0
  -26.5571  -34.8928   22.4668 O   0  0  0  0  0  0
  -23.5361  -32.1420   23.7526 O   0  0  0  0  0  0
  -31.8686  -18.4145   22.6620 C   0  0  0  0  0  0
  -31.2320  -19.4775   21.9869 C   0  0  0  0  0  0
  -31.5017  -17.0755   22.4070 C   0  0  0  0  0  0
  -29.8211  -17.8639   20.8297 C   0  0  0  0  0  0
  -30.2097  -19.2129   21.0480 C   0  0  0  0  0  0
  -30.4704  -16.7883   21.4859 C   0  0  0  0  0  0
  -28.8195  -24.2727   20.3583 C   0  0  0  0  0  0
  -29.4981  -22.8322   18.3760 C   0  0  0  0  0  0
  -27.3189  -22.4352   19.5526 C   0  0  0  0  0  0
  -29.5912  -20.3158   20.1724 C   0  0  0  0  0  0
  -28.5935  -25.4786   19.4071 C   0  0  0  0  0  0
  -29.5097  -21.7832   20.7125 C   0  0  0  0  0  0
  -28.8003  -22.8259   19.7601 C   0  0  0  0  0  0
  -30.0427  -15.4434   21.2613 N   0  0  0  0  0  0
  -28.9848  -24.4537   21.5703 O   0  0  0  0  0  0
  -31.4690  -12.4329   19.1194 H   0  0  0  0  0  0
  -30.3345  -11.3060   19.8112 H   0  0  0  0  0  0
  -29.7513  -11.8225   17.4171 H   0  0  0  0  0  0
  -29.6645  -13.5236   17.7933 H   0  0  0  0  0  0
  -27.8345  -11.3172   18.8026 H   0  0  0  0  0  0
  -27.3729  -12.6540   17.7836 H   0  0  0  0  0  0
  -27.7074  -14.2568   19.5847 H   0  0  0  0  0  0
  -28.6789  -11.9487   21.3333 H   0  0  0  0  0  0
  -28.4526  -13.5802   21.8760 H   0  0  0  0  0  0
  -25.2729   -9.5698   22.4732 H   0  0  0  0  0  0
  -23.9995   -7.4631   22.7450 H   0  0  0  0  0  0
  -21.0817   -8.8726   19.8947 H   0  0  0  0  0  0
  -22.3629  -10.9639   19.6145 H   0  0  0  0  0  0
  -21.2018   -7.6135   23.9708 H   0  0  0  0  0  0
  -21.1494   -6.0512   25.9076 H   0  0  0  0  0  0
  -22.0602   -2.7595   23.2855 H   0  0  0  0  0  0
  -22.4107  -11.9906   22.4819 H   0  0  0  0  0  0
  -21.1086  -13.1235   22.2573 H   0  0  0  0  0  0
  -24.6640  -15.8433   20.4991 H   0  0  0  0  0  0
  -26.2812  -15.6205   20.0673 H   0  0  0  0  0  0
  -26.7144  -32.5501   23.1151 H   0  0  0  0  0  0
  -25.0179  -33.9792   25.0543 H   0  0  0  0  0  0
  -22.6973  -31.3123   21.4118 H   0  0  0  0  0  0
  -23.3749  -35.9624   23.3318 H   0  0  0  0  0  0
  -24.3581  -36.8896   22.2061 H   0  0  0  0  0  0
  -23.7214  -37.6499   23.6659 H   0  0  0  0  0  0
  -26.0653  -31.5964   20.6088 H   0  0  0  0  0  0
  -26.8173  -30.8667   21.9987 H   0  0  0  0  0  0
  -28.0966  -29.0901   21.1625 H   0  0  0  0  0  0
  -25.9832  -25.9413   19.0700 H   0  0  0  0  0  0
  -23.9604  -27.2803   19.0772 H   0  0  0  0  0  0
  -23.7395  -30.6066   19.4089 H   0  0  0  0  0  0
  -22.7366  -29.2588   19.8559 H   0  0  0  0  0  0
  -25.1293  -36.1964   25.0830 H   0  0  0  0  0  0
  -20.9972  -28.3245   24.1428 H   0  0  0  0  0  0
  -20.5701  -26.2279   23.3607 H   0  0  0  0  0  0
  -21.6644  -26.7491   22.1192 H   0  0  0  0  0  0
  -19.6918  -25.6307   21.1256 H   0  0  0  0  0  0
  -19.6705  -27.3194   20.6740 H   0  0  0  0  0  0
  -17.4218  -26.6723   21.3997 H   0  0  0  0  0  0
  -18.0311  -26.0067   22.8981 H   0  0  0  0  0  0
  -19.7928  -30.7266   24.2286 H   0  0  0  0  0  0
  -17.5018  -31.6280   24.5172 H   0  0  0  0  0  0
  -15.5351  -30.3013   23.7655 H   0  0  0  0  0  0
  -15.8660  -28.0834   22.7082 H   0  0  0  0  0  0
  -24.5910  -30.7162   25.7841 H   0  0  0  0  0  0
  -24.9096  -32.2908   26.5056 H   0  0  0  0  0  0
  -25.8168  -30.8811   27.0203 H   0  0  0  0  0  0
  -26.2943  -29.6767   24.1288 H   0  0  0  0  0  0
  -27.4217  -29.7384   25.4646 H   0  0  0  0  0  0
  -27.8749  -30.4389   23.9295 H   0  0  0  0  0  0
  -27.2636  -33.3641   26.2143 H   0  0  0  0  0  0
  -28.3822  -32.7053   25.0302 H   0  0  0  0  0  0
  -28.0818  -31.8511   26.5351 H   0  0  0  0  0  0
  -28.2611  -38.0100   24.7515 H   0  0  0  0  0  0
  -28.1069  -36.2635   24.6286 H   0  0  0  0  0  0
  -27.2319  -37.1447   25.8876 H   0  0  0  0  0  0
  -20.9299  -29.8731   21.6898 H   0  0  0  0  0  0
  -26.0179  -38.2858   24.1422 H   0  0  0  0  0  0
  -32.6600  -18.6268   23.3688 H   0  0  0  0  0  0
  -31.5574  -20.4901   22.1836 H   0  0  0  0  0  0
  -32.0113  -16.2767   22.9301 H   0  0  0  0  0  0
  -29.0406  -17.6506   20.1129 H   0  0  0  0  0  0
  -29.0083  -23.4997   17.6671 H   0  0  0  0  0  0
  -29.4720  -21.8530   17.9002 H   0  0  0  0  0  0
  -30.5445  -23.1331   18.4494 H   0  0  0  0  0  0
  -26.7662  -23.2059   19.0143 H   0  0  0  0  0  0
  -26.8098  -22.2789   20.5040 H   0  0  0  0  0  0
  -27.2183  -21.5196   18.9696 H   0  0  0  0  0  0
  -28.5979  -19.9801   19.8810 H   0  0  0  0  0  0
  -30.1881  -20.3032   19.2629 H   0  0  0  0  0  0
  -27.8011  -25.2600   18.6962 H   0  0  0  0  0  0
  -29.4975  -25.5803   18.8076 H   0  0  0  0  0  0
  -30.5200  -22.1397   20.9186 H   0  0  0  0  0  0
  -29.0026  -21.7785   21.6792 H   0  0  0  0  0  0
  -29.0823  -15.2254   21.4822 H   0  0  0  0  0  0
  1 25  1  0  0  0
  1 30  2  0  0  0
  1 84  1  0  0  0
  2  3  1  0  0  0
  2 25  1  0  0  0
  2 86  1  0  0  0
  2 87  1  0  0  0
  3  4  1  0  0  0
  3 88  1  0  0  0
  3 89  1  0  0  0
  4  5  1  0  0  0
  4 90  1  0  0  0
  4 91  1  0  0  0
  5  6  1  0  0  0
  5 26  1  0  0  0
  5 92  1  0  0  0
  6 25  1  0  0  0
  6 93  1  0  0  0
  6 94  1  0  0  0
  7  8  2  0  0  0
  7 26  1  0  0  0
  7 29  1  0  0  0
  8  9  1  0  0  0
  8 22  1  0  0  0
  9 10  1  0  0  0
  9 27  2  0  0  0
 10 11  2  0  0  0
 10 15  1  0  0  0
 11 12  1  0  0  0
 11 95  1  0  0  0
 12 13  2  0  0  0
 12 96  1  0  0  0
 13 14  1  0  0  0
 13 31  1  0  0  0
 14 15  2  0  0  0
 14 97  1  0  0  0
 15 98  1  0  0  0
 16 17  2  0  0  0
 16 21  1  0  0  0
 16 31  1  0  0  0
 17 18  1  0  0  0
 17 99  1  0  0  0
 18 19  2  0  0  0
 18100  1  0  0  0
 19 20  1  0  0  0
 19 24  1  0  0  0
 20 21  2  0  0  0
 20101  1  0  0  0
 21 23  1  0  0  0
 22 28  1  0  0  0
 22 32  2  0  0  0
 26 27  1  0  0  0
 28102  1  0  0  0
 28103  1  0  0  0
 29104  1  0  0  0
 29105  1  0  0  0
 33 34  1  0  0  0
 33 66  1  0  0  0
 33 70  2  0  0  0
 34 36  1  0  0  0
 34 59  1  0  0  0
 34106  1  0  0  0
 35 44  2  0  0  0
 35 45  1  0  0  0
 35 68  1  0  0  0
 36 56  1  0  0  0
 36107  1  0  0  0
 37 39  1  0  0  0
 37 47  1  0  0  0
 37 66  1  0  0  0
 37108  1  0  0  0
 38 43  2  0  0  0
 38 46  1  0  0  0
 38 47  1  0  0  0
 39 64  1  0  0  0
 39 67  2  0  0  0
 40 52  1  0  0  0
 40 53  2  0  0  0
 40 58  1  0  0  0
 41109  1  0  0  0
 41110  1  0  0  0
 41111  1  0  0  0
 41 48  1  0  0  0
 42 43  1  0  0  0
 42 66  1  0  0  0
 42112  1  0  0  0
 42113  1  0  0  0
 43 44  1  0  0  0
 44114  1  0  0  0
 45 46  2  0  0  0
 45115  1  0  0  0
 46116  1  0  0  0
 47117  1  0  0  0
 47118  1  0  0  0
 48 56  1  0  0  0
 48 65  1  0  0  0
 48119  1  0  0  0
 49 50  1  0  0  0
 49 53  1  0  0  0
 49 64  1  0  0  0
 49120  1  0  0  0
 50 51  1  0  0  0
 50121  1  0  0  0
 50122  1  0  0  0
 51 52  1  0  0  0
 51123  1  0  0  0
 51124  1  0  0  0
 52125  1  0  0  0
 52126  1  0  0  0
 53 54  1  0  0  0
 54 55  2  0  0  0
 54127  1  0  0  0
 55 57  1  0  0  0
 55128  1  0  0  0
 56 69  2  0  0  0
 57 58  2  0  0  0
 57129  1  0  0  0
 58130  1  0  0  0
 59 60  1  0  0  0
 59 61  1  0  0  0
 59 62  1  0  0  0
 60131  1  0  0  0
 60132  1  0  0  0
 60133  1  0  0  0
 61134  1  0  0  0
 61135  1  0  0  0
 61136  1  0  0  0
 62137  1  0  0  0
 62138  1  0  0  0
 62139  1  0  0  0
 63 65  1  0  0  0
 63140  1  0  0  0
 63141  1  0  0  0
 63142  1  0  0  0
 64143  1  0  0  0
 65144  1  0  0  0
 68 81  1  0  0  0
 71 72  2  0  0  0
 71 73  1  0  0  0
 71145  1  0  0  0
 72 75  1  0  0  0
 72146  1  0  0  0
 73 76  2  0  0  0
 73147  1  0  0  0
 74 75  2  0  0  0
 74 76  1  0  0  0
 74148  1  0  0  0
 75 80  1  0  0  0
 76 84  1  0  0  0
 77 81  1  0  0  0
 77 83  1  0  0  0
 77 85  2  0  0  0
 78149  1  0  0  0
 78150  1  0  0  0
 78151  1  0  0  0
 78 83  1  0  0  0
 79 83  1  0  0  0
 79152  1  0  0  0
 79153  1  0  0  0
 79154  1  0  0  0
 80 82  1  0  0  0
 80155  1  0  0  0
 80156  1  0  0  0
 81157  1  0  0  0
 81158  1  0  0  0
 82 83  1  0  0  0
 82159  1  0  0  0
 82160  1  0  0  0
 84161  1  0  0  0
M  ISO  4   1 100  68 101  81 101  84 100
M  END
> <chiral flag>
0

> <version>
0

> <s_m_source_file>
/data/baiqing/PycharmProjects/Reinvent-master-3.2/result/LINK_invent/BTK/process_docking_weight1_custom_product_contain_oxygen_bond_distance_aromatic_linkinvent_7_9_3/rearranged_h_0139.sdf

> <i_m_source_file_index>
96

> <r_mmod_Potential_Energy-OPLS-2005>
35.7335929870605

> <r_mmod_Stretch_Energy-OPLS-2005>
46.2959671020508

> <r_mmod_Bend_Energy-OPLS-2005>
112.60489654541

> <r_mmod_Torsional_Energy-OPLS-2005>
240.432800292969

> <r_mmod_Improper_Torsional_Energy-OPLS-2005>
3.46803116798401

> <r_mmod_Van_der_Waal_Energy-OPLS-2005>
156.547119140625

> <r_mmod_Electrostatic_Energy-OPLS-2005>
-312.910308837891

> <r_mmod_Solvation_Energy-OPLS-2005>
-224.244384765625

> <b_mmod_Minimization_Converged-OPLS-2005>
0

> <r_mmod_RMS_Derivative-OPLS-2005>
2.90976548194885

$$$$
96
                    3D
 Structure written by MMmdl.
164173  0  0  1  0            999 V2000
  -30.6287  -14.6528   20.4961 C   0  0  0  0  0  0
  -30.4580  -12.4012   19.4363 C   0  0  0  0  0  0
  -29.5203  -12.5144   18.2133 C   0  0  0  0  0  0
  -28.0399  -12.3528   18.6202 C   0  0  0  0  0  0
  -27.6610  -13.2096   19.8567 C   0  0  2  0  0  0
  -28.7131  -13.0610   20.9827 C   0  0  0  0  0  0
  -25.2581  -13.8097   20.5579 C   0  0  0  0  0  0
  -24.1870  -13.0405   20.9221 C   0  0  0  0  0  0
  -24.6434  -11.6873   20.8771 C   0  0  0  0  0  0
  -23.9086  -10.4269   21.0444 C   0  0  0  0  0  0
  -24.3633   -9.4176   21.9218 C   0  0  0  0  0  0
  -23.6268   -8.2248   22.0781 C   0  0  0  0  0  0
  -22.4254   -8.0322   21.3584 C   0  0  0  0  0  0
  -21.9896   -9.0297   20.4679 C   0  0  0  0  0  0
  -22.7265  -10.2149   20.3077 C   0  0  0  0  0  0
  -21.6850   -6.0746   22.5288 C   0  0  0  0  0  0
  -21.4020   -6.5650   23.8238 C   0  0  0  0  0  0
  -21.3633   -5.6795   24.9195 C   0  0  0  0  0  0
  -21.6035   -4.3063   24.7241 C   0  0  0  0  0  0
  -21.8810   -3.8157   23.4352 C   0  0  0  0  0  0
  -21.9182   -4.6971   22.3411 C   0  0  0  0  0  0
  -22.7899  -13.5249   21.1849 C   0  0  0  0  0  0
  -22.1660   -4.2174   21.0975 F   0  0  0  0  0  0
  -21.5611   -3.4530   25.7734 F   0  0  0  0  0  0
  -30.0330  -13.4164   20.4211 N   0  0  0  0  0  0
  -26.3026  -12.9281   20.3236 N   0  0  0  0  0  0
  -25.9364  -11.6446   20.5753 N   0  0  0  0  0  0
  -22.0468  -12.8300   22.0395 N   0  0  0  0  0  0
  -25.4217  -15.1789   20.3771 N   0  0  0  0  0  0
  -31.7864  -14.8459   20.1177 O   0  0  0  0  0  0
  -21.6615   -6.8917   21.4276 O   0  0  0  0  0  0
  -22.3635  -14.5550   20.6631 O   0  0  0  0  0  0
  -24.6221  -31.8621   23.2047 C   0  0  0  0  0  0
  -25.9079  -32.4796   23.8362 C   0  0  1  0  0  0
  -27.2424  -27.3424   20.1376 C   0  0  0  0  0  0
  -25.5894  -33.8589   24.2303 N   0  0  0  0  0  0
  -23.4183  -30.4818   21.5454 C   0  0  2  0  0  0
  -24.8713  -28.9408   20.1159 C   0  0  0  0  0  0
  -22.7480  -29.4625   22.4969 C   0  0  0  0  0  0
  -18.0285  -28.1385   22.8508 C   0  0  0  0  0  0
  -24.1478  -36.7291   23.2638 C   0  0  0  0  0  0
  -25.9560  -30.8032   21.3716 C   0  0  0  0  0  0
  -26.0364  -29.4306   20.7184 C   0  0  0  0  0  0
  -27.2245  -28.6449   20.7196 C   0  0  0  0  0  0
  -26.0575  -26.9055   19.4988 C   0  0  0  0  0  0
  -24.8838  -27.6830   19.4927 C   0  0  0  0  0  0
  -23.6341  -29.8139   20.1615 C   0  0  0  0  0  0
  -25.4098  -36.3089   24.0344 C   0  0  1  0  0  0
  -20.5892  -28.3677   23.1307 C   0  0  2  0  0  0
  -20.6784  -26.9407   22.5420 C   0  0  0  0  0  0
  -19.5740  -26.6390   21.5241 C   0  0  0  0  0  0
  -18.1918  -26.7927   22.1649 C   0  0  0  0  0  0
  -19.1538  -28.8850   23.2897 C   0  0  0  0  0  0
  -18.9461  -30.1460   23.8910 C   0  0  0  0  0  0
  -17.6457  -30.6586   24.0566 C   0  0  0  0  0  0
  -25.9036  -34.9456   23.5125 C   0  0  0  0  0  0
  -16.5353  -29.9089   23.6325 C   0  0  0  0  0  0
  -16.7272  -28.6502   23.0365 C   0  0  0  0  0  0
  -26.4472  -31.6582   25.0706 C   0  0  0  0  0  0
  -25.3717  -31.3724   26.1447 C   0  0  0  0  0  0
  -27.0321  -30.3011   24.6138 C   0  0  0  0  0  0
  -27.6032  -32.4322   25.7455 C   0  0  0  0  0  0
  -27.5583  -37.1792   24.8459 C   0  0  0  0  0  0
  -21.4196  -29.3028   22.3705 N   0  0  0  0  0  0
  -26.4279  -37.3784   23.9423 N   0  0  0  0  0  0
  -24.6839  -31.0650   22.0971 N   0  0  0  0  0  0
  -23.4214  -28.8172   23.3051 O   0  0  0  0  0  0
  -28.3700  -26.5119   20.1988 O   0  0  0  0  0  0
  -26.5625  -34.8924   22.4704 O   0  0  0  0  0  0
  -23.5391  -32.1406   23.7374 O   0  0  0  0  0  0
  -30.7738  -18.1356   20.6407 C   0  0  0  0  0  0
  -28.5167  -17.7086   21.0244 C   0  0  0  0  0  0
  -29.7394  -17.1237   20.8051 C   0  0  0  0  0  0
  -30.3211  -19.4560   20.8268 C   0  0  0  0  0  0
  -29.4670  -22.8141   20.2932 C   0  0  0  0  0  0
  -29.3268  -24.1256   20.6327 C   0  0  0  0  0  0
  -30.5699  -24.6193   21.3203 C   0  0  0  0  0  0
  -31.3342  -23.3024   21.6033 C   0  0  0  0  0  0
  -30.8839  -22.2430   20.5357 C   0  0  1  0  0  0
  -33.2100  -22.5450   19.2829 C   0  0  0  0  0  0
  -31.2631  -21.4397   18.1142 C   0  0  0  0  0  0
  -31.1374  -20.7441   21.1001 C   0  0  0  0  0  0
  -28.1129  -25.0718   20.3935 C   0  0  0  0  0  0
  -31.6689  -22.4606   19.1912 C   0  0  0  0  0  0
  -29.7736  -15.6625   20.8514 N   0  0  0  0  0  0
  -28.5971  -19.4535   21.0758 S   0  0  0  0  0  0
  -31.4975  -12.5379   19.1289 H   0  0  0  0  0  0
  -30.4093  -11.4015   19.8714 H   0  0  0  0  0  0
  -29.7812  -11.7680   17.4626 H   0  0  0  0  0  0
  -29.6689  -13.4822   17.7356 H   0  0  0  0  0  0
  -27.8700  -11.2999   18.8437 H   0  0  0  0  0  0
  -27.3929  -12.5975   17.7768 H   0  0  0  0  0  0
  -27.6806  -14.2423   19.5124 H   0  0  0  0  0  0
  -28.7264  -12.0357   21.3566 H   0  0  0  0  0  0
  -28.4582  -13.6797   21.8448 H   0  0  0  0  0  0
  -25.2796   -9.5614   22.4765 H   0  0  0  0  0  0
  -23.9974   -7.4616   22.7446 H   0  0  0  0  0  0
  -21.0855   -8.8831   19.8967 H   0  0  0  0  0  0
  -22.3774  -10.9698   19.6156 H   0  0  0  0  0  0
  -21.2055   -7.6169   23.9754 H   0  0  0  0  0  0
  -21.1446   -6.0531   25.9093 H   0  0  0  0  0  0
  -22.0603   -2.7621   23.2849 H   0  0  0  0  0  0
  -22.3957  -11.9994   22.4935 H   0  0  0  0  0  0
  -21.1082  -13.1406   22.2458 H   0  0  0  0  0  0
  -24.5749  -15.7364   20.3215 H   0  0  0  0  0  0
  -26.1429  -15.5177   19.7521 H   0  0  0  0  0  0
  -26.7160  -32.5498   23.1131 H   0  0  0  0  0  0
  -25.0004  -33.9731   25.0421 H   0  0  0  0  0  0
  -22.7085  -31.2990   21.4024 H   0  0  0  0  0  0
  -23.3749  -35.9615   23.3291 H   0  0  0  0  0  0
  -24.3573  -36.8913   22.2054 H   0  0  0  0  0  0
  -23.7229  -37.6489   23.6658 H   0  0  0  0  0  0
  -26.0837  -31.5665   20.6028 H   0  0  0  0  0  0
  -26.8364  -30.8549   21.9993 H   0  0  0  0  0  0
  -28.1149  -29.0166   21.2058 H   0  0  0  0  0  0
  -26.0147  -25.9507   18.9972 H   0  0  0  0  0  0
  -23.9945  -27.3036   19.0070 H   0  0  0  0  0  0
  -23.7501  -30.5902   19.4046 H   0  0  0  0  0  0
  -22.7568  -29.2387   19.8597 H   0  0  0  0  0  0
  -25.1270  -36.1938   25.0839 H   0  0  0  0  0  0
  -20.9983  -28.3257   24.1430 H   0  0  0  0  0  0
  -20.5711  -26.2298   23.3622 H   0  0  0  0  0  0
  -21.6645  -26.7430   22.1201 H   0  0  0  0  0  0
  -19.6890  -25.6307   21.1263 H   0  0  0  0  0  0
  -19.6653  -27.3220   20.6786 H   0  0  0  0  0  0
  -17.4189  -26.6697   21.4052 H   0  0  0  0  0  0
  -18.0271  -26.0065   22.9026 H   0  0  0  0  0  0
  -19.7932  -30.7277   24.2289 H   0  0  0  0  0  0
  -17.5002  -31.6264   24.5160 H   0  0  0  0  0  0
  -15.5353  -30.2989   23.7619 H   0  0  0  0  0  0
  -15.8685  -28.0806   22.7088 H   0  0  0  0  0  0
  -24.5870  -30.7102   25.7781 H   0  0  0  0  0  0
  -24.8938  -32.2905   26.4874 H   0  0  0  0  0  0
  -25.8037  -30.8890   27.0220 H   0  0  0  0  0  0
  -26.2905  -29.6769   24.1155 H   0  0  0  0  0  0
  -27.4040  -29.7238   25.4609 H   0  0  0  0  0  0
  -27.8746  -30.4307   23.9347 H   0  0  0  0  0  0
  -27.2641  -33.3626   26.2015 H   0  0  0  0  0  0
  -28.3821  -32.6894   25.0264 H   0  0  0  0  0  0
  -28.0730  -31.8480   26.5377 H   0  0  0  0  0  0
  -28.2579  -38.0108   24.7536 H   0  0  0  0  0  0
  -28.1103  -36.2650   24.6232 H   0  0  0  0  0  0
  -27.2316  -37.1367   25.8863 H   0  0  0  0  0  0
  -20.9393  -29.8733   21.6884 H   0  0  0  0  0  0
  -26.0164  -38.2853   24.1450 H   0  0  0  0  0  0
  -31.8105  -17.8674   20.4901 H   0  0  0  0  0  0
  -27.5611  -17.2260   21.1919 H   0  0  0  0  0  0
  -28.7067  -22.2306   19.7965 H   0  0  0  0  0  0
  -30.3452  -25.1754   22.2321 H   0  0  0  0  0  0
  -31.1314  -25.2755   20.6539 H   0  0  0  0  0  0
  -31.0166  -22.9726   22.5948 H   0  0  0  0  0  0
  -32.4074  -23.4480   21.6962 H   0  0  0  0  0  0
  -33.5548  -23.3465   19.9338 H   0  0  0  0  0  0
  -33.6319  -22.7753   18.3033 H   0  0  0  0  0  0
  -33.6631  -21.6132   19.6194 H   0  0  0  0  0  0
  -30.1823  -21.4061   17.9789 H   0  0  0  0  0  0
  -31.5917  -20.4340   18.3774 H   0  0  0  0  0  0
  -31.7054  -21.6871   17.1480 H   0  0  0  0  0  0
  -32.1881  -20.5058   20.9343 H   0  0  0  0  0  0
  -31.0949  -20.8277   22.1858 H   0  0  0  0  0  0
  -27.4584  -24.9674   21.2615 H   0  0  0  0  0  0
  -27.5782  -24.6536   19.5418 H   0  0  0  0  0  0
  -31.3769  -23.4373   18.7995 H   0  0  0  0  0  0
  -28.8839  -15.2592   21.1025 H   0  0  0  0  0  0
  1 25  1  0  0  0
  1 30  2  0  0  0
  1 85  1  0  0  0
  2  3  1  0  0  0
  2 25  1  0  0  0
  2 87  1  0  0  0
  2 88  1  0  0  0
  3  4  1  0  0  0
  3 89  1  0  0  0
  3 90  1  0  0  0
  4  5  1  0  0  0
  4 91  1  0  0  0
  4 92  1  0  0  0
  5  6  1  0  0  0
  5 26  1  0  0  0
  5 93  1  0  0  0
  6 25  1  0  0  0
  6 94  1  0  0  0
  6 95  1  0  0  0
  7  8  2  0  0  0
  7 26  1  0  0  0
  7 29  1  0  0  0
  8  9  1  0  0  0
  8 22  1  0  0  0
  9 10  1  0  0  0
  9 27  2  0  0  0
 10 11  2  0  0  0
 10 15  1  0  0  0
 11 12  1  0  0  0
 11 96  1  0  0  0
 12 13  2  0  0  0
 12 97  1  0  0  0
 13 14  1  0  0  0
 13 31  1  0  0  0
 14 15  2  0  0  0
 14 98  1  0  0  0
 15 99  1  0  0  0
 16 17  2  0  0  0
 16 21  1  0  0  0
 16 31  1  0  0  0
 17 18  1  0  0  0
 17100  1  0  0  0
 18 19  2  0  0  0
 18101  1  0  0  0
 19 20  1  0  0  0
 19 24  1  0  0  0
 20 21  2  0  0  0
 20102  1  0  0  0
 21 23  1  0  0  0
 22 28  1  0  0  0
 22 32  2  0  0  0
 26 27  1  0  0  0
 28103  1  0  0  0
 28104  1  0  0  0
 29105  1  0  0  0
 29106  1  0  0  0
 33 34  1  0  0  0
 33 66  1  0  0  0
 33 70  2  0  0  0
 34 36  1  0  0  0
 34 59  1  0  0  0
 34107  1  0  0  0
 35 44  2  0  0  0
 35 45  1  0  0  0
 35 68  1  0  0  0
 36 56  1  0  0  0
 36108  1  0  0  0
 37 39  1  0  0  0
 37 47  1  0  0  0
 37 66  1  0  0  0
 37109  1  0  0  0
 38 43  2  0  0  0
 38 46  1  0  0  0
 38 47  1  0  0  0
 39 64  1  0  0  0
 39 67  2  0  0  0
 40 52  1  0  0  0
 40 53  2  0  0  0
 40 58  1  0  0  0
 41110  1  0  0  0
 41111  1  0  0  0
 41112  1  0  0  0
 41 48  1  0  0  0
 42 43  1  0  0  0
 42 66  1  0  0  0
 42113  1  0  0  0
 42114  1  0  0  0
 43 44  1  0  0  0
 44115  1  0  0  0
 45 46  2  0  0  0
 45116  1  0  0  0
 46117  1  0  0  0
 47118  1  0  0  0
 47119  1  0  0  0
 48 56  1  0  0  0
 48 65  1  0  0  0
 48120  1  0  0  0
 49 50  1  0  0  0
 49 53  1  0  0  0
 49 64  1  0  0  0
 49121  1  0  0  0
 50 51  1  0  0  0
 50122  1  0  0  0
 50123  1  0  0  0
 51 52  1  0  0  0
 51124  1  0  0  0
 51125  1  0  0  0
 52126  1  0  0  0
 52127  1  0  0  0
 53 54  1  0  0  0
 54 55  2  0  0  0
 54128  1  0  0  0
 55 57  1  0  0  0
 55129  1  0  0  0
 56 69  2  0  0  0
 57 58  2  0  0  0
 57130  1  0  0  0
 58131  1  0  0  0
 59 60  1  0  0  0
 59 61  1  0  0  0
 59 62  1  0  0  0
 60132  1  0  0  0
 60133  1  0  0  0
 60134  1  0  0  0
 61135  1  0  0  0
 61136  1  0  0  0
 61137  1  0  0  0
 62138  1  0  0  0
 62139  1  0  0  0
 62140  1  0  0  0
 63 65  1  0  0  0
 63141  1  0  0  0
 63142  1  0  0  0
 63143  1  0  0  0
 64144  1  0  0  0
 65145  1  0  0  0
 68 83  1  0  0  0
 71 73  1  0  0  0
 71 74  2  0  0  0
 71146  1  0  0  0
 72 73  2  0  0  0
 72 86  1  0  0  0
 72147  1  0  0  0
 73 85  1  0  0  0
 74 82  1  0  0  0
 74 86  1  0  0  0
 75 76  2  0  0  0
 75 79  1  0  0  0
 75148  1  0  0  0
 76 77  1  0  0  0
 76 83  1  0  0  0
 77 78  1  0  0  0
 77149  1  0  0  0
 77150  1  0  0  0
 78 79  1  0  0  0
 78151  1  0  0  0
 78152  1  0  0  0
 79 82  1  0  0  0
 79 84  1  0  0  0
 80153  1  0  0  0
 80154  1  0  0  0
 80155  1  0  0  0
 80 84  1  0  0  0
 81 84  1  0  0  0
 81156  1  0  0  0
 81157  1  0  0  0
 81158  1  0  0  0
 82159  1  0  0  0
 82160  1  0  0  0
 83161  1  0  0  0
 83162  1  0  0  0
 84163  1  0  0  0
 85164  1  0  0  0
M  ISO  4   1 100  68 101  83 101  85 100
M  END
> <chiral flag>
0

> <version>
0

> <s_m_source_file>
/data/baiqing/PycharmProjects/Reinvent-master-3.2/result/LINK_invent/BTK/process_docking_weight1_custom_product_contain_oxygen_bond_distance_aromatic_linkinvent_7_9_3/rearranged_h_0139.sdf

> <i_m_source_file_index>
97

> <r_mmod_Potential_Energy-OPLS-2005>
181.262908935547

> <r_mmod_Stretch_Energy-OPLS-2005>
81.0636978149414

> <r_mmod_Bend_Energy-OPLS-2005>
249.267333984375

> <r_mmod_Torsional_Energy-OPLS-2005>
238.701782226562

> <r_mmod_Improper_Torsional_Energy-OPLS-2005>
9.38608169555664

> <r_mmod_Van_der_Waal_Energy-OPLS-2005>
120.156631469727

> <r_mmod_Electrostatic_Energy-OPLS-2005>
-365.683654785156

> <r_mmod_Solvation_Energy-OPLS-2005>
-198.651748657227

> <b_mmod_Minimization_Converged-OPLS-2005>
0

> <r_mmod_RMS_Derivative-OPLS-2005>
4.6162896156311

$$$$
97
                    3D
 Structure written by MMmdl.
155163  0  0  1  0            999 V2000
  -30.6011  -14.7473   20.4686 C   0  0  0  0  0  0
  -30.4452  -12.4584   19.4634 C   0  0  0  0  0  0
  -29.5155  -12.5077   18.2305 C   0  0  0  0  0  0
  -28.0436  -12.3210   18.6485 C   0  0  0  0  0  0
  -27.6461  -13.2234   19.8478 C   0  0  2  0  0  0
  -28.6934  -13.1569   20.9813 C   0  0  0  0  0  0
  -25.2553  -13.8171   20.5681 C   0  0  0  0  0  0
  -24.1842  -13.0428   20.9203 C   0  0  0  0  0  0
  -24.6419  -11.6899   20.8739 C   0  0  0  0  0  0
  -23.9087  -10.4286   21.0422 C   0  0  0  0  0  0
  -24.3635   -9.4200   21.9197 C   0  0  0  0  0  0
  -23.6299   -8.2245   22.0755 C   0  0  0  0  0  0
  -22.4275   -8.0291   21.3548 C   0  0  0  0  0  0
  -21.9914   -9.0277   20.4648 C   0  0  0  0  0  0
  -22.7260  -10.2147   20.3064 C   0  0  0  0  0  0
  -21.6857   -6.0749   22.5284 C   0  0  0  0  0  0
  -21.4018   -6.5643   23.8220 C   0  0  0  0  0  0
  -21.3652   -5.6792   24.9182 C   0  0  0  0  0  0
  -21.6048   -4.3058   24.7224 C   0  0  0  0  0  0
  -21.8818   -3.8148   23.4342 C   0  0  0  0  0  0
  -21.9189   -4.6977   22.3401 C   0  0  0  0  0  0
  -22.7862  -13.5239   21.1848 C   0  0  0  0  0  0
  -22.1661   -4.2160   21.0983 F   0  0  0  0  0  0
  -21.5618   -3.4530   25.7737 F   0  0  0  0  0  0
  -29.9938  -13.5139   20.3971 N   0  0  0  0  0  0
  -26.2974  -12.9358   20.3263 N   0  0  0  0  0  0
  -25.9344  -11.6513   20.5753 N   0  0  0  0  0  0
  -22.0494  -12.8248   22.0403 N   0  0  0  0  0  0
  -25.4242  -15.1907   20.4095 N   0  0  0  0  0  0
  -31.8011  -14.8635   20.1951 O   0  0  0  0  0  0
  -21.6626   -6.8901   21.4251 O   0  0  0  0  0  0
  -22.3558  -14.5547   20.6685 O   0  0  0  0  0  0
  -24.6301  -31.8565   23.1999 C   0  0  0  0  0  0
  -25.9135  -32.4769   23.8341 C   0  0  1  0  0  0
  -27.2217  -27.2640   20.1492 C   0  0  0  0  0  0
  -25.5929  -33.8566   24.2253 N   0  0  0  0  0  0
  -23.4270  -30.4787   21.5427 C   0  0  2  0  0  0
  -24.8772  -28.9264   20.1146 C   0  0  0  0  0  0
  -22.7505  -29.4604   22.4926 C   0  0  0  0  0  0
  -18.0298  -28.1408   22.8496 C   0  0  0  0  0  0
  -24.1492  -36.7273   23.2637 C   0  0  0  0  0  0
  -25.9720  -30.7744   21.3775 C   0  0  0  0  0  0
  -26.0478  -29.3960   20.7228 C   0  0  0  0  0  0
  -27.2240  -28.5786   20.7259 C   0  0  0  0  0  0
  -26.0268  -26.8608   19.5117 C   0  0  0  0  0  0
  -24.8718  -27.6663   19.4976 C   0  0  0  0  0  0
  -23.6468  -29.8121   20.1593 C   0  0  0  0  0  0
  -25.4116  -36.3057   24.0318 C   0  0  1  0  0  0
  -20.5905  -28.3709   23.1293 C   0  0  2  0  0  0
  -20.6792  -26.9430   22.5420 C   0  0  0  0  0  0
  -19.5754  -26.6397   21.5236 C   0  0  0  0  0  0
  -18.1938  -26.7952   22.1641 C   0  0  0  0  0  0
  -19.1553  -28.8874   23.2889 C   0  0  0  0  0  0
  -18.9460  -30.1479   23.8905 C   0  0  0  0  0  0
  -17.6457  -30.6601   24.0570 C   0  0  0  0  0  0
  -25.9057  -34.9436   23.5083 C   0  0  0  0  0  0
  -16.5352  -29.9097   23.6337 C   0  0  0  0  0  0
  -16.7281  -28.6518   23.0350 C   0  0  0  0  0  0
  -26.4490  -31.6601   25.0731 C   0  0  0  0  0  0
  -25.3696  -31.3771   26.1439 C   0  0  0  0  0  0
  -27.0352  -30.3027   24.6224 C   0  0  0  0  0  0
  -27.6061  -32.4334   25.7484 C   0  0  0  0  0  0
  -27.5575  -37.1779   24.8453 C   0  0  0  0  0  0
  -21.4217  -29.3040   22.3661 N   0  0  0  0  0  0
  -26.4279  -37.3762   23.9412 N   0  0  0  0  0  0
  -24.6953  -31.0541   22.0967 N   0  0  0  0  0  0
  -23.4204  -28.8152   23.3020 O   0  0  0  0  0  0
  -28.3239  -26.3800   20.2035 O   0  0  0  0  0  0
  -26.5627  -34.8907   22.4650 O   0  0  0  0  0  0
  -23.5453  -32.1380   23.7293 O   0  0  0  0  0  0
  -29.2093  -18.3166   20.2285 C   0  0  0  0  0  0
  -30.7764  -19.5848   21.3553 C   0  0  0  0  0  0
  -29.6315  -19.6827   20.5975 C   0  0  0  0  0  0
  -29.9912  -17.2348   20.6795 C   0  0  0  0  0  0
  -28.9947  -21.0140   20.1760 C   0  0  0  0  0  0
  -30.0845  -23.8859   19.1303 C   0  0  0  0  0  0
  -30.2803  -24.5573   21.5156 C   0  0  0  0  0  0
  -29.1497  -22.3527   21.0420 C   0  0  0  0  0  0
  -28.0873  -24.8975   20.3452 C   0  0  0  0  0  0
  -29.3473  -23.8880   20.4820 C   0  0  0  0  0  0
  -29.7651  -15.8521   20.5655 N   0  0  0  0  0  0
  -28.2667  -21.0886   19.1845 O   0  0  0  0  0  0
  -31.3308  -17.9227   21.5761 S   0  0  0  0  0  0
  -31.4855  -12.5966   19.1618 H   0  0  0  0  0  0
  -30.3988  -11.4806   19.9448 H   0  0  0  0  0  0
  -29.7974  -11.7413   17.5074 H   0  0  0  0  0  0
  -29.6338  -13.4647   17.7203 H   0  0  0  0  0  0
  -27.9145  -11.2728   18.9198 H   0  0  0  0  0  0
  -27.3826  -12.5032   17.8008 H   0  0  0  0  0  0
  -27.6376  -14.2419   19.4597 H   0  0  0  0  0  0
  -28.7360  -12.1569   21.4148 H   0  0  0  0  0  0
  -28.4320  -13.8346   21.7967 H   0  0  0  0  0  0
  -25.2801   -9.5644   22.4755 H   0  0  0  0  0  0
  -23.9997   -7.4623   22.7466 H   0  0  0  0  0  0
  -21.0846   -8.8818   19.8954 H   0  0  0  0  0  0
  -22.3752  -10.9693   19.6159 H   0  0  0  0  0  0
  -21.2016   -7.6147   23.9734 H   0  0  0  0  0  0
  -21.1472   -6.0517   25.9094 H   0  0  0  0  0  0
  -22.0598   -2.7604   23.2842 H   0  0  0  0  0  0
  -22.4096  -11.9927   22.4830 H   0  0  0  0  0  0
  -21.1105  -13.1290   22.2583 H   0  0  0  0  0  0
  -24.6502  -15.8375   20.5134 H   0  0  0  0  0  0
  -26.2619  -15.6346   20.0558 H   0  0  0  0  0  0
  -26.7205  -32.5431   23.1091 H   0  0  0  0  0  0
  -25.0063  -33.9705   25.0386 H   0  0  0  0  0  0
  -22.7230  -31.2998   21.3962 H   0  0  0  0  0  0
  -23.3757  -35.9601   23.3278 H   0  0  0  0  0  0
  -24.3589  -36.8919   22.2057 H   0  0  0  0  0  0
  -23.7240  -37.6461   23.6683 H   0  0  0  0  0  0
  -26.1044  -31.5360   20.6078 H   0  0  0  0  0  0
  -26.8512  -30.8296   22.0077 H   0  0  0  0  0  0
  -28.1186  -28.9325   21.2186 H   0  0  0  0  0  0
  -25.9553  -25.9009   19.0243 H   0  0  0  0  0  0
  -23.9743  -27.3003   19.0178 H   0  0  0  0  0  0
  -23.7718  -30.5879   19.4027 H   0  0  0  0  0  0
  -22.7662  -29.2438   19.8539 H   0  0  0  0  0  0
  -25.1301  -36.1888   25.0810 H   0  0  0  0  0  0
  -20.9995  -28.3286   24.1415 H   0  0  0  0  0  0
  -20.5742  -26.2302   23.3614 H   0  0  0  0  0  0
  -21.6654  -26.7479   22.1183 H   0  0  0  0  0  0
  -19.6913  -25.6309   21.1264 H   0  0  0  0  0  0
  -19.6701  -27.3212   20.6774 H   0  0  0  0  0  0
  -17.4214  -26.6716   21.4041 H   0  0  0  0  0  0
  -18.0316  -26.0106   22.9040 H   0  0  0  0  0  0
  -19.7927  -30.7307   24.2276 H   0  0  0  0  0  0
  -17.4996  -31.6285   24.5163 H   0  0  0  0  0  0
  -15.5349  -30.2986   23.7657 H   0  0  0  0  0  0
  -15.8687  -28.0833   22.7051 H   0  0  0  0  0  0
  -24.5862  -30.7142   25.7736 H   0  0  0  0  0  0
  -24.8896  -32.2960   26.4829 H   0  0  0  0  0  0
  -25.7977  -30.8946   27.0236 H   0  0  0  0  0  0
  -26.2960  -29.6768   24.1220 H   0  0  0  0  0  0
  -27.4009  -29.7298   25.4753 H   0  0  0  0  0  0
  -27.8834  -30.4309   23.9497 H   0  0  0  0  0  0
  -27.2702  -33.3641   26.2065 H   0  0  0  0  0  0
  -28.3865  -32.6886   25.0302 H   0  0  0  0  0  0
  -28.0747  -31.8463   26.5390 H   0  0  0  0  0  0
  -28.2567  -38.0098   24.7533 H   0  0  0  0  0  0
  -28.1095  -36.2634   24.6236 H   0  0  0  0  0  0
  -27.2301  -37.1372   25.8854 H   0  0  0  0  0  0
  -20.9402  -29.8722   21.6841 H   0  0  0  0  0  0
  -26.0147  -38.2822   24.1453 H   0  0  0  0  0  0
  -28.3165  -18.1834   19.6318 H   0  0  0  0  0  0
  -31.3601  -20.3909   21.7845 H   0  0  0  0  0  0
  -31.0233  -23.3339   19.1758 H   0  0  0  0  0  0
  -30.3212  -24.9029   18.8159 H   0  0  0  0  0  0
  -29.4724  -23.4461   18.3431 H   0  0  0  0  0  0
  -31.2258  -24.0225   21.6141 H   0  0  0  0  0  0
  -29.8192  -24.5870   22.5041 H   0  0  0  0  0  0
  -30.5234  -25.5840   21.2409 H   0  0  0  0  0  0
  -29.9925  -22.1407   21.6972 H   0  0  0  0  0  0
  -28.2986  -22.3627   21.7218 H   0  0  0  0  0  0
  -27.4528  -24.7651   21.2228 H   0  0  0  0  0  0
  -27.4991  -24.5423   19.5015 H   0  0  0  0  0  0
  -28.7910  -15.5945   20.5561 H   0  0  0  0  0  0
  1 25  1  0  0  0
  1 30  2  0  0  0
  1 81  1  0  0  0
  2  3  1  0  0  0
  2 25  1  0  0  0
  2 84  1  0  0  0
  2 85  1  0  0  0
  3  4  1  0  0  0
  3 86  1  0  0  0
  3 87  1  0  0  0
  4  5  1  0  0  0
  4 88  1  0  0  0
  4 89  1  0  0  0
  5  6  1  0  0  0
  5 26  1  0  0  0
  5 90  1  0  0  0
  6 25  1  0  0  0
  6 91  1  0  0  0
  6 92  1  0  0  0
  7  8  2  0  0  0
  7 26  1  0  0  0
  7 29  1  0  0  0
  8  9  1  0  0  0
  8 22  1  0  0  0
  9 10  1  0  0  0
  9 27  2  0  0  0
 10 11  2  0  0  0
 10 15  1  0  0  0
 11 12  1  0  0  0
 11 93  1  0  0  0
 12 13  2  0  0  0
 12 94  1  0  0  0
 13 14  1  0  0  0
 13 31  1  0  0  0
 14 15  2  0  0  0
 14 95  1  0  0  0
 15 96  1  0  0  0
 16 17  2  0  0  0
 16 21  1  0  0  0
 16 31  1  0  0  0
 17 18  1  0  0  0
 17 97  1  0  0  0
 18 19  2  0  0  0
 18 98  1  0  0  0
 19 20  1  0  0  0
 19 24  1  0  0  0
 20 21  2  0  0  0
 20 99  1  0  0  0
 21 23  1  0  0  0
 22 28  1  0  0  0
 22 32  2  0  0  0
 26 27  1  0  0  0
 28100  1  0  0  0
 28101  1  0  0  0
 29102  1  0  0  0
 29103  1  0  0  0
 33 34  1  0  0  0
 33 66  1  0  0  0
 33 70  2  0  0  0
 34 36  1  0  0  0
 34 59  1  0  0  0
 34104  1  0  0  0
 35 44  2  0  0  0
 35 45  1  0  0  0
 35 68  1  0  0  0
 36 56  1  0  0  0
 36105  1  0  0  0
 37 39  1  0  0  0
 37 47  1  0  0  0
 37 66  1  0  0  0
 37106  1  0  0  0
 38 43  2  0  0  0
 38 46  1  0  0  0
 38 47  1  0  0  0
 39 64  1  0  0  0
 39 67  2  0  0  0
 40 52  1  0  0  0
 40 53  2  0  0  0
 40 58  1  0  0  0
 41107  1  0  0  0
 41108  1  0  0  0
 41109  1  0  0  0
 41 48  1  0  0  0
 42 43  1  0  0  0
 42 66  1  0  0  0
 42110  1  0  0  0
 42111  1  0  0  0
 43 44  1  0  0  0
 44112  1  0  0  0
 45 46  2  0  0  0
 45113  1  0  0  0
 46114  1  0  0  0
 47115  1  0  0  0
 47116  1  0  0  0
 48 56  1  0  0  0
 48 65  1  0  0  0
 48117  1  0  0  0
 49 50  1  0  0  0
 49 53  1  0  0  0
 49 64  1  0  0  0
 49118  1  0  0  0
 50 51  1  0  0  0
 50119  1  0  0  0
 50120  1  0  0  0
 51 52  1  0  0  0
 51121  1  0  0  0
 51122  1  0  0  0
 52123  1  0  0  0
 52124  1  0  0  0
 53 54  1  0  0  0
 54 55  2  0  0  0
 54125  1  0  0  0
 55 57  1  0  0  0
 55126  1  0  0  0
 56 69  2  0  0  0
 57 58  2  0  0  0
 57127  1  0  0  0
 58128  1  0  0  0
 59 60  1  0  0  0
 59 61  1  0  0  0
 59 62  1  0  0  0
 60129  1  0  0  0
 60130  1  0  0  0
 60131  1  0  0  0
 61132  1  0  0  0
 61133  1  0  0  0
 61134  1  0  0  0
 62135  1  0  0  0
 62136  1  0  0  0
 62137  1  0  0  0
 63 65  1  0  0  0
 63138  1  0  0  0
 63139  1  0  0  0
 63140  1  0  0  0
 64141  1  0  0  0
 65142  1  0  0  0
 68 79  1  0  0  0
 71 73  1  0  0  0
 71 74  2  0  0  0
 71143  1  0  0  0
 72 73  2  0  0  0
 72 83  1  0  0  0
 72144  1  0  0  0
 73 75  1  0  0  0
 74 81  1  0  0  0
 74 83  1  0  0  0
 75 78  1  0  0  0
 75 82  2  0  0  0
 76145  1  0  0  0
 76146  1  0  0  0
 76147  1  0  0  0
 76 80  1  0  0  0
 77 80  1  0  0  0
 77148  1  0  0  0
 77149  1  0  0  0
 77150  1  0  0  0
 78 80  1  0  0  0
 78151  1  0  0  0
 78152  1  0  0  0
 79 80  1  0  0  0
 79153  1  0  0  0
 79154  1  0  0  0
 81155  1  0  0  0
M  ISO  4   1 100  68 101  79 101  81 100
M  END
> <chiral flag>
0

> <version>
0

> <s_m_source_file>
/data/baiqing/PycharmProjects/Reinvent-master-3.2/result/LINK_invent/BTK/process_docking_weight1_custom_product_contain_oxygen_bond_distance_aromatic_linkinvent_7_9_3/rearranged_h_0139.sdf

> <i_m_source_file_index>
98

> <r_mmod_Potential_Energy-OPLS-2005>
175.806640625

> <r_mmod_Stretch_Energy-OPLS-2005>
121.771125793457

> <r_mmod_Bend_Energy-OPLS-2005>
181.020324707031

> <r_mmod_Torsional_Energy-OPLS-2005>
245.116256713867

> <r_mmod_Improper_Torsional_Energy-OPLS-2005>
7.65960884094238

> <r_mmod_Van_der_Waal_Energy-OPLS-2005>
116.307907104492

> <r_mmod_Electrostatic_Energy-OPLS-2005>
-360.933715820312

> <r_mmod_Solvation_Energy-OPLS-2005>
-221.200469970703

> <b_mmod_Minimization_Converged-OPLS-2005>
0

> <r_mmod_RMS_Derivative-OPLS-2005>
2.45224332809448

$$$$
98
                    3D
 Structure written by MMmdl.
162171  0  0  1  0            999 V2000
  -30.6376  -14.7489   20.5042 C   0  0  0  0  0  0
  -30.4360  -12.4461   19.5118 C   0  0  0  0  0  0
  -29.5359  -12.5104   18.2585 C   0  0  0  0  0  0
  -28.0639  -12.2913   18.6562 C   0  0  0  0  0  0
  -27.6533  -13.1930   19.8457 C   0  0  2  0  0  0
  -28.6889  -13.1712   20.9994 C   0  0  0  0  0  0
  -25.2550  -13.8050   20.5599 C   0  0  0  0  0  0
  -24.1855  -13.0347   20.9193 C   0  0  0  0  0  0
  -24.6434  -11.6839   20.8745 C   0  0  0  0  0  0
  -23.9094  -10.4256   21.0398 C   0  0  0  0  0  0
  -24.3628   -9.4185   21.9188 C   0  0  0  0  0  0
  -23.6298   -8.2224   22.0763 C   0  0  0  0  0  0
  -22.4284   -8.0285   21.3542 C   0  0  0  0  0  0
  -21.9925   -9.0268   20.4663 C   0  0  0  0  0  0
  -22.7262  -10.2127   20.3064 C   0  0  0  0  0  0
  -21.6856   -6.0751   22.5274 C   0  0  0  0  0  0
  -21.4028   -6.5648   23.8219 C   0  0  0  0  0  0
  -21.3653   -5.6787   24.9179 C   0  0  0  0  0  0
  -21.6053   -4.3053   24.7228 C   0  0  0  0  0  0
  -21.8817   -3.8157   23.4345 C   0  0  0  0  0  0
  -21.9194   -4.6979   22.3404 C   0  0  0  0  0  0
  -22.7892  -13.5163   21.1825 C   0  0  0  0  0  0
  -22.1655   -4.2162   21.0986 F   0  0  0  0  0  0
  -21.5617   -3.4527   25.7734 F   0  0  0  0  0  0
  -30.0070  -13.5161   20.4489 N   0  0  0  0  0  0
  -26.2986  -12.9218   20.3192 N   0  0  0  0  0  0
  -25.9349  -11.6404   20.5737 N   0  0  0  0  0  0
  -22.0522  -12.8216   22.0406 N   0  0  0  0  0  0
  -25.4071  -15.1753   20.3875 N   0  0  0  0  0  0
  -31.7542  -14.8847   19.9987 O   0  0  0  0  0  0
  -21.6631   -6.8897   21.4238 O   0  0  0  0  0  0
  -22.3599  -14.5462   20.6646 O   0  0  0  0  0  0
  -24.6285  -31.8556   23.1998 C   0  0  0  0  0  0
  -25.9122  -32.4759   23.8340 C   0  0  1  0  0  0
  -27.2260  -27.2661   20.1502 C   0  0  0  0  0  0
  -25.5926  -33.8569   24.2259 N   0  0  0  0  0  0
  -23.4264  -30.4774   21.5397 C   0  0  2  0  0  0
  -24.8808  -28.9237   20.1120 C   0  0  0  0  0  0
  -22.7494  -29.4611   22.4907 C   0  0  0  0  0  0
  -18.0285  -28.1405   22.8471 C   0  0  0  0  0  0
  -24.1484  -36.7291   23.2639 C   0  0  0  0  0  0
  -25.9713  -30.7713   21.3810 C   0  0  0  0  0  0
  -26.0488  -29.3926   20.7267 C   0  0  0  0  0  0
  -27.2267  -28.5778   20.7317 C   0  0  0  0  0  0
  -26.0398  -26.8645   19.4966 C   0  0  0  0  0  0
  -24.8819  -27.6684   19.4819 C   0  0  0  0  0  0
  -23.6499  -29.8107   20.1557 C   0  0  0  0  0  0
  -25.4116  -36.3077   24.0329 C   0  0  1  0  0  0
  -20.5881  -28.3726   23.1261 C   0  0  2  0  0  0
  -20.6778  -26.9445   22.5411 C   0  0  0  0  0  0
  -19.5762  -26.6396   21.5212 C   0  0  0  0  0  0
  -18.1937  -26.7941   22.1615 C   0  0  0  0  0  0
  -19.1536  -28.8881   23.2858 C   0  0  0  0  0  0
  -18.9465  -30.1473   23.8889 C   0  0  0  0  0  0
  -17.6466  -30.6605   24.0561 C   0  0  0  0  0  0
  -25.9058  -34.9452   23.5093 C   0  0  0  0  0  0
  -16.5352  -29.9105   23.6336 C   0  0  0  0  0  0
  -16.7269  -28.6522   23.0350 C   0  0  0  0  0  0
  -26.4506  -31.6581   25.0723 C   0  0  0  0  0  0
  -25.3716  -31.3750   26.1434 C   0  0  0  0  0  0
  -27.0375  -30.2993   24.6233 C   0  0  0  0  0  0
  -27.6058  -32.4328   25.7490 C   0  0  0  0  0  0
  -27.5588  -37.1791   24.8465 C   0  0  0  0  0  0
  -21.4203  -29.3057   22.3650 N   0  0  0  0  0  0
  -26.4284  -37.3777   23.9417 N   0  0  0  0  0  0
  -24.6934  -31.0519   22.0971 N   0  0  0  0  0  0
  -23.4190  -28.8155   23.3014 O   0  0  0  0  0  0
  -28.3144  -26.3663   20.1866 O   0  0  0  0  0  0
  -26.5632  -34.8917   22.4663 O   0  0  0  0  0  0
  -23.5437  -32.1394   23.7289 O   0  0  0  0  0  0
  -27.5587  -18.1341   19.5002 C   0  0  0  0  0  0
  -28.2532  -17.0206   19.9822 C   0  0  0  0  0  0
  -30.0204  -18.4653   20.7675 C   0  0  0  0  0  0
  -28.0754  -19.4362   19.6223 C   0  0  0  0  0  0
  -29.3054  -19.6633   20.2986 C   0  0  0  0  0  0
  -29.5140  -17.1074   20.5896 C   0  0  0  0  0  0
  -28.9281  -23.7442   20.1916 C   0  0  0  0  0  0
  -28.8066  -21.9115   23.1809 C   0  0  0  0  0  0
  -29.7895  -22.8054   22.4346 C   0  0  0  0  0  0
  -27.9006  -22.0229   21.9597 C   0  0  0  0  0  0
  -29.1250  -22.4154   21.0861 C   0  0  0  0  0  0
  -27.2851  -20.5414   18.9363 C   0  0  0  0  0  0
  -29.8754  -21.1586   20.3477 C   0  0  0  0  0  0
  -28.0475  -24.9843   20.7218 C   0  0  0  0  0  0
  -30.0122  -15.8156   21.1302 N   0  0  0  0  0  0
  -29.4169  -23.8727   19.0664 O   0  0  0  0  0  0
  -31.4873  -12.5327   19.2380 H   0  0  0  0  0  0
  -30.3461  -11.4675   19.9931 H   0  0  0  0  0  0
  -29.8476  -11.7579   17.5324 H   0  0  0  0  0  0
  -29.6580  -13.4802   17.7767 H   0  0  0  0  0  0
  -27.9404  -11.2422   18.9258 H   0  0  0  0  0  0
  -27.4132  -12.4653   17.7987 H   0  0  0  0  0  0
  -27.6372  -14.1762   19.4000 H   0  0  0  0  0  0
  -28.7292  -12.1887   21.4716 H   0  0  0  0  0  0
  -28.3914  -13.8678   21.7839 H   0  0  0  0  0  0
  -25.2757   -9.5652   22.4784 H   0  0  0  0  0  0
  -24.0007   -7.4613   22.7470 H   0  0  0  0  0  0
  -21.0867   -8.8770   19.8977 H   0  0  0  0  0  0
  -22.3710  -10.9666   19.6180 H   0  0  0  0  0  0
  -21.2033   -7.6150   23.9749 H   0  0  0  0  0  0
  -21.1462   -6.0496   25.9077 H   0  0  0  0  0  0
  -22.0611   -2.7626   23.2826 H   0  0  0  0  0  0
  -22.4056  -11.9865   22.4828 H   0  0  0  0  0  0
  -21.1158  -13.1337   22.2581 H   0  0  0  0  0  0
  -24.6101  -15.7983   20.4532 H   0  0  0  0  0  0
  -26.2087  -15.6059   19.9504 H   0  0  0  0  0  0
  -26.7180  -32.5418   23.1086 H   0  0  0  0  0  0
  -25.0061  -33.9703   25.0390 H   0  0  0  0  0  0
  -22.7217  -31.2993   21.3938 H   0  0  0  0  0  0
  -23.3755  -35.9611   23.3287 H   0  0  0  0  0  0
  -24.3585  -36.8938   22.2062 H   0  0  0  0  0  0
  -23.7224  -37.6480   23.6673 H   0  0  0  0  0  0
  -26.1059  -31.5306   20.6097 H   0  0  0  0  0  0
  -26.8485  -30.8210   22.0136 H   0  0  0  0  0  0
  -28.1194  -28.9346   21.2273 H   0  0  0  0  0  0
  -25.9982  -25.9060   19.0002 H   0  0  0  0  0  0
  -23.9901  -27.3098   18.9850 H   0  0  0  0  0  0
  -23.7805  -30.5890   19.4031 H   0  0  0  0  0  0
  -22.7674  -29.2489   19.8443 H   0  0  0  0  0  0
  -25.1288  -36.1929   25.0817 H   0  0  0  0  0  0
  -20.9962  -28.3312   24.1382 H   0  0  0  0  0  0
  -20.5698  -26.2335   23.3621 H   0  0  0  0  0  0
  -21.6645  -26.7491   22.1187 H   0  0  0  0  0  0
  -19.6937  -25.6302   21.1256 H   0  0  0  0  0  0
  -19.6706  -27.3191   20.6729 H   0  0  0  0  0  0
  -17.4210  -26.6676   21.4014 H   0  0  0  0  0  0
  -18.0350  -26.0089   22.9021 H   0  0  0  0  0  0
  -19.7946  -30.7283   24.2255 H   0  0  0  0  0  0
  -17.5032  -31.6280   24.5183 H   0  0  0  0  0  0
  -15.5359  -30.3018   23.7678 H   0  0  0  0  0  0
  -15.8658  -28.0858   22.7069 H   0  0  0  0  0  0
  -24.5847  -30.7164   25.7736 H   0  0  0  0  0  0
  -24.8957  -32.2939   26.4868 H   0  0  0  0  0  0
  -25.7992  -30.8882   27.0207 H   0  0  0  0  0  0
  -26.2977  -29.6715   24.1242 H   0  0  0  0  0  0
  -27.4047  -29.7284   25.4779 H   0  0  0  0  0  0
  -27.8855  -30.4283   23.9500 H   0  0  0  0  0  0
  -27.2655  -33.3615   26.2088 H   0  0  0  0  0  0
  -28.3842  -32.6920   25.0298 H   0  0  0  0  0  0
  -28.0754  -31.8445   26.5391 H   0  0  0  0  0  0
  -28.2572  -38.0113   24.7526 H   0  0  0  0  0  0
  -28.1098  -36.2647   24.6243 H   0  0  0  0  0  0
  -27.2308  -37.1386   25.8861 H   0  0  0  0  0  0
  -20.9410  -29.8774   21.6845 H   0  0  0  0  0  0
  -26.0174  -38.2840   24.1433 H   0  0  0  0  0  0
  -26.6048  -17.9740   19.0143 H   0  0  0  0  0  0
  -27.7874  -16.0674   19.8890 H   0  0  0  0  0  0
  -30.9723  -18.5956   21.2631 H   0  0  0  0  0  0
  -28.3899  -22.3401   24.0936 H   0  0  0  0  0  0
  -29.1862  -20.9011   23.3362 H   0  0  0  0  0  0
  -30.8330  -22.5111   22.5454 H   0  0  0  0  0  0
  -29.6696  -23.8526   22.7154 H   0  0  0  0  0  0
  -27.1483  -22.8024   22.0672 H   0  0  0  0  0  0
  -27.4343  -21.0652   21.7280 H   0  0  0  0  0  0
  -26.2729  -20.2040   18.6977 H   0  0  0  0  0  0
  -27.7669  -20.8145   17.9994 H   0  0  0  0  0  0
  -27.1725  -21.4393   19.5333 H   0  0  0  0  0  0
  -30.0732  -21.4185   19.3057 H   0  0  0  0  0  0
  -30.8799  -21.0634   20.7605 H   0  0  0  0  0  0
  -28.1315  -25.0365   21.8059 H   0  0  0  0  0  0
  -27.0100  -24.7202   20.5241 H   0  0  0  0  0  0
  -29.3322  -15.4239   21.7644 H   0  0  0  0  0  0
  1 25  1  0  0  0
  1 30  2  0  0  0
  1 85  1  0  0  0
  2  3  1  0  0  0
  2 25  1  0  0  0
  2 87  1  0  0  0
  2 88  1  0  0  0
  3  4  1  0  0  0
  3 89  1  0  0  0
  3 90  1  0  0  0
  4  5  1  0  0  0
  4 91  1  0  0  0
  4 92  1  0  0  0
  5  6  1  0  0  0
  5 26  1  0  0  0
  5 93  1  0  0  0
  6 25  1  0  0  0
  6 94  1  0  0  0
  6 95  1  0  0  0
  7  8  2  0  0  0
  7 26  1  0  0  0
  7 29  1  0  0  0
  8  9  1  0  0  0
  8 22  1  0  0  0
  9 10  1  0  0  0
  9 27  2  0  0  0
 10 11  2  0  0  0
 10 15  1  0  0  0
 11 12  1  0  0  0
 11 96  1  0  0  0
 12 13  2  0  0  0
 12 97  1  0  0  0
 13 14  1  0  0  0
 13 31  1  0  0  0
 14 15  2  0  0  0
 14 98  1  0  0  0
 15 99  1  0  0  0
 16 17  2  0  0  0
 16 21  1  0  0  0
 16 31  1  0  0  0
 17 18  1  0  0  0
 17100  1  0  0  0
 18 19  2  0  0  0
 18101  1  0  0  0
 19 20  1  0  0  0
 19 24  1  0  0  0
 20 21  2  0  0  0
 20102  1  0  0  0
 21 23  1  0  0  0
 22 28  1  0  0  0
 22 32  2  0  0  0
 26 27  1  0  0  0
 28103  1  0  0  0
 28104  1  0  0  0
 29105  1  0  0  0
 29106  1  0  0  0
 33 34  1  0  0  0
 33 66  1  0  0  0
 33 70  2  0  0  0
 34 36  1  0  0  0
 34 59  1  0  0  0
 34107  1  0  0  0
 35 44  2  0  0  0
 35 45  1  0  0  0
 35 68  1  0  0  0
 36 56  1  0  0  0
 36108  1  0  0  0
 37 39  1  0  0  0
 37 47  1  0  0  0
 37 66  1  0  0  0
 37109  1  0  0  0
 38 43  2  0  0  0
 38 46  1  0  0  0
 38 47  1  0  0  0
 39 64  1  0  0  0
 39 67  2  0  0  0
 40 52  1  0  0  0
 40 53  2  0  0  0
 40 58  1  0  0  0
 41110  1  0  0  0
 41111  1  0  0  0
 41112  1  0  0  0
 41 48  1  0  0  0
 42 43  1  0  0  0
 42 66  1  0  0  0
 42113  1  0  0  0
 42114  1  0  0  0
 43 44  1  0  0  0
 44115  1  0  0  0
 45 46  2  0  0  0
 45116  1  0  0  0
 46117  1  0  0  0
 47118  1  0  0  0
 47119  1  0  0  0
 48 56  1  0  0  0
 48 65  1  0  0  0
 48120  1  0  0  0
 49 50  1  0  0  0
 49 53  1  0  0  0
 49 64  1  0  0  0
 49121  1  0  0  0
 50 51  1  0  0  0
 50122  1  0  0  0
 50123  1  0  0  0
 51 52  1  0  0  0
 51124  1  0  0  0
 51125  1  0  0  0
 52126  1  0  0  0
 52127  1  0  0  0
 53 54  1  0  0  0
 54 55  2  0  0  0
 54128  1  0  0  0
 55 57  1  0  0  0
 55129  1  0  0  0
 56 69  2  0  0  0
 57 58  2  0  0  0
 57130  1  0  0  0
 58131  1  0  0  0
 59 60  1  0  0  0
 59 61  1  0  0  0
 59 62  1  0  0  0
 60132  1  0  0  0
 60133  1  0  0  0
 60134  1  0  0  0
 61135  1  0  0  0
 61136  1  0  0  0
 61137  1  0  0  0
 62138  1  0  0  0
 62139  1  0  0  0
 62140  1  0  0  0
 63 65  1  0  0  0
 63141  1  0  0  0
 63142  1  0  0  0
 63143  1  0  0  0
 64144  1  0  0  0
 65145  1  0  0  0
 68 84  1  0  0  0
 71 72  2  0  0  0
 71 74  1  0  0  0
 71146  1  0  0  0
 72 76  1  0  0  0
 72147  1  0  0  0
 73 75  1  0  0  0
 73 76  2  0  0  0
 73148  1  0  0  0
 74 75  2  0  0  0
 74 82  1  0  0  0
 75 83  1  0  0  0
 76 85  1  0  0  0
 77 81  1  0  0  0
 77 84  1  0  0  0
 77 86  2  0  0  0
 78 79  1  0  0  0
 78 80  1  0  0  0
 78149  1  0  0  0
 78150  1  0  0  0
 79 81  1  0  0  0
 79151  1  0  0  0
 79152  1  0  0  0
 80 81  1  0  0  0
 80153  1  0  0  0
 80154  1  0  0  0
 81 83  1  0  0  0
 82155  1  0  0  0
 82156  1  0  0  0
 82157  1  0  0  0
 83158  1  0  0  0
 83159  1  0  0  0
 84160  1  0  0  0
 84161  1  0  0  0
 85162  1  0  0  0
M  ISO  4   1 100  68 101  84 101  85 100
M  END
> <chiral flag>
0

> <version>
0

> <s_m_source_file>
/data/baiqing/PycharmProjects/Reinvent-master-3.2/result/LINK_invent/BTK/process_docking_weight1_custom_product_contain_oxygen_bond_distance_aromatic_linkinvent_7_9_3/rearranged_h_0139.sdf

> <i_m_source_file_index>
99

> <r_mmod_Potential_Energy-OPLS-2005>
334.538604736328

> <r_mmod_Stretch_Energy-OPLS-2005>
145.878829956055

> <r_mmod_Bend_Energy-OPLS-2005>
202.312683105469

> <r_mmod_Torsional_Energy-OPLS-2005>
295.164276123047

> <r_mmod_Improper_Torsional_Energy-OPLS-2005>
8.30287456512451

> <r_mmod_Van_der_Waal_Energy-OPLS-2005>
141.333053588867

> <r_mmod_Electrostatic_Energy-OPLS-2005>
-323.139556884766

> <r_mmod_Solvation_Energy-OPLS-2005>
-221.129348754883

> <b_mmod_Minimization_Converged-OPLS-2005>
0

> <r_mmod_RMS_Derivative-OPLS-2005>
4.47606706619263

$$$$
