0
                    3D
 Structure written by MMmdl.
152160  0  0  1  0            999 V2000
  -30.7155  -14.4786   20.5599 C   0  0  0  0  0  0
  -30.4172  -12.3103   19.4240 C   0  0  0  0  0  0
  -29.4887  -12.4956   18.2071 C   0  0  0  0  0  0
  -28.0118  -12.3599   18.6231 C   0  0  0  0  0  0
  -27.6586  -13.2105   19.8726 C   0  0  2  0  0  0
  -28.7025  -13.0121   20.9951 C   0  0  0  0  0  0
  -25.2569  -13.8167   20.5679 C   0  0  0  0  0  0
  -24.1827  -13.0446   20.9191 C   0  0  0  0  0  0
  -24.6383  -11.6911   20.8744 C   0  0  0  0  0  0
  -23.9051  -10.4296   21.0408 C   0  0  0  0  0  0
  -24.3606   -9.4212   21.9185 C   0  0  0  0  0  0
  -23.6287   -8.2245   22.0756 C   0  0  0  0  0  0
  -22.4271   -8.0277   21.3542 C   0  0  0  0  0  0
  -21.9900   -9.0250   20.4645 C   0  0  0  0  0  0
  -22.7223  -10.2134   20.3058 C   0  0  0  0  0  0
  -21.6857   -6.0732   22.5275 C   0  0  0  0  0  0
  -21.4017   -6.5640   23.8207 C   0  0  0  0  0  0
  -21.3658   -5.6791   24.9170 C   0  0  0  0  0  0
  -21.6048   -4.3054   24.7221 C   0  0  0  0  0  0
  -21.8821   -3.8145   23.4342 C   0  0  0  0  0  0
  -21.9193   -4.6961   22.3397 C   0  0  0  0  0  0
  -22.7847  -13.5236   21.1850 C   0  0  0  0  0  0
  -22.1663   -4.2147   21.0978 F   0  0  0  0  0  0
  -21.5631   -3.4538   25.7734 F   0  0  0  0  0  0
  -30.0316  -13.3083   20.4353 N   0  0  0  0  0  0
  -26.3007  -12.9347   20.3368 N   0  0  0  0  0  0
  -25.9312  -11.6505   20.5781 N   0  0  0  0  0  0
  -22.0492  -12.8228   22.0416 N   0  0  0  0  0  0
  -25.4296  -15.1876   20.4044 N   0  0  0  0  0  0
  -31.8499  -14.6365   20.1022 O   0  0  0  0  0  0
  -21.6641   -6.8871   21.4234 O   0  0  0  0  0  0
  -22.3523  -14.5535   20.6695 O   0  0  0  0  0  0
  -24.6154  -31.8679   23.2096 C   0  0  0  0  0  0
  -25.9044  -32.4823   23.8392 C   0  0  1  0  0  0
  -27.2280  -27.4168   20.1058 C   0  0  0  0  0  0
  -25.5895  -33.8625   24.2322 N   0  0  0  0  0  0
  -23.4038  -30.4920   21.5503 C   0  0  2  0  0  0
  -24.8517  -28.9571   20.1138 C   0  0  0  0  0  0
  -22.7410  -29.4659   22.4977 C   0  0  0  0  0  0
  -18.0281  -28.1373   22.8488 C   0  0  0  0  0  0
  -24.1486  -36.7317   23.2638 C   0  0  0  0  0  0
  -25.9350  -30.8286   21.3647 C   0  0  0  0  0  0
  -26.0137  -29.4619   20.7122 C   0  0  0  0  0  0
  -27.2082  -28.7010   20.7022 C   0  0  0  0  0  0
  -26.0519  -26.9371   19.4893 C   0  0  0  0  0  0
  -24.8665  -27.6947   19.4977 C   0  0  0  0  0  0
  -23.6139  -29.8257   20.1645 C   0  0  0  0  0  0
  -25.4109  -36.3115   24.0335 C   0  0  1  0  0  0
  -20.5863  -28.3670   23.1308 C   0  0  2  0  0  0
  -20.6767  -26.9401   22.5421 C   0  0  0  0  0  0
  -19.5746  -26.6370   21.5212 C   0  0  0  0  0  0
  -18.1927  -26.7917   22.1623 C   0  0  0  0  0  0
  -19.1526  -28.8837   23.2898 C   0  0  0  0  0  0
  -18.9448  -30.1442   23.8910 C   0  0  0  0  0  0
  -17.6452  -30.6574   24.0569 C   0  0  0  0  0  0
  -25.9039  -34.9480   23.5126 C   0  0  0  0  0  0
  -16.5348  -29.9071   23.6326 C   0  0  0  0  0  0
  -16.7270  -28.6494   23.0341 C   0  0  0  0  0  0
  -26.4470  -31.6602   25.0722 C   0  0  0  0  0  0
  -25.3734  -31.3705   26.1467 C   0  0  0  0  0  0
  -27.0293  -30.3042   24.6098 C   0  0  0  0  0  0
  -27.6044  -32.4317   25.7487 C   0  0  0  0  0  0
  -27.5580  -37.1817   24.8469 C   0  0  0  0  0  0
  -21.4135  -29.3046   22.3723 N   0  0  0  0  0  0
  -26.4297  -37.3795   23.9410 N   0  0  0  0  0  0
  -24.6698  -31.0772   22.0999 N   0  0  0  0  0  0
  -23.4179  -28.8193   23.3014 O   0  0  0  0  0  0
  -28.3649  -26.6327   20.1211 O   0  0  0  0  0  0
  -26.5603  -34.8928   22.4689 O   0  0  0  0  0  0
  -23.5343  -32.1438   23.7483 O   0  0  0  0  0  0
  -29.8727  -19.3527   20.7122 C   0  0  0  0  0  0
  -28.1232  -17.7736   21.3321 C   0  0  0  0  0  0
  -27.5788  -20.1204   20.9188 C   0  0  0  0  0  0
  -29.4820  -18.0267   21.0487 C   0  0  0  0  0  0
  -28.9386  -20.4227   20.6469 C   0  0  0  0  0  0
  -27.1803  -18.8149   21.2649 C   0  0  0  0  0  0
  -28.7747  -22.7946   20.5873 C   0  0  0  0  0  0
  -29.0873  -24.2293   20.1569 C   0  0  0  0  0  0
  -30.5342  -16.9093   21.1288 C   0  0  0  0  0  0
  -28.1687  -25.3322   20.7329 C   0  0  0  0  0  0
  -29.3916  -21.7102   20.2602 N   0  0  0  0  0  0
  -30.0349  -15.5190   21.0770 N   0  0  0  0  0  0
  -30.0181  -24.5121   19.3893 O   0  0  0  0  0  0
  -25.8774  -18.5621   21.5338 F   0  0  0  0  0  0
  -31.4606  -12.4038   19.1177 H   0  0  0  0  0  0
  -30.3180  -11.3037   19.8336 H   0  0  0  0  0  0
  -29.7262  -11.7613   17.4354 H   0  0  0  0  0  0
  -29.6562  -13.4765   17.7603 H   0  0  0  0  0  0
  -27.8232  -11.3054   18.8279 H   0  0  0  0  0  0
  -27.3594  -12.6284   17.7914 H   0  0  0  0  0  0
  -27.6973  -14.2552   19.5640 H   0  0  0  0  0  0
  -28.6789  -11.9836   21.3592 H   0  0  0  0  0  0
  -28.4679  -13.6336   21.8608 H   0  0  0  0  0  0
  -25.2753   -9.5698   22.4751 H   0  0  0  0  0  0
  -24.0005   -7.4640   22.7473 H   0  0  0  0  0  0
  -21.0836   -8.8758   19.8945 H   0  0  0  0  0  0
  -22.3677  -10.9668   19.6164 H   0  0  0  0  0  0
  -21.2014   -7.6147   23.9710 H   0  0  0  0  0  0
  -21.1478   -6.0522   25.9073 H   0  0  0  0  0  0
  -22.0602   -2.7606   23.2840 H   0  0  0  0  0  0
  -22.4117  -11.9892   22.4800 H   0  0  0  0  0  0
  -21.1105  -13.1243   22.2623 H   0  0  0  0  0  0
  -24.6669  -15.8450   20.5242 H   0  0  0  0  0  0
  -26.2699  -15.6197   20.0449 H   0  0  0  0  0  0
  -26.7109  -32.5536   23.1148 H   0  0  0  0  0  0
  -25.0047  -33.9788   25.0468 H   0  0  0  0  0  0
  -22.6928  -31.3094   21.4119 H   0  0  0  0  0  0
  -23.3742  -35.9656   23.3318 H   0  0  0  0  0  0
  -24.3576  -36.8921   22.2048 H   0  0  0  0  0  0
  -23.7242  -37.6529   23.6643 H   0  0  0  0  0  0
  -26.0472  -31.5934   20.5951 H   0  0  0  0  0  0
  -26.8220  -30.8829   21.9837 H   0  0  0  0  0  0
  -28.1032  -29.0836   21.1741 H   0  0  0  0  0  0
  -26.0448  -25.9724   19.0021 H   0  0  0  0  0  0
  -23.9749  -27.3029   19.0274 H   0  0  0  0  0  0
  -23.7214  -30.6011   19.4053 H   0  0  0  0  0  0
  -22.7373  -29.2473   19.8677 H   0  0  0  0  0  0
  -25.1284  -36.1981   25.0828 H   0  0  0  0  0  0
  -20.9941  -28.3229   24.1429 H   0  0  0  0  0  0
  -20.5684  -26.2277   23.3617 H   0  0  0  0  0  0
  -21.6634  -26.7435   22.1220 H   0  0  0  0  0  0
  -19.6912  -25.6286   21.1245 H   0  0  0  0  0  0
  -19.6691  -27.3166   20.6729 H   0  0  0  0  0  0
  -17.4198  -26.6652   21.4025 H   0  0  0  0  0  0
  -18.0311  -26.0060   22.9020 H   0  0  0  0  0  0
  -19.7920  -30.7255   24.2288 H   0  0  0  0  0  0
  -17.4999  -31.6255   24.5160 H   0  0  0  0  0  0
  -15.5350  -30.2972   23.7650 H   0  0  0  0  0  0
  -15.8668  -28.0820   22.7041 H   0  0  0  0  0  0
  -24.5911  -30.7044   25.7807 H   0  0  0  0  0  0
  -24.8917  -32.2858   26.4923 H   0  0  0  0  0  0
  -25.8095  -30.8874   27.0219 H   0  0  0  0  0  0
  -26.2832  -29.6813   24.1145 H   0  0  0  0  0  0
  -27.4050  -29.7273   25.4562 H   0  0  0  0  0  0
  -27.8679  -30.4362   23.9252 H   0  0  0  0  0  0
  -27.2661  -33.3608   26.2086 H   0  0  0  0  0  0
  -28.3842  -32.6892   25.0306 H   0  0  0  0  0  0
  -28.0713  -31.8420   26.5387 H   0  0  0  0  0  0
  -28.2611  -38.0101   24.7502 H   0  0  0  0  0  0
  -28.1060  -36.2635   24.6310 H   0  0  0  0  0  0
  -27.2299  -37.1484   25.8872 H   0  0  0  0  0  0
  -20.9283  -29.8786   21.6969 H   0  0  0  0  0  0
  -26.0190  -38.2876   24.1401 H   0  0  0  0  0  0
  -30.9145  -19.5507   20.4979 H   0  0  0  0  0  0
  -27.7837  -16.7863   21.6068 H   0  0  0  0  0  0
  -26.8071  -20.8729   20.8598 H   0  0  0  0  0  0
  -27.9136  -22.7304   21.2571 H   0  0  0  0  0  0
  -31.0912  -17.0318   22.0584 H   0  0  0  0  0  0
  -31.2521  -17.0815   20.3241 H   0  0  0  0  0  0
  -28.3730  -25.4238   21.7997 H   0  0  0  0  0  0
  -27.1384  -24.9880   20.6491 H   0  0  0  0  0  0
  -29.1063  -15.3383   21.4217 H   0  0  0  0  0  0
  1 25  1  0  0  0
  1 30  2  0  0  0
  1 82  1  0  0  0
  2  3  1  0  0  0
  2 25  1  0  0  0
  2 85  1  0  0  0
  2 86  1  0  0  0
  3  4  1  0  0  0
  3 87  1  0  0  0
  3 88  1  0  0  0
  4  5  1  0  0  0
  4 89  1  0  0  0
  4 90  1  0  0  0
  5  6  1  0  0  0
  5 26  1  0  0  0
  5 91  1  0  0  0
  6 25  1  0  0  0
  6 92  1  0  0  0
  6 93  1  0  0  0
  7  8  2  0  0  0
  7 26  1  0  0  0
  7 29  1  0  0  0
  8  9  1  0  0  0
  8 22  1  0  0  0
  9 10  1  0  0  0
  9 27  2  0  0  0
 10 11  2  0  0  0
 10 15  1  0  0  0
 11 12  1  0  0  0
 11 94  1  0  0  0
 12 13  2  0  0  0
 12 95  1  0  0  0
 13 14  1  0  0  0
 13 31  1  0  0  0
 14 15  2  0  0  0
 14 96  1  0  0  0
 15 97  1  0  0  0
 16 17  2  0  0  0
 16 21  1  0  0  0
 16 31  1  0  0  0
 17 18  1  0  0  0
 17 98  1  0  0  0
 18 19  2  0  0  0
 18 99  1  0  0  0
 19 20  1  0  0  0
 19 24  1  0  0  0
 20 21  2  0  0  0
 20100  1  0  0  0
 21 23  1  0  0  0
 22 28  1  0  0  0
 22 32  2  0  0  0
 26 27  1  0  0  0
 28101  1  0  0  0
 28102  1  0  0  0
 29103  1  0  0  0
 29104  1  0  0  0
 33 34  1  0  0  0
 33 66  1  0  0  0
 33 70  2  0  0  0
 34 36  1  0  0  0
 34 59  1  0  0  0
 34105  1  0  0  0
 35 44  2  0  0  0
 35 45  1  0  0  0
 35 68  1  0  0  0
 36 56  1  0  0  0
 36106  1  0  0  0
 37 39  1  0  0  0
 37 47  1  0  0  0
 37 66  1  0  0  0
 37107  1  0  0  0
 38 43  2  0  0  0
 38 46  1  0  0  0
 38 47  1  0  0  0
 39 64  1  0  0  0
 39 67  2  0  0  0
 40 52  1  0  0  0
 40 53  2  0  0  0
 40 58  1  0  0  0
 41108  1  0  0  0
 41109  1  0  0  0
 41110  1  0  0  0
 41 48  1  0  0  0
 42 43  1  0  0  0
 42 66  1  0  0  0
 42111  1  0  0  0
 42112  1  0  0  0
 43 44  1  0  0  0
 44113  1  0  0  0
 45 46  2  0  0  0
 45114  1  0  0  0
 46115  1  0  0  0
 47116  1  0  0  0
 47117  1  0  0  0
 48 56  1  0  0  0
 48 65  1  0  0  0
 48118  1  0  0  0
 49 50  1  0  0  0
 49 53  1  0  0  0
 49 64  1  0  0  0
 49119  1  0  0  0
 50 51  1  0  0  0
 50120  1  0  0  0
 50121  1  0  0  0
 51 52  1  0  0  0
 51122  1  0  0  0
 51123  1  0  0  0
 52124  1  0  0  0
 52125  1  0  0  0
 53 54  1  0  0  0
 54 55  2  0  0  0
 54126  1  0  0  0
 55 57  1  0  0  0
 55127  1  0  0  0
 56 69  2  0  0  0
 57 58  2  0  0  0
 57128  1  0  0  0
 58129  1  0  0  0
 59 60  1  0  0  0
 59 61  1  0  0  0
 59 62  1  0  0  0
 60130  1  0  0  0
 60131  1  0  0  0
 60132  1  0  0  0
 61133  1  0  0  0
 61134  1  0  0  0
 61135  1  0  0  0
 62136  1  0  0  0
 62137  1  0  0  0
 62138  1  0  0  0
 63 65  1  0  0  0
 63139  1  0  0  0
 63140  1  0  0  0
 63141  1  0  0  0
 64142  1  0  0  0
 65143  1  0  0  0
 68 80  1  0  0  0
 71 74  2  0  0  0
 71 75  1  0  0  0
 71144  1  0  0  0
 72 74  1  0  0  0
 72 76  2  0  0  0
 72145  1  0  0  0
 73 75  2  0  0  0
 73 76  1  0  0  0
 73146  1  0  0  0
 74 79  1  0  0  0
 75 81  1  0  0  0
 76 84  1  0  0  0
 77 78  1  0  0  0
 77 81  2  0  0  0
 77147  1  0  0  0
 78 80  1  0  0  0
 78 83  2  0  0  0
 79 82  1  0  0  0
 79148  1  0  0  0
 79149  1  0  0  0
 80150  1  0  0  0
 80151  1  0  0  0
 82152  1  0  0  0
M  ISO  4   1 100  68 101  80 101  82 100
M  END
> <chiral flag>
0

> <version>
0

> <s_m_source_file>
/data/baiqing/PycharmProjects/Reinvent-master-3.2/result/LINK_invent/BTK/process_docking_weight1_custom_product_contain_oxygen_bond_distance_aromatic_linkinvent_7_9_3/rearranged_h_0162.sdf

> <i_m_source_file_index>
1

> <r_mmod_Potential_Energy-OPLS-2005>
-63.807746887207

> <r_mmod_Stretch_Energy-OPLS-2005>
43.9506874084473

> <r_mmod_Bend_Energy-OPLS-2005>
96.7823181152344

> <r_mmod_Torsional_Energy-OPLS-2005>
213.380477905273

> <r_mmod_Improper_Torsional_Energy-OPLS-2005>
3.4076874256134

> <r_mmod_Van_der_Waal_Energy-OPLS-2005>
154.415588378906

> <r_mmod_Electrostatic_Energy-OPLS-2005>
-350.410949707031

> <r_mmod_Solvation_Energy-OPLS-2005>
-241.172134399414

> <b_mmod_Minimization_Converged-OPLS-2005>
0

> <r_mmod_RMS_Derivative-OPLS-2005>
1.22072339057922

$$$$
1
                    3D
 Structure written by MMmdl.
161170  0  0  1  0            999 V2000
  -30.6377  -14.5509   20.5592 C   0  0  0  0  0  0
  -30.4364  -12.3492   19.4314 C   0  0  0  0  0  0
  -29.4992  -12.5176   18.2148 C   0  0  0  0  0  0
  -28.0212  -12.3607   18.6273 C   0  0  0  0  0  0
  -27.6604  -13.2035   19.8789 C   0  0  2  0  0  0
  -28.7039  -12.9905   20.9996 C   0  0  0  0  0  0
  -25.2576  -13.8130   20.5642 C   0  0  0  0  0  0
  -24.1841  -13.0416   20.9190 C   0  0  0  0  0  0
  -24.6400  -11.6882   20.8755 C   0  0  0  0  0  0
  -23.9065  -10.4273   21.0427 C   0  0  0  0  0  0
  -24.3612   -9.4189   21.9204 C   0  0  0  0  0  0
  -23.6279   -8.2229   22.0761 C   0  0  0  0  0  0
  -22.4264   -8.0278   21.3545 C   0  0  0  0  0  0
  -21.9911   -9.0257   20.4647 C   0  0  0  0  0  0
  -22.7244  -10.2130   20.3070 C   0  0  0  0  0  0
  -21.6839   -6.0739   22.5279 C   0  0  0  0  0  0
  -21.4003   -6.5639   23.8217 C   0  0  0  0  0  0
  -21.3672   -5.6795   24.9173 C   0  0  0  0  0  0
  -21.6055   -4.3063   24.7224 C   0  0  0  0  0  0
  -21.8816   -3.8154   23.4348 C   0  0  0  0  0  0
  -21.9185   -4.6967   22.3402 C   0  0  0  0  0  0
  -22.7866  -13.5220   21.1861 C   0  0  0  0  0  0
  -22.1644   -4.2156   21.0976 F   0  0  0  0  0  0
  -21.5647   -3.4552   25.7745 F   0  0  0  0  0  0
  -30.0285  -13.3333   20.4488 N   0  0  0  0  0  0
  -26.3017  -12.9291   20.3374 N   0  0  0  0  0  0
  -25.9331  -11.6458   20.5803 N   0  0  0  0  0  0
  -22.0508  -12.8204   22.0411 N   0  0  0  0  0  0
  -25.4261  -15.1839   20.3930 N   0  0  0  0  0  0
  -31.7779  -14.7614   20.1303 O   0  0  0  0  0  0
  -21.6624   -6.8882   21.4240 O   0  0  0  0  0  0
  -22.3562  -14.5540   20.6730 O   0  0  0  0  0  0
  -24.6208  -31.8633   23.2111 C   0  0  0  0  0  0
  -25.9083  -32.4791   23.8431 C   0  0  1  0  0  0
  -27.2364  -27.3859   20.1211 C   0  0  0  0  0  0
  -25.5929  -33.8592   24.2344 N   0  0  0  0  0  0
  -23.4139  -30.4852   21.5493 C   0  0  2  0  0  0
  -24.8649  -28.9438   20.1213 C   0  0  0  0  0  0
  -22.7453  -29.4631   22.4972 C   0  0  0  0  0  0
  -18.0277  -28.1404   22.8499 C   0  0  0  0  0  0
  -24.1479  -36.7271   23.2646 C   0  0  0  0  0  0
  -25.9481  -30.8140   21.3746 C   0  0  0  0  0  0
  -26.0267  -29.4436   20.7251 C   0  0  0  0  0  0
  -27.2188  -28.6718   20.7233 C   0  0  0  0  0  0
  -26.0612  -26.9142   19.5055 C   0  0  0  0  0  0
  -24.8788  -27.6791   19.5088 C   0  0  0  0  0  0
  -23.6287  -29.8163   20.1656 C   0  0  0  0  0  0
  -25.4105  -36.3078   24.0342 C   0  0  1  0  0  0
  -20.5876  -28.3687   23.1291 C   0  0  2  0  0  0
  -20.6764  -26.9406   22.5417 C   0  0  0  0  0  0
  -19.5738  -26.6396   21.5219 C   0  0  0  0  0  0
  -18.1915  -26.7960   22.1617 C   0  0  0  0  0  0
  -19.1533  -28.8865   23.2896 C   0  0  0  0  0  0
  -18.9456  -30.1477   23.8902 C   0  0  0  0  0  0
  -17.6450  -30.6604   24.0573 C   0  0  0  0  0  0
  -25.9034  -34.9447   23.5130 C   0  0  0  0  0  0
  -16.5341  -29.9099   23.6350 C   0  0  0  0  0  0
  -16.7264  -28.6518   23.0369 C   0  0  0  0  0  0
  -26.4510  -31.6593   25.0775 C   0  0  0  0  0  0
  -25.3769  -31.3661   26.1504 C   0  0  0  0  0  0
  -27.0392  -30.3047   24.6200 C   0  0  0  0  0  0
  -27.6091  -32.4338   25.7506 C   0  0  0  0  0  0
  -27.5576  -37.1773   24.8464 C   0  0  0  0  0  0
  -21.4177  -29.3039   22.3688 N   0  0  0  0  0  0
  -26.4276  -37.3782   23.9434 N   0  0  0  0  0  0
  -24.6787  -31.0699   22.1029 N   0  0  0  0  0  0
  -23.4186  -28.8177   23.3051 O   0  0  0  0  0  0
  -28.3604  -26.5784   20.0733 O   0  0  0  0  0  0
  -26.5586  -34.8894   22.4689 O   0  0  0  0  0  0
  -23.5380  -32.1406   23.7457 O   0  0  0  0  0  0
  -28.6569  -19.1073   20.9561 C   0  0  0  0  0  0
  -28.6871  -17.6920   20.9326 C   0  0  0  0  0  0
  -31.0962  -17.7298   21.0675 C   0  0  0  0  0  0
  -29.8371  -19.8795   21.0754 C   0  0  0  0  0  0
  -31.0712  -19.1553   21.1232 C   0  0  0  0  0  0
  -29.9020  -16.9715   20.9883 C   0  0  0  0  0  0
  -28.4498  -23.4735   22.1415 C   0  0  0  0  0  0
  -28.8395  -24.3046   21.1485 C   0  0  0  0  0  0
  -28.6814  -21.9565   22.1878 C   0  0  0  0  0  0
  -29.5656  -23.7263   19.9318 C   0  0  0  0  0  0
  -29.5230  -22.1653   19.8293 C   0  0  0  0  0  0
  -29.7486  -21.4421   21.1803 C   0  0  2  0  0  0
  -32.4021  -19.8764   21.2670 C   0  0  0  0  0  0
  -28.6790  -25.8463   21.2789 C   0  0  0  0  0  0
  -29.8296  -15.5309   21.0393 N   0  0  0  0  0  0
  -31.4782  -12.4740   19.1305 H   0  0  0  0  0  0
  -30.3644  -11.3370   19.8327 H   0  0  0  0  0  0
  -29.7503  -11.7909   17.4413 H   0  0  0  0  0  0
  -29.6493  -13.5020   17.7672 H   0  0  0  0  0  0
  -27.8446  -11.3033   18.8291 H   0  0  0  0  0  0
  -27.3658  -12.6242   17.7955 H   0  0  0  0  0  0
  -27.6997  -14.2506   19.5772 H   0  0  0  0  0  0
  -28.7009  -11.9509   21.3295 H   0  0  0  0  0  0
  -28.4569  -13.5721   21.8894 H   0  0  0  0  0  0
  -25.2755   -9.5654   22.4790 H   0  0  0  0  0  0
  -23.9993   -7.4609   22.7470 H   0  0  0  0  0  0
  -21.0857   -8.8775   19.8930 H   0  0  0  0  0  0
  -22.3721  -10.9679   19.6182 H   0  0  0  0  0  0
  -21.1974   -7.6144   23.9728 H   0  0  0  0  0  0
  -21.1500   -6.0520   25.9081 H   0  0  0  0  0  0
  -22.0583   -2.7616   23.2844 H   0  0  0  0  0  0
  -22.4115  -11.9828   22.4742 H   0  0  0  0  0  0
  -21.1137  -13.1239   22.2639 H   0  0  0  0  0  0
  -24.6433  -15.8249   20.4636 H   0  0  0  0  0  0
  -26.2453  -15.6059   19.9763 H   0  0  0  0  0  0
  -26.7164  -32.5481   23.1198 H   0  0  0  0  0  0
  -25.0161  -33.9784   25.0543 H   0  0  0  0  0  0
  -22.7056  -31.3030   21.4042 H   0  0  0  0  0  0
  -23.3767  -35.9570   23.3279 H   0  0  0  0  0  0
  -24.3572  -36.8934   22.2066 H   0  0  0  0  0  0
  -23.7186  -37.6445   23.6686 H   0  0  0  0  0  0
  -26.0722  -31.5803   20.6077 H   0  0  0  0  0  0
  -26.8311  -30.8646   22.0000 H   0  0  0  0  0  0
  -28.1174  -29.0565   21.1841 H   0  0  0  0  0  0
  -26.0574  -25.9397   19.0376 H   0  0  0  0  0  0
  -23.9854  -27.2872   19.0429 H   0  0  0  0  0  0
  -23.7407  -30.5917   19.4072 H   0  0  0  0  0  0
  -22.7524  -29.2394   19.8639 H   0  0  0  0  0  0
  -25.1276  -36.1935   25.0833 H   0  0  0  0  0  0
  -20.9968  -28.3262   24.1406 H   0  0  0  0  0  0
  -20.5681  -26.2287   23.3621 H   0  0  0  0  0  0
  -21.6628  -26.7440   22.1176 H   0  0  0  0  0  0
  -19.6885  -25.6306   21.1250 H   0  0  0  0  0  0
  -19.6695  -27.3209   20.6750 H   0  0  0  0  0  0
  -17.4188  -26.6760   21.4011 H   0  0  0  0  0  0
  -18.0277  -26.0091   22.8990 H   0  0  0  0  0  0
  -19.7921  -30.7322   24.2257 H   0  0  0  0  0  0
  -17.4983  -31.6280   24.5182 H   0  0  0  0  0  0
  -15.5342  -30.2988   23.7694 H   0  0  0  0  0  0
  -15.8665  -28.0836   22.7085 H   0  0  0  0  0  0
  -24.5990  -30.6960   25.7828 H   0  0  0  0  0  0
  -24.8895  -32.2781   26.4967 H   0  0  0  0  0  0
  -25.8126  -30.8833   27.0265 H   0  0  0  0  0  0
  -26.2971  -29.6726   24.1308 H   0  0  0  0  0  0
  -27.4238  -29.7360   25.4685 H   0  0  0  0  0  0
  -27.8766  -30.4391   23.9339 H   0  0  0  0  0  0
  -27.2752  -33.3685   26.2022 H   0  0  0  0  0  0
  -28.3908  -32.6830   25.0312 H   0  0  0  0  0  0
  -28.0750  -31.8504   26.5456 H   0  0  0  0  0  0
  -28.2550  -38.0112   24.7564 H   0  0  0  0  0  0
  -28.1124  -36.2646   24.6224 H   0  0  0  0  0  0
  -27.2292  -37.1319   25.8864 H   0  0  0  0  0  0
  -20.9367  -29.8700   21.6836 H   0  0  0  0  0  0
  -26.0154  -38.2840   24.1518 H   0  0  0  0  0  0
  -27.6959  -19.5971   20.9028 H   0  0  0  0  0  0
  -27.7478  -17.1616   20.8775 H   0  0  0  0  0  0
  -32.0445  -17.2148   21.1255 H   0  0  0  0  0  0
  -27.9506  -23.8859   23.0082 H   0  0  0  0  0  0
  -27.7103  -21.4950   22.0139 H   0  0  0  0  0  0
  -28.9740  -21.6758   23.2004 H   0  0  0  0  0  0
  -30.6025  -24.0612   19.9785 H   0  0  0  0  0  0
  -29.1424  -24.1612   19.0260 H   0  0  0  0  0  0
  -30.2656  -21.8322   19.1029 H   0  0  0  0  0  0
  -28.5558  -21.8595   19.4277 H   0  0  0  0  0  0
  -30.7019  -21.8002   21.5651 H   0  0  0  0  0  0
  -33.2440  -19.1904   21.1586 H   0  0  0  0  0  0
  -32.4823  -20.3330   22.2541 H   0  0  0  0  0  0
  -32.5150  -20.6527   20.5101 H   0  0  0  0  0  0
  -29.6330  -26.2384   21.6331 H   0  0  0  0  0  0
  -27.9578  -26.0654   22.0702 H   0  0  0  0  0  0
  -28.9276  -15.1701   21.3117 H   0  0  0  0  0  0
  1 25  1  0  0  0
  1 30  2  0  0  0
  1 85  1  0  0  0
  2  3  1  0  0  0
  2 25  1  0  0  0
  2 86  1  0  0  0
  2 87  1  0  0  0
  3  4  1  0  0  0
  3 88  1  0  0  0
  3 89  1  0  0  0
  4  5  1  0  0  0
  4 90  1  0  0  0
  4 91  1  0  0  0
  5  6  1  0  0  0
  5 26  1  0  0  0
  5 92  1  0  0  0
  6 25  1  0  0  0
  6 93  1  0  0  0
  6 94  1  0  0  0
  7  8  2  0  0  0
  7 26  1  0  0  0
  7 29  1  0  0  0
  8  9  1  0  0  0
  8 22  1  0  0  0
  9 10  1  0  0  0
  9 27  2  0  0  0
 10 11  2  0  0  0
 10 15  1  0  0  0
 11 12  1  0  0  0
 11 95  1  0  0  0
 12 13  2  0  0  0
 12 96  1  0  0  0
 13 14  1  0  0  0
 13 31  1  0  0  0
 14 15  2  0  0  0
 14 97  1  0  0  0
 15 98  1  0  0  0
 16 17  2  0  0  0
 16 21  1  0  0  0
 16 31  1  0  0  0
 17 18  1  0  0  0
 17 99  1  0  0  0
 18 19  2  0  0  0
 18100  1  0  0  0
 19 20  1  0  0  0
 19 24  1  0  0  0
 20 21  2  0  0  0
 20101  1  0  0  0
 21 23  1  0  0  0
 22 28  1  0  0  0
 22 32  2  0  0  0
 26 27  1  0  0  0
 28102  1  0  0  0
 28103  1  0  0  0
 29104  1  0  0  0
 29105  1  0  0  0
 33 34  1  0  0  0
 33 66  1  0  0  0
 33 70  2  0  0  0
 34 36  1  0  0  0
 34 59  1  0  0  0
 34106  1  0  0  0
 35 44  2  0  0  0
 35 45  1  0  0  0
 35 68  1  0  0  0
 36 56  1  0  0  0
 36107  1  0  0  0
 37 39  1  0  0  0
 37 47  1  0  0  0
 37 66  1  0  0  0
 37108  1  0  0  0
 38 43  2  0  0  0
 38 46  1  0  0  0
 38 47  1  0  0  0
 39 64  1  0  0  0
 39 67  2  0  0  0
 40 52  1  0  0  0
 40 53  2  0  0  0
 40 58  1  0  0  0
 41109  1  0  0  0
 41110  1  0  0  0
 41111  1  0  0  0
 41 48  1  0  0  0
 42 43  1  0  0  0
 42 66  1  0  0  0
 42112  1  0  0  0
 42113  1  0  0  0
 43 44  1  0  0  0
 44114  1  0  0  0
 45 46  2  0  0  0
 45115  1  0  0  0
 46116  1  0  0  0
 47117  1  0  0  0
 47118  1  0  0  0
 48 56  1  0  0  0
 48 65  1  0  0  0
 48119  1  0  0  0
 49 50  1  0  0  0
 49 53  1  0  0  0
 49 64  1  0  0  0
 49120  1  0  0  0
 50 51  1  0  0  0
 50121  1  0  0  0
 50122  1  0  0  0
 51 52  1  0  0  0
 51123  1  0  0  0
 51124  1  0  0  0
 52125  1  0  0  0
 52126  1  0  0  0
 53 54  1  0  0  0
 54 55  2  0  0  0
 54127  1  0  0  0
 55 57  1  0  0  0
 55128  1  0  0  0
 56 69  2  0  0  0
 57 58  2  0  0  0
 57129  1  0  0  0
 58130  1  0  0  0
 59 60  1  0  0  0
 59 61  1  0  0  0
 59 62  1  0  0  0
 60131  1  0  0  0
 60132  1  0  0  0
 60133  1  0  0  0
 61134  1  0  0  0
 61135  1  0  0  0
 61136  1  0  0  0
 62137  1  0  0  0
 62138  1  0  0  0
 62139  1  0  0  0
 63 65  1  0  0  0
 63140  1  0  0  0
 63141  1  0  0  0
 63142  1  0  0  0
 64143  1  0  0  0
 65144  1  0  0  0
 68 84  1  0  0  0
 71 72  2  0  0  0
 71 74  1  0  0  0
 71145  1  0  0  0
 72 76  1  0  0  0
 72146  1  0  0  0
 73 75  1  0  0  0
 73 76  2  0  0  0
 73147  1  0  0  0
 74 75  2  0  0  0
 74 82  1  0  0  0
 75 83  1  0  0  0
 76 85  1  0  0  0
 77 78  2  0  0  0
 77 79  1  0  0  0
 77148  1  0  0  0
 78 80  1  0  0  0
 78 84  1  0  0  0
 79 82  1  0  0  0
 79149  1  0  0  0
 79150  1  0  0  0
 80 81  1  0  0  0
 80151  1  0  0  0
 80152  1  0  0  0
 81 82  1  0  0  0
 81153  1  0  0  0
 81154  1  0  0  0
 82155  1  0  0  0
 83156  1  0  0  0
 83157  1  0  0  0
 83158  1  0  0  0
 84159  1  0  0  0
 84160  1  0  0  0
 85161  1  0  0  0
M  ISO  4   1 100  68 101  84 101  85 100
M  END
> <chiral flag>
0

> <version>
0

> <s_m_source_file>
/data/baiqing/PycharmProjects/Reinvent-master-3.2/result/LINK_invent/BTK/process_docking_weight1_custom_product_contain_oxygen_bond_distance_aromatic_linkinvent_7_9_3/rearranged_h_0162.sdf

> <i_m_source_file_index>
2

> <r_mmod_Potential_Energy-OPLS-2005>
27.6347370147705

> <r_mmod_Stretch_Energy-OPLS-2005>
54.3680801391602

> <r_mmod_Bend_Energy-OPLS-2005>
117.129264831543

> <r_mmod_Torsional_Energy-OPLS-2005>
245.263534545898

> <r_mmod_Improper_Torsional_Energy-OPLS-2005>
4.73752307891846

> <r_mmod_Van_der_Waal_Energy-OPLS-2005>
146.323196411133

> <r_mmod_Electrostatic_Energy-OPLS-2005>
-367.026794433594

> <r_mmod_Solvation_Energy-OPLS-2005>
-196.762161254883

> <b_mmod_Minimization_Converged-OPLS-2005>
0

> <r_mmod_RMS_Derivative-OPLS-2005>
2.33178973197937

$$$$
2
                    3D
 Structure written by MMmdl.
153161  0  0  1  0            999 V2000
  -30.6125  -14.7642   20.4384 C   0  0  0  0  0  0
  -30.4254  -12.4616   19.4802 C   0  0  0  0  0  0
  -29.5089  -12.5031   18.2381 C   0  0  0  0  0  0
  -28.0351  -12.3277   18.6502 C   0  0  0  0  0  0
  -27.6367  -13.2344   19.8455 C   0  0  2  0  0  0
  -28.6798  -13.1881   20.9834 C   0  0  0  0  0  0
  -25.2488  -13.8206   20.5680 C   0  0  0  0  0  0
  -24.1794  -13.0449   20.9225 C   0  0  0  0  0  0
  -24.6386  -11.6929   20.8756 C   0  0  0  0  0  0
  -23.9068  -10.4304   21.0412 C   0  0  0  0  0  0
  -24.3622   -9.4216   21.9185 C   0  0  0  0  0  0
  -23.6299   -8.2249   22.0756 C   0  0  0  0  0  0
  -22.4280   -8.0285   21.3549 C   0  0  0  0  0  0
  -21.9911   -9.0257   20.4649 C   0  0  0  0  0  0
  -22.7241  -10.2138   20.3059 C   0  0  0  0  0  0
  -21.6855   -6.0738   22.5282 C   0  0  0  0  0  0
  -21.4018   -6.5643   23.8214 C   0  0  0  0  0  0
  -21.3656   -5.6794   24.9175 C   0  0  0  0  0  0
  -21.6039   -4.3056   24.7226 C   0  0  0  0  0  0
  -21.8821   -3.8150   23.4348 C   0  0  0  0  0  0
  -21.9194   -4.6966   22.3404 C   0  0  0  0  0  0
  -22.7815  -13.5228   21.1877 C   0  0  0  0  0  0
  -22.1664   -4.2155   21.0980 F   0  0  0  0  0  0
  -21.5624   -3.4536   25.7735 F   0  0  0  0  0  0
  -29.9783  -13.5387   20.3977 N   0  0  0  0  0  0
  -26.2905  -12.9414   20.3245 N   0  0  0  0  0  0
  -25.9312  -11.6559   20.5743 N   0  0  0  0  0  0
  -22.0460  -12.8218   22.0428 N   0  0  0  0  0  0
  -25.4161  -15.1928   20.4040 N   0  0  0  0  0  0
  -31.8124  -14.8007   20.1492 O   0  0  0  0  0  0
  -21.6645   -6.8881   21.4246 O   0  0  0  0  0  0
  -22.3499  -14.5533   20.6719 O   0  0  0  0  0  0
  -24.6305  -31.8535   23.1946 C   0  0  0  0  0  0
  -25.9129  -32.4741   23.8301 C   0  0  1  0  0  0
  -27.2258  -27.2530   20.1247 C   0  0  0  0  0  0
  -25.5925  -33.8545   24.2231 N   0  0  0  0  0  0
  -23.4278  -30.4724   21.5384 C   0  0  2  0  0  0
  -24.8735  -28.9109   20.1088 C   0  0  0  0  0  0
  -22.7496  -29.4587   22.4912 C   0  0  0  0  0  0
  -18.0284  -28.1392   22.8483 C   0  0  0  0  0  0
  -24.1489  -36.7273   23.2641 C   0  0  0  0  0  0
  -25.9718  -30.7636   21.3723 C   0  0  0  0  0  0
  -26.0429  -29.3846   20.7136 C   0  0  0  0  0  0
  -27.2169  -28.5679   20.7066 C   0  0  0  0  0  0
  -26.0255  -26.8323   19.5162 C   0  0  0  0  0  0
  -24.8698  -27.6434   19.5011 C   0  0  0  0  0  0
  -23.6449  -29.7997   20.1557 C   0  0  0  0  0  0
  -25.4120  -36.3061   24.0323 C   0  0  1  0  0  0
  -20.5890  -28.3698   23.1279 C   0  0  2  0  0  0
  -20.6770  -26.9414   22.5418 C   0  0  0  0  0  0
  -19.5747  -26.6388   21.5216 C   0  0  0  0  0  0
  -18.1928  -26.7935   22.1624 C   0  0  0  0  0  0
  -19.1537  -28.8861   23.2875 C   0  0  0  0  0  0
  -18.9461  -30.1462   23.8895 C   0  0  0  0  0  0
  -17.6461  -30.6594   24.0564 C   0  0  0  0  0  0
  -25.9062  -34.9433   23.5085 C   0  0  0  0  0  0
  -16.5351  -29.9093   23.6330 C   0  0  0  0  0  0
  -16.7271  -28.6509   23.0351 C   0  0  0  0  0  0
  -26.4497  -31.6571   25.0697 C   0  0  0  0  0  0
  -25.3719  -31.3727   26.1417 C   0  0  0  0  0  0
  -27.0350  -30.2989   24.6194 C   0  0  0  0  0  0
  -27.6047  -32.4316   25.7476 C   0  0  0  0  0  0
  -27.5577  -37.1794   24.8467 C   0  0  0  0  0  0
  -21.4203  -29.3042   22.3664 N   0  0  0  0  0  0
  -26.4289  -37.3764   23.9408 N   0  0  0  0  0  0
  -24.6959  -31.0491   22.0917 N   0  0  0  0  0  0
  -23.4192  -28.8145   23.3029 O   0  0  0  0  0  0
  -28.3650  -26.4194   20.2122 O   0  0  0  0  0  0
  -26.5642  -34.8915   22.4662 O   0  0  0  0  0  0
  -23.5458  -32.1364   23.7242 O   0  0  0  0  0  0
  -29.5662  -19.8503   20.2259 C   0  0  0  0  0  0
  -27.9860  -18.3454   21.2264 C   0  0  0  0  0  0
  -27.4599  -20.6302   21.0727 C   0  0  0  0  0  0
  -29.2441  -18.4820   20.6114 C   0  0  0  0  0  0
  -28.6770  -20.9855   20.4476 C   0  0  0  0  0  0
  -30.2185  -17.2657   20.4487 C   0  0  0  0  0  0
  -28.3719  -24.9603   18.1542 C   0  0  0  0  0  0
  -28.1600  -23.6280   20.4062 C   0  0  0  0  0  0
  -28.5813  -25.0234   19.6763 C   0  0  1  0  0  0
  -27.1249  -19.3711   21.4451 N   0  0  0  0  0  0
  -28.9629  -22.3678   20.0740 N   0  0  0  0  0  0
  -29.8437  -15.9239   20.5975 N   0  0  0  0  0  0
  -31.3760  -17.5734   20.1474 O   0  0  0  0  0  0
  -31.4675  -12.5738   19.1769 H   0  0  0  0  0  0
  -30.3639  -11.4899   19.9733 H   0  0  0  0  0  0
  -29.7959  -11.7252   17.5290 H   0  0  0  0  0  0
  -29.6351  -13.4530   17.7168 H   0  0  0  0  0  0
  -27.8931  -11.2803   18.9194 H   0  0  0  0  0  0
  -27.3797  -12.5138   17.7984 H   0  0  0  0  0  0
  -27.6244  -14.2518   19.4544 H   0  0  0  0  0  0
  -28.7177  -12.1969   21.4382 H   0  0  0  0  0  0
  -28.4120  -13.8805   21.7829 H   0  0  0  0  0  0
  -25.2768   -9.5695   22.4755 H   0  0  0  0  0  0
  -24.0012   -7.4641   22.7473 H   0  0  0  0  0  0
  -21.0843   -8.8778   19.8949 H   0  0  0  0  0  0
  -22.3701  -10.9678   19.6168 H   0  0  0  0  0  0
  -21.2015   -7.6152   23.9722 H   0  0  0  0  0  0
  -21.1472   -6.0521   25.9077 H   0  0  0  0  0  0
  -22.0600   -2.7614   23.2845 H   0  0  0  0  0  0
  -22.4080  -11.9889   22.4828 H   0  0  0  0  0  0
  -21.1074  -13.1239   22.2627 H   0  0  0  0  0  0
  -24.6329  -15.8329   20.4862 H   0  0  0  0  0  0
  -26.2236  -15.6151   19.9664 H   0  0  0  0  0  0
  -26.7193  -32.5386   23.1036 H   0  0  0  0  0  0
  -25.0048  -33.9676   25.0360 H   0  0  0  0  0  0
  -22.7245  -31.2941   21.3888 H   0  0  0  0  0  0
  -23.3756  -35.9599   23.3306 H   0  0  0  0  0  0
  -24.3569  -36.8898   22.2053 H   0  0  0  0  0  0
  -23.7235  -37.6470   23.6671 H   0  0  0  0  0  0
  -26.1116  -31.5246   20.6035 H   0  0  0  0  0  0
  -26.8490  -30.8125   22.0062 H   0  0  0  0  0  0
  -28.1156  -28.9280   21.1877 H   0  0  0  0  0  0
  -25.9451  -25.8483   19.0855 H   0  0  0  0  0  0
  -23.9675  -27.2688   19.0378 H   0  0  0  0  0  0
  -23.7697  -30.5730   19.3966 H   0  0  0  0  0  0
  -22.7629  -29.2324   19.8528 H   0  0  0  0  0  0
  -25.1304  -36.1905   25.0814 H   0  0  0  0  0  0
  -20.9974  -28.3279   24.1401 H   0  0  0  0  0  0
  -20.5663  -26.2309   23.3622 H   0  0  0  0  0  0
  -21.6640  -26.7436   22.1218 H   0  0  0  0  0  0
  -19.6911  -25.6298   21.1245 H   0  0  0  0  0  0
  -19.6691  -27.3196   20.6745 H   0  0  0  0  0  0
  -17.4199  -26.6676   21.4028 H   0  0  0  0  0  0
  -18.0329  -26.0082   22.9025 H   0  0  0  0  0  0
  -19.7937  -30.7275   24.2271 H   0  0  0  0  0  0
  -17.5016  -31.6271   24.5166 H   0  0  0  0  0  0
  -15.5354  -30.2995   23.7660 H   0  0  0  0  0  0
  -15.8668  -28.0829   22.7073 H   0  0  0  0  0  0
  -24.5898  -30.7068   25.7751 H   0  0  0  0  0  0
  -24.8901  -32.2893   26.4826 H   0  0  0  0  0  0
  -25.8031  -30.8917   27.0205 H   0  0  0  0  0  0
  -26.2938  -29.6732   24.1206 H   0  0  0  0  0  0
  -27.4016  -29.7257   25.4719 H   0  0  0  0  0  0
  -27.8819  -30.4262   23.9448 H   0  0  0  0  0  0
  -27.2652  -33.3623   26.2036 H   0  0  0  0  0  0
  -28.3868  -32.6866   25.0313 H   0  0  0  0  0  0
  -28.0705  -31.8451   26.5405 H   0  0  0  0  0  0
  -28.2600  -38.0087   24.7511 H   0  0  0  0  0  0
  -28.1068  -36.2617   24.6302 H   0  0  0  0  0  0
  -27.2292  -37.1453   25.8868 H   0  0  0  0  0  0
  -20.9394  -29.8750   21.6850 H   0  0  0  0  0  0
  -26.0168  -38.2837   24.1413 H   0  0  0  0  0  0
  -30.5222  -20.0361   19.7583 H   0  0  0  0  0  0
  -27.6477  -17.3794   21.5720 H   0  0  0  0  0  0
  -26.7156  -21.3830   21.2856 H   0  0  0  0  0  0
  -28.9231  -24.1207   17.7302 H   0  0  0  0  0  0
  -28.7340  -25.8659   17.6674 H   0  0  0  0  0  0
  -27.3306  -24.8156   17.8757 H   0  0  0  0  0  0
  -28.2355  -23.7797   21.4841 H   0  0  0  0  0  0
  -27.1023  -23.4452   20.2094 H   0  0  0  0  0  0
  -29.6667  -24.9962   19.7786 H   0  0  0  0  0  0
  -29.8638  -22.5436   19.6339 H   0  0  0  0  0  0
  -28.8776  -15.7530   20.8137 H   0  0  0  0  0  0
  1 25  1  0  0  0
  1 30  2  0  0  0
  1 82  1  0  0  0
  2  3  1  0  0  0
  2 25  1  0  0  0
  2 84  1  0  0  0
  2 85  1  0  0  0
  3  4  1  0  0  0
  3 86  1  0  0  0
  3 87  1  0  0  0
  4  5  1  0  0  0
  4 88  1  0  0  0
  4 89  1  0  0  0
  5  6  1  0  0  0
  5 26  1  0  0  0
  5 90  1  0  0  0
  6 25  1  0  0  0
  6 91  1  0  0  0
  6 92  1  0  0  0
  7  8  2  0  0  0
  7 26  1  0  0  0
  7 29  1  0  0  0
  8  9  1  0  0  0
  8 22  1  0  0  0
  9 10  1  0  0  0
  9 27  2  0  0  0
 10 11  2  0  0  0
 10 15  1  0  0  0
 11 12  1  0  0  0
 11 93  1  0  0  0
 12 13  2  0  0  0
 12 94  1  0  0  0
 13 14  1  0  0  0
 13 31  1  0  0  0
 14 15  2  0  0  0
 14 95  1  0  0  0
 15 96  1  0  0  0
 16 17  2  0  0  0
 16 21  1  0  0  0
 16 31  1  0  0  0
 17 18  1  0  0  0
 17 97  1  0  0  0
 18 19  2  0  0  0
 18 98  1  0  0  0
 19 20  1  0  0  0
 19 24  1  0  0  0
 20 21  2  0  0  0
 20 99  1  0  0  0
 21 23  1  0  0  0
 22 28  1  0  0  0
 22 32  2  0  0  0
 26 27  1  0  0  0
 28100  1  0  0  0
 28101  1  0  0  0
 29102  1  0  0  0
 29103  1  0  0  0
 33 34  1  0  0  0
 33 66  1  0  0  0
 33 70  2  0  0  0
 34 36  1  0  0  0
 34 59  1  0  0  0
 34104  1  0  0  0
 35 44  2  0  0  0
 35 45  1  0  0  0
 35 68  1  0  0  0
 36 56  1  0  0  0
 36105  1  0  0  0
 37 39  1  0  0  0
 37 47  1  0  0  0
 37 66  1  0  0  0
 37106  1  0  0  0
 38 43  2  0  0  0
 38 46  1  0  0  0
 38 47  1  0  0  0
 39 64  1  0  0  0
 39 67  2  0  0  0
 40 52  1  0  0  0
 40 53  2  0  0  0
 40 58  1  0  0  0
 41107  1  0  0  0
 41108  1  0  0  0
 41109  1  0  0  0
 41 48  1  0  0  0
 42 43  1  0  0  0
 42 66  1  0  0  0
 42110  1  0  0  0
 42111  1  0  0  0
 43 44  1  0  0  0
 44112  1  0  0  0
 45 46  2  0  0  0
 45113  1  0  0  0
 46114  1  0  0  0
 47115  1  0  0  0
 47116  1  0  0  0
 48 56  1  0  0  0
 48 65  1  0  0  0
 48117  1  0  0  0
 49 50  1  0  0  0
 49 53  1  0  0  0
 49 64  1  0  0  0
 49118  1  0  0  0
 50 51  1  0  0  0
 50119  1  0  0  0
 50120  1  0  0  0
 51 52  1  0  0  0
 51121  1  0  0  0
 51122  1  0  0  0
 52123  1  0  0  0
 52124  1  0  0  0
 53 54  1  0  0  0
 54 55  2  0  0  0
 54125  1  0  0  0
 55 57  1  0  0  0
 55126  1  0  0  0
 56 69  2  0  0  0
 57 58  2  0  0  0
 57127  1  0  0  0
 58128  1  0  0  0
 59 60  1  0  0  0
 59 61  1  0  0  0
 59 62  1  0  0  0
 60129  1  0  0  0
 60130  1  0  0  0
 60131  1  0  0  0
 61132  1  0  0  0
 61133  1  0  0  0
 61134  1  0  0  0
 62135  1  0  0  0
 62136  1  0  0  0
 62137  1  0  0  0
 63 65  1  0  0  0
 63138  1  0  0  0
 63139  1  0  0  0
 63140  1  0  0  0
 64141  1  0  0  0
 65142  1  0  0  0
 68 79  1  0  0  0
 71 74  2  0  0  0
 71 75  1  0  0  0
 71143  1  0  0  0
 72 74  1  0  0  0
 72 80  2  0  0  0
 72144  1  0  0  0
 73 75  2  0  0  0
 73 80  1  0  0  0
 73145  1  0  0  0
 74 76  1  0  0  0
 75 81  1  0  0  0
 76 82  1  0  0  0
 76 83  2  0  0  0
 77146  1  0  0  0
 77147  1  0  0  0
 77148  1  0  0  0
 77 79  1  0  0  0
 78 79  1  0  0  0
 78 81  1  0  0  0
 78149  1  0  0  0
 78150  1  0  0  0
 79151  1  0  0  0
 81152  1  0  0  0
 82153  1  0  0  0
M  ISO  4   1 100  68 101  79 101  82 100
M  END
> <chiral flag>
0

> <version>
0

> <s_m_source_file>
/data/baiqing/PycharmProjects/Reinvent-master-3.2/result/LINK_invent/BTK/process_docking_weight1_custom_product_contain_oxygen_bond_distance_aromatic_linkinvent_7_9_3/rearranged_h_0162.sdf

> <i_m_source_file_index>
3

> <r_mmod_Potential_Energy-OPLS-2005>
61.4865798950195

> <r_mmod_Stretch_Energy-OPLS-2005>
131.797653198242

> <r_mmod_Bend_Energy-OPLS-2005>
217.83757019043

> <r_mmod_Torsional_Energy-OPLS-2005>
200.535034179688

> <r_mmod_Improper_Torsional_Energy-OPLS-2005>
5.5405478477478

> <r_mmod_Van_der_Waal_Energy-OPLS-2005>
139.126113891602

> <r_mmod_Electrostatic_Energy-OPLS-2005>
-475.867706298828

> <r_mmod_Solvation_Energy-OPLS-2005>
-245.958023071289

> <b_mmod_Minimization_Converged-OPLS-2005>
0

> <r_mmod_RMS_Derivative-OPLS-2005>
0.989975392818451

$$$$
3
                    3D
 Structure written by MMmdl.
155163  0  0  1  0            999 V2000
  -30.6802  -14.5570   21.1052 C   0  0  0  0  0  0
  -31.3051  -13.8429   19.0773 C   0  0  0  0  0  0
  -28.6617  -14.1990   17.2805 C   0  0  0  0  0  0
  -27.3087  -13.4554   18.2802 C   0  0  0  0  0  0
  -27.5086  -13.1598   20.0354 C   0  0  2  0  0  0
  -29.0109  -12.7288   21.0127 C   0  0  0  0  0  0
  -25.1766  -13.7680   20.6435 C   0  0  0  0  0  0
  -24.1114  -12.9963   20.9574 C   0  0  0  0  0  0
  -24.5822  -11.6471   20.9125 C   0  0  0  0  0  0
  -23.8655  -10.3968   21.0567 C   0  0  0  0  0  0
  -24.3346   -9.3937   21.9288 C   0  0  0  0  0  0
  -23.6108   -8.1961   22.0756 C   0  0  0  0  0  0
  -22.4112   -8.0051   21.3513 C   0  0  0  0  0  0
  -21.9688   -8.9992   20.4618 C   0  0  0  0  0  0
  -22.6930  -10.1889   20.3093 C   0  0  0  0  0  0
  -21.6749   -6.0623   22.5289 C   0  0  0  0  0  0
  -21.3936   -6.5576   23.8208 C   0  0  0  0  0  0
  -21.3632   -5.6758   24.9193 C   0  0  0  0  0  0
  -21.6046   -4.3020   24.7261 C   0  0  0  0  0  0
  -21.8836   -3.8089   23.4393 C   0  0  0  0  0  0
  -21.9166   -4.6878   22.3436 C   0  0  0  0  0  0
  -22.7220  -13.4903   21.1959 C   0  0  0  0  0  0
  -22.1653   -4.2069   21.1011 F   0  0  0  0  0  0
  -21.5642   -3.4523   25.7786 F   0  0  0  0  0  0
  -30.6181  -13.3362   20.6445 N   0  0  0  0  0  0
  -26.2240  -12.8616   20.5046 N   0  0  0  0  0  0
  -25.8768  -11.5833   20.6536 N   0  0  0  0  0  0
  -21.9789  -12.8016   22.0503 N   0  0  0  0  0  0
  -25.3200  -15.1487   20.4524 N   0  0  0  0  0  0
  -31.7159  -15.2272   21.0712 O   0  0  0  0  0  0
  -21.6472   -6.8690   21.4222 O   0  0  0  0  0  0
  -22.3131  -14.5270   20.6737 O   0  0  0  0  0  0
  -24.6836  -31.8045   23.1554 C   0  0  0  0  0  0
  -25.9426  -32.4490   23.8083 C   0  0  1  0  0  0
  -27.2178  -26.7894   20.0548 C   0  0  0  0  0  0
  -25.6014  -33.8312   24.1977 N   0  0  0  0  0  0
  -23.5011  -30.4148   21.5148 C   0  0  2  0  0  0
  -24.9407  -28.7715   20.1092 C   0  0  0  0  0  0
  -22.7744  -29.4358   22.4755 C   0  0  0  0  0  0
  -18.0334  -28.1419   22.8461 C   0  0  0  0  0  0
  -24.1488  -36.7156   23.2650 C   0  0  0  0  0  0
  -26.0840  -30.5530   21.4043 C   0  0  0  0  0  0
  -26.1449  -29.1326   20.7261 C   0  0  0  0  0  0
  -27.2760  -28.1663   20.6682 C   0  0  0  0  0  0
  -25.9610  -26.6099   19.4404 C   0  0  0  0  0  0
  -24.8784  -27.5302   19.4585 C   0  0  0  0  0  0
  -23.7414  -29.7250   20.1462 C   0  0  0  0  0  0
  -25.4137  -36.2912   24.0289 C   0  0  1  0  0  0
  -20.5969  -28.3774   23.1155 C   0  0  2  0  0  0
  -20.6805  -26.9442   22.5393 C   0  0  0  0  0  0
  -19.5773  -26.6376   21.5213 C   0  0  0  0  0  0
  -18.1960  -26.7946   22.1627 C   0  0  0  0  0  0
  -19.1600  -28.8920   23.2791 C   0  0  0  0  0  0
  -18.9506  -30.1507   23.8832 C   0  0  0  0  0  0
  -17.6497  -30.6605   24.0551 C   0  0  0  0  0  0
  -25.9126  -34.9301   23.4967 C   0  0  0  0  0  0
  -16.5387  -29.9088   23.6350 C   0  0  0  0  0  0
  -16.7314  -28.6510   23.0366 C   0  0  0  0  0  0
  -26.4600  -31.6510   25.0696 C   0  0  0  0  0  0
  -25.3664  -31.3809   26.1309 C   0  0  0  0  0  0
  -27.0541  -30.2861   24.6567 C   0  0  0  0  0  0
  -27.6049  -32.4366   25.7516 C   0  0  0  0  0  0
  -27.5568  -37.1730   24.8462 C   0  0  0  0  0  0
  -21.4398  -29.3045   22.3500 N   0  0  0  0  0  0
  -26.4261  -37.3676   23.9425 N   0  0  0  0  0  0
  -24.7813  -30.9535   22.0780 N   0  0  0  0  0  0
  -23.4217  -28.7931   23.3055 O   0  0  0  0  0  0
  -28.2060  -25.6224   19.9285 O   0  0  0  0  0  0
  -26.5758  -34.8876   22.4578 O   0  0  0  0  0  0
  -23.5868  -32.1099   23.6548 O   0  0  0  0  0  0
  -30.7257  -15.5617   17.2777 C   0  0  0  0  0  0
  -31.0025  -14.0819   16.6695 C   0  0  0  0  0  0
  -29.5342  -12.6831   18.5861 C   0  0  0  0  0  0
  -29.8671  -16.0353   18.5373 C   0  0  0  0  0  0
  -29.2961  -14.7153   19.3363 C   0  0  0  0  0  0
  -30.4447  -12.6588   17.2155 C   0  0  0  0  0  0
  -29.7322  -17.7189   19.1100 C   0  0  0  0  0  0
  -28.7802  -22.4594   19.1779 C   0  0  0  0  0  0
  -28.8588  -20.6747   19.5810 C   0  0  0  0  0  0
  -27.9515  -23.9123   19.9313 C   0  0  0  0  0  0
  -29.5329  -15.1036   20.7081 N   0  0  0  0  0  0
  -29.2089  -19.1295   18.7849 N   0  0  0  0  0  0
  -30.3319  -17.8424   20.2908 N   0  3  0  0  0  0
  -29.4142  -22.7383   18.1541 O   0  0  0  0  0  0
  -30.7547  -11.4940   16.5977 F   0  0  0  0  0  0
  -32.0775  -14.6200   18.9985 H   0  0  0  0  0  0
  -31.9908  -12.9978   18.9066 H   0  0  0  0  0  0
  -28.5908  -13.7576   16.2752 H   0  0  0  0  0  0
  -28.2815  -15.1980   17.0343 H   0  0  0  0  0  0
  -27.0344  -12.5030   17.8219 H   0  0  0  0  0  0
  -26.4244  -14.0726   18.1226 H   0  0  0  0  0  0
  -27.4322  -14.1435   20.4612 H   0  0  0  0  0  0
  -29.0874  -11.6415   21.0674 H   0  0  0  0  0  0
  -28.7918  -12.9727   22.0551 H   0  0  0  0  0  0
  -25.2458   -9.5459   22.4904 H   0  0  0  0  0  0
  -23.9820   -7.4336   22.7453 H   0  0  0  0  0  0
  -21.0628   -8.8481   19.8923 H   0  0  0  0  0  0
  -22.3397  -10.9466   19.6245 H   0  0  0  0  0  0
  -21.1888   -7.6079   23.9683 H   0  0  0  0  0  0
  -21.1451   -6.0500   25.9089 H   0  0  0  0  0  0
  -22.0654   -2.7550   23.2920 H   0  0  0  0  0  0
  -22.3309  -11.9670   22.4953 H   0  0  0  0  0  0
  -21.0411  -13.1122   22.2624 H   0  0  0  0  0  0
  -24.5258  -15.7767   20.5066 H   0  0  0  0  0  0
  -26.1748  -15.6152   20.1772 H   0  0  0  0  0  0
  -26.7503  -32.4954   23.0792 H   0  0  0  0  0  0
  -25.0079  -33.9349   25.0077 H   0  0  0  0  0  0
  -22.8253  -31.2537   21.3362 H   0  0  0  0  0  0
  -23.3789  -35.9444   23.3240 H   0  0  0  0  0  0
  -24.3566  -36.8889   22.2080 H   0  0  0  0  0  0
  -23.7195  -37.6295   23.6768 H   0  0  0  0  0  0
  -26.2916  -31.2940   20.6314 H   0  0  0  0  0  0
  -26.9336  -30.5990   22.0736 H   0  0  0  0  0  0
  -28.2000  -28.4544   21.1502 H   0  0  0  0  0  0
  -25.7900  -25.6785   18.9198 H   0  0  0  0  0  0
  -23.9619  -27.2464   18.9593 H   0  0  0  0  0  0
  -23.9160  -30.4918   19.3907 H   0  0  0  0  0  0
  -22.8419  -29.1989   19.8222 H   0  0  0  0  0  0
  -25.1336  -36.1680   25.0778 H   0  0  0  0  0  0
  -21.0048  -28.3388   24.1282 H   0  0  0  0  0  0
  -20.5682  -26.2394   23.3647 H   0  0  0  0  0  0
  -21.6663  -26.7398   22.1199 H   0  0  0  0  0  0
  -19.6925  -25.6270   21.1284 H   0  0  0  0  0  0
  -19.6709  -27.3150   20.6715 H   0  0  0  0  0  0
  -17.4222  -26.6685   21.4040 H   0  0  0  0  0  0
  -18.0358  -26.0108   22.9044 H   0  0  0  0  0  0
  -19.7981  -30.7342   24.2171 H   0  0  0  0  0  0
  -17.5047  -31.6276   24.5165 H   0  0  0  0  0  0
  -15.5384  -30.2967   23.7712 H   0  0  0  0  0  0
  -15.8717  -28.0806   22.7117 H   0  0  0  0  0  0
  -24.5849  -30.7174   25.7590 H   0  0  0  0  0  0
  -24.8857  -32.3028   26.4589 H   0  0  0  0  0  0
  -25.7835  -30.9043   27.0188 H   0  0  0  0  0  0
  -26.3259  -29.6469   24.1565 H   0  0  0  0  0  0
  -27.4001  -29.7312   25.5298 H   0  0  0  0  0  0
  -27.9220  -30.4018   24.0072 H   0  0  0  0  0  0
  -27.2588  -33.3725   26.1913 H   0  0  0  0  0  0
  -28.3951  -32.6834   25.0412 H   0  0  0  0  0  0
  -28.0618  -31.8616   26.5579 H   0  0  0  0  0  0
  -28.2519  -38.0091   24.7577 H   0  0  0  0  0  0
  -28.1132  -36.2620   24.6206 H   0  0  0  0  0  0
  -27.2297  -37.1262   25.8864 H   0  0  0  0  0  0
  -20.9691  -29.8729   21.6600 H   0  0  0  0  0  0
  -26.0093  -38.2718   24.1472 H   0  0  0  0  0  0
  -31.1955  -16.3678   16.7337 H   0  0  0  0  0  0
  -31.6213  -14.0334   15.7851 H   0  0  0  0  0  0
  -29.2834  -11.7058   18.9754 H   0  0  0  0  0  0
  -27.8806  -20.5018   20.0296 H   0  0  0  0  0  0
  -29.5282  -20.6732   20.4420 H   0  0  0  0  0  0
  -27.9118  -23.6628   20.9912 H   0  0  0  0  0  0
  -26.9182  -23.8005   19.6044 H   0  0  0  0  0  0
  -28.7813  -14.8636   21.3380 H   0  0  0  0  0  0
  -28.8497  -19.1586   17.8346 H   0  0  0  0  0  0
  -30.4249  -18.7270   20.7568 H   0  0  0  0  0  0
  -30.8189  -17.0287   20.6576 H   0  0  0  0  0  0
  1 25  1  0  0  0
  1 30  2  0  0  0
  1 81  1  0  0  0
  2  3  1  0  0  0
  2 25  1  0  0  0
  2 86  1  0  0  0
  2 87  1  0  0  0
  3  4  1  0  0  0
  3 88  1  0  0  0
  3 89  1  0  0  0
  4  5  1  0  0  0
  4 90  1  0  0  0
  4 91  1  0  0  0
  5  6  1  0  0  0
  5 26  1  0  0  0
  5 92  1  0  0  0
  6 25  1  0  0  0
  6 93  1  0  0  0
  6 94  1  0  0  0
  7  8  2  0  0  0
  7 26  1  0  0  0
  7 29  1  0  0  0
  8  9  1  0  0  0
  8 22  1  0  0  0
  9 10  1  0  0  0
  9 27  2  0  0  0
 10 11  2  0  0  0
 10 15  1  0  0  0
 11 12  1  0  0  0
 11 95  1  0  0  0
 12 13  2  0  0  0
 12 96  1  0  0  0
 13 14  1  0  0  0
 13 31  1  0  0  0
 14 15  2  0  0  0
 14 97  1  0  0  0
 15 98  1  0  0  0
 16 17  2  0  0  0
 16 21  1  0  0  0
 16 31  1  0  0  0
 17 18  1  0  0  0
 17 99  1  0  0  0
 18 19  2  0  0  0
 18100  1  0  0  0
 19 20  1  0  0  0
 19 24  1  0  0  0
 20 21  2  0  0  0
 20101  1  0  0  0
 21 23  1  0  0  0
 22 28  1  0  0  0
 22 32  2  0  0  0
 26 27  1  0  0  0
 28102  1  0  0  0
 28103  1  0  0  0
 29104  1  0  0  0
 29105  1  0  0  0
 33 34  1  0  0  0
 33 66  1  0  0  0
 33 70  2  0  0  0
 34 36  1  0  0  0
 34 59  1  0  0  0
 34106  1  0  0  0
 35 44  2  0  0  0
 35 45  1  0  0  0
 35 68  1  0  0  0
 36 56  1  0  0  0
 36107  1  0  0  0
 37 39  1  0  0  0
 37 47  1  0  0  0
 37 66  1  0  0  0
 37108  1  0  0  0
 38 43  2  0  0  0
 38 46  1  0  0  0
 38 47  1  0  0  0
 39 64  1  0  0  0
 39 67  2  0  0  0
 40 52  1  0  0  0
 40 53  2  0  0  0
 40 58  1  0  0  0
 41109  1  0  0  0
 41110  1  0  0  0
 41111  1  0  0  0
 41 48  1  0  0  0
 42 43  1  0  0  0
 42 66  1  0  0  0
 42112  1  0  0  0
 42113  1  0  0  0
 43 44  1  0  0  0
 44114  1  0  0  0
 45 46  2  0  0  0
 45115  1  0  0  0
 46116  1  0  0  0
 47117  1  0  0  0
 47118  1  0  0  0
 48 56  1  0  0  0
 48 65  1  0  0  0
 48119  1  0  0  0
 49 50  1  0  0  0
 49 53  1  0  0  0
 49 64  1  0  0  0
 49120  1  0  0  0
 50 51  1  0  0  0
 50121  1  0  0  0
 50122  1  0  0  0
 51 52  1  0  0  0
 51123  1  0  0  0
 51124  1  0  0  0
 52125  1  0  0  0
 52126  1  0  0  0
 53 54  1  0  0  0
 54 55  2  0  0  0
 54127  1  0  0  0
 55 57  1  0  0  0
 55128  1  0  0  0
 56 69  2  0  0  0
 57 58  2  0  0  0
 57129  1  0  0  0
 58130  1  0  0  0
 59 60  1  0  0  0
 59 61  1  0  0  0
 59 62  1  0  0  0
 60131  1  0  0  0
 60132  1  0  0  0
 60133  1  0  0  0
 61134  1  0  0  0
 61135  1  0  0  0
 61136  1  0  0  0
 62137  1  0  0  0
 62138  1  0  0  0
 62139  1  0  0  0
 63 65  1  0  0  0
 63140  1  0  0  0
 63141  1  0  0  0
 63142  1  0  0  0
 64143  1  0  0  0
 65144  1  0  0  0
 68 80  1  0  0  0
 71 72  2  0  0  0
 71 74  1  0  0  0
 71145  1  0  0  0
 72 76  1  0  0  0
 72146  1  0  0  0
 73 75  1  0  0  0
 73 76  2  0  0  0
 73147  1  0  0  0
 74 75  2  0  0  0
 74 77  1  0  0  0
 75 81  1  0  0  0
 76 85  1  0  0  0
 77 82  1  0  0  0
 77 83  2  0  0  0
 78 79  1  0  0  0
 78 80  1  0  0  0
 78 84  2  0  0  0
 79 82  1  0  0  0
 79148  1  0  0  0
 79149  1  0  0  0
 80150  1  0  0  0
 80151  1  0  0  0
 81152  1  0  0  0
 82153  1  0  0  0
 83154  1  0  0  0
 83155  1  0  0  0
M  CHG  1  83   1
M  ISO  4   1 100  68 101  80 101  81 100
M  END
> <chiral flag>
0

> <version>
0

> <s_m_source_file>
/data/baiqing/PycharmProjects/Reinvent-master-3.2/result/LINK_invent/BTK/process_docking_weight1_custom_product_contain_oxygen_bond_distance_aromatic_linkinvent_7_9_3/rearranged_h_0162.sdf

> <i_m_source_file_index>
4

> <r_mmod_Potential_Energy-OPLS-2005>
11109.1005859375

> <r_mmod_Stretch_Energy-OPLS-2005>
6382.4296875

> <r_mmod_Bend_Energy-OPLS-2005>
840.023559570312

> <r_mmod_Torsional_Energy-OPLS-2005>
407.372741699219

> <r_mmod_Improper_Torsional_Energy-OPLS-2005>
61.1661186218262

> <r_mmod_Van_der_Waal_Energy-OPLS-2005>
2750.681640625

> <r_mmod_Electrostatic_Energy-OPLS-2005>
-342.222045898438

> <r_mmod_Solvation_Energy-OPLS-2005>
-444.889923095703

> <b_mmod_Minimization_Converged-OPLS-2005>
0

> <r_mmod_RMS_Derivative-OPLS-2005>
3.21903324127197

$$$$
4
                    3D
 Structure written by MMmdl.
150158  0  0  1  0            999 V2000
  -30.4710  -14.9905   20.4530 C   0  0  0  0  0  0
  -30.4528  -12.6236   19.5040 C   0  0  0  0  0  0
  -29.5268  -12.5479   18.2643 C   0  0  0  0  0  0
  -28.0618  -12.3136   18.6801 C   0  0  0  0  0  0
  -27.6298  -13.2376   19.8464 C   0  0  2  0  0  0
  -28.6683  -13.2459   20.9877 C   0  0  0  0  0  0
  -25.2396  -13.8065   20.5606 C   0  0  0  0  0  0
  -24.1745  -13.0338   20.9243 C   0  0  0  0  0  0
  -24.6388  -11.6841   20.8801 C   0  0  0  0  0  0
  -23.9070  -10.4238   21.0447 C   0  0  0  0  0  0
  -24.3622   -9.4147   21.9212 C   0  0  0  0  0  0
  -23.6288   -8.2188   22.0756 C   0  0  0  0  0  0
  -22.4264   -8.0252   21.3547 C   0  0  0  0  0  0
  -21.9915   -9.0229   20.4648 C   0  0  0  0  0  0
  -22.7251  -10.2102   20.3074 C   0  0  0  0  0  0
  -21.6834   -6.0723   22.5285 C   0  0  0  0  0  0
  -21.3996   -6.5632   23.8217 C   0  0  0  0  0  0
  -21.3648   -5.6787   24.9182 C   0  0  0  0  0  0
  -21.6047   -4.3054   24.7234 C   0  0  0  0  0  0
  -21.8815   -3.8143   23.4355 C   0  0  0  0  0  0
  -21.9189   -4.6953   22.3414 C   0  0  0  0  0  0
  -22.7779  -13.5149   21.1903 C   0  0  0  0  0  0
  -22.1662   -4.2147   21.0987 F   0  0  0  0  0  0
  -21.5632   -3.4533   25.7749 F   0  0  0  0  0  0
  -29.9414  -13.6977   20.4062 N   0  0  0  0  0  0
  -26.2869  -12.9332   20.3244 N   0  0  0  0  0  0
  -25.9319  -11.6480   20.5783 N   0  0  0  0  0  0
  -22.0417  -12.8153   22.0456 N   0  0  0  0  0  0
  -25.3929  -15.1722   20.3744 N   0  0  0  0  0  0
  -31.6583  -15.1330   20.1394 O   0  0  0  0  0  0
  -21.6610   -6.8865   21.4244 O   0  0  0  0  0  0
  -22.3487  -14.5463   20.6741 O   0  0  0  0  0  0
  -24.6444  -31.8431   23.1841 C   0  0  0  0  0  0
  -25.9202  -32.4694   23.8240 C   0  0  1  0  0  0
  -27.2200  -27.1085   20.1816 C   0  0  0  0  0  0
  -25.5952  -33.8499   24.2179 N   0  0  0  0  0  0
  -23.4497  -30.4593   21.5299 C   0  0  2  0  0  0
  -24.9016  -28.8709   20.1238 C   0  0  0  0  0  0
  -22.7569  -29.4540   22.4840 C   0  0  0  0  0  0
  -18.0317  -28.1421   22.8481 C   0  0  0  0  0  0
  -24.1483  -36.7231   23.2633 C   0  0  0  0  0  0
  -26.0048  -30.7102   21.3837 C   0  0  0  0  0  0
  -26.0791  -29.3111   20.7434 C   0  0  0  0  0  0
  -27.2410  -28.4483   20.7520 C   0  0  0  0  0  0
  -26.0187  -26.7713   19.5247 C   0  0  0  0  0  0
  -24.8845  -27.6133   19.4989 C   0  0  0  0  0  0
  -23.6814  -29.7794   20.1542 C   0  0  0  0  0  0
  -25.4117  -36.3016   24.0308 C   0  0  1  0  0  0
  -20.5926  -28.3730   23.1251 C   0  0  2  0  0  0
  -20.6791  -26.9431   22.5406 C   0  0  0  0  0  0
  -19.5758  -26.6409   21.5212 C   0  0  0  0  0  0
  -18.1948  -26.7956   22.1630 C   0  0  0  0  0  0
  -19.1572  -28.8889   23.2862 C   0  0  0  0  0  0
  -18.9485  -30.1488   23.8876 C   0  0  0  0  0  0
  -17.6487  -30.6607   24.0581 C   0  0  0  0  0  0
  -25.9069  -34.9401   23.5046 C   0  0  0  0  0  0
  -16.5380  -29.9103   23.6358 C   0  0  0  0  0  0
  -16.7307  -28.6531   23.0359 C   0  0  0  0  0  0
  -26.4529  -31.6562   25.0675 C   0  0  0  0  0  0
  -25.3727  -31.3761   26.1384 C   0  0  0  0  0  0
  -27.0375  -30.2965   24.6202 C   0  0  0  0  0  0
  -27.6058  -32.4313   25.7475 C   0  0  0  0  0  0
  -27.5569  -37.1773   24.8465 C   0  0  0  0  0  0
  -21.4248  -29.3054   22.3603 N   0  0  0  0  0  0
  -26.4271  -37.3741   23.9418 N   0  0  0  0  0  0
  -24.7196  -31.0264   22.0883 N   0  0  0  0  0  0
  -23.4202  -28.8079   23.2986 O   0  0  0  0  0  0
  -28.2833  -26.1306   20.1445 O   0  0  0  0  0  0
  -26.5651  -34.8895   22.4619 O   0  0  0  0  0  0
  -23.5557  -32.1309   23.7047 O   0  0  0  0  0  0
  -30.5874  -18.5884   20.3097 C   0  0  0  0  0  0
  -29.5557  -17.6462   20.6323 C   0  0  0  0  0  0
  -28.3668  -18.4168   20.9189 C   0  0  0  0  0  0
  -29.2685  -20.5963   20.5514 C   0  0  0  0  0  0
  -27.0945  -17.7227   21.3496 C   0  0  0  0  0  0
  -28.5511  -23.2911   20.0083 C   0  0  0  0  0  0
  -28.2226  -24.7987   20.7336 C   0  0  1  0  0  0
  -30.4473  -19.9833   20.3047 N   0  0  0  0  0  0
  -28.2338  -19.8036   20.8575 N   0  0  0  0  0  0
  -29.5925  -16.0909   20.6934 N   0  0  0  0  0  0
  -29.1964  -22.0651   20.7479 N   0  0  0  0  0  0
  -29.0459  -24.8109   21.8121 F   0  0  0  0  0  0
  -31.4775  -12.8236   19.1876 H   0  0  0  0  0  0
  -30.4832  -11.6654   20.0255 H   0  0  0  0  0  0
  -29.8566  -11.7549   17.5926 H   0  0  0  0  0  0
  -29.5994  -13.4784   17.6989 H   0  0  0  0  0  0
  -27.9695  -11.2719   18.9881 H   0  0  0  0  0  0
  -27.3957  -12.4399   17.8251 H   0  0  0  0  0  0
  -27.5976  -14.2431   19.4267 H   0  0  0  0  0  0
  -28.7678  -12.2530   21.4316 H   0  0  0  0  0  0
  -28.3506  -13.9085   21.7945 H   0  0  0  0  0  0
  -25.2761   -9.5603   22.4800 H   0  0  0  0  0  0
  -23.9988   -7.4559   22.7464 H   0  0  0  0  0  0
  -21.0848   -8.8758   19.8948 H   0  0  0  0  0  0
  -22.3724  -10.9654   19.6193 H   0  0  0  0  0  0
  -21.1968   -7.6135   23.9721 H   0  0  0  0  0  0
  -21.1478   -6.0515   25.9087 H   0  0  0  0  0  0
  -22.0603   -2.7606   23.2849 H   0  0  0  0  0  0
  -22.4008  -11.9796   22.4838 H   0  0  0  0  0  0
  -21.1047  -13.1197   22.2683 H   0  0  0  0  0  0
  -24.5833  -15.7823   20.3921 H   0  0  0  0  0  0
  -26.1717  -15.5629   19.8624 H   0  0  0  0  0  0
  -26.7251  -32.5311   23.0949 H   0  0  0  0  0  0
  -25.0115  -33.9609   25.0343 H   0  0  0  0  0  0
  -22.7539  -31.2860   21.3691 H   0  0  0  0  0  0
  -23.3750  -35.9561   23.3304 H   0  0  0  0  0  0
  -24.3560  -36.8859   22.2047 H   0  0  0  0  0  0
  -23.7239  -37.6425   23.6670 H   0  0  0  0  0  0
  -26.1524  -31.4520   20.5977 H   0  0  0  0  0  0
  -26.8786  -30.7775   22.0193 H   0  0  0  0  0  0
  -28.1442  -28.7851   21.2401 H   0  0  0  0  0  0
  -25.9457  -25.8094   19.0366 H   0  0  0  0  0  0
  -23.9873  -27.2737   19.0006 H   0  0  0  0  0  0
  -23.8261  -30.5489   19.3945 H   0  0  0  0  0  0
  -22.7945  -29.2243   19.8418 H   0  0  0  0  0  0
  -25.1310  -36.1822   25.0801 H   0  0  0  0  0  0
  -21.0051  -28.3315   24.1360 H   0  0  0  0  0  0
  -20.5691  -26.2330   23.3618 H   0  0  0  0  0  0
  -21.6659  -26.7436   22.1206 H   0  0  0  0  0  0
  -19.6908  -25.6317   21.1251 H   0  0  0  0  0  0
  -19.6696  -27.3210   20.6735 H   0  0  0  0  0  0
  -17.4217  -26.6718   21.4040 H   0  0  0  0  0  0
  -18.0338  -26.0108   22.9038 H   0  0  0  0  0  0
  -19.7953  -30.7327   24.2224 H   0  0  0  0  0  0
  -17.5036  -31.6280   24.5181 H   0  0  0  0  0  0
  -15.5377  -30.3006   23.7678 H   0  0  0  0  0  0
  -15.8709  -28.0851   22.7079 H   0  0  0  0  0  0
  -24.5917  -30.7076   25.7746 H   0  0  0  0  0  0
  -24.8893  -32.2945   26.4726 H   0  0  0  0  0  0
  -25.8036  -30.9025   27.0216 H   0  0  0  0  0  0
  -26.2964  -29.6705   24.1206 H   0  0  0  0  0  0
  -27.4027  -29.7234   25.4734 H   0  0  0  0  0  0
  -27.8865  -30.4229   23.9476 H   0  0  0  0  0  0
  -27.2669  -33.3663   26.1953 H   0  0  0  0  0  0
  -28.3946  -32.6787   25.0360 H   0  0  0  0  0  0
  -28.0623  -31.8478   26.5482 H   0  0  0  0  0  0
  -28.2574  -38.0082   24.7537 H   0  0  0  0  0  0
  -28.1078  -36.2613   24.6271 H   0  0  0  0  0  0
  -27.2289  -37.1415   25.8867 H   0  0  0  0  0  0
  -20.9438  -29.8761   21.6788 H   0  0  0  0  0  0
  -26.0121  -38.2795   24.1460 H   0  0  0  0  0  0
  -31.5724  -18.2227   20.0625 H   0  0  0  0  0  0
  -27.2967  -16.7889   21.8747 H   0  0  0  0  0  0
  -26.4859  -17.5224   20.4713 H   0  0  0  0  0  0
  -26.5081  -18.3482   22.0226 H   0  0  0  0  0  0
  -29.2322  -23.4966   19.1820 H   0  0  0  0  0  0
  -27.6392  -22.9407   19.5232 H   0  0  0  0  0  0
  -27.2190  -24.6748   21.1404 H   0  0  0  0  0  0
  -28.6910  -15.7092   20.9388 H   0  0  0  0  0  0
  -30.1078  -22.3961   21.0407 H   0  0  0  0  0  0
  1 25  1  0  0  0
  1 30  2  0  0  0
  1 80  1  0  0  0
  2  3  1  0  0  0
  2 25  1  0  0  0
  2 83  1  0  0  0
  2 84  1  0  0  0
  3  4  1  0  0  0
  3 85  1  0  0  0
  3 86  1  0  0  0
  4  5  1  0  0  0
  4 87  1  0  0  0
  4 88  1  0  0  0
  5  6  1  0  0  0
  5 26  1  0  0  0
  5 89  1  0  0  0
  6 25  1  0  0  0
  6 90  1  0  0  0
  6 91  1  0  0  0
  7  8  2  0  0  0
  7 26  1  0  0  0
  7 29  1  0  0  0
  8  9  1  0  0  0
  8 22  1  0  0  0
  9 10  1  0  0  0
  9 27  2  0  0  0
 10 11  2  0  0  0
 10 15  1  0  0  0
 11 12  1  0  0  0
 11 92  1  0  0  0
 12 13  2  0  0  0
 12 93  1  0  0  0
 13 14  1  0  0  0
 13 31  1  0  0  0
 14 15  2  0  0  0
 14 94  1  0  0  0
 15 95  1  0  0  0
 16 17  2  0  0  0
 16 21  1  0  0  0
 16 31  1  0  0  0
 17 18  1  0  0  0
 17 96  1  0  0  0
 18 19  2  0  0  0
 18 97  1  0  0  0
 19 20  1  0  0  0
 19 24  1  0  0  0
 20 21  2  0  0  0
 20 98  1  0  0  0
 21 23  1  0  0  0
 22 28  1  0  0  0
 22 32  2  0  0  0
 26 27  1  0  0  0
 28 99  1  0  0  0
 28100  1  0  0  0
 29101  1  0  0  0
 29102  1  0  0  0
 33 34  1  0  0  0
 33 66  1  0  0  0
 33 70  2  0  0  0
 34 36  1  0  0  0
 34 59  1  0  0  0
 34103  1  0  0  0
 35 44  2  0  0  0
 35 45  1  0  0  0
 35 68  1  0  0  0
 36 56  1  0  0  0
 36104  1  0  0  0
 37 39  1  0  0  0
 37 47  1  0  0  0
 37 66  1  0  0  0
 37105  1  0  0  0
 38 43  2  0  0  0
 38 46  1  0  0  0
 38 47  1  0  0  0
 39 64  1  0  0  0
 39 67  2  0  0  0
 40 52  1  0  0  0
 40 53  2  0  0  0
 40 58  1  0  0  0
 41106  1  0  0  0
 41107  1  0  0  0
 41108  1  0  0  0
 41 48  1  0  0  0
 42 43  1  0  0  0
 42 66  1  0  0  0
 42109  1  0  0  0
 42110  1  0  0  0
 43 44  1  0  0  0
 44111  1  0  0  0
 45 46  2  0  0  0
 45112  1  0  0  0
 46113  1  0  0  0
 47114  1  0  0  0
 47115  1  0  0  0
 48 56  1  0  0  0
 48 65  1  0  0  0
 48116  1  0  0  0
 49 50  1  0  0  0
 49 53  1  0  0  0
 49 64  1  0  0  0
 49117  1  0  0  0
 50 51  1  0  0  0
 50118  1  0  0  0
 50119  1  0  0  0
 51 52  1  0  0  0
 51120  1  0  0  0
 51121  1  0  0  0
 52122  1  0  0  0
 52123  1  0  0  0
 53 54  1  0  0  0
 54 55  2  0  0  0
 54124  1  0  0  0
 55 57  1  0  0  0
 55125  1  0  0  0
 56 69  2  0  0  0
 57 58  2  0  0  0
 57126  1  0  0  0
 58127  1  0  0  0
 59 60  1  0  0  0
 59 61  1  0  0  0
 59 62  1  0  0  0
 60128  1  0  0  0
 60129  1  0  0  0
 60130  1  0  0  0
 61131  1  0  0  0
 61132  1  0  0  0
 61133  1  0  0  0
 62134  1  0  0  0
 62135  1  0  0  0
 62136  1  0  0  0
 63 65  1  0  0  0
 63137  1  0  0  0
 63138  1  0  0  0
 63139  1  0  0  0
 64140  1  0  0  0
 65141  1  0  0  0
 68 77  1  0  0  0
 71 72  2  0  0  0
 71 78  1  0  0  0
 71142  1  0  0  0
 72 73  1  0  0  0
 72 80  1  0  0  0
 73 75  1  0  0  0
 73 79  2  0  0  0
 74 78  2  0  0  0
 74 79  1  0  0  0
 74 81  1  0  0  0
 75143  1  0  0  0
 75144  1  0  0  0
 75145  1  0  0  0
 76 77  1  0  0  0
 76 81  1  0  0  0
 76146  1  0  0  0
 76147  1  0  0  0
 77 82  1  0  0  0
 77148  1  0  0  0
 80149  1  0  0  0
 81150  1  0  0  0
M  ISO  4   1 100  68 101  77 101  80 100
M  END
> <chiral flag>
0

> <version>
0

> <s_m_source_file>
/data/baiqing/PycharmProjects/Reinvent-master-3.2/result/LINK_invent/BTK/process_docking_weight1_custom_product_contain_oxygen_bond_distance_aromatic_linkinvent_7_9_3/rearranged_h_0162.sdf

> <i_m_source_file_index>
5

> <r_mmod_Potential_Energy-OPLS-2005>
-93.0739288330078

> <r_mmod_Stretch_Energy-OPLS-2005>
241.503067016602

> <r_mmod_Bend_Energy-OPLS-2005>
292.385711669922

> <r_mmod_Torsional_Energy-OPLS-2005>
240.161529541016

> <r_mmod_Improper_Torsional_Energy-OPLS-2005>
10.4983882904053

> <r_mmod_Van_der_Waal_Energy-OPLS-2005>
133.721588134766

> <r_mmod_Electrostatic_Energy-OPLS-2005>
-985.424743652344

> <r_mmod_Solvation_Energy-OPLS-2005>
-244.913513183594

> <b_mmod_Minimization_Converged-OPLS-2005>
0

> <r_mmod_RMS_Derivative-OPLS-2005>
2.22855663299561

$$$$
5
                    3D
 Structure written by MMmdl.
152160  0  0  1  0            999 V2000
  -30.6853  -14.5896   20.4936 C   0  0  0  0  0  0
  -30.4228  -12.3545   19.4658 C   0  0  0  0  0  0
  -29.5120  -12.5150   18.2295 C   0  0  0  0  0  0
  -28.0311  -12.3655   18.6325 C   0  0  0  0  0  0
  -27.6567  -13.2277   19.8702 C   0  0  2  0  0  0
  -28.6996  -13.0824   21.0040 C   0  0  0  0  0  0
  -25.2545  -13.8204   20.5663 C   0  0  0  0  0  0
  -24.1832  -13.0457   20.9161 C   0  0  0  0  0  0
  -24.6411  -11.6917   20.8713 C   0  0  0  0  0  0
  -23.9089  -10.4291   21.0399 C   0  0  0  0  0  0
  -24.3639   -9.4206   21.9174 C   0  0  0  0  0  0
  -23.6314   -8.2239   22.0743 C   0  0  0  0  0  0
  -22.4283   -8.0294   21.3553 C   0  0  0  0  0  0
  -21.9925   -9.0263   20.4636 C   0  0  0  0  0  0
  -22.7257  -10.2139   20.3057 C   0  0  0  0  0  0
  -21.6852   -6.0731   22.5280 C   0  0  0  0  0  0
  -21.4014   -6.5629   23.8213 C   0  0  0  0  0  0
  -21.3661   -5.6788   24.9176 C   0  0  0  0  0  0
  -21.6051   -4.3051   24.7222 C   0  0  0  0  0  0
  -21.8815   -3.8135   23.4343 C   0  0  0  0  0  0
  -21.9194   -4.6960   22.3399 C   0  0  0  0  0  0
  -22.7836  -13.5218   21.1845 C   0  0  0  0  0  0
  -22.1666   -4.2144   21.0981 F   0  0  0  0  0  0
  -21.5635   -3.4526   25.7728 F   0  0  0  0  0  0
  -30.0290  -13.3866   20.4459 N   0  0  0  0  0  0
  -26.3001  -12.9405   20.3348 N   0  0  0  0  0  0
  -25.9353  -11.6543   20.5760 N   0  0  0  0  0  0
  -22.0494  -12.8196   22.0396 N   0  0  0  0  0  0
  -25.4219  -15.1937   20.4026 N   0  0  0  0  0  0
  -31.8123  -14.7290   20.0177 O   0  0  0  0  0  0
  -21.6657   -6.8892   21.4251 O   0  0  0  0  0  0
  -22.3484  -14.5525   20.6708 O   0  0  0  0  0  0
  -24.6231  -31.8588   23.2007 C   0  0  0  0  0  0
  -25.9078  -32.4792   23.8338 C   0  0  1  0  0  0
  -27.2476  -27.3412   20.1425 C   0  0  0  0  0  0
  -25.5913  -33.8597   24.2272 N   0  0  0  0  0  0
  -23.4187  -30.4819   21.5383 C   0  0  2  0  0  0
  -24.8775  -28.9362   20.1099 C   0  0  0  0  0  0
  -22.7465  -29.4633   22.4878 C   0  0  0  0  0  0
  -18.0293  -28.1376   22.8466 C   0  0  0  0  0  0
  -24.1496  -36.7322   23.2630 C   0  0  0  0  0  0
  -25.9551  -30.7998   21.3698 C   0  0  0  0  0  0
  -26.0368  -29.4251   20.7242 C   0  0  0  0  0  0
  -27.2237  -28.6380   20.7344 C   0  0  0  0  0  0
  -26.0726  -26.9029   19.4936 C   0  0  0  0  0  0
  -24.8969  -27.6794   19.4809 C   0  0  0  0  0  0
  -23.6386  -29.8101   20.1543 C   0  0  0  0  0  0
  -25.4111  -36.3091   24.0317 C   0  0  1  0  0  0
  -20.5897  -28.3701   23.1261 C   0  0  2  0  0  0
  -20.6784  -26.9414   22.5404 C   0  0  0  0  0  0
  -19.5762  -26.6376   21.5201 C   0  0  0  0  0  0
  -18.1942  -26.7925   22.1613 C   0  0  0  0  0  0
  -19.1544  -28.8853   23.2868 C   0  0  0  0  0  0
  -18.9471  -30.1445   23.8883 C   0  0  0  0  0  0
  -17.6468  -30.6574   24.0577 C   0  0  0  0  0  0
  -25.9034  -34.9466   23.5099 C   0  0  0  0  0  0
  -16.5357  -29.9073   23.6324 C   0  0  0  0  0  0
  -16.7280  -28.6508   23.0318 C   0  0  0  0  0  0
  -26.4460  -31.6598   25.0706 C   0  0  0  0  0  0
  -25.3719  -31.3743   26.1457 C   0  0  0  0  0  0
  -27.0308  -30.3035   24.6143 C   0  0  0  0  0  0
  -27.6029  -32.4328   25.7487 C   0  0  0  0  0  0
  -27.5585  -37.1803   24.8441 C   0  0  0  0  0  0
  -21.4184  -29.3047   22.3637 N   0  0  0  0  0  0
  -26.4289  -37.3786   23.9399 N   0  0  0  0  0  0
  -24.6839  -31.0631   22.0941 N   0  0  0  0  0  0
  -23.4201  -28.8157   23.2940 O   0  0  0  0  0  0
  -28.3777  -26.5172   20.1743 O   0  0  0  0  0  0
  -26.5591  -34.8932   22.4657 O   0  0  0  0  0  0
  -23.5400  -32.1389   23.7348 O   0  0  0  0  0  0
  -33.1013  -18.9982   22.0943 C   0  0  0  0  0  0
  -31.0431  -18.0782   21.0464 C   0  0  0  0  0  0
  -31.0854  -19.4873   21.1297 C   0  0  0  0  0  0
  -29.2091  -22.7247   20.5971 C   0  0  0  0  0  0
  -29.2945  -24.0834   20.3757 C   0  0  0  0  0  0
  -30.3007  -21.7445   20.3501 C   0  0  0  0  0  0
  -30.0525  -17.0934   20.4074 C   0  0  0  0  0  0
  -28.1784  -25.1417   20.6637 C   0  0  0  0  0  0
  -32.2569  -19.9672   21.7439 N   0  0  0  0  0  0
  -30.0705  -20.4521   20.7465 N   0  0  0  0  0  0
  -29.9650  -15.6718   20.8958 N   0  0  0  0  0  0
  -31.3493  -22.0600   19.7742 O   0  0  0  0  0  0
  -30.3853  -24.6929   19.8766 O   0  0  0  0  0  0
  -32.5180  -17.3953   21.7215 S   0  0  0  0  0  0
  -31.4746  -12.4269   19.1819 H   0  0  0  0  0  0
  -30.2991  -11.3597   19.8966 H   0  0  0  0  0  0
  -29.7690  -11.7807   17.4646 H   0  0  0  0  0  0
  -29.6753  -13.4953   17.7773 H   0  0  0  0  0  0
  -27.8562  -11.3102   18.8489 H   0  0  0  0  0  0
  -27.3845  -12.6108   17.7892 H   0  0  0  0  0  0
  -27.6764  -14.2670   19.5380 H   0  0  0  0  0  0
  -28.6838  -12.0659   21.4022 H   0  0  0  0  0  0
  -28.4530  -13.7326   21.8443 H   0  0  0  0  0  0
  -25.2808   -9.5655   22.4715 H   0  0  0  0  0  0
  -24.0022   -7.4608   22.7440 H   0  0  0  0  0  0
  -21.0862   -8.8771   19.8934 H   0  0  0  0  0  0
  -22.3729  -10.9670   19.6133 H   0  0  0  0  0  0
  -21.2011   -7.6137   23.9712 H   0  0  0  0  0  0
  -21.1501   -6.0520   25.9081 H   0  0  0  0  0  0
  -22.0602   -2.7590   23.2844 H   0  0  0  0  0  0
  -22.4179  -11.9919   22.4870 H   0  0  0  0  0  0
  -21.1099  -13.1187   22.2618 H   0  0  0  0  0  0
  -24.6440  -15.8425   20.4755 H   0  0  0  0  0  0
  -26.2732  -15.6306   20.0740 H   0  0  0  0  0  0
  -26.7171  -32.5490   23.1114 H   0  0  0  0  0  0
  -25.0143  -33.9739   25.0475 H   0  0  0  0  0  0
  -22.7144  -31.3030   21.3875 H   0  0  0  0  0  0
  -23.3745  -35.9670   23.3280 H   0  0  0  0  0  0
  -24.3601  -36.8965   22.2052 H   0  0  0  0  0  0
  -23.7266  -37.6526   23.6667 H   0  0  0  0  0  0
  -26.0740  -31.5519   20.5897 H   0  0  0  0  0  0
  -26.8418  -30.8658   21.9879 H   0  0  0  0  0  0
  -28.1095  -29.0051   21.2363 H   0  0  0  0  0  0
  -26.0541  -25.9475   18.9910 H   0  0  0  0  0  0
  -24.0166  -27.3016   18.9790 H   0  0  0  0  0  0
  -23.7568  -30.5834   19.3936 H   0  0  0  0  0  0
  -22.7625  -29.2316   19.8510 H   0  0  0  0  0  0
  -25.1299  -36.1944   25.0810 H   0  0  0  0  0  0
  -21.0020  -28.3287   24.1370 H   0  0  0  0  0  0
  -20.5695  -26.2299   23.3607 H   0  0  0  0  0  0
  -21.6655  -26.7439   22.1188 H   0  0  0  0  0  0
  -19.6935  -25.6285   21.1228 H   0  0  0  0  0  0
  -19.6702  -27.3195   20.6739 H   0  0  0  0  0  0
  -17.4213  -26.6662   21.4016 H   0  0  0  0  0  0
  -18.0350  -26.0065   22.9016 H   0  0  0  0  0  0
  -19.7937  -30.7272   24.2247 H   0  0  0  0  0  0
  -17.5011  -31.6249   24.5182 H   0  0  0  0  0  0
  -15.5355  -30.2975   23.7632 H   0  0  0  0  0  0
  -15.8688  -28.0838   22.6992 H   0  0  0  0  0  0
  -24.5862  -30.7121   25.7790 H   0  0  0  0  0  0
  -24.8947  -32.2931   26.4896 H   0  0  0  0  0  0
  -25.8062  -30.8905   27.0226 H   0  0  0  0  0  0
  -26.2888  -29.6788   24.1162 H   0  0  0  0  0  0
  -27.4021  -29.7272   25.4625 H   0  0  0  0  0  0
  -27.8748  -30.4322   23.9362 H   0  0  0  0  0  0
  -27.2626  -33.3609   26.2106 H   0  0  0  0  0  0
  -28.3835  -32.6934   25.0319 H   0  0  0  0  0  0
  -28.0724  -31.8437   26.5381 H   0  0  0  0  0  0
  -28.2557  -38.0134   24.7538 H   0  0  0  0  0  0
  -28.1123  -36.2677   24.6213 H   0  0  0  0  0  0
  -27.2317  -37.1400   25.8840 H   0  0  0  0  0  0
  -20.9334  -29.8791   21.6881 H   0  0  0  0  0  0
  -26.0169  -38.2864   24.1412 H   0  0  0  0  0  0
  -34.0511  -19.2137   22.5708 H   0  0  0  0  0  0
  -28.2778  -22.3406   20.9949 H   0  0  0  0  0  0
  -30.2523  -17.0598   19.3348 H   0  0  0  0  0  0
  -29.0497  -17.5115   20.4835 H   0  0  0  0  0  0
  -28.0696  -25.2088   21.7472 H   0  0  0  0  0  0
  -27.2454  -24.7119   20.3028 H   0  0  0  0  0  0
  -29.1216  -20.2157   21.0022 H   0  0  0  0  0  0
  -29.0882  -15.4411   21.3373 H   0  0  0  0  0  0
  -31.0286  -24.0162   19.6857 H   0  0  0  0  0  0
  1 25  1  0  0  0
  1 30  2  0  0  0
  1 81  1  0  0  0
  2  3  1  0  0  0
  2 25  1  0  0  0
  2 85  1  0  0  0
  2 86  1  0  0  0
  3  4  1  0  0  0
  3 87  1  0  0  0
  3 88  1  0  0  0
  4  5  1  0  0  0
  4 89  1  0  0  0
  4 90  1  0  0  0
  5  6  1  0  0  0
  5 26  1  0  0  0
  5 91  1  0  0  0
  6 25  1  0  0  0
  6 92  1  0  0  0
  6 93  1  0  0  0
  7  8  2  0  0  0
  7 26  1  0  0  0
  7 29  1  0  0  0
  8  9  1  0  0  0
  8 22  1  0  0  0
  9 10  1  0  0  0
  9 27  2  0  0  0
 10 11  2  0  0  0
 10 15  1  0  0  0
 11 12  1  0  0  0
 11 94  1  0  0  0
 12 13  2  0  0  0
 12 95  1  0  0  0
 13 14  1  0  0  0
 13 31  1  0  0  0
 14 15  2  0  0  0
 14 96  1  0  0  0
 15 97  1  0  0  0
 16 17  2  0  0  0
 16 21  1  0  0  0
 16 31  1  0  0  0
 17 18  1  0  0  0
 17 98  1  0  0  0
 18 19  2  0  0  0
 18 99  1  0  0  0
 19 20  1  0  0  0
 19 24  1  0  0  0
 20 21  2  0  0  0
 20100  1  0  0  0
 21 23  1  0  0  0
 22 28  1  0  0  0
 22 32  2  0  0  0
 26 27  1  0  0  0
 28101  1  0  0  0
 28102  1  0  0  0
 29103  1  0  0  0
 29104  1  0  0  0
 33 34  1  0  0  0
 33 66  1  0  0  0
 33 70  2  0  0  0
 34 36  1  0  0  0
 34 59  1  0  0  0
 34105  1  0  0  0
 35 44  2  0  0  0
 35 45  1  0  0  0
 35 68  1  0  0  0
 36 56  1  0  0  0
 36106  1  0  0  0
 37 39  1  0  0  0
 37 47  1  0  0  0
 37 66  1  0  0  0
 37107  1  0  0  0
 38 43  2  0  0  0
 38 46  1  0  0  0
 38 47  1  0  0  0
 39 64  1  0  0  0
 39 67  2  0  0  0
 40 52  1  0  0  0
 40 53  2  0  0  0
 40 58  1  0  0  0
 41108  1  0  0  0
 41109  1  0  0  0
 41110  1  0  0  0
 41 48  1  0  0  0
 42 43  1  0  0  0
 42 66  1  0  0  0
 42111  1  0  0  0
 42112  1  0  0  0
 43 44  1  0  0  0
 44113  1  0  0  0
 45 46  2  0  0  0
 45114  1  0  0  0
 46115  1  0  0  0
 47116  1  0  0  0
 47117  1  0  0  0
 48 56  1  0  0  0
 48 65  1  0  0  0
 48118  1  0  0  0
 49 50  1  0  0  0
 49 53  1  0  0  0
 49 64  1  0  0  0
 49119  1  0  0  0
 50 51  1  0  0  0
 50120  1  0  0  0
 50121  1  0  0  0
 51 52  1  0  0  0
 51122  1  0  0  0
 51123  1  0  0  0
 52124  1  0  0  0
 52125  1  0  0  0
 53 54  1  0  0  0
 54 55  2  0  0  0
 54126  1  0  0  0
 55 57  1  0  0  0
 55127  1  0  0  0
 56 69  2  0  0  0
 57 58  2  0  0  0
 57128  1  0  0  0
 58129  1  0  0  0
 59 60  1  0  0  0
 59 61  1  0  0  0
 59 62  1  0  0  0
 60130  1  0  0  0
 60131  1  0  0  0
 60132  1  0  0  0
 61133  1  0  0  0
 61134  1  0  0  0
 61135  1  0  0  0
 62136  1  0  0  0
 62137  1  0  0  0
 62138  1  0  0  0
 63 65  1  0  0  0
 63139  1  0  0  0
 63140  1  0  0  0
 63141  1  0  0  0
 64142  1  0  0  0
 65143  1  0  0  0
 68 78  1  0  0  0
 71 79  2  0  0  0
 71 84  1  0  0  0
 71144  1  0  0  0
 72 73  2  0  0  0
 72 77  1  0  0  0
 72 84  1  0  0  0
 73 79  1  0  0  0
 73 80  1  0  0  0
 74 75  2  0  0  0
 74 76  1  0  0  0
 74145  1  0  0  0
 75 78  1  0  0  0
 75 83  1  0  0  0
 76 80  1  0  0  0
 76 82  2  0  0  0
 77 81  1  0  0  0
 77146  1  0  0  0
 77147  1  0  0  0
 78148  1  0  0  0
 78149  1  0  0  0
 80150  1  0  0  0
 81151  1  0  0  0
 83152  1  0  0  0
M  ISO  4   1 100  68 101  78 101  81 100
M  END
> <chiral flag>
0

> <version>
0

> <s_m_source_file>
/data/baiqing/PycharmProjects/Reinvent-master-3.2/result/LINK_invent/BTK/process_docking_weight1_custom_product_contain_oxygen_bond_distance_aromatic_linkinvent_7_9_3/rearranged_h_0162.sdf

> <i_m_source_file_index>
6

> <r_mmod_Potential_Energy-OPLS-2005>
-45.0733413696289

> <r_mmod_Stretch_Energy-OPLS-2005>
72.666618347168

> <r_mmod_Bend_Energy-OPLS-2005>
132.68391418457

> <r_mmod_Torsional_Energy-OPLS-2005>
225.656646728516

> <r_mmod_Improper_Torsional_Energy-OPLS-2005>
7.0796480178833

> <r_mmod_Van_der_Waal_Energy-OPLS-2005>
131.555297851562

> <r_mmod_Electrostatic_Energy-OPLS-2005>
-378.272521972656

> <r_mmod_Solvation_Energy-OPLS-2005>
-273.52734375

> <b_mmod_Minimization_Converged-OPLS-2005>
0

> <r_mmod_RMS_Derivative-OPLS-2005>
4.13978099822998

$$$$
6
                    3D
 Structure written by MMmdl.
153161  0  0  1  0            999 V2000
  -30.6317  -14.7774   20.4242 C   0  0  0  0  0  0
  -30.4258  -12.4742   19.4643 C   0  0  0  0  0  0
  -29.4975  -12.4662   18.2297 C   0  0  0  0  0  0
  -28.0285  -12.2976   18.6560 C   0  0  0  0  0  0
  -27.6317  -13.2307   19.8312 C   0  0  2  0  0  0
  -28.6808  -13.2205   20.9610 C   0  0  0  0  0  0
  -25.2508  -13.8207   20.5721 C   0  0  0  0  0  0
  -24.1800  -13.0447   20.9243 C   0  0  0  0  0  0
  -24.6401  -11.6924   20.8780 C   0  0  0  0  0  0
  -23.9069  -10.4285   21.0424 C   0  0  0  0  0  0
  -24.3620   -9.4188   21.9190 C   0  0  0  0  0  0
  -23.6297   -8.2219   22.0761 C   0  0  0  0  0  0
  -22.4273   -8.0271   21.3548 C   0  0  0  0  0  0
  -21.9911   -9.0241   20.4645 C   0  0  0  0  0  0
  -22.7248  -10.2117   20.3064 C   0  0  0  0  0  0
  -21.6844   -6.0726   22.5284 C   0  0  0  0  0  0
  -21.4002   -6.5633   23.8211 C   0  0  0  0  0  0
  -21.3663   -5.6793   24.9185 C   0  0  0  0  0  0
  -21.6065   -4.3061   24.7240 C   0  0  0  0  0  0
  -21.8815   -3.8142   23.4357 C   0  0  0  0  0  0
  -21.9183   -4.6951   22.3414 C   0  0  0  0  0  0
  -22.7812  -13.5209   21.1900 C   0  0  0  0  0  0
  -22.1651   -4.2131   21.0989 F   0  0  0  0  0  0
  -21.5639   -3.4551   25.7754 F   0  0  0  0  0  0
  -29.9684  -13.5686   20.3512 N   0  0  0  0  0  0
  -26.2907  -12.9409   20.3244 N   0  0  0  0  0  0
  -25.9327  -11.6550   20.5787 N   0  0  0  0  0  0
  -22.0481  -12.8174   22.0455 N   0  0  0  0  0  0
  -25.4264  -15.1937   20.4161 N   0  0  0  0  0  0
  -31.8617  -14.7754   20.2952 O   0  0  0  0  0  0
  -21.6640   -6.8868   21.4239 O   0  0  0  0  0  0
  -22.3470  -14.5497   20.6743 O   0  0  0  0  0  0
  -24.6369  -31.8529   23.1991 C   0  0  0  0  0  0
  -25.9188  -32.4736   23.8333 C   0  0  1  0  0  0
  -27.2092  -27.2386   20.1236 C   0  0  0  0  0  0
  -25.5957  -33.8537   24.2253 N   0  0  0  0  0  0
  -23.4314  -30.4836   21.5412 C   0  0  2  0  0  0
  -24.8744  -28.9292   20.1085 C   0  0  0  0  0  0
  -22.7502  -29.4652   22.4879 C   0  0  0  0  0  0
  -18.0309  -28.1358   22.8482 C   0  0  0  0  0  0
  -24.1487  -36.7281   23.2638 C   0  0  0  0  0  0
  -25.9829  -30.7596   21.3826 C   0  0  0  0  0  0
  -26.0515  -29.3818   20.7192 C   0  0  0  0  0  0
  -27.2236  -28.5517   20.7130 C   0  0  0  0  0  0
  -26.0077  -26.8694   19.4748 C   0  0  0  0  0  0
  -24.8611  -27.6816   19.4737 C   0  0  0  0  0  0
  -23.6484  -29.8206   20.1570 C   0  0  0  0  0  0
  -25.4109  -36.3060   24.0324 C   0  0  1  0  0  0
  -20.5919  -28.3741   23.1209 C   0  0  2  0  0  0
  -20.6787  -26.9448   22.5388 C   0  0  0  0  0  0
  -19.5770  -26.6380   21.5212 C   0  0  0  0  0  0
  -18.1950  -26.7891   22.1636 C   0  0  0  0  0  0
  -19.1567  -28.8847   23.2848 C   0  0  0  0  0  0
  -18.9476  -30.1440   23.8877 C   0  0  0  0  0  0
  -17.6471  -30.6570   24.0542 C   0  0  0  0  0  0
  -25.9061  -34.9426   23.5089 C   0  0  0  0  0  0
  -16.5373  -29.9059   23.6310 C   0  0  0  0  0  0
  -16.7296  -28.6464   23.0362 C   0  0  0  0  0  0
  -26.4535  -31.6577   25.0742 C   0  0  0  0  0  0
  -25.3750  -31.3741   26.1462 C   0  0  0  0  0  0
  -27.0385  -30.2977   24.6267 C   0  0  0  0  0  0
  -27.6061  -32.4342   25.7536 C   0  0  0  0  0  0
  -27.5569  -37.1799   24.8462 C   0  0  0  0  0  0
  -21.4200  -29.3115   22.3627 N   0  0  0  0  0  0
  -26.4282  -37.3761   23.9406 N   0  0  0  0  0  0
  -24.7036  -31.0503   22.0960 N   0  0  0  0  0  0
  -23.4188  -28.8154   23.2965 O   0  0  0  0  0  0
  -28.2718  -26.2955   20.1910 O   0  0  0  0  0  0
  -26.5629  -34.8907   22.4655 O   0  0  0  0  0  0
  -23.5514  -32.1351   23.7296 O   0  0  0  0  0  0
  -28.6074  -19.4340   22.1575 C   0  0  0  0  0  0
  -29.0470  -17.0243   22.0479 C   0  0  0  0  0  0
  -28.5565  -18.1505   22.7363 C   0  0  0  0  0  0
  -29.1657  -19.5989   20.8811 C   0  0  0  0  0  0
  -29.5856  -17.1673   20.7555 C   0  0  0  0  0  0
  -28.9533  -23.6468   20.2929 C   0  0  0  0  0  0
  -30.1678  -16.2107   18.5732 C   0  0  0  0  0  0
  -28.4670  -22.1539   20.6605 C   0  0  0  0  0  0
  -27.8893  -24.8319   20.0739 C   0  0  0  0  0  0
  -29.6239  -18.4678   20.2173 N   0  0  0  0  0  0
  -29.2843  -20.9176   20.2906 N   0  0  0  0  0  0
  -29.9477  -15.9300   20.0010 N   0  0  0  0  0  0
  -30.1609  -23.8681   20.1547 O   0  0  0  0  0  0
  -28.0190  -17.9985   23.9707 F   0  0  0  0  0  0
  -31.4645  -12.5996   19.1508 H   0  0  0  0  0  0
  -30.3798  -11.5171   19.9848 H   0  0  0  0  0  0
  -29.7819  -11.6603   17.5513 H   0  0  0  0  0  0
  -29.6065  -13.3878   17.6606 H   0  0  0  0  0  0
  -27.8982  -11.2571   18.9556 H   0  0  0  0  0  0
  -27.3644  -12.4516   17.8036 H   0  0  0  0  0  0
  -27.6087  -14.2376   19.4152 H   0  0  0  0  0  0
  -28.7293  -12.2428   21.4433 H   0  0  0  0  0  0
  -28.4103  -13.9371   21.7375 H   0  0  0  0  0  0
  -25.2754   -9.5656   22.4779 H   0  0  0  0  0  0
  -24.0005   -7.4611   22.7485 H   0  0  0  0  0  0
  -21.0840   -8.8759   19.8950 H   0  0  0  0  0  0
  -22.3714  -10.9657   19.6178 H   0  0  0  0  0  0
  -21.1986   -7.6144   23.9703 H   0  0  0  0  0  0
  -21.1499   -6.0541   25.9086 H   0  0  0  0  0  0
  -22.0592   -2.7600   23.2886 H   0  0  0  0  0  0
  -22.4087  -11.9791   22.4765 H   0  0  0  0  0  0
  -21.1112  -13.1190   22.2698 H   0  0  0  0  0  0
  -24.6709  -15.8591   20.5405 H   0  0  0  0  0  0
  -26.2890  -15.6264   20.1112 H   0  0  0  0  0  0
  -26.7247  -32.5377   23.1064 H   0  0  0  0  0  0
  -25.0112  -33.9670   25.0410 H   0  0  0  0  0  0
  -22.7327  -31.3098   21.3949 H   0  0  0  0  0  0
  -23.3744  -35.9623   23.3307 H   0  0  0  0  0  0
  -24.3583  -36.8902   22.2053 H   0  0  0  0  0  0
  -23.7251  -37.6484   23.6672 H   0  0  0  0  0  0
  -26.1321  -31.5212   20.6169 H   0  0  0  0  0  0
  -26.8569  -30.8000   22.0213 H   0  0  0  0  0  0
  -28.1223  -28.8946   21.2081 H   0  0  0  0  0  0
  -25.9083  -25.9237   18.9661 H   0  0  0  0  0  0
  -23.9648  -27.3304   18.9815 H   0  0  0  0  0  0
  -23.7749  -30.5994   19.4031 H   0  0  0  0  0  0
  -22.7635  -29.2603   19.8515 H   0  0  0  0  0  0
  -25.1305  -36.1893   25.0820 H   0  0  0  0  0  0
  -21.0057  -28.3357   24.1308 H   0  0  0  0  0  0
  -20.5626  -26.2404   23.3635 H   0  0  0  0  0  0
  -21.6642  -26.7409   22.1167 H   0  0  0  0  0  0
  -19.6950  -25.6262   21.1330 H   0  0  0  0  0  0
  -19.6707  -27.3185   20.6710 H   0  0  0  0  0  0
  -17.4210  -26.6659   21.4036 H   0  0  0  0  0  0
  -18.0376  -26.0021   22.9032 H   0  0  0  0  0  0
  -19.7960  -30.7250   24.2244 H   0  0  0  0  0  0
  -17.5030  -31.6243   24.5129 H   0  0  0  0  0  0
  -15.5368  -30.2952   23.7614 H   0  0  0  0  0  0
  -15.8705  -28.0761   22.7105 H   0  0  0  0  0  0
  -24.5939  -30.7056   25.7822 H   0  0  0  0  0  0
  -24.8922  -32.2912   26.4850 H   0  0  0  0  0  0
  -25.8078  -30.8968   27.0258 H   0  0  0  0  0  0
  -26.2979  -29.6717   24.1261 H   0  0  0  0  0  0
  -27.4007  -29.7257   25.4817 H   0  0  0  0  0  0
  -27.8893  -30.4235   23.9562 H   0  0  0  0  0  0
  -27.2642  -33.3645   26.2084 H   0  0  0  0  0  0
  -28.3913  -32.6885   25.0406 H   0  0  0  0  0  0
  -28.0687  -31.8484   26.5493 H   0  0  0  0  0  0
  -28.2587  -38.0089   24.7500 H   0  0  0  0  0  0
  -28.1060  -36.2618   24.6306 H   0  0  0  0  0  0
  -27.2291  -37.1476   25.8866 H   0  0  0  0  0  0
  -20.9375  -29.8852   21.6858 H   0  0  0  0  0  0
  -26.0151  -38.2833   24.1392 H   0  0  0  0  0  0
  -28.2311  -20.2719   22.7263 H   0  0  0  0  0  0
  -28.9643  -16.0557   22.5174 H   0  0  0  0  0  0
  -29.2378  -16.5323   18.1074 H   0  0  0  0  0  0
  -30.5420  -15.3596   18.0031 H   0  0  0  0  0  0
  -30.9029  -17.0076   18.4504 H   0  0  0  0  0  0
  -27.4697  -22.0296   20.2378 H   0  0  0  0  0  0
  -28.3222  -22.1572   21.7391 H   0  0  0  0  0  0
  -27.0469  -24.6350   20.7386 H   0  0  0  0  0  0
  -27.5311  -24.6693   19.0588 H   0  0  0  0  0  0
  -29.7229  -20.9644   19.3771 H   0  0  0  0  0  0
  1 25  1  0  0  0
  1 30  2  0  0  0
  1 82  1  0  0  0
  2  3  1  0  0  0
  2 25  1  0  0  0
  2 85  1  0  0  0
  2 86  1  0  0  0
  3  4  1  0  0  0
  3 87  1  0  0  0
  3 88  1  0  0  0
  4  5  1  0  0  0
  4 89  1  0  0  0
  4 90  1  0  0  0
  5  6  1  0  0  0
  5 26  1  0  0  0
  5 91  1  0  0  0
  6 25  1  0  0  0
  6 92  1  0  0  0
  6 93  1  0  0  0
  7  8  2  0  0  0
  7 26  1  0  0  0
  7 29  1  0  0  0
  8  9  1  0  0  0
  8 22  1  0  0  0
  9 10  1  0  0  0
  9 27  2  0  0  0
 10 11  2  0  0  0
 10 15  1  0  0  0
 11 12  1  0  0  0
 11 94  1  0  0  0
 12 13  2  0  0  0
 12 95  1  0  0  0
 13 14  1  0  0  0
 13 31  1  0  0  0
 14 15  2  0  0  0
 14 96  1  0  0  0
 15 97  1  0  0  0
 16 17  2  0  0  0
 16 21  1  0  0  0
 16 31  1  0  0  0
 17 18  1  0  0  0
 17 98  1  0  0  0
 18 19  2  0  0  0
 18 99  1  0  0  0
 19 20  1  0  0  0
 19 24  1  0  0  0
 20 21  2  0  0  0
 20100  1  0  0  0
 21 23  1  0  0  0
 22 28  1  0  0  0
 22 32  2  0  0  0
 26 27  1  0  0  0
 28101  1  0  0  0
 28102  1  0  0  0
 29103  1  0  0  0
 29104  1  0  0  0
 33 34  1  0  0  0
 33 66  1  0  0  0
 33 70  2  0  0  0
 34 36  1  0  0  0
 34 59  1  0  0  0
 34105  1  0  0  0
 35 44  2  0  0  0
 35 45  1  0  0  0
 35 68  1  0  0  0
 36 56  1  0  0  0
 36106  1  0  0  0
 37 39  1  0  0  0
 37 47  1  0  0  0
 37 66  1  0  0  0
 37107  1  0  0  0
 38 43  2  0  0  0
 38 46  1  0  0  0
 38 47  1  0  0  0
 39 64  1  0  0  0
 39 67  2  0  0  0
 40 52  1  0  0  0
 40 53  2  0  0  0
 40 58  1  0  0  0
 41108  1  0  0  0
 41109  1  0  0  0
 41110  1  0  0  0
 41 48  1  0  0  0
 42 43  1  0  0  0
 42 66  1  0  0  0
 42111  1  0  0  0
 42112  1  0  0  0
 43 44  1  0  0  0
 44113  1  0  0  0
 45 46  2  0  0  0
 45114  1  0  0  0
 46115  1  0  0  0
 47116  1  0  0  0
 47117  1  0  0  0
 48 56  1  0  0  0
 48 65  1  0  0  0
 48118  1  0  0  0
 49 50  1  0  0  0
 49 53  1  0  0  0
 49 64  1  0  0  0
 49119  1  0  0  0
 50 51  1  0  0  0
 50120  1  0  0  0
 50121  1  0  0  0
 51 52  1  0  0  0
 51122  1  0  0  0
 51123  1  0  0  0
 52124  1  0  0  0
 52125  1  0  0  0
 53 54  1  0  0  0
 54 55  2  0  0  0
 54126  1  0  0  0
 55 57  1  0  0  0
 55127  1  0  0  0
 56 69  2  0  0  0
 57 58  2  0  0  0
 57128  1  0  0  0
 58129  1  0  0  0
 59 60  1  0  0  0
 59 61  1  0  0  0
 59 62  1  0  0  0
 60130  1  0  0  0
 60131  1  0  0  0
 60132  1  0  0  0
 61133  1  0  0  0
 61134  1  0  0  0
 61135  1  0  0  0
 62136  1  0  0  0
 62137  1  0  0  0
 62138  1  0  0  0
 63 65  1  0  0  0
 63139  1  0  0  0
 63140  1  0  0  0
 63141  1  0  0  0
 64142  1  0  0  0
 65143  1  0  0  0
 68 79  1  0  0  0
 71 73  2  0  0  0
 71 74  1  0  0  0
 71144  1  0  0  0
 72 73  1  0  0  0
 72 75  2  0  0  0
 72145  1  0  0  0
 73 84  1  0  0  0
 74 80  2  0  0  0
 74 81  1  0  0  0
 75 80  1  0  0  0
 75 82  1  0  0  0
 76 78  1  0  0  0
 76 79  1  0  0  0
 76 83  2  0  0  0
 77 82  1  0  0  0
 77146  1  0  0  0
 77147  1  0  0  0
 77148  1  0  0  0
 78 81  1  0  0  0
 78149  1  0  0  0
 78150  1  0  0  0
 79151  1  0  0  0
 79152  1  0  0  0
 81153  1  0  0  0
M  ISO  4   1 100  68 101  79 101  82 100
M  END
> <chiral flag>
0

> <version>
0

> <s_m_source_file>
/data/baiqing/PycharmProjects/Reinvent-master-3.2/result/LINK_invent/BTK/process_docking_weight1_custom_product_contain_oxygen_bond_distance_aromatic_linkinvent_7_9_3/rearranged_h_0162.sdf

> <i_m_source_file_index>
7

> <r_mmod_Potential_Energy-OPLS-2005>
125.608169555664

> <r_mmod_Stretch_Energy-OPLS-2005>
136.995391845703

> <r_mmod_Bend_Energy-OPLS-2005>
187.776275634766

> <r_mmod_Torsional_Energy-OPLS-2005>
274.363677978516

> <r_mmod_Improper_Torsional_Energy-OPLS-2005>
26.7338542938232

> <r_mmod_Van_der_Waal_Energy-OPLS-2005>
145.418151855469

> <r_mmod_Electrostatic_Energy-OPLS-2005>
-517.820678710938

> <r_mmod_Solvation_Energy-OPLS-2005>
-239.951324462891

> <b_mmod_Minimization_Converged-OPLS-2005>
0

> <r_mmod_RMS_Derivative-OPLS-2005>
3.04540634155273

$$$$
7
                    3D
 Structure written by MMmdl.
155164  0  0  1  0            999 V2000
  -30.6210  -14.6522   20.4885 C   0  0  0  0  0  0
  -30.4381  -12.3972   19.4564 C   0  0  0  0  0  0
  -29.5081  -12.5037   18.2270 C   0  0  0  0  0  0
  -28.0318  -12.3392   18.6398 C   0  0  0  0  0  0
  -27.6520  -13.2171   19.8624 C   0  0  2  0  0  0
  -28.6972  -13.0843   20.9935 C   0  0  0  0  0  0
  -25.2555  -13.8171   20.5682 C   0  0  0  0  0  0
  -24.1824  -13.0435   20.9189 C   0  0  0  0  0  0
  -24.6394  -11.6907   20.8745 C   0  0  0  0  0  0
  -23.9061  -10.4290   21.0411 C   0  0  0  0  0  0
  -24.3614   -9.4205   21.9186 C   0  0  0  0  0  0
  -23.6289   -8.2243   22.0756 C   0  0  0  0  0  0
  -22.4274   -8.0279   21.3546 C   0  0  0  0  0  0
  -21.9905   -9.0251   20.4647 C   0  0  0  0  0  0
  -22.7234  -10.2132   20.3058 C   0  0  0  0  0  0
  -21.6851   -6.0731   22.5275 C   0  0  0  0  0  0
  -21.4014   -6.5638   23.8207 C   0  0  0  0  0  0
  -21.3660   -5.6791   24.9172 C   0  0  0  0  0  0
  -21.6044   -4.3051   24.7222 C   0  0  0  0  0  0
  -21.8819   -3.8144   23.4344 C   0  0  0  0  0  0
  -21.9193   -4.6959   22.3400 C   0  0  0  0  0  0
  -22.7847  -13.5228   21.1849 C   0  0  0  0  0  0
  -22.1659   -4.2144   21.0975 F   0  0  0  0  0  0
  -21.5630   -3.4536   25.7737 F   0  0  0  0  0  0
  -30.0120  -13.4249   20.4283 N   0  0  0  0  0  0
  -26.2984  -12.9353   20.3320 N   0  0  0  0  0  0
  -25.9323  -11.6509   20.5764 N   0  0  0  0  0  0
  -22.0489  -12.8226   22.0410 N   0  0  0  0  0  0
  -25.4263  -15.1892   20.4084 N   0  0  0  0  0  0
  -31.7893  -14.7981   20.1188 O   0  0  0  0  0  0
  -21.6641   -6.8878   21.4241 O   0  0  0  0  0  0
  -22.3538  -14.5537   20.6697 O   0  0  0  0  0  0
  -24.6276  -31.8597   23.2031 C   0  0  0  0  0  0
  -25.9116  -32.4780   23.8361 C   0  0  1  0  0  0
  -27.2181  -27.3102   20.1098 C   0  0  0  0  0  0
  -25.5933  -33.8583   24.2288 N   0  0  0  0  0  0
  -23.4212  -30.4859   21.5459 C   0  0  2  0  0  0
  -24.8659  -28.9444   20.1099 C   0  0  0  0  0  0
  -22.7488  -29.4625   22.4925 C   0  0  0  0  0  0
  -18.0291  -28.1383   22.8493 C   0  0  0  0  0  0
  -24.1488  -36.7287   23.2636 C   0  0  0  0  0  0
  -25.9648  -30.7874   21.3762 C   0  0  0  0  0  0
  -26.0374  -29.4154   20.7160 C   0  0  0  0  0  0
  -27.2172  -28.6098   20.7078 C   0  0  0  0  0  0
  -26.0199  -26.9000   19.4766 C   0  0  0  0  0  0
  -24.8596  -27.6925   19.4817 C   0  0  0  0  0  0
  -23.6357  -29.8259   20.1599 C   0  0  0  0  0  0
  -25.4108  -36.3079   24.0336 C   0  0  1  0  0  0
  -20.5894  -28.3685   23.1281 C   0  0  2  0  0  0
  -20.6778  -26.9409   22.5408 C   0  0  0  0  0  0
  -19.5751  -26.6377   21.5218 C   0  0  0  0  0  0
  -18.1930  -26.7927   22.1627 C   0  0  0  0  0  0
  -19.1545  -28.8849   23.2885 C   0  0  0  0  0  0
  -18.9465  -30.1455   23.8893 C   0  0  0  0  0  0
  -17.6466  -30.6586   24.0564 C   0  0  0  0  0  0
  -25.9051  -34.9453   23.5107 C   0  0  0  0  0  0
  -16.5357  -29.9084   23.6330 C   0  0  0  0  0  0
  -16.7276  -28.6502   23.0351 C   0  0  0  0  0  0
  -26.4499  -31.6588   25.0728 C   0  0  0  0  0  0
  -25.3737  -31.3734   26.1456 C   0  0  0  0  0  0
  -27.0331  -30.3010   24.6168 C   0  0  0  0  0  0
  -27.6053  -32.4326   25.7500 C   0  0  0  0  0  0
  -27.5589  -37.1779   24.8455 C   0  0  0  0  0  0
  -21.4198  -29.3044   22.3674 N   0  0  0  0  0  0
  -26.4277  -37.3783   23.9434 N   0  0  0  0  0  0
  -24.6900  -31.0611   22.0979 N   0  0  0  0  0  0
  -23.4212  -28.8153   23.2994 O   0  0  0  0  0  0
  -28.3220  -26.4395   20.1627 O   0  0  0  0  0  0
  -26.5613  -34.8924   22.4669 O   0  0  0  0  0  0
  -23.5437  -32.1391   23.7358 O   0  0  0  0  0  0
  -28.8003  -18.0082   20.8715 C   0  0  0  0  0  0
  -31.1088  -17.8404   20.1996 C   0  0  0  0  0  0
  -28.8338  -19.4313   20.7083 C   0  0  0  0  0  0
  -30.0188  -20.0781   20.2847 C   0  0  0  0  0  0
  -29.9295  -17.1682   20.6213 C   0  0  0  0  0  0
  -31.1519  -19.2563   20.0384 C   0  0  0  0  0  0
  -29.1506  -23.9437   20.3403 C   0  0  0  0  0  0
  -27.5923  -20.2859   20.9744 C   0  0  0  0  0  0
  -27.8993  -21.7946   21.1994 C   0  0  0  0  0  0
  -28.8768  -22.3674   20.1469 C   0  0  2  0  0  0
  -28.0337  -24.9941   19.9585 C   0  0  0  0  0  0
  -30.0865  -21.4976   20.1311 N   0  0  0  0  0  0
  -29.8069  -15.7136   20.8053 N   0  0  0  0  0  0
  -30.2346  -24.3488   20.7739 O   0  0  0  0  0  0
  -32.3084  -19.8378   19.6349 F   0  0  0  0  0  0
  -31.4796  -12.5211   19.1545 H   0  0  0  0  0  0
  -30.3749  -11.4040   19.9032 H   0  0  0  0  0  0
  -29.7749  -11.7490   17.4859 H   0  0  0  0  0  0
  -29.6475  -13.4711   17.7422 H   0  0  0  0  0  0
  -27.8731  -11.2868   18.8790 H   0  0  0  0  0  0
  -27.3756  -12.5592   17.7973 H   0  0  0  0  0  0
  -27.6667  -14.2497   19.5141 H   0  0  0  0  0  0
  -28.7094  -12.0672   21.3874 H   0  0  0  0  0  0
  -28.4424  -13.7265   21.8382 H   0  0  0  0  0  0
  -25.2761   -9.5680   22.4758 H   0  0  0  0  0  0
  -23.9992   -7.4637   22.7479 H   0  0  0  0  0  0
  -21.0833   -8.8771   19.8957 H   0  0  0  0  0  0
  -22.3692  -10.9670   19.6166 H   0  0  0  0  0  0
  -21.2005   -7.6147   23.9709 H   0  0  0  0  0  0
  -21.1482   -6.0521   25.9072 H   0  0  0  0  0  0
  -22.0598   -2.7604   23.2842 H   0  0  0  0  0  0
  -22.4097  -11.9877   22.4789 H   0  0  0  0  0  0
  -21.1113  -13.1265   22.2626 H   0  0  0  0  0  0
  -24.6537  -15.8388   20.5073 H   0  0  0  0  0  0
  -26.2627  -15.6250   20.0426 H   0  0  0  0  0  0
  -26.7181  -32.5439   23.1108 H   0  0  0  0  0  0
  -25.0109  -33.9733   25.0453 H   0  0  0  0  0  0
  -22.7154  -31.3069   21.4051 H   0  0  0  0  0  0
  -23.3769  -35.9598   23.3259 H   0  0  0  0  0  0
  -24.3599  -36.8934   22.2059 H   0  0  0  0  0  0
  -23.7211  -37.6470   23.6669 H   0  0  0  0  0  0
  -26.0989  -31.5515   20.6094 H   0  0  0  0  0  0
  -26.8450  -30.8342   22.0053 H   0  0  0  0  0  0
  -28.1150  -28.9642   21.1942 H   0  0  0  0  0  0
  -25.9394  -25.9481   18.9742 H   0  0  0  0  0  0
  -23.9623  -27.3277   19.0004 H   0  0  0  0  0  0
  -23.7564  -30.6043   19.4058 H   0  0  0  0  0  0
  -22.7548  -29.2579   19.8547 H   0  0  0  0  0  0
  -25.1286  -36.1916   25.0828 H   0  0  0  0  0  0
  -20.9988  -28.3242   24.1401 H   0  0  0  0  0  0
  -20.5685  -26.2297   23.3606 H   0  0  0  0  0  0
  -21.6641  -26.7430   22.1189 H   0  0  0  0  0  0
  -19.6912  -25.6293   21.1233 H   0  0  0  0  0  0
  -19.6683  -27.3197   20.6757 H   0  0  0  0  0  0
  -17.4204  -26.6681   21.4027 H   0  0  0  0  0  0
  -18.0323  -26.0074   22.9021 H   0  0  0  0  0  0
  -19.7945  -30.7275   24.2244 H   0  0  0  0  0  0
  -17.5025  -31.6265   24.5166 H   0  0  0  0  0  0
  -15.5359  -30.2987   23.7664 H   0  0  0  0  0  0
  -15.8676  -28.0827   22.7055 H   0  0  0  0  0  0
  -24.5915  -30.7075   25.7796 H   0  0  0  0  0  0
  -24.8936  -32.2911   26.4868 H   0  0  0  0  0  0
  -25.8074  -30.8929   27.0235 H   0  0  0  0  0  0
  -26.2897  -29.6775   24.1188 H   0  0  0  0  0  0
  -27.4037  -29.7247   25.4653 H   0  0  0  0  0  0
  -27.8767  -30.4307   23.9384 H   0  0  0  0  0  0
  -27.2654  -33.3632   26.2058 H   0  0  0  0  0  0
  -28.3876  -32.6869   25.0335 H   0  0  0  0  0  0
  -28.0703  -31.8464   26.5435 H   0  0  0  0  0  0
  -28.2535  -38.0146   24.7592 H   0  0  0  0  0  0
  -28.1150  -36.2680   24.6146 H   0  0  0  0  0  0
  -27.2333  -37.1258   25.8860 H   0  0  0  0  0  0
  -20.9364  -29.8801   21.6922 H   0  0  0  0  0  0
  -26.0149  -38.2840   24.1499 H   0  0  0  0  0  0
  -27.8735  -17.5550   21.1952 H   0  0  0  0  0  0
  -32.0099  -17.2850   19.9918 H   0  0  0  0  0  0
  -27.0504  -19.8876   21.8326 H   0  0  0  0  0  0
  -26.9314  -20.1787   20.1134 H   0  0  0  0  0  0
  -28.3365  -21.9208   22.1911 H   0  0  0  0  0  0
  -26.9644  -22.3570   21.2091 H   0  0  0  0  0  0
  -28.4067  -22.2522   19.1690 H   0  0  0  0  0  0
  -27.1454  -24.7301   20.5335 H   0  0  0  0  0  0
  -27.7938  -24.8305   18.9078 H   0  0  0  0  0  0
  -30.9718  -21.9152   19.8574 H   0  0  0  0  0  0
  -28.8967  -15.4094   21.1153 H   0  0  0  0  0  0
  1 25  1  0  0  0
  1 30  2  0  0  0
  1 83  1  0  0  0
  2  3  1  0  0  0
  2 25  1  0  0  0
  2 86  1  0  0  0
  2 87  1  0  0  0
  3  4  1  0  0  0
  3 88  1  0  0  0
  3 89  1  0  0  0
  4  5  1  0  0  0
  4 90  1  0  0  0
  4 91  1  0  0  0
  5  6  1  0  0  0
  5 26  1  0  0  0
  5 92  1  0  0  0
  6 25  1  0  0  0
  6 93  1  0  0  0
  6 94  1  0  0  0
  7  8  2  0  0  0
  7 26  1  0  0  0
  7 29  1  0  0  0
  8  9  1  0  0  0
  8 22  1  0  0  0
  9 10  1  0  0  0
  9 27  2  0  0  0
 10 11  2  0  0  0
 10 15  1  0  0  0
 11 12  1  0  0  0
 11 95  1  0  0  0
 12 13  2  0  0  0
 12 96  1  0  0  0
 13 14  1  0  0  0
 13 31  1  0  0  0
 14 15  2  0  0  0
 14 97  1  0  0  0
 15 98  1  0  0  0
 16 17  2  0  0  0
 16 21  1  0  0  0
 16 31  1  0  0  0
 17 18  1  0  0  0
 17 99  1  0  0  0
 18 19  2  0  0  0
 18100  1  0  0  0
 19 20  1  0  0  0
 19 24  1  0  0  0
 20 21  2  0  0  0
 20101  1  0  0  0
 21 23  1  0  0  0
 22 28  1  0  0  0
 22 32  2  0  0  0
 26 27  1  0  0  0
 28102  1  0  0  0
 28103  1  0  0  0
 29104  1  0  0  0
 29105  1  0  0  0
 33 34  1  0  0  0
 33 66  1  0  0  0
 33 70  2  0  0  0
 34 36  1  0  0  0
 34 59  1  0  0  0
 34106  1  0  0  0
 35 44  2  0  0  0
 35 45  1  0  0  0
 35 68  1  0  0  0
 36 56  1  0  0  0
 36107  1  0  0  0
 37 39  1  0  0  0
 37 47  1  0  0  0
 37 66  1  0  0  0
 37108  1  0  0  0
 38 43  2  0  0  0
 38 46  1  0  0  0
 38 47  1  0  0  0
 39 64  1  0  0  0
 39 67  2  0  0  0
 40 52  1  0  0  0
 40 53  2  0  0  0
 40 58  1  0  0  0
 41109  1  0  0  0
 41110  1  0  0  0
 41111  1  0  0  0
 41 48  1  0  0  0
 42 43  1  0  0  0
 42 66  1  0  0  0
 42112  1  0  0  0
 42113  1  0  0  0
 43 44  1  0  0  0
 44114  1  0  0  0
 45 46  2  0  0  0
 45115  1  0  0  0
 46116  1  0  0  0
 47117  1  0  0  0
 47118  1  0  0  0
 48 56  1  0  0  0
 48 65  1  0  0  0
 48119  1  0  0  0
 49 50  1  0  0  0
 49 53  1  0  0  0
 49 64  1  0  0  0
 49120  1  0  0  0
 50 51  1  0  0  0
 50121  1  0  0  0
 50122  1  0  0  0
 51 52  1  0  0  0
 51123  1  0  0  0
 51124  1  0  0  0
 52125  1  0  0  0
 52126  1  0  0  0
 53 54  1  0  0  0
 54 55  2  0  0  0
 54127  1  0  0  0
 55 57  1  0  0  0
 55128  1  0  0  0
 56 69  2  0  0  0
 57 58  2  0  0  0
 57129  1  0  0  0
 58130  1  0  0  0
 59 60  1  0  0  0
 59 61  1  0  0  0
 59 62  1  0  0  0
 60131  1  0  0  0
 60132  1  0  0  0
 60133  1  0  0  0
 61134  1  0  0  0
 61135  1  0  0  0
 61136  1  0  0  0
 62137  1  0  0  0
 62138  1  0  0  0
 62139  1  0  0  0
 63 65  1  0  0  0
 63140  1  0  0  0
 63141  1  0  0  0
 63142  1  0  0  0
 64143  1  0  0  0
 65144  1  0  0  0
 68 81  1  0  0  0
 71 73  2  0  0  0
 71 75  1  0  0  0
 71145  1  0  0  0
 72 75  2  0  0  0
 72 76  1  0  0  0
 72146  1  0  0  0
 73 74  1  0  0  0
 73 78  1  0  0  0
 74 76  2  0  0  0
 74 82  1  0  0  0
 75 83  1  0  0  0
 76 85  1  0  0  0
 77 81  1  0  0  0
 77 84  2  0  0  0
 77 80  1  0  0  0
 78 79  1  0  0  0
 78147  1  0  0  0
 78148  1  0  0  0
 79 80  1  0  0  0
 79149  1  0  0  0
 79150  1  0  0  0
 80 82  1  0  0  0
 80151  1  0  0  0
 81152  1  0  0  0
 81153  1  0  0  0
 82154  1  0  0  0
 83155  1  0  0  0
M  ISO  4   1 100  68 101  81 101  83 100
M  END
> <chiral flag>
0

> <version>
0

> <s_m_source_file>
/data/baiqing/PycharmProjects/Reinvent-master-3.2/result/LINK_invent/BTK/process_docking_weight1_custom_product_contain_oxygen_bond_distance_aromatic_linkinvent_7_9_3/rearranged_h_0162.sdf

> <i_m_source_file_index>
8

> <r_mmod_Potential_Energy-OPLS-2005>
93.2120971679688

> <r_mmod_Stretch_Energy-OPLS-2005>
84.3058853149414

> <r_mmod_Bend_Energy-OPLS-2005>
138.011459350586

> <r_mmod_Torsional_Energy-OPLS-2005>
212.90625

> <r_mmod_Improper_Torsional_Energy-OPLS-2005>
4.63299465179443

> <r_mmod_Van_der_Waal_Energy-OPLS-2005>
150.832595825195

> <r_mmod_Electrostatic_Energy-OPLS-2005>
-312.819091796875

> <r_mmod_Solvation_Energy-OPLS-2005>
-238.591766357422

> <b_mmod_Minimization_Converged-OPLS-2005>
0

> <r_mmod_RMS_Derivative-OPLS-2005>
0.999967396259308

$$$$
8
                    3D
 Structure written by MMmdl.
155163  0  0  1  0            999 V2000
  -30.5413  -14.6159   20.5867 C   0  0  0  0  0  0
  -30.4750  -12.4096   19.4163 C   0  0  0  0  0  0
  -29.5087  -12.5402   18.2117 C   0  0  0  0  0  0
  -28.0275  -12.3650   18.6163 C   0  0  0  0  0  0
  -27.6620  -13.1936   19.8726 C   0  0  2  0  0  0
  -28.7095  -12.9250   20.9774 C   0  0  0  0  0  0
  -25.2589  -13.8093   20.5604 C   0  0  0  0  0  0
  -24.1839  -13.0364   20.9134 C   0  0  0  0  0  0
  -24.6423  -11.6849   20.8712 C   0  0  0  0  0  0
  -23.9092  -10.4235   21.0411 C   0  0  0  0  0  0
  -24.3633   -9.4152   21.9205 C   0  0  0  0  0  0
  -23.6300   -8.2185   22.0764 C   0  0  0  0  0  0
  -22.4290   -8.0223   21.3530 C   0  0  0  0  0  0
  -21.9913   -9.0223   20.4662 C   0  0  0  0  0  0
  -22.7263  -10.2083   20.3067 C   0  0  0  0  0  0
  -21.6832   -6.0704   22.5289 C   0  0  0  0  0  0
  -21.4023   -6.5639   23.8220 C   0  0  0  0  0  0
  -21.3660   -5.6800   24.9193 C   0  0  0  0  0  0
  -21.6038   -4.3059   24.7264 C   0  0  0  0  0  0
  -21.8825   -3.8134   23.4392 C   0  0  0  0  0  0
  -21.9207   -4.6934   22.3429 C   0  0  0  0  0  0
  -22.7860  -13.5160   21.1858 C   0  0  0  0  0  0
  -22.1638   -4.2096   21.1001 F   0  0  0  0  0  0
  -21.5644   -3.4569   25.7788 F   0  0  0  0  0  0
  -30.0270  -13.3514   20.4546 N   0  0  0  0  0  0
  -26.3023  -12.9233   20.3310 N   0  0  0  0  0  0
  -25.9333  -11.6408   20.5705 N   0  0  0  0  0  0
  -22.0558  -12.8100   22.0439 N   0  0  0  0  0  0
  -25.4310  -15.1803   20.3997 N   0  0  0  0  0  0
  -31.6330  -14.9432   20.1070 O   0  0  0  0  0  0
  -21.6615   -6.8835   21.4241 O   0  0  0  0  0  0
  -22.3476  -14.5455   20.6736 O   0  0  0  0  0  0
  -24.6213  -31.8549   23.2042 C   0  0  0  0  0  0
  -25.9086  -32.4747   23.8326 C   0  0  1  0  0  0
  -27.2250  -27.3254   20.1052 C   0  0  0  0  0  0
  -25.5934  -33.8559   24.2284 N   0  0  0  0  0  0
  -23.4164  -30.4803   21.5442 C   0  0  2  0  0  0
  -24.8628  -28.9334   20.1112 C   0  0  0  0  0  0
  -22.7460  -29.4599   22.4935 C   0  0  0  0  0  0
  -18.0268  -28.1369   22.8483 C   0  0  0  0  0  0
  -24.1483  -36.7221   23.2635 C   0  0  0  0  0  0
  -25.9540  -30.7919   21.3727 C   0  0  0  0  0  0
  -26.0276  -29.4177   20.7168 C   0  0  0  0  0  0
  -27.2073  -28.6198   20.7084 C   0  0  0  0  0  0
  -26.0327  -26.8803   19.4884 C   0  0  0  0  0  0
  -24.8681  -27.6712   19.4903 C   0  0  0  0  0  0
  -23.6270  -29.8086   20.1606 C   0  0  0  0  0  0
  -25.4122  -36.3088   24.0342 C   0  0  1  0  0  0
  -20.5861  -28.3707   23.1230 C   0  0  2  0  0  0
  -20.6755  -26.9421   22.5392 C   0  0  0  0  0  0
  -19.5742  -26.6364   21.5183 C   0  0  0  0  0  0
  -18.1921  -26.7900   22.1599 C   0  0  0  0  0  0
  -19.1515  -28.8842   23.2845 C   0  0  0  0  0  0
  -18.9441  -30.1424   23.8912 C   0  0  0  0  0  0
  -17.6454  -30.6568   24.0555 C   0  0  0  0  0  0
  -25.9050  -34.9440   23.5114 C   0  0  0  0  0  0
  -16.5342  -29.9082   23.6310 C   0  0  0  0  0  0
  -16.7253  -28.6466   23.0397 C   0  0  0  0  0  0
  -26.4529  -31.6586   25.0683 C   0  0  0  0  0  0
  -25.3804  -31.3719   26.1445 C   0  0  0  0  0  0
  -27.0369  -30.3013   24.6179 C   0  0  0  0  0  0
  -27.6080  -32.4352   25.7434 C   0  0  0  0  0  0
  -27.5581  -37.1758   24.8462 C   0  0  0  0  0  0
  -21.4170  -29.3064   22.3632 N   0  0  0  0  0  0
  -26.4312  -37.3779   23.9386 N   0  0  0  0  0  0
  -24.6841  -31.0592   22.0982 N   0  0  0  0  0  0
  -23.4176  -28.8104   23.2990 O   0  0  0  0  0  0
  -28.3756  -26.5309   20.1737 O   0  0  0  0  0  0
  -26.5569  -34.8902   22.4645 O   0  0  0  0  0  0
  -23.5377  -32.1334   23.7359 O   0  0  0  0  0  0
  -29.1737  -18.9218   20.0390 C   0  0  0  0  0  0
  -29.8473  -18.0239   20.9446 C   0  0  0  0  0  0
  -30.7131  -18.8292   21.6565 C   0  0  0  0  0  0
  -29.5948  -20.1945   20.3463 C   0  0  0  0  0  0
  -29.3494  -16.7122   21.5077 C   0  0  0  0  0  0
  -31.5395  -18.5327   22.8308 C   0  0  0  0  0  0
  -28.3705  -23.9334   20.3601 C   0  0  0  0  0  0
  -32.1019  -19.7087   23.6126 C   0  0  0  0  0  0
  -29.4561  -22.7830   20.3015 C   0  0  0  0  0  0
  -28.5200  -25.2336   19.4831 C   0  0  0  0  0  0
  -28.9958  -21.4129   19.9219 N   0  0  0  0  0  0
  -29.6568  -15.4175   21.2372 N   0  0  0  0  0  0
  -28.4516  -16.8401   22.3386 O   0  0  0  0  0  0
  -31.7618  -17.3846   23.2234 O   0  0  0  0  0  0
  -27.3783  -23.7824   21.0801 O   0  0  0  0  0  0
  -30.5960  -20.1533   21.2622 O   0  0  0  0  0  0
  -31.4977  -12.6158   19.0946 H   0  0  0  0  0  0
  -30.4804  -11.3927   19.8144 H   0  0  0  0  0  0
  -29.7660  -11.8150   17.4412 H   0  0  0  0  0  0
  -29.6437  -13.5195   17.7525 H   0  0  0  0  0  0
  -27.8514  -11.3060   18.8161 H   0  0  0  0  0  0
  -27.3747  -12.6300   17.7855 H   0  0  0  0  0  0
  -27.7028  -14.2431   19.5844 H   0  0  0  0  0  0
  -28.7340  -11.8589   21.2008 H   0  0  0  0  0  0
  -28.4347  -13.3930   21.9236 H   0  0  0  0  0  0
  -25.2767   -9.5570   22.4808 H   0  0  0  0  0  0
  -23.9982   -7.4546   22.7471 H   0  0  0  0  0  0
  -21.0838   -8.8782   19.8970 H   0  0  0  0  0  0
  -22.3758  -10.9639   19.6189 H   0  0  0  0  0  0
  -21.1981   -7.6141   23.9707 H   0  0  0  0  0  0
  -21.1479   -6.0535   25.9088 H   0  0  0  0  0  0
  -22.0608   -2.7586   23.2933 H   0  0  0  0  0  0
  -22.4196  -11.9716   22.4712 H   0  0  0  0  0  0
  -21.1221  -13.1126   22.2824 H   0  0  0  0  0  0
  -24.6698  -15.8430   20.5033 H   0  0  0  0  0  0
  -26.2833  -15.6114   20.0696 H   0  0  0  0  0  0
  -26.7135  -32.5438   23.1068 H   0  0  0  0  0  0
  -25.0210  -33.9726   25.0519 H   0  0  0  0  0  0
  -22.7078  -31.2987   21.4036 H   0  0  0  0  0  0
  -23.3800  -35.9500   23.3307 H   0  0  0  0  0  0
  -24.3520  -36.8783   22.2034 H   0  0  0  0  0  0
  -23.7213  -37.6423   23.6626 H   0  0  0  0  0  0
  -26.0723  -31.5608   20.6087 H   0  0  0  0  0  0
  -26.8382  -30.8455   21.9958 H   0  0  0  0  0  0
  -28.1072  -28.9777   21.1889 H   0  0  0  0  0  0
  -25.9699  -25.9071   19.0233 H   0  0  0  0  0  0
  -23.9735  -27.2958   19.0155 H   0  0  0  0  0  0
  -23.7303  -30.5764   19.3938 H   0  0  0  0  0  0
  -22.7493  -29.2252   19.8797 H   0  0  0  0  0  0
  -25.1298  -36.1960   25.0841 H   0  0  0  0  0  0
  -20.9984  -28.3355   24.1350 H   0  0  0  0  0  0
  -20.5638  -26.2348   23.3607 H   0  0  0  0  0  0
  -21.6626  -26.7451   22.1205 H   0  0  0  0  0  0
  -19.6930  -25.6278   21.1237 H   0  0  0  0  0  0
  -19.6658  -27.3169   20.6712 H   0  0  0  0  0  0
  -17.4192  -26.6630   21.3986 H   0  0  0  0  0  0
  -18.0312  -26.0027   22.8980 H   0  0  0  0  0  0
  -19.7939  -30.7172   24.2326 H   0  0  0  0  0  0
  -17.5046  -31.6255   24.5130 H   0  0  0  0  0  0
  -15.5351  -30.3018   23.7564 H   0  0  0  0  0  0
  -15.8658  -28.0740   22.7209 H   0  0  0  0  0  0
  -24.5916  -30.7105   25.7784 H   0  0  0  0  0  0
  -24.9035  -32.2894   26.4916 H   0  0  0  0  0  0
  -25.8138  -30.8852   27.0189 H   0  0  0  0  0  0
  -26.2939  -29.6747   24.1231 H   0  0  0  0  0  0
  -27.4019  -29.7366   25.4745 H   0  0  0  0  0  0
  -27.8850  -30.4264   23.9454 H   0  0  0  0  0  0
  -27.2704  -33.3634   26.2055 H   0  0  0  0  0  0
  -28.3856  -32.6935   25.0254 H   0  0  0  0  0  0
  -28.0829  -31.8440   26.5275 H   0  0  0  0  0  0
  -28.2621  -38.0034   24.7505 H   0  0  0  0  0  0
  -28.1071  -36.2567   24.6333 H   0  0  0  0  0  0
  -27.2232  -37.1422   25.8846 H   0  0  0  0  0  0
  -20.9395  -29.8807   21.6827 H   0  0  0  0  0  0
  -26.0231  -38.2873   24.1388 H   0  0  0  0  0  0
  -28.3343  -18.6911   19.3990 H   0  0  0  0  0  0
  -32.8176  -20.2591   23.0013 H   0  0  0  0  0  0
  -32.5865  -19.3659   24.5269 H   0  0  0  0  0  0
  -31.2948  -20.3843   23.8930 H   0  0  0  0  0  0
  -29.9025  -22.7369   21.2975 H   0  0  0  0  0  0
  -30.2619  -23.0813   19.6308 H   0  0  0  0  0  0
  -27.8520  -25.1573   18.6283 H   0  0  0  0  0  0
  -29.5254  -25.1979   19.0647 H   0  0  0  0  0  0
  -28.2359  -21.3769   19.2462 H   0  0  0  0  0  0
  -28.9553  -14.8365   21.6656 H   0  0  0  0  0  0
  1 25  1  0  0  0
  1 30  2  0  0  0
  1 82  1  0  0  0
  2  3  1  0  0  0
  2 25  1  0  0  0
  2 87  1  0  0  0
  2 88  1  0  0  0
  3  4  1  0  0  0
  3 89  1  0  0  0
  3 90  1  0  0  0
  4  5  1  0  0  0
  4 91  1  0  0  0
  4 92  1  0  0  0
  5  6  1  0  0  0
  5 26  1  0  0  0
  5 93  1  0  0  0
  6 25  1  0  0  0
  6 94  1  0  0  0
  6 95  1  0  0  0
  7  8  2  0  0  0
  7 26  1  0  0  0
  7 29  1  0  0  0
  8  9  1  0  0  0
  8 22  1  0  0  0
  9 10  1  0  0  0
  9 27  2  0  0  0
 10 11  2  0  0  0
 10 15  1  0  0  0
 11 12  1  0  0  0
 11 96  1  0  0  0
 12 13  2  0  0  0
 12 97  1  0  0  0
 13 14  1  0  0  0
 13 31  1  0  0  0
 14 15  2  0  0  0
 14 98  1  0  0  0
 15 99  1  0  0  0
 16 17  2  0  0  0
 16 21  1  0  0  0
 16 31  1  0  0  0
 17 18  1  0  0  0
 17100  1  0  0  0
 18 19  2  0  0  0
 18101  1  0  0  0
 19 20  1  0  0  0
 19 24  1  0  0  0
 20 21  2  0  0  0
 20102  1  0  0  0
 21 23  1  0  0  0
 22 28  1  0  0  0
 22 32  2  0  0  0
 26 27  1  0  0  0
 28103  1  0  0  0
 28104  1  0  0  0
 29105  1  0  0  0
 29106  1  0  0  0
 33 34  1  0  0  0
 33 66  1  0  0  0
 33 70  2  0  0  0
 34 36  1  0  0  0
 34 59  1  0  0  0
 34107  1  0  0  0
 35 44  2  0  0  0
 35 45  1  0  0  0
 35 68  1  0  0  0
 36 56  1  0  0  0
 36108  1  0  0  0
 37 39  1  0  0  0
 37 47  1  0  0  0
 37 66  1  0  0  0
 37109  1  0  0  0
 38 43  2  0  0  0
 38 46  1  0  0  0
 38 47  1  0  0  0
 39 64  1  0  0  0
 39 67  2  0  0  0
 40 52  1  0  0  0
 40 53  2  0  0  0
 40 58  1  0  0  0
 41110  1  0  0  0
 41111  1  0  0  0
 41112  1  0  0  0
 41 48  1  0  0  0
 42 43  1  0  0  0
 42 66  1  0  0  0
 42113  1  0  0  0
 42114  1  0  0  0
 43 44  1  0  0  0
 44115  1  0  0  0
 45 46  2  0  0  0
 45116  1  0  0  0
 46117  1  0  0  0
 47118  1  0  0  0
 47119  1  0  0  0
 48 56  1  0  0  0
 48 65  1  0  0  0
 48120  1  0  0  0
 49 50  1  0  0  0
 49 53  1  0  0  0
 49 64  1  0  0  0
 49121  1  0  0  0
 50 51  1  0  0  0
 50122  1  0  0  0
 50123  1  0  0  0
 51 52  1  0  0  0
 51124  1  0  0  0
 51125  1  0  0  0
 52126  1  0  0  0
 52127  1  0  0  0
 53 54  1  0  0  0
 54 55  2  0  0  0
 54128  1  0  0  0
 55 57  1  0  0  0
 55129  1  0  0  0
 56 69  2  0  0  0
 57 58  2  0  0  0
 57130  1  0  0  0
 58131  1  0  0  0
 59 60  1  0  0  0
 59 61  1  0  0  0
 59 62  1  0  0  0
 60132  1  0  0  0
 60133  1  0  0  0
 60134  1  0  0  0
 61135  1  0  0  0
 61136  1  0  0  0
 61137  1  0  0  0
 62138  1  0  0  0
 62139  1  0  0  0
 62140  1  0  0  0
 63 65  1  0  0  0
 63141  1  0  0  0
 63142  1  0  0  0
 63143  1  0  0  0
 64144  1  0  0  0
 65145  1  0  0  0
 68 80  1  0  0  0
 71 72  1  0  0  0
 71 74  2  0  0  0
 71146  1  0  0  0
 72 73  2  0  0  0
 72 75  1  0  0  0
 73 76  1  0  0  0
 73 86  1  0  0  0
 74 81  1  0  0  0
 74 86  1  0  0  0
 75 82  1  0  0  0
 75 83  2  0  0  0
 76 78  1  0  0  0
 76 84  2  0  0  0
 77 79  1  0  0  0
 77 80  1  0  0  0
 77 85  2  0  0  0
 78147  1  0  0  0
 78148  1  0  0  0
 78149  1  0  0  0
 79 81  1  0  0  0
 79150  1  0  0  0
 79151  1  0  0  0
 80152  1  0  0  0
 80153  1  0  0  0
 81154  1  0  0  0
 82155  1  0  0  0
M  ISO  4   1 100  68 101  80 101  82 100
M  END
> <chiral flag>
0

> <version>
0

> <s_m_source_file>
/data/baiqing/PycharmProjects/Reinvent-master-3.2/result/LINK_invent/BTK/process_docking_weight1_custom_product_contain_oxygen_bond_distance_aromatic_linkinvent_7_9_3/rearranged_h_0162.sdf

> <i_m_source_file_index>
9

> <r_mmod_Potential_Energy-OPLS-2005>
-85.407844543457

> <r_mmod_Stretch_Energy-OPLS-2005>
65.2574005126953

> <r_mmod_Bend_Energy-OPLS-2005>
229.945877075195

> <r_mmod_Torsional_Energy-OPLS-2005>
254.992340087891

> <r_mmod_Improper_Torsional_Energy-OPLS-2005>
13.6571226119995

> <r_mmod_Van_der_Waal_Energy-OPLS-2005>
122.523460388184

> <r_mmod_Electrostatic_Energy-OPLS-2005>
-568.44873046875

> <r_mmod_Solvation_Energy-OPLS-2005>
-252.963439941406

> <b_mmod_Minimization_Converged-OPLS-2005>
0

> <r_mmod_RMS_Derivative-OPLS-2005>
5.71425437927246

$$$$
9
                    3D
 Structure written by MMmdl.
157165  0  0  1  0            999 V2000
  -30.6698  -14.5219   20.5514 C   0  0  0  0  0  0
  -30.4336  -12.3306   19.4283 C   0  0  0  0  0  0
  -29.5033  -12.5160   18.2083 C   0  0  0  0  0  0
  -28.0199  -12.3735   18.6119 C   0  0  0  0  0  0
  -27.6617  -13.2056   19.8742 C   0  0  2  0  0  0
  -28.7069  -12.9710   20.9890 C   0  0  0  0  0  0
  -25.2586  -13.8160   20.5655 C   0  0  0  0  0  0
  -24.1834  -13.0437   20.9164 C   0  0  0  0  0  0
  -24.6392  -11.6911   20.8725 C   0  0  0  0  0  0
  -23.9052  -10.4302   21.0398 C   0  0  0  0  0  0
  -24.3612   -9.4227   21.9175 C   0  0  0  0  0  0
  -23.6296   -8.2255   22.0756 C   0  0  0  0  0  0
  -22.4281   -8.0278   21.3545 C   0  0  0  0  0  0
  -21.9905   -9.0248   20.4653 C   0  0  0  0  0  0
  -22.7228  -10.2133   20.3051 C   0  0  0  0  0  0
  -21.6867   -6.0740   22.5285 C   0  0  0  0  0  0
  -21.4029   -6.5639   23.8217 C   0  0  0  0  0  0
  -21.3658   -5.6789   24.9176 C   0  0  0  0  0  0
  -21.6041   -4.3049   24.7228 C   0  0  0  0  0  0
  -21.8824   -3.8143   23.4349 C   0  0  0  0  0  0
  -21.9207   -4.6967   22.3407 C   0  0  0  0  0  0
  -22.7861  -13.5237   21.1816 C   0  0  0  0  0  0
  -22.1669   -4.2148   21.0986 F   0  0  0  0  0  0
  -21.5622   -3.4537   25.7744 F   0  0  0  0  0  0
  -30.0303  -13.3169   20.4440 N   0  0  0  0  0  0
  -26.3026  -12.9322   20.3361 N   0  0  0  0  0  0
  -25.9322  -11.6480   20.5763 N   0  0  0  0  0  0
  -22.0491  -12.8244   22.0375 N   0  0  0  0  0  0
  -25.4291  -15.1873   20.4042 N   0  0  0  0  0  0
  -31.8190  -14.6765   20.1255 O   0  0  0  0  0  0
  -21.6652   -6.8878   21.4241 O   0  0  0  0  0  0
  -22.3549  -14.5544   20.6684 O   0  0  0  0  0  0
  -24.6191  -31.8660   23.2094 C   0  0  0  0  0  0
  -25.9072  -32.4808   23.8403 C   0  0  1  0  0  0
  -27.2272  -27.4037   20.0938 C   0  0  0  0  0  0
  -25.5914  -33.8605   24.2335 N   0  0  0  0  0  0
  -23.4080  -30.4936   21.5494 C   0  0  2  0  0  0
  -24.8536  -28.9626   20.1102 C   0  0  0  0  0  0
  -22.7432  -29.4669   22.4953 C   0  0  0  0  0  0
  -18.0281  -28.1377   22.8498 C   0  0  0  0  0  0
  -24.1483  -36.7321   23.2635 C   0  0  0  0  0  0
  -25.9412  -30.8259   21.3648 C   0  0  0  0  0  0
  -26.0176  -29.4584   20.7105 C   0  0  0  0  0  0
  -27.2080  -28.6877   20.6975 C   0  0  0  0  0  0
  -26.0414  -26.9427   19.4735 C   0  0  0  0  0  0
  -24.8633  -27.7076   19.4842 C   0  0  0  0  0  0
  -23.6181  -29.8329   20.1616 C   0  0  0  0  0  0
  -25.4095  -36.3100   24.0343 C   0  0  1  0  0  0
  -20.5874  -28.3684   23.1297 C   0  0  2  0  0  0
  -20.6770  -26.9415   22.5406 C   0  0  0  0  0  0
  -19.5740  -26.6398   21.5210 C   0  0  0  0  0  0
  -18.1922  -26.7926   22.1629 C   0  0  0  0  0  0
  -19.1526  -28.8848   23.2901 C   0  0  0  0  0  0
  -18.9448  -30.1447   23.8919 C   0  0  0  0  0  0
  -17.6448  -30.6581   24.0572 C   0  0  0  0  0  0
  -25.9032  -34.9467   23.5135 C   0  0  0  0  0  0
  -16.5345  -29.9086   23.6316 C   0  0  0  0  0  0
  -16.7268  -28.6501   23.0347 C   0  0  0  0  0  0
  -26.4495  -31.6576   25.0725 C   0  0  0  0  0  0
  -25.3783  -31.3654   26.1484 C   0  0  0  0  0  0
  -27.0315  -30.3018   24.6084 C   0  0  0  0  0  0
  -27.6075  -32.4286   25.7481 C   0  0  0  0  0  0
  -27.5577  -37.1799   24.8455 C   0  0  0  0  0  0
  -21.4156  -29.3055   22.3697 N   0  0  0  0  0  0
  -26.4273  -37.3791   23.9425 N   0  0  0  0  0  0
  -24.6749  -31.0758   22.0997 N   0  0  0  0  0  0
  -23.4188  -28.8188   23.2991 O   0  0  0  0  0  0
  -28.3746  -26.6230   20.1199 O   0  0  0  0  0  0
  -26.5586  -34.8922   22.4690 O   0  0  0  0  0  0
  -23.5379  -32.1414   23.7483 O   0  0  0  0  0  0
  -28.0281  -20.4735   22.1736 C   0  0  0  0  0  0
  -27.7323  -19.2473   22.7933 C   0  0  0  0  0  0
  -29.8325  -19.4022   20.9607 C   0  0  0  0  0  0
  -29.5356  -18.1389   21.5513 C   0  0  0  0  0  0
  -29.1055  -20.5901   21.2597 C   0  0  0  0  0  0
  -28.4767  -18.0898   22.5009 C   0  0  0  0  0  0
  -30.3033  -16.9295   21.1038 C   0  0  0  0  0  0
  -29.8464  -15.6499   21.0222 C   0  0  0  0  0  0
  -29.1146  -22.9604   21.0756 C   0  0  0  0  0  0
  -30.3530  -24.2824   19.2366 C   0  0  0  0  0  0
  -28.1637  -25.1890   20.1933 C   0  0  0  0  0  0
  -29.4432  -24.3514   20.4787 C   0  0  1  0  0  0
  -29.4566  -21.8074   20.6125 N   0  0  0  0  0  0
  -28.1494  -16.9302   23.2036 N   0  0  0  0  0  0
  -31.4782  -12.4373   19.1306 H   0  0  0  0  0  0
  -30.3432  -11.3207   19.8309 H   0  0  0  0  0  0
  -29.7509  -11.7919   17.4311 H   0  0  0  0  0  0
  -29.6707  -13.5026   17.7697 H   0  0  0  0  0  0
  -27.8231  -11.3164   18.7963 H   0  0  0  0  0  0
  -27.3774  -12.6597   17.7784 H   0  0  0  0  0  0
  -27.7043  -14.2550   19.5824 H   0  0  0  0  0  0
  -28.6979  -11.9218   21.2854 H   0  0  0  0  0  0
  -28.4657  -13.5150   21.9024 H   0  0  0  0  0  0
  -25.2762   -9.5723   22.4734 H   0  0  0  0  0  0
  -24.0025   -7.4662   22.7478 H   0  0  0  0  0  0
  -21.0838   -8.8758   19.8963 H   0  0  0  0  0  0
  -22.3672  -10.9664   19.6147 H   0  0  0  0  0  0
  -21.2018   -7.6147   23.9719 H   0  0  0  0  0  0
  -21.1473   -6.0523   25.9081 H   0  0  0  0  0  0
  -22.0605   -2.7607   23.2858 H   0  0  0  0  0  0
  -22.4104  -11.9908   22.4770 H   0  0  0  0  0  0
  -21.1101  -13.1277   22.2555 H   0  0  0  0  0  0
  -24.6725  -15.8489   20.5389 H   0  0  0  0  0  0
  -26.3024  -15.6323   20.1491 H   0  0  0  0  0  0
  -26.7146  -32.5517   23.1169 H   0  0  0  0  0  0
  -25.0073  -33.9759   25.0488 H   0  0  0  0  0  0
  -22.7001  -31.3127   21.4095 H   0  0  0  0  0  0
  -23.3737  -35.9657   23.3266 H   0  0  0  0  0  0
  -24.3593  -36.8969   22.2057 H   0  0  0  0  0  0
  -23.7242  -37.6522   23.6666 H   0  0  0  0  0  0
  -26.0518  -31.5903   20.5944 H   0  0  0  0  0  0
  -26.8300  -30.8838   21.9808 H   0  0  0  0  0  0
  -28.1037  -29.0647   21.1713 H   0  0  0  0  0  0
  -25.9993  -25.9934   18.9637 H   0  0  0  0  0  0
  -23.9730  -27.3276   19.0019 H   0  0  0  0  0  0
  -23.7312  -30.6101   19.4044 H   0  0  0  0  0  0
  -22.7419  -29.2563   19.8603 H   0  0  0  0  0  0
  -25.1261  -36.1959   25.0834 H   0  0  0  0  0  0
  -20.9981  -28.3259   24.1411 H   0  0  0  0  0  0
  -20.5678  -26.2301   23.3601 H   0  0  0  0  0  0
  -21.6639  -26.7456   22.1189 H   0  0  0  0  0  0
  -19.6902  -25.6317   21.1221 H   0  0  0  0  0  0
  -19.6660  -27.3230   20.6752 H   0  0  0  0  0  0
  -17.4190  -26.6684   21.4032 H   0  0  0  0  0  0
  -18.0321  -26.0059   22.9016 H   0  0  0  0  0  0
  -19.7923  -30.7261   24.2303 H   0  0  0  0  0  0
  -17.4999  -31.6256   24.5177 H   0  0  0  0  0  0
  -15.5346  -30.2994   23.7614 H   0  0  0  0  0  0
  -15.8672  -28.0823   22.7047 H   0  0  0  0  0  0
  -24.5961  -30.6991   25.7826 H   0  0  0  0  0  0
  -24.8974  -32.2795   26.4976 H   0  0  0  0  0  0
  -25.8175  -30.8800   27.0212 H   0  0  0  0  0  0
  -26.2840  -29.6769   24.1183 H   0  0  0  0  0  0
  -27.4137  -29.7254   25.4521 H   0  0  0  0  0  0
  -27.8657  -30.4324   23.9186 H   0  0  0  0  0  0
  -27.2700  -33.3576   26.2083 H   0  0  0  0  0  0
  -28.3872  -32.6858   25.0299 H   0  0  0  0  0  0
  -28.0757  -31.8394   26.5377 H   0  0  0  0  0  0
  -28.2558  -38.0132   24.7547 H   0  0  0  0  0  0
  -28.1106  -36.2667   24.6203 H   0  0  0  0  0  0
  -27.2309  -37.1366   25.8860 H   0  0  0  0  0  0
  -20.9314  -29.8815   21.6950 H   0  0  0  0  0  0
  -26.0155  -38.2859   24.1456 H   0  0  0  0  0  0
  -27.3952  -21.3104   22.4234 H   0  0  0  0  0  0
  -26.9152  -19.2071   23.5018 H   0  0  0  0  0  0
  -30.6367  -19.4561   20.2419 H   0  0  0  0  0  0
  -31.3316  -17.1204   20.8286 H   0  0  0  0  0  0
  -28.8168  -15.4875   21.2821 H   0  0  0  0  0  0
  -28.5550  -23.0574   22.0093 H   0  0  0  0  0  0
  -31.2771  -23.7444   19.4482 H   0  0  0  0  0  0
  -30.6276  -25.2842   18.9054 H   0  0  0  0  0  0
  -29.8585  -23.7857   18.4005 H   0  0  0  0  0  0
  -27.4311  -25.0020   20.9814 H   0  0  0  0  0  0
  -27.7297  -24.8170   19.2654 H   0  0  0  0  0  0
  -29.9962  -24.8775   21.2573 H   0  0  0  0  0  0
  -27.6689  -17.0294   24.0913 H   0  0  0  0  0  0
  -28.8406  -16.1900   23.2198 H   0  0  0  0  0  0
  1 25  1  0  0  0
  1 30  2  0  0  0
  1 78  1  0  0  0
  2  3  1  0  0  0
  2 25  1  0  0  0
  2 85  1  0  0  0
  2 86  1  0  0  0
  3  4  1  0  0  0
  3 87  1  0  0  0
  3 88  1  0  0  0
  4  5  1  0  0  0
  4 89  1  0  0  0
  4 90  1  0  0  0
  5  6  1  0  0  0
  5 26  1  0  0  0
  5 91  1  0  0  0
  6 25  1  0  0  0
  6 92  1  0  0  0
  6 93  1  0  0  0
  7  8  2  0  0  0
  7 26  1  0  0  0
  7 29  1  0  0  0
  8  9  1  0  0  0
  8 22  1  0  0  0
  9 10  1  0  0  0
  9 27  2  0  0  0
 10 11  2  0  0  0
 10 15  1  0  0  0
 11 12  1  0  0  0
 11 94  1  0  0  0
 12 13  2  0  0  0
 12 95  1  0  0  0
 13 14  1  0  0  0
 13 31  1  0  0  0
 14 15  2  0  0  0
 14 96  1  0  0  0
 15 97  1  0  0  0
 16 17  2  0  0  0
 16 21  1  0  0  0
 16 31  1  0  0  0
 17 18  1  0  0  0
 17 98  1  0  0  0
 18 19  2  0  0  0
 18 99  1  0  0  0
 19 20  1  0  0  0
 19 24  1  0  0  0
 20 21  2  0  0  0
 20100  1  0  0  0
 21 23  1  0  0  0
 22 28  1  0  0  0
 22 32  2  0  0  0
 26 27  1  0  0  0
 28101  1  0  0  0
 28102  1  0  0  0
 29103  1  0  0  0
 29104  1  0  0  0
 33 34  1  0  0  0
 33 66  1  0  0  0
 33 70  2  0  0  0
 34 36  1  0  0  0
 34 59  1  0  0  0
 34105  1  0  0  0
 35 44  2  0  0  0
 35 45  1  0  0  0
 35 68  1  0  0  0
 36 56  1  0  0  0
 36106  1  0  0  0
 37 39  1  0  0  0
 37 47  1  0  0  0
 37 66  1  0  0  0
 37107  1  0  0  0
 38 43  2  0  0  0
 38 46  1  0  0  0
 38 47  1  0  0  0
 39 64  1  0  0  0
 39 67  2  0  0  0
 40 52  1  0  0  0
 40 53  2  0  0  0
 40 58  1  0  0  0
 41108  1  0  0  0
 41109  1  0  0  0
 41110  1  0  0  0
 41 48  1  0  0  0
 42 43  1  0  0  0
 42 66  1  0  0  0
 42111  1  0  0  0
 42112  1  0  0  0
 43 44  1  0  0  0
 44113  1  0  0  0
 45 46  2  0  0  0
 45114  1  0  0  0
 46115  1  0  0  0
 47116  1  0  0  0
 47117  1  0  0  0
 48 56  1  0  0  0
 48 65  1  0  0  0
 48118  1  0  0  0
 49 50  1  0  0  0
 49 53  1  0  0  0
 49 64  1  0  0  0
 49119  1  0  0  0
 50 51  1  0  0  0
 50120  1  0  0  0
 50121  1  0  0  0
 51 52  1  0  0  0
 51122  1  0  0  0
 51123  1  0  0  0
 52124  1  0  0  0
 52125  1  0  0  0
 53 54  1  0  0  0
 54 55  2  0  0  0
 54126  1  0  0  0
 55 57  1  0  0  0
 55127  1  0  0  0
 56 69  2  0  0  0
 57 58  2  0  0  0
 57128  1  0  0  0
 58129  1  0  0  0
 59 60  1  0  0  0
 59 61  1  0  0  0
 59 62  1  0  0  0
 60130  1  0  0  0
 60131  1  0  0  0
 60132  1  0  0  0
 61133  1  0  0  0
 61134  1  0  0  0
 61135  1  0  0  0
 62136  1  0  0  0
 62137  1  0  0  0
 62138  1  0  0  0
 63 65  1  0  0  0
 63139  1  0  0  0
 63140  1  0  0  0
 63141  1  0  0  0
 64142  1  0  0  0
 65143  1  0  0  0
 68 81  1  0  0  0
 71 72  2  0  0  0
 71 75  1  0  0  0
 71144  1  0  0  0
 72 76  1  0  0  0
 72145  1  0  0  0
 73 74  1  0  0  0
 73 75  2  0  0  0
 73146  1  0  0  0
 74 76  2  0  0  0
 74 77  1  0  0  0
 75 83  1  0  0  0
 76 84  1  0  0  0
 77 78  2  0  0  0
 77147  1  0  0  0
 78148  1  0  0  0
 79 82  1  0  0  0
 79 83  2  0  0  0
 79149  1  0  0  0
 80150  1  0  0  0
 80151  1  0  0  0
 80152  1  0  0  0
 80 82  1  0  0  0
 81 82  1  0  0  0
 81153  1  0  0  0
 81154  1  0  0  0
 82155  1  0  0  0
 84156  1  0  0  0
 84157  1  0  0  0
M  ISO  4   1 100  68 101  78 100  81 101
M  END
> <chiral flag>
0

> <version>
0

> <s_m_source_file>
/data/baiqing/PycharmProjects/Reinvent-master-3.2/result/LINK_invent/BTK/process_docking_weight1_custom_product_contain_oxygen_bond_distance_aromatic_linkinvent_7_9_3/rearranged_h_0162.sdf

> <i_m_source_file_index>
10

> <r_mmod_Potential_Energy-OPLS-2005>
-37.6434326171875

> <r_mmod_Stretch_Energy-OPLS-2005>
50.655101776123

> <r_mmod_Bend_Energy-OPLS-2005>
110.284080505371

> <r_mmod_Torsional_Energy-OPLS-2005>
193.721801757812

> <r_mmod_Improper_Torsional_Energy-OPLS-2005>
7.84545040130615

> <r_mmod_Van_der_Waal_Energy-OPLS-2005>
172.453750610352

> <r_mmod_Electrostatic_Energy-OPLS-2005>
-390.308685302734

> <r_mmod_Solvation_Energy-OPLS-2005>
-201.321212768555

> <b_mmod_Minimization_Converged-OPLS-2005>
0

> <r_mmod_RMS_Derivative-OPLS-2005>
2.17974305152893

$$$$
10
                    3D
 Structure written by MMmdl.
158166  0  0  1  0            999 V2000
  -30.6392  -14.7565   20.4420 C   0  0  0  0  0  0
  -30.4283  -12.4620   19.4845 C   0  0  0  0  0  0
  -29.5147  -12.5143   18.2410 C   0  0  0  0  0  0
  -28.0402  -12.3395   18.6499 C   0  0  0  0  0  0
  -27.6405  -13.2420   19.8488 C   0  0  2  0  0  0
  -28.6857  -13.2001   20.9863 C   0  0  0  0  0  0
  -25.2495  -13.8215   20.5713 C   0  0  0  0  0  0
  -24.1807  -13.0437   20.9222 C   0  0  0  0  0  0
  -24.6422  -11.6927   20.8751 C   0  0  0  0  0  0
  -23.9107  -10.4293   21.0398 C   0  0  0  0  0  0
  -24.3649   -9.4210   21.9175 C   0  0  0  0  0  0
  -23.6315   -8.2251   22.0751 C   0  0  0  0  0  0
  -22.4294   -8.0289   21.3547 C   0  0  0  0  0  0
  -21.9938   -9.0263   20.4646 C   0  0  0  0  0  0
  -22.7277  -10.2136   20.3053 C   0  0  0  0  0  0
  -21.6861   -6.0751   22.5288 C   0  0  0  0  0  0
  -21.4013   -6.5650   23.8223 C   0  0  0  0  0  0
  -21.3656   -5.6797   24.9180 C   0  0  0  0  0  0
  -21.6043   -4.3064   24.7228 C   0  0  0  0  0  0
  -21.8815   -3.8164   23.4349 C   0  0  0  0  0  0
  -21.9194   -4.6979   22.3408 C   0  0  0  0  0  0
  -22.7826  -13.5209   21.1883 C   0  0  0  0  0  0
  -22.1658   -4.2176   21.0983 F   0  0  0  0  0  0
  -21.5634   -3.4542   25.7736 F   0  0  0  0  0  0
  -29.9875  -13.5405   20.4019 N   0  0  0  0  0  0
  -26.2941  -12.9452   20.3287 N   0  0  0  0  0  0
  -25.9356  -11.6582   20.5759 N   0  0  0  0  0  0
  -22.0469  -12.8188   22.0430 N   0  0  0  0  0  0
  -25.4131  -15.1957   20.4136 N   0  0  0  0  0  0
  -31.8415  -14.7805   20.1626 O   0  0  0  0  0  0
  -21.6648   -6.8895   21.4250 O   0  0  0  0  0  0
  -22.3500  -14.5508   20.6733 O   0  0  0  0  0  0
  -24.6342  -31.8554   23.1987 C   0  0  0  0  0  0
  -25.9164  -32.4752   23.8337 C   0  0  1  0  0  0
  -27.2110  -27.2441   20.1332 C   0  0  0  0  0  0
  -25.5956  -33.8557   24.2264 N   0  0  0  0  0  0
  -23.4299  -30.4802   21.5433 C   0  0  2  0  0  0
  -24.8755  -28.9297   20.1086 C   0  0  0  0  0  0
  -22.7517  -29.4606   22.4909 C   0  0  0  0  0  0
  -18.0293  -28.1380   22.8491 C   0  0  0  0  0  0
  -24.1494  -36.7289   23.2637 C   0  0  0  0  0  0
  -25.9778  -30.7640   21.3804 C   0  0  0  0  0  0
  -26.0489  -29.3849   20.7233 C   0  0  0  0  0  0
  -27.2185  -28.5543   20.7278 C   0  0  0  0  0  0
  -26.0161  -26.8737   19.4711 C   0  0  0  0  0  0
  -24.8655  -27.6824   19.4705 C   0  0  0  0  0  0
  -23.6486  -29.8203   20.1578 C   0  0  0  0  0  0
  -25.4117  -36.3072   24.0326 C   0  0  1  0  0  0
  -20.5900  -28.3697   23.1270 C   0  0  2  0  0  0
  -20.6775  -26.9413   22.5408 C   0  0  0  0  0  0
  -19.5747  -26.6378   21.5216 C   0  0  0  0  0  0
  -18.1928  -26.7922   22.1629 C   0  0  0  0  0  0
  -19.1549  -28.8853   23.2874 C   0  0  0  0  0  0
  -18.9471  -30.1450   23.8896 C   0  0  0  0  0  0
  -17.6471  -30.6583   24.0562 C   0  0  0  0  0  0
  -25.9066  -34.9444   23.5095 C   0  0  0  0  0  0
  -16.5363  -29.9083   23.6328 C   0  0  0  0  0  0
  -16.7279  -28.6498   23.0358 C   0  0  0  0  0  0
  -26.4518  -31.6566   25.0722 C   0  0  0  0  0  0
  -25.3739  -31.3729   26.1444 C   0  0  0  0  0  0
  -27.0339  -30.2971   24.6198 C   0  0  0  0  0  0
  -27.6072  -32.4290   25.7512 C   0  0  0  0  0  0
  -27.5581  -37.1802   24.8458 C   0  0  0  0  0  0
  -21.4220  -29.3055   22.3667 N   0  0  0  0  0  0
  -26.4282  -37.3776   23.9418 N   0  0  0  0  0  0
  -24.6999  -31.0513   22.0974 N   0  0  0  0  0  0
  -23.4220  -28.8130   23.2996 O   0  0  0  0  0  0
  -28.2803  -26.3134   20.2176 O   0  0  0  0  0  0
  -26.5636  -34.8917   22.4666 O   0  0  0  0  0  0
  -23.5488  -32.1391   23.7274 O   0  0  0  0  0  0
  -31.1168  -17.4861   19.1064 C   0  0  0  0  0  0
  -30.8836  -19.9217   19.1242 C   0  0  0  0  0  0
  -31.4685  -18.7467   18.6105 C   0  0  0  0  0  0
  -30.1985  -17.3355   20.1627 C   0  0  0  0  0  0
  -29.8997  -19.7938   20.1437 C   0  0  0  0  0  0
  -31.4349  -21.2093   18.6204 C   0  0  0  0  0  0
  -28.9064  -23.6770   20.4814 C   0  0  0  0  0  0
  -31.1100  -22.9081   16.7249 C   0  0  0  0  0  0
  -31.3376  -21.4372   17.1087 C   0  0  0  0  0  0
  -28.6963  -22.1646   19.9666 C   0  0  0  0  0  0
  -27.9722  -24.8601   19.9256 C   0  0  0  0  0  0
  -29.5968  -18.5146   20.6346 N   0  0  0  0  0  0
  -29.9109  -15.9370   20.6154 N   0  0  0  0  0  0
  -29.2475  -20.9552   20.7212 N   0  0  0  0  0  0
  -31.9331  -22.0763   19.3448 O   0  0  0  0  0  0
  -29.7793  -23.9186   21.3205 O   0  0  0  0  0  0
  -32.4106  -18.8032   17.6359 F   0  0  0  0  0  0
  -31.4717  -12.5712   19.1823 H   0  0  0  0  0  0
  -30.3636  -11.4910   19.9780 H   0  0  0  0  0  0
  -29.8012  -11.7410   17.5278 H   0  0  0  0  0  0
  -29.6460  -13.4678   17.7268 H   0  0  0  0  0  0
  -27.8964  -11.2913   18.9111 H   0  0  0  0  0  0
  -27.3876  -12.5316   17.7979 H   0  0  0  0  0  0
  -27.6260  -14.2608   19.4602 H   0  0  0  0  0  0
  -28.7212  -12.2128   21.4500 H   0  0  0  0  0  0
  -28.4227  -13.9047   21.7771 H   0  0  0  0  0  0
  -25.2791   -9.5693   22.4759 H   0  0  0  0  0  0
  -24.0030   -7.4646   22.7464 H   0  0  0  0  0  0
  -21.0876   -8.8778   19.8950 H   0  0  0  0  0  0
  -22.3725  -10.9678   19.6167 H   0  0  0  0  0  0
  -21.1990   -7.6157   23.9740 H   0  0  0  0  0  0
  -21.1480   -6.0525   25.9090 H   0  0  0  0  0  0
  -22.0595   -2.7632   23.2844 H   0  0  0  0  0  0
  -22.4078  -11.9846   22.4823 H   0  0  0  0  0  0
  -21.1082  -13.1215   22.2625 H   0  0  0  0  0  0
  -24.6376  -15.8410   20.5232 H   0  0  0  0  0  0
  -26.2540  -15.6464   20.0773 H   0  0  0  0  0  0
  -26.7230  -32.5399   23.1073 H   0  0  0  0  0  0
  -25.0088  -33.9685   25.0398 H   0  0  0  0  0  0
  -22.7270  -31.3031   21.3998 H   0  0  0  0  0  0
  -23.3756  -35.9619   23.3279 H   0  0  0  0  0  0
  -24.3594  -36.8933   22.2056 H   0  0  0  0  0  0
  -23.7242  -37.6482   23.6674 H   0  0  0  0  0  0
  -26.1143  -31.5215   20.6076 H   0  0  0  0  0  0
  -26.8575  -30.8166   22.0100 H   0  0  0  0  0  0
  -28.1111  -28.8939   21.2346 H   0  0  0  0  0  0
  -25.9257  -25.9291   18.9578 H   0  0  0  0  0  0
  -23.9698  -27.3320   18.9762 H   0  0  0  0  0  0
  -23.7786  -30.6007   19.4073 H   0  0  0  0  0  0
  -22.7646  -29.2605   19.8464 H   0  0  0  0  0  0
  -25.1297  -36.1912   25.0815 H   0  0  0  0  0  0
  -20.9990  -28.3266   24.1393 H   0  0  0  0  0  0
  -20.5659  -26.2317   23.3622 H   0  0  0  0  0  0
  -21.6644  -26.7417   22.1215 H   0  0  0  0  0  0
  -19.6907  -25.6289   21.1246 H   0  0  0  0  0  0
  -19.6671  -27.3190   20.6747 H   0  0  0  0  0  0
  -17.4199  -26.6677   21.4029 H   0  0  0  0  0  0
  -18.0317  -26.0055   22.9014 H   0  0  0  0  0  0
  -19.7950  -30.7260   24.2271 H   0  0  0  0  0  0
  -17.5028  -31.6266   24.5159 H   0  0  0  0  0  0
  -15.5362  -30.2990   23.7639 H   0  0  0  0  0  0
  -15.8680  -28.0806   22.7085 H   0  0  0  0  0  0
  -24.5916  -30.7066   25.7789 H   0  0  0  0  0  0
  -24.8929  -32.2902   26.4849 H   0  0  0  0  0  0
  -25.8058  -30.8931   27.0232 H   0  0  0  0  0  0
  -26.2902  -29.6732   24.1220 H   0  0  0  0  0  0
  -27.4010  -29.7219   25.4706 H   0  0  0  0  0  0
  -27.8798  -30.4228   23.9433 H   0  0  0  0  0  0
  -27.2688  -33.3603   26.2062 H   0  0  0  0  0  0
  -28.3918  -32.6817   25.0368 H   0  0  0  0  0  0
  -28.0693  -31.8418   26.5453 H   0  0  0  0  0  0
  -28.2578  -38.0119   24.7534 H   0  0  0  0  0  0
  -28.1100  -36.2654   24.6245 H   0  0  0  0  0  0
  -27.2311  -37.1407   25.8863 H   0  0  0  0  0  0
  -20.9401  -29.8841   21.6928 H   0  0  0  0  0  0
  -26.0156  -38.2844   24.1439 H   0  0  0  0  0  0
  -31.6003  -16.6387   18.6471 H   0  0  0  0  0  0
  -30.9813  -23.0075   15.6468 H   0  0  0  0  0  0
  -31.9572  -23.5313   17.0158 H   0  0  0  0  0  0
  -30.2162  -23.3102   17.2019 H   0  0  0  0  0  0
  -30.5206  -20.8280   16.7227 H   0  0  0  0  0  0
  -32.2518  -21.0718   16.6404 H   0  0  0  0  0  0
  -29.0067  -22.1252   18.9246 H   0  0  0  0  0  0
  -27.6157  -22.0216   19.9252 H   0  0  0  0  0  0
  -26.9866  -24.6360   20.3350 H   0  0  0  0  0  0
  -27.8933  -24.7384   18.8456 H   0  0  0  0  0  0
  -28.9917  -15.8055   21.0068 H   0  0  0  0  0  0
  -28.7496  -20.7748   21.5865 H   0  0  0  0  0  0
  1 25  1  0  0  0
  1 30  2  0  0  0
  1 83  1  0  0  0
  2  3  1  0  0  0
  2 25  1  0  0  0
  2 88  1  0  0  0
  2 89  1  0  0  0
  3  4  1  0  0  0
  3 90  1  0  0  0
  3 91  1  0  0  0
  4  5  1  0  0  0
  4 92  1  0  0  0
  4 93  1  0  0  0
  5  6  1  0  0  0
  5 26  1  0  0  0
  5 94  1  0  0  0
  6 25  1  0  0  0
  6 95  1  0  0  0
  6 96  1  0  0  0
  7  8  2  0  0  0
  7 26  1  0  0  0
  7 29  1  0  0  0
  8  9  1  0  0  0
  8 22  1  0  0  0
  9 10  1  0  0  0
  9 27  2  0  0  0
 10 11  2  0  0  0
 10 15  1  0  0  0
 11 12  1  0  0  0
 11 97  1  0  0  0
 12 13  2  0  0  0
 12 98  1  0  0  0
 13 14  1  0  0  0
 13 31  1  0  0  0
 14 15  2  0  0  0
 14 99  1  0  0  0
 15100  1  0  0  0
 16 17  2  0  0  0
 16 21  1  0  0  0
 16 31  1  0  0  0
 17 18  1  0  0  0
 17101  1  0  0  0
 18 19  2  0  0  0
 18102  1  0  0  0
 19 20  1  0  0  0
 19 24  1  0  0  0
 20 21  2  0  0  0
 20103  1  0  0  0
 21 23  1  0  0  0
 22 28  1  0  0  0
 22 32  2  0  0  0
 26 27  1  0  0  0
 28104  1  0  0  0
 28105  1  0  0  0
 29106  1  0  0  0
 29107  1  0  0  0
 33 34  1  0  0  0
 33 66  1  0  0  0
 33 70  2  0  0  0
 34 36  1  0  0  0
 34 59  1  0  0  0
 34108  1  0  0  0
 35 44  2  0  0  0
 35 45  1  0  0  0
 35 68  1  0  0  0
 36 56  1  0  0  0
 36109  1  0  0  0
 37 39  1  0  0  0
 37 47  1  0  0  0
 37 66  1  0  0  0
 37110  1  0  0  0
 38 43  2  0  0  0
 38 46  1  0  0  0
 38 47  1  0  0  0
 39 64  1  0  0  0
 39 67  2  0  0  0
 40 52  1  0  0  0
 40 53  2  0  0  0
 40 58  1  0  0  0
 41111  1  0  0  0
 41112  1  0  0  0
 41113  1  0  0  0
 41 48  1  0  0  0
 42 43  1  0  0  0
 42 66  1  0  0  0
 42114  1  0  0  0
 42115  1  0  0  0
 43 44  1  0  0  0
 44116  1  0  0  0
 45 46  2  0  0  0
 45117  1  0  0  0
 46118  1  0  0  0
 47119  1  0  0  0
 47120  1  0  0  0
 48 56  1  0  0  0
 48 65  1  0  0  0
 48121  1  0  0  0
 49 50  1  0  0  0
 49 53  1  0  0  0
 49 64  1  0  0  0
 49122  1  0  0  0
 50 51  1  0  0  0
 50123  1  0  0  0
 50124  1  0  0  0
 51 52  1  0  0  0
 51125  1  0  0  0
 51126  1  0  0  0
 52127  1  0  0  0
 52128  1  0  0  0
 53 54  1  0  0  0
 54 55  2  0  0  0
 54129  1  0  0  0
 55 57  1  0  0  0
 55130  1  0  0  0
 56 69  2  0  0  0
 57 58  2  0  0  0
 57131  1  0  0  0
 58132  1  0  0  0
 59 60  1  0  0  0
 59 61  1  0  0  0
 59 62  1  0  0  0
 60133  1  0  0  0
 60134  1  0  0  0
 60135  1  0  0  0
 61136  1  0  0  0
 61137  1  0  0  0
 61138  1  0  0  0
 62139  1  0  0  0
 62140  1  0  0  0
 62141  1  0  0  0
 63 65  1  0  0  0
 63142  1  0  0  0
 63143  1  0  0  0
 63144  1  0  0  0
 64145  1  0  0  0
 65146  1  0  0  0
 68 81  1  0  0  0
 71 73  2  0  0  0
 71 74  1  0  0  0
 71147  1  0  0  0
 72 73  1  0  0  0
 72 75  2  0  0  0
 72 76  1  0  0  0
 73 87  1  0  0  0
 74 82  2  0  0  0
 74 83  1  0  0  0
 75 82  1  0  0  0
 75 84  1  0  0  0
 76 79  1  0  0  0
 76 85  2  0  0  0
 77 80  1  0  0  0
 77 81  1  0  0  0
 77 86  2  0  0  0
 78 79  1  0  0  0
 78148  1  0  0  0
 78149  1  0  0  0
 78150  1  0  0  0
 79151  1  0  0  0
 79152  1  0  0  0
 80 84  1  0  0  0
 80153  1  0  0  0
 80154  1  0  0  0
 81155  1  0  0  0
 81156  1  0  0  0
 83157  1  0  0  0
 84158  1  0  0  0
M  ISO  4   1 100  68 101  81 101  83 100
M  END
> <chiral flag>
0

> <version>
0

> <s_m_source_file>
/data/baiqing/PycharmProjects/Reinvent-master-3.2/result/LINK_invent/BTK/process_docking_weight1_custom_product_contain_oxygen_bond_distance_aromatic_linkinvent_7_9_3/rearranged_h_0162.sdf

> <i_m_source_file_index>
11

> <r_mmod_Potential_Energy-OPLS-2005>
66.2100830078125

> <r_mmod_Stretch_Energy-OPLS-2005>
137.825668334961

> <r_mmod_Bend_Energy-OPLS-2005>
180.503509521484

> <r_mmod_Torsional_Energy-OPLS-2005>
265.436492919922

> <r_mmod_Improper_Torsional_Energy-OPLS-2005>
6.55630588531494

> <r_mmod_Van_der_Waal_Energy-OPLS-2005>
151.996368408203

> <r_mmod_Electrostatic_Energy-OPLS-2005>
-500.584442138672

> <r_mmod_Solvation_Energy-OPLS-2005>
-272.786743164062

> <b_mmod_Minimization_Converged-OPLS-2005>
0

> <r_mmod_RMS_Derivative-OPLS-2005>
1.58222246170044

$$$$
11
                    3D
 Structure written by MMmdl.
167175  0  0  1  0            999 V2000
  -30.7109  -14.4191   20.5499 C   0  0  0  0  0  0
  -30.4110  -12.2643   19.4219 C   0  0  0  0  0  0
  -29.4850  -12.4864   18.2088 C   0  0  0  0  0  0
  -28.0053  -12.3632   18.6197 C   0  0  0  0  0  0
  -27.6613  -13.1970   19.8837 C   0  0  2  0  0  0
  -28.7030  -12.9646   21.0031 C   0  0  0  0  0  0
  -25.2589  -13.8143   20.5675 C   0  0  0  0  0  0
  -24.1841  -13.0417   20.9216 C   0  0  0  0  0  0
  -24.6392  -11.6900   20.8781 C   0  0  0  0  0  0
  -23.9060  -10.4292   21.0436 C   0  0  0  0  0  0
  -24.3617   -9.4212   21.9193 C   0  0  0  0  0  0
  -23.6302   -8.2243   22.0756 C   0  0  0  0  0  0
  -22.4288   -8.0282   21.3536 C   0  0  0  0  0  0
  -21.9933   -9.0270   20.4643 C   0  0  0  0  0  0
  -22.7254  -10.2151   20.3077 C   0  0  0  0  0  0
  -21.6856   -6.0749   22.5282 C   0  0  0  0  0  0
  -21.4010   -6.5652   23.8212 C   0  0  0  0  0  0
  -21.3667   -5.6806   24.9175 C   0  0  0  0  0  0
  -21.6054   -4.3067   24.7217 C   0  0  0  0  0  0
  -21.8821   -3.8164   23.4337 C   0  0  0  0  0  0
  -21.9197   -4.6984   22.3399 C   0  0  0  0  0  0
  -22.7867  -13.5237   21.1880 C   0  0  0  0  0  0
  -22.1665   -4.2172   21.0975 F   0  0  0  0  0  0
  -21.5638   -3.4541   25.7733 F   0  0  0  0  0  0
  -30.0365  -13.2467   20.4442 N   0  0  0  0  0  0
  -26.3020  -12.9287   20.3443 N   0  0  0  0  0  0
  -25.9312  -11.6460   20.5840 N   0  0  0  0  0  0
  -22.0537  -12.8176   22.0433 N   0  0  0  0  0  0
  -25.4256  -15.1836   20.3964 N   0  0  0  0  0  0
  -31.8479  -14.5722   20.0911 O   0  0  0  0  0  0
  -21.6648   -6.8884   21.4244 O   0  0  0  0  0  0
  -22.3536  -14.5558   20.6791 O   0  0  0  0  0  0
  -24.6088  -31.8744   23.2148 C   0  0  0  0  0  0
  -25.9000  -32.4849   23.8489 C   0  0  1  0  0  0
  -27.2186  -27.4672   20.0924 C   0  0  0  0  0  0
  -25.5911  -33.8670   24.2386 N   0  0  0  0  0  0
  -23.3953  -30.4939   21.5600 C   0  0  2  0  0  0
  -24.8364  -28.9732   20.1191 C   0  0  0  0  0  0
  -22.7436  -29.4635   22.5071 C   0  0  0  0  0  0
  -18.0291  -28.1429   22.8461 C   0  0  0  0  0  0
  -24.1505  -36.7319   23.2647 C   0  0  0  0  0  0
  -25.9215  -30.8505   21.3622 C   0  0  0  0  0  0
  -25.9951  -29.4887   20.7082 C   0  0  0  0  0  0
  -27.1904  -28.7402   20.6937 C   0  0  0  0  0  0
  -26.0434  -26.9597   19.4930 C   0  0  0  0  0  0
  -24.8518  -27.7052   19.5159 C   0  0  0  0  0  0
  -23.5958  -29.8320   20.1731 C   0  0  0  0  0  0
  -25.4110  -36.3100   24.0328 C   0  0  1  0  0  0
  -20.5873  -28.3683   23.1363 C   0  0  2  0  0  0
  -20.6784  -26.9434   22.5442 C   0  0  0  0  0  0
  -19.5784  -26.6397   21.5236 C   0  0  0  0  0  0
  -18.1949  -26.7968   22.1617 C   0  0  0  0  0  0
  -19.1532  -28.8889   23.2877 C   0  0  0  0  0  0
  -18.9451  -30.1490   23.8898 C   0  0  0  0  0  0
  -17.6457  -30.6611   24.0595 C   0  0  0  0  0  0
  -25.9045  -34.9482   23.5134 C   0  0  0  0  0  0
  -16.5350  -29.9105   23.6361 C   0  0  0  0  0  0
  -16.7288  -28.6545   23.0327 C   0  0  0  0  0  0
  -26.4464  -31.6623   25.0808 C   0  0  0  0  0  0
  -25.3722  -31.3661   26.1534 C   0  0  0  0  0  0
  -27.0304  -30.3087   24.6134 C   0  0  0  0  0  0
  -27.6090  -32.4357   25.7528 C   0  0  0  0  0  0
  -27.5565  -37.1769   24.8473 C   0  0  0  0  0  0
  -21.4178  -29.3029   22.3807 N   0  0  0  0  0  0
  -26.4293  -37.3752   23.9410 N   0  0  0  0  0  0
  -24.6601  -31.0865   22.1035 N   0  0  0  0  0  0
  -23.4236  -28.8134   23.3049 O   0  0  0  0  0  0
  -28.4067  -26.7777   20.1011 O   0  0  0  0  0  0
  -26.5592  -34.8904   22.4691 O   0  0  0  0  0  0
  -23.5290  -32.1549   23.7515 O   0  0  0  0  0  0
  -29.1094  -17.6359   20.7280 C   0  0  0  0  0  0
  -30.5960  -19.5335   20.5253 C   0  0  0  0  0  0
  -29.2838  -19.0204   20.5471 C   0  0  0  0  0  0
  -30.2398  -16.8115   20.8939 C   0  0  0  0  0  0
  -31.6665  -18.6583   20.7412 C   0  0  0  0  0  0
  -28.3546  -22.4095   21.0170 C   0  0  0  0  0  0
  -28.1699  -21.1239   21.3797 C   0  0  0  0  0  0
  -28.5585  -23.4956   21.9966 C   0  0  0  0  0  0
  -28.4588  -25.8776   22.8053 C   0  0  0  0  0  0
  -26.4197  -24.7698   21.8621 C   0  0  0  0  0  0
  -34.0388  -18.3850   21.3846 C   0  0  0  0  0  0
  -28.0870  -19.9488   20.4200 C   0  0  0  0  0  0
  -28.3745  -25.3638   20.2891 C   0  0  0  0  0  0
  -27.9504  -24.8940   21.7201 C   0  0  0  0  0  0
  -31.4877  -17.3385   20.9326 N   0  0  0  0  0  0
  -29.9791  -15.4319   21.0345 N   0  0  0  0  0  0
  -32.9715  -19.1554   20.7579 N   0  0  0  0  0  0
  -29.1879  -23.2949   23.0412 O   0  0  0  0  0  0
  -28.0505  -20.6970   22.6515 O   0  0  0  0  0  0
  -31.4561  -12.3500   19.1194 H   0  0  0  0  0  0
  -30.2993  -11.2546   19.8202 H   0  0  0  0  0  0
  -29.7165  -11.7682   17.4220 H   0  0  0  0  0  0
  -29.6607  -13.4735   17.7805 H   0  0  0  0  0  0
  -27.7976  -11.3069   18.7980 H   0  0  0  0  0  0
  -27.3610  -12.6595   17.7922 H   0  0  0  0  0  0
  -27.7110  -14.2471   19.5963 H   0  0  0  0  0  0
  -28.6657  -11.9321   21.3559 H   0  0  0  0  0  0
  -28.4755  -13.5711   21.8812 H   0  0  0  0  0  0
  -25.2766   -9.5675   22.4759 H   0  0  0  0  0  0
  -24.0031   -7.4617   22.7454 H   0  0  0  0  0  0
  -21.0893   -8.8784   19.8901 H   0  0  0  0  0  0
  -22.3737  -10.9696   19.6191 H   0  0  0  0  0  0
  -21.1982   -7.6157   23.9718 H   0  0  0  0  0  0
  -21.1497   -6.0536   25.9079 H   0  0  0  0  0  0
  -22.0589   -2.7630   23.2834 H   0  0  0  0  0  0
  -22.4212  -11.9835   22.4746 H   0  0  0  0  0  0
  -21.1137  -13.1134   22.2668 H   0  0  0  0  0  0
  -24.6399  -15.8202   20.4699 H   0  0  0  0  0  0
  -26.2445  -15.6145   19.9851 H   0  0  0  0  0  0
  -26.7055  -32.5563   23.1257 H   0  0  0  0  0  0
  -25.0086  -33.9978   25.0534 H   0  0  0  0  0  0
  -22.6772  -31.3042   21.4227 H   0  0  0  0  0  0
  -23.3789  -35.9640   23.3346 H   0  0  0  0  0  0
  -24.3601  -36.8916   22.2058 H   0  0  0  0  0  0
  -23.7253  -37.6507   23.6697 H   0  0  0  0  0  0
  -26.0296  -31.6229   20.5990 H   0  0  0  0  0  0
  -26.8126  -30.9044   21.9758 H   0  0  0  0  0  0
  -28.0899  -29.1222   21.1583 H   0  0  0  0  0  0
  -26.0284  -25.9949   19.0112 H   0  0  0  0  0  0
  -23.9514  -27.3056   19.0735 H   0  0  0  0  0  0
  -23.7004  -30.6136   19.4190 H   0  0  0  0  0  0
  -22.7197  -29.2493   19.8764 H   0  0  0  0  0  0
  -25.1260  -36.1939   25.0806 H   0  0  0  0  0  0
  -20.9899  -28.3248   24.1516 H   0  0  0  0  0  0
  -20.5783  -26.2284   23.3610 H   0  0  0  0  0  0
  -21.6632  -26.7550   22.1181 H   0  0  0  0  0  0
  -19.6967  -25.6316   21.1248 H   0  0  0  0  0  0
  -19.6717  -27.3244   20.6803 H   0  0  0  0  0  0
  -17.4208  -26.6794   21.4010 H   0  0  0  0  0  0
  -18.0296  -26.0144   22.9037 H   0  0  0  0  0  0
  -19.7925  -30.7292   24.2277 H   0  0  0  0  0  0
  -17.5014  -31.6277   24.5217 H   0  0  0  0  0  0
  -15.5349  -30.2982   23.7713 H   0  0  0  0  0  0
  -15.8699  -28.0856   22.7023 H   0  0  0  0  0  0
  -24.5930  -30.7003   25.7810 H   0  0  0  0  0  0
  -24.8912  -32.2790   26.5076 H   0  0  0  0  0  0
  -25.8065  -30.8739   27.0250 H   0  0  0  0  0  0
  -26.2832  -29.6804   24.1271 H   0  0  0  0  0  0
  -27.4202  -29.7315   25.4536 H   0  0  0  0  0  0
  -27.8616  -30.4512   23.9220 H   0  0  0  0  0  0
  -27.2793  -33.3689   26.2136 H   0  0  0  0  0  0
  -28.3848  -32.6849   25.0269 H   0  0  0  0  0  0
  -28.0858  -31.8484   26.5390 H   0  0  0  0  0  0
  -28.2508  -38.0118   24.7480 H   0  0  0  0  0  0
  -28.1086  -36.2611   24.6308 H   0  0  0  0  0  0
  -27.2311  -37.1415   25.8884 H   0  0  0  0  0  0
  -20.9426  -29.8725   21.6949 H   0  0  0  0  0  0
  -26.0176  -38.2816   24.1422 H   0  0  0  0  0  0
  -28.1134  -17.2160   20.7359 H   0  0  0  0  0  0
  -30.7646  -20.5931   20.3829 H   0  0  0  0  0  0
  -28.3883  -22.6683   19.9697 H   0  0  0  0  0  0
  -28.2491  -25.5103   23.8124 H   0  0  0  0  0  0
  -27.9927  -26.8587   22.7321 H   0  0  0  0  0  0
  -29.5347  -26.0220   22.7162 H   0  0  0  0  0  0
  -26.1403  -24.1870   22.7412 H   0  0  0  0  0  0
  -25.9841  -24.2866   20.9871 H   0  0  0  0  0  0
  -25.9444  -25.7435   21.9796 H   0  0  0  0  0  0
  -35.0066  -18.8174   21.1330 H   0  0  0  0  0  0
  -34.0497  -17.3506   21.0426 H   0  0  0  0  0  0
  -33.9361  -18.3872   22.4708 H   0  0  0  0  0  0
  -27.1605  -19.4050   20.6014 H   0  0  0  0  0  0
  -28.0406  -20.2947   19.3861 H   0  0  0  0  0  0
  -29.3958  -25.0335   20.0960 H   0  0  0  0  0  0
  -27.7816  -24.8890   19.5078 H   0  0  0  0  0  0
  -29.0368  -15.1884   21.2910 H   0  0  0  0  0  0
  -33.1039  -20.1573   20.6684 H   0  0  0  0  0  0
  -28.1593  -21.4523   23.2194 H   0  0  0  0  0  0
  1 25  1  0  0  0
  1 30  2  0  0  0
  1 86  1  0  0  0
  2  3  1  0  0  0
  2 25  1  0  0  0
  2 90  1  0  0  0
  2 91  1  0  0  0
  3  4  1  0  0  0
  3 92  1  0  0  0
  3 93  1  0  0  0
  4  5  1  0  0  0
  4 94  1  0  0  0
  4 95  1  0  0  0
  5  6  1  0  0  0
  5 26  1  0  0  0
  5 96  1  0  0  0
  6 25  1  0  0  0
  6 97  1  0  0  0
  6 98  1  0  0  0
  7  8  2  0  0  0
  7 26  1  0  0  0
  7 29  1  0  0  0
  8  9  1  0  0  0
  8 22  1  0  0  0
  9 10  1  0  0  0
  9 27  2  0  0  0
 10 11  2  0  0  0
 10 15  1  0  0  0
 11 12  1  0  0  0
 11 99  1  0  0  0
 12 13  2  0  0  0
 12100  1  0  0  0
 13 14  1  0  0  0
 13 31  1  0  0  0
 14 15  2  0  0  0
 14101  1  0  0  0
 15102  1  0  0  0
 16 17  2  0  0  0
 16 21  1  0  0  0
 16 31  1  0  0  0
 17 18  1  0  0  0
 17103  1  0  0  0
 18 19  2  0  0  0
 18104  1  0  0  0
 19 20  1  0  0  0
 19 24  1  0  0  0
 20 21  2  0  0  0
 20105  1  0  0  0
 21 23  1  0  0  0
 22 28  1  0  0  0
 22 32  2  0  0  0
 26 27  1  0  0  0
 28106  1  0  0  0
 28107  1  0  0  0
 29108  1  0  0  0
 29109  1  0  0  0
 33 34  1  0  0  0
 33 66  1  0  0  0
 33 70  2  0  0  0
 34 36  1  0  0  0
 34 59  1  0  0  0
 34110  1  0  0  0
 35 44  2  0  0  0
 35 45  1  0  0  0
 35 68  1  0  0  0
 36 56  1  0  0  0
 36111  1  0  0  0
 37 39  1  0  0  0
 37 47  1  0  0  0
 37 66  1  0  0  0
 37112  1  0  0  0
 38 43  2  0  0  0
 38 46  1  0  0  0
 38 47  1  0  0  0
 39 64  1  0  0  0
 39 67  2  0  0  0
 40 52  1  0  0  0
 40 53  2  0  0  0
 40 58  1  0  0  0
 41113  1  0  0  0
 41114  1  0  0  0
 41115  1  0  0  0
 41 48  1  0  0  0
 42 43  1  0  0  0
 42 66  1  0  0  0
 42116  1  0  0  0
 42117  1  0  0  0
 43 44  1  0  0  0
 44118  1  0  0  0
 45 46  2  0  0  0
 45119  1  0  0  0
 46120  1  0  0  0
 47121  1  0  0  0
 47122  1  0  0  0
 48 56  1  0  0  0
 48 65  1  0  0  0
 48123  1  0  0  0
 49 50  1  0  0  0
 49 53  1  0  0  0
 49 64  1  0  0  0
 49124  1  0  0  0
 50 51  1  0  0  0
 50125  1  0  0  0
 50126  1  0  0  0
 51 52  1  0  0  0
 51127  1  0  0  0
 51128  1  0  0  0
 52129  1  0  0  0
 52130  1  0  0  0
 53 54  1  0  0  0
 54 55  2  0  0  0
 54131  1  0  0  0
 55 57  1  0  0  0
 55132  1  0  0  0
 56 69  2  0  0  0
 57 58  2  0  0  0
 57133  1  0  0  0
 58134  1  0  0  0
 59 60  1  0  0  0
 59 61  1  0  0  0
 59 62  1  0  0  0
 60135  1  0  0  0
 60136  1  0  0  0
 60137  1  0  0  0
 61138  1  0  0  0
 61139  1  0  0  0
 61140  1  0  0  0
 62141  1  0  0  0
 62142  1  0  0  0
 62143  1  0  0  0
 63 65  1  0  0  0
 63144  1  0  0  0
 63145  1  0  0  0
 63146  1  0  0  0
 64147  1  0  0  0
 65148  1  0  0  0
 68 83  1  0  0  0
 71 73  2  0  0  0
 71 74  1  0  0  0
 71149  1  0  0  0
 72 73  1  0  0  0
 72 75  2  0  0  0
 72150  1  0  0  0
 73 82  1  0  0  0
 74 85  2  0  0  0
 74 86  1  0  0  0
 75 85  1  0  0  0
 75 87  1  0  0  0
 76 77  2  0  0  0
 76 78  1  0  0  0
 76151  1  0  0  0
 77 82  1  0  0  0
 77 89  1  0  0  0
 78 84  1  0  0  0
 78 88  2  0  0  0
 79152  1  0  0  0
 79153  1  0  0  0
 79154  1  0  0  0
 79 84  1  0  0  0
 80 84  1  0  0  0
 80155  1  0  0  0
 80156  1  0  0  0
 80157  1  0  0  0
 81 87  1  0  0  0
 81158  1  0  0  0
 81159  1  0  0  0
 81160  1  0  0  0
 82161  1  0  0  0
 82162  1  0  0  0
 83 84  1  0  0  0
 83163  1  0  0  0
 83164  1  0  0  0
 86165  1  0  0  0
 87166  1  0  0  0
 89167  1  0  0  0
M  ISO  4   1 100  68 101  83 101  86 100
M  END
> <chiral flag>
0

> <version>
0

> <s_m_source_file>
/data/baiqing/PycharmProjects/Reinvent-master-3.2/result/LINK_invent/BTK/process_docking_weight1_custom_product_contain_oxygen_bond_distance_aromatic_linkinvent_7_9_3/rearranged_h_0162.sdf

> <i_m_source_file_index>
12

> <r_mmod_Potential_Energy-OPLS-2005>
-186.008056640625

> <r_mmod_Stretch_Energy-OPLS-2005>
33.4660720825195

> <r_mmod_Bend_Energy-OPLS-2005>
108.928771972656

> <r_mmod_Torsional_Energy-OPLS-2005>
229.581298828125

> <r_mmod_Improper_Torsional_Energy-OPLS-2005>
6.68664360046387

> <r_mmod_Van_der_Waal_Energy-OPLS-2005>
175.951644897461

> <r_mmod_Electrostatic_Energy-OPLS-2005>
-484.042327880859

> <r_mmod_Solvation_Energy-OPLS-2005>
-268.277648925781

> <b_mmod_Minimization_Converged-OPLS-2005>
0

> <r_mmod_RMS_Derivative-OPLS-2005>
5.08926010131836

$$$$
12
                    3D
 Structure written by MMmdl.
156164  0  0  1  0            999 V2000
  -30.6386  -14.7063   20.4590 C   0  0  0  0  0  0
  -30.4249  -12.4268   19.4763 C   0  0  0  0  0  0
  -29.5060  -12.5016   18.2372 C   0  0  0  0  0  0
  -28.0334  -12.3298   18.6532 C   0  0  0  0  0  0
  -27.6435  -13.2317   19.8550 C   0  0  2  0  0  0
  -28.6874  -13.1642   20.9925 C   0  0  0  0  0  0
  -25.2512  -13.8207   20.5691 C   0  0  0  0  0  0
  -24.1806  -13.0445   20.9204 C   0  0  0  0  0  0
  -24.6406  -11.6925   20.8762 C   0  0  0  0  0  0
  -23.9083  -10.4300   21.0425 C   0  0  0  0  0  0
  -24.3630   -9.4211   21.9202 C   0  0  0  0  0  0
  -23.6302   -8.2247   22.0766 C   0  0  0  0  0  0
  -22.4285   -8.0291   21.3551 C   0  0  0  0  0  0
  -21.9927   -9.0266   20.4654 C   0  0  0  0  0  0
  -22.7259  -10.2140   20.3068 C   0  0  0  0  0  0
  -21.6848   -6.0746   22.5279 C   0  0  0  0  0  0
  -21.4007   -6.5646   23.8213 C   0  0  0  0  0  0
  -21.3656   -5.6795   24.9176 C   0  0  0  0  0  0
  -21.6048   -4.3059   24.7223 C   0  0  0  0  0  0
  -21.8816   -3.8156   23.4342 C   0  0  0  0  0  0
  -21.9193   -4.6976   22.3402 C   0  0  0  0  0  0
  -22.7826  -13.5228   21.1863 C   0  0  0  0  0  0
  -22.1660   -4.2163   21.0978 F   0  0  0  0  0  0
  -21.5633   -3.4541   25.7736 F   0  0  0  0  0  0
  -29.9946  -13.4922   20.4110 N   0  0  0  0  0  0
  -26.2952  -12.9417   20.3324 N   0  0  0  0  0  0
  -25.9340  -11.6555   20.5790 N   0  0  0  0  0  0
  -22.0465  -12.8216   22.0412 N   0  0  0  0  0  0
  -25.4186  -15.1930   20.4083 N   0  0  0  0  0  0
  -31.8203  -14.7904   20.1142 O   0  0  0  0  0  0
  -21.6640   -6.8892   21.4244 O   0  0  0  0  0  0
  -22.3512  -14.5545   20.6729 O   0  0  0  0  0  0
  -24.6295  -31.8564   23.1994 C   0  0  0  0  0  0
  -25.9122  -32.4767   23.8347 C   0  0  1  0  0  0
  -27.2211  -27.2818   20.1379 C   0  0  0  0  0  0
  -25.5917  -33.8568   24.2268 N   0  0  0  0  0  0
  -23.4267  -30.4784   21.5423 C   0  0  2  0  0  0
  -24.8760  -28.9282   20.1112 C   0  0  0  0  0  0
  -22.7498  -29.4598   22.4915 C   0  0  0  0  0  0
  -18.0283  -28.1391   22.8488 C   0  0  0  0  0  0
  -24.1479  -36.7272   23.2646 C   0  0  0  0  0  0
  -25.9707  -30.7769   21.3762 C   0  0  0  0  0  0
  -26.0464  -29.4005   20.7205 C   0  0  0  0  0  0
  -27.2252  -28.5903   20.7212 C   0  0  0  0  0  0
  -26.0354  -26.8742   19.4932 C   0  0  0  0  0  0
  -24.8743  -27.6713   19.4861 C   0  0  0  0  0  0
  -23.6456  -29.8130   20.1583 C   0  0  0  0  0  0
  -25.4108  -36.3079   24.0331 C   0  0  1  0  0  0
  -20.5894  -28.3695   23.1275 C   0  0  2  0  0  0
  -20.6778  -26.9413   22.5413 C   0  0  0  0  0  0
  -19.5756  -26.6381   21.5218 C   0  0  0  0  0  0
  -18.1927  -26.7933   22.1609 C   0  0  0  0  0  0
  -19.1540  -28.8857   23.2876 C   0  0  0  0  0  0
  -18.9467  -30.1453   23.8905 C   0  0  0  0  0  0
  -17.6471  -30.6596   24.0565 C   0  0  0  0  0  0
  -25.9050  -34.9444   23.5103 C   0  0  0  0  0  0
  -16.5356  -29.9092   23.6345 C   0  0  0  0  0  0
  -16.7271  -28.6507   23.0370 C   0  0  0  0  0  0
  -26.4505  -31.6583   25.0723 C   0  0  0  0  0  0
  -25.3723  -31.3709   26.1436 C   0  0  0  0  0  0
  -27.0373  -30.3013   24.6187 C   0  0  0  0  0  0
  -27.6072  -32.4319   25.7494 C   0  0  0  0  0  0
  -27.5573  -37.1785   24.8472 C   0  0  0  0  0  0
  -21.4206  -29.3035   22.3660 N   0  0  0  0  0  0
  -26.4281  -37.3775   23.9423 N   0  0  0  0  0  0
  -24.6949  -31.0541   22.0962 N   0  0  0  0  0  0
  -23.4196  -28.8136   23.3017 O   0  0  0  0  0  0
  -28.3057  -26.3832   20.1705 O   0  0  0  0  0  0
  -26.5623  -34.8913   22.4673 O   0  0  0  0  0  0
  -23.5445  -32.1375   23.7289 O   0  0  0  0  0  0
  -28.3842  -20.1411   22.1631 C   0  0  0  0  0  0
  -28.9059  -18.7821   21.9741 C   0  0  0  0  0  0
  -29.5819  -18.5672   20.7952 C   0  0  0  0  0  0
  -28.7346  -21.0564   21.1651 C   0  0  0  0  0  0
  -27.5975  -20.5642   23.3358 C   0  0  0  0  0  0
  -26.4824  -19.6282   23.7953 C   0  0  0  0  0  0
  -30.3159  -17.2715   20.2768 C   0  0  0  0  0  0
  -28.7504  -23.6455   20.2894 C   0  0  0  0  0  0
  -28.0530  -25.0327   20.7648 C   0  0  0  0  0  0
  -28.7725  -17.7574   22.9314 N   0  0  0  0  0  0
  -28.3631  -22.4694   21.1482 N   0  0  0  0  0  0
  -29.8959  -15.8548   20.6581 N   0  0  0  0  0  0
  -27.7208  -21.6405   23.9325 O   0  0  0  0  0  0
  -29.6485  -20.1454   19.9337 S   0  0  0  0  0  0
  -31.4700  -12.5283   19.1787 H   0  0  0  0  0  0
  -30.3448  -11.4497   19.9562 H   0  0  0  0  0  0
  -29.7817  -11.7323   17.5146 H   0  0  0  0  0  0
  -29.6372  -13.4601   17.7314 H   0  0  0  0  0  0
  -27.8909  -11.2816   18.9197 H   0  0  0  0  0  0
  -27.3727  -12.5196   17.8068 H   0  0  0  0  0  0
  -27.6408  -14.2535   19.4747 H   0  0  0  0  0  0
  -28.7101  -12.1721   21.4462 H   0  0  0  0  0  0
  -28.4323  -13.8617   21.7921 H   0  0  0  0  0  0
  -25.2766   -9.5686   22.4785 H   0  0  0  0  0  0
  -24.0003   -7.4641   22.7486 H   0  0  0  0  0  0
  -21.0862   -8.8806   19.8950 H   0  0  0  0  0  0
  -22.3739  -10.9695   19.6187 H   0  0  0  0  0  0
  -21.1987   -7.6152   23.9725 H   0  0  0  0  0  0
  -21.1480   -6.0521   25.9079 H   0  0  0  0  0  0
  -22.0596   -2.7619   23.2838 H   0  0  0  0  0  0
  -22.4059  -11.9850   22.4768 H   0  0  0  0  0  0
  -21.1102  -13.1273   22.2655 H   0  0  0  0  0  0
  -24.6514  -15.8460   20.5218 H   0  0  0  0  0  0
  -26.2764  -15.6394   20.1110 H   0  0  0  0  0  0
  -26.7192  -32.5432   23.1099 H   0  0  0  0  0  0
  -25.0102  -33.9723   25.0440 H   0  0  0  0  0  0
  -22.7225  -31.3000   21.3958 H   0  0  0  0  0  0
  -23.3761  -35.9585   23.3313 H   0  0  0  0  0  0
  -24.3577  -36.8891   22.2063 H   0  0  0  0  0  0
  -23.7205  -37.6456   23.6670 H   0  0  0  0  0  0
  -26.1039  -31.5365   20.6046 H   0  0  0  0  0  0
  -26.8503  -30.8287   22.0065 H   0  0  0  0  0  0
  -28.1213  -28.9448   21.2112 H   0  0  0  0  0  0
  -25.9982  -25.9102   19.0061 H   0  0  0  0  0  0
  -23.9789  -27.3062   19.0019 H   0  0  0  0  0  0
  -23.7691  -30.5913   19.4046 H   0  0  0  0  0  0
  -22.7648  -29.2455   19.8515 H   0  0  0  0  0  0
  -25.1283  -36.1937   25.0823 H   0  0  0  0  0  0
  -20.9982  -28.3279   24.1394 H   0  0  0  0  0  0
  -20.5694  -26.2301   23.3616 H   0  0  0  0  0  0
  -21.6643  -26.7440   22.1197 H   0  0  0  0  0  0
  -19.6928  -25.6291   21.1242 H   0  0  0  0  0  0
  -19.6714  -27.3198   20.6755 H   0  0  0  0  0  0
  -17.4207  -26.6711   21.3998 H   0  0  0  0  0  0
  -18.0299  -26.0062   22.8990 H   0  0  0  0  0  0
  -19.7944  -30.7261   24.2286 H   0  0  0  0  0  0
  -17.5022  -31.6281   24.5155 H   0  0  0  0  0  0
  -15.5358  -30.2995   23.7672 H   0  0  0  0  0  0
  -15.8666  -28.0819   22.7104 H   0  0  0  0  0  0
  -24.5982  -30.6955   25.7776 H   0  0  0  0  0  0
  -24.8801  -32.2846   26.4777 H   0  0  0  0  0  0
  -25.8040  -30.8988   27.0270 H   0  0  0  0  0  0
  -26.2953  -29.6739   24.1231 H   0  0  0  0  0  0
  -27.4115  -29.7301   25.4695 H   0  0  0  0  0  0
  -27.8795  -30.4338   23.9394 H   0  0  0  0  0  0
  -27.2726  -33.3676   26.2000 H   0  0  0  0  0  0
  -28.3918  -32.6783   25.0323 H   0  0  0  0  0  0
  -28.0688  -31.8469   26.5465 H   0  0  0  0  0  0
  -28.2585  -38.0086   24.7529 H   0  0  0  0  0  0
  -28.1068  -36.2617   24.6283 H   0  0  0  0  0  0
  -27.2291  -37.1412   25.8873 H   0  0  0  0  0  0
  -20.9389  -29.8757   21.6866 H   0  0  0  0  0  0
  -26.0165  -38.2847   24.1438 H   0  0  0  0  0  0
  -26.2563  -18.8854   23.0307 H   0  0  0  0  0  0
  -25.5736  -20.1964   23.9930 H   0  0  0  0  0  0
  -26.7712  -19.1105   24.7096 H   0  0  0  0  0  0
  -31.3663  -17.3734   20.5526 H   0  0  0  0  0  0
  -30.3165  -17.3030   19.1861 H   0  0  0  0  0  0
  -29.8353  -23.7556   20.3082 H   0  0  0  0  0  0
  -28.4773  -23.4377   19.2543 H   0  0  0  0  0  0
  -28.3117  -25.1589   21.8168 H   0  0  0  0  0  0
  -26.9806  -24.8406   20.7857 H   0  0  0  0  0  0
  -28.6349  -18.0138   23.9024 H   0  0  0  0  0  0
  -29.3942  -16.9613   22.8388 H   0  0  0  0  0  0
  -27.8813  -22.7632   21.9967 H   0  0  0  0  0  0
  -28.9280  -15.7270   20.9121 H   0  0  0  0  0  0
  1 25  1  0  0  0
  1 30  2  0  0  0
  1 82  1  0  0  0
  2  3  1  0  0  0
  2 25  1  0  0  0
  2 85  1  0  0  0
  2 86  1  0  0  0
  3  4  1  0  0  0
  3 87  1  0  0  0
  3 88  1  0  0  0
  4  5  1  0  0  0
  4 89  1  0  0  0
  4 90  1  0  0  0
  5  6  1  0  0  0
  5 26  1  0  0  0
  5 91  1  0  0  0
  6 25  1  0  0  0
  6 92  1  0  0  0
  6 93  1  0  0  0
  7  8  2  0  0  0
  7 26  1  0  0  0
  7 29  1  0  0  0
  8  9  1  0  0  0
  8 22  1  0  0  0
  9 10  1  0  0  0
  9 27  2  0  0  0
 10 11  2  0  0  0
 10 15  1  0  0  0
 11 12  1  0  0  0
 11 94  1  0  0  0
 12 13  2  0  0  0
 12 95  1  0  0  0
 13 14  1  0  0  0
 13 31  1  0  0  0
 14 15  2  0  0  0
 14 96  1  0  0  0
 15 97  1  0  0  0
 16 17  2  0  0  0
 16 21  1  0  0  0
 16 31  1  0  0  0
 17 18  1  0  0  0
 17 98  1  0  0  0
 18 19  2  0  0  0
 18 99  1  0  0  0
 19 20  1  0  0  0
 19 24  1  0  0  0
 20 21  2  0  0  0
 20100  1  0  0  0
 21 23  1  0  0  0
 22 28  1  0  0  0
 22 32  2  0  0  0
 26 27  1  0  0  0
 28101  1  0  0  0
 28102  1  0  0  0
 29103  1  0  0  0
 29104  1  0  0  0
 33 34  1  0  0  0
 33 66  1  0  0  0
 33 70  2  0  0  0
 34 36  1  0  0  0
 34 59  1  0  0  0
 34105  1  0  0  0
 35 44  2  0  0  0
 35 45  1  0  0  0
 35 68  1  0  0  0
 36 56  1  0  0  0
 36106  1  0  0  0
 37 39  1  0  0  0
 37 47  1  0  0  0
 37 66  1  0  0  0
 37107  1  0  0  0
 38 43  2  0  0  0
 38 46  1  0  0  0
 38 47  1  0  0  0
 39 64  1  0  0  0
 39 67  2  0  0  0
 40 52  1  0  0  0
 40 53  2  0  0  0
 40 58  1  0  0  0
 41108  1  0  0  0
 41109  1  0  0  0
 41110  1  0  0  0
 41 48  1  0  0  0
 42 43  1  0  0  0
 42 66  1  0  0  0
 42111  1  0  0  0
 42112  1  0  0  0
 43 44  1  0  0  0
 44113  1  0  0  0
 45 46  2  0  0  0
 45114  1  0  0  0
 46115  1  0  0  0
 47116  1  0  0  0
 47117  1  0  0  0
 48 56  1  0  0  0
 48 65  1  0  0  0
 48118  1  0  0  0
 49 50  1  0  0  0
 49 53  1  0  0  0
 49 64  1  0  0  0
 49119  1  0  0  0
 50 51  1  0  0  0
 50120  1  0  0  0
 50121  1  0  0  0
 51 52  1  0  0  0
 51122  1  0  0  0
 51123  1  0  0  0
 52124  1  0  0  0
 52125  1  0  0  0
 53 54  1  0  0  0
 54 55  2  0  0  0
 54126  1  0  0  0
 55 57  1  0  0  0
 55127  1  0  0  0
 56 69  2  0  0  0
 57 58  2  0  0  0
 57128  1  0  0  0
 58129  1  0  0  0
 59 60  1  0  0  0
 59 61  1  0  0  0
 59 62  1  0  0  0
 60130  1  0  0  0
 60131  1  0  0  0
 60132  1  0  0  0
 61133  1  0  0  0
 61134  1  0  0  0
 61135  1  0  0  0
 62136  1  0  0  0
 62137  1  0  0  0
 62138  1  0  0  0
 63 65  1  0  0  0
 63139  1  0  0  0
 63140  1  0  0  0
 63141  1  0  0  0
 64142  1  0  0  0
 65143  1  0  0  0
 68 79  1  0  0  0
 71 72  1  0  0  0
 71 74  2  0  0  0
 71 75  1  0  0  0
 72 73  2  0  0  0
 72 80  1  0  0  0
 73 77  1  0  0  0
 73 84  1  0  0  0
 74 81  1  0  0  0
 74 84  1  0  0  0
 75 76  1  0  0  0
 75 83  2  0  0  0
 76144  1  0  0  0
 76145  1  0  0  0
 76146  1  0  0  0
 77 82  1  0  0  0
 77147  1  0  0  0
 77148  1  0  0  0
 78 79  1  0  0  0
 78 81  1  0  0  0
 78149  1  0  0  0
 78150  1  0  0  0
 79151  1  0  0  0
 79152  1  0  0  0
 80153  1  0  0  0
 80154  1  0  0  0
 81155  1  0  0  0
 82156  1  0  0  0
M  ISO  4   1 100  68 101  79 101  82 100
M  END
> <chiral flag>
0

> <version>
0

> <s_m_source_file>
/data/baiqing/PycharmProjects/Reinvent-master-3.2/result/LINK_invent/BTK/process_docking_weight1_custom_product_contain_oxygen_bond_distance_aromatic_linkinvent_7_9_3/rearranged_h_0162.sdf

> <i_m_source_file_index>
13

> <r_mmod_Potential_Energy-OPLS-2005>
306.468383789062

> <r_mmod_Stretch_Energy-OPLS-2005>
109.718620300293

> <r_mmod_Bend_Energy-OPLS-2005>
186.06999206543

> <r_mmod_Torsional_Energy-OPLS-2005>
248.912246704102

> <r_mmod_Improper_Torsional_Energy-OPLS-2005>
10.6107912063599

> <r_mmod_Van_der_Waal_Energy-OPLS-2005>
125.093170166016

> <r_mmod_Electrostatic_Energy-OPLS-2005>
-216.927383422852

> <r_mmod_Solvation_Energy-OPLS-2005>
-230.095932006836

> <b_mmod_Minimization_Converged-OPLS-2005>
0

> <r_mmod_RMS_Derivative-OPLS-2005>
1.68364262580872

$$$$
13
                    3D
 Structure written by MMmdl.
158166  0  0  1  0            999 V2000
  -30.6507  -14.6018   20.4896 C   0  0  0  0  0  0
  -30.4249  -12.3599   19.4612 C   0  0  0  0  0  0
  -29.5073  -12.4989   18.2275 C   0  0  0  0  0  0
  -28.0282  -12.3491   18.6343 C   0  0  0  0  0  0
  -27.6526  -13.2210   19.8624 C   0  0  2  0  0  0
  -28.6933  -13.0794   20.9964 C   0  0  0  0  0  0
  -25.2547  -13.8184   20.5678 C   0  0  0  0  0  0
  -24.1825  -13.0436   20.9183 C   0  0  0  0  0  0
  -24.6407  -11.6913   20.8743 C   0  0  0  0  0  0
  -23.9084  -10.4287   21.0412 C   0  0  0  0  0  0
  -24.3628   -9.4198   21.9195 C   0  0  0  0  0  0
  -23.6293   -8.2242   22.0766 C   0  0  0  0  0  0
  -22.4277   -8.0287   21.3552 C   0  0  0  0  0  0
  -21.9922   -9.0263   20.4652 C   0  0  0  0  0  0
  -22.7264  -10.2130   20.3055 C   0  0  0  0  0  0
  -21.6849   -6.0737   22.5283 C   0  0  0  0  0  0
  -21.4018   -6.5641   23.8216 C   0  0  0  0  0  0
  -21.3654   -5.6791   24.9178 C   0  0  0  0  0  0
  -21.6045   -4.3055   24.7228 C   0  0  0  0  0  0
  -21.8819   -3.8144   23.4348 C   0  0  0  0  0  0
  -21.9195   -4.6962   22.3404 C   0  0  0  0  0  0
  -22.7848  -13.5221   21.1843 C   0  0  0  0  0  0
  -22.1661   -4.2152   21.0978 F   0  0  0  0  0  0
  -21.5622   -3.4537   25.7732 F   0  0  0  0  0  0
  -30.0154  -13.3905   20.4352 N   0  0  0  0  0  0
  -26.2984  -12.9383   20.3312 N   0  0  0  0  0  0
  -25.9333  -11.6532   20.5761 N   0  0  0  0  0  0
  -22.0480  -12.8208   22.0392 N   0  0  0  0  0  0
  -25.4246  -15.1911   20.4089 N   0  0  0  0  0  0
  -31.8223  -14.7174   20.1170 O   0  0  0  0  0  0
  -21.6638   -6.8885   21.4248 O   0  0  0  0  0  0
  -22.3535  -14.5528   20.6690 O   0  0  0  0  0  0
  -24.6231  -31.8608   23.2022 C   0  0  0  0  0  0
  -25.9073  -32.4791   23.8355 C   0  0  1  0  0  0
  -27.2336  -27.3550   20.1087 C   0  0  0  0  0  0
  -25.5883  -33.8594   24.2278 N   0  0  0  0  0  0
  -23.4145  -30.4823   21.5445 C   0  0  2  0  0  0
  -24.8607  -28.9368   20.1103 C   0  0  0  0  0  0
  -22.7449  -29.4626   22.4944 C   0  0  0  0  0  0
  -18.0279  -28.1394   22.8509 C   0  0  0  0  0  0
  -24.1476  -36.7299   23.2645 C   0  0  0  0  0  0
  -25.9512  -30.8000   21.3681 C   0  0  0  0  0  0
  -26.0238  -29.4295   20.7134 C   0  0  0  0  0  0
  -27.2081  -28.6464   20.7087 C   0  0  0  0  0  0
  -26.0470  -26.8933   19.4962 C   0  0  0  0  0  0
  -24.8713  -27.6713   19.4970 C   0  0  0  0  0  0
  -23.6267  -29.8139   20.1597 C   0  0  0  0  0  0
  -25.4106  -36.3102   24.0337 C   0  0  1  0  0  0
  -20.5879  -28.3677   23.1302 C   0  0  2  0  0  0
  -20.6777  -26.9404   22.5412 C   0  0  0  0  0  0
  -19.5747  -26.6395   21.5217 C   0  0  0  0  0  0
  -18.1923  -26.7947   22.1623 C   0  0  0  0  0  0
  -19.1534  -28.8853   23.2904 C   0  0  0  0  0  0
  -18.9459  -30.1469   23.8903 C   0  0  0  0  0  0
  -17.6463  -30.6600   24.0574 C   0  0  0  0  0  0
  -25.9043  -34.9472   23.5115 C   0  0  0  0  0  0
  -16.5347  -29.9099   23.6340 C   0  0  0  0  0  0
  -16.7267  -28.6521   23.0357 C   0  0  0  0  0  0
  -26.4464  -31.6615   25.0730 C   0  0  0  0  0  0
  -25.3685  -31.3730   26.1440 C   0  0  0  0  0  0
  -27.0323  -30.3061   24.6152 C   0  0  0  0  0  0
  -27.6033  -32.4340   25.7491 C   0  0  0  0  0  0
  -27.5577  -37.1807   24.8467 C   0  0  0  0  0  0
  -21.4167  -29.3031   22.3691 N   0  0  0  0  0  0
  -26.4288  -37.3794   23.9415 N   0  0  0  0  0  0
  -24.6811  -31.0645   22.0953 N   0  0  0  0  0  0
  -23.4190  -28.8169   23.3009 O   0  0  0  0  0  0
  -28.3913  -26.5804   20.1767 O   0  0  0  0  0  0
  -26.5624  -34.8939   22.4688 O   0  0  0  0  0  0
  -23.5400  -32.1391   23.7374 O   0  0  0  0  0  0
  -30.6829  -18.9422   19.4982 C   0  0  0  0  0  0
  -30.9364  -17.5366   19.5701 C   0  0  0  0  0  0
  -29.6704  -19.2452   20.3717 C   0  0  0  0  0  0
  -30.0542  -17.0236   20.4854 C   0  0  0  0  0  0
  -28.9787  -20.4976   20.7562 C   0  0  0  0  0  0
  -28.1929  -23.9935   20.1699 C   0  0  0  0  0  0
  -30.6262  -23.8595   20.9914 C   0  0  0  0  0  0
  -28.7734  -23.0813   22.4530 C   0  0  0  0  0  0
  -28.5575  -25.3335   19.4241 C   0  0  0  0  0  0
  -29.2540  -23.1448   20.9793 C   0  0  0  0  0  0
  -27.8053  -20.3874   21.3900 N   0  0  0  0  0  0
  -29.8852  -15.6884   20.8196 N   0  0  0  0  0  0
  -29.5150  -21.7321   20.4812 N   0  3  0  0  0  0
  -27.0336  -23.5717   20.0967 O   0  0  0  0  0  0
  -29.2655  -18.0548   20.9827 O   0  0  0  0  0  0
  -31.4718  -12.4549   19.1669 H   0  0  0  0  0  0
  -30.3299  -11.3654   19.9009 H   0  0  0  0  0  0
  -29.7662  -11.7503   17.4778 H   0  0  0  0  0  0
  -29.6661  -13.4709   17.7585 H   0  0  0  0  0  0
  -27.8559  -11.2974   18.8647 H   0  0  0  0  0  0
  -27.3784  -12.5846   17.7908 H   0  0  0  0  0  0
  -27.6716  -14.2561   19.5214 H   0  0  0  0  0  0
  -28.6879  -12.0648   21.3984 H   0  0  0  0  0  0
  -28.4470  -13.7337   21.8341 H   0  0  0  0  0  0
  -25.2773   -9.5664   22.4773 H   0  0  0  0  0  0
  -23.9991   -7.4632   22.7487 H   0  0  0  0  0  0
  -21.0854   -8.8791   19.8954 H   0  0  0  0  0  0
  -22.3746  -10.9667   19.6148 H   0  0  0  0  0  0
  -21.2015   -7.6149   23.9724 H   0  0  0  0  0  0
  -21.1471   -6.0518   25.9081 H   0  0  0  0  0  0
  -22.0601   -2.7611   23.2843 H   0  0  0  0  0  0
  -22.4069  -11.9841   22.4744 H   0  0  0  0  0  0
  -21.1100  -13.1248   22.2589 H   0  0  0  0  0  0
  -24.6530  -15.8424   20.5118 H   0  0  0  0  0  0
  -26.2712  -15.6318   20.0731 H   0  0  0  0  0  0
  -26.7144  -32.5464   23.1112 H   0  0  0  0  0  0
  -25.0006  -33.9742   25.0405 H   0  0  0  0  0  0
  -22.7089  -31.3033   21.4034 H   0  0  0  0  0  0
  -23.3762  -35.9605   23.3310 H   0  0  0  0  0  0
  -24.3590  -36.8905   22.2062 H   0  0  0  0  0  0
  -23.7202  -37.6492   23.6661 H   0  0  0  0  0  0
  -26.0774  -31.5625   20.5984 H   0  0  0  0  0  0
  -26.8355  -30.8510   21.9921 H   0  0  0  0  0  0
  -28.1039  -29.0229   21.1835 H   0  0  0  0  0  0
  -25.9981  -25.9161   19.0393 H   0  0  0  0  0  0
  -23.9750  -27.2830   19.0317 H   0  0  0  0  0  0
  -23.7387  -30.5905   19.4011 H   0  0  0  0  0  0
  -22.7467  -29.2395   19.8624 H   0  0  0  0  0  0
  -25.1289  -36.1952   25.0830 H   0  0  0  0  0  0
  -20.9989  -28.3235   24.1412 H   0  0  0  0  0  0
  -20.5692  -26.2269   23.3595 H   0  0  0  0  0  0
  -21.6637  -26.7442   22.1176 H   0  0  0  0  0  0
  -19.6898  -25.6308   21.1225 H   0  0  0  0  0  0
  -19.6696  -27.3236   20.6768 H   0  0  0  0  0  0
  -17.4194  -26.6718   21.4019 H   0  0  0  0  0  0
  -18.0308  -26.0094   22.9020 H   0  0  0  0  0  0
  -19.7938  -30.7296   24.2254 H   0  0  0  0  0  0
  -17.5020  -31.6276   24.5185 H   0  0  0  0  0  0
  -15.5358  -30.3002   23.7688 H   0  0  0  0  0  0
  -15.8667  -28.0854   22.7045 H   0  0  0  0  0  0
  -24.5851  -30.7097   25.7750 H   0  0  0  0  0  0
  -24.8875  -32.2892   26.4888 H   0  0  0  0  0  0
  -25.7996  -30.8874   27.0203 H   0  0  0  0  0  0
  -26.2900  -29.6814   24.1171 H   0  0  0  0  0  0
  -27.4063  -29.7306   25.4630 H   0  0  0  0  0  0
  -27.8741  -30.4417   23.9359 H   0  0  0  0  0  0
  -27.2663  -33.3649   26.2069 H   0  0  0  0  0  0
  -28.3841  -32.6883   25.0312 H   0  0  0  0  0  0
  -28.0708  -31.8460   26.5394 H   0  0  0  0  0  0
  -28.2586  -38.0114   24.7544 H   0  0  0  0  0  0
  -28.1074  -36.2651   24.6252 H   0  0  0  0  0  0
  -27.2305  -37.1397   25.8870 H   0  0  0  0  0  0
  -20.9332  -29.8743   21.6905 H   0  0  0  0  0  0
  -26.0170  -38.2863   24.1426 H   0  0  0  0  0  0
  -31.1925  -19.6562   18.8682 H   0  0  0  0  0  0
  -31.6678  -16.9845   18.9967 H   0  0  0  0  0  0
  -30.5555  -24.8779   21.3772 H   0  0  0  0  0  0
  -31.0736  -23.9123   19.9980 H   0  0  0  0  0  0
  -31.3359  -23.3344   21.6318 H   0  0  0  0  0  0
  -29.0764  -23.9650   23.0160 H   0  0  0  0  0  0
  -29.1852  -22.2184   22.9755 H   0  0  0  0  0  0
  -27.6875  -23.0208   22.5418 H   0  0  0  0  0  0
  -27.9925  -25.3807   18.4934 H   0  0  0  0  0  0
  -29.5964  -25.2873   19.1028 H   0  0  0  0  0  0
  -27.4570  -19.4650   21.6069 H   0  0  0  0  0  0
  -27.2107  -21.1755   21.5809 H   0  0  0  0  0  0
  -29.0004  -15.4606   21.2459 H   0  0  0  0  0  0
  -30.3042  -21.6877   19.8522 H   0  0  0  0  0  0
  1 25  1  0  0  0
  1 30  2  0  0  0
  1 82  1  0  0  0
  2  3  1  0  0  0
  2 25  1  0  0  0
  2 86  1  0  0  0
  2 87  1  0  0  0
  3  4  1  0  0  0
  3 88  1  0  0  0
  3 89  1  0  0  0
  4  5  1  0  0  0
  4 90  1  0  0  0
  4 91  1  0  0  0
  5  6  1  0  0  0
  5 26  1  0  0  0
  5 92  1  0  0  0
  6 25  1  0  0  0
  6 93  1  0  0  0
  6 94  1  0  0  0
  7  8  2  0  0  0
  7 26  1  0  0  0
  7 29  1  0  0  0
  8  9  1  0  0  0
  8 22  1  0  0  0
  9 10  1  0  0  0
  9 27  2  0  0  0
 10 11  2  0  0  0
 10 15  1  0  0  0
 11 12  1  0  0  0
 11 95  1  0  0  0
 12 13  2  0  0  0
 12 96  1  0  0  0
 13 14  1  0  0  0
 13 31  1  0  0  0
 14 15  2  0  0  0
 14 97  1  0  0  0
 15 98  1  0  0  0
 16 17  2  0  0  0
 16 21  1  0  0  0
 16 31  1  0  0  0
 17 18  1  0  0  0
 17 99  1  0  0  0
 18 19  2  0  0  0
 18100  1  0  0  0
 19 20  1  0  0  0
 19 24  1  0  0  0
 20 21  2  0  0  0
 20101  1  0  0  0
 21 23  1  0  0  0
 22 28  1  0  0  0
 22 32  2  0  0  0
 26 27  1  0  0  0
 28102  1  0  0  0
 28103  1  0  0  0
 29104  1  0  0  0
 29105  1  0  0  0
 33 34  1  0  0  0
 33 66  1  0  0  0
 33 70  2  0  0  0
 34 36  1  0  0  0
 34 59  1  0  0  0
 34106  1  0  0  0
 35 44  2  0  0  0
 35 45  1  0  0  0
 35 68  1  0  0  0
 36 56  1  0  0  0
 36107  1  0  0  0
 37 39  1  0  0  0
 37 47  1  0  0  0
 37 66  1  0  0  0
 37108  1  0  0  0
 38 43  2  0  0  0
 38 46  1  0  0  0
 38 47  1  0  0  0
 39 64  1  0  0  0
 39 67  2  0  0  0
 40 52  1  0  0  0
 40 53  2  0  0  0
 40 58  1  0  0  0
 41109  1  0  0  0
 41110  1  0  0  0
 41111  1  0  0  0
 41 48  1  0  0  0
 42 43  1  0  0  0
 42 66  1  0  0  0
 42112  1  0  0  0
 42113  1  0  0  0
 43 44  1  0  0  0
 44114  1  0  0  0
 45 46  2  0  0  0
 45115  1  0  0  0
 46116  1  0  0  0
 47117  1  0  0  0
 47118  1  0  0  0
 48 56  1  0  0  0
 48 65  1  0  0  0
 48119  1  0  0  0
 49 50  1  0  0  0
 49 53  1  0  0  0
 49 64  1  0  0  0
 49120  1  0  0  0
 50 51  1  0  0  0
 50121  1  0  0  0
 50122  1  0  0  0
 51 52  1  0  0  0
 51123  1  0  0  0
 51124  1  0  0  0
 52125  1  0  0  0
 52126  1  0  0  0
 53 54  1  0  0  0
 54 55  2  0  0  0
 54127  1  0  0  0
 55 57  1  0  0  0
 55128  1  0  0  0
 56 69  2  0  0  0
 57 58  2  0  0  0
 57129  1  0  0  0
 58130  1  0  0  0
 59 60  1  0  0  0
 59 61  1  0  0  0
 59 62  1  0  0  0
 60131  1  0  0  0
 60132  1  0  0  0
 60133  1  0  0  0
 61134  1  0  0  0
 61135  1  0  0  0
 61136  1  0  0  0
 62137  1  0  0  0
 62138  1  0  0  0
 62139  1  0  0  0
 63 65  1  0  0  0
 63140  1  0  0  0
 63141  1  0  0  0
 63142  1  0  0  0
 64143  1  0  0  0
 65144  1  0  0  0
 68 79  1  0  0  0
 71 72  1  0  0  0
 71 73  2  0  0  0
 71145  1  0  0  0
 72 74  2  0  0  0
 72146  1  0  0  0
 73 75  1  0  0  0
 73 85  1  0  0  0
 74 82  1  0  0  0
 74 85  1  0  0  0
 75 81  1  0  0  0
 75 83  2  0  0  0
 76 79  1  0  0  0
 76 80  1  0  0  0
 76 84  2  0  0  0
 77147  1  0  0  0
 77148  1  0  0  0
 77149  1  0  0  0
 77 80  1  0  0  0
 78 80  1  0  0  0
 78150  1  0  0  0
 78151  1  0  0  0
 78152  1  0  0  0
 79153  1  0  0  0
 79154  1  0  0  0
 80 83  1  0  0  0
 81155  1  0  0  0
 81156  1  0  0  0
 82157  1  0  0  0
 83158  1  0  0  0
M  CHG  1  83   1
M  ISO  4   1 100  68 101  79 101  82 100
M  END
> <chiral flag>
0

> <version>
0

> <s_m_source_file>
/data/baiqing/PycharmProjects/Reinvent-master-3.2/result/LINK_invent/BTK/process_docking_weight1_custom_product_contain_oxygen_bond_distance_aromatic_linkinvent_7_9_3/rearranged_h_0162.sdf

> <i_m_source_file_index>
14

> <r_mmod_Potential_Energy-OPLS-2005>
-146.834121704102

> <r_mmod_Stretch_Energy-OPLS-2005>
67.713623046875

> <r_mmod_Bend_Energy-OPLS-2005>
149.806823730469

> <r_mmod_Torsional_Energy-OPLS-2005>
240.980163574219

> <r_mmod_Improper_Torsional_Energy-OPLS-2005>
4.28488159179688

> <r_mmod_Van_der_Waal_Energy-OPLS-2005>
132.253494262695

> <r_mmod_Electrostatic_Energy-OPLS-2005>
-324.062469482422

> <r_mmod_Solvation_Energy-OPLS-2005>
-453.610931396484

> <b_mmod_Minimization_Converged-OPLS-2005>
0

> <r_mmod_RMS_Derivative-OPLS-2005>
1.94330871105194

$$$$
14
                    3D
 Structure written by MMmdl.
150158  0  0  1  0            999 V2000
  -30.6979  -14.5101   20.5407 C   0  0  0  0  0  0
  -30.4223  -12.3220   19.4332 C   0  0  0  0  0  0
  -29.4964  -12.4970   18.2116 C   0  0  0  0  0  0
  -28.0182  -12.3551   18.6247 C   0  0  0  0  0  0
  -27.6576  -13.2110   19.8687 C   0  0  2  0  0  0
  -28.7016  -13.0287   20.9944 C   0  0  0  0  0  0
  -25.2575  -13.8169   20.5684 C   0  0  0  0  0  0
  -24.1833  -13.0441   20.9184 C   0  0  0  0  0  0
  -24.6393  -11.6909   20.8739 C   0  0  0  0  0  0
  -23.9060  -10.4293   21.0406 C   0  0  0  0  0  0
  -24.3613   -9.4209   21.9184 C   0  0  0  0  0  0
  -23.6290   -8.2244   22.0754 C   0  0  0  0  0  0
  -22.4273   -8.0281   21.3544 C   0  0  0  0  0  0
  -21.9907   -9.0254   20.4646 C   0  0  0  0  0  0
  -22.7234  -10.2135   20.3055 C   0  0  0  0  0  0
  -21.6852   -6.0735   22.5279 C   0  0  0  0  0  0
  -21.4014   -6.5639   23.8212 C   0  0  0  0  0  0
  -21.3660   -5.6792   24.9174 C   0  0  0  0  0  0
  -21.6044   -4.3055   24.7225 C   0  0  0  0  0  0
  -21.8819   -3.8147   23.4346 C   0  0  0  0  0  0
  -21.9193   -4.6963   22.3402 C   0  0  0  0  0  0
  -22.7856  -13.5237   21.1848 C   0  0  0  0  0  0
  -22.1661   -4.2149   21.0980 F   0  0  0  0  0  0
  -21.5629   -3.4538   25.7738 F   0  0  0  0  0  0
  -30.0282  -13.3283   20.4330 N   0  0  0  0  0  0
  -26.3007  -12.9344   20.3347 N   0  0  0  0  0  0
  -25.9321  -11.6502   20.5768 N   0  0  0  0  0  0
  -22.0496  -12.8230   22.0403 N   0  0  0  0  0  0
  -25.4295  -15.1889   20.4092 N   0  0  0  0  0  0
  -31.8529  -14.6490   20.1283 O   0  0  0  0  0  0
  -21.6638   -6.8878   21.4240 O   0  0  0  0  0  0
  -22.3544  -14.5546   20.6699 O   0  0  0  0  0  0
  -24.6192  -31.8669   23.2103 C   0  0  0  0  0  0
  -25.9073  -32.4817   23.8401 C   0  0  1  0  0  0
  -27.2220  -27.3948   20.0951 C   0  0  0  0  0  0
  -25.5918  -33.8617   24.2327 N   0  0  0  0  0  0
  -23.4077  -30.4945   21.5524 C   0  0  2  0  0  0
  -24.8510  -28.9657   20.1109 C   0  0  0  0  0  0
  -22.7434  -29.4662   22.4974 C   0  0  0  0  0  0
  -18.0278  -28.1379   22.8492 C   0  0  0  0  0  0
  -24.1488  -36.7311   23.2637 C   0  0  0  0  0  0
  -25.9435  -30.8205   21.3713 C   0  0  0  0  0  0
  -26.0176  -29.4557   20.7114 C   0  0  0  0  0  0
  -27.2063  -28.6798   20.6989 C   0  0  0  0  0  0
  -26.0315  -26.9457   19.4702 C   0  0  0  0  0  0
  -24.8556  -27.7118   19.4855 C   0  0  0  0  0  0
  -23.6165  -29.8365   20.1646 C   0  0  0  0  0  0
  -25.4110  -36.3109   24.0335 C   0  0  1  0  0  0
  -20.5873  -28.3674   23.1304 C   0  0  2  0  0  0
  -20.6770  -26.9407   22.5411 C   0  0  0  0  0  0
  -19.5745  -26.6386   21.5212 C   0  0  0  0  0  0
  -18.1925  -26.7925   22.1626 C   0  0  0  0  0  0
  -19.1529  -28.8843   23.2895 C   0  0  0  0  0  0
  -18.9455  -30.1448   23.8907 C   0  0  0  0  0  0
  -17.6456  -30.6585   24.0565 C   0  0  0  0  0  0
  -25.9041  -34.9473   23.5127 C   0  0  0  0  0  0
  -16.5347  -29.9086   23.6327 C   0  0  0  0  0  0
  -16.7267  -28.6502   23.0350 C   0  0  0  0  0  0
  -26.4483  -31.6600   25.0739 C   0  0  0  0  0  0
  -25.3739  -31.3711   26.1479 C   0  0  0  0  0  0
  -27.0315  -30.3036   24.6138 C   0  0  0  0  0  0
  -27.6057  -32.4319   25.7501 C   0  0  0  0  0  0
  -27.5582  -37.1812   24.8465 C   0  0  0  0  0  0
  -21.4157  -29.3042   22.3711 N   0  0  0  0  0  0
  -26.4296  -37.3794   23.9408 N   0  0  0  0  0  0
  -24.6754  -31.0748   22.1023 N   0  0  0  0  0  0
  -23.4193  -28.8191   23.3016 O   0  0  0  0  0  0
  -28.3603  -26.5933   20.1420 O   0  0  0  0  0  0
  -26.5599  -34.8925   22.4686 O   0  0  0  0  0  0
  -23.5374  -32.1437   23.7476 O   0  0  0  0  0  0
  -31.5592  -17.5229   20.8615 C   0  0  0  0  0  0
  -30.3350  -16.8915   20.8963 C   0  0  0  0  0  0
  -30.0394  -19.0713   20.7863 C   0  0  0  0  0  0
  -29.8099  -21.5831   20.6108 C   0  0  0  0  0  0
  -28.7694  -22.6962   20.3341 C   0  0  0  0  0  0
  -29.2505  -24.1852   20.4216 C   0  0  0  0  0  0
  -28.1346  -25.1688   19.9729 C   0  0  0  0  0  0
  -31.3631  -18.9013   20.7912 N   0  0  0  0  0  0
  -29.9616  -15.5738   20.9425 N   0  0  0  0  0  0
  -29.3404  -20.3123   20.6586 N   0  0  0  0  0  0
  -30.9929  -21.8916   20.7801 O   0  0  0  0  0  0
  -29.3636  -17.8798   20.8633 O   0  0  0  0  0  0
  -31.4672  -12.4155   19.1318 H   0  0  0  0  0  0
  -30.3226  -11.3190   19.8512 H   0  0  0  0  0  0
  -29.7413  -11.7609   17.4447 H   0  0  0  0  0  0
  -29.6604  -13.4763   17.7591 H   0  0  0  0  0  0
  -27.8360  -11.3009   18.8365 H   0  0  0  0  0  0
  -27.3666  -12.6125   17.7889 H   0  0  0  0  0  0
  -27.6898  -14.2526   19.5488 H   0  0  0  0  0  0
  -28.6838  -12.0042   21.3691 H   0  0  0  0  0  0
  -28.4659  -13.6604   21.8523 H   0  0  0  0  0  0
  -25.2759   -9.5685   22.4756 H   0  0  0  0  0  0
  -24.0001   -7.4635   22.7473 H   0  0  0  0  0  0
  -21.0839   -8.8772   19.8951 H   0  0  0  0  0  0
  -22.3692  -10.9673   19.6164 H   0  0  0  0  0  0
  -21.2005   -7.6148   23.9715 H   0  0  0  0  0  0
  -21.1482   -6.0523   25.9077 H   0  0  0  0  0  0
  -22.0598   -2.7609   23.2847 H   0  0  0  0  0  0
  -22.4108  -11.9887   22.4788 H   0  0  0  0  0  0
  -21.1115  -13.1258   22.2610 H   0  0  0  0  0  0
  -24.6620  -15.8435   20.5159 H   0  0  0  0  0  0
  -26.2788  -15.6282   20.0768 H   0  0  0  0  0  0
  -26.7142  -32.5512   23.1159 H   0  0  0  0  0  0
  -25.0077  -33.9777   25.0479 H   0  0  0  0  0  0
  -22.6979  -31.3132   21.4169 H   0  0  0  0  0  0
  -23.3749  -35.9646   23.3308 H   0  0  0  0  0  0
  -24.3582  -36.8918   22.2050 H   0  0  0  0  0  0
  -23.7242  -37.6520   23.6645 H   0  0  0  0  0  0
  -26.0661  -31.5888   20.6066 H   0  0  0  0  0  0
  -26.8279  -30.8667   21.9951 H   0  0  0  0  0  0
  -28.1021  -29.0511   21.1768 H   0  0  0  0  0  0
  -25.9745  -25.9933   18.9653 H   0  0  0  0  0  0
  -23.9615  -27.3315   19.0108 H   0  0  0  0  0  0
  -23.7289  -30.6161   19.4103 H   0  0  0  0  0  0
  -22.7381  -29.2623   19.8642 H   0  0  0  0  0  0
  -25.1286  -36.1975   25.0829 H   0  0  0  0  0  0
  -20.9966  -28.3241   24.1424 H   0  0  0  0  0  0
  -20.5679  -26.2281   23.3601 H   0  0  0  0  0  0
  -21.6640  -26.7450   22.1200 H   0  0  0  0  0  0
  -19.6908  -25.6301   21.1233 H   0  0  0  0  0  0
  -19.6682  -27.3204   20.6747 H   0  0  0  0  0  0
  -17.4195  -26.6674   21.4028 H   0  0  0  0  0  0
  -18.0328  -26.0064   22.9020 H   0  0  0  0  0  0
  -19.7931  -30.7261   24.2282 H   0  0  0  0  0  0
  -17.5011  -31.6266   24.5165 H   0  0  0  0  0  0
  -15.5348  -30.2991   23.7645 H   0  0  0  0  0  0
  -15.8666  -28.0825   22.7058 H   0  0  0  0  0  0
  -24.5912  -30.7060   25.7812 H   0  0  0  0  0  0
  -24.8931  -32.2868   26.4932 H   0  0  0  0  0  0
  -25.8086  -30.8874   27.0236 H   0  0  0  0  0  0
  -26.2869  -29.6799   24.1176 H   0  0  0  0  0  0
  -27.4055  -29.7272   25.4610 H   0  0  0  0  0  0
  -27.8721  -30.4344   23.9319 H   0  0  0  0  0  0
  -27.2678  -33.3611   26.2101 H   0  0  0  0  0  0
  -28.3855  -32.6890   25.0321 H   0  0  0  0  0  0
  -28.0737  -31.8429   26.5398 H   0  0  0  0  0  0
  -28.2604  -38.0105   24.7512 H   0  0  0  0  0  0
  -28.1074  -36.2638   24.6291 H   0  0  0  0  0  0
  -27.2300  -37.1464   25.8868 H   0  0  0  0  0  0
  -20.9317  -29.8778   21.6945 H   0  0  0  0  0  0
  -26.0185  -38.2874   24.1405 H   0  0  0  0  0  0
  -32.5537  -17.0985   20.8740 H   0  0  0  0  0  0
  -27.9344  -22.5536   21.0213 H   0  0  0  0  0  0
  -28.3717  -22.5147   19.3349 H   0  0  0  0  0  0
  -30.1366  -24.3341   19.8036 H   0  0  0  0  0  0
  -29.5449  -24.4098   21.4473 H   0  0  0  0  0  0
  -27.2409  -24.8874   20.5336 H   0  0  0  0  0  0
  -27.9270  -24.9757   18.9193 H   0  0  0  0  0  0
  -29.0016  -15.3780   21.1790 H   0  0  0  0  0  0
  -28.3417  -20.2146   20.5578 H   0  0  0  0  0  0
  1 25  1  0  0  0
  1 30  2  0  0  0
  1 79  1  0  0  0
  2  3  1  0  0  0
  2 25  1  0  0  0
  2 83  1  0  0  0
  2 84  1  0  0  0
  3  4  1  0  0  0
  3 85  1  0  0  0
  3 86  1  0  0  0
  4  5  1  0  0  0
  4 87  1  0  0  0
  4 88  1  0  0  0
  5  6  1  0  0  0
  5 26  1  0  0  0
  5 89  1  0  0  0
  6 25  1  0  0  0
  6 90  1  0  0  0
  6 91  1  0  0  0
  7  8  2  0  0  0
  7 26  1  0  0  0
  7 29  1  0  0  0
  8  9  1  0  0  0
  8 22  1  0  0  0
  9 10  1  0  0  0
  9 27  2  0  0  0
 10 11  2  0  0  0
 10 15  1  0  0  0
 11 12  1  0  0  0
 11 92  1  0  0  0
 12 13  2  0  0  0
 12 93  1  0  0  0
 13 14  1  0  0  0
 13 31  1  0  0  0
 14 15  2  0  0  0
 14 94  1  0  0  0
 15 95  1  0  0  0
 16 17  2  0  0  0
 16 21  1  0  0  0
 16 31  1  0  0  0
 17 18  1  0  0  0
 17 96  1  0  0  0
 18 19  2  0  0  0
 18 97  1  0  0  0
 19 20  1  0  0  0
 19 24  1  0  0  0
 20 21  2  0  0  0
 20 98  1  0  0  0
 21 23  1  0  0  0
 22 28  1  0  0  0
 22 32  2  0  0  0
 26 27  1  0  0  0
 28 99  1  0  0  0
 28100  1  0  0  0
 29101  1  0  0  0
 29102  1  0  0  0
 33 34  1  0  0  0
 33 66  1  0  0  0
 33 70  2  0  0  0
 34 36  1  0  0  0
 34 59  1  0  0  0
 34103  1  0  0  0
 35 44  2  0  0  0
 35 45  1  0  0  0
 35 68  1  0  0  0
 36 56  1  0  0  0
 36104  1  0  0  0
 37 39  1  0  0  0
 37 47  1  0  0  0
 37 66  1  0  0  0
 37105  1  0  0  0
 38 43  2  0  0  0
 38 46  1  0  0  0
 38 47  1  0  0  0
 39 64  1  0  0  0
 39 67  2  0  0  0
 40 52  1  0  0  0
 40 53  2  0  0  0
 40 58  1  0  0  0
 41106  1  0  0  0
 41107  1  0  0  0
 41108  1  0  0  0
 41 48  1  0  0  0
 42 43  1  0  0  0
 42 66  1  0  0  0
 42109  1  0  0  0
 42110  1  0  0  0
 43 44  1  0  0  0
 44111  1  0  0  0
 45 46  2  0  0  0
 45112  1  0  0  0
 46113  1  0  0  0
 47114  1  0  0  0
 47115  1  0  0  0
 48 56  1  0  0  0
 48 65  1  0  0  0
 48116  1  0  0  0
 49 50  1  0  0  0
 49 53  1  0  0  0
 49 64  1  0  0  0
 49117  1  0  0  0
 50 51  1  0  0  0
 50118  1  0  0  0
 50119  1  0  0  0
 51 52  1  0  0  0
 51120  1  0  0  0
 51121  1  0  0  0
 52122  1  0  0  0
 52123  1  0  0  0
 53 54  1  0  0  0
 54 55  2  0  0  0
 54124  1  0  0  0
 55 57  1  0  0  0
 55125  1  0  0  0
 56 69  2  0  0  0
 57 58  2  0  0  0
 57126  1  0  0  0
 58127  1  0  0  0
 59 60  1  0  0  0
 59 61  1  0  0  0
 59 62  1  0  0  0
 60128  1  0  0  0
 60129  1  0  0  0
 60130  1  0  0  0
 61131  1  0  0  0
 61132  1  0  0  0
 61133  1  0  0  0
 62134  1  0  0  0
 62135  1  0  0  0
 62136  1  0  0  0
 63 65  1  0  0  0
 63137  1  0  0  0
 63138  1  0  0  0
 63139  1  0  0  0
 64140  1  0  0  0
 65141  1  0  0  0
 68 77  1  0  0  0
 71 72  2  0  0  0
 71 78  1  0  0  0
 71142  1  0  0  0
 72 79  1  0  0  0
 72 82  1  0  0  0
 73 78  2  0  0  0
 73 80  1  0  0  0
 73 82  1  0  0  0
 74 75  1  0  0  0
 74 80  1  0  0  0
 74 81  2  0  0  0
 75 76  1  0  0  0
 75143  1  0  0  0
 75144  1  0  0  0
 76 77  1  0  0  0
 76145  1  0  0  0
 76146  1  0  0  0
 77147  1  0  0  0
 77148  1  0  0  0
 79149  1  0  0  0
 80150  1  0  0  0
M  ISO  4   1 100  68 101  77 101  79 100
M  END
> <chiral flag>
0

> <version>
0

> <s_m_source_file>
/data/baiqing/PycharmProjects/Reinvent-master-3.2/result/LINK_invent/BTK/process_docking_weight1_custom_product_contain_oxygen_bond_distance_aromatic_linkinvent_7_9_3/rearranged_h_0162.sdf

> <i_m_source_file_index>
15

> <r_mmod_Potential_Energy-OPLS-2005>
-182.517318725586

> <r_mmod_Stretch_Energy-OPLS-2005>
43.1877021789551

> <r_mmod_Bend_Energy-OPLS-2005>
111.229370117188

> <r_mmod_Torsional_Energy-OPLS-2005>
206.209762573242

> <r_mmod_Improper_Torsional_Energy-OPLS-2005>
4.49664068222046

> <r_mmod_Van_der_Waal_Energy-OPLS-2005>
141.723907470703

> <r_mmod_Electrostatic_Energy-OPLS-2005>
-452.042602539062

> <r_mmod_Solvation_Energy-OPLS-2005>
-259.241149902344

> <b_mmod_Minimization_Converged-OPLS-2005>
0

> <r_mmod_RMS_Derivative-OPLS-2005>
0.0823725089430809

$$$$
15
                    3D
 Structure written by MMmdl.
154162  0  0  1  0            999 V2000
  -30.5968  -14.8261   20.4255 C   0  0  0  0  0  0
  -30.4305  -12.5005   19.4997 C   0  0  0  0  0  0
  -29.5173  -12.5163   18.2531 C   0  0  0  0  0  0
  -28.0450  -12.3284   18.6628 C   0  0  0  0  0  0
  -27.6375  -13.2430   19.8485 C   0  0  2  0  0  0
  -28.6785  -13.2224   20.9898 C   0  0  0  0  0  0
  -25.2484  -13.8218   20.5709 C   0  0  0  0  0  0
  -24.1788  -13.0446   20.9215 C   0  0  0  0  0  0
  -24.6395  -11.6929   20.8747 C   0  0  0  0  0  0
  -23.9077  -10.4298   21.0404 C   0  0  0  0  0  0
  -24.3625   -9.4211   21.9181 C   0  0  0  0  0  0
  -23.6297   -8.2248   22.0751 C   0  0  0  0  0  0
  -22.4280   -8.0284   21.3542 C   0  0  0  0  0  0
  -21.9916   -9.0259   20.4645 C   0  0  0  0  0  0
  -22.7247  -10.2138   20.3054 C   0  0  0  0  0  0
  -21.6856   -6.0735   22.5278 C   0  0  0  0  0  0
  -21.4016   -6.5638   23.8212 C   0  0  0  0  0  0
  -21.3661   -5.6790   24.9173 C   0  0  0  0  0  0
  -21.6045   -4.3053   24.7225 C   0  0  0  0  0  0
  -21.8818   -3.8145   23.4346 C   0  0  0  0  0  0
  -21.9193   -4.6962   22.3402 C   0  0  0  0  0  0
  -22.7808  -13.5219   21.1873 C   0  0  0  0  0  0
  -22.1663   -4.2147   21.0980 F   0  0  0  0  0  0
  -21.5628   -3.4536   25.7738 F   0  0  0  0  0  0
  -29.9759  -13.5870   20.4083 N   0  0  0  0  0  0
  -26.2917  -12.9446   20.3276 N   0  0  0  0  0  0
  -25.9330  -11.6577   20.5750 N   0  0  0  0  0  0
  -22.0458  -12.8208   22.0430 N   0  0  0  0  0  0
  -25.4161  -15.1946   20.4141 N   0  0  0  0  0  0
  -31.7914  -14.8741   20.1110 O   0  0  0  0  0  0
  -21.6643   -6.8881   21.4240 O   0  0  0  0  0  0
  -22.3492  -14.5525   20.6719 O   0  0  0  0  0  0
  -24.6366  -31.8508   23.1965 C   0  0  0  0  0  0
  -25.9171  -32.4728   23.8320 C   0  0  1  0  0  0
  -27.2103  -27.1949   20.1381 C   0  0  0  0  0  0
  -25.5948  -33.8534   24.2233 N   0  0  0  0  0  0
  -23.4365  -30.4739   21.5405 C   0  0  2  0  0  0
  -24.8844  -28.9164   20.1085 C   0  0  0  0  0  0
  -22.7533  -29.4577   22.4886 C   0  0  0  0  0  0
  -18.0299  -28.1392   22.8480 C   0  0  0  0  0  0
  -24.1492  -36.7272   23.2638 C   0  0  0  0  0  0
  -25.9889  -30.7387   21.3926 C   0  0  0  0  0  0
  -26.0569  -29.3559   20.7358 C   0  0  0  0  0  0
  -27.2178  -28.5051   20.7476 C   0  0  0  0  0  0
  -26.0236  -26.8637   19.4425 C   0  0  0  0  0  0
  -24.8769  -27.6805   19.4493 C   0  0  0  0  0  0
  -23.6593  -29.8115   20.1561 C   0  0  0  0  0  0
  -25.4119  -36.3053   24.0320 C   0  0  1  0  0  0
  -20.5907  -28.3710   23.1251 C   0  0  2  0  0  0
  -20.6785  -26.9420   22.5405 C   0  0  0  0  0  0
  -19.5758  -26.6382   21.5212 C   0  0  0  0  0  0
  -18.1940  -26.7931   22.1626 C   0  0  0  0  0  0
  -19.1554  -28.8869   23.2860 C   0  0  0  0  0  0
  -18.9472  -30.1467   23.8882 C   0  0  0  0  0  0
  -17.6469  -30.6589   24.0561 C   0  0  0  0  0  0
  -25.9067  -34.9425   23.5081 C   0  0  0  0  0  0
  -16.5360  -29.9084   23.6334 C   0  0  0  0  0  0
  -16.7284  -28.6503   23.0353 C   0  0  0  0  0  0
  -26.4515  -31.6576   25.0736 C   0  0  0  0  0  0
  -25.3714  -31.3748   26.1439 C   0  0  0  0  0  0
  -27.0377  -30.2977   24.6288 C   0  0  0  0  0  0
  -27.6054  -32.4335   25.7514 C   0  0  0  0  0  0
  -27.5582  -37.1786   24.8458 C   0  0  0  0  0  0
  -21.4233  -29.3046   22.3630 N   0  0  0  0  0  0
  -26.4286  -37.3761   23.9412 N   0  0  0  0  0  0
  -24.7064  -31.0412   22.0981 N   0  0  0  0  0  0
  -23.4207  -28.8114   23.3005 O   0  0  0  0  0  0
  -28.2762  -26.2412   20.2063 O   0  0  0  0  0  0
  -26.5645  -34.8908   22.4655 O   0  0  0  0  0  0
  -23.5501  -32.1367   23.7216 O   0  0  0  0  0  0
  -30.6907  -18.6071   18.0418 C   0  0  0  0  0  0
  -30.5482  -17.4077   18.7507 C   0  0  0  0  0  0
  -30.2913  -19.8392   18.5932 C   0  0  0  0  0  0
  -29.9969  -17.3824   20.0425 C   0  0  0  0  0  0
  -29.6866  -19.8782   19.8867 C   0  0  0  0  0  0
  -28.0449  -24.8081   20.1406 C   0  0  0  0  0  0
  -30.5458  -21.0254   17.7245 C   0  0  0  0  0  0
  -28.9107  -23.7272   20.3540 C   0  0  0  0  0  0
  -28.5233  -22.2581   20.1455 C   0  0  0  0  0  0
  -31.9874  -21.2415   17.2799 C   0  0  0  0  0  0
  -29.5717  -18.6316   20.5645 N   0  0  0  0  0  0
  -29.4504  -21.2563   20.4567 N   0  0  0  0  0  0
  -29.8545  -16.0041   20.6380 N   0  0  0  0  0  0
  -29.6748  -21.8090   17.3430 O   0  0  0  0  0  0
  -27.4098  -21.9361   19.7238 O   0  0  0  0  0  0
  -30.1697  -23.9836   20.7356 O   0  0  0  0  0  0
  -31.4725  -12.6182   19.1982 H   0  0  0  0  0  0
  -30.3782  -11.5348   20.0051 H   0  0  0  0  0  0
  -29.8146  -11.7325   17.5550 H   0  0  0  0  0  0
  -29.6342  -13.4618   17.7211 H   0  0  0  0  0  0
  -27.9146  -11.2825   18.9430 H   0  0  0  0  0  0
  -27.3887  -12.4983   17.8085 H   0  0  0  0  0  0
  -27.6186  -14.2564   19.4467 H   0  0  0  0  0  0
  -28.7275  -12.2374   21.4564 H   0  0  0  0  0  0
  -28.3983  -13.9215   21.7790 H   0  0  0  0  0  0
  -25.2768   -9.5687   22.4758 H   0  0  0  0  0  0
  -24.0005   -7.4639   22.7471 H   0  0  0  0  0  0
  -21.0845   -8.8782   19.8952 H   0  0  0  0  0  0
  -22.3704  -10.9677   19.6165 H   0  0  0  0  0  0
  -21.2010   -7.6145   23.9716 H   0  0  0  0  0  0
  -21.1484   -6.0519   25.9077 H   0  0  0  0  0  0
  -22.0596   -2.7607   23.2848 H   0  0  0  0  0  0
  -22.4079  -11.9875   22.4824 H   0  0  0  0  0  0
  -21.1074  -13.1229   22.2635 H   0  0  0  0  0  0
  -24.6460  -15.8456   20.5245 H   0  0  0  0  0  0
  -26.2600  -15.6367   20.0732 H   0  0  0  0  0  0
  -26.7233  -32.5354   23.1049 H   0  0  0  0  0  0
  -25.0075  -33.9663   25.0366 H   0  0  0  0  0  0
  -22.7358  -31.2984   21.3933 H   0  0  0  0  0  0
  -23.3759  -35.9598   23.3281 H   0  0  0  0  0  0
  -24.3584  -36.8919   22.2057 H   0  0  0  0  0  0
  -23.7240  -37.6462   23.6682 H   0  0  0  0  0  0
  -26.1412  -31.4949   20.6212 H   0  0  0  0  0  0
  -26.8618  -30.7857   22.0321 H   0  0  0  0  0  0
  -28.1084  -28.8303   21.2667 H   0  0  0  0  0  0
  -25.9413  -25.9447   18.8843 H   0  0  0  0  0  0
  -23.9882  -27.3485   18.9303 H   0  0  0  0  0  0
  -23.7911  -30.5899   19.4037 H   0  0  0  0  0  0
  -22.7753  -29.2515   19.8458 H   0  0  0  0  0  0
  -25.1301  -36.1889   25.0811 H   0  0  0  0  0  0
  -21.0000  -28.3296   24.1372 H   0  0  0  0  0  0
  -20.5684  -26.2322   23.3617 H   0  0  0  0  0  0
  -21.6652  -26.7435   22.1199 H   0  0  0  0  0  0
  -19.6919  -25.6289   21.1251 H   0  0  0  0  0  0
  -19.6693  -27.3184   20.6736 H   0  0  0  0  0  0
  -17.4207  -26.6673   21.4031 H   0  0  0  0  0  0
  -18.0342  -26.0078   22.9028 H   0  0  0  0  0  0
  -19.7947  -30.7288   24.2244 H   0  0  0  0  0  0
  -17.5021  -31.6267   24.5167 H   0  0  0  0  0  0
  -15.5360  -30.2980   23.7664 H   0  0  0  0  0  0
  -15.8685  -28.0817   22.7076 H   0  0  0  0  0  0
  -24.5902  -30.7084   25.7763 H   0  0  0  0  0  0
  -24.8892  -32.2924   26.4820 H   0  0  0  0  0  0
  -25.8009  -30.8954   27.0245 H   0  0  0  0  0  0
  -26.2988  -29.6707   24.1286 H   0  0  0  0  0  0
  -27.3992  -29.7265   25.4849 H   0  0  0  0  0  0
  -27.8896  -30.4223   23.9601 H   0  0  0  0  0  0
  -27.2649  -33.3642   26.2064 H   0  0  0  0  0  0
  -28.3878  -32.6884   25.0353 H   0  0  0  0  0  0
  -28.0710  -31.8483   26.5455 H   0  0  0  0  0  0
  -28.2571  -38.0110   24.7538 H   0  0  0  0  0  0
  -28.1106  -36.2642   24.6242 H   0  0  0  0  0  0
  -27.2305  -37.1379   25.8861 H   0  0  0  0  0  0
  -20.9430  -29.8770   21.6827 H   0  0  0  0  0  0
  -26.0157  -38.2826   24.1435 H   0  0  0  0  0  0
  -31.1261  -18.5677   17.0528 H   0  0  0  0  0  0
  -30.8695  -16.4987   18.2615 H   0  0  0  0  0  0
  -27.0297  -24.5697   19.8707 H   0  0  0  0  0  0
  -32.6823  -20.8185   18.0050 H   0  0  0  0  0  0
  -32.1980  -22.3066   17.1858 H   0  0  0  0  0  0
  -32.1604  -20.7691   16.3134 H   0  0  0  0  0  0
  -30.2521  -21.6416   20.9357 H   0  0  0  0  0  0
  -28.9859  -15.8578   21.1268 H   0  0  0  0  0  0
  -30.2484  -24.9269   20.8062 H   0  0  0  0  0  0
  1 25  1  0  0  0
  1 30  2  0  0  0
  1 83  1  0  0  0
  2  3  1  0  0  0
  2 25  1  0  0  0
  2 87  1  0  0  0
  2 88  1  0  0  0
  3  4  1  0  0  0
  3 89  1  0  0  0
  3 90  1  0  0  0
  4  5  1  0  0  0
  4 91  1  0  0  0
  4 92  1  0  0  0
  5  6  1  0  0  0
  5 26  1  0  0  0
  5 93  1  0  0  0
  6 25  1  0  0  0
  6 94  1  0  0  0
  6 95  1  0  0  0
  7  8  2  0  0  0
  7 26  1  0  0  0
  7 29  1  0  0  0
  8  9  1  0  0  0
  8 22  1  0  0  0
  9 10  1  0  0  0
  9 27  2  0  0  0
 10 11  2  0  0  0
 10 15  1  0  0  0
 11 12  1  0  0  0
 11 96  1  0  0  0
 12 13  2  0  0  0
 12 97  1  0  0  0
 13 14  1  0  0  0
 13 31  1  0  0  0
 14 15  2  0  0  0
 14 98  1  0  0  0
 15 99  1  0  0  0
 16 17  2  0  0  0
 16 21  1  0  0  0
 16 31  1  0  0  0
 17 18  1  0  0  0
 17100  1  0  0  0
 18 19  2  0  0  0
 18101  1  0  0  0
 19 20  1  0  0  0
 19 24  1  0  0  0
 20 21  2  0  0  0
 20102  1  0  0  0
 21 23  1  0  0  0
 22 28  1  0  0  0
 22 32  2  0  0  0
 26 27  1  0  0  0
 28103  1  0  0  0
 28104  1  0  0  0
 29105  1  0  0  0
 29106  1  0  0  0
 33 34  1  0  0  0
 33 66  1  0  0  0
 33 70  2  0  0  0
 34 36  1  0  0  0
 34 59  1  0  0  0
 34107  1  0  0  0
 35 44  2  0  0  0
 35 45  1  0  0  0
 35 68  1  0  0  0
 36 56  1  0  0  0
 36108  1  0  0  0
 37 39  1  0  0  0
 37 47  1  0  0  0
 37 66  1  0  0  0
 37109  1  0  0  0
 38 43  2  0  0  0
 38 46  1  0  0  0
 38 47  1  0  0  0
 39 64  1  0  0  0
 39 67  2  0  0  0
 40 52  1  0  0  0
 40 53  2  0  0  0
 40 58  1  0  0  0
 41110  1  0  0  0
 41111  1  0  0  0
 41112  1  0  0  0
 41 48  1  0  0  0
 42 43  1  0  0  0
 42 66  1  0  0  0
 42113  1  0  0  0
 42114  1  0  0  0
 43 44  1  0  0  0
 44115  1  0  0  0
 45 46  2  0  0  0
 45116  1  0  0  0
 46117  1  0  0  0
 47118  1  0  0  0
 47119  1  0  0  0
 48 56  1  0  0  0
 48 65  1  0  0  0
 48120  1  0  0  0
 49 50  1  0  0  0
 49 53  1  0  0  0
 49 64  1  0  0  0
 49121  1  0  0  0
 50 51  1  0  0  0
 50122  1  0  0  0
 50123  1  0  0  0
 51 52  1  0  0  0
 51124  1  0  0  0
 51125  1  0  0  0
 52126  1  0  0  0
 52127  1  0  0  0
 53 54  1  0  0  0
 54 55  2  0  0  0
 54128  1  0  0  0
 55 57  1  0  0  0
 55129  1  0  0  0
 56 69  2  0  0  0
 57 58  2  0  0  0
 57130  1  0  0  0
 58131  1  0  0  0
 59 60  1  0  0  0
 59 61  1  0  0  0
 59 62  1  0  0  0
 60132  1  0  0  0
 60133  1  0  0  0
 60134  1  0  0  0
 61135  1  0  0  0
 61136  1  0  0  0
 61137  1  0  0  0
 62138  1  0  0  0
 62139  1  0  0  0
 62140  1  0  0  0
 63 65  1  0  0  0
 63141  1  0  0  0
 63142  1  0  0  0
 63143  1  0  0  0
 64144  1  0  0  0
 65145  1  0  0  0
 68 76  1  0  0  0
 71 72  2  0  0  0
 71 73  1  0  0  0
 71146  1  0  0  0
 72 74  1  0  0  0
 72147  1  0  0  0
 73 75  2  0  0  0
 73 77  1  0  0  0
 74 81  2  0  0  0
 74 83  1  0  0  0
 75 81  1  0  0  0
 75 82  1  0  0  0
 76 78  2  0  0  0
 76148  1  0  0  0
 77 80  1  0  0  0
 77 84  2  0  0  0
 78 79  1  0  0  0
 78 86  1  0  0  0
 79 82  1  0  0  0
 79 85  2  0  0  0
 80149  1  0  0  0
 80150  1  0  0  0
 80151  1  0  0  0
 82152  1  0  0  0
 83153  1  0  0  0
 86154  1  0  0  0
M  ISO  4   1 100  68 101  76 101  83 100
M  END
> <chiral flag>
0

> <version>
0

> <s_m_source_file>
/data/baiqing/PycharmProjects/Reinvent-master-3.2/result/LINK_invent/BTK/process_docking_weight1_custom_product_contain_oxygen_bond_distance_aromatic_linkinvent_7_9_3/rearranged_h_0162.sdf

> <i_m_source_file_index>
16

> <r_mmod_Potential_Energy-OPLS-2005>
149.561569213867

> <r_mmod_Stretch_Energy-OPLS-2005>
173.308532714844

> <r_mmod_Bend_Energy-OPLS-2005>
183.917129516602

> <r_mmod_Torsional_Energy-OPLS-2005>
305.405975341797

> <r_mmod_Improper_Torsional_Energy-OPLS-2005>
6.39329147338867

> <r_mmod_Van_der_Waal_Energy-OPLS-2005>
149.855850219727

> <r_mmod_Electrostatic_Energy-OPLS-2005>
-545.551086425781

> <r_mmod_Solvation_Energy-OPLS-2005>
-252.632919311523

> <b_mmod_Minimization_Converged-OPLS-2005>
0

> <r_mmod_RMS_Derivative-OPLS-2005>
0.287963300943375

$$$$
16
                    3D
 Structure written by MMmdl.
165173  0  0  1  0            999 V2000
  -30.6650  -14.5300   20.5761 C   0  0  0  0  0  0
  -30.4302  -12.3379   19.4424 C   0  0  0  0  0  0
  -29.5120  -12.5260   18.2143 C   0  0  0  0  0  0
  -28.0258  -12.3907   18.6103 C   0  0  0  0  0  0
  -27.6618  -13.2171   19.8722 C   0  0  2  0  0  0
  -28.6989  -13.0052   20.9967 C   0  0  0  0  0  0
  -25.2566  -13.8160   20.5651 C   0  0  0  0  0  0
  -24.1825  -13.0429   20.9146 C   0  0  0  0  0  0
  -24.6394  -11.6898   20.8697 C   0  0  0  0  0  0
  -23.9064  -10.4268   21.0377 C   0  0  0  0  0  0
  -24.3603   -9.4192   21.9176 C   0  0  0  0  0  0
  -23.6270   -8.2228   22.0760 C   0  0  0  0  0  0
  -22.4250   -8.0272   21.3541 C   0  0  0  0  0  0
  -21.9891   -9.0247   20.4654 C   0  0  0  0  0  0
  -22.7218  -10.2114   20.3040 C   0  0  0  0  0  0
  -21.6847   -6.0718   22.5264 C   0  0  0  0  0  0
  -21.4024   -6.5628   23.8199 C   0  0  0  0  0  0
  -21.3675   -5.6773   24.9161 C   0  0  0  0  0  0
  -21.6047   -4.3032   24.7201 C   0  0  0  0  0  0
  -21.8823   -3.8131   23.4317 C   0  0  0  0  0  0
  -21.9202   -4.6949   22.3379 C   0  0  0  0  0  0
  -22.7845  -13.5248   21.1810 C   0  0  0  0  0  0
  -22.1658   -4.2135   21.0952 F   0  0  0  0  0  0
  -21.5651   -3.4533   25.7714 F   0  0  0  0  0  0
  -30.0271  -13.3302   20.4525 N   0  0  0  0  0  0
  -26.3021  -12.9348   20.3329 N   0  0  0  0  0  0
  -25.9335  -11.6503   20.5723 N   0  0  0  0  0  0
  -22.0470  -12.8274   22.0359 N   0  0  0  0  0  0
  -25.4257  -15.1886   20.4063 N   0  0  0  0  0  0
  -31.8090  -14.7174   20.1481 O   0  0  0  0  0  0
  -21.6623   -6.8861   21.4226 O   0  0  0  0  0  0
  -22.3550  -14.5546   20.6639 O   0  0  0  0  0  0
  -24.6161  -31.8646   23.2058 C   0  0  0  0  0  0
  -25.9040  -32.4807   23.8371 C   0  0  1  0  0  0
  -27.2347  -27.4059   20.1109 C   0  0  0  0  0  0
  -25.5892  -33.8603   24.2298 N   0  0  0  0  0  0
  -23.4049  -30.4883   21.5461 C   0  0  2  0  0  0
  -24.8503  -28.9511   20.1095 C   0  0  0  0  0  0
  -22.7418  -29.4649   22.4968 C   0  0  0  0  0  0
  -18.0272  -28.1390   22.8476 C   0  0  0  0  0  0
  -24.1490  -36.7318   23.2635 C   0  0  0  0  0  0
  -25.9332  -30.8283   21.3554 C   0  0  0  0  0  0
  -26.0091  -29.4585   20.7070 C   0  0  0  0  0  0
  -27.1985  -28.6933   20.7033 C   0  0  0  0  0  0
  -26.0500  -26.9162   19.5103 C   0  0  0  0  0  0
  -24.8680  -27.6821   19.5066 C   0  0  0  0  0  0
  -23.6113  -29.8166   20.1604 C   0  0  0  0  0  0
  -25.4102  -36.3103   24.0336 C   0  0  1  0  0  0
  -20.5864  -28.3673   23.1313 C   0  0  2  0  0  0
  -20.6757  -26.9406   22.5417 C   0  0  0  0  0  0
  -19.5736  -26.6389   21.5206 C   0  0  0  0  0  0
  -18.1918  -26.7931   22.1617 C   0  0  0  0  0  0
  -19.1523  -28.8846   23.2887 C   0  0  0  0  0  0
  -18.9450  -30.1454   23.8900 C   0  0  0  0  0  0
  -17.6451  -30.6585   24.0572 C   0  0  0  0  0  0
  -25.9031  -34.9470   23.5115 C   0  0  0  0  0  0
  -16.5341  -29.9094   23.6322 C   0  0  0  0  0  0
  -16.7265  -28.6517   23.0328 C   0  0  0  0  0  0
  -26.4464  -31.6593   25.0709 C   0  0  0  0  0  0
  -25.3732  -31.3714   26.1470 C   0  0  0  0  0  0
  -27.0265  -30.3027   24.6076 C   0  0  0  0  0  0
  -27.6042  -32.4314   25.7477 C   0  0  0  0  0  0
  -27.5587  -37.1796   24.8441 C   0  0  0  0  0  0
  -21.4145  -29.3028   22.3711 N   0  0  0  0  0  0
  -26.4279  -37.3794   23.9426 N   0  0  0  0  0  0
  -24.6707  -31.0759   22.0949 N   0  0  0  0  0  0
  -23.4194  -28.8187   23.3010 O   0  0  0  0  0  0
  -28.4160  -26.6847   20.1868 O   0  0  0  0  0  0
  -26.5601  -34.8925   22.4684 O   0  0  0  0  0  0
  -23.5349  -32.1410   23.7451 O   0  0  0  0  0  0
  -29.2193  -17.9107   20.5042 C   0  0  0  0  0  0
  -31.2774  -17.5411   21.5617 C   0  0  0  0  0  0
  -30.1566  -16.9547   21.0311 C   0  0  0  0  0  0
  -29.6627  -19.2204   20.5701 C   0  0  0  0  0  0
  -29.0865  -20.4758   19.9841 C   0  0  0  0  0  0
  -28.8678  -24.2054   20.3383 C   0  0  0  0  0  0
  -30.7586  -21.7024   16.9650 C   0  0  0  0  0  0
  -29.9234  -24.0608   16.6750 C   0  0  0  0  0  0
  -32.3489  -23.6314   17.0090 C   0  0  0  0  0  0
  -28.6051  -25.4590   19.4500 C   0  0  0  0  0  0
  -30.8258  -23.2559   18.9602 C   0  0  0  0  0  0
  -29.4370  -22.9490   19.5988 C   0  0  1  0  0  0
  -30.9396  -23.1619   17.4138 C   0  0  0  0  0  0
  -29.8940  -15.5420   21.0488 N   0  0  0  0  0  0
  -29.5214  -21.6913   20.3965 N   0  0  0  0  0  0
  -28.2306  -20.3695   19.1041 O   0  0  0  0  0  0
  -28.6664  -24.2359   21.5574 O   0  0  0  0  0  0
  -31.2320  -19.2837   21.3566 S   0  0  0  0  0  0
  -31.4793  -12.4391   19.1629 H   0  0  0  0  0  0
  -30.3287  -11.3289   19.8471 H   0  0  0  0  0  0
  -29.7644  -11.7967   17.4431 H   0  0  0  0  0  0
  -29.6852  -13.5077   17.7685 H   0  0  0  0  0  0
  -27.8218  -11.3348   18.7893 H   0  0  0  0  0  0
  -27.3887  -12.6885   17.7758 H   0  0  0  0  0  0
  -27.7018  -14.2652   19.5757 H   0  0  0  0  0  0
  -28.6849  -11.9665   21.3280 H   0  0  0  0  0  0
  -28.4512  -13.5949   21.8803 H   0  0  0  0  0  0
  -25.2754   -9.5690   22.4745 H   0  0  0  0  0  0
  -23.9992   -7.4633   22.7495 H   0  0  0  0  0  0
  -21.0817   -8.8760   19.8969 H   0  0  0  0  0  0
  -22.3684  -10.9645   19.6138 H   0  0  0  0  0  0
  -21.2004   -7.6128   23.9695 H   0  0  0  0  0  0
  -21.1514   -6.0496   25.9065 H   0  0  0  0  0  0
  -22.0597   -2.7592   23.2792 H   0  0  0  0  0  0
  -22.4079  -11.9962   22.4786 H   0  0  0  0  0  0
  -21.1102  -13.1342   22.2530 H   0  0  0  0  0  0
  -24.6432  -15.8303   20.4763 H   0  0  0  0  0  0
  -26.2743  -15.6318   20.0794 H   0  0  0  0  0  0
  -26.7112  -32.5502   23.1129 H   0  0  0  0  0  0
  -25.0036  -33.9753   25.0447 H   0  0  0  0  0  0
  -22.6928  -31.3050   21.4063 H   0  0  0  0  0  0
  -23.3748  -35.9650   23.3258 H   0  0  0  0  0  0
  -24.3595  -36.8973   22.2055 H   0  0  0  0  0  0
  -23.7236  -37.6514   23.6671 H   0  0  0  0  0  0
  -26.0369  -31.5902   20.5819 H   0  0  0  0  0  0
  -26.8237  -30.8896   21.9686 H   0  0  0  0  0  0
  -28.0928  -29.0820   21.1693 H   0  0  0  0  0  0
  -25.9939  -25.9350   19.0658 H   0  0  0  0  0  0
  -23.9726  -27.2824   19.0507 H   0  0  0  0  0  0
  -23.7138  -30.5876   19.3954 H   0  0  0  0  0  0
  -22.7353  -29.2320   19.8718 H   0  0  0  0  0  0
  -25.1272  -36.1954   25.0825 H   0  0  0  0  0  0
  -20.9964  -28.3248   24.1431 H   0  0  0  0  0  0
  -20.5649  -26.2285   23.3610 H   0  0  0  0  0  0
  -21.6635  -26.7434   22.1227 H   0  0  0  0  0  0
  -19.6895  -25.6303   21.1233 H   0  0  0  0  0  0
  -19.6681  -27.3205   20.6742 H   0  0  0  0  0  0
  -17.4190  -26.6677   21.4019 H   0  0  0  0  0  0
  -18.0315  -26.0089   22.9029 H   0  0  0  0  0  0
  -19.7929  -30.7266   24.2274 H   0  0  0  0  0  0
  -17.5009  -31.6256   24.5192 H   0  0  0  0  0  0
  -15.5348  -30.2993   23.7647 H   0  0  0  0  0  0
  -15.8669  -28.0850   22.7018 H   0  0  0  0  0  0
  -24.5880  -30.7086   25.7818 H   0  0  0  0  0  0
  -24.8951  -32.2873   26.4948 H   0  0  0  0  0  0
  -25.8089  -30.8861   27.0210 H   0  0  0  0  0  0
  -26.2784  -29.6818   24.1129 H   0  0  0  0  0  0
  -27.4022  -29.7243   25.4524 H   0  0  0  0  0  0
  -27.8633  -30.4328   23.9210 H   0  0  0  0  0  0
  -27.2653  -33.3602   26.2076 H   0  0  0  0  0  0
  -28.3842  -32.6890   25.0303 H   0  0  0  0  0  0
  -28.0719  -31.8425   26.5376 H   0  0  0  0  0  0
  -28.2554  -38.0145   24.7561 H   0  0  0  0  0  0
  -28.1135  -36.2677   24.6163 H   0  0  0  0  0  0
  -27.2317  -37.1325   25.8845 H   0  0  0  0  0  0
  -20.9319  -29.8758   21.6929 H   0  0  0  0  0  0
  -26.0159  -38.2863   24.1471 H   0  0  0  0  0  0
  -28.2822  -17.6172   20.0539 H   0  0  0  0  0  0
  -32.1257  -17.0729   22.0500 H   0  0  0  0  0  0
  -30.9513  -21.5897   15.8981 H   0  0  0  0  0  0
  -29.7435  -21.3514   17.1441 H   0  0  0  0  0  0
  -31.4351  -21.0309   17.4959 H   0  0  0  0  0  0
  -30.0167  -23.9465   15.5945 H   0  0  0  0  0  0
  -30.0857  -25.1171   16.8870 H   0  0  0  0  0  0
  -28.8879  -23.8253   16.9175 H   0  0  0  0  0  0
  -32.4920  -23.5845   15.9289 H   0  0  0  0  0  0
  -33.1263  -23.0211   17.4696 H   0  0  0  0  0  0
  -32.5262  -24.6651   17.3107 H   0  0  0  0  0  0
  -27.8290  -25.2436   18.7215 H   0  0  0  0  0  0
  -29.5064  -25.6365   18.8688 H   0  0  0  0  0  0
  -31.5753  -22.5965   19.4006 H   0  0  0  0  0  0
  -31.1672  -24.2461   19.2694 H   0  0  0  0  0  0
  -28.7227  -22.7616   18.8000 H   0  0  0  0  0  0
  -28.9418  -15.2744   21.2456 H   0  0  0  0  0  0
  -30.1382  -21.7108   21.1975 H   0  0  0  0  0  0
  1 25  1  0  0  0
  1 30  2  0  0  0
  1 84  1  0  0  0
  2  3  1  0  0  0
  2 25  1  0  0  0
  2 89  1  0  0  0
  2 90  1  0  0  0
  3  4  1  0  0  0
  3 91  1  0  0  0
  3 92  1  0  0  0
  4  5  1  0  0  0
  4 93  1  0  0  0
  4 94  1  0  0  0
  5  6  1  0  0  0
  5 26  1  0  0  0
  5 95  1  0  0  0
  6 25  1  0  0  0
  6 96  1  0  0  0
  6 97  1  0  0  0
  7  8  2  0  0  0
  7 26  1  0  0  0
  7 29  1  0  0  0
  8  9  1  0  0  0
  8 22  1  0  0  0
  9 10  1  0  0  0
  9 27  2  0  0  0
 10 11  2  0  0  0
 10 15  1  0  0  0
 11 12  1  0  0  0
 11 98  1  0  0  0
 12 13  2  0  0  0
 12 99  1  0  0  0
 13 14  1  0  0  0
 13 31  1  0  0  0
 14 15  2  0  0  0
 14100  1  0  0  0
 15101  1  0  0  0
 16 17  2  0  0  0
 16 21  1  0  0  0
 16 31  1  0  0  0
 17 18  1  0  0  0
 17102  1  0  0  0
 18 19  2  0  0  0
 18103  1  0  0  0
 19 20  1  0  0  0
 19 24  1  0  0  0
 20 21  2  0  0  0
 20104  1  0  0  0
 21 23  1  0  0  0
 22 28  1  0  0  0
 22 32  2  0  0  0
 26 27  1  0  0  0
 28105  1  0  0  0
 28106  1  0  0  0
 29107  1  0  0  0
 29108  1  0  0  0
 33 34  1  0  0  0
 33 66  1  0  0  0
 33 70  2  0  0  0
 34 36  1  0  0  0
 34 59  1  0  0  0
 34109  1  0  0  0
 35 44  2  0  0  0
 35 45  1  0  0  0
 35 68  1  0  0  0
 36 56  1  0  0  0
 36110  1  0  0  0
 37 39  1  0  0  0
 37 47  1  0  0  0
 37 66  1  0  0  0
 37111  1  0  0  0
 38 43  2  0  0  0
 38 46  1  0  0  0
 38 47  1  0  0  0
 39 64  1  0  0  0
 39 67  2  0  0  0
 40 52  1  0  0  0
 40 53  2  0  0  0
 40 58  1  0  0  0
 41112  1  0  0  0
 41113  1  0  0  0
 41114  1  0  0  0
 41 48  1  0  0  0
 42 43  1  0  0  0
 42 66  1  0  0  0
 42115  1  0  0  0
 42116  1  0  0  0
 43 44  1  0  0  0
 44117  1  0  0  0
 45 46  2  0  0  0
 45118  1  0  0  0
 46119  1  0  0  0
 47120  1  0  0  0
 47121  1  0  0  0
 48 56  1  0  0  0
 48 65  1  0  0  0
 48122  1  0  0  0
 49 50  1  0  0  0
 49 53  1  0  0  0
 49 64  1  0  0  0
 49123  1  0  0  0
 50 51  1  0  0  0
 50124  1  0  0  0
 50125  1  0  0  0
 51 52  1  0  0  0
 51126  1  0  0  0
 51127  1  0  0  0
 52128  1  0  0  0
 52129  1  0  0  0
 53 54  1  0  0  0
 54 55  2  0  0  0
 54130  1  0  0  0
 55 57  1  0  0  0
 55131  1  0  0  0
 56 69  2  0  0  0
 57 58  2  0  0  0
 57132  1  0  0  0
 58133  1  0  0  0
 59 60  1  0  0  0
 59 61  1  0  0  0
 59 62  1  0  0  0
 60134  1  0  0  0
 60135  1  0  0  0
 60136  1  0  0  0
 61137  1  0  0  0
 61138  1  0  0  0
 61139  1  0  0  0
 62140  1  0  0  0
 62141  1  0  0  0
 62142  1  0  0  0
 63 65  1  0  0  0
 63143  1  0  0  0
 63144  1  0  0  0
 63145  1  0  0  0
 64146  1  0  0  0
 65147  1  0  0  0
 68 80  1  0  0  0
 71 73  1  0  0  0
 71 74  2  0  0  0
 71148  1  0  0  0
 72 73  2  0  0  0
 72 88  1  0  0  0
 72149  1  0  0  0
 73 84  1  0  0  0
 74 75  1  0  0  0
 74 88  1  0  0  0
 75 85  1  0  0  0
 75 86  2  0  0  0
 76 80  1  0  0  0
 76 82  1  0  0  0
 76 87  2  0  0  0
 77150  1  0  0  0
 77151  1  0  0  0
 77152  1  0  0  0
 77 83  1  0  0  0
 78 83  1  0  0  0
 78153  1  0  0  0
 78154  1  0  0  0
 78155  1  0  0  0
 79 83  1  0  0  0
 79156  1  0  0  0
 79157  1  0  0  0
 79158  1  0  0  0
 80159  1  0  0  0
 80160  1  0  0  0
 81 83  1  0  0  0
 81161  1  0  0  0
 81162  1  0  0  0
 81 82  1  0  0  0
 82 85  1  0  0  0
 82163  1  0  0  0
 84164  1  0  0  0
 85165  1  0  0  0
M  ISO  4   1 100  68 101  80 101  84 100
M  END
> <chiral flag>
0

> <version>
0

> <s_m_source_file>
/data/baiqing/PycharmProjects/Reinvent-master-3.2/result/LINK_invent/BTK/process_docking_weight1_custom_product_contain_oxygen_bond_distance_aromatic_linkinvent_7_9_3/rearranged_h_0162.sdf

> <i_m_source_file_index>
17

> <r_mmod_Potential_Energy-OPLS-2005>
-28.3393096923828

> <r_mmod_Stretch_Energy-OPLS-2005>
48.1516761779785

> <r_mmod_Bend_Energy-OPLS-2005>
130.52946472168

> <r_mmod_Torsional_Energy-OPLS-2005>
263.503173828125

> <r_mmod_Improper_Torsional_Energy-OPLS-2005>
5.49700784683228

> <r_mmod_Van_der_Waal_Energy-OPLS-2005>
130.808517456055

> <r_mmod_Electrostatic_Energy-OPLS-2005>
-383.505798339844

> <r_mmod_Solvation_Energy-OPLS-2005>
-243.825988769531

> <b_mmod_Minimization_Converged-OPLS-2005>
0

> <r_mmod_RMS_Derivative-OPLS-2005>
3.20936250686646

$$$$
17
                    3D
 Structure written by MMmdl.
155163  0  0  1  0            999 V2000
  -30.6920  -14.4829   20.4783 C   0  0  0  0  0  0
  -30.3937  -12.2827   19.4538 C   0  0  0  0  0  0
  -29.4860  -12.4984   18.2232 C   0  0  0  0  0  0
  -28.0029  -12.3795   18.6255 C   0  0  0  0  0  0
  -27.6505  -13.2226   19.8819 C   0  0  2  0  0  0
  -28.6917  -13.0253   21.0074 C   0  0  0  0  0  0
  -25.2507  -13.8187   20.5752 C   0  0  0  0  0  0
  -24.1781  -13.0445   20.9218 C   0  0  0  0  0  0
  -24.6355  -11.6912   20.8749 C   0  0  0  0  0  0
  -23.9023  -10.4300   21.0440 C   0  0  0  0  0  0
  -24.3579   -9.4227   21.9227 C   0  0  0  0  0  0
  -23.6286   -8.2246   22.0785 C   0  0  0  0  0  0
  -22.4273   -8.0267   21.3565 C   0  0  0  0  0  0
  -21.9885   -9.0232   20.4677 C   0  0  0  0  0  0
  -22.7193  -10.2136   20.3102 C   0  0  0  0  0  0
  -21.6833   -6.0741   22.5283 C   0  0  0  0  0  0
  -21.4003   -6.5662   23.8204 C   0  0  0  0  0  0
  -21.3674   -5.6819   24.9176 C   0  0  0  0  0  0
  -21.6036   -4.3070   24.7230 C   0  0  0  0  0  0
  -21.8802   -3.8159   23.4349 C   0  0  0  0  0  0
  -21.9191   -4.6975   22.3410 C   0  0  0  0  0  0
  -22.7809  -13.5235   21.1878 C   0  0  0  0  0  0
  -22.1661   -4.2184   21.0982 F   0  0  0  0  0  0
  -21.5628   -3.4556   25.7746 F   0  0  0  0  0  0
  -30.0223  -13.2983   20.4514 N   0  0  0  0  0  0
  -26.2952  -12.9398   20.3428 N   0  0  0  0  0  0
  -25.9294  -11.6537   20.5819 N   0  0  0  0  0  0
  -22.0430  -12.8221   22.0434 N   0  0  0  0  0  0
  -25.4175  -15.1925   20.4199 N   0  0  0  0  0  0
  -31.8711  -14.5576   20.1199 O   0  0  0  0  0  0
  -21.6622   -6.8884   21.4252 O   0  0  0  0  0  0
  -22.3520  -14.5564   20.6774 O   0  0  0  0  0  0
  -24.6158  -31.8634   23.2148 C   0  0  0  0  0  0
  -25.9027  -32.4788   23.8462 C   0  0  1  0  0  0
  -27.2243  -27.4236   20.1123 C   0  0  0  0  0  0
  -25.5884  -33.8604   24.2354 N   0  0  0  0  0  0
  -23.4046  -30.4911   21.5534 C   0  0  2  0  0  0
  -24.8497  -28.9571   20.1190 C   0  0  0  0  0  0
  -22.7408  -29.4683   22.5010 C   0  0  0  0  0  0
  -18.0250  -28.1363   22.8516 C   0  0  0  0  0  0
  -24.1475  -36.7336   23.2632 C   0  0  0  0  0  0
  -25.9329  -30.8320   21.3661 C   0  0  0  0  0  0
  -26.0124  -29.4654   20.7121 C   0  0  0  0  0  0
  -27.2058  -28.7087   20.7017 C   0  0  0  0  0  0
  -26.0464  -26.9246   19.5177 C   0  0  0  0  0  0
  -24.8607  -27.6835   19.5198 C   0  0  0  0  0  0
  -23.6122  -29.8252   20.1696 C   0  0  0  0  0  0
  -25.4086  -36.3087   24.0329 C   0  0  1  0  0  0
  -20.5869  -28.3694   23.1314 C   0  0  2  0  0  0
  -20.6759  -26.9429   22.5425 C   0  0  0  0  0  0
  -19.5741  -26.6381   21.5216 C   0  0  0  0  0  0
  -18.1906  -26.7930   22.1607 C   0  0  0  0  0  0
  -19.1518  -28.8843   23.2909 C   0  0  0  0  0  0
  -18.9443  -30.1438   23.8948 C   0  0  0  0  0  0
  -17.6455  -30.6600   24.0584 C   0  0  0  0  0  0
  -25.9034  -34.9447   23.5144 C   0  0  0  0  0  0
  -16.5342  -29.9125   23.6322 C   0  0  0  0  0  0
  -16.7255  -28.6503   23.0406 C   0  0  0  0  0  0
  -26.4468  -31.6589   25.0801 C   0  0  0  0  0  0
  -25.3766  -31.3629   26.1599 C   0  0  0  0  0  0
  -27.0325  -30.3039   24.6197 C   0  0  0  0  0  0
  -27.6053  -32.4360   25.7507 C   0  0  0  0  0  0
  -27.5574  -37.1784   24.8430 C   0  0  0  0  0  0
  -21.4145  -29.3055   22.3710 N   0  0  0  0  0  0
  -26.4248  -37.3805   23.9441 N   0  0  0  0  0  0
  -24.6687  -31.0781   22.1022 N   0  0  0  0  0  0
  -23.4156  -28.8208   23.3061 O   0  0  0  0  0  0
  -28.3770  -26.6741   20.0945 O   0  0  0  0  0  0
  -26.5600  -34.8868   22.4723 O   0  0  0  0  0  0
  -23.5345  -32.1413   23.7542 O   0  0  0  0  0  0
  -28.6850  -19.8497   22.0261 C   0  0  0  0  0  0
  -29.1843  -18.4938   22.0517 C   0  0  0  0  0  0
  -29.4986  -18.0213   20.7847 C   0  0  0  0  0  0
  -28.6724  -20.4120   20.7720 C   0  0  0  0  0  0
  -29.3993  -17.7297   23.2862 C   0  0  0  0  0  0
  -30.2063  -16.8263   20.2259 C   0  0  0  0  0  0
  -28.2054  -24.1956   20.3278 C   0  0  0  0  0  0
  -29.2119  -18.4549   24.6166 C   0  0  0  0  0  0
  -28.3580  -22.8981   21.1664 C   0  0  0  0  0  0
  -28.4060  -25.5655   21.0206 C   0  0  0  0  0  0
  -28.3247  -21.6939   20.3250 N   0  0  0  0  0  0
  -29.9394  -15.5872   20.7030 N   0  0  0  0  0  0
  -29.7515  -16.5498   23.3390 O   0  0  0  0  0  0
  -30.9919  -17.0228   19.2885 O   0  0  0  0  0  0
  -27.9444  -24.1238   19.1217 O   0  0  0  0  0  0
  -29.1898  -19.2598   19.5810 S   0  0  0  0  0  0
  -31.4468  -12.3326   19.1736 H   0  0  0  0  0  0
  -30.2433  -11.2841   19.8663 H   0  0  0  0  0  0
  -29.7218  -11.7749   17.4416 H   0  0  0  0  0  0
  -29.6667  -13.4870   17.7948 H   0  0  0  0  0  0
  -27.7921  -11.3252   18.8137 H   0  0  0  0  0  0
  -27.3633  -12.6762   17.7920 H   0  0  0  0  0  0
  -27.6855  -14.2690   19.5776 H   0  0  0  0  0  0
  -28.6554  -11.9997   21.3754 H   0  0  0  0  0  0
  -28.4787  -13.6668   21.8634 H   0  0  0  0  0  0
  -25.2684   -9.5727   22.4841 H   0  0  0  0  0  0
  -23.9981   -7.4648   22.7520 H   0  0  0  0  0  0
  -21.0796   -8.8771   19.8980 H   0  0  0  0  0  0
  -22.3640  -10.9706   19.6246 H   0  0  0  0  0  0
  -21.1990   -7.6167   23.9735 H   0  0  0  0  0  0
  -21.1515   -6.0547   25.9091 H   0  0  0  0  0  0
  -22.0568   -2.7630   23.2838 H   0  0  0  0  0  0
  -22.4014  -11.9810   22.4700 H   0  0  0  0  0  0
  -21.1112  -13.1346   22.2781 H   0  0  0  0  0  0
  -24.6404  -15.8325   20.5284 H   0  0  0  0  0  0
  -26.2594  -15.6428   20.0865 H   0  0  0  0  0  0
  -26.7100  -32.5514   23.1230 H   0  0  0  0  0  0
  -24.9975  -33.9772   25.0460 H   0  0  0  0  0  0
  -22.6931  -31.3068   21.4138 H   0  0  0  0  0  0
  -23.3719  -35.9685   23.3226 H   0  0  0  0  0  0
  -24.3557  -36.9077   22.2064 H   0  0  0  0  0  0
  -23.7251  -37.6507   23.6751 H   0  0  0  0  0  0
  -26.0401  -31.5965   20.5950 H   0  0  0  0  0  0
  -26.8191  -30.8855   21.9886 H   0  0  0  0  0  0
  -28.1105  -29.0976   21.1495 H   0  0  0  0  0  0
  -26.0393  -25.9471   19.0539 H   0  0  0  0  0  0
  -23.9628  -27.2913   19.0612 H   0  0  0  0  0  0
  -23.7101  -30.6003   19.4081 H   0  0  0  0  0  0
  -22.7316  -29.2439   19.8868 H   0  0  0  0  0  0
  -25.1230  -36.1915   25.0814 H   0  0  0  0  0  0
  -20.9945  -28.3312   24.1449 H   0  0  0  0  0  0
  -20.5676  -26.2317   23.3628 H   0  0  0  0  0  0
  -21.6615  -26.7473   22.1199 H   0  0  0  0  0  0
  -19.6938  -25.6297   21.1254 H   0  0  0  0  0  0
  -19.6682  -27.3167   20.6738 H   0  0  0  0  0  0
  -17.4166  -26.6728   21.3990 H   0  0  0  0  0  0
  -18.0262  -26.0037   22.8958 H   0  0  0  0  0  0
  -19.7911  -30.7239   24.2370 H   0  0  0  0  0  0
  -17.4995  -31.6285   24.5156 H   0  0  0  0  0  0
  -15.5353  -30.3047   23.7629 H   0  0  0  0  0  0
  -15.8633  -28.0813   22.7194 H   0  0  0  0  0  0
  -24.6068  -30.6787   25.8019 H   0  0  0  0  0  0
  -24.8778  -32.2688   26.5042 H   0  0  0  0  0  0
  -25.8193  -30.8921   27.0393 H   0  0  0  0  0  0
  -26.2885  -29.6734   24.1320 H   0  0  0  0  0  0
  -27.4149  -29.7334   25.4666 H   0  0  0  0  0  0
  -27.8674  -30.4314   23.9318 H   0  0  0  0  0  0
  -27.2716  -33.3738   26.1962 H   0  0  0  0  0  0
  -28.3900  -32.6819   25.0334 H   0  0  0  0  0  0
  -28.0682  -31.8580   26.5512 H   0  0  0  0  0  0
  -28.2500  -38.0165   24.7622 H   0  0  0  0  0  0
  -28.1182  -36.2720   24.6086 H   0  0  0  0  0  0
  -27.2309  -37.1241   25.8827 H   0  0  0  0  0  0
  -20.9327  -29.8707   21.6854 H   0  0  0  0  0  0
  -26.0111  -38.2853   24.1567 H   0  0  0  0  0  0
  -28.3940  -20.3699   22.9277 H   0  0  0  0  0  0
  -29.7523  -19.4008   24.6270 H   0  0  0  0  0  0
  -29.6138  -17.8411   25.4241 H   0  0  0  0  0  0
  -28.1556  -18.6371   24.8178 H   0  0  0  0  0  0
  -27.5437  -22.8543   21.8914 H   0  0  0  0  0  0
  -29.2849  -22.9490   21.7376 H   0  0  0  0  0  0
  -29.3869  -25.5633   21.4951 H   0  0  0  0  0  0
  -27.6761  -25.6861   21.8233 H   0  0  0  0  0  0
  -28.3813  -21.9099   19.3304 H   0  0  0  0  0  0
  -29.0979  -15.4769   21.2426 H   0  0  0  0  0  0
  1 25  1  0  0  0
  1 30  2  0  0  0
  1 82  1  0  0  0
  2  3  1  0  0  0
  2 25  1  0  0  0
  2 87  1  0  0  0
  2 88  1  0  0  0
  3  4  1  0  0  0
  3 89  1  0  0  0
  3 90  1  0  0  0
  4  5  1  0  0  0
  4 91  1  0  0  0
  4 92  1  0  0  0
  5  6  1  0  0  0
  5 26  1  0  0  0
  5 93  1  0  0  0
  6 25  1  0  0  0
  6 94  1  0  0  0
  6 95  1  0  0  0
  7  8  2  0  0  0
  7 26  1  0  0  0
  7 29  1  0  0  0
  8  9  1  0  0  0
  8 22  1  0  0  0
  9 10  1  0  0  0
  9 27  2  0  0  0
 10 11  2  0  0  0
 10 15  1  0  0  0
 11 12  1  0  0  0
 11 96  1  0  0  0
 12 13  2  0  0  0
 12 97  1  0  0  0
 13 14  1  0  0  0
 13 31  1  0  0  0
 14 15  2  0  0  0
 14 98  1  0  0  0
 15 99  1  0  0  0
 16 17  2  0  0  0
 16 21  1  0  0  0
 16 31  1  0  0  0
 17 18  1  0  0  0
 17100  1  0  0  0
 18 19  2  0  0  0
 18101  1  0  0  0
 19 20  1  0  0  0
 19 24  1  0  0  0
 20 21  2  0  0  0
 20102  1  0  0  0
 21 23  1  0  0  0
 22 28  1  0  0  0
 22 32  2  0  0  0
 26 27  1  0  0  0
 28103  1  0  0  0
 28104  1  0  0  0
 29105  1  0  0  0
 29106  1  0  0  0
 33 34  1  0  0  0
 33 66  1  0  0  0
 33 70  2  0  0  0
 34 36  1  0  0  0
 34 59  1  0  0  0
 34107  1  0  0  0
 35 44  2  0  0  0
 35 45  1  0  0  0
 35 68  1  0  0  0
 36 56  1  0  0  0
 36108  1  0  0  0
 37 39  1  0  0  0
 37 47  1  0  0  0
 37 66  1  0  0  0
 37109  1  0  0  0
 38 43  2  0  0  0
 38 46  1  0  0  0
 38 47  1  0  0  0
 39 64  1  0  0  0
 39 67  2  0  0  0
 40 52  1  0  0  0
 40 53  2  0  0  0
 40 58  1  0  0  0
 41110  1  0  0  0
 41111  1  0  0  0
 41112  1  0  0  0
 41 48  1  0  0  0
 42 43  1  0  0  0
 42 66  1  0  0  0
 42113  1  0  0  0
 42114  1  0  0  0
 43 44  1  0  0  0
 44115  1  0  0  0
 45 46  2  0  0  0
 45116  1  0  0  0
 46117  1  0  0  0
 47118  1  0  0  0
 47119  1  0  0  0
 48 56  1  0  0  0
 48 65  1  0  0  0
 48120  1  0  0  0
 49 50  1  0  0  0
 49 53  1  0  0  0
 49 64  1  0  0  0
 49121  1  0  0  0
 50 51  1  0  0  0
 50122  1  0  0  0
 50123  1  0  0  0
 51 52  1  0  0  0
 51124  1  0  0  0
 51125  1  0  0  0
 52126  1  0  0  0
 52127  1  0  0  0
 53 54  1  0  0  0
 54 55  2  0  0  0
 54128  1  0  0  0
 55 57  1  0  0  0
 55129  1  0  0  0
 56 69  2  0  0  0
 57 58  2  0  0  0
 57130  1  0  0  0
 58131  1  0  0  0
 59 60  1  0  0  0
 59 61  1  0  0  0
 59 62  1  0  0  0
 60132  1  0  0  0
 60133  1  0  0  0
 60134  1  0  0  0
 61135  1  0  0  0
 61136  1  0  0  0
 61137  1  0  0  0
 62138  1  0  0  0
 62139  1  0  0  0
 62140  1  0  0  0
 63 65  1  0  0  0
 63141  1  0  0  0
 63142  1  0  0  0
 63143  1  0  0  0
 64144  1  0  0  0
 65145  1  0  0  0
 68 80  1  0  0  0
 71 72  1  0  0  0
 71 74  2  0  0  0
 71146  1  0  0  0
 72 73  2  0  0  0
 72 75  1  0  0  0
 73 76  1  0  0  0
 73 86  1  0  0  0
 74 81  1  0  0  0
 74 86  1  0  0  0
 75 78  1  0  0  0
 75 83  2  0  0  0
 76 82  1  0  0  0
 76 84  2  0  0  0
 77 79  1  0  0  0
 77 80  1  0  0  0
 77 85  2  0  0  0
 78147  1  0  0  0
 78148  1  0  0  0
 78149  1  0  0  0
 79 81  1  0  0  0
 79150  1  0  0  0
 79151  1  0  0  0
 80152  1  0  0  0
 80153  1  0  0  0
 81154  1  0  0  0
 82155  1  0  0  0
M  ISO  4   1 100  68 101  80 101  82 100
M  END
> <chiral flag>
0

> <version>
0

> <s_m_source_file>
/data/baiqing/PycharmProjects/Reinvent-master-3.2/result/LINK_invent/BTK/process_docking_weight1_custom_product_contain_oxygen_bond_distance_aromatic_linkinvent_7_9_3/rearranged_h_0162.sdf

> <i_m_source_file_index>
18

> <r_mmod_Potential_Energy-OPLS-2005>
-163.731155395508

> <r_mmod_Stretch_Energy-OPLS-2005>
39.6616477966309

> <r_mmod_Bend_Energy-OPLS-2005>
107.269950866699

> <r_mmod_Torsional_Energy-OPLS-2005>
288.88037109375

> <r_mmod_Improper_Torsional_Energy-OPLS-2005>
7.85178327560425

> <r_mmod_Van_der_Waal_Energy-OPLS-2005>
142.015289306641

> <r_mmod_Electrostatic_Energy-OPLS-2005>
-511.2060546875

> <r_mmod_Solvation_Energy-OPLS-2005>
-257.177978515625

> <b_mmod_Minimization_Converged-OPLS-2005>
0

> <r_mmod_RMS_Derivative-OPLS-2005>
5.31489133834839

$$$$
18
                    3D
 Structure written by MMmdl.
156164  0  0  1  0            999 V2000
  -30.6971  -14.5172   20.5373 C   0  0  0  0  0  0
  -30.4204  -12.3262   19.4381 C   0  0  0  0  0  0
  -29.4973  -12.4973   18.2138 C   0  0  0  0  0  0
  -28.0190  -12.3551   18.6274 C   0  0  0  0  0  0
  -27.6571  -13.2161   19.8693 C   0  0  2  0  0  0
  -28.6997  -13.0370   20.9966 C   0  0  0  0  0  0
  -25.2561  -13.8203   20.5679 C   0  0  0  0  0  0
  -24.1830  -13.0458   20.9182 C   0  0  0  0  0  0
  -24.6393  -11.6929   20.8725 C   0  0  0  0  0  0
  -23.9061  -10.4309   21.0385 C   0  0  0  0  0  0
  -24.3615   -9.4233   21.9165 C   0  0  0  0  0  0
  -23.6298   -8.2264   22.0746 C   0  0  0  0  0  0
  -22.4278   -8.0289   21.3539 C   0  0  0  0  0  0
  -21.9906   -9.0259   20.4639 C   0  0  0  0  0  0
  -22.7229  -10.2141   20.3042 C   0  0  0  0  0  0
  -21.6860   -6.0740   22.5275 C   0  0  0  0  0  0
  -21.4019   -6.5641   23.8209 C   0  0  0  0  0  0
  -21.3658   -5.6788   24.9168 C   0  0  0  0  0  0
  -21.6049   -4.3054   24.7216 C   0  0  0  0  0  0
  -21.8827   -3.8148   23.4339 C   0  0  0  0  0  0
  -21.9199   -4.6969   22.3397 C   0  0  0  0  0  0
  -22.7854  -13.5240   21.1853 C   0  0  0  0  0  0
  -22.1668   -4.2160   21.0974 F   0  0  0  0  0  0
  -21.5625   -3.4531   25.7726 F   0  0  0  0  0  0
  -30.0252  -13.3359   20.4370 N   0  0  0  0  0  0
  -26.3011  -12.9391   20.3364 N   0  0  0  0  0  0
  -25.9326  -11.6548   20.5772 N   0  0  0  0  0  0
  -22.0500  -12.8217   22.0404 N   0  0  0  0  0  0
  -25.4248  -15.1919   20.4044 N   0  0  0  0  0  0
  -31.8434  -14.6573   20.1046 O   0  0  0  0  0  0
  -21.6654   -6.8878   21.4236 O   0  0  0  0  0  0
  -22.3539  -14.5546   20.6711 O   0  0  0  0  0  0
  -24.6161  -31.8648   23.2061 C   0  0  0  0  0  0
  -25.9049  -32.4795   23.8376 C   0  0  1  0  0  0
  -27.2296  -27.3999   20.1118 C   0  0  0  0  0  0
  -25.5885  -33.8592   24.2299 N   0  0  0  0  0  0
  -23.4072  -30.4885   21.5466 C   0  0  2  0  0  0
  -24.8560  -28.9484   20.1140 C   0  0  0  0  0  0
  -22.7411  -29.4671   22.4972 C   0  0  0  0  0  0
  -18.0290  -28.1362   22.8496 C   0  0  0  0  0  0
  -24.1490  -36.7319   23.2642 C   0  0  0  0  0  0
  -25.9388  -30.8210   21.3635 C   0  0  0  0  0  0
  -26.0188  -29.4534   20.7106 C   0  0  0  0  0  0
  -27.2120  -28.6883   20.7037 C   0  0  0  0  0  0
  -26.0533  -26.9197   19.4992 C   0  0  0  0  0  0
  -24.8693  -27.6813   19.5045 C   0  0  0  0  0  0
  -23.6188  -29.8184   20.1625 C   0  0  0  0  0  0
  -25.4111  -36.3097   24.0327 C   0  0  1  0  0  0
  -20.5876  -28.3691   23.1310 C   0  0  2  0  0  0
  -20.6794  -26.9410   22.5428 C   0  0  0  0  0  0
  -19.5778  -26.6393   21.5214 C   0  0  0  0  0  0
  -18.1953  -26.7914   22.1619 C   0  0  0  0  0  0
  -19.1527  -28.8837   23.2898 C   0  0  0  0  0  0
  -18.9442  -30.1440   23.8891 C   0  0  0  0  0  0
  -17.6443  -30.6567   24.0539 C   0  0  0  0  0  0
  -25.9034  -34.9458   23.5116 C   0  0  0  0  0  0
  -16.5340  -29.9059   23.6294 C   0  0  0  0  0  0
  -16.7268  -28.6469   23.0341 C   0  0  0  0  0  0
  -26.4471  -31.6585   25.0718 C   0  0  0  0  0  0
  -25.3743  -31.3697   26.1474 C   0  0  0  0  0  0
  -27.0306  -30.3023   24.6109 C   0  0  0  0  0  0
  -27.6033  -32.4319   25.7487 C   0  0  0  0  0  0
  -27.5581  -37.1817   24.8464 C   0  0  0  0  0  0
  -21.4137  -29.3074   22.3714 N   0  0  0  0  0  0
  -26.4299  -37.3780   23.9396 N   0  0  0  0  0  0
  -24.6724  -31.0726   22.0971 N   0  0  0  0  0  0
  -23.4162  -28.8208   23.3033 O   0  0  0  0  0  0
  -28.3607  -26.6026   20.1310 O   0  0  0  0  0  0
  -26.5611  -34.8916   22.4685 O   0  0  0  0  0  0
  -23.5347  -32.1414   23.7436 O   0  0  0  0  0  0
  -28.0936  -19.7702   21.7423 C   0  0  0  0  0  0
  -28.4277  -18.3895   21.9217 C   0  0  0  0  0  0
  -29.5501  -18.1449   21.1530 C   0  0  0  0  0  0
  -29.0321  -20.3024   20.9037 C   0  0  0  0  0  0
  -27.7320  -17.3987   22.7793 C   0  0  0  0  0  0
  -28.4716  -22.7191   20.8636 C   0  0  0  0  0  0
  -26.6206  -17.9360   23.6721 C   0  0  0  0  0  0
  -30.5092  -16.9813   20.8999 C   0  0  0  0  0  0
  -28.7421  -24.0615   20.1166 C   0  0  0  0  0  0
  -28.2109  -25.3429   20.8434 C   0  0  0  0  0  0
  -29.1312  -21.6003   20.4553 N   0  0  0  0  0  0
  -29.9981  -15.5928   20.9649 N   0  0  0  0  0  0
  -28.0054  -16.1975   22.8013 O   0  0  0  0  0  0
  -27.6708  -22.7147   21.8020 O   0  0  0  0  0  0
  -29.9103  -19.3231   20.5204 O   0  0  0  0  0  0
  -31.4666  -12.4163   19.1377 H   0  0  0  0  0  0
  -30.3189  -11.3235   19.8575 H   0  0  0  0  0  0
  -29.7429  -11.7595   17.4489 H   0  0  0  0  0  0
  -29.6621  -13.4761   17.7593 H   0  0  0  0  0  0
  -27.8371  -11.3010   18.8434 H   0  0  0  0  0  0
  -27.3676  -12.6079   17.7901 H   0  0  0  0  0  0
  -27.6889  -14.2582   19.5484 H   0  0  0  0  0  0
  -28.6831  -12.0140   21.3756 H   0  0  0  0  0  0
  -28.4655  -13.6723   21.8517 H   0  0  0  0  0  0
  -25.2765   -9.5728   22.4731 H   0  0  0  0  0  0
  -24.0026   -7.4661   22.7465 H   0  0  0  0  0  0
  -21.0840   -8.8768   19.8938 H   0  0  0  0  0  0
  -22.3679  -10.9677   19.6148 H   0  0  0  0  0  0
  -21.2013   -7.6147   23.9719 H   0  0  0  0  0  0
  -21.1469   -6.0512   25.9073 H   0  0  0  0  0  0
  -22.0605   -2.7614   23.2833 H   0  0  0  0  0  0
  -22.4119  -11.9876   22.4794 H   0  0  0  0  0  0
  -21.1112  -13.1232   22.2599 H   0  0  0  0  0  0
  -24.6504  -15.8402   20.4947 H   0  0  0  0  0  0
  -26.2769  -15.6303   20.0808 H   0  0  0  0  0  0
  -26.7112  -32.5508   23.1132 H   0  0  0  0  0  0
  -25.0013  -33.9737   25.0431 H   0  0  0  0  0  0
  -22.6975  -31.3056   21.4039 H   0  0  0  0  0  0
  -23.3730  -35.9677   23.3316 H   0  0  0  0  0  0
  -24.3591  -36.8928   22.2056 H   0  0  0  0  0  0
  -23.7264  -37.6533   23.6656 H   0  0  0  0  0  0
  -26.0543  -31.5866   20.5953 H   0  0  0  0  0  0
  -26.8238  -30.8749   21.9861 H   0  0  0  0  0  0
  -28.1082  -29.0705   21.1731 H   0  0  0  0  0  0
  -26.0504  -25.9455   19.0302 H   0  0  0  0  0  0
  -23.9747  -27.2838   19.0451 H   0  0  0  0  0  0
  -23.7321  -30.5910   19.4022 H   0  0  0  0  0  0
  -22.7419  -29.2400   19.8649 H   0  0  0  0  0  0
  -25.1288  -36.1964   25.0820 H   0  0  0  0  0  0
  -20.9964  -28.3268   24.1435 H   0  0  0  0  0  0
  -20.5679  -26.2281   23.3616 H   0  0  0  0  0  0
  -21.6668  -26.7450   22.1243 H   0  0  0  0  0  0
  -19.6946  -25.6318   21.1205 H   0  0  0  0  0  0
  -19.6716  -27.3233   20.6770 H   0  0  0  0  0  0
  -17.4228  -26.6674   21.4014 H   0  0  0  0  0  0
  -18.0351  -26.0044   22.8994 H   0  0  0  0  0  0
  -19.7913  -30.7267   24.2239 H   0  0  0  0  0  0
  -17.4983  -31.6248   24.5137 H   0  0  0  0  0  0
  -15.5336  -30.2956   23.7598 H   0  0  0  0  0  0
  -15.8679  -28.0769   22.7064 H   0  0  0  0  0  0
  -24.5905  -30.7046   25.7823 H   0  0  0  0  0  0
  -24.8961  -32.2864   26.4941 H   0  0  0  0  0  0
  -25.8117  -30.8862   27.0223 H   0  0  0  0  0  0
  -26.2855  -29.6780   24.1161 H   0  0  0  0  0  0
  -27.4065  -29.7254   25.4572 H   0  0  0  0  0  0
  -27.8694  -30.4322   23.9265 H   0  0  0  0  0  0
  -27.2620  -33.3594   26.2097 H   0  0  0  0  0  0
  -28.3833  -32.6922   25.0319 H   0  0  0  0  0  0
  -28.0718  -31.8439   26.5389 H   0  0  0  0  0  0
  -28.2604  -38.0107   24.7487 H   0  0  0  0  0  0
  -28.1069  -36.2635   24.6315 H   0  0  0  0  0  0
  -27.2300  -37.1494   25.8868 H   0  0  0  0  0  0
  -20.9301  -29.8756   21.6898 H   0  0  0  0  0  0
  -26.0185  -38.2862   24.1386 H   0  0  0  0  0  0
  -27.2661  -20.2952   22.1965 H   0  0  0  0  0  0
  -26.3893  -17.2225   24.4614 H   0  0  0  0  0  0
  -25.7170  -18.1123   23.0896 H   0  0  0  0  0  0
  -26.9257  -18.8742   24.1353 H   0  0  0  0  0  0
  -31.3346  -17.0601   21.6090 H   0  0  0  0  0  0
  -30.9581  -17.1234   19.9146 H   0  0  0  0  0  0
  -28.2744  -23.9906   19.1356 H   0  0  0  0  0  0
  -29.8140  -24.1603   19.9415 H   0  0  0  0  0  0
  -28.7523  -25.4511   21.7839 H   0  0  0  0  0  0
  -27.1720  -25.1800   21.1361 H   0  0  0  0  0  0
  -29.8092  -21.7465   19.7209 H   0  0  0  0  0  0
  -29.0755  -15.4549   21.3572 H   0  0  0  0  0  0
  1 25  1  0  0  0
  1 30  2  0  0  0
  1 82  1  0  0  0
  2  3  1  0  0  0
  2 25  1  0  0  0
  2 86  1  0  0  0
  2 87  1  0  0  0
  3  4  1  0  0  0
  3 88  1  0  0  0
  3 89  1  0  0  0
  4  5  1  0  0  0
  4 90  1  0  0  0
  4 91  1  0  0  0
  5  6  1  0  0  0
  5 26  1  0  0  0
  5 92  1  0  0  0
  6 25  1  0  0  0
  6 93  1  0  0  0
  6 94  1  0  0  0
  7  8  2  0  0  0
  7 26  1  0  0  0
  7 29  1  0  0  0
  8  9  1  0  0  0
  8 22  1  0  0  0
  9 10  1  0  0  0
  9 27  2  0  0  0
 10 11  2  0  0  0
 10 15  1  0  0  0
 11 12  1  0  0  0
 11 95  1  0  0  0
 12 13  2  0  0  0
 12 96  1  0  0  0
 13 14  1  0  0  0
 13 31  1  0  0  0
 14 15  2  0  0  0
 14 97  1  0  0  0
 15 98  1  0  0  0
 16 17  2  0  0  0
 16 21  1  0  0  0
 16 31  1  0  0  0
 17 18  1  0  0  0
 17 99  1  0  0  0
 18 19  2  0  0  0
 18100  1  0  0  0
 19 20  1  0  0  0
 19 24  1  0  0  0
 20 21  2  0  0  0
 20101  1  0  0  0
 21 23  1  0  0  0
 22 28  1  0  0  0
 22 32  2  0  0  0
 26 27  1  0  0  0
 28102  1  0  0  0
 28103  1  0  0  0
 29104  1  0  0  0
 29105  1  0  0  0
 33 34  1  0  0  0
 33 66  1  0  0  0
 33 70  2  0  0  0
 34 36  1  0  0  0
 34 59  1  0  0  0
 34106  1  0  0  0
 35 44  2  0  0  0
 35 45  1  0  0  0
 35 68  1  0  0  0
 36 56  1  0  0  0
 36107  1  0  0  0
 37 39  1  0  0  0
 37 47  1  0  0  0
 37 66  1  0  0  0
 37108  1  0  0  0
 38 43  2  0  0  0
 38 46  1  0  0  0
 38 47  1  0  0  0
 39 64  1  0  0  0
 39 67  2  0  0  0
 40 52  1  0  0  0
 40 53  2  0  0  0
 40 58  1  0  0  0
 41109  1  0  0  0
 41110  1  0  0  0
 41111  1  0  0  0
 41 48  1  0  0  0
 42 43  1  0  0  0
 42 66  1  0  0  0
 42112  1  0  0  0
 42113  1  0  0  0
 43 44  1  0  0  0
 44114  1  0  0  0
 45 46  2  0  0  0
 45115  1  0  0  0
 46116  1  0  0  0
 47117  1  0  0  0
 47118  1  0  0  0
 48 56  1  0  0  0
 48 65  1  0  0  0
 48119  1  0  0  0
 49 50  1  0  0  0
 49 53  1  0  0  0
 49 64  1  0  0  0
 49120  1  0  0  0
 50 51  1  0  0  0
 50121  1  0  0  0
 50122  1  0  0  0
 51 52  1  0  0  0
 51123  1  0  0  0
 51124  1  0  0  0
 52125  1  0  0  0
 52126  1  0  0  0
 53 54  1  0  0  0
 54 55  2  0  0  0
 54127  1  0  0  0
 55 57  1  0  0  0
 55128  1  0  0  0
 56 69  2  0  0  0
 57 58  2  0  0  0
 57129  1  0  0  0
 58130  1  0  0  0
 59 60  1  0  0  0
 59 61  1  0  0  0
 59 62  1  0  0  0
 60131  1  0  0  0
 60132  1  0  0  0
 60133  1  0  0  0
 61134  1  0  0  0
 61135  1  0  0  0
 61136  1  0  0  0
 62137  1  0  0  0
 62138  1  0  0  0
 62139  1  0  0  0
 63 65  1  0  0  0
 63140  1  0  0  0
 63141  1  0  0  0
 63142  1  0  0  0
 64143  1  0  0  0
 65144  1  0  0  0
 68 80  1  0  0  0
 71 72  1  0  0  0
 71 74  2  0  0  0
 71145  1  0  0  0
 72 73  2  0  0  0
 72 75  1  0  0  0
 73 78  1  0  0  0
 73 85  1  0  0  0
 74 81  1  0  0  0
 74 85  1  0  0  0
 75 77  1  0  0  0
 75 83  2  0  0  0
 76 79  1  0  0  0
 76 81  1  0  0  0
 76 84  2  0  0  0
 77146  1  0  0  0
 77147  1  0  0  0
 77148  1  0  0  0
 78 82  1  0  0  0
 78149  1  0  0  0
 78150  1  0  0  0
 79 80  1  0  0  0
 79151  1  0  0  0
 79152  1  0  0  0
 80153  1  0  0  0
 80154  1  0  0  0
 81155  1  0  0  0
 82156  1  0  0  0
M  ISO  4   1 100  68 101  80 101  82 100
M  END
> <chiral flag>
0

> <version>
0

> <s_m_source_file>
/data/baiqing/PycharmProjects/Reinvent-master-3.2/result/LINK_invent/BTK/process_docking_weight1_custom_product_contain_oxygen_bond_distance_aromatic_linkinvent_7_9_3/rearranged_h_0162.sdf

> <i_m_source_file_index>
19

> <r_mmod_Potential_Energy-OPLS-2005>
-204.757659912109

> <r_mmod_Stretch_Energy-OPLS-2005>
46.5362930297852

> <r_mmod_Bend_Energy-OPLS-2005>
115.646072387695

> <r_mmod_Torsional_Energy-OPLS-2005>
245.894775390625

> <r_mmod_Improper_Torsional_Energy-OPLS-2005>
4.0882453918457

> <r_mmod_Van_der_Waal_Energy-OPLS-2005>
131.854644775391

> <r_mmod_Electrostatic_Energy-OPLS-2005>
-546.439758300781

> <r_mmod_Solvation_Energy-OPLS-2005>
-223.036163330078

> <b_mmod_Minimization_Converged-OPLS-2005>
0

> <r_mmod_RMS_Derivative-OPLS-2005>
1.67822957038879

$$$$
19
                    3D
 Structure written by MMmdl.
149157  0  0  1  0            999 V2000
  -30.7152  -14.5687   20.4994 C   0  0  0  0  0  0
  -30.4264  -12.3516   19.4304 C   0  0  0  0  0  0
  -29.4976  -12.5104   18.2086 C   0  0  0  0  0  0
  -28.0199  -12.3738   18.6226 C   0  0  0  0  0  0
  -27.6609  -13.2296   19.8657 C   0  0  2  0  0  0
  -28.7200  -13.0781   20.9834 C   0  0  0  0  0  0
  -25.2595  -13.8228   20.5656 C   0  0  0  0  0  0
  -24.1841  -13.0466   20.9161 C   0  0  0  0  0  0
  -24.6405  -11.6956   20.8705 C   0  0  0  0  0  0
  -23.9049  -10.4342   21.0363 C   0  0  0  0  0  0
  -24.3606   -9.4257   21.9135 C   0  0  0  0  0  0
  -23.6278   -8.2285   22.0705 C   0  0  0  0  0  0
  -22.4270   -8.0297   21.3489 C   0  0  0  0  0  0
  -21.9896   -9.0284   20.4601 C   0  0  0  0  0  0
  -22.7210  -10.2181   20.3026 C   0  0  0  0  0  0
  -21.6858   -6.0746   22.5276 C   0  0  0  0  0  0
  -21.4009   -6.5636   23.8221 C   0  0  0  0  0  0
  -21.3661   -5.6777   24.9174 C   0  0  0  0  0  0
  -21.6048   -4.3044   24.7215 C   0  0  0  0  0  0
  -21.8837   -3.8152   23.4337 C   0  0  0  0  0  0
  -21.9195   -4.6967   22.3397 C   0  0  0  0  0  0
  -22.7873  -13.5266   21.1831 C   0  0  0  0  0  0
  -22.1680   -4.2153   21.0976 F   0  0  0  0  0  0
  -21.5621   -3.4532   25.7736 F   0  0  0  0  0  0
  -30.0409  -13.3813   20.4128 N   0  0  0  0  0  0
  -26.3066  -12.9423   20.3398 N   0  0  0  0  0  0
  -25.9348  -11.6561   20.5763 N   0  0  0  0  0  0
  -22.0525  -12.8237   22.0399 N   0  0  0  0  0  0
  -25.4241  -15.1937   20.4035 N   0  0  0  0  0  0
  -31.8443  -14.6737   20.0127 O   0  0  0  0  0  0
  -21.6641   -6.8882   21.4223 O   0  0  0  0  0  0
  -22.3550  -14.5578   20.6728 O   0  0  0  0  0  0
  -24.6202  -31.8670   23.2072 C   0  0  0  0  0  0
  -25.9080  -32.4815   23.8372 C   0  0  1  0  0  0
  -27.2349  -27.3910   20.0960 C   0  0  0  0  0  0
  -25.5953  -33.8611   24.2329 N   0  0  0  0  0  0
  -23.4082  -30.4920   21.5519 C   0  0  2  0  0  0
  -24.8547  -28.9622   20.1112 C   0  0  0  0  0  0
  -22.7444  -29.4637   22.4967 C   0  0  0  0  0  0
  -18.0280  -28.1371   22.8497 C   0  0  0  0  0  0
  -24.1478  -36.7303   23.2626 C   0  0  0  0  0  0
  -25.9422  -30.8261   21.3617 C   0  0  0  0  0  0
  -26.0232  -29.4589   20.7029 C   0  0  0  0  0  0
  -27.2170  -28.6872   20.6791 C   0  0  0  0  0  0
  -26.0414  -26.9380   19.4791 C   0  0  0  0  0  0
  -24.8646  -27.7050   19.4921 C   0  0  0  0  0  0
  -23.6177  -29.8319   20.1643 C   0  0  0  0  0  0
  -25.4100  -36.3111   24.0334 C   0  0  1  0  0  0
  -20.5871  -28.3669   23.1306 C   0  0  2  0  0  0
  -20.6754  -26.9392   22.5409 C   0  0  0  0  0  0
  -19.5739  -26.6385   21.5195 C   0  0  0  0  0  0
  -18.1922  -26.7915   22.1617 C   0  0  0  0  0  0
  -19.1522  -28.8829   23.2898 C   0  0  0  0  0  0
  -18.9456  -30.1433   23.8908 C   0  0  0  0  0  0
  -17.6458  -30.6572   24.0565 C   0  0  0  0  0  0
  -25.9041  -34.9474   23.5106 C   0  0  0  0  0  0
  -16.5353  -29.9073   23.6320 C   0  0  0  0  0  0
  -16.7266  -28.6484   23.0350 C   0  0  0  0  0  0
  -26.4497  -31.6598   25.0700 C   0  0  0  0  0  0
  -25.3772  -31.3730   26.1461 C   0  0  0  0  0  0
  -27.0298  -30.3021   24.6075 C   0  0  0  0  0  0
  -27.6083  -32.4288   25.7506 C   0  0  0  0  0  0
  -27.5571  -37.1796   24.8464 C   0  0  0  0  0  0
  -21.4157  -29.3043   22.3710 N   0  0  0  0  0  0
  -26.4279  -37.3789   23.9413 N   0  0  0  0  0  0
  -24.6761  -31.0745   22.0994 N   0  0  0  0  0  0
  -23.4196  -28.8171   23.3025 O   0  0  0  0  0  0
  -28.3699  -26.5780   20.1368 O   0  0  0  0  0  0
  -26.5587  -34.8925   22.4646 O   0  0  0  0  0  0
  -23.5383  -32.1468   23.7414 O   0  0  0  0  0  0
  -28.7998  -18.4161   22.0266 C   0  0  0  0  0  0
  -28.6968  -19.8399   22.0895 C   0  0  0  0  0  0
  -29.6558  -18.1028   21.0066 C   0  0  0  0  0  0
  -29.4653  -20.3334   21.0669 C   0  0  0  0  0  0
  -30.1800  -16.8215   20.4873 C   0  0  0  0  0  0
  -28.9520  -22.7748   21.0850 C   0  0  0  0  0  0
  -29.3335  -24.1756   20.5014 C   0  0  0  0  0  0
  -28.1138  -25.1440   20.2868 C   0  0  0  0  0  0
  -30.0015  -15.6555   21.0321 N   0  0  0  0  0  0
  -29.6334  -21.6559   20.6947 N   0  0  0  0  0  0
  -28.0366  -22.7309   21.9103 O   0  0  0  0  0  0
  -30.0782  -19.2825   20.4054 O   0  0  0  0  0  0
  -31.4712  -12.4244   19.1190 H   0  0  0  0  0  0
  -30.3162  -11.3614   19.8724 H   0  0  0  0  0  0
  -29.7387  -11.7678   17.4467 H   0  0  0  0  0  0
  -29.6601  -13.4859   17.7492 H   0  0  0  0  0  0
  -27.8243  -11.3201   18.8282 H   0  0  0  0  0  0
  -27.3740  -12.6465   17.7883 H   0  0  0  0  0  0
  -27.6821  -14.2710   19.5382 H   0  0  0  0  0  0
  -28.7229  -12.0613   21.3761 H   0  0  0  0  0  0
  -28.4920  -13.7316   21.8273 H   0  0  0  0  0  0
  -25.2743   -9.5741   22.4702 H   0  0  0  0  0  0
  -24.0003   -7.4677   22.7401 H   0  0  0  0  0  0
  -21.0836   -8.8787   19.8878 H   0  0  0  0  0  0
  -22.3627  -10.9726   19.6172 H   0  0  0  0  0  0
  -21.2014   -7.6144   23.9715 H   0  0  0  0  0  0
  -21.1442   -6.0509   25.9075 H   0  0  0  0  0  0
  -22.0610   -2.7609   23.2852 H   0  0  0  0  0  0
  -22.4153  -11.9930   22.4812 H   0  0  0  0  0  0
  -21.1141  -13.1257   22.2626 H   0  0  0  0  0  0
  -24.6480  -15.8426   20.4913 H   0  0  0  0  0  0
  -26.2893  -15.6399   20.1188 H   0  0  0  0  0  0
  -26.7153  -32.5545   23.1142 H   0  0  0  0  0  0
  -25.0149  -33.9775   25.0509 H   0  0  0  0  0  0
  -22.6941  -31.3053   21.4141 H   0  0  0  0  0  0
  -23.3729  -35.9637   23.3307 H   0  0  0  0  0  0
  -24.3581  -36.8899   22.2040 H   0  0  0  0  0  0
  -23.7232  -37.6508   23.6618 H   0  0  0  0  0  0
  -26.0506  -31.5991   20.5968 H   0  0  0  0  0  0
  -26.8286  -30.8791   21.9842 H   0  0  0  0  0  0
  -28.1177  -29.0741   21.1324 H   0  0  0  0  0  0
  -25.9871  -25.9913   18.9680 H   0  0  0  0  0  0
  -23.9726  -27.3168   19.0208 H   0  0  0  0  0  0
  -23.7275  -30.6115   19.4101 H   0  0  0  0  0  0
  -22.7374  -29.2627   19.8597 H   0  0  0  0  0  0
  -25.1258  -36.1958   25.0817 H   0  0  0  0  0  0
  -20.9977  -28.3213   24.1422 H   0  0  0  0  0  0
  -20.5627  -26.2253   23.3596 H   0  0  0  0  0  0
  -21.6628  -26.7413   22.1213 H   0  0  0  0  0  0
  -19.6899  -25.6296   21.1211 H   0  0  0  0  0  0
  -19.6670  -27.3187   20.6727 H   0  0  0  0  0  0
  -17.4178  -26.6661   21.4032 H   0  0  0  0  0  0
  -18.0344  -26.0031   22.9006 H   0  0  0  0  0  0
  -19.7929  -30.7243   24.2274 H   0  0  0  0  0  0
  -17.5015  -31.6260   24.5155 H   0  0  0  0  0  0
  -15.5341  -30.2992   23.7628 H   0  0  0  0  0  0
  -15.8673  -28.0819   22.7073 H   0  0  0  0  0  0
  -24.5961  -30.7040   25.7832 H   0  0  0  0  0  0
  -24.8960  -32.2896   26.4867 H   0  0  0  0  0  0
  -25.8168  -30.8968   27.0238 H   0  0  0  0  0  0
  -26.2843  -29.6818   24.1080 H   0  0  0  0  0  0
  -27.3992  -29.7217   25.4547 H   0  0  0  0  0  0
  -27.8711  -30.4301   23.9261 H   0  0  0  0  0  0
  -27.2697  -33.3548   26.2152 H   0  0  0  0  0  0
  -28.3894  -32.6891   25.0359 H   0  0  0  0  0  0
  -28.0729  -31.8361   26.5397 H   0  0  0  0  0  0
  -28.2586  -38.0096   24.7495 H   0  0  0  0  0  0
  -28.1079  -36.2621   24.6300 H   0  0  0  0  0  0
  -27.2302  -37.1463   25.8875 H   0  0  0  0  0  0
  -20.9283  -29.8812   21.7003 H   0  0  0  0  0  0
  -26.0175  -38.2855   24.1431 H   0  0  0  0  0  0
  -28.3062  -17.6860   22.6531 H   0  0  0  0  0  0
  -28.1050  -20.4097   22.7899 H   0  0  0  0  0  0
  -30.7482  -16.9347   19.5572 H   0  0  0  0  0  0
  -29.8766  -24.0566   19.5591 H   0  0  0  0  0  0
  -30.0200  -24.6296   21.2171 H   0  0  0  0  0  0
  -27.4187  -25.0303   21.1224 H   0  0  0  0  0  0
  -27.6105  -24.7722   19.3957 H   0  0  0  0  0  0
  -30.3217  -21.8085   19.9722 H   0  0  0  0  0  0
  1 25  1  0  0  0
  1 30  2  0  0  0
  1 79  1  0  0  0
  2  3  1  0  0  0
  2 25  1  0  0  0
  2 83  1  0  0  0
  2 84  1  0  0  0
  3  4  1  0  0  0
  3 85  1  0  0  0
  3 86  1  0  0  0
  4  5  1  0  0  0
  4 87  1  0  0  0
  4 88  1  0  0  0
  5  6  1  0  0  0
  5 26  1  0  0  0
  5 89  1  0  0  0
  6 25  1  0  0  0
  6 90  1  0  0  0
  6 91  1  0  0  0
  7  8  2  0  0  0
  7 26  1  0  0  0
  7 29  1  0  0  0
  8  9  1  0  0  0
  8 22  1  0  0  0
  9 10  1  0  0  0
  9 27  2  0  0  0
 10 11  2  0  0  0
 10 15  1  0  0  0
 11 12  1  0  0  0
 11 92  1  0  0  0
 12 13  2  0  0  0
 12 93  1  0  0  0
 13 14  1  0  0  0
 13 31  1  0  0  0
 14 15  2  0  0  0
 14 94  1  0  0  0
 15 95  1  0  0  0
 16 17  2  0  0  0
 16 21  1  0  0  0
 16 31  1  0  0  0
 17 18  1  0  0  0
 17 96  1  0  0  0
 18 19  2  0  0  0
 18 97  1  0  0  0
 19 20  1  0  0  0
 19 24  1  0  0  0
 20 21  2  0  0  0
 20 98  1  0  0  0
 21 23  1  0  0  0
 22 28  1  0  0  0
 22 32  2  0  0  0
 26 27  1  0  0  0
 28 99  1  0  0  0
 28100  1  0  0  0
 29101  1  0  0  0
 29102  1  0  0  0
 33 34  1  0  0  0
 33 66  1  0  0  0
 33 70  2  0  0  0
 34 36  1  0  0  0
 34 59  1  0  0  0
 34103  1  0  0  0
 35 44  2  0  0  0
 35 45  1  0  0  0
 35 68  1  0  0  0
 36 56  1  0  0  0
 36104  1  0  0  0
 37 39  1  0  0  0
 37 47  1  0  0  0
 37 66  1  0  0  0
 37105  1  0  0  0
 38 43  2  0  0  0
 38 46  1  0  0  0
 38 47  1  0  0  0
 39 64  1  0  0  0
 39 67  2  0  0  0
 40 52  1  0  0  0
 40 53  2  0  0  0
 40 58  1  0  0  0
 41106  1  0  0  0
 41107  1  0  0  0
 41108  1  0  0  0
 41 48  1  0  0  0
 42 43  1  0  0  0
 42 66  1  0  0  0
 42109  1  0  0  0
 42110  1  0  0  0
 43 44  1  0  0  0
 44111  1  0  0  0
 45 46  2  0  0  0
 45112  1  0  0  0
 46113  1  0  0  0
 47114  1  0  0  0
 47115  1  0  0  0
 48 56  1  0  0  0
 48 65  1  0  0  0
 48116  1  0  0  0
 49 50  1  0  0  0
 49 53  1  0  0  0
 49 64  1  0  0  0
 49117  1  0  0  0
 50 51  1  0  0  0
 50118  1  0  0  0
 50119  1  0  0  0
 51 52  1  0  0  0
 51120  1  0  0  0
 51121  1  0  0  0
 52122  1  0  0  0
 52123  1  0  0  0
 53 54  1  0  0  0
 54 55  2  0  0  0
 54124  1  0  0  0
 55 57  1  0  0  0
 55125  1  0  0  0
 56 69  2  0  0  0
 57 58  2  0  0  0
 57126  1  0  0  0
 58127  1  0  0  0
 59 60  1  0  0  0
 59 61  1  0  0  0
 59 62  1  0  0  0
 60128  1  0  0  0
 60129  1  0  0  0
 60130  1  0  0  0
 61131  1  0  0  0
 61132  1  0  0  0
 61133  1  0  0  0
 62134  1  0  0  0
 62135  1  0  0  0
 62136  1  0  0  0
 63 65  1  0  0  0
 63137  1  0  0  0
 63138  1  0  0  0
 63139  1  0  0  0
 64140  1  0  0  0
 65141  1  0  0  0
 68 78  1  0  0  0
 71 72  1  0  0  0
 71 73  2  0  0  0
 71142  1  0  0  0
 72 74  2  0  0  0
 72143  1  0  0  0
 73 75  1  0  0  0
 73 82  1  0  0  0
 74 80  1  0  0  0
 74 82  1  0  0  0
 75 79  2  0  0  0
 75144  1  0  0  0
 76 77  1  0  0  0
 76 80  1  0  0  0
 76 81  2  0  0  0
 77 78  1  0  0  0
 77145  1  0  0  0
 77146  1  0  0  0
 78147  1  0  0  0
 78148  1  0  0  0
 80149  1  0  0  0
M  ISO  4   1 100  68 101  78 101  79 100
M  END
> <chiral flag>
0

> <version>
0

> <s_m_source_file>
/data/baiqing/PycharmProjects/Reinvent-master-3.2/result/LINK_invent/BTK/process_docking_weight1_custom_product_contain_oxygen_bond_distance_aromatic_linkinvent_7_9_3/rearranged_h_0162.sdf

> <i_m_source_file_index>
20

> <r_mmod_Potential_Energy-OPLS-2005>
-76.5325927734375

> <r_mmod_Stretch_Energy-OPLS-2005>
56.9172782897949

> <r_mmod_Bend_Energy-OPLS-2005>
118.665664672852

> <r_mmod_Torsional_Energy-OPLS-2005>
179.146835327148

> <r_mmod_Improper_Torsional_Energy-OPLS-2005>
3.10324788093567

> <r_mmod_Van_der_Waal_Energy-OPLS-2005>
146.719314575195

> <r_mmod_Electrostatic_Energy-OPLS-2005>
-400.021087646484

> <r_mmod_Solvation_Energy-OPLS-2005>
-208.964553833008

> <b_mmod_Minimization_Converged-OPLS-2005>
0

> <r_mmod_RMS_Derivative-OPLS-2005>
5.98992872238159

$$$$
20
                    3D
 Structure written by MMmdl.
155164  0  0  1  0            999 V2000
  -30.5984  -14.8515   20.4010 C   0  0  0  0  0  0
  -30.4267  -12.5172   19.5042 C   0  0  0  0  0  0
  -29.5187  -12.5168   18.2554 C   0  0  0  0  0  0
  -28.0500  -12.3175   18.6715 C   0  0  0  0  0  0
  -27.6345  -13.2435   19.8463 C   0  0  2  0  0  0
  -28.6746  -13.2531   20.9886 C   0  0  0  0  0  0
  -25.2479  -13.8203   20.5679 C   0  0  0  0  0  0
  -24.1794  -13.0436   20.9184 C   0  0  0  0  0  0
  -24.6410  -11.6918   20.8744 C   0  0  0  0  0  0
  -23.9101  -10.4281   21.0388 C   0  0  0  0  0  0
  -24.3640   -9.4197   21.9172 C   0  0  0  0  0  0
  -23.6303   -8.2239   22.0764 C   0  0  0  0  0  0
  -22.4291   -8.0272   21.3550 C   0  0  0  0  0  0
  -21.9920   -9.0245   20.4659 C   0  0  0  0  0  0
  -22.7260  -10.2119   20.3051 C   0  0  0  0  0  0
  -21.6857   -6.0727   22.5271 C   0  0  0  0  0  0
  -21.4020   -6.5633   23.8203 C   0  0  0  0  0  0
  -21.3669   -5.6788   24.9159 C   0  0  0  0  0  0
  -21.6046   -4.3050   24.7210 C   0  0  0  0  0  0
  -21.8838   -3.8141   23.4332 C   0  0  0  0  0  0
  -21.9202   -4.6956   22.3383 C   0  0  0  0  0  0
  -22.7822  -13.5212   21.1834 C   0  0  0  0  0  0
  -22.1666   -4.2139   21.0960 F   0  0  0  0  0  0
  -21.5632   -3.4537   25.7723 F   0  0  0  0  0  0
  -29.9648  -13.6187   20.3930 N   0  0  0  0  0  0
  -26.2909  -12.9427   20.3264 N   0  0  0  0  0  0
  -25.9349  -11.6564   20.5763 N   0  0  0  0  0  0
  -22.0510  -12.8183   22.0397 N   0  0  0  0  0  0
  -25.4154  -15.1926   20.4097 N   0  0  0  0  0  0
  -31.8083  -14.8622   20.1387 O   0  0  0  0  0  0
  -21.6660   -6.8867   21.4235 O   0  0  0  0  0  0
  -22.3485  -14.5510   20.6692 O   0  0  0  0  0  0
  -24.6367  -31.8492   23.1942 C   0  0  0  0  0  0
  -25.9170  -32.4721   23.8310 C   0  0  1  0  0  0
  -27.2011  -27.1971   20.1532 C   0  0  0  0  0  0
  -25.5935  -33.8526   24.2228 N   0  0  0  0  0  0
  -23.4341  -30.4751   21.5371 C   0  0  2  0  0  0
  -24.8779  -28.9031   20.1182 C   0  0  0  0  0  0
  -22.7504  -29.4616   22.4878 C   0  0  0  0  0  0
  -18.0320  -28.1356   22.8491 C   0  0  0  0  0  0
  -24.1492  -36.7269   23.2639 C   0  0  0  0  0  0
  -25.9868  -30.7439   21.3825 C   0  0  0  0  0  0
  -26.0569  -29.3600   20.7253 C   0  0  0  0  0  0
  -27.2252  -28.5218   20.7269 C   0  0  0  0  0  0
  -26.0026  -26.8193   19.5187 C   0  0  0  0  0  0
  -24.8574  -27.6415   19.5051 C   0  0  0  0  0  0
  -23.6540  -29.7994   20.1584 C   0  0  0  0  0  0
  -25.4128  -36.3053   24.0308 C   0  0  1  0  0  0
  -20.5918  -28.3728   23.1226 C   0  0  2  0  0  0
  -20.6794  -26.9425   22.5406 C   0  0  0  0  0  0
  -19.5755  -26.6351   21.5231 C   0  0  0  0  0  0
  -18.1949  -26.7890   22.1661 C   0  0  0  0  0  0
  -19.1566  -28.8863   23.2843 C   0  0  0  0  0  0
  -18.9475  -30.1458   23.8855 C   0  0  0  0  0  0
  -17.6470  -30.6565   24.0534 C   0  0  0  0  0  0
  -25.9070  -34.9421   23.5076 C   0  0  0  0  0  0
  -16.5366  -29.9042   23.6311 C   0  0  0  0  0  0
  -16.7303  -28.6460   23.0358 C   0  0  0  0  0  0
  -26.4509  -31.6565   25.0732 C   0  0  0  0  0  0
  -25.3717  -31.3766   26.1453 C   0  0  0  0  0  0
  -27.0384  -30.2956   24.6312 C   0  0  0  0  0  0
  -27.6019  -32.4350   25.7522 C   0  0  0  0  0  0
  -27.5582  -37.1794   24.8466 C   0  0  0  0  0  0
  -21.4210  -29.3083   22.3605 N   0  0  0  0  0  0
  -26.4301  -37.3757   23.9400 N   0  0  0  0  0  0
  -24.7050  -31.0431   22.0937 N   0  0  0  0  0  0
  -23.4181  -28.8173   23.3009 O   0  0  0  0  0  0
  -28.2544  -26.2393   20.1606 O   0  0  0  0  0  0
  -26.5670  -34.8898   22.4668 O   0  0  0  0  0  0
  -23.5495  -32.1358   23.7203 O   0  0  0  0  0  0
  -30.4855  -19.0347   18.4423 C   0  0  0  0  0  0
  -29.8607  -18.6322   19.6595 C   0  0  0  0  0  0
  -30.1222  -17.2090   19.6971 C   0  0  0  0  0  0
  -28.3736  -23.4198   20.2885 C   0  0  0  0  0  0
  -28.9910  -22.3463   20.9051 C   0  0  0  0  0  0
  -29.3053  -19.7533   20.6117 C   0  0  0  0  0  0
  -27.7976  -22.8860   19.0000 C   0  0  0  0  0  0
  -28.3359  -21.4126   18.8917 C   0  0  0  0  0  0
  -29.6806  -22.4200   22.2575 C   0  0  0  0  0  0
  -28.0094  -24.9042   20.8560 C   0  0  0  0  0  0
  -30.9715  -18.0296   17.7433 N   0  0  0  0  0  0
  -29.0031  -21.0808   20.1685 N   0  0  0  0  0  0
  -29.8889  -16.0690   20.5055 N   0  0  0  0  0  0
  -29.2114  -19.4488   21.8033 O   0  0  0  0  0  0
  -30.7481  -16.8991   18.5202 O   0  0  0  0  0  0
  -31.4699  -12.6283   19.2061 H   0  0  0  0  0  0
  -30.3732  -11.5579   20.0206 H   0  0  0  0  0  0
  -29.8237  -11.7325   17.5608 H   0  0  0  0  0  0
  -29.6286  -13.4609   17.7185 H   0  0  0  0  0  0
  -27.9378  -11.2744   18.9694 H   0  0  0  0  0  0
  -27.3866  -12.4610   17.8177 H   0  0  0  0  0  0
  -27.6074  -14.2510   19.4314 H   0  0  0  0  0  0
  -28.7360  -12.2820   21.4827 H   0  0  0  0  0  0
  -28.3931  -13.9713   21.7608 H   0  0  0  0  0  0
  -25.2803   -9.5671   22.4725 H   0  0  0  0  0  0
  -24.0026   -7.4639   22.7497 H   0  0  0  0  0  0
  -21.0846   -8.8768   19.8958 H   0  0  0  0  0  0
  -22.3732  -10.9652   19.6144 H   0  0  0  0  0  0
  -21.2026   -7.6147   23.9691 H   0  0  0  0  0  0
  -21.1467   -6.0520   25.9059 H   0  0  0  0  0  0
  -22.0617   -2.7603   23.2833 H   0  0  0  0  0  0
  -22.4176  -11.9841   22.4751 H   0  0  0  0  0  0
  -21.1129  -13.1180   22.2653 H   0  0  0  0  0  0
  -24.6408  -15.8400   20.5078 H   0  0  0  0  0  0
  -26.2572  -15.6337   20.0629 H   0  0  0  0  0  0
  -26.7235  -32.5359   23.1038 H   0  0  0  0  0  0
  -25.0033  -33.9645   25.0339 H   0  0  0  0  0  0
  -22.7381  -31.3034   21.3856 H   0  0  0  0  0  0
  -23.3745  -35.9609   23.3307 H   0  0  0  0  0  0
  -24.3563  -36.8903   22.2052 H   0  0  0  0  0  0
  -23.7256  -37.6464   23.6681 H   0  0  0  0  0  0
  -26.1448  -31.5016   20.6138 H   0  0  0  0  0  0
  -26.8547  -30.7868   22.0279 H   0  0  0  0  0  0
  -28.1253  -28.8693   21.2147 H   0  0  0  0  0  0
  -25.9379  -25.8450   19.0549 H   0  0  0  0  0  0
  -23.9521  -27.2792   19.0380 H   0  0  0  0  0  0
  -23.7800  -30.5682   19.3960 H   0  0  0  0  0  0
  -22.7702  -29.2329   19.8595 H   0  0  0  0  0  0
  -25.1315  -36.1883   25.0796 H   0  0  0  0  0  0
  -21.0053  -28.3338   24.1330 H   0  0  0  0  0  0
  -20.5676  -26.2385   23.3659 H   0  0  0  0  0  0
  -21.6668  -26.7385   22.1236 H   0  0  0  0  0  0
  -19.6919  -25.6249   21.1288 H   0  0  0  0  0  0
  -19.6667  -27.3150   20.6751 H   0  0  0  0  0  0
  -17.4217  -26.6657   21.4061 H   0  0  0  0  0  0
  -18.0341  -26.0000   22.9031 H   0  0  0  0  0  0
  -19.7956  -30.7282   24.2203 H   0  0  0  0  0  0
  -17.5003  -31.6245   24.5147 H   0  0  0  0  0  0
  -15.5366  -30.2923   23.7625 H   0  0  0  0  0  0
  -15.8709  -28.0753   22.7087 H   0  0  0  0  0  0
  -24.5859  -30.7136   25.7820 H   0  0  0  0  0  0
  -24.8939  -32.2955   26.4856 H   0  0  0  0  0  0
  -25.8008  -30.8969   27.0254 H   0  0  0  0  0  0
  -26.3015  -29.6670   24.1293 H   0  0  0  0  0  0
  -27.3971  -29.7263   25.4901 H   0  0  0  0  0  0
  -27.8929  -30.4198   23.9656 H   0  0  0  0  0  0
  -27.2564  -33.3641   26.2071 H   0  0  0  0  0  0
  -28.3836  -32.6933   25.0370 H   0  0  0  0  0  0
  -28.0680  -31.8510   26.5468 H   0  0  0  0  0  0
  -28.2604  -38.0087   24.7496 H   0  0  0  0  0  0
  -28.1067  -36.2607   24.6316 H   0  0  0  0  0  0
  -27.2282  -37.1477   25.8865 H   0  0  0  0  0  0
  -20.9402  -29.8795   21.6788 H   0  0  0  0  0  0
  -26.0162  -38.2823   24.1390 H   0  0  0  0  0  0
  -30.6306  -20.0219   18.0348 H   0  0  0  0  0  0
  -28.0928  -23.4977   18.1470 H   0  0  0  0  0  0
  -26.7076  -22.8906   19.0613 H   0  0  0  0  0  0
  -29.0378  -21.3742   18.0627 H   0  0  0  0  0  0
  -27.5300  -20.7085   18.6784 H   0  0  0  0  0  0
  -30.4434  -21.6503   22.3774 H   0  0  0  0  0  0
  -28.9503  -22.3217   23.0612 H   0  0  0  0  0  0
  -30.1824  -23.3805   22.3735 H   0  0  0  0  0  0
  -28.5308  -24.9962   21.8087 H   0  0  0  0  0  0
  -26.9577  -24.8582   21.1416 H   0  0  0  0  0  0
  -28.9895  -16.0332   20.9601 H   0  0  0  0  0  0
  1 25  1  0  0  0
  1 30  2  0  0  0
  1 83  1  0  0  0
  2  3  1  0  0  0
  2 25  1  0  0  0
  2 86  1  0  0  0
  2 87  1  0  0  0
  3  4  1  0  0  0
  3 88  1  0  0  0
  3 89  1  0  0  0
  4  5  1  0  0  0
  4 90  1  0  0  0
  4 91  1  0  0  0
  5  6  1  0  0  0
  5 26  1  0  0  0
  5 92  1  0  0  0
  6 25  1  0  0  0
  6 93  1  0  0  0
  6 94  1  0  0  0
  7  8  2  0  0  0
  7 26  1  0  0  0
  7 29  1  0  0  0
  8  9  1  0  0  0
  8 22  1  0  0  0
  9 10  1  0  0  0
  9 27  2  0  0  0
 10 11  2  0  0  0
 10 15  1  0  0  0
 11 12  1  0  0  0
 11 95  1  0  0  0
 12 13  2  0  0  0
 12 96  1  0  0  0
 13 14  1  0  0  0
 13 31  1  0  0  0
 14 15  2  0  0  0
 14 97  1  0  0  0
 15 98  1  0  0  0
 16 17  2  0  0  0
 16 21  1  0  0  0
 16 31  1  0  0  0
 17 18  1  0  0  0
 17 99  1  0  0  0
 18 19  2  0  0  0
 18100  1  0  0  0
 19 20  1  0  0  0
 19 24  1  0  0  0
 20 21  2  0  0  0
 20101  1  0  0  0
 21 23  1  0  0  0
 22 28  1  0  0  0
 22 32  2  0  0  0
 26 27  1  0  0  0
 28102  1  0  0  0
 28103  1  0  0  0
 29104  1  0  0  0
 29105  1  0  0  0
 33 34  1  0  0  0
 33 66  1  0  0  0
 33 70  2  0  0  0
 34 36  1  0  0  0
 34 59  1  0  0  0
 34106  1  0  0  0
 35 44  2  0  0  0
 35 45  1  0  0  0
 35 68  1  0  0  0
 36 56  1  0  0  0
 36107  1  0  0  0
 37 39  1  0  0  0
 37 47  1  0  0  0
 37 66  1  0  0  0
 37108  1  0  0  0
 38 43  2  0  0  0
 38 46  1  0  0  0
 38 47  1  0  0  0
 39 64  1  0  0  0
 39 67  2  0  0  0
 40 52  1  0  0  0
 40 53  2  0  0  0
 40 58  1  0  0  0
 41109  1  0  0  0
 41110  1  0  0  0
 41111  1  0  0  0
 41 48  1  0  0  0
 42 43  1  0  0  0
 42 66  1  0  0  0
 42112  1  0  0  0
 42113  1  0  0  0
 43 44  1  0  0  0
 44114  1  0  0  0
 45 46  2  0  0  0
 45115  1  0  0  0
 46116  1  0  0  0
 47117  1  0  0  0
 47118  1  0  0  0
 48 56  1  0  0  0
 48 65  1  0  0  0
 48119  1  0  0  0
 49 50  1  0  0  0
 49 53  1  0  0  0
 49 64  1  0  0  0
 49120  1  0  0  0
 50 51  1  0  0  0
 50121  1  0  0  0
 50122  1  0  0  0
 51 52  1  0  0  0
 51123  1  0  0  0
 51124  1  0  0  0
 52125  1  0  0  0
 52126  1  0  0  0
 53 54  1  0  0  0
 54 55  2  0  0  0
 54127  1  0  0  0
 55 57  1  0  0  0
 55128  1  0  0  0
 56 69  2  0  0  0
 57 58  2  0  0  0
 57129  1  0  0  0
 58130  1  0  0  0
 59 60  1  0  0  0
 59 61  1  0  0  0
 59 62  1  0  0  0
 60131  1  0  0  0
 60132  1  0  0  0
 60133  1  0  0  0
 61134  1  0  0  0
 61135  1  0  0  0
 61136  1  0  0  0
 62137  1  0  0  0
 62138  1  0  0  0
 62139  1  0  0  0
 63 65  1  0  0  0
 63140  1  0  0  0
 63141  1  0  0  0
 63142  1  0  0  0
 64143  1  0  0  0
 65144  1  0  0  0
 68 80  1  0  0  0
 71 72  1  0  0  0
 71 81  2  0  0  0
 71145  1  0  0  0
 72 73  2  0  0  0
 72 76  1  0  0  0
 73 83  1  0  0  0
 73 85  1  0  0  0
 74 75  2  0  0  0
 74 77  1  0  0  0
 74 80  1  0  0  0
 75 79  1  0  0  0
 75 82  1  0  0  0
 76 82  1  0  0  0
 76 84  2  0  0  0
 77 78  1  0  0  0
 77146  1  0  0  0
 77147  1  0  0  0
 78 82  1  0  0  0
 78148  1  0  0  0
 78149  1  0  0  0
 79150  1  0  0  0
 79151  1  0  0  0
 79152  1  0  0  0
 80153  1  0  0  0
 80154  1  0  0  0
 81 85  1  0  0  0
 83155  1  0  0  0
M  ISO  4   1 100  68 101  80 101  83 100
M  END
> <chiral flag>
0

> <version>
0

> <s_m_source_file>
/data/baiqing/PycharmProjects/Reinvent-master-3.2/result/LINK_invent/BTK/process_docking_weight1_custom_product_contain_oxygen_bond_distance_aromatic_linkinvent_7_9_3/rearranged_h_0162.sdf

> <i_m_source_file_index>
21

> <r_mmod_Potential_Energy-OPLS-2005>
426.556457519531

> <r_mmod_Stretch_Energy-OPLS-2005>
173.930389404297

> <r_mmod_Bend_Energy-OPLS-2005>
316.423431396484

> <r_mmod_Torsional_Energy-OPLS-2005>
283.275817871094

> <r_mmod_Improper_Torsional_Energy-OPLS-2005>
8.00467395782471

> <r_mmod_Van_der_Waal_Energy-OPLS-2005>
117.941505432129

> <r_mmod_Electrostatic_Energy-OPLS-2005>
-368.632781982422

> <r_mmod_Solvation_Energy-OPLS-2005>
-241.536773681641

> <b_mmod_Minimization_Converged-OPLS-2005>
0

> <r_mmod_RMS_Derivative-OPLS-2005>
3.18565249443054

$$$$
21
                    3D
 Structure written by MMmdl.
160168  0  0  1  0            999 V2000
  -30.6559  -14.5106   20.4849 C   0  0  0  0  0  0
  -30.4319  -12.3346   19.3618 C   0  0  0  0  0  0
  -29.4764  -12.4568   18.1576 C   0  0  0  0  0  0
  -28.0054  -12.3101   18.6008 C   0  0  0  0  0  0
  -27.6420  -13.1832   19.8351 C   0  0  2  0  0  0
  -28.6953  -13.0332   20.9527 C   0  0  0  0  0  0
  -25.2567  -13.8113   20.5650 C   0  0  0  0  0  0
  -24.1781  -13.0495   20.9151 C   0  0  0  0  0  0
  -24.6264  -11.6896   20.8660 C   0  0  0  0  0  0
  -23.8992  -10.4283   21.0372 C   0  0  0  0  0  0
  -24.3678   -9.4143   21.9026 C   0  0  0  0  0  0
  -23.6350   -8.2178   22.0637 C   0  0  0  0  0  0
  -22.4238   -8.0262   21.3578 C   0  0  0  0  0  0
  -21.9763   -9.0273   20.4800 C   0  0  0  0  0  0
  -22.7108  -10.2162   20.3148 C   0  0  0  0  0  0
  -21.6813   -6.0707   22.5288 C   0  0  0  0  0  0
  -21.3966   -6.5608   23.8222 C   0  0  0  0  0  0
  -21.3614   -5.6769   24.9190 C   0  0  0  0  0  0
  -21.6043   -4.3031   24.7228 C   0  0  0  0  0  0
  -21.8833   -3.8118   23.4360 C   0  0  0  0  0  0
  -21.9202   -4.6943   22.3408 C   0  0  0  0  0  0
  -22.7832  -13.5359   21.1753 C   0  0  0  0  0  0
  -22.1664   -4.2138   21.0984 F   0  0  0  0  0  0
  -21.5638   -3.4498   25.7732 F   0  0  0  0  0  0
  -30.0046  -13.3265   20.3534 N   0  0  0  0  0  0
  -26.2893  -12.9242   20.3198 N   0  0  0  0  0  0
  -25.9174  -11.6425   20.5629 N   0  0  0  0  0  0
  -22.0350  -12.8392   22.0219 N   0  0  0  0  0  0
  -25.4398  -15.1863   20.4137 N   0  0  0  0  0  0
  -31.8788  -14.6259   20.3161 O   0  0  0  0  0  0
  -21.6628   -6.8821   21.4243 O   0  0  0  0  0  0
  -22.3617  -14.5675   20.6563 O   0  0  0  0  0  0
  -24.6220  -31.8716   23.2112 C   0  0  0  0  0  0
  -25.9135  -32.4851   23.8359 C   0  0  1  0  0  0
  -27.2108  -27.3748   20.1057 C   0  0  0  0  0  0
  -25.6035  -33.8624   24.2380 N   0  0  0  0  0  0
  -23.4010  -30.4973   21.5575 C   0  0  2  0  0  0
  -24.8424  -28.9695   20.1135 C   0  0  0  0  0  0
  -22.7398  -29.4693   22.5008 C   0  0  0  0  0  0
  -18.0231  -28.1394   22.8517 C   0  0  0  0  0  0
  -24.1485  -36.7264   23.2597 C   0  0  0  0  0  0
  -25.9317  -30.8247   21.3614 C   0  0  0  0  0  0
  -26.0065  -29.4486   20.7213 C   0  0  0  0  0  0
  -27.1888  -28.6547   20.7280 C   0  0  0  0  0  0
  -26.0298  -26.9594   19.4438 C   0  0  0  0  0  0
  -24.8547  -27.7267   19.4641 C   0  0  0  0  0  0
  -23.6033  -29.8384   20.1702 C   0  0  0  0  0  0
  -25.4112  -36.3078   24.0311 C   0  0  1  0  0  0
  -20.5838  -28.3667   23.1336 C   0  0  2  0  0  0
  -20.6755  -26.9417   22.5414 C   0  0  0  0  0  0
  -19.5765  -26.6442   21.5195 C   0  0  0  0  0  0
  -18.1925  -26.7942   22.1617 C   0  0  0  0  0  0
  -19.1481  -28.8832   23.2939 C   0  0  0  0  0  0
  -18.9412  -30.1436   23.9008 C   0  0  0  0  0  0
  -17.6437  -30.6611   24.0559 C   0  0  0  0  0  0
  -25.9053  -34.9466   23.5127 C   0  0  0  0  0  0
  -16.5324  -29.9149   23.6286 C   0  0  0  0  0  0
  -16.7240  -28.6511   23.0384 C   0  0  0  0  0  0
  -26.4558  -31.6502   25.0613 C   0  0  0  0  0  0
  -25.3795  -31.3590   26.1311 C   0  0  0  0  0  0
  -27.0289  -30.2976   24.5799 C   0  0  0  0  0  0
  -27.6238  -32.4006   25.7415 C   0  0  0  0  0  0
  -27.5585  -37.1794   24.8481 C   0  0  0  0  0  0
  -21.4108  -29.3043   22.3734 N   0  0  0  0  0  0
  -26.4305  -37.3762   23.9401 N   0  0  0  0  0  0
  -24.6707  -31.0741   22.1059 N   0  0  0  0  0  0
  -23.4128  -28.8190   23.3012 O   0  0  0  0  0  0
  -28.3488  -26.5646   20.1713 O   0  0  0  0  0  0
  -26.5514  -34.8927   22.4643 O   0  0  0  0  0  0
  -23.5428  -32.1523   23.7519 O   0  0  0  0  0  0
  -29.4969  -17.9950   20.4168 C   0  0  0  0  0  0
  -29.3230  -19.1617   21.1988 C   0  0  0  0  0  0
  -29.8532  -16.8045   21.0879 C   0  0  0  0  0  0
  -29.8688  -18.0003   23.0564 C   0  0  0  0  0  0
  -28.7223  -20.4145   20.6716 C   0  0  0  0  0  0
  -27.3971  -23.1613   22.2960 C   0  0  0  0  0  0
  -29.0119  -24.1387   20.5844 C   0  0  0  0  0  0
  -26.1320  -24.0029   22.1506 C   0  0  0  0  0  0
  -28.2540  -25.1835   19.7111 C   0  0  0  0  0  0
  -28.1961  -22.8791   21.0187 C   0  0  1  0  0  0
  -29.5116  -19.1517   22.5310 N   0  0  0  0  0  0
  -30.0394  -16.8441   22.4315 N   0  0  0  0  0  0
  -30.0926  -18.0211   24.3958 N   0  0  0  0  0  0
  -29.8339  -15.5783   20.3476 N   0  0  0  0  0  0
  -28.9998  -21.6301   21.2034 N   0  0  0  0  0  0
  -27.8246  -20.3138   19.6742 N   0  3  0  0  0  0
  -27.7246  -22.7416   23.4113 O   0  0  0  0  0  0
  -30.1960  -24.3042   20.8729 O   0  0  0  0  0  0
  -31.4623  -12.4963   19.0362 H   0  0  0  0  0  0
  -30.4005  -11.3275   19.7776 H   0  0  0  0  0  0
  -29.7082  -11.6804   17.4304 H   0  0  0  0  0  0
  -29.6255  -13.4041   17.6371 H   0  0  0  0  0  0
  -27.8507  -11.2571   18.8435 H   0  0  0  0  0  0
  -27.3325  -12.5302   17.7718 H   0  0  0  0  0  0
  -27.6569  -14.2128   19.4884 H   0  0  0  0  0  0
  -28.6864  -12.0217   21.3647 H   0  0  0  0  0  0
  -28.4541  -13.7030   21.7817 H   0  0  0  0  0  0
  -25.2935   -9.5486   22.4447 H   0  0  0  0  0  0
  -24.0155   -7.4492   22.7225 H   0  0  0  0  0  0
  -21.0574   -8.8909   19.9273 H   0  0  0  0  0  0
  -22.3483  -10.9775   19.6373 H   0  0  0  0  0  0
  -21.1963   -7.6109   23.9716 H   0  0  0  0  0  0
  -21.1421   -6.0494   25.9104 H   0  0  0  0  0  0
  -22.0620   -2.7572   23.2882 H   0  0  0  0  0  0
  -22.3680  -11.9850   22.4380 H   0  0  0  0  0  0
  -21.1012  -13.1590   22.2374 H   0  0  0  0  0  0
  -24.6687  -15.8317   20.5389 H   0  0  0  0  0  0
  -26.2893  -15.6324   20.0972 H   0  0  0  0  0  0
  -26.7174  -32.5587   23.1067 H   0  0  0  0  0  0
  -25.0361  -33.9758   25.0645 H   0  0  0  0  0  0
  -22.6902  -31.3156   21.4323 H   0  0  0  0  0  0
  -23.3743  -35.9599   23.3296 H   0  0  0  0  0  0
  -24.3612  -36.8861   22.2016 H   0  0  0  0  0  0
  -23.7242  -37.6506   23.6561 H   0  0  0  0  0  0
  -25.9952  -31.5748   20.5713 H   0  0  0  0  0  0
  -26.8378  -30.9200   21.9477 H   0  0  0  0  0  0
  -28.0722  -29.0135   21.2332 H   0  0  0  0  0  0
  -25.9654  -26.0434   18.8830 H   0  0  0  0  0  0
  -23.9677  -27.3645   18.9648 H   0  0  0  0  0  0
  -23.7090  -30.6193   19.4171 H   0  0  0  0  0  0
  -22.7218  -29.2601   19.8735 H   0  0  0  0  0  0
  -25.1271  -36.1955   25.0796 H   0  0  0  0  0  0
  -20.9932  -28.3262   24.1462 H   0  0  0  0  0  0
  -20.5676  -26.2285   23.3576 H   0  0  0  0  0  0
  -21.6630  -26.7536   22.1201 H   0  0  0  0  0  0
  -19.6955  -25.6365   21.1194 H   0  0  0  0  0  0
  -19.6709  -27.3271   20.6729 H   0  0  0  0  0  0
  -17.4189  -26.6662   21.4025 H   0  0  0  0  0  0
  -18.0388  -26.0057   22.8983 H   0  0  0  0  0  0
  -19.7891  -30.7176   24.2505 H   0  0  0  0  0  0
  -17.4996  -31.6319   24.5103 H   0  0  0  0  0  0
  -15.5334  -30.3103   23.7545 H   0  0  0  0  0  0
  -15.8615  -28.0843   22.7167 H   0  0  0  0  0  0
  -24.6078  -30.6831   25.7591 H   0  0  0  0  0  0
  -24.8842  -32.2731   26.4606 H   0  0  0  0  0  0
  -25.8124  -30.8871   27.0135 H   0  0  0  0  0  0
  -26.2869  -29.6917   24.0600 H   0  0  0  0  0  0
  -27.3934  -29.6972   25.4133 H   0  0  0  0  0  0
  -27.8696  -30.4335   23.8993 H   0  0  0  0  0  0
  -27.3072  -33.3311   26.2086 H   0  0  0  0  0  0
  -28.4087  -32.6488   25.0262 H   0  0  0  0  0  0
  -28.0783  -31.7944   26.5265 H   0  0  0  0  0  0
  -28.2595  -38.0089   24.7535 H   0  0  0  0  0  0
  -28.1092  -36.2647   24.6295 H   0  0  0  0  0  0
  -27.2289  -37.1413   25.8875 H   0  0  0  0  0  0
  -20.9262  -29.8793   21.7000 H   0  0  0  0  0  0
  -26.0196  -38.2826   24.1488 H   0  0  0  0  0  0
  -29.3437  -18.0040   19.3460 H   0  0  0  0  0  0
  -25.9174  -24.1811   21.0987 H   0  0  0  0  0  0
  -26.2413  -24.9724   22.6410 H   0  0  0  0  0  0
  -25.2746  -23.4855   22.5750 H   0  0  0  0  0  0
  -27.2316  -24.8181   19.6799 H   0  0  0  0  0  0
  -28.6340  -25.1228   18.6905 H   0  0  0  0  0  0
  -27.4657  -22.6745   20.2410 H   0  0  0  0  0  0
  -29.9897  -17.1496   24.9055 H   0  0  0  0  0  0
  -29.8561  -18.8659   24.9071 H   0  0  0  0  0  0
  -28.9579  -15.3682   19.8973 H   0  0  0  0  0  0
  -29.6396  -21.6004   21.9866 H   0  0  0  0  0  0
  -27.6114  -19.3933   19.3244 H   0  0  0  0  0  0
  -27.3346  -21.0931   19.2738 H   0  0  0  0  0  0
  1 25  1  0  0  0
  1 30  2  0  0  0
  1 84  1  0  0  0
  2  3  1  0  0  0
  2 25  1  0  0  0
  2 89  1  0  0  0
  2 90  1  0  0  0
  3  4  1  0  0  0
  3 91  1  0  0  0
  3 92  1  0  0  0
  4  5  1  0  0  0
  4 93  1  0  0  0
  4 94  1  0  0  0
  5  6  1  0  0  0
  5 26  1  0  0  0
  5 95  1  0  0  0
  6 25  1  0  0  0
  6 96  1  0  0  0
  6 97  1  0  0  0
  7  8  2  0  0  0
  7 26  1  0  0  0
  7 29  1  0  0  0
  8  9  1  0  0  0
  8 22  1  0  0  0
  9 10  1  0  0  0
  9 27  2  0  0  0
 10 11  2  0  0  0
 10 15  1  0  0  0
 11 12  1  0  0  0
 11 98  1  0  0  0
 12 13  2  0  0  0
 12 99  1  0  0  0
 13 14  1  0  0  0
 13 31  1  0  0  0
 14 15  2  0  0  0
 14100  1  0  0  0
 15101  1  0  0  0
 16 17  2  0  0  0
 16 21  1  0  0  0
 16 31  1  0  0  0
 17 18  1  0  0  0
 17102  1  0  0  0
 18 19  2  0  0  0
 18103  1  0  0  0
 19 20  1  0  0  0
 19 24  1  0  0  0
 20 21  2  0  0  0
 20104  1  0  0  0
 21 23  1  0  0  0
 22 28  1  0  0  0
 22 32  2  0  0  0
 26 27  1  0  0  0
 28105  1  0  0  0
 28106  1  0  0  0
 29107  1  0  0  0
 29108  1  0  0  0
 33 34  1  0  0  0
 33 66  1  0  0  0
 33 70  2  0  0  0
 34 36  1  0  0  0
 34 59  1  0  0  0
 34109  1  0  0  0
 35 44  2  0  0  0
 35 45  1  0  0  0
 35 68  1  0  0  0
 36 56  1  0  0  0
 36110  1  0  0  0
 37 39  1  0  0  0
 37 47  1  0  0  0
 37 66  1  0  0  0
 37111  1  0  0  0
 38 43  2  0  0  0
 38 46  1  0  0  0
 38 47  1  0  0  0
 39 64  1  0  0  0
 39 67  2  0  0  0
 40 52  1  0  0  0
 40 53  2  0  0  0
 40 58  1  0  0  0
 41112  1  0  0  0
 41113  1  0  0  0
 41114  1  0  0  0
 41 48  1  0  0  0
 42 43  1  0  0  0
 42 66  1  0  0  0
 42115  1  0  0  0
 42116  1  0  0  0
 43 44  1  0  0  0
 44117  1  0  0  0
 45 46  2  0  0  0
 45118  1  0  0  0
 46119  1  0  0  0
 47120  1  0  0  0
 47121  1  0  0  0
 48 56  1  0  0  0
 48 65  1  0  0  0
 48122  1  0  0  0
 49 50  1  0  0  0
 49 53  1  0  0  0
 49 64  1  0  0  0
 49123  1  0  0  0
 50 51  1  0  0  0
 50124  1  0  0  0
 50125  1  0  0  0
 51 52  1  0  0  0
 51126  1  0  0  0
 51127  1  0  0  0
 52128  1  0  0  0
 52129  1  0  0  0
 53 54  1  0  0  0
 54 55  2  0  0  0
 54130  1  0  0  0
 55 57  1  0  0  0
 55131  1  0  0  0
 56 69  2  0  0  0
 57 58  2  0  0  0
 57132  1  0  0  0
 58133  1  0  0  0
 59 60  1  0  0  0
 59 61  1  0  0  0
 59 62  1  0  0  0
 60134  1  0  0  0
 60135  1  0  0  0
 60136  1  0  0  0
 61137  1  0  0  0
 61138  1  0  0  0
 61139  1  0  0  0
 62140  1  0  0  0
 62141  1  0  0  0
 62142  1  0  0  0
 63 65  1  0  0  0
 63143  1  0  0  0
 63144  1  0  0  0
 63145  1  0  0  0
 64146  1  0  0  0
 65147  1  0  0  0
 68 79  1  0  0  0
 71 72  2  0  0  0
 71 73  1  0  0  0
 71148  1  0  0  0
 72 75  1  0  0  0
 72 81  1  0  0  0
 73 82  2  0  0  0
 73 84  1  0  0  0
 74 81  2  0  0  0
 74 82  1  0  0  0
 74 83  1  0  0  0
 75 85  1  0  0  0
 75 86  2  0  0  0
 76 78  1  0  0  0
 76 80  1  0  0  0
 76 87  2  0  0  0
 77 79  1  0  0  0
 77 80  1  0  0  0
 77 88  2  0  0  0
 78149  1  0  0  0
 78150  1  0  0  0
 78151  1  0  0  0
 79152  1  0  0  0
 79153  1  0  0  0
 80 85  1  0  0  0
 80154  1  0  0  0
 83155  1  0  0  0
 83156  1  0  0  0
 84157  1  0  0  0
 85158  1  0  0  0
 86159  1  0  0  0
 86160  1  0  0  0
M  CHG  1  86   1
M  ISO  4   1 100  68 101  79 101  84 100
M  END
> <chiral flag>
0

> <version>
0

> <s_m_source_file>
/data/baiqing/PycharmProjects/Reinvent-master-3.2/result/LINK_invent/BTK/process_docking_weight1_custom_product_contain_oxygen_bond_distance_aromatic_linkinvent_7_9_3/rearranged_h_0162.sdf

> <i_m_source_file_index>
22

> <r_mmod_Potential_Energy-OPLS-2005>
-1043.71154785156

> <r_mmod_Stretch_Energy-OPLS-2005>
47.7831230163574

> <r_mmod_Bend_Energy-OPLS-2005>
115.42350769043

> <r_mmod_Torsional_Energy-OPLS-2005>
288.014831542969

> <r_mmod_Improper_Torsional_Energy-OPLS-2005>
19.4548263549805

> <r_mmod_Van_der_Waal_Energy-OPLS-2005>
160.0849609375

> <r_mmod_Electrostatic_Energy-OPLS-2005>
-1146.77868652344

> <r_mmod_Solvation_Energy-OPLS-2005>
-565.180725097656

> <b_mmod_Minimization_Converged-OPLS-2005>
0

> <r_mmod_RMS_Derivative-OPLS-2005>
10.4655618667603

$$$$
22
                    3D
 Structure written by MMmdl.
156164  0  0  1  0            999 V2000
  -30.6137  -14.5789   20.5871 C   0  0  0  0  0  0
  -30.4526  -12.3761   19.4318 C   0  0  0  0  0  0
  -29.5140  -12.5300   18.2130 C   0  0  0  0  0  0
  -28.0340  -12.3704   18.6193 C   0  0  0  0  0  0
  -27.6662  -13.2041   19.8746 C   0  0  2  0  0  0
  -28.7051  -12.9774   20.9954 C   0  0  0  0  0  0
  -25.2639  -13.8150   20.5671 C   0  0  0  0  0  0
  -24.1880  -13.0438   20.9154 C   0  0  0  0  0  0
  -24.6425  -11.6899   20.8708 C   0  0  0  0  0  0
  -23.9073  -10.4297   21.0396 C   0  0  0  0  0  0
  -24.3628   -9.4213   21.9182 C   0  0  0  0  0  0
  -23.6297   -8.2255   22.0760 C   0  0  0  0  0  0
  -22.4277   -8.0297   21.3542 C   0  0  0  0  0  0
  -21.9904   -9.0275   20.4651 C   0  0  0  0  0  0
  -22.7237  -10.2152   20.3053 C   0  0  0  0  0  0
  -21.6861   -6.0738   22.5271 C   0  0  0  0  0  0
  -21.4020   -6.5642   23.8205 C   0  0  0  0  0  0
  -21.3650   -5.6798   24.9171 C   0  0  0  0  0  0
  -21.6042   -4.3058   24.7217 C   0  0  0  0  0  0
  -21.8822   -3.8144   23.4341 C   0  0  0  0  0  0
  -21.9197   -4.6966   22.3396 C   0  0  0  0  0  0
  -22.7907  -13.5256   21.1816 C   0  0  0  0  0  0
  -22.1670   -4.2148   21.0974 F   0  0  0  0  0  0
  -21.5614   -3.4542   25.7730 F   0  0  0  0  0  0
  -30.0319  -13.3446   20.4611 N   0  0  0  0  0  0
  -26.3061  -12.9306   20.3317 N   0  0  0  0  0  0
  -25.9346  -11.6475   20.5713 N   0  0  0  0  0  0
  -22.0535  -12.8267   22.0376 N   0  0  0  0  0  0
  -25.4381  -15.1874   20.4130 N   0  0  0  0  0  0
  -31.7010  -14.8562   20.0702 O   0  0  0  0  0  0
  -21.6641   -6.8889   21.4236 O   0  0  0  0  0  0
  -22.3604  -14.5558   20.6655 O   0  0  0  0  0  0
  -24.6213  -31.8610   23.2035 C   0  0  0  0  0  0
  -25.9075  -32.4790   23.8359 C   0  0  1  0  0  0
  -27.2413  -27.3648   20.1084 C   0  0  0  0  0  0
  -25.5908  -33.8590   24.2293 N   0  0  0  0  0  0
  -23.4153  -30.4810   21.5445 C   0  0  2  0  0  0
  -24.8644  -28.9285   20.1220 C   0  0  0  0  0  0
  -22.7451  -29.4627   22.4961 C   0  0  0  0  0  0
  -18.0281  -28.1386   22.8483 C   0  0  0  0  0  0
  -24.1486  -36.7301   23.2635 C   0  0  0  0  0  0
  -25.9508  -30.8035   21.3671 C   0  0  0  0  0  0
  -26.0295  -29.4294   20.7185 C   0  0  0  0  0  0
  -27.2234  -28.6589   20.7002 C   0  0  0  0  0  0
  -26.0560  -26.8895   19.5139 C   0  0  0  0  0  0
  -24.8755  -27.6599   19.5166 C   0  0  0  0  0  0
  -23.6298  -29.8053   20.1637 C   0  0  0  0  0  0
  -25.4106  -36.3092   24.0334 C   0  0  1  0  0  0
  -20.5876  -28.3685   23.1299 C   0  0  2  0  0  0
  -20.6769  -26.9413   22.5420 C   0  0  0  0  0  0
  -19.5748  -26.6388   21.5216 C   0  0  0  0  0  0
  -18.1927  -26.7931   22.1625 C   0  0  0  0  0  0
  -19.1531  -28.8852   23.2887 C   0  0  0  0  0  0
  -18.9454  -30.1456   23.8904 C   0  0  0  0  0  0
  -17.6452  -30.6587   24.0566 C   0  0  0  0  0  0
  -25.9040  -34.9458   23.5112 C   0  0  0  0  0  0
  -16.5347  -29.9087   23.6326 C   0  0  0  0  0  0
  -16.7269  -28.6507   23.0344 C   0  0  0  0  0  0
  -26.4483  -31.6589   25.0713 C   0  0  0  0  0  0
  -25.3746  -31.3707   26.1465 C   0  0  0  0  0  0
  -27.0313  -30.3021   24.6127 C   0  0  0  0  0  0
  -27.6059  -32.4317   25.7465 C   0  0  0  0  0  0
  -27.5588  -37.1788   24.8454 C   0  0  0  0  0  0
  -21.4171  -29.3038   22.3696 N   0  0  0  0  0  0
  -26.4284  -37.3788   23.9424 N   0  0  0  0  0  0
  -24.6811  -31.0649   22.0962 N   0  0  0  0  0  0
  -23.4185  -28.8176   23.3040 O   0  0  0  0  0  0
  -28.3965  -26.5953   20.0346 O   0  0  0  0  0  0
  -26.5611  -34.8920   22.4679 O   0  0  0  0  0  0
  -23.5385  -32.1391   23.7389 O   0  0  0  0  0  0
  -28.9017  -17.4676   22.3183 C   0  0  0  0  0  0
  -29.6723  -16.8094   21.3855 C   0  0  0  0  0  0
  -29.4847  -18.9453   20.8703 C   0  0  0  0  0  0
  -29.3124  -22.7861   20.4654 C   0  0  0  0  0  0
  -28.5043  -24.0178   19.9238 C   0  0  0  0  0  0
  -32.1589  -22.5167   22.7590 C   0  0  0  0  0  0
  -28.7872  -21.3643   19.9980 C   0  0  0  0  0  0
  -28.4409  -25.3360   20.7799 C   0  0  0  0  0  0
  -31.1003  -21.9164   21.8313 C   0  0  0  0  0  0
  -28.7762  -18.8109   21.9795 N   0  0  0  0  0  0
  -30.3088  -22.9805   21.2544 N   0  0  0  0  0  0
  -29.8848  -15.4458   21.3346 N   0  0  0  0  0  0
  -29.5998  -20.1100   20.0917 N   0  0  0  0  0  0
  -27.8831  -23.9668   18.8542 O   0  0  0  0  0  0
  -30.0734  -17.7671   20.4416 O   0  0  0  0  0  0
  -31.4903  -12.5274   19.1313 H   0  0  0  0  0  0
  -30.4033  -11.3611   19.8295 H   0  0  0  0  0  0
  -29.7719  -11.7997   17.4438 H   0  0  0  0  0  0
  -29.6663  -13.5104   17.7589 H   0  0  0  0  0  0
  -27.8554  -11.3110   18.8106 H   0  0  0  0  0  0
  -27.3875  -12.6430   17.7849 H   0  0  0  0  0  0
  -27.7094  -14.2540   19.5846 H   0  0  0  0  0  0
  -28.7083  -11.9298   21.2995 H   0  0  0  0  0  0
  -28.4250  -13.5245   21.8959 H   0  0  0  0  0  0
  -25.2785   -9.5678   22.4748 H   0  0  0  0  0  0
  -23.9988   -7.4653   22.7499 H   0  0  0  0  0  0
  -21.0817   -8.8817   19.8981 H   0  0  0  0  0  0
  -22.3705  -10.9700   19.6162 H   0  0  0  0  0  0
  -21.2025   -7.6158   23.9708 H   0  0  0  0  0  0
  -21.1459   -6.0529   25.9072 H   0  0  0  0  0  0
  -22.0606   -2.7607   23.2847 H   0  0  0  0  0  0
  -22.4143  -11.9920   22.4757 H   0  0  0  0  0  0
  -21.1164  -13.1321   22.2585 H   0  0  0  0  0  0
  -24.6760  -15.8435   20.5375 H   0  0  0  0  0  0
  -26.2832  -15.6243   20.0681 H   0  0  0  0  0  0
  -26.7147  -32.5483   23.1116 H   0  0  0  0  0  0
  -25.0056  -33.9731   25.0441 H   0  0  0  0  0  0
  -22.7075  -31.2994   21.3965 H   0  0  0  0  0  0
  -23.3750  -35.9631   23.3280 H   0  0  0  0  0  0
  -24.3585  -36.8934   22.2054 H   0  0  0  0  0  0
  -23.7232  -37.6496   23.6664 H   0  0  0  0  0  0
  -26.0711  -31.5630   20.5937 H   0  0  0  0  0  0
  -26.8356  -30.8608   21.9898 H   0  0  0  0  0  0
  -28.1276  -29.0470   21.1471 H   0  0  0  0  0  0
  -26.0467  -25.9217   19.0334 H   0  0  0  0  0  0
  -23.9816  -27.2675   19.0506 H   0  0  0  0  0  0
  -23.7466  -30.5759   19.4010 H   0  0  0  0  0  0
  -22.7530  -29.2275   19.8654 H   0  0  0  0  0  0
  -25.1278  -36.1940   25.0826 H   0  0  0  0  0  0
  -20.9963  -28.3261   24.1421 H   0  0  0  0  0  0
  -20.5667  -26.2297   23.3614 H   0  0  0  0  0  0
  -21.6639  -26.7443   22.1215 H   0  0  0  0  0  0
  -19.6909  -25.6300   21.1240 H   0  0  0  0  0  0
  -19.6692  -27.3204   20.6750 H   0  0  0  0  0  0
  -17.4199  -26.6678   21.4028 H   0  0  0  0  0  0
  -18.0330  -26.0079   22.9025 H   0  0  0  0  0  0
  -19.7928  -30.7273   24.2283 H   0  0  0  0  0  0
  -17.5002  -31.6266   24.5170 H   0  0  0  0  0  0
  -15.5346  -30.2987   23.7644 H   0  0  0  0  0  0
  -15.8671  -28.0829   22.7047 H   0  0  0  0  0  0
  -24.5931  -30.7033   25.7811 H   0  0  0  0  0  0
  -24.8930  -32.2863   26.4905 H   0  0  0  0  0  0
  -25.8110  -30.8892   27.0227 H   0  0  0  0  0  0
  -26.2860  -29.6780   24.1181 H   0  0  0  0  0  0
  -27.4056  -29.7264   25.4602 H   0  0  0  0  0  0
  -27.8712  -30.4317   23.9300 H   0  0  0  0  0  0
  -27.2681  -33.3611   26.2058 H   0  0  0  0  0  0
  -28.3850  -32.6885   25.0278 H   0  0  0  0  0  0
  -28.0749  -31.8438   26.5362 H   0  0  0  0  0  0
  -28.2571  -38.0120   24.7558 H   0  0  0  0  0  0
  -28.1119  -36.2658   24.6197 H   0  0  0  0  0  0
  -27.2323  -37.1335   25.8857 H   0  0  0  0  0  0
  -20.9353  -29.8750   21.6892 H   0  0  0  0  0  0
  -26.0163  -38.2853   24.1470 H   0  0  0  0  0  0
  -28.3901  -17.0657   23.1827 H   0  0  0  0  0  0
  -32.6976  -21.7303   23.2895 H   0  0  0  0  0  0
  -31.7118  -23.1729   23.5063 H   0  0  0  0  0  0
  -32.8940  -23.0934   22.1964 H   0  0  0  0  0  0
  -28.5150  -21.4514   18.9454 H   0  0  0  0  0  0
  -27.8432  -21.1841   20.5152 H   0  0  0  0  0  0
  -29.3228  -25.3825   21.4175 H   0  0  0  0  0  0
  -27.5832  -25.2706   21.4504 H   0  0  0  0  0  0
  -30.4720  -21.2282   22.3995 H   0  0  0  0  0  0
  -31.6195  -21.3487   21.0564 H   0  0  0  0  0  0
  -29.2014  -14.9326   21.8693 H   0  0  0  0  0  0
  -30.2685  -20.0121   19.3369 H   0  0  0  0  0  0
  1 25  1  0  0  0
  1 30  2  0  0  0
  1 82  1  0  0  0
  2  3  1  0  0  0
  2 25  1  0  0  0
  2 86  1  0  0  0
  2 87  1  0  0  0
  3  4  1  0  0  0
  3 88  1  0  0  0
  3 89  1  0  0  0
  4  5  1  0  0  0
  4 90  1  0  0  0
  4 91  1  0  0  0
  5  6  1  0  0  0
  5 26  1  0  0  0
  5 92  1  0  0  0
  6 25  1  0  0  0
  6 93  1  0  0  0
  6 94  1  0  0  0
  7  8  2  0  0  0
  7 26  1  0  0  0
  7 29  1  0  0  0
  8  9  1  0  0  0
  8 22  1  0  0  0
  9 10  1  0  0  0
  9 27  2  0  0  0
 10 11  2  0  0  0
 10 15  1  0  0  0
 11 12  1  0  0  0
 11 95  1  0  0  0
 12 13  2  0  0  0
 12 96  1  0  0  0
 13 14  1  0  0  0
 13 31  1  0  0  0
 14 15  2  0  0  0
 14 97  1  0  0  0
 15 98  1  0  0  0
 16 17  2  0  0  0
 16 21  1  0  0  0
 16 31  1  0  0  0
 17 18  1  0  0  0
 17 99  1  0  0  0
 18 19  2  0  0  0
 18100  1  0  0  0
 19 20  1  0  0  0
 19 24  1  0  0  0
 20 21  2  0  0  0
 20101  1  0  0  0
 21 23  1  0  0  0
 22 28  1  0  0  0
 22 32  2  0  0  0
 26 27  1  0  0  0
 28102  1  0  0  0
 28103  1  0  0  0
 29104  1  0  0  0
 29105  1  0  0  0
 33 34  1  0  0  0
 33 66  1  0  0  0
 33 70  2  0  0  0
 34 36  1  0  0  0
 34 59  1  0  0  0
 34106  1  0  0  0
 35 44  2  0  0  0
 35 45  1  0  0  0
 35 68  1  0  0  0
 36 56  1  0  0  0
 36107  1  0  0  0
 37 39  1  0  0  0
 37 47  1  0  0  0
 37 66  1  0  0  0
 37108  1  0  0  0
 38 43  2  0  0  0
 38 46  1  0  0  0
 38 47  1  0  0  0
 39 64  1  0  0  0
 39 67  2  0  0  0
 40 52  1  0  0  0
 40 53  2  0  0  0
 40 58  1  0  0  0
 41109  1  0  0  0
 41110  1  0  0  0
 41111  1  0  0  0
 41 48  1  0  0  0
 42 43  1  0  0  0
 42 66  1  0  0  0
 42112  1  0  0  0
 42113  1  0  0  0
 43 44  1  0  0  0
 44114  1  0  0  0
 45 46  2  0  0  0
 45115  1  0  0  0
 46116  1  0  0  0
 47117  1  0  0  0
 47118  1  0  0  0
 48 56  1  0  0  0
 48 65  1  0  0  0
 48119  1  0  0  0
 49 50  1  0  0  0
 49 53  1  0  0  0
 49 64  1  0  0  0
 49120  1  0  0  0
 50 51  1  0  0  0
 50121  1  0  0  0
 50122  1  0  0  0
 51 52  1  0  0  0
 51123  1  0  0  0
 51124  1  0  0  0
 52125  1  0  0  0
 52126  1  0  0  0
 53 54  1  0  0  0
 54 55  2  0  0  0
 54127  1  0  0  0
 55 57  1  0  0  0
 55128  1  0  0  0
 56 69  2  0  0  0
 57 58  2  0  0  0
 57129  1  0  0  0
 58130  1  0  0  0
 59 60  1  0  0  0
 59 61  1  0  0  0
 59 62  1  0  0  0
 60131  1  0  0  0
 60132  1  0  0  0
 60133  1  0  0  0
 61134  1  0  0  0
 61135  1  0  0  0
 61136  1  0  0  0
 62137  1  0  0  0
 62138  1  0  0  0
 62139  1  0  0  0
 63 65  1  0  0  0
 63140  1  0  0  0
 63141  1  0  0  0
 63142  1  0  0  0
 64143  1  0  0  0
 65144  1  0  0  0
 68 78  1  0  0  0
 71 72  2  0  0  0
 71 80  1  0  0  0
 71145  1  0  0  0
 72 82  1  0  0  0
 72 85  1  0  0  0
 73 80  2  0  0  0
 73 83  1  0  0  0
 73 85  1  0  0  0
 74 75  1  0  0  0
 74 77  1  0  0  0
 74 81  2  0  0  0
 75 78  1  0  0  0
 75 84  2  0  0  0
 76 79  1  0  0  0
 76146  1  0  0  0
 76147  1  0  0  0
 76148  1  0  0  0
 77 83  1  0  0  0
 77149  1  0  0  0
 77150  1  0  0  0
 78151  1  0  0  0
 78152  1  0  0  0
 79 81  1  0  0  0
 79153  1  0  0  0
 79154  1  0  0  0
 82155  1  0  0  0
 83156  1  0  0  0
M  ISO  4   1 100  68 101  78 101  82 100
M  END
> <chiral flag>
0

> <version>
0

> <s_m_source_file>
/data/baiqing/PycharmProjects/Reinvent-master-3.2/result/LINK_invent/BTK/process_docking_weight1_custom_product_contain_oxygen_bond_distance_aromatic_linkinvent_7_9_3/rearranged_h_0162.sdf

> <i_m_source_file_index>
23

> <r_mmod_Potential_Energy-OPLS-2005>
-6.95497989654541

> <r_mmod_Stretch_Energy-OPLS-2005>
69.7388534545898

> <r_mmod_Bend_Energy-OPLS-2005>
168.509674072266

> <r_mmod_Torsional_Energy-OPLS-2005>
227.240982055664

> <r_mmod_Improper_Torsional_Energy-OPLS-2005>
3.89956212043762

> <r_mmod_Van_der_Waal_Energy-OPLS-2005>
125.014083862305

> <r_mmod_Electrostatic_Energy-OPLS-2005>
-379.697052001953

> <r_mmod_Solvation_Energy-OPLS-2005>
-251.264343261719

> <b_mmod_Minimization_Converged-OPLS-2005>
0

> <r_mmod_RMS_Derivative-OPLS-2005>
1.87812542915344

$$$$
23
                    3D
 Structure written by MMmdl.
154162  0  0  1  0            999 V2000
  -30.7106  -14.5147   20.5471 C   0  0  0  0  0  0
  -30.4167  -12.3268   19.4383 C   0  0  0  0  0  0
  -29.4954  -12.4996   18.2141 C   0  0  0  0  0  0
  -28.0180  -12.3559   18.6267 C   0  0  0  0  0  0
  -27.6563  -13.2149   19.8685 C   0  0  2  0  0  0
  -28.6996  -13.0437   20.9969 C   0  0  0  0  0  0
  -25.2566  -13.8176   20.5686 C   0  0  0  0  0  0
  -24.1829  -13.0443   20.9191 C   0  0  0  0  0  0
  -24.6393  -11.6912   20.8740 C   0  0  0  0  0  0
  -23.9062  -10.4294   21.0404 C   0  0  0  0  0  0
  -24.3615   -9.4210   21.9181 C   0  0  0  0  0  0
  -23.6292   -8.2245   22.0751 C   0  0  0  0  0  0
  -22.4275   -8.0281   21.3543 C   0  0  0  0  0  0
  -21.9908   -9.0254   20.4647 C   0  0  0  0  0  0
  -22.7234  -10.2135   20.3054 C   0  0  0  0  0  0
  -21.6854   -6.0734   22.5279 C   0  0  0  0  0  0
  -21.4014   -6.5637   23.8212 C   0  0  0  0  0  0
  -21.3659   -5.6790   24.9175 C   0  0  0  0  0  0
  -21.6044   -4.3053   24.7225 C   0  0  0  0  0  0
  -21.8820   -3.8145   23.4348 C   0  0  0  0  0  0
  -21.9195   -4.6962   22.3403 C   0  0  0  0  0  0
  -22.7851  -13.5235   21.1850 C   0  0  0  0  0  0
  -22.1664   -4.2147   21.0981 F   0  0  0  0  0  0
  -21.5629   -3.4538   25.7739 F   0  0  0  0  0  0
  -30.0260  -13.3405   20.4348 N   0  0  0  0  0  0
  -26.3001  -12.9358   20.3346 N   0  0  0  0  0  0
  -25.9322  -11.6513   20.5766 N   0  0  0  0  0  0
  -22.0491  -12.8227   22.0406 N   0  0  0  0  0  0
  -25.4280  -15.1894   20.4081 N   0  0  0  0  0  0
  -31.8494  -14.6387   20.0915 O   0  0  0  0  0  0
  -21.6640   -6.8876   21.4240 O   0  0  0  0  0  0
  -22.3538  -14.5542   20.6698 O   0  0  0  0  0  0
  -24.6179  -31.8664   23.2090 C   0  0  0  0  0  0
  -25.9060  -32.4816   23.8393 C   0  0  1  0  0  0
  -27.2260  -27.4078   20.1012 C   0  0  0  0  0  0
  -25.5906  -33.8614   24.2323 N   0  0  0  0  0  0
  -23.4080  -30.4912   21.5493 C   0  0  2  0  0  0
  -24.8562  -28.9611   20.1075 C   0  0  0  0  0  0
  -22.7433  -29.4651   22.4963 C   0  0  0  0  0  0
  -18.0278  -28.1380   22.8490 C   0  0  0  0  0  0
  -24.1487  -36.7309   23.2638 C   0  0  0  0  0  0
  -25.9412  -30.8247   21.3678 C   0  0  0  0  0  0
  -26.0196  -29.4597   20.7096 C   0  0  0  0  0  0
  -27.2118  -28.6906   20.7040 C   0  0  0  0  0  0
  -26.0497  -26.9419   19.4743 C   0  0  0  0  0  0
  -24.8677  -27.7031   19.4836 C   0  0  0  0  0  0
  -23.6184  -29.8290   20.1621 C   0  0  0  0  0  0
  -25.4108  -36.3108   24.0338 C   0  0  1  0  0  0
  -20.5872  -28.3672   23.1306 C   0  0  2  0  0  0
  -20.6767  -26.9403   22.5418 C   0  0  0  0  0  0
  -19.5748  -26.6387   21.5211 C   0  0  0  0  0  0
  -18.1925  -26.7926   22.1621 C   0  0  0  0  0  0
  -19.1528  -28.8841   23.2895 C   0  0  0  0  0  0
  -18.9455  -30.1446   23.8908 C   0  0  0  0  0  0
  -17.6457  -30.6585   24.0565 C   0  0  0  0  0  0
  -25.9036  -34.9473   23.5127 C   0  0  0  0  0  0
  -16.5348  -29.9088   23.6327 C   0  0  0  0  0  0
  -16.7266  -28.6504   23.0349 C   0  0  0  0  0  0
  -26.4477  -31.6598   25.0728 C   0  0  0  0  0  0
  -25.3738  -31.3713   26.1474 C   0  0  0  0  0  0
  -27.0304  -30.3033   24.6120 C   0  0  0  0  0  0
  -27.6055  -32.4315   25.7488 C   0  0  0  0  0  0
  -27.5582  -37.1808   24.8464 C   0  0  0  0  0  0
  -21.4156  -29.3036   22.3707 N   0  0  0  0  0  0
  -26.4293  -37.3793   23.9412 N   0  0  0  0  0  0
  -24.6739  -31.0747   22.1002 N   0  0  0  0  0  0
  -23.4192  -28.8185   23.3010 O   0  0  0  0  0  0
  -28.3262  -26.5688   20.1563 O   0  0  0  0  0  0
  -26.5597  -34.8924   22.4688 O   0  0  0  0  0  0
  -23.5363  -32.1424   23.7468 O   0  0  0  0  0  0
  -29.4761  -18.0167   21.1293 C   0  0  0  0  0  0
  -31.2319  -19.7037   21.3378 C   0  0  0  0  0  0
  -31.8094  -17.3332   21.2139 C   0  0  0  0  0  0
  -29.8595  -19.3893   21.2545 C   0  0  0  0  0  0
  -30.4427  -16.9669   21.1057 C   0  0  0  0  0  0
  -32.1969  -18.6827   21.3164 C   0  0  0  0  0  0
  -28.0671  -25.3264   20.7227 C   0  0  0  0  0  0
  -28.8647  -20.4816   21.4085 C   0  0  0  0  0  0
  -28.7289  -24.1641   20.4866 C   0  0  0  0  0  0
  -28.2639  -22.9323   21.1506 C   0  0  0  0  0  0
  -30.0186  -15.5831   21.0223 N   0  0  0  0  0  0
  -29.0684  -21.7434   20.9206 N   0  0  0  0  0  0
  -27.7650  -20.1818   22.1095 N   0  3  0  0  0  0
  -27.2591  -22.8692   21.8714 O   0  0  0  0  0  0
  -29.7819  -24.1209   19.6569 O   0  0  0  0  0  0
  -33.5099  -19.0013   21.4190 F   0  0  0  0  0  0
  -31.4626  -12.4095   19.1373 H   0  0  0  0  0  0
  -30.3099  -11.3263   19.8604 H   0  0  0  0  0  0
  -29.7424  -11.7625   17.4489 H   0  0  0  0  0  0
  -29.6599  -13.4786   17.7609 H   0  0  0  0  0  0
  -27.8377  -11.3020   18.8416 H   0  0  0  0  0  0
  -27.3662  -12.6101   17.7898 H   0  0  0  0  0  0
  -27.6866  -14.2553   19.5443 H   0  0  0  0  0  0
  -28.6830  -12.0227   21.3812 H   0  0  0  0  0  0
  -28.4608  -13.6831   21.8481 H   0  0  0  0  0  0
  -25.2762   -9.5689   22.4752 H   0  0  0  0  0  0
  -24.0005   -7.4637   22.7468 H   0  0  0  0  0  0
  -21.0839   -8.8772   19.8953 H   0  0  0  0  0  0
  -22.3691  -10.9672   19.6162 H   0  0  0  0  0  0
  -21.2004   -7.6144   23.9714 H   0  0  0  0  0  0
  -21.1479   -6.0521   25.9077 H   0  0  0  0  0  0
  -22.0598   -2.7607   23.2850 H   0  0  0  0  0  0
  -22.4101  -11.9885   22.4794 H   0  0  0  0  0  0
  -21.1109  -13.1254   22.2607 H   0  0  0  0  0  0
  -24.6570  -15.8415   20.5044 H   0  0  0  0  0  0
  -26.2698  -15.6236   20.0518 H   0  0  0  0  0  0
  -26.7134  -32.5522   23.1158 H   0  0  0  0  0  0
  -25.0062  -33.9776   25.0473 H   0  0  0  0  0  0
  -22.6977  -31.3091   21.4113 H   0  0  0  0  0  0
  -23.3749  -35.9643   23.3309 H   0  0  0  0  0  0
  -24.3583  -36.8915   22.2051 H   0  0  0  0  0  0
  -23.7238  -37.6517   23.6645 H   0  0  0  0  0  0
  -26.0600  -31.5929   20.6024 H   0  0  0  0  0  0
  -26.8262  -30.8747   21.9904 H   0  0  0  0  0  0
  -28.1052  -29.0606   21.1873 H   0  0  0  0  0  0
  -26.0404  -25.9711   18.9988 H   0  0  0  0  0  0
  -23.9752  -27.3151   19.0122 H   0  0  0  0  0  0
  -23.7272  -30.6070   19.4056 H   0  0  0  0  0  0
  -22.7418  -29.2511   19.8639 H   0  0  0  0  0  0
  -25.1281  -36.1974   25.0830 H   0  0  0  0  0  0
  -20.9964  -28.3242   24.1427 H   0  0  0  0  0  0
  -20.5671  -26.2277   23.3607 H   0  0  0  0  0  0
  -21.6639  -26.7447   22.1211 H   0  0  0  0  0  0
  -19.6910  -25.6301   21.1234 H   0  0  0  0  0  0
  -19.6688  -27.3203   20.6745 H   0  0  0  0  0  0
  -17.4196  -26.6677   21.4022 H   0  0  0  0  0  0
  -18.0324  -26.0065   22.9015 H   0  0  0  0  0  0
  -19.7932  -30.7257   24.2286 H   0  0  0  0  0  0
  -17.5015  -31.6266   24.5165 H   0  0  0  0  0  0
  -15.5349  -30.2994   23.7646 H   0  0  0  0  0  0
  -15.8665  -28.0827   22.7059 H   0  0  0  0  0  0
  -24.5909  -30.7060   25.7813 H   0  0  0  0  0  0
  -24.8930  -32.2873   26.4919 H   0  0  0  0  0  0
  -25.8089  -30.8886   27.0233 H   0  0  0  0  0  0
  -26.2851  -29.6801   24.1165 H   0  0  0  0  0  0
  -27.4052  -29.7266   25.4586 H   0  0  0  0  0  0
  -27.8699  -30.4340   23.9287 H   0  0  0  0  0  0
  -27.2677  -33.3607   26.2090 H   0  0  0  0  0  0
  -28.3849  -32.6889   25.0303 H   0  0  0  0  0  0
  -28.0739  -31.8424   26.5382 H   0  0  0  0  0  0
  -28.2603  -38.0103   24.7518 H   0  0  0  0  0  0
  -28.1073  -36.2636   24.6276 H   0  0  0  0  0  0
  -27.2305  -37.1448   25.8869 H   0  0  0  0  0  0
  -20.9314  -29.8762   21.6934 H   0  0  0  0  0  0
  -26.0182  -38.2872   24.1416 H   0  0  0  0  0  0
  -28.4260  -17.7654   21.0674 H   0  0  0  0  0  0
  -31.5640  -20.7247   21.4603 H   0  0  0  0  0  0
  -32.5955  -16.5962   21.2397 H   0  0  0  0  0  0
  -27.2263  -25.3677   21.4065 H   0  0  0  0  0  0
  -29.0593  -15.3899   21.2649 H   0  0  0  0  0  0
  -29.8798  -21.8183   20.3273 H   0  0  0  0  0  0
  -27.6619  -19.2841   22.5546 H   0  0  0  0  0  0
  -27.0994  -20.9204   22.3027 H   0  0  0  0  0  0
  -29.9115  -25.0042   19.3343 H   0  0  0  0  0  0
  1 25  1  0  0  0
  1 30  2  0  0  0
  1 81  1  0  0  0
  2  3  1  0  0  0
  2 25  1  0  0  0
  2 87  1  0  0  0
  2 88  1  0  0  0
  3  4  1  0  0  0
  3 89  1  0  0  0
  3 90  1  0  0  0
  4  5  1  0  0  0
  4 91  1  0  0  0
  4 92  1  0  0  0
  5  6  1  0  0  0
  5 26  1  0  0  0
  5 93  1  0  0  0
  6 25  1  0  0  0
  6 94  1  0  0  0
  6 95  1  0  0  0
  7  8  2  0  0  0
  7 26  1  0  0  0
  7 29  1  0  0  0
  8  9  1  0  0  0
  8 22  1  0  0  0
  9 10  1  0  0  0
  9 27  2  0  0  0
 10 11  2  0  0  0
 10 15  1  0  0  0
 11 12  1  0  0  0
 11 96  1  0  0  0
 12 13  2  0  0  0
 12 97  1  0  0  0
 13 14  1  0  0  0
 13 31  1  0  0  0
 14 15  2  0  0  0
 14 98  1  0  0  0
 15 99  1  0  0  0
 16 17  2  0  0  0
 16 21  1  0  0  0
 16 31  1  0  0  0
 17 18  1  0  0  0
 17100  1  0  0  0
 18 19  2  0  0  0
 18101  1  0  0  0
 19 20  1  0  0  0
 19 24  1  0  0  0
 20 21  2  0  0  0
 20102  1  0  0  0
 21 23  1  0  0  0
 22 28  1  0  0  0
 22 32  2  0  0  0
 26 27  1  0  0  0
 28103  1  0  0  0
 28104  1  0  0  0
 29105  1  0  0  0
 29106  1  0  0  0
 33 34  1  0  0  0
 33 66  1  0  0  0
 33 70  2  0  0  0
 34 36  1  0  0  0
 34 59  1  0  0  0
 34107  1  0  0  0
 35 44  2  0  0  0
 35 45  1  0  0  0
 35 68  1  0  0  0
 36 56  1  0  0  0
 36108  1  0  0  0
 37 39  1  0  0  0
 37 47  1  0  0  0
 37 66  1  0  0  0
 37109  1  0  0  0
 38 43  2  0  0  0
 38 46  1  0  0  0
 38 47  1  0  0  0
 39 64  1  0  0  0
 39 67  2  0  0  0
 40 52  1  0  0  0
 40 53  2  0  0  0
 40 58  1  0  0  0
 41110  1  0  0  0
 41111  1  0  0  0
 41112  1  0  0  0
 41 48  1  0  0  0
 42 43  1  0  0  0
 42 66  1  0  0  0
 42113  1  0  0  0
 42114  1  0  0  0
 43 44  1  0  0  0
 44115  1  0  0  0
 45 46  2  0  0  0
 45116  1  0  0  0
 46117  1  0  0  0
 47118  1  0  0  0
 47119  1  0  0  0
 48 56  1  0  0  0
 48 65  1  0  0  0
 48120  1  0  0  0
 49 50  1  0  0  0
 49 53  1  0  0  0
 49 64  1  0  0  0
 49121  1  0  0  0
 50 51  1  0  0  0
 50122  1  0  0  0
 50123  1  0  0  0
 51 52  1  0  0  0
 51124  1  0  0  0
 51125  1  0  0  0
 52126  1  0  0  0
 52127  1  0  0  0
 53 54  1  0  0  0
 54 55  2  0  0  0
 54128  1  0  0  0
 55 57  1  0  0  0
 55129  1  0  0  0
 56 69  2  0  0  0
 57 58  2  0  0  0
 57130  1  0  0  0
 58131  1  0  0  0
 59 60  1  0  0  0
 59 61  1  0  0  0
 59 62  1  0  0  0
 60132  1  0  0  0
 60133  1  0  0  0
 60134  1  0  0  0
 61135  1  0  0  0
 61136  1  0  0  0
 61137  1  0  0  0
 62138  1  0  0  0
 62139  1  0  0  0
 62140  1  0  0  0
 63 65  1  0  0  0
 63141  1  0  0  0
 63142  1  0  0  0
 63143  1  0  0  0
 64144  1  0  0  0
 65145  1  0  0  0
 68 77  1  0  0  0
 71 74  2  0  0  0
 71 75  1  0  0  0
 71146  1  0  0  0
 72 74  1  0  0  0
 72 76  2  0  0  0
 72147  1  0  0  0
 73 75  2  0  0  0
 73 76  1  0  0  0
 73148  1  0  0  0
 74 78  1  0  0  0
 75 81  1  0  0  0
 76 86  1  0  0  0
 77 79  2  0  0  0
 77149  1  0  0  0
 78 82  1  0  0  0
 78 83  2  0  0  0
 79 80  1  0  0  0
 79 85  1  0  0  0
 80 82  1  0  0  0
 80 84  2  0  0  0
 81150  1  0  0  0
 82151  1  0  0  0
 83152  1  0  0  0
 83153  1  0  0  0
 85154  1  0  0  0
M  CHG  1  83   1
M  ISO  4   1 100  68 101  77 101  81 100
M  END
> <chiral flag>
0

> <version>
0

> <s_m_source_file>
/data/baiqing/PycharmProjects/Reinvent-master-3.2/result/LINK_invent/BTK/process_docking_weight1_custom_product_contain_oxygen_bond_distance_aromatic_linkinvent_7_9_3/rearranged_h_0162.sdf

> <i_m_source_file_index>
24

> <r_mmod_Potential_Energy-OPLS-2005>
-408.953247070312

> <r_mmod_Stretch_Energy-OPLS-2005>
48.6685600280762

> <r_mmod_Bend_Energy-OPLS-2005>
108.268493652344

> <r_mmod_Torsional_Energy-OPLS-2005>
203.220993041992

> <r_mmod_Improper_Torsional_Energy-OPLS-2005>
4.78966283798218

> <r_mmod_Van_der_Waal_Energy-OPLS-2005>
176.813690185547

> <r_mmod_Electrostatic_Energy-OPLS-2005>
-533.11865234375

> <r_mmod_Solvation_Energy-OPLS-2005>
-440.193572998047

> <b_mmod_Minimization_Converged-OPLS-2005>
0

> <r_mmod_RMS_Derivative-OPLS-2005>
0.32960057258606

$$$$
24
                    3D
 Structure written by MMmdl.
156165  0  0  1  0            999 V2000
  -30.6469  -14.6321   20.4905 C   0  0  0  0  0  0
  -30.4293  -12.3855   19.4595 C   0  0  0  0  0  0
  -29.5068  -12.5017   18.2268 C   0  0  0  0  0  0
  -28.0295  -12.3446   18.6371 C   0  0  0  0  0  0
  -27.6503  -13.2213   19.8611 C   0  0  2  0  0  0
  -28.6944  -13.0960   20.9936 C   0  0  0  0  0  0
  -25.2543  -13.8181   20.5683 C   0  0  0  0  0  0
  -24.1818  -13.0437   20.9185 C   0  0  0  0  0  0
  -24.6394  -11.6911   20.8736 C   0  0  0  0  0  0
  -23.9067  -10.4290   21.0403 C   0  0  0  0  0  0
  -24.3617   -9.4205   21.9181 C   0  0  0  0  0  0
  -23.6288   -8.2242   22.0753 C   0  0  0  0  0  0
  -22.4269   -8.0281   21.3545 C   0  0  0  0  0  0
  -21.9902   -9.0258   20.4651 C   0  0  0  0  0  0
  -22.7235  -10.2133   20.3058 C   0  0  0  0  0  0
  -21.6856   -6.0733   22.5277 C   0  0  0  0  0  0
  -21.4022   -6.5638   23.8210 C   0  0  0  0  0  0
  -21.3655   -5.6793   24.9173 C   0  0  0  0  0  0
  -21.6040   -4.3055   24.7227 C   0  0  0  0  0  0
  -21.8820   -3.8145   23.4350 C   0  0  0  0  0  0
  -21.9193   -4.6960   22.3403 C   0  0  0  0  0  0
  -22.7840  -13.5229   21.1846 C   0  0  0  0  0  0
  -22.1660   -4.2144   21.0979 F   0  0  0  0  0  0
  -21.5621   -3.4541   25.7741 F   0  0  0  0  0  0
  -30.0095  -13.4214   20.4245 N   0  0  0  0  0  0
  -26.2973  -12.9372   20.3311 N   0  0  0  0  0  0
  -25.9326  -11.6521   20.5758 N   0  0  0  0  0  0
  -22.0483  -12.8230   22.0408 N   0  0  0  0  0  0
  -25.4247  -15.1907   20.4106 N   0  0  0  0  0  0
  -31.8223  -14.7462   20.1295 O   0  0  0  0  0  0
  -21.6637   -6.8877   21.4237 O   0  0  0  0  0  0
  -22.3524  -14.5533   20.6689 O   0  0  0  0  0  0
  -24.6242  -31.8611   23.2035 C   0  0  0  0  0  0
  -25.9097  -32.4787   23.8360 C   0  0  1  0  0  0
  -27.2221  -27.3352   20.1246 C   0  0  0  0  0  0
  -25.5922  -33.8588   24.2292 N   0  0  0  0  0  0
  -23.4180  -30.4839   21.5455 C   0  0  2  0  0  0
  -24.8667  -28.9419   20.1097 C   0  0  0  0  0  0
  -22.7469  -29.4623   22.4938 C   0  0  0  0  0  0
  -18.0290  -28.1378   22.8485 C   0  0  0  0  0  0
  -24.1489  -36.7297   23.2634 C   0  0  0  0  0  0
  -25.9570  -30.7978   21.3720 C   0  0  0  0  0  0
  -26.0340  -29.4260   20.7159 C   0  0  0  0  0  0
  -27.2190  -28.6338   20.7144 C   0  0  0  0  0  0
  -26.0410  -26.9032   19.4853 C   0  0  0  0  0  0
  -24.8710  -27.6850   19.4840 C   0  0  0  0  0  0
  -23.6329  -29.8193   20.1601 C   0  0  0  0  0  0
  -25.4111  -36.3088   24.0330 C   0  0  1  0  0  0
  -20.5887  -28.3679   23.1285 C   0  0  2  0  0  0
  -20.6779  -26.9404   22.5411 C   0  0  0  0  0  0
  -19.5759  -26.6380   21.5207 C   0  0  0  0  0  0
  -18.1936  -26.7922   22.1619 C   0  0  0  0  0  0
  -19.1541  -28.8845   23.2882 C   0  0  0  0  0  0
  -18.9463  -30.1446   23.8901 C   0  0  0  0  0  0
  -17.6464  -30.6580   24.0561 C   0  0  0  0  0  0
  -25.9048  -34.9455   23.5109 C   0  0  0  0  0  0
  -16.5356  -29.9080   23.6323 C   0  0  0  0  0  0
  -16.7277  -28.6496   23.0347 C   0  0  0  0  0  0
  -26.4488  -31.6582   25.0715 C   0  0  0  0  0  0
  -25.3734  -31.3732   26.1457 C   0  0  0  0  0  0
  -27.0304  -30.3001   24.6145 C   0  0  0  0  0  0
  -27.6070  -32.4292   25.7474 C   0  0  0  0  0  0
  -27.5582  -37.1801   24.8458 C   0  0  0  0  0  0
  -21.4184  -29.3036   22.3681 N   0  0  0  0  0  0
  -26.4291  -37.3779   23.9408 N   0  0  0  0  0  0
  -24.6851  -31.0635   22.0979 N   0  0  0  0  0  0
  -23.4198  -28.8165   23.3014 O   0  0  0  0  0  0
  -28.3125  -26.4615   20.1640 O   0  0  0  0  0  0
  -26.5615  -34.8918   22.4674 O   0  0  0  0  0  0
  -23.5409  -32.1399   23.7373 O   0  0  0  0  0  0
  -31.3429  -17.7215   20.2179 C   0  0  0  0  0  0
  -30.1882  -17.0726   20.5958 C   0  0  0  0  0  0
  -29.8377  -19.2982   20.4909 C   0  0  0  0  0  0
  -29.1422  -21.5578   19.3277 C   0  0  0  0  0  0
  -29.6233  -21.5679   21.7639 C   0  0  0  0  0  0
  -28.4138  -22.9487   19.4540 C   0  0  0  0  0  0
  -28.8870  -22.9439   21.8905 C   0  0  0  0  0  0
  -29.1086  -20.6668   20.6092 C   0  0  2  0  0  0
  -28.9042  -23.8580   20.6231 C   0  0  2  0  0  0
  -28.0543  -25.1905   20.8686 C   0  0  0  0  0  0
  -31.1164  -19.1006   20.1615 N   0  0  0  0  0  0
  -29.8775  -15.7318   20.7785 N   0  0  0  0  0  0
  -29.2306  -18.0861   20.7844 O   0  0  0  0  0  0
  -31.4737  -12.4923   19.1604 H   0  0  0  0  0  0
  -30.3487  -11.3953   19.9105 H   0  0  0  0  0  0
  -29.7707  -11.7469   17.4849 H   0  0  0  0  0  0
  -29.6546  -13.4696   17.7447 H   0  0  0  0  0  0
  -27.8647  -11.2924   18.8719 H   0  0  0  0  0  0
  -27.3775  -12.5727   17.7931 H   0  0  0  0  0  0
  -27.6636  -14.2539   19.5120 H   0  0  0  0  0  0
  -28.7019  -12.0835   21.4000 H   0  0  0  0  0  0
  -28.4457  -13.7528   21.8285 H   0  0  0  0  0  0
  -25.2764   -9.5674   22.4753 H   0  0  0  0  0  0
  -23.9996   -7.4633   22.7471 H   0  0  0  0  0  0
  -21.0828   -8.8781   19.8962 H   0  0  0  0  0  0
  -22.3694  -10.9673   19.6167 H   0  0  0  0  0  0
  -21.2026   -7.6149   23.9712 H   0  0  0  0  0  0
  -21.1472   -6.0525   25.9073 H   0  0  0  0  0  0
  -22.0605   -2.7607   23.2857 H   0  0  0  0  0  0
  -22.4099  -11.9899   22.4810 H   0  0  0  0  0  0
  -21.1100  -13.1260   22.2607 H   0  0  0  0  0  0
  -24.6566  -15.8443   20.5215 H   0  0  0  0  0  0
  -26.2716  -15.6326   20.0763 H   0  0  0  0  0  0
  -26.7164  -32.5469   23.1112 H   0  0  0  0  0  0
  -25.0066  -33.9734   25.0435 H   0  0  0  0  0  0
  -22.7106  -31.3034   21.4033 H   0  0  0  0  0  0
  -23.3748  -35.9632   23.3297 H   0  0  0  0  0  0
  -24.3585  -36.8915   22.2049 H   0  0  0  0  0  0
  -23.7244  -37.6502   23.6652 H   0  0  0  0  0  0
  -26.0835  -31.5611   20.6029 H   0  0  0  0  0  0
  -26.8393  -30.8496   21.9984 H   0  0  0  0  0  0
  -28.1139  -28.9961   21.2010 H   0  0  0  0  0  0
  -26.0160  -25.9369   19.0012 H   0  0  0  0  0  0
  -23.9783  -27.3100   19.0027 H   0  0  0  0  0  0
  -23.7498  -30.5965   19.4041 H   0  0  0  0  0  0
  -22.7537  -29.2474   19.8580 H   0  0  0  0  0  0
  -25.1288  -36.1943   25.0822 H   0  0  0  0  0  0
  -20.9982  -28.3256   24.1406 H   0  0  0  0  0  0
  -20.5668  -26.2290   23.3608 H   0  0  0  0  0  0
  -21.6652  -26.7430   22.1213 H   0  0  0  0  0  0
  -19.6922  -25.6293   21.1233 H   0  0  0  0  0  0
  -19.6695  -27.3194   20.6740 H   0  0  0  0  0  0
  -17.4206  -26.6662   21.4024 H   0  0  0  0  0  0
  -18.0343  -26.0062   22.9012 H   0  0  0  0  0  0
  -19.7939  -30.7258   24.2274 H   0  0  0  0  0  0
  -17.5018  -31.6261   24.5161 H   0  0  0  0  0  0
  -15.5356  -30.2982   23.7640 H   0  0  0  0  0  0
  -15.8678  -28.0813   22.7062 H   0  0  0  0  0  0
  -24.5888  -30.7101   25.7796 H   0  0  0  0  0  0
  -24.8953  -32.2908   26.4895 H   0  0  0  0  0  0
  -25.8063  -30.8895   27.0221 H   0  0  0  0  0  0
  -26.2858  -29.6773   24.1170 H   0  0  0  0  0  0
  -27.4008  -29.7234   25.4631 H   0  0  0  0  0  0
  -27.8733  -30.4283   23.9349 H   0  0  0  0  0  0
  -27.2709  -33.3598   26.2057 H   0  0  0  0  0  0
  -28.3877  -32.6832   25.0292 H   0  0  0  0  0  0
  -28.0732  -31.8401   26.5382 H   0  0  0  0  0  0
  -28.2599  -38.0099   24.7508 H   0  0  0  0  0  0
  -28.1080  -36.2634   24.6271 H   0  0  0  0  0  0
  -27.2307  -37.1439   25.8863 H   0  0  0  0  0  0
  -20.9356  -29.8760   21.6898 H   0  0  0  0  0  0
  -26.0175  -38.2853   24.1414 H   0  0  0  0  0  0
  -32.3139  -17.3095   19.9793 H   0  0  0  0  0  0
  -30.1828  -21.7329   19.0508 H   0  0  0  0  0  0
  -28.7054  -21.0000   18.4988 H   0  0  0  0  0  0
  -29.5307  -21.0253   22.7055 H   0  0  0  0  0  0
  -30.6907  -21.7476   21.6271 H   0  0  0  0  0  0
  -27.3452  -22.7649   19.5754 H   0  0  0  0  0  0
  -28.5129  -23.4937   18.5144 H   0  0  0  0  0  0
  -29.3196  -23.4915   22.7288 H   0  0  0  0  0  0
  -27.8500  -22.7530   22.1720 H   0  0  0  0  0  0
  -28.0637  -20.4331   20.8167 H   0  0  0  0  0  0
  -29.9391  -24.1467   20.4352 H   0  0  0  0  0  0
  -28.1901  -25.4590   21.9171 H   0  0  0  0  0  0
  -27.0025  -24.9107   20.8096 H   0  0  0  0  0  0
  -28.9306  -15.5289   21.0588 H   0  0  0  0  0  0
  1 25  1  0  0  0
  1 30  2  0  0  0
  1 82  1  0  0  0
  2  3  1  0  0  0
  2 25  1  0  0  0
  2 84  1  0  0  0
  2 85  1  0  0  0
  3  4  1  0  0  0
  3 86  1  0  0  0
  3 87  1  0  0  0
  4  5  1  0  0  0
  4 88  1  0  0  0
  4 89  1  0  0  0
  5  6  1  0  0  0
  5 26  1  0  0  0
  5 90  1  0  0  0
  6 25  1  0  0  0
  6 91  1  0  0  0
  6 92  1  0  0  0
  7  8  2  0  0  0
  7 26  1  0  0  0
  7 29  1  0  0  0
  8  9  1  0  0  0
  8 22  1  0  0  0
  9 10  1  0  0  0
  9 27  2  0  0  0
 10 11  2  0  0  0
 10 15  1  0  0  0
 11 12  1  0  0  0
 11 93  1  0  0  0
 12 13  2  0  0  0
 12 94  1  0  0  0
 13 14  1  0  0  0
 13 31  1  0  0  0
 14 15  2  0  0  0
 14 95  1  0  0  0
 15 96  1  0  0  0
 16 17  2  0  0  0
 16 21  1  0  0  0
 16 31  1  0  0  0
 17 18  1  0  0  0
 17 97  1  0  0  0
 18 19  2  0  0  0
 18 98  1  0  0  0
 19 20  1  0  0  0
 19 24  1  0  0  0
 20 21  2  0  0  0
 20 99  1  0  0  0
 21 23  1  0  0  0
 22 28  1  0  0  0
 22 32  2  0  0  0
 26 27  1  0  0  0
 28100  1  0  0  0
 28101  1  0  0  0
 29102  1  0  0  0
 29103  1  0  0  0
 33 34  1  0  0  0
 33 66  1  0  0  0
 33 70  2  0  0  0
 34 36  1  0  0  0
 34 59  1  0  0  0
 34104  1  0  0  0
 35 44  2  0  0  0
 35 45  1  0  0  0
 35 68  1  0  0  0
 36 56  1  0  0  0
 36105  1  0  0  0
 37 39  1  0  0  0
 37 47  1  0  0  0
 37 66  1  0  0  0
 37106  1  0  0  0
 38 43  2  0  0  0
 38 46  1  0  0  0
 38 47  1  0  0  0
 39 64  1  0  0  0
 39 67  2  0  0  0
 40 52  1  0  0  0
 40 53  2  0  0  0
 40 58  1  0  0  0
 41107  1  0  0  0
 41108  1  0  0  0
 41109  1  0  0  0
 41 48  1  0  0  0
 42 43  1  0  0  0
 42 66  1  0  0  0
 42110  1  0  0  0
 42111  1  0  0  0
 43 44  1  0  0  0
 44112  1  0  0  0
 45 46  2  0  0  0
 45113  1  0  0  0
 46114  1  0  0  0
 47115  1  0  0  0
 47116  1  0  0  0
 48 56  1  0  0  0
 48 65  1  0  0  0
 48117  1  0  0  0
 49 50  1  0  0  0
 49 53  1  0  0  0
 49 64  1  0  0  0
 49118  1  0  0  0
 50 51  1  0  0  0
 50119  1  0  0  0
 50120  1  0  0  0
 51 52  1  0  0  0
 51121  1  0  0  0
 51122  1  0  0  0
 52123  1  0  0  0
 52124  1  0  0  0
 53 54  1  0  0  0
 54 55  2  0  0  0
 54125  1  0  0  0
 55 57  1  0  0  0
 55126  1  0  0  0
 56 69  2  0  0  0
 57 58  2  0  0  0
 57127  1  0  0  0
 58128  1  0  0  0
 59 60  1  0  0  0
 59 61  1  0  0  0
 59 62  1  0  0  0
 60129  1  0  0  0
 60130  1  0  0  0
 60131  1  0  0  0
 61132  1  0  0  0
 61133  1  0  0  0
 61134  1  0  0  0
 62135  1  0  0  0
 62136  1  0  0  0
 62137  1  0  0  0
 63 65  1  0  0  0
 63138  1  0  0  0
 63139  1  0  0  0
 63140  1  0  0  0
 64141  1  0  0  0
 65142  1  0  0  0
 68 80  1  0  0  0
 71 72  2  0  0  0
 71 81  1  0  0  0
 71143  1  0  0  0
 72 82  1  0  0  0
 72 83  1  0  0  0
 73 81  2  0  0  0
 73 83  1  0  0  0
 73 78  1  0  0  0
 74 76  1  0  0  0
 74 78  1  0  0  0
 74144  1  0  0  0
 74145  1  0  0  0
 75 77  1  0  0  0
 75 78  1  0  0  0
 75146  1  0  0  0
 75147  1  0  0  0
 76 79  1  0  0  0
 76148  1  0  0  0
 76149  1  0  0  0
 77 79  1  0  0  0
 77150  1  0  0  0
 77151  1  0  0  0
 78152  1  0  0  0
 79 80  1  0  0  0
 79153  1  0  0  0
 80154  1  0  0  0
 80155  1  0  0  0
 82156  1  0  0  0
M  ISO  4   1 100  68 101  80 101  82 100
M  END
> <chiral flag>
0

> <version>
0

> <s_m_source_file>
/data/baiqing/PycharmProjects/Reinvent-master-3.2/result/LINK_invent/BTK/process_docking_weight1_custom_product_contain_oxygen_bond_distance_aromatic_linkinvent_7_9_3/rearranged_h_0162.sdf

> <i_m_source_file_index>
25

> <r_mmod_Potential_Energy-OPLS-2005>
60.3910598754883

> <r_mmod_Stretch_Energy-OPLS-2005>
72.1480026245117

> <r_mmod_Bend_Energy-OPLS-2005>
131.842880249023

> <r_mmod_Torsional_Energy-OPLS-2005>
252.046081542969

> <r_mmod_Improper_Torsional_Energy-OPLS-2005>
4.5552339553833

> <r_mmod_Van_der_Waal_Energy-OPLS-2005>
125.708847045898

> <r_mmod_Electrostatic_Energy-OPLS-2005>
-362.291320800781

> <r_mmod_Solvation_Energy-OPLS-2005>
-210.836608886719

> <b_mmod_Minimization_Converged-OPLS-2005>
0

> <r_mmod_RMS_Derivative-OPLS-2005>
0.661891222000122

$$$$
25
                    3D
 Structure written by MMmdl.
162170  0  0  1  0            999 V2000
  -30.7054  -14.4784   20.4820 C   0  0  0  0  0  0
  -30.4205  -12.2888   19.4300 C   0  0  0  0  0  0
  -29.5013  -12.4851   18.2056 C   0  0  0  0  0  0
  -28.0200  -12.3618   18.6155 C   0  0  0  0  0  0
  -27.6606  -13.2121   19.8654 C   0  0  2  0  0  0
  -28.7048  -13.0266   20.9926 C   0  0  0  0  0  0
  -25.2594  -13.8162   20.5652 C   0  0  0  0  0  0
  -24.1846  -13.0444   20.9159 C   0  0  0  0  0  0
  -24.6401  -11.6911   20.8723 C   0  0  0  0  0  0
  -23.9067  -10.4299   21.0404 C   0  0  0  0  0  0
  -24.3620   -9.4216   21.9182 C   0  0  0  0  0  0
  -23.6295   -8.2246   22.0749 C   0  0  0  0  0  0
  -22.4269   -8.0274   21.3546 C   0  0  0  0  0  0
  -21.9906   -9.0248   20.4652 C   0  0  0  0  0  0
  -22.7235  -10.2131   20.3060 C   0  0  0  0  0  0
  -21.6846   -6.0738   22.5282 C   0  0  0  0  0  0
  -21.4018   -6.5637   23.8216 C   0  0  0  0  0  0
  -21.3662   -5.6786   24.9176 C   0  0  0  0  0  0
  -21.6038   -4.3046   24.7227 C   0  0  0  0  0  0
  -21.8821   -3.8142   23.4345 C   0  0  0  0  0  0
  -21.9191   -4.6971   22.3400 C   0  0  0  0  0  0
  -22.7871  -13.5257   21.1821 C   0  0  0  0  0  0
  -22.1663   -4.2160   21.0979 F   0  0  0  0  0  0
  -21.5627   -3.4528   25.7743 F   0  0  0  0  0  0
  -30.0375  -13.2956   20.4311 N   0  0  0  0  0  0
  -26.3026  -12.9341   20.3311 N   0  0  0  0  0  0
  -25.9329  -11.6495   20.5729 N   0  0  0  0  0  0
  -22.0493  -12.8273   22.0377 N   0  0  0  0  0  0
  -25.4294  -15.1875   20.4079 N   0  0  0  0  0  0
  -31.8861  -14.5948   20.1487 O   0  0  0  0  0  0
  -21.6630   -6.8872   21.4233 O   0  0  0  0  0  0
  -22.3559  -14.5558   20.6653 O   0  0  0  0  0  0
  -24.6179  -31.8705   23.2142 C   0  0  0  0  0  0
  -25.9068  -32.4838   23.8433 C   0  0  1  0  0  0
  -27.2174  -27.4159   20.0833 C   0  0  0  0  0  0
  -25.5915  -33.8633   24.2353 N   0  0  0  0  0  0
  -23.4051  -30.4997   21.5572 C   0  0  2  0  0  0
  -24.8441  -28.9767   20.1154 C   0  0  0  0  0  0
  -22.7434  -29.4674   22.5006 C   0  0  0  0  0  0
  -18.0278  -28.1369   22.8486 C   0  0  0  0  0  0
  -24.1473  -36.7312   23.2637 C   0  0  0  0  0  0
  -25.9412  -30.8283   21.3736 C   0  0  0  0  0  0
  -26.0123  -29.4663   20.7135 C   0  0  0  0  0  0
  -27.2008  -28.6927   20.6983 C   0  0  0  0  0  0
  -26.0216  -26.9694   19.4590 C   0  0  0  0  0  0
  -24.8432  -27.7257   19.4915 C   0  0  0  0  0  0
  -23.6113  -29.8462   20.1685 C   0  0  0  0  0  0
  -25.4097  -36.3124   24.0342 C   0  0  1  0  0  0
  -20.5874  -28.3666   23.1303 C   0  0  2  0  0  0
  -20.6771  -26.9402   22.5410 C   0  0  0  0  0  0
  -19.5744  -26.6377   21.5208 C   0  0  0  0  0  0
  -18.1924  -26.7914   22.1618 C   0  0  0  0  0  0
  -19.1532  -28.8835   23.2885 C   0  0  0  0  0  0
  -18.9456  -30.1436   23.8906 C   0  0  0  0  0  0
  -17.6463  -30.6574   24.0566 C   0  0  0  0  0  0
  -25.9034  -34.9487   23.5146 C   0  0  0  0  0  0
  -16.5351  -29.9084   23.6320 C   0  0  0  0  0  0
  -16.7272  -28.6493   23.0353 C   0  0  0  0  0  0
  -26.4476  -31.6620   25.0768 C   0  0  0  0  0  0
  -25.3742  -31.3747   26.1523 C   0  0  0  0  0  0
  -27.0305  -30.3057   24.6161 C   0  0  0  0  0  0
  -27.6045  -32.4351   25.7524 C   0  0  0  0  0  0
  -27.5582  -37.1810   24.8469 C   0  0  0  0  0  0
  -21.4164  -29.3032   22.3720 N   0  0  0  0  0  0
  -26.4292  -37.3806   23.9412 N   0  0  0  0  0  0
  -24.6738  -31.0807   22.1055 N   0  0  0  0  0  0
  -23.4198  -28.8199   23.3038 O   0  0  0  0  0  0
  -28.3629  -26.6263   20.1160 O   0  0  0  0  0  0
  -26.5593  -34.8944   22.4700 O   0  0  0  0  0  0
  -23.5363  -32.1465   23.7522 O   0  0  0  0  0  0
  -30.5558  -16.7752   18.5757 C   0  0  0  0  0  0
  -29.4380  -17.9783   20.3562 C   0  0  0  0  0  0
  -30.5395  -17.9209   17.7490 C   0  0  0  0  0  0
  -29.9080  -19.1115   18.2220 C   0  0  0  0  0  0
  -30.0050  -16.7750   19.8776 C   0  0  0  0  0  0
  -29.3861  -19.1438   19.5513 C   0  0  0  0  0  0
  -31.1650  -17.8200   16.3976 C   0  0  0  0  0  0
  -28.6595  -22.7332   19.9278 C   0  0  0  0  0  0
  -29.1344  -24.1973   20.2095 C   0  0  0  0  0  0
  -28.6386  -20.1472   16.2446 C   0  0  0  0  0  0
  -29.7609  -20.3191   17.2823 C   0  0  0  0  0  0
  -29.4578  -21.4946   20.3960 C   0  0  0  0  0  0
  -28.1477  -25.2596   19.6964 C   0  0  0  0  0  0
  -31.8953  -16.8684   15.9906 N   0  0  0  0  0  0
  -29.9364  -15.5719   20.6641 N   0  0  0  0  0  0
  -28.7106  -20.2604   20.0777 N   0  0  0  0  0  0
  -27.6115  -22.5434   19.2924 O   0  0  0  0  0  0
  -30.1973  -24.4704   20.7831 O   0  0  0  0  0  0
  -31.4690  -12.3655   19.1310 H   0  0  0  0  0  0
  -30.2969  -11.2862   19.8418 H   0  0  0  0  0  0
  -29.7399  -11.7490   17.4361 H   0  0  0  0  0  0
  -29.6796  -13.4610   17.7520 H   0  0  0  0  0  0
  -27.8224  -11.3077   18.8139 H   0  0  0  0  0  0
  -27.3766  -12.6390   17.7787 H   0  0  0  0  0  0
  -27.6956  -14.2549   19.5486 H   0  0  0  0  0  0
  -28.6687  -12.0089   21.3842 H   0  0  0  0  0  0
  -28.4845  -13.6821   21.8371 H   0  0  0  0  0  0
  -25.2783   -9.5687   22.4742 H   0  0  0  0  0  0
  -24.0010   -7.4637   22.7465 H   0  0  0  0  0  0
  -21.0832   -8.8773   19.8961 H   0  0  0  0  0  0
  -22.3701  -10.9660   19.6155 H   0  0  0  0  0  0
  -21.2020   -7.6148   23.9724 H   0  0  0  0  0  0
  -21.1480   -6.0516   25.9076 H   0  0  0  0  0  0
  -22.0599   -2.7602   23.2836 H   0  0  0  0  0  0
  -22.4104  -11.9975   22.4844 H   0  0  0  0  0  0
  -21.1090  -13.1287   22.2524 H   0  0  0  0  0  0
  -24.6597  -15.8382   20.5185 H   0  0  0  0  0  0
  -26.2808  -15.6296   20.0855 H   0  0  0  0  0  0
  -26.7144  -32.5539   23.1203 H   0  0  0  0  0  0
  -25.0084  -33.9797   25.0514 H   0  0  0  0  0  0
  -22.6936  -31.3175   21.4259 H   0  0  0  0  0  0
  -23.3744  -35.9637   23.3315 H   0  0  0  0  0  0
  -24.3568  -36.8910   22.2051 H   0  0  0  0  0  0
  -23.7229  -37.6520   23.6638 H   0  0  0  0  0  0
  -26.0689  -31.5981   20.6107 H   0  0  0  0  0  0
  -26.8237  -30.8704   22.0005 H   0  0  0  0  0  0
  -28.1004  -29.0653   21.1668 H   0  0  0  0  0  0
  -25.9452  -26.0302   18.9315 H   0  0  0  0  0  0
  -23.9463  -27.3430   19.0239 H   0  0  0  0  0  0
  -23.7280  -30.6278   19.4172 H   0  0  0  0  0  0
  -22.7322  -29.2739   19.8650 H   0  0  0  0  0  0
  -25.1271  -36.1999   25.0838 H   0  0  0  0  0  0
  -20.9957  -28.3236   24.1427 H   0  0  0  0  0  0
  -20.5675  -26.2281   23.3602 H   0  0  0  0  0  0
  -21.6644  -26.7444   22.1206 H   0  0  0  0  0  0
  -19.6907  -25.6289   21.1236 H   0  0  0  0  0  0
  -19.6678  -27.3189   20.6737 H   0  0  0  0  0  0
  -17.4196  -26.6662   21.4019 H   0  0  0  0  0  0
  -18.0322  -26.0057   22.9012 H   0  0  0  0  0  0
  -19.7939  -30.7238   24.2287 H   0  0  0  0  0  0
  -17.5025  -31.6259   24.5162 H   0  0  0  0  0  0
  -15.5356  -30.2992   23.7633 H   0  0  0  0  0  0
  -15.8666  -28.0808   22.7080 H   0  0  0  0  0  0
  -24.5882  -30.7122   25.7879 H   0  0  0  0  0  0
  -24.8972  -32.2916   26.4996 H   0  0  0  0  0  0
  -25.8094  -30.8903   27.0276 H   0  0  0  0  0  0
  -26.2859  -29.6838   24.1178 H   0  0  0  0  0  0
  -27.4029  -29.7279   25.4633 H   0  0  0  0  0  0
  -27.8723  -30.4367   23.9356 H   0  0  0  0  0  0
  -27.2636  -33.3626   26.2137 H   0  0  0  0  0  0
  -28.3822  -32.6958   25.0335 H   0  0  0  0  0  0
  -28.0752  -31.8473   26.5418 H   0  0  0  0  0  0
  -28.2611  -38.0095   24.7515 H   0  0  0  0  0  0
  -28.1060  -36.2634   24.6282 H   0  0  0  0  0  0
  -27.2305  -37.1465   25.8873 H   0  0  0  0  0  0
  -20.9335  -29.8776   21.6954 H   0  0  0  0  0  0
  -26.0187  -38.2883   24.1414 H   0  0  0  0  0  0
  -30.9713  -15.8618   18.1792 H   0  0  0  0  0  0
  -28.9999  -17.9970   21.3450 H   0  0  0  0  0  0
  -30.9792  -18.6407   15.7011 H   0  0  0  0  0  0
  -28.5684  -21.0300   15.6096 H   0  0  0  0  0  0
  -27.6705  -20.0137   16.7264 H   0  0  0  0  0  0
  -28.8019  -19.2921   15.5891 H   0  0  0  0  0  0
  -30.7098  -20.5254   16.7873 H   0  0  0  0  0  0
  -29.5636  -21.2329   17.8260 H   0  0  0  0  0  0
  -29.6150  -21.5627   21.4730 H   0  0  0  0  0  0
  -30.4411  -21.4994   19.9247 H   0  0  0  0  0  0
  -27.1930  -24.9132   20.0905 H   0  0  0  0  0  0
  -28.1026  -25.2073   18.6074 H   0  0  0  0  0  0
  -32.0279  -16.1602   16.7026 H   0  0  0  0  0  0
  -29.0702  -15.4197   21.1577 H   0  0  0  0  0  0
  -27.9446  -20.5657   19.4738 H   0  0  0  0  0  0
  1 25  1  0  0  0
  1 30  2  0  0  0
  1 85  1  0  0  0
  2  3  1  0  0  0
  2 25  1  0  0  0
  2 89  1  0  0  0
  2 90  1  0  0  0
  3  4  1  0  0  0
  3 91  1  0  0  0
  3 92  1  0  0  0
  4  5  1  0  0  0
  4 93  1  0  0  0
  4 94  1  0  0  0
  5  6  1  0  0  0
  5 26  1  0  0  0
  5 95  1  0  0  0
  6 25  1  0  0  0
  6 96  1  0  0  0
  6 97  1  0  0  0
  7  8  2  0  0  0
  7 26  1  0  0  0
  7 29  1  0  0  0
  8  9  1  0  0  0
  8 22  1  0  0  0
  9 10  1  0  0  0
  9 27  2  0  0  0
 10 11  2  0  0  0
 10 15  1  0  0  0
 11 12  1  0  0  0
 11 98  1  0  0  0
 12 13  2  0  0  0
 12 99  1  0  0  0
 13 14  1  0  0  0
 13 31  1  0  0  0
 14 15  2  0  0  0
 14100  1  0  0  0
 15101  1  0  0  0
 16 17  2  0  0  0
 16 21  1  0  0  0
 16 31  1  0  0  0
 17 18  1  0  0  0
 17102  1  0  0  0
 18 19  2  0  0  0
 18103  1  0  0  0
 19 20  1  0  0  0
 19 24  1  0  0  0
 20 21  2  0  0  0
 20104  1  0  0  0
 21 23  1  0  0  0
 22 28  1  0  0  0
 22 32  2  0  0  0
 26 27  1  0  0  0
 28105  1  0  0  0
 28106  1  0  0  0
 29107  1  0  0  0
 29108  1  0  0  0
 33 34  1  0  0  0
 33 66  1  0  0  0
 33 70  2  0  0  0
 34 36  1  0  0  0
 34 59  1  0  0  0
 34109  1  0  0  0
 35 44  2  0  0  0
 35 45  1  0  0  0
 35 68  1  0  0  0
 36 56  1  0  0  0
 36110  1  0  0  0
 37 39  1  0  0  0
 37 47  1  0  0  0
 37 66  1  0  0  0
 37111  1  0  0  0
 38 43  2  0  0  0
 38 46  1  0  0  0
 38 47  1  0  0  0
 39 64  1  0  0  0
 39 67  2  0  0  0
 40 52  1  0  0  0
 40 53  2  0  0  0
 40 58  1  0  0  0
 41112  1  0  0  0
 41113  1  0  0  0
 41114  1  0  0  0
 41 48  1  0  0  0
 42 43  1  0  0  0
 42 66  1  0  0  0
 42115  1  0  0  0
 42116  1  0  0  0
 43 44  1  0  0  0
 44117  1  0  0  0
 45 46  2  0  0  0
 45118  1  0  0  0
 46119  1  0  0  0
 47120  1  0  0  0
 47121  1  0  0  0
 48 56  1  0  0  0
 48 65  1  0  0  0
 48122  1  0  0  0
 49 50  1  0  0  0
 49 53  1  0  0  0
 49 64  1  0  0  0
 49123  1  0  0  0
 50 51  1  0  0  0
 50124  1  0  0  0
 50125  1  0  0  0
 51 52  1  0  0  0
 51126  1  0  0  0
 51127  1  0  0  0
 52128  1  0  0  0
 52129  1  0  0  0
 53 54  1  0  0  0
 54 55  2  0  0  0
 54130  1  0  0  0
 55 57  1  0  0  0
 55131  1  0  0  0
 56 69  2  0  0  0
 57 58  2  0  0  0
 57132  1  0  0  0
 58133  1  0  0  0
 59 60  1  0  0  0
 59 61  1  0  0  0
 59 62  1  0  0  0
 60134  1  0  0  0
 60135  1  0  0  0
 60136  1  0  0  0
 61137  1  0  0  0
 61138  1  0  0  0
 61139  1  0  0  0
 62140  1  0  0  0
 62141  1  0  0  0
 62142  1  0  0  0
 63 65  1  0  0  0
 63143  1  0  0  0
 63144  1  0  0  0
 63145  1  0  0  0
 64146  1  0  0  0
 65147  1  0  0  0
 68 83  1  0  0  0
 71 73  2  0  0  0
 71 75  1  0  0  0
 71148  1  0  0  0
 72 75  2  0  0  0
 72 76  1  0  0  0
 72149  1  0  0  0
 73 74  1  0  0  0
 73 77  1  0  0  0
 74 76  2  0  0  0
 74 81  1  0  0  0
 75 85  1  0  0  0
 76 86  1  0  0  0
 77 84  2  0  0  0
 77150  1  0  0  0
 78 79  1  0  0  0
 78 82  1  0  0  0
 78 87  2  0  0  0
 79 83  1  0  0  0
 79 88  2  0  0  0
 80 81  1  0  0  0
 80151  1  0  0  0
 80152  1  0  0  0
 80153  1  0  0  0
 81154  1  0  0  0
 81155  1  0  0  0
 82 86  1  0  0  0
 82156  1  0  0  0
 82157  1  0  0  0
 83158  1  0  0  0
 83159  1  0  0  0
 84160  1  0  0  0
 85161  1  0  0  0
 86162  1  0  0  0
M  ISO  4   1 100  68 101  83 101  85 100
M  END
> <chiral flag>
0

> <version>
0

> <s_m_source_file>
/data/baiqing/PycharmProjects/Reinvent-master-3.2/result/LINK_invent/BTK/process_docking_weight1_custom_product_contain_oxygen_bond_distance_aromatic_linkinvent_7_9_3/rearranged_h_0162.sdf

> <i_m_source_file_index>
26

> <r_mmod_Potential_Energy-OPLS-2005>
118.787292480469

> <r_mmod_Stretch_Energy-OPLS-2005>
47.8584861755371

> <r_mmod_Bend_Energy-OPLS-2005>
116.693634033203

> <r_mmod_Torsional_Energy-OPLS-2005>
256.542877197266

> <r_mmod_Improper_Torsional_Energy-OPLS-2005>
13.6586580276489

> <r_mmod_Van_der_Waal_Energy-OPLS-2005>
181.105316162109

> <r_mmod_Electrostatic_Energy-OPLS-2005>
-268.651611328125

> <r_mmod_Solvation_Energy-OPLS-2005>
-249.757263183594

> <b_mmod_Minimization_Converged-OPLS-2005>
0

> <r_mmod_RMS_Derivative-OPLS-2005>
2.45185089111328

$$$$
26
                    3D
 Structure written by MMmdl.
152160  0  0  1  0            999 V2000
  -30.5736  -14.8302   20.4517 C   0  0  0  0  0  0
  -30.4465  -12.5078   19.4842 C   0  0  0  0  0  0
  -29.5217  -12.5200   18.2456 C   0  0  0  0  0  0
  -28.0477  -12.3321   18.6557 C   0  0  0  0  0  0
  -27.6405  -13.2378   19.8479 C   0  0  2  0  0  0
  -28.6872  -13.1949   20.9829 C   0  0  0  0  0  0
  -25.2497  -13.8204   20.5694 C   0  0  0  0  0  0
  -24.1795  -13.0442   20.9199 C   0  0  0  0  0  0
  -24.6391  -11.6922   20.8731 C   0  0  0  0  0  0
  -23.9077  -10.4291   21.0390 C   0  0  0  0  0  0
  -24.3625   -9.4201   21.9167 C   0  0  0  0  0  0
  -23.6289   -8.2244   22.0750 C   0  0  0  0  0  0
  -22.4267   -8.0283   21.3545 C   0  0  0  0  0  0
  -21.9903   -9.0260   20.4649 C   0  0  0  0  0  0
  -22.7243  -10.2130   20.3044 C   0  0  0  0  0  0
  -21.6860   -6.0723   22.5272 C   0  0  0  0  0  0
  -21.4026   -6.5624   23.8207 C   0  0  0  0  0  0
  -21.3661   -5.6774   24.9169 C   0  0  0  0  0  0
  -21.6040   -4.3040   24.7214 C   0  0  0  0  0  0
  -21.8824   -3.8130   23.4340 C   0  0  0  0  0  0
  -21.9195   -4.6950   22.3395 C   0  0  0  0  0  0
  -22.7812  -13.5212   21.1859 C   0  0  0  0  0  0
  -22.1661   -4.2137   21.0970 F   0  0  0  0  0  0
  -21.5621   -3.4524   25.7727 F   0  0  0  0  0  0
  -29.9808  -13.5790   20.4006 N   0  0  0  0  0  0
  -26.2937  -12.9420   20.3273 N   0  0  0  0  0  0
  -25.9326  -11.6563   20.5736 N   0  0  0  0  0  0
  -22.0466  -12.8212   22.0426 N   0  0  0  0  0  0
  -25.4169  -15.1943   20.4108 N   0  0  0  0  0  0
  -31.7652  -14.9391   20.1441 O   0  0  0  0  0  0
  -21.6635   -6.8877   21.4233 O   0  0  0  0  0  0
  -22.3495  -14.5515   20.6703 O   0  0  0  0  0  0
  -24.6413  -31.8483   23.1960 C   0  0  0  0  0  0
  -25.9204  -32.4703   23.8316 C   0  0  1  0  0  0
  -27.2141  -27.1972   20.1158 C   0  0  0  0  0  0
  -25.5981  -33.8512   24.2247 N   0  0  0  0  0  0
  -23.4396  -30.4739   21.5421 C   0  0  2  0  0  0
  -24.8846  -28.9193   20.1094 C   0  0  0  0  0  0
  -22.7556  -29.4563   22.4886 C   0  0  0  0  0  0
  -18.0296  -28.1418   22.8434 C   0  0  0  0  0  0
  -24.1495  -36.7254   23.2637 C   0  0  0  0  0  0
  -25.9953  -30.7404   21.3867 C   0  0  0  0  0  0
  -26.0654  -29.3615   20.7209 C   0  0  0  0  0  0
  -27.2326  -28.5146   20.7133 C   0  0  0  0  0  0
  -25.9913  -26.8374   19.4976 C   0  0  0  0  0  0
  -24.8561  -27.6664   19.4875 C   0  0  0  0  0  0
  -23.6605  -29.8153   20.1578 C   0  0  0  0  0  0
  -25.4118  -36.3025   24.0320 C   0  0  1  0  0  0
  -20.5905  -28.3715   23.1230 C   0  0  2  0  0  0
  -20.6783  -26.9420   22.5393 C   0  0  0  0  0  0
  -19.5764  -26.6386   21.5186 C   0  0  0  0  0  0
  -18.1943  -26.7955   22.1593 C   0  0  0  0  0  0
  -19.1551  -28.8886   23.2823 C   0  0  0  0  0  0
  -18.9471  -30.1490   23.8837 C   0  0  0  0  0  0
  -17.6466  -30.6591   24.0555 C   0  0  0  0  0  0
  -25.9062  -34.9401   23.5076 C   0  0  0  0  0  0
  -16.5359  -29.9070   23.6353 C   0  0  0  0  0  0
  -16.7280  -28.6521   23.0311 C   0  0  0  0  0  0
  -26.4554  -31.6539   25.0728 C   0  0  0  0  0  0
  -25.3766  -31.3726   26.1448 C   0  0  0  0  0  0
  -27.0414  -30.2933   24.6288 C   0  0  0  0  0  0
  -27.6097  -32.4300   25.7498 C   0  0  0  0  0  0
  -27.5577  -37.1781   24.8466 C   0  0  0  0  0  0
  -21.4256  -29.3042   22.3622 N   0  0  0  0  0  0
  -26.4290  -37.3725   23.9403 N   0  0  0  0  0  0
  -24.7115  -31.0401   22.0965 N   0  0  0  0  0  0
  -23.4218  -28.8078   23.2993 O   0  0  0  0  0  0
  -28.2607  -26.2178   20.1855 O   0  0  0  0  0  0
  -26.5609  -34.8879   22.4633 O   0  0  0  0  0  0
  -23.5542  -32.1320   23.7224 O   0  0  0  0  0  0
  -30.5358  -19.6845   21.0255 C   0  0  0  0  0  0
  -30.8295  -18.2467   21.1722 C   0  0  0  0  0  0
  -29.4130  -20.0451   20.3046 C   0  0  0  0  0  0
  -29.9013  -17.3685   20.5967 C   0  0  0  0  0  0
  -28.2174  -25.0667   19.3261 C   0  0  0  0  0  0
  -31.9775  -17.7906   21.9648 C   0  0  0  0  0  0
  -28.4674  -23.6754   19.3299 C   0  0  0  0  0  0
  -28.9943  -22.6487   20.3297 C   0  0  0  0  0  0
  -33.2541  -18.6268   21.8851 C   0  0  0  0  0  0
  -28.9219  -21.3143   19.8907 N   0  0  0  0  0  0
  -29.7415  -15.9490   20.6150 N   0  0  0  0  0  0
  -31.9973  -16.7751   22.6665 O   0  0  0  0  0  0
  -29.4542  -22.9336   21.4365 O   0  0  0  0  0  0
  -28.1748  -23.1081   18.1446 O   0  0  0  0  0  0
  -28.6857  -18.4656   19.8342 S   0  0  0  0  0  0
  -31.4833  -12.6543   19.1776 H   0  0  0  0  0  0
  -30.4168  -11.5382   19.9837 H   0  0  0  0  0  0
  -29.8176  -11.7392   17.5433 H   0  0  0  0  0  0
  -29.6360  -13.4671   17.7167 H   0  0  0  0  0  0
  -27.9093  -11.2842   18.9244 H   0  0  0  0  0  0
  -27.3929  -12.5141   17.8021 H   0  0  0  0  0  0
  -27.6248  -14.2538   19.4538 H   0  0  0  0  0  0
  -28.7406  -12.1979   21.4217 H   0  0  0  0  0  0
  -28.4076  -13.8698   21.7935 H   0  0  0  0  0  0
  -25.2778   -9.5663   22.4726 H   0  0  0  0  0  0
  -23.9995   -7.4629   22.7464 H   0  0  0  0  0  0
  -21.0829   -8.8784   19.8954 H   0  0  0  0  0  0
  -22.3709  -10.9665   19.6139 H   0  0  0  0  0  0
  -21.2036   -7.6133   23.9711 H   0  0  0  0  0  0
  -21.1473   -6.0498   25.9068 H   0  0  0  0  0  0
  -22.0602   -2.7589   23.2840 H   0  0  0  0  0  0
  -22.4083  -11.9881   22.4831 H   0  0  0  0  0  0
  -21.1090  -13.1248   22.2633 H   0  0  0  0  0  0
  -24.6441  -15.8431   20.5139 H   0  0  0  0  0  0
  -26.2553  -15.6368   20.0587 H   0  0  0  0  0  0
  -26.7259  -32.5340   23.1042 H   0  0  0  0  0  0
  -25.0176  -33.9645   25.0425 H   0  0  0  0  0  0
  -22.7388  -31.2993   21.3971 H   0  0  0  0  0  0
  -23.3745  -35.9599   23.3308 H   0  0  0  0  0  0
  -24.3593  -36.8867   22.2050 H   0  0  0  0  0  0
  -23.7248  -37.6458   23.6663 H   0  0  0  0  0  0
  -26.1483  -31.4995   20.6181 H   0  0  0  0  0  0
  -26.8681  -30.7855   22.0269 H   0  0  0  0  0  0
  -28.1324  -28.8466   21.2114 H   0  0  0  0  0  0
  -25.8587  -25.8662   19.0458 H   0  0  0  0  0  0
  -23.9456  -27.3179   19.0178 H   0  0  0  0  0  0
  -23.7938  -30.5942   19.4056 H   0  0  0  0  0  0
  -22.7763  -29.2567   19.8464 H   0  0  0  0  0  0
  -25.1289  -36.1872   25.0809 H   0  0  0  0  0  0
  -20.9973  -28.3301   24.1365 H   0  0  0  0  0  0
  -20.5661  -26.2320   23.3597 H   0  0  0  0  0  0
  -21.6653  -26.7428   22.1205 H   0  0  0  0  0  0
  -19.6920  -25.6282   21.1246 H   0  0  0  0  0  0
  -19.6724  -27.3174   20.6695 H   0  0  0  0  0  0
  -17.4207  -26.6651   21.4017 H   0  0  0  0  0  0
  -18.0367  -26.0135   22.9031 H   0  0  0  0  0  0
  -19.7949  -30.7326   24.2171 H   0  0  0  0  0  0
  -17.5018  -31.6265   24.5165 H   0  0  0  0  0  0
  -15.5356  -30.2935   23.7747 H   0  0  0  0  0  0
  -15.8686  -28.0849   22.7003 H   0  0  0  0  0  0
  -24.5949  -30.7054   25.7796 H   0  0  0  0  0  0
  -24.8960  -32.2918   26.4818 H   0  0  0  0  0  0
  -25.8085  -30.8952   27.0255 H   0  0  0  0  0  0
  -26.3033  -29.6650   24.1298 H   0  0  0  0  0  0
  -27.4029  -29.7224   25.4849 H   0  0  0  0  0  0
  -27.8934  -30.4154   23.9595 H   0  0  0  0  0  0
  -27.2695  -33.3617   26.2027 H   0  0  0  0  0  0
  -28.3924  -32.6833   25.0335 H   0  0  0  0  0  0
  -28.0749  -31.8461   26.5446 H   0  0  0  0  0  0
  -28.2583  -38.0081   24.7480 H   0  0  0  0  0  0
  -28.1079  -36.2611   24.6323 H   0  0  0  0  0  0
  -27.2311  -37.1470   25.8874 H   0  0  0  0  0  0
  -20.9464  -29.8753   21.6807 H   0  0  0  0  0  0
  -26.0165  -38.2799   24.1394 H   0  0  0  0  0  0
  -31.1815  -20.4343   21.4565 H   0  0  0  0  0  0
  -27.8842  -25.4448   18.3691 H   0  0  0  0  0  0
  -33.0585  -19.6959   21.8960 H   0  0  0  0  0  0
  -33.8002  -18.3880   20.9723 H   0  0  0  0  0  0
  -33.8989  -18.4060   22.7356 H   0  0  0  0  0  0
  -28.4008  -21.2858   19.0207 H   0  0  0  0  0  0
  -28.7782  -15.6630   20.6969 H   0  0  0  0  0  0
  -27.8630  -23.7917   17.5650 H   0  0  0  0  0  0
  1 25  1  0  0  0
  1 30  2  0  0  0
  1 81  1  0  0  0
  2  3  1  0  0  0
  2 25  1  0  0  0
  2 86  1  0  0  0
  2 87  1  0  0  0
  3  4  1  0  0  0
  3 88  1  0  0  0
  3 89  1  0  0  0
  4  5  1  0  0  0
  4 90  1  0  0  0
  4 91  1  0  0  0
  5  6  1  0  0  0
  5 26  1  0  0  0
  5 92  1  0  0  0
  6 25  1  0  0  0
  6 93  1  0  0  0
  6 94  1  0  0  0
  7  8  2  0  0  0
  7 26  1  0  0  0
  7 29  1  0  0  0
  8  9  1  0  0  0
  8 22  1  0  0  0
  9 10  1  0  0  0
  9 27  2  0  0  0
 10 11  2  0  0  0
 10 15  1  0  0  0
 11 12  1  0  0  0
 11 95  1  0  0  0
 12 13  2  0  0  0
 12 96  1  0  0  0
 13 14  1  0  0  0
 13 31  1  0  0  0
 14 15  2  0  0  0
 14 97  1  0  0  0
 15 98  1  0  0  0
 16 17  2  0  0  0
 16 21  1  0  0  0
 16 31  1  0  0  0
 17 18  1  0  0  0
 17 99  1  0  0  0
 18 19  2  0  0  0
 18100  1  0  0  0
 19 20  1  0  0  0
 19 24  1  0  0  0
 20 21  2  0  0  0
 20101  1  0  0  0
 21 23  1  0  0  0
 22 28  1  0  0  0
 22 32  2  0  0  0
 26 27  1  0  0  0
 28102  1  0  0  0
 28103  1  0  0  0
 29104  1  0  0  0
 29105  1  0  0  0
 33 34  1  0  0  0
 33 66  1  0  0  0
 33 70  2  0  0  0
 34 36  1  0  0  0
 34 59  1  0  0  0
 34106  1  0  0  0
 35 44  2  0  0  0
 35 45  1  0  0  0
 35 68  1  0  0  0
 36 56  1  0  0  0
 36107  1  0  0  0
 37 39  1  0  0  0
 37 47  1  0  0  0
 37 66  1  0  0  0
 37108  1  0  0  0
 38 43  2  0  0  0
 38 46  1  0  0  0
 38 47  1  0  0  0
 39 64  1  0  0  0
 39 67  2  0  0  0
 40 52  1  0  0  0
 40 53  2  0  0  0
 40 58  1  0  0  0
 41109  1  0  0  0
 41110  1  0  0  0
 41111  1  0  0  0
 41 48  1  0  0  0
 42 43  1  0  0  0
 42 66  1  0  0  0
 42112  1  0  0  0
 42113  1  0  0  0
 43 44  1  0  0  0
 44114  1  0  0  0
 45 46  2  0  0  0
 45115  1  0  0  0
 46116  1  0  0  0
 47117  1  0  0  0
 47118  1  0  0  0
 48 56  1  0  0  0
 48 65  1  0  0  0
 48119  1  0  0  0
 49 50  1  0  0  0
 49 53  1  0  0  0
 49 64  1  0  0  0
 49120  1  0  0  0
 50 51  1  0  0  0
 50121  1  0  0  0
 50122  1  0  0  0
 51 52  1  0  0  0
 51123  1  0  0  0
 51124  1  0  0  0
 52125  1  0  0  0
 52126  1  0  0  0
 53 54  1  0  0  0
 54 55  2  0  0  0
 54127  1  0  0  0
 55 57  1  0  0  0
 55128  1  0  0  0
 56 69  2  0  0  0
 57 58  2  0  0  0
 57129  1  0  0  0
 58130  1  0  0  0
 59 60  1  0  0  0
 59 61  1  0  0  0
 59 62  1  0  0  0
 60131  1  0  0  0
 60132  1  0  0  0
 60133  1  0  0  0
 61134  1  0  0  0
 61135  1  0  0  0
 61136  1  0  0  0
 62137  1  0  0  0
 62138  1  0  0  0
 62139  1  0  0  0
 63 65  1  0  0  0
 63140  1  0  0  0
 63141  1  0  0  0
 63142  1  0  0  0
 64143  1  0  0  0
 65144  1  0  0  0
 68 75  1  0  0  0
 71 72  1  0  0  0
 71 73  2  0  0  0
 71145  1  0  0  0
 72 74  2  0  0  0
 72 76  1  0  0  0
 73 80  1  0  0  0
 73 85  1  0  0  0
 74 81  1  0  0  0
 74 85  1  0  0  0
 75 77  2  0  0  0
 75146  1  0  0  0
 76 79  1  0  0  0
 76 82  2  0  0  0
 77 78  1  0  0  0
 77 84  1  0  0  0
 78 80  1  0  0  0
 78 83  2  0  0  0
 79147  1  0  0  0
 79148  1  0  0  0
 79149  1  0  0  0
 80150  1  0  0  0
 81151  1  0  0  0
 84152  1  0  0  0
M  ISO  4   1 100  68 101  75 101  81 100
M  END
> <chiral flag>
0

> <version>
0

> <s_m_source_file>
/data/baiqing/PycharmProjects/Reinvent-master-3.2/result/LINK_invent/BTK/process_docking_weight1_custom_product_contain_oxygen_bond_distance_aromatic_linkinvent_7_9_3/rearranged_h_0162.sdf

> <i_m_source_file_index>
27

> <r_mmod_Potential_Energy-OPLS-2005>
319.085723876953

> <r_mmod_Stretch_Energy-OPLS-2005>
150.477844238281

> <r_mmod_Bend_Energy-OPLS-2005>
272.88525390625

> <r_mmod_Torsional_Energy-OPLS-2005>
258.748229980469

> <r_mmod_Improper_Torsional_Energy-OPLS-2005>
6.49886608123779

> <r_mmod_Van_der_Waal_Energy-OPLS-2005>
128.485778808594

> <r_mmod_Electrostatic_Energy-OPLS-2005>
-376.015228271484

> <r_mmod_Solvation_Energy-OPLS-2005>
-254.484222412109

> <b_mmod_Minimization_Converged-OPLS-2005>
0

> <r_mmod_RMS_Derivative-OPLS-2005>
2.29783391952515

$$$$
27
                    3D
 Structure written by MMmdl.
160169  0  0  1  0            999 V2000
  -30.5813  -14.8023   20.4592 C   0  0  0  0  0  0
  -30.4387  -12.4981   19.4827 C   0  0  0  0  0  0
  -29.5177  -12.5275   18.2427 C   0  0  0  0  0  0
  -28.0463  -12.3333   18.6546 C   0  0  0  0  0  0
  -27.6419  -13.2312   19.8555 C   0  0  2  0  0  0
  -28.6826  -13.1797   20.9930 C   0  0  0  0  0  0
  -25.2502  -13.8170   20.5671 C   0  0  0  0  0  0
  -24.1793  -13.0419   20.9197 C   0  0  0  0  0  0
  -24.6379  -11.6899   20.8732 C   0  0  0  0  0  0
  -23.9040  -10.4276   21.0390 C   0  0  0  0  0  0
  -24.3615   -9.4195   21.9147 C   0  0  0  0  0  0
  -23.6307   -8.2219   22.0719 C   0  0  0  0  0  0
  -22.4284   -8.0236   21.3524 C   0  0  0  0  0  0
  -21.9900   -9.0214   20.4639 C   0  0  0  0  0  0
  -22.7214  -10.2108   20.3047 C   0  0  0  0  0  0
  -21.6867   -6.0719   22.5270 C   0  0  0  0  0  0
  -21.4013   -6.5631   23.8197 C   0  0  0  0  0  0
  -21.3661   -5.6797   24.9166 C   0  0  0  0  0  0
  -21.6050   -4.3053   24.7239 C   0  0  0  0  0  0
  -21.8824   -3.8137   23.4351 C   0  0  0  0  0  0
  -21.9198   -4.6949   22.3417 C   0  0  0  0  0  0
  -22.7824  -13.5183   21.1876 C   0  0  0  0  0  0
  -22.1671   -4.2123   21.1000 F   0  0  0  0  0  0
  -21.5631   -3.4546   25.7754 F   0  0  0  0  0  0
  -29.9704  -13.5636   20.4055 N   0  0  0  0  0  0
  -26.2934  -12.9368   20.3292 N   0  0  0  0  0  0
  -25.9311  -11.6501   20.5744 N   0  0  0  0  0  0
  -22.0525  -12.8175   22.0459 N   0  0  0  0  0  0
  -25.4214  -15.1893   20.4044 N   0  0  0  0  0  0
  -31.7731  -14.8750   20.1396 O   0  0  0  0  0  0
  -21.6643   -6.8854   21.4221 O   0  0  0  0  0  0
  -22.3497  -14.5496   20.6735 O   0  0  0  0  0  0
  -24.6414  -31.8503   23.1902 C   0  0  0  0  0  0
  -25.9233  -32.4730   23.8264 C   0  0  1  0  0  0
  -27.1964  -27.1999   20.1225 C   0  0  0  0  0  0
  -25.6021  -33.8532   24.2220 N   0  0  0  0  0  0
  -23.4334  -30.4697   21.5390 C   0  0  2  0  0  0
  -24.8702  -28.8998   20.1031 C   0  0  0  0  0  0
  -22.7532  -29.4594   22.4926 C   0  0  0  0  0  0
  -18.0285  -28.1439   22.8500 C   0  0  0  0  0  0
  -24.1464  -36.7232   23.2637 C   0  0  0  0  0  0
  -25.9796  -30.7369   21.3703 C   0  0  0  0  0  0
  -26.0454  -29.3539   20.7150 C   0  0  0  0  0  0
  -27.2052  -28.5117   20.7193 C   0  0  0  0  0  0
  -25.9960  -26.8108   19.4903 C   0  0  0  0  0  0
  -24.8540  -27.6414   19.4785 C   0  0  0  0  0  0
  -23.6477  -29.7997   20.1554 C   0  0  0  0  0  0
  -25.4081  -36.3051   24.0341 C   0  0  1  0  0  0
  -20.5892  -28.3734   23.1287 C   0  0  2  0  0  0
  -20.6750  -26.9459   22.5444 C   0  0  0  0  0  0
  -19.5729  -26.6415   21.5242 C   0  0  0  0  0  0
  -18.1899  -26.7989   22.1602 C   0  0  0  0  0  0
  -19.1550  -28.8905   23.2875 C   0  0  0  0  0  0
  -18.9464  -30.1511   23.8895 C   0  0  0  0  0  0
  -17.6461  -30.6617   24.0597 C   0  0  0  0  0  0
  -25.9057  -34.9444   23.5030 C   0  0  0  0  0  0
  -16.5363  -29.9115   23.6387 C   0  0  0  0  0  0
  -16.7272  -28.6545   23.0401 C   0  0  0  0  0  0
  -26.4556  -31.6597   25.0672 C   0  0  0  0  0  0
  -25.3791  -31.3891   26.1446 C   0  0  0  0  0  0
  -27.0338  -30.2986   24.6190 C   0  0  0  0  0  0
  -27.6158  -32.4332   25.7383 C   0  0  0  0  0  0
  -27.5585  -37.1707   24.8453 C   0  0  0  0  0  0
  -21.4241  -29.3035   22.3665 N   0  0  0  0  0  0
  -26.4252  -37.3782   23.9473 N   0  0  0  0  0  0
  -24.7051  -31.0374   22.0910 N   0  0  0  0  0  0
  -23.4216  -28.8175   23.3075 O   0  0  0  0  0  0
  -28.2781  -26.2878   20.2348 O   0  0  0  0  0  0
  -26.5630  -34.8938   22.4601 O   0  0  0  0  0  0
  -23.5562  -32.1378   23.7153 O   0  0  0  0  0  0
  -31.4841  -17.7628   20.9900 C   0  0  0  0  0  0
  -29.2785  -18.5857   20.4401 C   0  0  0  0  0  0
  -31.9359  -19.0873   21.1119 C   0  0  0  0  0  0
  -31.0768  -20.2018   20.8753 C   0  0  0  0  0  0
  -30.1604  -17.4250   20.6498 C   0  0  0  0  0  0
  -29.7036  -19.9996   20.5212 C   0  0  0  0  0  0
  -28.3362  -24.9516   19.7023 C   0  0  0  0  0  0
  -28.4683  -23.7362   20.3890 C   0  0  0  0  0  0
  -28.8374  -22.3976   19.7350 C   0  0  0  0  0  0
  -33.3913  -19.2571   21.5458 C   0  0  0  0  0  0
  -31.6273  -21.6128   21.1404 C   0  0  0  0  0  0
  -33.6857  -20.6155   22.1803 C   0  0  0  0  0  0
  -33.1539  -21.7084   21.2646 C   0  0  0  0  0  0
  -28.7917  -21.2080   20.4785 N   0  0  0  0  0  0
  -29.7962  -15.9601   20.6320 N   0  0  0  0  0  0
  -29.2054  -22.3390   18.5616 O   0  0  0  0  0  0
  -28.3593  -23.7663   21.7266 O   0  0  0  0  0  0
  -31.4758  -12.6465   19.1727 H   0  0  0  0  0  0
  -30.4084  -11.5221   19.9716 H   0  0  0  0  0  0
  -29.8178  -11.7607   17.5282 H   0  0  0  0  0  0
  -29.6289  -13.4854   17.7275 H   0  0  0  0  0  0
  -27.9199  -11.2851   18.9218 H   0  0  0  0  0  0
  -27.3867  -12.5145   17.8044 H   0  0  0  0  0  0
  -27.6311  -14.2511   19.4684 H   0  0  0  0  0  0
  -28.7408  -12.1795   21.4253 H   0  0  0  0  0  0
  -28.4070  -13.8540   21.8051 H   0  0  0  0  0  0
  -25.2772   -9.5663   22.4698 H   0  0  0  0  0  0
  -24.0042   -7.4599   22.7411 H   0  0  0  0  0  0
  -21.0829   -8.8708   19.8954 H   0  0  0  0  0  0
  -22.3637  -10.9632   19.6154 H   0  0  0  0  0  0
  -21.2000   -7.6132   23.9687 H   0  0  0  0  0  0
  -21.1488   -6.0535   25.9073 H   0  0  0  0  0  0
  -22.0611   -2.7590   23.2883 H   0  0  0  0  0  0
  -22.4214  -11.9856   22.4838 H   0  0  0  0  0  0
  -21.1135  -13.1144   22.2716 H   0  0  0  0  0  0
  -24.6427  -15.8369   20.4615 H   0  0  0  0  0  0
  -26.2596  -15.6132   20.0299 H   0  0  0  0  0  0
  -26.7273  -32.5367   23.0998 H   0  0  0  0  0  0
  -25.0288  -33.9665   25.0463 H   0  0  0  0  0  0
  -22.7333  -31.2957   21.3972 H   0  0  0  0  0  0
  -23.3763  -35.9526   23.3257 H   0  0  0  0  0  0
  -24.3542  -36.8890   22.2051 H   0  0  0  0  0  0
  -23.7157  -37.6396   23.6675 H   0  0  0  0  0  0
  -26.1117  -31.4797   20.5836 H   0  0  0  0  0  0
  -26.8638  -30.8017   21.9922 H   0  0  0  0  0  0
  -28.0973  -28.8371   21.2333 H   0  0  0  0  0  0
  -25.9082  -25.8328   19.0436 H   0  0  0  0  0  0
  -23.9509  -27.2865   18.9998 H   0  0  0  0  0  0
  -23.7786  -30.5730   19.3993 H   0  0  0  0  0  0
  -22.7589  -29.2407   19.8577 H   0  0  0  0  0  0
  -25.1258  -36.1849   25.0835 H   0  0  0  0  0  0
  -20.9992  -28.3331   24.1412 H   0  0  0  0  0  0
  -20.5605  -26.2385   23.3663 H   0  0  0  0  0  0
  -21.6634  -26.7439   22.1302 H   0  0  0  0  0  0
  -19.6864  -25.6312   21.1303 H   0  0  0  0  0  0
  -19.6684  -27.3199   20.6759 H   0  0  0  0  0  0
  -17.4222  -26.6883   21.3948 H   0  0  0  0  0  0
  -18.0174  -26.0090   22.8925 H   0  0  0  0  0  0
  -19.7944  -30.7348   24.2240 H   0  0  0  0  0  0
  -17.5019  -31.6298   24.5205 H   0  0  0  0  0  0
  -15.5367  -30.3013   23.7675 H   0  0  0  0  0  0
  -15.8683  -28.0829   22.7143 H   0  0  0  0  0  0
  -24.6029  -30.7102   25.7932 H   0  0  0  0  0  0
  -24.8911  -32.3111   26.4626 H   0  0  0  0  0  0
  -25.8155  -30.9375   27.0367 H   0  0  0  0  0  0
  -26.2889  -29.6729   24.1260 H   0  0  0  0  0  0
  -27.4055  -29.7278   25.4703 H   0  0  0  0  0  0
  -27.8779  -30.4214   23.9388 H   0  0  0  0  0  0
  -27.2842  -33.3670   26.1928 H   0  0  0  0  0  0
  -28.3951  -32.6811   25.0175 H   0  0  0  0  0  0
  -28.0856  -31.8481   26.5310 H   0  0  0  0  0  0
  -28.2619  -37.9999   24.7577 H   0  0  0  0  0  0
  -28.1063  -36.2551   24.6138 H   0  0  0  0  0  0
  -27.2368  -37.1238   25.8879 H   0  0  0  0  0  0
  -20.9463  -29.8716   21.6821 H   0  0  0  0  0  0
  -26.0103  -38.2829   24.1623 H   0  0  0  0  0  0
  -32.1914  -16.9825   21.2176 H   0  0  0  0  0  0
  -28.2410  -18.3831   20.2215 H   0  0  0  0  0  0
  -28.3776  -24.9811   18.6225 H   0  0  0  0  0  0
  -34.0217  -19.1073   20.6672 H   0  0  0  0  0  0
  -33.6629  -18.4670   22.2463 H   0  0  0  0  0  0
  -31.1779  -21.9635   22.0722 H   0  0  0  0  0  0
  -31.3386  -22.3079   20.3567 H   0  0  0  0  0  0
  -34.7549  -20.7372   22.3605 H   0  0  0  0  0  0
  -33.1981  -20.6849   23.1541 H   0  0  0  0  0  0
  -33.4485  -22.6952   21.6234 H   0  0  0  0  0  0
  -33.6038  -21.5934   20.2761 H   0  0  0  0  0  0
  -28.0358  -21.1812   21.1481 H   0  0  0  0  0  0
  -28.8191  -15.7613   20.7843 H   0  0  0  0  0  0
  -28.7949  -22.9985   22.0625 H   0  0  0  0  0  0
  1 25  1  0  0  0
  1 30  2  0  0  0
  1 85  1  0  0  0
  2  3  1  0  0  0
  2 25  1  0  0  0
  2 88  1  0  0  0
  2 89  1  0  0  0
  3  4  1  0  0  0
  3 90  1  0  0  0
  3 91  1  0  0  0
  4  5  1  0  0  0
  4 92  1  0  0  0
  4 93  1  0  0  0
  5  6  1  0  0  0
  5 26  1  0  0  0
  5 94  1  0  0  0
  6 25  1  0  0  0
  6 95  1  0  0  0
  6 96  1  0  0  0
  7  8  2  0  0  0
  7 26  1  0  0  0
  7 29  1  0  0  0
  8  9  1  0  0  0
  8 22  1  0  0  0
  9 10  1  0  0  0
  9 27  2  0  0  0
 10 11  2  0  0  0
 10 15  1  0  0  0
 11 12  1  0  0  0
 11 97  1  0  0  0
 12 13  2  0  0  0
 12 98  1  0  0  0
 13 14  1  0  0  0
 13 31  1  0  0  0
 14 15  2  0  0  0
 14 99  1  0  0  0
 15100  1  0  0  0
 16 17  2  0  0  0
 16 21  1  0  0  0
 16 31  1  0  0  0
 17 18  1  0  0  0
 17101  1  0  0  0
 18 19  2  0  0  0
 18102  1  0  0  0
 19 20  1  0  0  0
 19 24  1  0  0  0
 20 21  2  0  0  0
 20103  1  0  0  0
 21 23  1  0  0  0
 22 28  1  0  0  0
 22 32  2  0  0  0
 26 27  1  0  0  0
 28104  1  0  0  0
 28105  1  0  0  0
 29106  1  0  0  0
 29107  1  0  0  0
 33 34  1  0  0  0
 33 66  1  0  0  0
 33 70  2  0  0  0
 34 36  1  0  0  0
 34 59  1  0  0  0
 34108  1  0  0  0
 35 44  2  0  0  0
 35 45  1  0  0  0
 35 68  1  0  0  0
 36 56  1  0  0  0
 36109  1  0  0  0
 37 39  1  0  0  0
 37 47  1  0  0  0
 37 66  1  0  0  0
 37110  1  0  0  0
 38 43  2  0  0  0
 38 46  1  0  0  0
 38 47  1  0  0  0
 39 64  1  0  0  0
 39 67  2  0  0  0
 40 52  1  0  0  0
 40 53  2  0  0  0
 40 58  1  0  0  0
 41111  1  0  0  0
 41112  1  0  0  0
 41113  1  0  0  0
 41 48  1  0  0  0
 42 43  1  0  0  0
 42 66  1  0  0  0
 42114  1  0  0  0
 42115  1  0  0  0
 43 44  1  0  0  0
 44116  1  0  0  0
 45 46  2  0  0  0
 45117  1  0  0  0
 46118  1  0  0  0
 47119  1  0  0  0
 47120  1  0  0  0
 48 56  1  0  0  0
 48 65  1  0  0  0
 48121  1  0  0  0
 49 50  1  0  0  0
 49 53  1  0  0  0
 49 64  1  0  0  0
 49122  1  0  0  0
 50 51  1  0  0  0
 50123  1  0  0  0
 50124  1  0  0  0
 51 52  1  0  0  0
 51125  1  0  0  0
 51126  1  0  0  0
 52127  1  0  0  0
 52128  1  0  0  0
 53 54  1  0  0  0
 54 55  2  0  0  0
 54129  1  0  0  0
 55 57  1  0  0  0
 55130  1  0  0  0
 56 69  2  0  0  0
 57 58  2  0  0  0
 57131  1  0  0  0
 58132  1  0  0  0
 59 60  1  0  0  0
 59 61  1  0  0  0
 59 62  1  0  0  0
 60133  1  0  0  0
 60134  1  0  0  0
 60135  1  0  0  0
 61136  1  0  0  0
 61137  1  0  0  0
 61138  1  0  0  0
 62139  1  0  0  0
 62140  1  0  0  0
 62141  1  0  0  0
 63 65  1  0  0  0
 63142  1  0  0  0
 63143  1  0  0  0
 63144  1  0  0  0
 64145  1  0  0  0
 65146  1  0  0  0
 68 77  1  0  0  0
 71 73  2  0  0  0
 71 75  1  0  0  0
 71147  1  0  0  0
 72 75  2  0  0  0
 72 76  1  0  0  0
 72148  1  0  0  0
 73 74  1  0  0  0
 73 80  1  0  0  0
 74 76  2  0  0  0
 74 81  1  0  0  0
 75 85  1  0  0  0
 76 84  1  0  0  0
 77 78  2  0  0  0
 77149  1  0  0  0
 78 79  1  0  0  0
 78 87  1  0  0  0
 79 84  1  0  0  0
 79 86  2  0  0  0
 80 82  1  0  0  0
 80150  1  0  0  0
 80151  1  0  0  0
 81 83  1  0  0  0
 81152  1  0  0  0
 81153  1  0  0  0
 82 83  1  0  0  0
 82154  1  0  0  0
 82155  1  0  0  0
 83156  1  0  0  0
 83157  1  0  0  0
 84158  1  0  0  0
 85159  1  0  0  0
 87160  1  0  0  0
M  ISO  4   1 100  68 101  77 101  85 100
M  END
> <chiral flag>
0

> <version>
0

> <s_m_source_file>
/data/baiqing/PycharmProjects/Reinvent-master-3.2/result/LINK_invent/BTK/process_docking_weight1_custom_product_contain_oxygen_bond_distance_aromatic_linkinvent_7_9_3/rearranged_h_0162.sdf

> <i_m_source_file_index>
28

> <r_mmod_Potential_Energy-OPLS-2005>
287.225463867188

> <r_mmod_Stretch_Energy-OPLS-2005>
165.493530273438

> <r_mmod_Bend_Energy-OPLS-2005>
183.316909790039

> <r_mmod_Torsional_Energy-OPLS-2005>
292.80810546875

> <r_mmod_Improper_Torsional_Energy-OPLS-2005>
9.97377872467041

> <r_mmod_Van_der_Waal_Energy-OPLS-2005>
148.871917724609

> <r_mmod_Electrostatic_Energy-OPLS-2005>
-388.007537841797

> <r_mmod_Solvation_Energy-OPLS-2005>
-244.808334350586

> <b_mmod_Minimization_Converged-OPLS-2005>
0

> <r_mmod_RMS_Derivative-OPLS-2005>
6.18984317779541

$$$$
28
                    3D
 Structure written by MMmdl.
155163  0  0  1  0            999 V2000
  -30.6381  -14.6582   20.5090 C   0  0  0  0  0  0
  -30.4391  -12.4073   19.4611 C   0  0  0  0  0  0
  -29.5091  -12.5070   18.2307 C   0  0  0  0  0  0
  -28.0319  -12.3480   18.6407 C   0  0  0  0  0  0
  -27.6539  -13.2233   19.8655 C   0  0  2  0  0  0
  -28.6993  -13.0917   20.9967 C   0  0  0  0  0  0
  -25.2554  -13.8183   20.5706 C   0  0  0  0  0  0
  -24.1825  -13.0441   20.9202 C   0  0  0  0  0  0
  -24.6406  -11.6913   20.8745 C   0  0  0  0  0  0
  -23.9080  -10.4294   21.0412 C   0  0  0  0  0  0
  -24.3629   -9.4207   21.9189 C   0  0  0  0  0  0
  -23.6301   -8.2243   22.0752 C   0  0  0  0  0  0
  -22.4279   -8.0287   21.3547 C   0  0  0  0  0  0
  -21.9923   -9.0260   20.4643 C   0  0  0  0  0  0
  -22.7257  -10.2138   20.3053 C   0  0  0  0  0  0
  -21.6851   -6.0742   22.5284 C   0  0  0  0  0  0
  -21.4015   -6.5643   23.8218 C   0  0  0  0  0  0
  -21.3653   -5.6793   24.9179 C   0  0  0  0  0  0
  -21.6040   -4.3055   24.7224 C   0  0  0  0  0  0
  -21.8821   -3.8155   23.4344 C   0  0  0  0  0  0
  -21.9194   -4.6973   22.3405 C   0  0  0  0  0  0
  -22.7840  -13.5226   21.1859 C   0  0  0  0  0  0
  -22.1664   -4.2157   21.0981 F   0  0  0  0  0  0
  -21.5624   -3.4537   25.7735 F   0  0  0  0  0  0
  -30.0154  -13.4359   20.4350 N   0  0  0  0  0  0
  -26.2994  -12.9383   20.3346 N   0  0  0  0  0  0
  -25.9343  -11.6529   20.5778 N   0  0  0  0  0  0
  -22.0483  -12.8201   22.0399 N   0  0  0  0  0  0
  -25.4250  -15.1908   20.4145 N   0  0  0  0  0  0
  -31.7937  -14.8039   20.1013 O   0  0  0  0  0  0
  -21.6638   -6.8889   21.4245 O   0  0  0  0  0  0
  -22.3524  -14.5534   20.6711 O   0  0  0  0  0  0
  -24.6252  -31.8611   23.2059 C   0  0  0  0  0  0
  -25.9100  -32.4787   23.8375 C   0  0  1  0  0  0
  -27.2143  -27.3027   20.1300 C   0  0  0  0  0  0
  -25.5918  -33.8584   24.2292 N   0  0  0  0  0  0
  -23.4193  -30.4859   21.5477 C   0  0  2  0  0  0
  -24.8672  -28.9461   20.1117 C   0  0  0  0  0  0
  -22.7474  -29.4621   22.4936 C   0  0  0  0  0  0
  -18.0280  -28.1414   22.8495 C   0  0  0  0  0  0
  -24.1472  -36.7282   23.2637 C   0  0  0  0  0  0
  -25.9624  -30.7832   21.3853 C   0  0  0  0  0  0
  -26.0344  -29.4080   20.7357 C   0  0  0  0  0  0
  -27.2098  -28.5939   20.7460 C   0  0  0  0  0  0
  -26.0490  -26.9413   19.4199 C   0  0  0  0  0  0
  -24.8776  -27.7155   19.4430 C   0  0  0  0  0  0
  -23.6359  -29.8277   20.1610 C   0  0  0  0  0  0
  -25.4102  -36.3080   24.0327 C   0  0  1  0  0  0
  -20.5881  -28.3704   23.1294 C   0  0  2  0  0  0
  -20.6768  -26.9431   22.5411 C   0  0  0  0  0  0
  -19.5738  -26.6417   21.5212 C   0  0  0  0  0  0
  -18.1916  -26.7959   22.1628 C   0  0  0  0  0  0
  -19.1529  -28.8882   23.2890 C   0  0  0  0  0  0
  -18.9462  -30.1494   23.8902 C   0  0  0  0  0  0
  -17.6462  -30.6616   24.0587 C   0  0  0  0  0  0
  -25.9049  -34.9454   23.5110 C   0  0  0  0  0  0
  -16.5353  -29.9122   23.6349 C   0  0  0  0  0  0
  -16.7271  -28.6541   23.0361 C   0  0  0  0  0  0
  -26.4491  -31.6587   25.0727 C   0  0  0  0  0  0
  -25.3730  -31.3736   26.1458 C   0  0  0  0  0  0
  -27.0324  -30.2999   24.6185 C   0  0  0  0  0  0
  -27.6045  -32.4323   25.7498 C   0  0  0  0  0  0
  -27.5568  -37.1804   24.8469 C   0  0  0  0  0  0
  -21.4181  -29.3055   22.3693 N   0  0  0  0  0  0
  -26.4274  -37.3781   23.9416 N   0  0  0  0  0  0
  -24.6870  -31.0614   22.1020 N   0  0  0  0  0  0
  -23.4191  -28.8152   23.3018 O   0  0  0  0  0  0
  -28.3127  -26.4205   20.1441 O   0  0  0  0  0  0
  -26.5623  -34.8919   22.4673 O   0  0  0  0  0  0
  -23.5415  -32.1404   23.7388 O   0  0  0  0  0  0
  -29.1499  -19.4659   21.3217 C   0  0  0  0  0  0
  -31.0142  -17.8402   20.0006 C   0  0  0  0  0  0
  -30.1528  -20.1338   20.5690 C   0  0  0  0  0  0
  -30.0227  -17.1784   20.7710 C   0  0  0  0  0  0
  -29.0865  -18.0383   21.4120 C   0  0  0  0  0  0
  -31.0760  -19.2639   19.9010 C   0  0  0  0  0  0
  -30.3181  -21.6568   20.5426 C   0  0  0  0  0  0
  -29.4431  -24.1062   20.4782 C   0  0  0  0  0  0
  -26.8880  -24.2317   20.3504 C   0  0  0  0  0  0
  -28.1689  -25.0285   20.7012 C   0  0  2  0  0  0
  -29.8722  -15.7211   20.9164 N   0  0  0  0  0  0
  -29.3170  -22.6173   20.5679 N   0  0  0  0  0  0
  -31.5828  -22.0940   20.5183 N   0  3  0  0  0  0
  -30.5439  -24.6299   20.2621 O   0  0  0  0  0  0
  -28.0987  -17.4763   22.1481 F   0  0  0  0  0  0
  -32.0815  -19.7908   19.1581 F   0  0  0  0  0  0
  -31.4780  -12.5333   19.1518 H   0  0  0  0  0  0
  -30.3818  -11.4142   19.9099 H   0  0  0  0  0  0
  -29.7755  -11.7477   17.4939 H   0  0  0  0  0  0
  -29.6504  -13.4700   17.7389 H   0  0  0  0  0  0
  -27.8683  -11.2961   18.8773 H   0  0  0  0  0  0
  -27.3787  -12.5752   17.7967 H   0  0  0  0  0  0
  -27.6691  -14.2575   19.5209 H   0  0  0  0  0  0
  -28.7113  -12.0725   21.3874 H   0  0  0  0  0  0
  -28.4399  -13.7323   21.8407 H   0  0  0  0  0  0
  -25.2777   -9.5669   22.4764 H   0  0  0  0  0  0
  -24.0004   -7.4628   22.7467 H   0  0  0  0  0  0
  -21.0857   -8.8783   19.8946 H   0  0  0  0  0  0
  -22.3729  -10.9674   19.6152 H   0  0  0  0  0  0
  -21.2009   -7.6149   23.9723 H   0  0  0  0  0  0
  -21.1470   -6.0521   25.9079 H   0  0  0  0  0  0
  -22.0604   -2.7616   23.2843 H   0  0  0  0  0  0
  -22.4098  -11.9857   22.4776 H   0  0  0  0  0  0
  -21.1095  -13.1215   22.2592 H   0  0  0  0  0  0
  -24.6639  -15.8472   20.5485 H   0  0  0  0  0  0
  -26.2783  -15.6357   20.1031 H   0  0  0  0  0  0
  -26.7159  -32.5470   23.1125 H   0  0  0  0  0  0
  -25.0048  -33.9728   25.0428 H   0  0  0  0  0  0
  -22.7135  -31.3082   21.4097 H   0  0  0  0  0  0
  -23.3730  -35.9619   23.3307 H   0  0  0  0  0  0
  -24.3558  -36.8895   22.2049 H   0  0  0  0  0  0
  -23.7227  -37.6483   23.6662 H   0  0  0  0  0  0
  -26.0958  -31.5407   20.6115 H   0  0  0  0  0  0
  -26.8432  -30.8363   22.0132 H   0  0  0  0  0  0
  -28.1009  -28.9388   21.2531 H   0  0  0  0  0  0
  -26.0254  -26.0420   18.8267 H   0  0  0  0  0  0
  -23.9981  -27.3734   18.9129 H   0  0  0  0  0  0
  -23.7581  -30.6071   19.4075 H   0  0  0  0  0  0
  -22.7560  -29.2585   19.8557 H   0  0  0  0  0  0
  -25.1290  -36.1916   25.0820 H   0  0  0  0  0  0
  -20.9981  -28.3267   24.1411 H   0  0  0  0  0  0
  -20.5670  -26.2312   23.3601 H   0  0  0  0  0  0
  -21.6638  -26.7478   22.1197 H   0  0  0  0  0  0
  -19.6879  -25.6331   21.1232 H   0  0  0  0  0  0
  -19.6662  -27.3251   20.6751 H   0  0  0  0  0  0
  -17.4185  -26.6720   21.4022 H   0  0  0  0  0  0
  -18.0312  -26.0115   22.9037 H   0  0  0  0  0  0
  -19.7939  -30.7316   24.2248 H   0  0  0  0  0  0
  -17.5026  -31.6289   24.5210 H   0  0  0  0  0  0
  -15.5360  -30.3037   23.7685 H   0  0  0  0  0  0
  -15.8659  -28.0884   22.7062 H   0  0  0  0  0  0
  -24.5922  -30.7049   25.7812 H   0  0  0  0  0  0
  -24.8900  -32.2908   26.4843 H   0  0  0  0  0  0
  -25.8069  -30.8962   27.0253 H   0  0  0  0  0  0
  -26.2892  -29.6754   24.1209 H   0  0  0  0  0  0
  -27.4004  -29.7247   25.4695 H   0  0  0  0  0  0
  -27.8784  -30.4262   23.9416 H   0  0  0  0  0  0
  -27.2648  -33.3641   26.2038 H   0  0  0  0  0  0
  -28.3881  -32.6853   25.0339 H   0  0  0  0  0  0
  -28.0678  -31.8461   26.5448 H   0  0  0  0  0  0
  -28.2607  -38.0086   24.7522 H   0  0  0  0  0  0
  -28.1047  -36.2623   24.6297 H   0  0  0  0  0  0
  -27.2294  -37.1464   25.8875 H   0  0  0  0  0  0
  -20.9352  -29.8782   21.6913 H   0  0  0  0  0  0
  -26.0141  -38.2842   24.1439 H   0  0  0  0  0  0
  -28.4205  -20.0441   21.8682 H   0  0  0  0  0  0
  -31.7557  -17.2639   19.4691 H   0  0  0  0  0  0
  -26.8582  -23.2588   20.8383 H   0  0  0  0  0  0
  -26.8007  -24.0573   19.2774 H   0  0  0  0  0  0
  -25.9902  -24.7329   20.7091 H   0  0  0  0  0  0
  -28.1377  -25.1778   21.7813 H   0  0  0  0  0  0
  -28.9941  -15.4517   21.3321 H   0  0  0  0  0  0
  -28.4056  -22.2037   20.6840 H   0  0  0  0  0  0
  -32.3336  -21.4362   20.3667 H   0  0  0  0  0  0
  -31.7595  -23.0896   20.4470 H   0  0  0  0  0  0
  1 25  1  0  0  0
  1 30  2  0  0  0
  1 81  1  0  0  0
  2  3  1  0  0  0
  2 25  1  0  0  0
  2 87  1  0  0  0
  2 88  1  0  0  0
  3  4  1  0  0  0
  3 89  1  0  0  0
  3 90  1  0  0  0
  4  5  1  0  0  0
  4 91  1  0  0  0
  4 92  1  0  0  0
  5  6  1  0  0  0
  5 26  1  0  0  0
  5 93  1  0  0  0
  6 25  1  0  0  0
  6 94  1  0  0  0
  6 95  1  0  0  0
  7  8  2  0  0  0
  7 26  1  0  0  0
  7 29  1  0  0  0
  8  9  1  0  0  0
  8 22  1  0  0  0
  9 10  1  0  0  0
  9 27  2  0  0  0
 10 11  2  0  0  0
 10 15  1  0  0  0
 11 12  1  0  0  0
 11 96  1  0  0  0
 12 13  2  0  0  0
 12 97  1  0  0  0
 13 14  1  0  0  0
 13 31  1  0  0  0
 14 15  2  0  0  0
 14 98  1  0  0  0
 15 99  1  0  0  0
 16 17  2  0  0  0
 16 21  1  0  0  0
 16 31  1  0  0  0
 17 18  1  0  0  0
 17100  1  0  0  0
 18 19  2  0  0  0
 18101  1  0  0  0
 19 20  1  0  0  0
 19 24  1  0  0  0
 20 21  2  0  0  0
 20102  1  0  0  0
 21 23  1  0  0  0
 22 28  1  0  0  0
 22 32  2  0  0  0
 26 27  1  0  0  0
 28103  1  0  0  0
 28104  1  0  0  0
 29105  1  0  0  0
 29106  1  0  0  0
 33 34  1  0  0  0
 33 66  1  0  0  0
 33 70  2  0  0  0
 34 36  1  0  0  0
 34 59  1  0  0  0
 34107  1  0  0  0
 35 44  2  0  0  0
 35 45  1  0  0  0
 35 68  1  0  0  0
 36 56  1  0  0  0
 36108  1  0  0  0
 37 39  1  0  0  0
 37 47  1  0  0  0
 37 66  1  0  0  0
 37109  1  0  0  0
 38 43  2  0  0  0
 38 46  1  0  0  0
 38 47  1  0  0  0
 39 64  1  0  0  0
 39 67  2  0  0  0
 40 52  1  0  0  0
 40 53  2  0  0  0
 40 58  1  0  0  0
 41110  1  0  0  0
 41111  1  0  0  0
 41112  1  0  0  0
 41 48  1  0  0  0
 42 43  1  0  0  0
 42 66  1  0  0  0
 42113  1  0  0  0
 42114  1  0  0  0
 43 44  1  0  0  0
 44115  1  0  0  0
 45 46  2  0  0  0
 45116  1  0  0  0
 46117  1  0  0  0
 47118  1  0  0  0
 47119  1  0  0  0
 48 56  1  0  0  0
 48 65  1  0  0  0
 48120  1  0  0  0
 49 50  1  0  0  0
 49 53  1  0  0  0
 49 64  1  0  0  0
 49121  1  0  0  0
 50 51  1  0  0  0
 50122  1  0  0  0
 50123  1  0  0  0
 51 52  1  0  0  0
 51124  1  0  0  0
 51125  1  0  0  0
 52126  1  0  0  0
 52127  1  0  0  0
 53 54  1  0  0  0
 54 55  2  0  0  0
 54128  1  0  0  0
 55 57  1  0  0  0
 55129  1  0  0  0
 56 69  2  0  0  0
 57 58  2  0  0  0
 57130  1  0  0  0
 58131  1  0  0  0
 59 60  1  0  0  0
 59 61  1  0  0  0
 59 62  1  0  0  0
 60132  1  0  0  0
 60133  1  0  0  0
 60134  1  0  0  0
 61135  1  0  0  0
 61136  1  0  0  0
 61137  1  0  0  0
 62138  1  0  0  0
 62139  1  0  0  0
 62140  1  0  0  0
 63 65  1  0  0  0
 63141  1  0  0  0
 63142  1  0  0  0
 63143  1  0  0  0
 64144  1  0  0  0
 65145  1  0  0  0
 68 80  1  0  0  0
 71 73  2  0  0  0
 71 75  1  0  0  0
 71146  1  0  0  0
 72 74  1  0  0  0
 72 76  2  0  0  0
 72147  1  0  0  0
 73 76  1  0  0  0
 73 77  1  0  0  0
 74 75  2  0  0  0
 74 81  1  0  0  0
 75 85  1  0  0  0
 76 86  1  0  0  0
 77 82  1  0  0  0
 77 83  2  0  0  0
 78 80  1  0  0  0
 78 82  1  0  0  0
 78 84  2  0  0  0
 79148  1  0  0  0
 79149  1  0  0  0
 79150  1  0  0  0
 79 80  1  0  0  0
 80151  1  0  0  0
 81152  1  0  0  0
 82153  1  0  0  0
 83154  1  0  0  0
 83155  1  0  0  0
M  CHG  1  83   1
M  ISO  4   1 100  68 101  80 101  81 100
M  END
> <chiral flag>
0

> <version>
0

> <s_m_source_file>
/data/baiqing/PycharmProjects/Reinvent-master-3.2/result/LINK_invent/BTK/process_docking_weight1_custom_product_contain_oxygen_bond_distance_aromatic_linkinvent_7_9_3/rearranged_h_0162.sdf

> <i_m_source_file_index>
29

> <r_mmod_Potential_Energy-OPLS-2005>
-234.1181640625

> <r_mmod_Stretch_Energy-OPLS-2005>
97.8703460693359

> <r_mmod_Bend_Energy-OPLS-2005>
158.496932983398

> <r_mmod_Torsional_Energy-OPLS-2005>
235.274002075195

> <r_mmod_Improper_Torsional_Energy-OPLS-2005>
4.16143321990967

> <r_mmod_Van_der_Waal_Energy-OPLS-2005>
168.870101928711

> <r_mmod_Electrostatic_Energy-OPLS-2005>
-493.076751708984

> <r_mmod_Solvation_Energy-OPLS-2005>
-461.763214111328

> <b_mmod_Minimization_Converged-OPLS-2005>
0

> <r_mmod_RMS_Derivative-OPLS-2005>
1.82266902923584

$$$$
29
                    3D
 Structure written by MMmdl.
153161  0  0  1  0            999 V2000
  -30.3277  -13.9975   21.1345 C   0  0  0  0  0  0
  -30.7353  -12.4307   19.1677 C   0  0  0  0  0  0
  -29.7541  -12.5870   17.9327 C   0  0  0  0  0  0
  -28.2209  -12.6060   18.2109 C   0  0  0  0  0  0
  -28.0551  -13.2869   19.5496 C   0  0  2  0  0  0
  -28.8772  -12.2775   20.4323 C   0  0  0  0  0  0
  -25.9170  -14.2303   20.2482 C   0  0  0  0  0  0
  -24.3639  -13.6208   21.1540 C   0  0  0  0  0  0
  -24.3631  -12.3478   21.5825 C   0  0  0  0  0  0
  -23.8259  -10.8399   21.2772 C   0  0  0  0  0  0
  -24.3097   -9.7173   22.0397 C   0  0  0  0  0  0
  -23.6805   -8.4309   22.0854 C   0  0  0  0  0  0
  -22.5060   -8.1674   21.3453 C   0  0  0  0  0  0
  -22.0921   -9.1959   20.4654 C   0  0  0  0  0  0
  -22.7379  -10.4747   20.4194 C   0  0  0  0  0  0
  -21.7459   -6.1353   22.5004 C   0  0  0  0  0  0
  -21.4462   -6.6054   23.8005 C   0  0  0  0  0  0
  -21.3817   -5.7111   24.8928 C   0  0  0  0  0  0
  -21.6027   -4.3348   24.6991 C   0  0  0  0  0  0
  -21.8714   -3.8514   23.4078 C   0  0  0  0  0  0
  -21.9349   -4.7424   22.3172 C   0  0  0  0  0  0
  -22.7408  -13.9620   21.3745 C   0  0  0  0  0  0
  -22.1740   -4.2467   21.0798 F   0  0  0  0  0  0
  -21.5523   -3.4782   25.7484 F   0  0  0  0  0  0
  -30.1362  -12.8677   20.4359 N   0  0  0  0  0  0
  -26.6088  -13.7333   19.7757 N   0  0  0  0  0  0
  -25.0801  -13.4880   20.8851 N   0  0  0  0  0  0
  -21.9850  -13.1644   22.1528 N   0  0  0  0  0  0
  -26.6333  -15.3523   19.6060 N   0  0  0  0  0  0
  -31.2772  -14.7314   20.7640 O   0  0  0  0  0  0
  -21.7801   -6.9762   21.3958 O   0  0  0  0  0  0
  -22.1389  -14.8472   20.7827 O   0  0  0  0  0  0
  -24.6971  -31.7835   23.1553 C   0  0  0  0  0  0
  -25.9546  -32.4335   23.8023 C   0  0  1  0  0  0
  -26.6569  -26.3367   20.3145 C   0  0  0  0  0  0
  -25.6107  -33.8196   24.1873 N   0  0  0  0  0  0
  -23.5034  -30.4246   21.5158 C   0  0  2  0  0  0
  -24.8660  -28.7495   20.0840 C   0  0  0  0  0  0
  -22.7733  -29.4301   22.4613 C   0  0  0  0  0  0
  -18.0349  -28.1418   22.8457 C   0  0  0  0  0  0
  -24.1513  -36.7113   23.2642 C   0  0  0  0  0  0
  -26.0863  -30.3808   21.4726 C   0  0  0  0  0  0
  -26.0409  -28.9290   20.8151 C   0  0  0  0  0  0
  -26.9594  -27.7344   20.9019 C   0  0  0  0  0  0
  -25.6130  -26.4919   19.4050 C   0  0  0  0  0  0
  -24.7255  -27.5841   19.3296 C   0  0  0  0  0  0
  -23.7430  -29.7849   20.1233 C   0  0  0  0  0  0
  -25.4169  -36.2829   24.0251 C   0  0  1  0  0  0
  -20.5977  -28.3788   23.1119 C   0  0  2  0  0  0
  -20.6805  -26.9433   22.5398 C   0  0  0  0  0  0
  -19.5763  -26.6355   21.5227 C   0  0  0  0  0  0
  -18.1953  -26.7951   22.1629 C   0  0  0  0  0  0
  -19.1610  -28.8927   23.2780 C   0  0  0  0  0  0
  -18.9513  -30.1514   23.8819 C   0  0  0  0  0  0
  -17.6498  -30.6596   24.0549 C   0  0  0  0  0  0
  -25.9172  -34.9220   23.4893 C   0  0  0  0  0  0
  -16.5393  -29.9068   23.6348 C   0  0  0  0  0  0
  -16.7330  -28.6495   23.0361 C   0  0  0  0  0  0
  -26.4643  -31.6498   25.0756 C   0  0  0  0  0  0
  -25.3635  -31.3940   26.1330 C   0  0  0  0  0  0
  -27.0584  -30.2785   24.6915 C   0  0  0  0  0  0
  -27.6070  -32.4412   25.7551 C   0  0  0  0  0  0
  -27.5572  -37.1709   24.8445 C   0  0  0  0  0  0
  -21.4384  -29.3031   22.3409 N   0  0  0  0  0  0
  -26.4267  -37.3623   23.9405 N   0  0  0  0  0  0
  -24.7943  -30.9094   22.0935 N   0  0  0  0  0  0
  -23.4184  -28.7831   23.2902 O   0  0  0  0  0  0
  -27.0963  -24.8084   20.4202 O   0  0  0  0  0  0
  -26.5806  -34.8820   22.4507 O   0  0  0  0  0  0
  -23.5999  -32.1084   23.6444 O   0  0  0  0  0  0
  -25.9513  -15.2037   22.2443 C   0  0  0  0  0  0
  -26.3188  -11.6909   20.5275 C   0  0  0  0  0  0
  -24.1195  -14.6259   19.0283 C   0  0  0  0  0  0
  -26.8965  -13.2599   22.1327 C   0  0  0  0  0  0
  -24.6731  -16.0404   20.7286 C   0  0  0  0  0  0
  -24.8686  -12.5078   18.9258 C   0  0  0  0  0  0
  -28.3061  -13.5270   22.8341 C   0  0  0  0  0  0
  -26.1175  -21.2149   20.2863 C   0  0  0  0  0  0
  -25.4065  -19.4461   20.9332 C   0  0  0  0  0  0
  -26.1622  -23.1755   20.7137 C   0  0  0  0  0  0
  -24.8981  -17.7295   20.4341 N   0  0  0  0  0  0
  -29.4483  -14.1624   22.2412 N   0  0  0  0  0  0
  -28.3226  -13.3591   24.0549 O   0  0  0  0  0  0
  -26.7576  -21.0158   19.2484 O   0  0  0  0  0  0
  -24.5350  -11.7304   17.8671 F   0  0  0  0  0  0
  -31.6625  -12.9729   18.9721 H   0  0  0  0  0  0
  -31.0397  -11.3866   19.2681 H   0  0  0  0  0  0
  -29.9810  -11.8262   17.1833 H   0  0  0  0  0  0
  -30.0063  -13.5345   17.4545 H   0  0  0  0  0  0
  -27.7851  -11.6069   18.1757 H   0  0  0  0  0  0
  -27.7190  -13.1713   17.4252 H   0  0  0  0  0  0
  -28.6133  -14.2076   19.3627 H   0  0  0  0  0  0
  -28.9344  -11.2954   19.9498 H   0  0  0  0  0  0
  -28.6038  -11.7594   21.3399 H   0  0  0  0  0  0
  -25.1464   -9.8846   22.7030 H   0  0  0  0  0  0
  -24.0826   -7.6712   22.7407 H   0  0  0  0  0  0
  -21.2273   -9.0274   19.8386 H   0  0  0  0  0  0
  -22.3105  -11.2379   19.7840 H   0  0  0  0  0  0
  -21.2700   -7.6589   23.9637 H   0  0  0  0  0  0
  -21.1671   -6.0840   25.8839 H   0  0  0  0  0  0
  -22.0270   -2.7956   23.2511 H   0  0  0  0  0  0
  -22.3785  -12.4040   22.6851 H   0  0  0  0  0  0
  -20.9988  -13.3651   22.2457 H   0  0  0  0  0  0
  -26.2227  -16.2813   19.6795 H   0  0  0  0  0  0
  -27.2358  -15.2427   18.8044 H   0  0  0  0  0  0
  -26.7567  -32.4615   23.0641 H   0  0  0  0  0  0
  -25.0171  -33.9196   24.9978 H   0  0  0  0  0  0
  -22.8408  -31.2785   21.3610 H   0  0  0  0  0  0
  -23.3807  -35.9406   23.3193 H   0  0  0  0  0  0
  -24.3578  -36.8912   22.2079 H   0  0  0  0  0  0
  -23.7235  -37.6234   23.6812 H   0  0  0  0  0  0
  -26.3644  -31.0793   20.6829 H   0  0  0  0  0  0
  -26.9276  -30.4015   22.1511 H   0  0  0  0  0  0
  -27.8165  -27.8220   21.5543 H   0  0  0  0  0  0
  -25.3415  -25.6221   18.8240 H   0  0  0  0  0  0
  -23.8578  -27.4805   18.6925 H   0  0  0  0  0  0
  -23.9967  -30.5664   19.4066 H   0  0  0  0  0  0
  -22.8200  -29.3364   19.7534 H   0  0  0  0  0  0
  -25.1377  -36.1557   25.0737 H   0  0  0  0  0  0
  -21.0080  -28.3427   24.1240 H   0  0  0  0  0  0
  -20.5678  -26.2397   23.3664 H   0  0  0  0  0  0
  -21.6657  -26.7361   22.1196 H   0  0  0  0  0  0
  -19.6882  -25.6240   21.1305 H   0  0  0  0  0  0
  -19.6698  -27.3123   20.6721 H   0  0  0  0  0  0
  -17.4219  -26.6737   21.4030 H   0  0  0  0  0  0
  -18.0312  -26.0117   22.9040 H   0  0  0  0  0  0
  -19.7988  -30.7364   24.2134 H   0  0  0  0  0  0
  -17.5042  -31.6257   24.5181 H   0  0  0  0  0  0
  -15.5382  -30.2924   23.7719 H   0  0  0  0  0  0
  -15.8749  -28.0777   22.7099 H   0  0  0  0  0  0
  -24.5842  -30.7264   25.7642 H   0  0  0  0  0  0
  -24.8794  -32.3204   26.4434 H   0  0  0  0  0  0
  -25.7726  -30.9305   27.0315 H   0  0  0  0  0  0
  -26.3286  -29.6286   24.2080 H   0  0  0  0  0  0
  -27.4004  -29.7404   25.5768 H   0  0  0  0  0  0
  -27.9317  -30.3811   24.0471 H   0  0  0  0  0  0
  -27.2612  -33.3819   26.1851 H   0  0  0  0  0  0
  -28.4015  -32.6815   25.0473 H   0  0  0  0  0  0
  -28.0599  -31.8738   26.5692 H   0  0  0  0  0  0
  -28.2498  -38.0092   24.7558 H   0  0  0  0  0  0
  -28.1159  -36.2609   24.6194 H   0  0  0  0  0  0
  -27.2282  -37.1246   25.8842 H   0  0  0  0  0  0
  -20.9655  -29.8771   21.6570 H   0  0  0  0  0  0
  -26.0067  -38.2647   24.1474 H   0  0  0  0  0  0
  -26.4037  -15.9075   22.9266 H   0  0  0  0  0  0
  -26.7807  -10.7204   20.4208 H   0  0  0  0  0  0
  -23.5720  -15.0143   18.1832 H   0  0  0  0  0  0
  -24.5203  -19.7804   21.4734 H   0  0  0  0  0  0
  -26.1150  -19.2257   21.7312 H   0  0  0  0  0  0
  -26.1641  -23.1367   21.8026 H   0  0  0  0  0  0
  -25.1395  -23.4678   20.4763 H   0  0  0  0  0  0
  -24.4674  -17.8851   19.5240 H   0  0  0  0  0  0
  -29.8603  -14.8135   22.8879 H   0  0  0  0  0  0
  1 25  1  0  0  0
  1 30  2  0  0  0
  1 82  1  0  0  0
  2  3  1  0  0  0
  2 25  1  0  0  0
  2 86  1  0  0  0
  2 87  1  0  0  0
  3  4  1  0  0  0
  3 88  1  0  0  0
  3 89  1  0  0  0
  4  5  1  0  0  0
  4 90  1  0  0  0
  4 91  1  0  0  0
  5  6  1  0  0  0
  5 26  1  0  0  0
  5 92  1  0  0  0
  6 25  1  0  0  0
  6 93  1  0  0  0
  6 94  1  0  0  0
  7  8  2  0  0  0
  7 26  1  0  0  0
  7 29  1  0  0  0
  8  9  1  0  0  0
  8 22  1  0  0  0
  9 10  1  0  0  0
  9 27  2  0  0  0
 10 11  2  0  0  0
 10 15  1  0  0  0
 11 12  1  0  0  0
 11 95  1  0  0  0
 12 13  2  0  0  0
 12 96  1  0  0  0
 13 14  1  0  0  0
 13 31  1  0  0  0
 14 15  2  0  0  0
 14 97  1  0  0  0
 15 98  1  0  0  0
 16 17  2  0  0  0
 16 21  1  0  0  0
 16 31  1  0  0  0
 17 18  1  0  0  0
 17 99  1  0  0  0
 18 19  2  0  0  0
 18100  1  0  0  0
 19 20  1  0  0  0
 19 24  1  0  0  0
 20 21  2  0  0  0
 20101  1  0  0  0
 21 23  1  0  0  0
 22 28  1  0  0  0
 22 32  2  0  0  0
 26 27  1  0  0  0
 28102  1  0  0  0
 28103  1  0  0  0
 29104  1  0  0  0
 29105  1  0  0  0
 33 34  1  0  0  0
 33 66  1  0  0  0
 33 70  2  0  0  0
 34 36  1  0  0  0
 34 59  1  0  0  0
 34106  1  0  0  0
 35 44  2  0  0  0
 35 45  1  0  0  0
 35 68  1  0  0  0
 36 56  1  0  0  0
 36107  1  0  0  0
 37 39  1  0  0  0
 37 47  1  0  0  0
 37 66  1  0  0  0
 37108  1  0  0  0
 38 43  2  0  0  0
 38 46  1  0  0  0
 38 47  1  0  0  0
 39 64  1  0  0  0
 39 67  2  0  0  0
 40 52  1  0  0  0
 40 53  2  0  0  0
 40 58  1  0  0  0
 41109  1  0  0  0
 41110  1  0  0  0
 41111  1  0  0  0
 41 48  1  0  0  0
 42 43  1  0  0  0
 42 66  1  0  0  0
 42112  1  0  0  0
 42113  1  0  0  0
 43 44  1  0  0  0
 44114  1  0  0  0
 45 46  2  0  0  0
 45115  1  0  0  0
 46116  1  0  0  0
 47117  1  0  0  0
 47118  1  0  0  0
 48 56  1  0  0  0
 48 65  1  0  0  0
 48119  1  0  0  0
 49 50  1  0  0  0
 49 53  1  0  0  0
 49 64  1  0  0  0
 49120  1  0  0  0
 50 51  1  0  0  0
 50121  1  0  0  0
 50122  1  0  0  0
 51 52  1  0  0  0
 51123  1  0  0  0
 51124  1  0  0  0
 52125  1  0  0  0
 52126  1  0  0  0
 53 54  1  0  0  0
 54 55  2  0  0  0
 54127  1  0  0  0
 55 57  1  0  0  0
 55128  1  0  0  0
 56 69  2  0  0  0
 57 58  2  0  0  0
 57129  1  0  0  0
 58130  1  0  0  0
 59 60  1  0  0  0
 59 61  1  0  0  0
 59 62  1  0  0  0
 60131  1  0  0  0
 60132  1  0  0  0
 60133  1  0  0  0
 61134  1  0  0  0
 61135  1  0  0  0
 61136  1  0  0  0
 62137  1  0  0  0
 62138  1  0  0  0
 62139  1  0  0  0
 63 65  1  0  0  0
 63140  1  0  0  0
 63141  1  0  0  0
 63142  1  0  0  0
 64143  1  0  0  0
 65144  1  0  0  0
 68 80  1  0  0  0
 71 74  2  0  0  0
 71 75  1  0  0  0
 71145  1  0  0  0
 72 74  1  0  0  0
 72 76  2  0  0  0
 72146  1  0  0  0
 73 75  2  0  0  0
 73 76  1  0  0  0
 73147  1  0  0  0
 74 77  1  0  0  0
 75 81  1  0  0  0
 76 85  1  0  0  0
 77 82  1  0  0  0
 77 83  2  0  0  0
 78 79  1  0  0  0
 78 80  1  0  0  0
 78 84  2  0  0  0
 79 81  1  0  0  0
 79148  1  0  0  0
 79149  1  0  0  0
 80150  1  0  0  0
 80151  1  0  0  0
 81152  1  0  0  0
 82153  1  0  0  0
M  ISO  4   1 100  68 101  80 101  82 100
M  END
> <chiral flag>
0

> <version>
0

> <s_m_source_file>
/data/baiqing/PycharmProjects/Reinvent-master-3.2/result/LINK_invent/BTK/process_docking_weight1_custom_product_contain_oxygen_bond_distance_aromatic_linkinvent_7_9_3/rearranged_h_0162.sdf

> <i_m_source_file_index>
30

> <r_mmod_Potential_Energy-OPLS-2005>
21066.96484375

> <r_mmod_Stretch_Energy-OPLS-2005>
11874.7373046875

> <r_mmod_Bend_Energy-OPLS-2005>
2565.81591796875

> <r_mmod_Torsional_Energy-OPLS-2005>
559.314331054688

> <r_mmod_Improper_Torsional_Energy-OPLS-2005>
79.475830078125

> <r_mmod_Van_der_Waal_Energy-OPLS-2005>
4331.7861328125

> <r_mmod_Electrostatic_Energy-OPLS-2005>
-463.892181396484

> <r_mmod_Solvation_Energy-OPLS-2005>
-247.25212097168

> <b_mmod_Minimization_Converged-OPLS-2005>
0

> <r_mmod_RMS_Derivative-OPLS-2005>
3.52106857299805

$$$$
30
                    3D
 Structure written by MMmdl.
161169  0  0  1  0            999 V2000
  -30.6157  -14.5273   20.4991 C   0  0  0  0  0  0
  -30.4390  -12.3233   19.4048 C   0  0  0  0  0  0
  -29.4925  -12.4811   18.1959 C   0  0  0  0  0  0
  -28.0127  -12.3380   18.6100 C   0  0  0  0  0  0
  -27.6521  -13.1911   19.8538 C   0  0  2  0  0  0
  -28.7000  -12.9701   20.9661 C   0  0  0  0  0  0
  -25.2572  -13.8136   20.5648 C   0  0  0  0  0  0
  -24.1804  -13.0427   20.9130 C   0  0  0  0  0  0
  -24.6340  -11.6882   20.8700 C   0  0  0  0  0  0
  -23.8999  -10.4284   21.0370 C   0  0  0  0  0  0
  -24.3549   -9.4210   21.9151 C   0  0  0  0  0  0
  -23.6215   -8.2252   22.0761 C   0  0  0  0  0  0
  -22.4194   -8.0294   21.3546 C   0  0  0  0  0  0
  -21.9796   -9.0267   20.4656 C   0  0  0  0  0  0
  -22.7170  -10.2132   20.3031 C   0  0  0  0  0  0
  -21.6824   -6.0741   22.5265 C   0  0  0  0  0  0
  -21.3982   -6.5676   23.8184 C   0  0  0  0  0  0
  -21.3644   -5.6852   24.9162 C   0  0  0  0  0  0
  -21.6018   -4.3103   24.7252 C   0  0  0  0  0  0
  -21.8802   -3.8159   23.4376 C   0  0  0  0  0  0
  -21.9157   -4.6964   22.3406 C   0  0  0  0  0  0
  -22.7822  -13.5278   21.1762 C   0  0  0  0  0  0
  -22.1635   -4.2116   21.0989 F   0  0  0  0  0  0
  -21.5613   -3.4612   25.7786 F   0  0  0  0  0  0
  -30.0210  -13.3067   20.4120 N   0  0  0  0  0  0
  -26.2958  -12.9244   20.3245 N   0  0  0  0  0  0
  -25.9232  -11.6417   20.5644 N   0  0  0  0  0  0
  -22.0455  -12.8336   22.0377 N   0  0  0  0  0  0
  -25.4236  -15.1881   20.4102 N   0  0  0  0  0  0
  -31.7919  -14.7282   20.1739 O   0  0  0  0  0  0
  -21.6575   -6.8878   21.4232 O   0  0  0  0  0  0
  -22.3505  -14.5579   20.6586 O   0  0  0  0  0  0
  -24.6134  -31.8686   23.2116 C   0  0  0  0  0  0
  -25.9016  -32.4834   23.8387 C   0  0  1  0  0  0
  -27.2135  -27.4270   20.0446 C   0  0  0  0  0  0
  -25.5871  -33.8635   24.2319 N   0  0  0  0  0  0
  -23.3976  -30.4969   21.5593 C   0  0  2  0  0  0
  -24.8340  -28.9666   20.1151 C   0  0  0  0  0  0
  -22.7388  -29.4661   22.5039 C   0  0  0  0  0  0
  -18.0251  -28.1387   22.8472 C   0  0  0  0  0  0
  -24.1480  -36.7315   23.2643 C   0  0  0  0  0  0
  -25.9288  -30.8290   21.3634 C   0  0  0  0  0  0
  -26.0001  -29.4641   20.7039 C   0  0  0  0  0  0
  -27.1926  -28.7006   20.6700 C   0  0  0  0  0  0
  -26.0114  -26.9353   19.4862 C   0  0  0  0  0  0
  -24.8339  -27.7010   19.5091 C   0  0  0  0  0  0
  -23.6006  -29.8381   20.1726 C   0  0  0  0  0  0
  -25.4108  -36.3132   24.0323 C   0  0  1  0  0  0
  -20.5830  -28.3670   23.1331 C   0  0  2  0  0  0
  -20.6737  -26.9407   22.5429 C   0  0  0  0  0  0
  -19.5739  -26.6391   21.5210 C   0  0  0  0  0  0
  -18.1918  -26.7933   22.1616 C   0  0  0  0  0  0
  -19.1493  -28.8841   23.2907 C   0  0  0  0  0  0
  -18.9425  -30.1444   23.8928 C   0  0  0  0  0  0
  -17.6430  -30.6600   24.0554 C   0  0  0  0  0  0
  -25.9027  -34.9485   23.5114 C   0  0  0  0  0  0
  -16.5326  -29.9100   23.6298 C   0  0  0  0  0  0
  -16.7239  -28.6510   23.0325 C   0  0  0  0  0  0
  -26.4445  -31.6606   25.0699 C   0  0  0  0  0  0
  -25.3695  -31.3712   26.1434 C   0  0  0  0  0  0
  -27.0249  -30.3043   24.6061 C   0  0  0  0  0  0
  -27.6057  -32.4307   25.7447 C   0  0  0  0  0  0
  -27.5580  -37.1819   24.8467 C   0  0  0  0  0  0
  -21.4124  -29.3051   22.3763 N   0  0  0  0  0  0
  -26.4321  -37.3789   23.9389 N   0  0  0  0  0  0
  -24.6665  -31.0771   22.1031 N   0  0  0  0  0  0
  -23.4162  -28.8179   23.3069 O   0  0  0  0  0  0
  -28.4020  -26.7174   20.0039 O   0  0  0  0  0  0
  -26.5625  -34.8918   22.4700 O   0  0  0  0  0  0
  -23.5334  -32.1472   23.7493 O   0  0  0  0  0  0
  -29.3250  -17.9119   20.0555 C   0  0  0  0  0  0
  -30.2351  -19.6929   21.4499 C   0  0  0  0  0  0
  -30.7855  -17.3661   21.9430 C   0  0  0  0  0  0
  -29.4560  -19.3079   20.3313 C   0  0  0  0  0  0
  -29.9851  -16.9373   20.8641 C   0  0  0  0  0  0
  -30.8905  -18.7358   22.2414 C   0  0  0  0  0  0
  -28.8156  -20.3691   19.5018 C   0  0  0  0  0  0
  -29.7868  -24.2886   20.9380 C   0  0  0  0  0  0
  -29.4511  -24.2381   22.4177 C   0  0  0  0  0  0
  -28.6901  -22.9386   19.0370 C   0  0  0  0  0  0
  -28.5581  -25.5555   19.1537 C   0  0  0  0  0  0
  -28.6176  -24.2182   19.9494 C   0  0  2  0  0  0
  -27.9439  -20.0772   18.5398 N   0  0  0  0  0  0
  -29.7403  -15.5378   20.7054 N   0  0  0  0  0  0
  -29.1202  -21.6705   19.7153 N   0  3  0  0  0  0
  -30.9606  -24.3469   20.5599 O   0  0  0  0  0  0
  -31.6118  -19.1388   23.3143 F   0  0  0  0  0  0
  -31.4724  -12.4653   19.0860 H   0  0  0  0  0  0
  -30.3887  -11.3133   19.8127 H   0  0  0  0  0  0
  -29.7361  -11.7418   17.4331 H   0  0  0  0  0  0
  -29.6482  -13.4552   17.7308 H   0  0  0  0  0  0
  -27.8367  -11.2839   18.8224 H   0  0  0  0  0  0
  -27.3604  -12.5923   17.7725 H   0  0  0  0  0  0
  -27.6846  -14.2339   19.5420 H   0  0  0  0  0  0
  -28.6916  -11.9256   21.2808 H   0  0  0  0  0  0
  -28.4623  -13.5576   21.8521 H   0  0  0  0  0  0
  -25.2728   -9.5684   22.4632 H   0  0  0  0  0  0
  -23.9925   -7.4684   22.7536 H   0  0  0  0  0  0
  -21.0681   -8.8807   19.9019 H   0  0  0  0  0  0
  -22.3649  -10.9615   19.6069 H   0  0  0  0  0  0
  -21.1999   -7.6180   23.9654 H   0  0  0  0  0  0
  -21.1448   -6.0619   25.9053 H   0  0  0  0  0  0
  -22.0567   -2.7613   23.2921 H   0  0  0  0  0  0
  -22.4016  -11.9955   22.4705 H   0  0  0  0  0  0
  -21.1171  -13.1546   22.2758 H   0  0  0  0  0  0
  -24.6605  -15.8341   20.5717 H   0  0  0  0  0  0
  -26.2684  -15.6539   20.1112 H   0  0  0  0  0  0
  -26.7071  -32.5518   23.1130 H   0  0  0  0  0  0
  -24.9963  -33.9796   25.0435 H   0  0  0  0  0  0
  -22.6885  -31.3177   21.4287 H   0  0  0  0  0  0
  -23.3738  -35.9663   23.3349 H   0  0  0  0  0  0
  -24.3571  -36.8879   22.2057 H   0  0  0  0  0  0
  -23.7225  -37.6520   23.6638 H   0  0  0  0  0  0
  -26.0330  -31.6023   20.5999 H   0  0  0  0  0  0
  -26.8217  -30.8851   21.9753 H   0  0  0  0  0  0
  -28.0982  -29.0925   21.1144 H   0  0  0  0  0  0
  -25.9394  -25.9632   19.0236 H   0  0  0  0  0  0
  -23.9280  -27.3122   19.0645 H   0  0  0  0  0  0
  -23.7109  -30.6202   19.4222 H   0  0  0  0  0  0
  -22.7175  -29.2712   19.8732 H   0  0  0  0  0  0
  -25.1273  -36.2026   25.0819 H   0  0  0  0  0  0
  -20.9890  -28.3242   24.1462 H   0  0  0  0  0  0
  -20.5619  -26.2278   23.3615 H   0  0  0  0  0  0
  -21.6606  -26.7459   22.1230 H   0  0  0  0  0  0
  -19.6917  -25.6306   21.1238 H   0  0  0  0  0  0
  -19.6682  -27.3205   20.6754 H   0  0  0  0  0  0
  -17.4161  -26.6631   21.4059 H   0  0  0  0  0  0
  -18.0351  -26.0115   22.9056 H   0  0  0  0  0  0
  -19.7907  -30.7235   24.2331 H   0  0  0  0  0  0
  -17.4992  -31.6274   24.5160 H   0  0  0  0  0  0
  -15.5332  -30.3010   23.7609 H   0  0  0  0  0  0
  -15.8640  -28.0846   22.7021 H   0  0  0  0  0  0
  -24.5885  -30.7035   25.7754 H   0  0  0  0  0  0
  -24.8840  -32.2863   26.4857 H   0  0  0  0  0  0
  -25.8009  -30.8890   27.0220 H   0  0  0  0  0  0
  -26.2790  -29.6854   24.1048 H   0  0  0  0  0  0
  -27.3947  -29.7215   25.4513 H   0  0  0  0  0  0
  -27.8664  -30.4349   23.9244 H   0  0  0  0  0  0
  -27.2712  -33.3608   26.2076 H   0  0  0  0  0  0
  -28.3840  -32.6870   25.0233 H   0  0  0  0  0  0
  -28.0780  -31.8389   26.5308 H   0  0  0  0  0  0
  -28.2616  -38.0097   24.7444 H   0  0  0  0  0  0
  -28.1039  -36.2598   24.6379 H   0  0  0  0  0  0
  -27.2269  -37.1558   25.8868 H   0  0  0  0  0  0
  -20.9275  -29.8787   21.6995 H   0  0  0  0  0  0
  -26.0205  -38.2872   24.1382 H   0  0  0  0  0  0
  -28.7108  -17.5865   19.2263 H   0  0  0  0  0  0
  -30.3491  -20.7264   21.7337 H   0  0  0  0  0  0
  -31.2770  -16.6481   22.5806 H   0  0  0  0  0  0
  -28.5639  -24.8342   22.6338 H   0  0  0  0  0  0
  -30.2845  -24.6299   22.9993 H   0  0  0  0  0  0
  -29.2620  -23.2076   22.7165 H   0  0  0  0  0  0
  -29.3834  -23.1330   18.2159 H   0  0  0  0  0  0
  -27.7141  -22.7919   18.5722 H   0  0  0  0  0  0
  -27.8327  -25.4984   18.3430 H   0  0  0  0  0  0
  -29.5051  -25.6890   18.6292 H   0  0  0  0  0  0
  -27.6974  -24.1489   20.5290 H   0  0  0  0  0  0
  -27.6347  -19.1280   18.4044 H   0  0  0  0  0  0
  -27.6219  -20.7693   17.8844 H   0  0  0  0  0  0
  -28.7808  -15.2472   20.7966 H   0  0  0  0  0  0
  -29.9313  -21.7732   20.3072 H   0  0  0  0  0  0
  1 25  1  0  0  0
  1 30  2  0  0  0
  1 84  1  0  0  0
  2  3  1  0  0  0
  2 25  1  0  0  0
  2 88  1  0  0  0
  2 89  1  0  0  0
  3  4  1  0  0  0
  3 90  1  0  0  0
  3 91  1  0  0  0
  4  5  1  0  0  0
  4 92  1  0  0  0
  4 93  1  0  0  0
  5  6  1  0  0  0
  5 26  1  0  0  0
  5 94  1  0  0  0
  6 25  1  0  0  0
  6 95  1  0  0  0
  6 96  1  0  0  0
  7  8  2  0  0  0
  7 26  1  0  0  0
  7 29  1  0  0  0
  8  9  1  0  0  0
  8 22  1  0  0  0
  9 10  1  0  0  0
  9 27  2  0  0  0
 10 11  2  0  0  0
 10 15  1  0  0  0
 11 12  1  0  0  0
 11 97  1  0  0  0
 12 13  2  0  0  0
 12 98  1  0  0  0
 13 14  1  0  0  0
 13 31  1  0  0  0
 14 15  2  0  0  0
 14 99  1  0  0  0
 15100  1  0  0  0
 16 17  2  0  0  0
 16 21  1  0  0  0
 16 31  1  0  0  0
 17 18  1  0  0  0
 17101  1  0  0  0
 18 19  2  0  0  0
 18102  1  0  0  0
 19 20  1  0  0  0
 19 24  1  0  0  0
 20 21  2  0  0  0
 20103  1  0  0  0
 21 23  1  0  0  0
 22 28  1  0  0  0
 22 32  2  0  0  0
 26 27  1  0  0  0
 28104  1  0  0  0
 28105  1  0  0  0
 29106  1  0  0  0
 29107  1  0  0  0
 33 34  1  0  0  0
 33 66  1  0  0  0
 33 70  2  0  0  0
 34 36  1  0  0  0
 34 59  1  0  0  0
 34108  1  0  0  0
 35 44  2  0  0  0
 35 45  1  0  0  0
 35 68  1  0  0  0
 36 56  1  0  0  0
 36109  1  0  0  0
 37 39  1  0  0  0
 37 47  1  0  0  0
 37 66  1  0  0  0
 37110  1  0  0  0
 38 43  2  0  0  0
 38 46  1  0  0  0
 38 47  1  0  0  0
 39 64  1  0  0  0
 39 67  2  0  0  0
 40 52  1  0  0  0
 40 53  2  0  0  0
 40 58  1  0  0  0
 41111  1  0  0  0
 41112  1  0  0  0
 41113  1  0  0  0
 41 48  1  0  0  0
 42 43  1  0  0  0
 42 66  1  0  0  0
 42114  1  0  0  0
 42115  1  0  0  0
 43 44  1  0  0  0
 44116  1  0  0  0
 45 46  2  0  0  0
 45117  1  0  0  0
 46118  1  0  0  0
 47119  1  0  0  0
 47120  1  0  0  0
 48 56  1  0  0  0
 48 65  1  0  0  0
 48121  1  0  0  0
 49 50  1  0  0  0
 49 53  1  0  0  0
 49 64  1  0  0  0
 49122  1  0  0  0
 50 51  1  0  0  0
 50123  1  0  0  0
 50124  1  0  0  0
 51 52  1  0  0  0
 51125  1  0  0  0
 51126  1  0  0  0
 52127  1  0  0  0
 52128  1  0  0  0
 53 54  1  0  0  0
 54 55  2  0  0  0
 54129  1  0  0  0
 55 57  1  0  0  0
 55130  1  0  0  0
 56 69  2  0  0  0
 57 58  2  0  0  0
 57131  1  0  0  0
 58132  1  0  0  0
 59 60  1  0  0  0
 59 61  1  0  0  0
 59 62  1  0  0  0
 60133  1  0  0  0
 60134  1  0  0  0
 60135  1  0  0  0
 61136  1  0  0  0
 61137  1  0  0  0
 61138  1  0  0  0
 62139  1  0  0  0
 62140  1  0  0  0
 62141  1  0  0  0
 63 65  1  0  0  0
 63142  1  0  0  0
 63143  1  0  0  0
 63144  1  0  0  0
 64145  1  0  0  0
 65146  1  0  0  0
 68 81  1  0  0  0
 71 74  2  0  0  0
 71 75  1  0  0  0
 71147  1  0  0  0
 72 74  1  0  0  0
 72 76  2  0  0  0
 72148  1  0  0  0
 73 75  2  0  0  0
 73 76  1  0  0  0
 73149  1  0  0  0
 74 77  1  0  0  0
 75 84  1  0  0  0
 76 87  1  0  0  0
 77 83  1  0  0  0
 77 85  2  0  0  0
 78 79  1  0  0  0
 78 82  1  0  0  0
 78 86  2  0  0  0
 79150  1  0  0  0
 79151  1  0  0  0
 79152  1  0  0  0
 80 85  1  0  0  0
 80153  1  0  0  0
 80154  1  0  0  0
 80 82  1  0  0  0
 81 82  1  0  0  0
 81155  1  0  0  0
 81156  1  0  0  0
 82157  1  0  0  0
 83158  1  0  0  0
 83159  1  0  0  0
 84160  1  0  0  0
 85161  1  0  0  0
M  CHG  1  85   1
M  ISO  4   1 100  68 101  81 101  84 100
M  END
> <chiral flag>
0

> <version>
0

> <s_m_source_file>
/data/baiqing/PycharmProjects/Reinvent-master-3.2/result/LINK_invent/BTK/process_docking_weight1_custom_product_contain_oxygen_bond_distance_aromatic_linkinvent_7_9_3/rearranged_h_0162.sdf

> <i_m_source_file_index>
31

> <r_mmod_Potential_Energy-OPLS-2005>
-263.26025390625

> <r_mmod_Stretch_Energy-OPLS-2005>
45.4968795776367

> <r_mmod_Bend_Energy-OPLS-2005>
116.28010559082

> <r_mmod_Torsional_Energy-OPLS-2005>
217.71662902832

> <r_mmod_Improper_Torsional_Energy-OPLS-2005>
7.50917196273804

> <r_mmod_Van_der_Waal_Energy-OPLS-2005>
155.715942382812

> <r_mmod_Electrostatic_Energy-OPLS-2005>
-372.291198730469

> <r_mmod_Solvation_Energy-OPLS-2005>
-455.606475830078

> <b_mmod_Minimization_Converged-OPLS-2005>
0

> <r_mmod_RMS_Derivative-OPLS-2005>
5.48099899291992

$$$$
31
                    3D
 Structure written by MMmdl.
159167  0  0  1  0            999 V2000
  -30.6429  -14.8043   20.4360 C   0  0  0  0  0  0
  -30.4288  -12.4981   19.4812 C   0  0  0  0  0  0
  -29.5090  -12.5297   18.2403 C   0  0  0  0  0  0
  -28.0409  -12.3308   18.6630 C   0  0  0  0  0  0
  -27.6429  -13.2445   19.8525 C   0  0  2  0  0  0
  -28.6951  -13.2295   20.9864 C   0  0  0  0  0  0
  -25.2506  -13.8240   20.5739 C   0  0  0  0  0  0
  -24.1811  -13.0438   20.9198 C   0  0  0  0  0  0
  -24.6429  -11.6925   20.8759 C   0  0  0  0  0  0
  -23.9113  -10.4288   21.0425 C   0  0  0  0  0  0
  -24.3663   -9.4200   21.9204 C   0  0  0  0  0  0
  -23.6330   -8.2237   22.0777 C   0  0  0  0  0  0
  -22.4311   -8.0290   21.3560 C   0  0  0  0  0  0
  -21.9942   -9.0270   20.4651 C   0  0  0  0  0  0
  -22.7279  -10.2150   20.3069 C   0  0  0  0  0  0
  -21.6864   -6.0754   22.5284 C   0  0  0  0  0  0
  -21.4009   -6.5657   23.8210 C   0  0  0  0  0  0
  -21.3655   -5.6818   24.9174 C   0  0  0  0  0  0
  -21.6044   -4.3084   24.7235 C   0  0  0  0  0  0
  -21.8823   -3.8151   23.4364 C   0  0  0  0  0  0
  -21.9181   -4.6972   22.3408 C   0  0  0  0  0  0
  -22.7828  -13.5219   21.1852 C   0  0  0  0  0  0
  -22.1678   -4.2155   21.0990 F   0  0  0  0  0  0
  -21.5601   -3.4579   25.7735 F   0  0  0  0  0  0
  -29.9899  -13.5841   20.3928 N   0  0  0  0  0  0
  -26.2974  -12.9472   20.3361 N   0  0  0  0  0  0
  -25.9368  -11.6601   20.5781 N   0  0  0  0  0  0
  -22.0481  -12.8179   22.0408 N   0  0  0  0  0  0
  -25.4140  -15.1943   20.4136 N   0  0  0  0  0  0
  -31.8393  -14.8341   20.1334 O   0  0  0  0  0  0
  -21.6636   -6.8910   21.4265 O   0  0  0  0  0  0
  -22.3499  -14.5528   20.6718 O   0  0  0  0  0  0
  -24.6309  -31.8545   23.1951 C   0  0  0  0  0  0
  -25.9142  -32.4745   23.8305 C   0  0  1  0  0  0
  -27.2373  -27.2623   20.1388 C   0  0  0  0  0  0
  -25.5957  -33.8548   24.2233 N   0  0  0  0  0  0
  -23.4289  -30.4722   21.5379 C   0  0  2  0  0  0
  -24.8783  -28.9104   20.1165 C   0  0  0  0  0  0
  -22.7494  -29.4604   22.4919 C   0  0  0  0  0  0
  -18.0290  -28.1398   22.8483 C   0  0  0  0  0  0
  -24.1497  -36.7274   23.2628 C   0  0  0  0  0  0
  -25.9702  -30.7693   21.3699 C   0  0  0  0  0  0
  -26.0490  -29.3877   20.7194 C   0  0  0  0  0  0
  -27.2319  -28.5789   20.7123 C   0  0  0  0  0  0
  -26.0443  -26.8497   19.5083 C   0  0  0  0  0  0
  -24.8809  -27.6485   19.4994 C   0  0  0  0  0  0
  -23.6471  -29.7953   20.1595 C   0  0  0  0  0  0
  -25.4107  -36.3050   24.0312 C   0  0  1  0  0  0
  -20.5902  -28.3695   23.1299 C   0  0  2  0  0  0
  -20.6782  -26.9414   22.5436 C   0  0  0  0  0  0
  -19.5755  -26.6389   21.5233 C   0  0  0  0  0  0
  -18.1932  -26.7942   22.1612 C   0  0  0  0  0  0
  -19.1549  -28.8862   23.2886 C   0  0  0  0  0  0
  -18.9454  -30.1472   23.8895 C   0  0  0  0  0  0
  -17.6458  -30.6588   24.0580 C   0  0  0  0  0  0
  -25.9068  -34.9432   23.5080 C   0  0  0  0  0  0
  -16.5358  -29.9086   23.6337 C   0  0  0  0  0  0
  -16.7281  -28.6507   23.0351 C   0  0  0  0  0  0
  -26.4513  -31.6559   25.0681 C   0  0  0  0  0  0
  -25.3753  -31.3735   26.1416 C   0  0  0  0  0  0
  -27.0324  -30.2973   24.6143 C   0  0  0  0  0  0
  -27.6069  -32.4279   25.7454 C   0  0  0  0  0  0
  -27.5625  -37.1721   24.8403 C   0  0  0  0  0  0
  -21.4211  -29.3042   22.3671 N   0  0  0  0  0  0
  -26.4245  -37.3797   23.9482 N   0  0  0  0  0  0
  -24.6963  -31.0501   22.0919 N   0  0  0  0  0  0
  -23.4194  -28.8149   23.3044 O   0  0  0  0  0  0
  -28.3560  -26.3965   20.1384 O   0  0  0  0  0  0
  -26.5636  -34.8925   22.4650 O   0  0  0  0  0  0
  -23.5464  -32.1361   23.7257 O   0  0  0  0  0  0
  -29.4398  -18.5334   20.3978 C   0  0  0  0  0  0
  -30.1053  -19.8090   20.0292 C   0  0  0  0  0  0
  -31.4352  -19.5672   19.7278 C   0  0  0  0  0  0
  -30.2359  -17.3535   20.3864 C   0  0  0  0  0  0
  -32.5120  -20.4108   19.2059 C   0  0  0  0  0  0
  -30.5972  -24.2414   19.9279 C   0  0  0  0  0  0
  -29.1154  -22.2384   20.4911 C   0  0  0  0  0  0
  -32.5431  -25.6234   18.9620 C   0  0  0  0  0  0
  -31.0802  -25.1661   18.8006 C   0  0  0  0  0  0
  -28.2186  -24.9399   20.5333 C   0  0  0  0  0  0
  -29.1300  -23.7525   19.8781 C   0  0  1  0  0  0
  -32.5573  -21.6747   19.1892 N   0  0  0  0  0  0
  -29.5029  -21.1462   19.7162 N   0  0  0  0  0  0
  -29.9090  -15.9862   20.6092 N   0  0  0  0  0  0
  -31.3639  -23.9345   20.8513 O   0  0  0  0  0  0
  -28.7297  -22.0601   21.6502 O   0  0  0  0  0  0
  -28.7525  -23.6435   18.5982 F   0  0  0  0  0  0
  -31.8633  -17.8787   19.9781 S   0  0  0  0  0  0
  -31.4728  -12.6041   19.1784 H   0  0  0  0  0  0
  -30.3653  -11.5320   19.9827 H   0  0  0  0  0  0
  -29.7993  -11.7643   17.5183 H   0  0  0  0  0  0
  -29.6149  -13.4882   17.7248 H   0  0  0  0  0  0
  -27.9181  -11.2852   18.9494 H   0  0  0  0  0  0
  -27.3831  -12.5055   17.8120 H   0  0  0  0  0  0
  -27.6206  -14.2585   19.4520 H   0  0  0  0  0  0
  -28.7451  -12.2474   21.4624 H   0  0  0  0  0  0
  -28.4281  -13.9323   21.7763 H   0  0  0  0  0  0
  -25.2820   -9.5670   22.4761 H   0  0  0  0  0  0
  -24.0032   -7.4626   22.7502 H   0  0  0  0  0  0
  -21.0865   -8.8822   19.8954 H   0  0  0  0  0  0
  -22.3752  -10.9725   19.6186 H   0  0  0  0  0  0
  -21.2046   -7.6160   23.9722 H   0  0  0  0  0  0
  -21.1469   -6.0539   25.9076 H   0  0  0  0  0  0
  -22.0602   -2.7609   23.2850 H   0  0  0  0  0  0
  -22.4154  -11.9878   22.4811 H   0  0  0  0  0  0
  -21.1101  -13.1192   22.2647 H   0  0  0  0  0  0
  -24.6371  -15.8390   20.4914 H   0  0  0  0  0  0
  -26.2516  -15.6311   20.0535 H   0  0  0  0  0  0
  -26.7197  -32.5419   23.1042 H   0  0  0  0  0  0
  -25.0120  -33.9682   25.0396 H   0  0  0  0  0  0
  -22.7235  -31.2929   21.3885 H   0  0  0  0  0  0
  -23.3832  -35.9525   23.3088 H   0  0  0  0  0  0
  -24.3647  -36.9111   22.2076 H   0  0  0  0  0  0
  -23.7137  -37.6362   23.6784 H   0  0  0  0  0  0
  -26.0954  -31.5264   20.5950 H   0  0  0  0  0  0
  -26.8534  -30.8316   21.9955 H   0  0  0  0  0  0
  -28.1327  -28.9465   21.1823 H   0  0  0  0  0  0
  -26.0013  -25.8885   19.0152 H   0  0  0  0  0  0
  -23.9845  -27.2794   19.0198 H   0  0  0  0  0  0
  -23.7661  -30.5662   19.3969 H   0  0  0  0  0  0
  -22.7670  -29.2235   19.8599 H   0  0  0  0  0  0
  -25.1255  -36.1851   25.0808 H   0  0  0  0  0  0
  -20.9974  -28.3286   24.1424 H   0  0  0  0  0  0
  -20.5697  -26.2308   23.3629 H   0  0  0  0  0  0
  -21.6652  -26.7439   22.1242 H   0  0  0  0  0  0
  -19.6927  -25.6308   21.1256 H   0  0  0  0  0  0
  -19.6706  -27.3217   20.6769 H   0  0  0  0  0  0
  -17.4214  -26.6726   21.3994 H   0  0  0  0  0  0
  -18.0290  -26.0073   22.8986 H   0  0  0  0  0  0
  -19.7931  -30.7303   24.2248 H   0  0  0  0  0  0
  -17.5003  -31.6259   24.5183 H   0  0  0  0  0  0
  -15.5356  -30.2979   23.7652 H   0  0  0  0  0  0
  -15.8686  -28.0835   22.7036 H   0  0  0  0  0  0
  -24.5912  -30.7070   25.7775 H   0  0  0  0  0  0
  -24.8953  -32.2914   26.4814 H   0  0  0  0  0  0
  -25.8086  -30.8939   27.0200 H   0  0  0  0  0  0
  -26.2870  -29.6720   24.1196 H   0  0  0  0  0  0
  -27.4036  -29.7216   25.4639 H   0  0  0  0  0  0
  -27.8754  -30.4214   23.9335 H   0  0  0  0  0  0
  -27.2688  -33.3582   26.2022 H   0  0  0  0  0  0
  -28.3899  -32.6822   25.0292 H   0  0  0  0  0  0
  -28.0720  -31.8398   26.5372 H   0  0  0  0  0  0
  -28.2408  -38.0236   24.7801 H   0  0  0  0  0  0
  -28.1337  -36.2822   24.5762 H   0  0  0  0  0  0
  -27.2427  -37.0801   25.8793 H   0  0  0  0  0  0
  -20.9385  -29.8739   21.6856 H   0  0  0  0  0  0
  -26.0104  -38.2801   24.1720 H   0  0  0  0  0  0
  -28.3792  -18.5234   20.6067 H   0  0  0  0  0  0
  -33.3584  -19.8682   18.7706 H   0  0  0  0  0  0
  -32.8130  -26.3405   18.1858 H   0  0  0  0  0  0
  -33.2309  -24.7813   18.8837 H   0  0  0  0  0  0
  -32.7061  -26.1059   19.9259 H   0  0  0  0  0  0
  -30.4270  -26.0355   18.7695 H   0  0  0  0  0  0
  -30.9681  -24.6454   17.8484 H   0  0  0  0  0  0
  -28.4115  -24.9287   21.6066 H   0  0  0  0  0  0
  -27.1766  -24.6359   20.4500 H   0  0  0  0  0  0
  -31.7632  -22.1019   19.6518 H   0  0  0  0  0  0
  -29.6602  -21.4299   18.7574 H   0  0  0  0  0  0
  -28.9440  -15.8210   20.8555 H   0  0  0  0  0  0
  1 25  1  0  0  0
  1 30  2  0  0  0
  1 84  1  0  0  0
  2  3  1  0  0  0
  2 25  1  0  0  0
  2 89  1  0  0  0
  2 90  1  0  0  0
  3  4  1  0  0  0
  3 91  1  0  0  0
  3 92  1  0  0  0
  4  5  1  0  0  0
  4 93  1  0  0  0
  4 94  1  0  0  0
  5  6  1  0  0  0
  5 26  1  0  0  0
  5 95  1  0  0  0
  6 25  1  0  0  0
  6 96  1  0  0  0
  6 97  1  0  0  0
  7  8  2  0  0  0
  7 26  1  0  0  0
  7 29  1  0  0  0
  8  9  1  0  0  0
  8 22  1  0  0  0
  9 10  1  0  0  0
  9 27  2  0  0  0
 10 11  2  0  0  0
 10 15  1  0  0  0
 11 12  1  0  0  0
 11 98  1  0  0  0
 12 13  2  0  0  0
 12 99  1  0  0  0
 13 14  1  0  0  0
 13 31  1  0  0  0
 14 15  2  0  0  0
 14100  1  0  0  0
 15101  1  0  0  0
 16 17  2  0  0  0
 16 21  1  0  0  0
 16 31  1  0  0  0
 17 18  1  0  0  0
 17102  1  0  0  0
 18 19  2  0  0  0
 18103  1  0  0  0
 19 20  1  0  0  0
 19 24  1  0  0  0
 20 21  2  0  0  0
 20104  1  0  0  0
 21 23  1  0  0  0
 22 28  1  0  0  0
 22 32  2  0  0  0
 26 27  1  0  0  0
 28105  1  0  0  0
 28106  1  0  0  0
 29107  1  0  0  0
 29108  1  0  0  0
 33 34  1  0  0  0
 33 66  1  0  0  0
 33 70  2  0  0  0
 34 36  1  0  0  0
 34 59  1  0  0  0
 34109  1  0  0  0
 35 44  2  0  0  0
 35 45  1  0  0  0
 35 68  1  0  0  0
 36 56  1  0  0  0
 36110  1  0  0  0
 37 39  1  0  0  0
 37 47  1  0  0  0
 37 66  1  0  0  0
 37111  1  0  0  0
 38 43  2  0  0  0
 38 46  1  0  0  0
 38 47  1  0  0  0
 39 64  1  0  0  0
 39 67  2  0  0  0
 40 52  1  0  0  0
 40 53  2  0  0  0
 40 58  1  0  0  0
 41112  1  0  0  0
 41113  1  0  0  0
 41114  1  0  0  0
 41 48  1  0  0  0
 42 43  1  0  0  0
 42 66  1  0  0  0
 42115  1  0  0  0
 42116  1  0  0  0
 43 44  1  0  0  0
 44117  1  0  0  0
 45 46  2  0  0  0
 45118  1  0  0  0
 46119  1  0  0  0
 47120  1  0  0  0
 47121  1  0  0  0
 48 56  1  0  0  0
 48 65  1  0  0  0
 48122  1  0  0  0
 49 50  1  0  0  0
 49 53  1  0  0  0
 49 64  1  0  0  0
 49123  1  0  0  0
 50 51  1  0  0  0
 50124  1  0  0  0
 50125  1  0  0  0
 51 52  1  0  0  0
 51126  1  0  0  0
 51127  1  0  0  0
 52128  1  0  0  0
 52129  1  0  0  0
 53 54  1  0  0  0
 54 55  2  0  0  0
 54130  1  0  0  0
 55 57  1  0  0  0
 55131  1  0  0  0
 56 69  2  0  0  0
 57 58  2  0  0  0
 57132  1  0  0  0
 58133  1  0  0  0
 59 60  1  0  0  0
 59 61  1  0  0  0
 59 62  1  0  0  0
 60134  1  0  0  0
 60135  1  0  0  0
 60136  1  0  0  0
 61137  1  0  0  0
 61138  1  0  0  0
 61139  1  0  0  0
 62140  1  0  0  0
 62141  1  0  0  0
 62142  1  0  0  0
 63 65  1  0  0  0
 63143  1  0  0  0
 63144  1  0  0  0
 63145  1  0  0  0
 64146  1  0  0  0
 65147  1  0  0  0
 68 80  1  0  0  0
 71 72  1  0  0  0
 71 74  2  0  0  0
 71148  1  0  0  0
 72 73  2  0  0  0
 72 83  1  0  0  0
 73 75  1  0  0  0
 73 88  1  0  0  0
 74 84  1  0  0  0
 74 88  1  0  0  0
 75 82  2  0  0  0
 75149  1  0  0  0
 76 79  1  0  0  0
 76 81  1  0  0  0
 76 85  2  0  0  0
 77 81  1  0  0  0
 77 83  1  0  0  0
 77 86  2  0  0  0
 78 79  1  0  0  0
 78150  1  0  0  0
 78151  1  0  0  0
 78152  1  0  0  0
 79153  1  0  0  0
 79154  1  0  0  0
 80 81  1  0  0  0
 80155  1  0  0  0
 80156  1  0  0  0
 81 87  1  0  0  0
 82157  1  0  0  0
 83158  1  0  0  0
 84159  1  0  0  0
M  ISO  4   1 100  68 101  80 101  84 100
M  END
> <chiral flag>
0

> <version>
0

> <s_m_source_file>
/data/baiqing/PycharmProjects/Reinvent-master-3.2/result/LINK_invent/BTK/process_docking_weight1_custom_product_contain_oxygen_bond_distance_aromatic_linkinvent_7_9_3/rearranged_h_0162.sdf

> <i_m_source_file_index>
32

> <r_mmod_Potential_Energy-OPLS-2005>
315.229888916016

> <r_mmod_Stretch_Energy-OPLS-2005>
146.229522705078

> <r_mmod_Bend_Energy-OPLS-2005>
189.334686279297

> <r_mmod_Torsional_Energy-OPLS-2005>
275.017700195312

> <r_mmod_Improper_Torsional_Energy-OPLS-2005>
7.8950138092041

> <r_mmod_Van_der_Waal_Energy-OPLS-2005>
118.327941894531

> <r_mmod_Electrostatic_Energy-OPLS-2005>
-268.293426513672

> <r_mmod_Solvation_Energy-OPLS-2005>
-249.891738891602

> <b_mmod_Minimization_Converged-OPLS-2005>
0

> <r_mmod_RMS_Derivative-OPLS-2005>
4.63298797607422

$$$$
32
                    3D
 Structure written by MMmdl.
149157  0  0  1  0            999 V2000
  -30.6638  -14.5913   20.5113 C   0  0  0  0  0  0
  -30.4225  -12.3601   19.4583 C   0  0  0  0  0  0
  -29.5036  -12.4863   18.2249 C   0  0  0  0  0  0
  -28.0243  -12.3438   18.6338 C   0  0  0  0  0  0
  -27.6493  -13.2182   19.8607 C   0  0  2  0  0  0
  -28.6913  -13.0822   20.9914 C   0  0  0  0  0  0
  -25.2529  -13.8171   20.5669 C   0  0  0  0  0  0
  -24.1807  -13.0426   20.9184 C   0  0  0  0  0  0
  -24.6389  -11.6905   20.8760 C   0  0  0  0  0  0
  -23.9071  -10.4292   21.0431 C   0  0  0  0  0  0
  -24.3618   -9.4200   21.9199 C   0  0  0  0  0  0
  -23.6289   -8.2241   22.0765 C   0  0  0  0  0  0
  -22.4271   -8.0288   21.3555 C   0  0  0  0  0  0
  -21.9916   -9.0267   20.4654 C   0  0  0  0  0  0
  -22.7256  -10.2140   20.3067 C   0  0  0  0  0  0
  -21.6858   -6.0737   22.5271 C   0  0  0  0  0  0
  -21.4028   -6.5641   23.8204 C   0  0  0  0  0  0
  -21.3656   -5.6793   24.9162 C   0  0  0  0  0  0
  -21.6039   -4.3058   24.7215 C   0  0  0  0  0  0
  -21.8824   -3.8149   23.4338 C   0  0  0  0  0  0
  -21.9190   -4.6965   22.3392 C   0  0  0  0  0  0
  -22.7836  -13.5217   21.1873 C   0  0  0  0  0  0
  -22.1664   -4.2149   21.0968 F   0  0  0  0  0  0
  -21.5617   -3.4542   25.7730 F   0  0  0  0  0  0
  -30.0085  -13.3946   20.4229 N   0  0  0  0  0  0
  -26.2962  -12.9362   20.3312 N   0  0  0  0  0  0
  -25.9316  -11.6513   20.5773 N   0  0  0  0  0  0
  -22.0478  -12.8195   22.0420 N   0  0  0  0  0  0
  -25.4229  -15.1890   20.4064 N   0  0  0  0  0  0
  -31.8343  -14.7123   20.1408 O   0  0  0  0  0  0
  -21.6639   -6.8880   21.4239 O   0  0  0  0  0  0
  -22.3519  -14.5529   20.6735 O   0  0  0  0  0  0
  -24.6236  -31.8621   23.2039 C   0  0  0  0  0  0
  -25.9086  -32.4798   23.8360 C   0  0  1  0  0  0
  -27.2247  -27.3441   20.1195 C   0  0  0  0  0  0
  -25.5911  -33.8597   24.2291 N   0  0  0  0  0  0
  -23.4154  -30.4848   21.5461 C   0  0  2  0  0  0
  -24.8606  -28.9377   20.1142 C   0  0  0  0  0  0
  -22.7459  -29.4631   22.4951 C   0  0  0  0  0  0
  -18.0283  -28.1395   22.8486 C   0  0  0  0  0  0
  -24.1483  -36.7304   23.2641 C   0  0  0  0  0  0
  -25.9526  -30.7995   21.3697 C   0  0  0  0  0  0
  -26.0267  -29.4273   20.7158 C   0  0  0  0  0  0
  -27.2126  -28.6423   20.7058 C   0  0  0  0  0  0
  -26.0394  -26.8961   19.4953 C   0  0  0  0  0  0
  -24.8669  -27.6769   19.4955 C   0  0  0  0  0  0
  -23.6283  -29.8169   20.1616 C   0  0  0  0  0  0
  -25.4110  -36.3103   24.0332 C   0  0  1  0  0  0
  -20.5877  -28.3688   23.1294 C   0  0  2  0  0  0
  -20.6773  -26.9414   22.5409 C   0  0  0  0  0  0
  -19.5750  -26.6389   21.5213 C   0  0  0  0  0  0
  -18.1928  -26.7938   22.1624 C   0  0  0  0  0  0
  -19.1534  -28.8856   23.2888 C   0  0  0  0  0  0
  -18.9460  -30.1459   23.8901 C   0  0  0  0  0  0
  -17.6463  -30.6592   24.0565 C   0  0  0  0  0  0
  -25.9044  -34.9467   23.5112 C   0  0  0  0  0  0
  -16.5351  -29.9093   23.6333 C   0  0  0  0  0  0
  -16.7271  -28.6513   23.0347 C   0  0  0  0  0  0
  -26.4483  -31.6606   25.0724 C   0  0  0  0  0  0
  -25.3727  -31.3724   26.1458 C   0  0  0  0  0  0
  -27.0329  -30.3040   24.6152 C   0  0  0  0  0  0
  -27.6049  -32.4336   25.7496 C   0  0  0  0  0  0
  -27.5578  -37.1810   24.8468 C   0  0  0  0  0  0
  -21.4176  -29.3048   22.3694 N   0  0  0  0  0  0
  -26.4293  -37.3790   23.9407 N   0  0  0  0  0  0
  -24.6826  -31.0655   22.0970 N   0  0  0  0  0  0
  -23.4202  -28.8184   23.3027 O   0  0  0  0  0  0
  -28.3645  -26.5409   20.1326 O   0  0  0  0  0  0
  -26.5611  -34.8929   22.4679 O   0  0  0  0  0  0
  -23.5405  -32.1400   23.7383 O   0  0  0  0  0  0
  -28.5586  -18.3435   19.5599 C   0  0  0  0  0  0
  -28.1885  -19.7235   19.4575 C   0  0  0  0  0  0
  -29.5628  -18.2446   20.4890 C   0  0  0  0  0  0
  -28.9913  -20.4109   20.3270 C   0  0  0  0  0  0
  -29.1595  -22.6364   19.6469 C   0  0  0  0  0  0
  -29.1280  -24.1913   19.5418 C   0  0  0  0  0  0
  -30.4244  -17.0851   21.0160 C   0  0  0  0  0  0
  -28.2133  -25.0988   20.4248 C   0  0  0  0  0  0
  -28.9357  -21.7870   20.5987 N   0  0  0  0  0  0
  -29.9251  -15.6838   20.8567 N   0  0  0  0  0  0
  -29.8288  -24.7453   18.6836 O   0  0  0  0  0  0
  -29.8208  -19.5220   20.9848 O   0  0  0  0  0  0
  -31.4698  -12.4516   19.1641 H   0  0  0  0  0  0
  -30.3280  -11.3716   19.9079 H   0  0  0  0  0  0
  -29.7599  -11.7252   17.4851 H   0  0  0  0  0  0
  -29.6638  -13.4499   17.7391 H   0  0  0  0  0  0
  -27.8532  -11.2909   18.8650 H   0  0  0  0  0  0
  -27.3745  -12.5757   17.7905 H   0  0  0  0  0  0
  -27.6693  -14.2533   19.5206 H   0  0  0  0  0  0
  -28.6925  -12.0696   21.3952 H   0  0  0  0  0  0
  -28.4453  -13.7402   21.8268 H   0  0  0  0  0  0
  -25.2767   -9.5672   22.4770 H   0  0  0  0  0  0
  -23.9994   -7.4630   22.7478 H   0  0  0  0  0  0
  -21.0852   -8.8790   19.8956 H   0  0  0  0  0  0
  -22.3728  -10.9676   19.6170 H   0  0  0  0  0  0
  -21.2052   -7.6158   23.9713 H   0  0  0  0  0  0
  -21.1464   -6.0521   25.9057 H   0  0  0  0  0  0
  -22.0611   -2.7615   23.2831 H   0  0  0  0  0  0
  -22.4079  -11.9832   22.4771 H   0  0  0  0  0  0
  -21.1106  -13.1231   22.2657 H   0  0  0  0  0  0
  -24.6601  -15.8473   20.5278 H   0  0  0  0  0  0
  -26.2749  -15.6284   20.0872 H   0  0  0  0  0  0
  -26.7154  -32.5483   23.1115 H   0  0  0  0  0  0
  -25.0064  -33.9744   25.0441 H   0  0  0  0  0  0
  -22.7077  -31.3031   21.4030 H   0  0  0  0  0  0
  -23.3747  -35.9634   23.3320 H   0  0  0  0  0  0
  -24.3570  -36.8908   22.2050 H   0  0  0  0  0  0
  -23.7229  -37.6509   23.6650 H   0  0  0  0  0  0
  -26.0768  -31.5607   20.5981 H   0  0  0  0  0  0
  -26.8379  -30.8539   21.9916 H   0  0  0  0  0  0
  -28.1122  -29.0157   21.1743 H   0  0  0  0  0  0
  -26.0080  -25.9389   18.9951 H   0  0  0  0  0  0
  -23.9739  -27.3008   19.0150 H   0  0  0  0  0  0
  -23.7463  -30.5919   19.4032 H   0  0  0  0  0  0
  -22.7492  -29.2441   19.8625 H   0  0  0  0  0  0
  -25.1289  -36.1961   25.0822 H   0  0  0  0  0  0
  -20.9967  -28.3261   24.1418 H   0  0  0  0  0  0
  -20.5684  -26.2298   23.3609 H   0  0  0  0  0  0
  -21.6642  -26.7456   22.1202 H   0  0  0  0  0  0
  -19.6914  -25.6302   21.1246 H   0  0  0  0  0  0
  -19.6693  -27.3197   20.6746 H   0  0  0  0  0  0
  -17.4200  -26.6682   21.4025 H   0  0  0  0  0  0
  -18.0329  -26.0080   22.9023 H   0  0  0  0  0  0
  -19.7932  -30.7270   24.2277 H   0  0  0  0  0  0
  -17.5017  -31.6274   24.5165 H   0  0  0  0  0  0
  -15.5352  -30.3000   23.7654 H   0  0  0  0  0  0
  -15.8671  -28.0838   22.7062 H   0  0  0  0  0  0
  -24.5906  -30.7069   25.7784 H   0  0  0  0  0  0
  -24.8911  -32.2882   26.4895 H   0  0  0  0  0  0
  -25.8061  -30.8896   27.0224 H   0  0  0  0  0  0
  -26.2889  -29.6787   24.1202 H   0  0  0  0  0  0
  -27.4075  -29.7296   25.4635 H   0  0  0  0  0  0
  -27.8735  -30.4353   23.9336 H   0  0  0  0  0  0
  -27.2663  -33.3627   26.2091 H   0  0  0  0  0  0
  -28.3852  -32.6910   25.0323 H   0  0  0  0  0  0
  -28.0727  -31.8452   26.5400 H   0  0  0  0  0  0
  -28.2611  -38.0094   24.7508 H   0  0  0  0  0  0
  -28.1061  -36.2628   24.6306 H   0  0  0  0  0  0
  -27.2299  -37.1475   25.8872 H   0  0  0  0  0  0
  -20.9352  -29.8759   21.6891 H   0  0  0  0  0  0
  -26.0186  -38.2868   24.1402 H   0  0  0  0  0  0
  -28.1414  -17.5151   19.0051 H   0  0  0  0  0  0
  -27.4196  -20.1505   18.8290 H   0  0  0  0  0  0
  -29.4812  -22.2019   18.6954 H   0  0  0  0  0  0
  -30.6013  -17.2398   22.0802 H   0  0  0  0  0  0
  -31.4074  -17.1683   20.5498 H   0  0  0  0  0  0
  -28.4707  -24.9303   21.4700 H   0  0  0  0  0  0
  -27.1862  -24.7575   20.3086 H   0  0  0  0  0  0
  -28.9596  -15.5184   21.0932 H   0  0  0  0  0  0
  1 25  1  0  0  0
  1 30  2  0  0  0
  1 80  1  0  0  0
  2  3  1  0  0  0
  2 25  1  0  0  0
  2 83  1  0  0  0
  2 84  1  0  0  0
  3  4  1  0  0  0
  3 85  1  0  0  0
  3 86  1  0  0  0
  4  5  1  0  0  0
  4 87  1  0  0  0
  4 88  1  0  0  0
  5  6  1  0  0  0
  5 26  1  0  0  0
  5 89  1  0  0  0
  6 25  1  0  0  0
  6 90  1  0  0  0
  6 91  1  0  0  0
  7  8  2  0  0  0
  7 26  1  0  0  0
  7 29  1  0  0  0
  8  9  1  0  0  0
  8 22  1  0  0  0
  9 10  1  0  0  0
  9 27  2  0  0  0
 10 11  2  0  0  0
 10 15  1  0  0  0
 11 12  1  0  0  0
 11 92  1  0  0  0
 12 13  2  0  0  0
 12 93  1  0  0  0
 13 14  1  0  0  0
 13 31  1  0  0  0
 14 15  2  0  0  0
 14 94  1  0  0  0
 15 95  1  0  0  0
 16 17  2  0  0  0
 16 21  1  0  0  0
 16 31  1  0  0  0
 17 18  1  0  0  0
 17 96  1  0  0  0
 18 19  2  0  0  0
 18 97  1  0  0  0
 19 20  1  0  0  0
 19 24  1  0  0  0
 20 21  2  0  0  0
 20 98  1  0  0  0
 21 23  1  0  0  0
 22 28  1  0  0  0
 22 32  2  0  0  0
 26 27  1  0  0  0
 28 99  1  0  0  0
 28100  1  0  0  0
 29101  1  0  0  0
 29102  1  0  0  0
 33 34  1  0  0  0
 33 66  1  0  0  0
 33 70  2  0  0  0
 34 36  1  0  0  0
 34 59  1  0  0  0
 34103  1  0  0  0
 35 44  2  0  0  0
 35 45  1  0  0  0
 35 68  1  0  0  0
 36 56  1  0  0  0
 36104  1  0  0  0
 37 39  1  0  0  0
 37 47  1  0  0  0
 37 66  1  0  0  0
 37105  1  0  0  0
 38 43  2  0  0  0
 38 46  1  0  0  0
 38 47  1  0  0  0
 39 64  1  0  0  0
 39 67  2  0  0  0
 40 52  1  0  0  0
 40 53  2  0  0  0
 40 58  1  0  0  0
 41106  1  0  0  0
 41107  1  0  0  0
 41108  1  0  0  0
 41 48  1  0  0  0
 42 43  1  0  0  0
 42 66  1  0  0  0
 42109  1  0  0  0
 42110  1  0  0  0
 43 44  1  0  0  0
 44111  1  0  0  0
 45 46  2  0  0  0
 45112  1  0  0  0
 46113  1  0  0  0
 47114  1  0  0  0
 47115  1  0  0  0
 48 56  1  0  0  0
 48 65  1  0  0  0
 48116  1  0  0  0
 49 50  1  0  0  0
 49 53  1  0  0  0
 49 64  1  0  0  0
 49117  1  0  0  0
 50 51  1  0  0  0
 50118  1  0  0  0
 50119  1  0  0  0
 51 52  1  0  0  0
 51120  1  0  0  0
 51121  1  0  0  0
 52122  1  0  0  0
 52123  1  0  0  0
 53 54  1  0  0  0
 54 55  2  0  0  0
 54124  1  0  0  0
 55 57  1  0  0  0
 55125  1  0  0  0
 56 69  2  0  0  0
 57 58  2  0  0  0
 57126  1  0  0  0
 58127  1  0  0  0
 59 60  1  0  0  0
 59 61  1  0  0  0
 59 62  1  0  0  0
 60128  1  0  0  0
 60129  1  0  0  0
 60130  1  0  0  0
 61131  1  0  0  0
 61132  1  0  0  0
 61133  1  0  0  0
 62134  1  0  0  0
 62135  1  0  0  0
 62136  1  0  0  0
 63 65  1  0  0  0
 63137  1  0  0  0
 63138  1  0  0  0
 63139  1  0  0  0
 64140  1  0  0  0
 65141  1  0  0  0
 68 78  1  0  0  0
 71 72  1  0  0  0
 71 73  2  0  0  0
 71142  1  0  0  0
 72 74  2  0  0  0
 72143  1  0  0  0
 73 77  1  0  0  0
 73 82  1  0  0  0
 74 79  1  0  0  0
 74 82  1  0  0  0
 75 76  1  0  0  0
 75 79  2  0  0  0
 75144  1  0  0  0
 76 78  1  0  0  0
 76 81  2  0  0  0
 77 80  1  0  0  0
 77145  1  0  0  0
 77146  1  0  0  0
 78147  1  0  0  0
 78148  1  0  0  0
 80149  1  0  0  0
M  ISO  4   1 100  68 101  78 101  80 100
M  END
> <chiral flag>
0

> <version>
0

> <s_m_source_file>
/data/baiqing/PycharmProjects/Reinvent-master-3.2/result/LINK_invent/BTK/process_docking_weight1_custom_product_contain_oxygen_bond_distance_aromatic_linkinvent_7_9_3/rearranged_h_0162.sdf

> <i_m_source_file_index>
33

> <r_mmod_Potential_Energy-OPLS-2005>
-63.0315551757812

> <r_mmod_Stretch_Energy-OPLS-2005>
63.0094375610352

> <r_mmod_Bend_Energy-OPLS-2005>
124.167907714844

> <r_mmod_Torsional_Energy-OPLS-2005>
226.231582641602

> <r_mmod_Improper_Torsional_Energy-OPLS-2005>
4.11865568161011

> <r_mmod_Van_der_Waal_Energy-OPLS-2005>
124.471809387207

> <r_mmod_Electrostatic_Energy-OPLS-2005>
-400.690948486328

> <r_mmod_Solvation_Energy-OPLS-2005>
-240.348266601562

> <b_mmod_Minimization_Converged-OPLS-2005>
0

> <r_mmod_RMS_Derivative-OPLS-2005>
2.07572603225708

$$$$
33
                    3D
 Structure written by MMmdl.
158167  0  0  1  0            999 V2000
  -30.5847  -14.7481   20.4642 C   0  0  0  0  0  0
  -30.4432  -12.4552   19.4710 C   0  0  0  0  0  0
  -29.5143  -12.5098   18.2363 C   0  0  0  0  0  0
  -28.0399  -12.3315   18.6496 C   0  0  0  0  0  0
  -27.6487  -13.2237   19.8575 C   0  0  2  0  0  0
  -28.6929  -13.1297   20.9923 C   0  0  0  0  0  0
  -25.2549  -13.8169   20.5706 C   0  0  0  0  0  0
  -24.1823  -13.0435   20.9212 C   0  0  0  0  0  0
  -24.6391  -11.6909   20.8741 C   0  0  0  0  0  0
  -23.9055  -10.4297   21.0400 C   0  0  0  0  0  0
  -24.3613   -9.4214   21.9176 C   0  0  0  0  0  0
  -23.6295   -8.2246   22.0744 C   0  0  0  0  0  0
  -22.4275   -8.0279   21.3544 C   0  0  0  0  0  0
  -21.9911   -9.0249   20.4650 C   0  0  0  0  0  0
  -22.7225  -10.2134   20.3052 C   0  0  0  0  0  0
  -21.6856   -6.0734   22.5278 C   0  0  0  0  0  0
  -21.4008   -6.5638   23.8212 C   0  0  0  0  0  0
  -21.3659   -5.6786   24.9172 C   0  0  0  0  0  0
  -21.6044   -4.3052   24.7225 C   0  0  0  0  0  0
  -21.8819   -3.8146   23.4348 C   0  0  0  0  0  0
  -21.9198   -4.6962   22.3405 C   0  0  0  0  0  0
  -22.7851  -13.5234   21.1870 C   0  0  0  0  0  0
  -22.1667   -4.2150   21.0985 F   0  0  0  0  0  0
  -21.5632   -3.4534   25.7736 F   0  0  0  0  0  0
  -29.9974  -13.5004   20.4235 N   0  0  0  0  0  0
  -26.2974  -12.9360   20.3294 N   0  0  0  0  0  0
  -25.9319  -11.6510   20.5739 N   0  0  0  0  0  0
  -22.0485  -12.8229   22.0425 N   0  0  0  0  0  0
  -25.4253  -15.1889   20.4122 N   0  0  0  0  0  0
  -31.7518  -14.8858   20.0810 O   0  0  0  0  0  0
  -21.6638   -6.8877   21.4243 O   0  0  0  0  0  0
  -22.3542  -14.5545   20.6710 O   0  0  0  0  0  0
  -24.6310  -31.8555   23.1972 C   0  0  0  0  0  0
  -25.9124  -32.4765   23.8333 C   0  0  1  0  0  0
  -27.2299  -27.2655   20.1146 C   0  0  0  0  0  0
  -25.5915  -33.8565   24.2264 N   0  0  0  0  0  0
  -23.4291  -30.4760   21.5409 C   0  0  2  0  0  0
  -24.8789  -28.9232   20.1066 C   0  0  0  0  0  0
  -22.7510  -29.4600   22.4913 C   0  0  0  0  0  0
  -18.0298  -28.1410   22.8507 C   0  0  0  0  0  0
  -24.1466  -36.7262   23.2633 C   0  0  0  0  0  0
  -25.9739  -30.7673   21.3773 C   0  0  0  0  0  0
  -26.0497  -29.3900   20.7173 C   0  0  0  0  0  0
  -27.2249  -28.5706   20.7160 C   0  0  0  0  0  0
  -26.0308  -26.8633   19.4837 C   0  0  0  0  0  0
  -24.8743  -27.6673   19.4807 C   0  0  0  0  0  0
  -23.6478  -29.8084   20.1571 C   0  0  0  0  0  0
  -25.4097  -36.3077   24.0331 C   0  0  1  0  0  0
  -20.5900  -28.3718   23.1281 C   0  0  2  0  0  0
  -20.6769  -26.9434   22.5421 C   0  0  0  0  0  0
  -19.5742  -26.6406   21.5223 C   0  0  0  0  0  0
  -18.1930  -26.7960   22.1638 C   0  0  0  0  0  0
  -19.1555  -28.8880   23.2885 C   0  0  0  0  0  0
  -18.9471  -30.1483   23.8910 C   0  0  0  0  0  0
  -17.6472  -30.6617   24.0573 C   0  0  0  0  0  0
  -25.9051  -34.9446   23.5104 C   0  0  0  0  0  0
  -16.5360  -29.9117   23.6338 C   0  0  0  0  0  0
  -16.7287  -28.6520   23.0381 C   0  0  0  0  0  0
  -26.4493  -31.6592   25.0720 C   0  0  0  0  0  0
  -25.3708  -31.3766   26.1445 C   0  0  0  0  0  0
  -27.0312  -30.3003   24.6197 C   0  0  0  0  0  0
  -27.6077  -32.4310   25.7481 C   0  0  0  0  0  0
  -27.5590  -37.1759   24.8451 C   0  0  0  0  0  0
  -21.4212  -29.3055   22.3662 N   0  0  0  0  0  0
  -26.4268  -37.3791   23.9447 N   0  0  0  0  0  0
  -24.6966  -31.0505   22.0950 N   0  0  0  0  0  0
  -23.4202  -28.8144   23.3017 O   0  0  0  0  0  0
  -28.2957  -26.3393   20.2230 O   0  0  0  0  0  0
  -26.5639  -34.8918   22.4687 O   0  0  0  0  0  0
  -23.5453  -32.1378   23.7263 O   0  0  0  0  0  0
  -30.2923  -19.2119   19.2491 C   0  0  0  0  0  0
  -29.0290  -18.1761   21.3448 C   0  0  0  0  0  0
  -29.4813  -20.1034   20.0362 C   0  0  0  0  0  0
  -29.8147  -17.2793   20.5413 C   0  0  0  0  0  0
  -28.6860  -23.9206   19.3157 C   0  0  0  0  0  0
  -28.4565  -25.2987   19.2768 C   0  0  0  0  0  0
  -28.8718  -23.1969   18.0004 C   0  0  0  0  0  0
  -29.6178  -21.8941   18.3057 C   0  0  0  0  0  0
  -28.8412  -22.7699   20.3941 C   0  0  0  0  0  0
  -27.4956  -22.5756   21.1084 C   0  0  0  0  0  0
  -29.9337  -23.1512   21.4038 C   0  0  0  0  0  0
  -28.8720  -19.5333   21.1166 N   0  0  0  0  0  0
  -30.4613  -17.8638   19.4892 N   0  0  0  0  0  0
  -29.2445  -21.5013   19.6600 N   0  0  0  0  0  0
  -29.7920  -15.8223   20.8383 N   0  0  0  0  0  0
  -31.4817  -12.5942   19.1636 H   0  0  0  0  0  0
  -30.4002  -11.4716   19.9410 H   0  0  0  0  0  0
  -29.7961  -11.7390   17.5177 H   0  0  0  0  0  0
  -29.6381  -13.4639   17.7222 H   0  0  0  0  0  0
  -27.8967  -11.2817   18.9072 H   0  0  0  0  0  0
  -27.3817  -12.5288   17.8020 H   0  0  0  0  0  0
  -27.6525  -14.2500   19.4897 H   0  0  0  0  0  0
  -28.7316  -12.1168   21.3952 H   0  0  0  0  0  0
  -28.4213  -13.7752   21.8285 H   0  0  0  0  0  0
  -25.2757   -9.5694   22.4745 H   0  0  0  0  0  0
  -24.0015   -7.4634   22.7452 H   0  0  0  0  0  0
  -21.0844   -8.8758   19.8955 H   0  0  0  0  0  0
  -22.3670  -10.9669   19.6164 H   0  0  0  0  0  0
  -21.1984   -7.6138   23.9708 H   0  0  0  0  0  0
  -21.1484   -6.0517   25.9072 H   0  0  0  0  0  0
  -22.0598   -2.7611   23.2841 H   0  0  0  0  0  0
  -22.4095  -11.9895   22.4820 H   0  0  0  0  0  0
  -21.1098  -13.1251   22.2617 H   0  0  0  0  0  0
  -24.6526  -15.8379   20.5155 H   0  0  0  0  0  0
  -26.2583  -15.6240   20.0381 H   0  0  0  0  0  0
  -26.7188  -32.5426   23.1073 H   0  0  0  0  0  0
  -25.0031  -33.9704   25.0390 H   0  0  0  0  0  0
  -22.7262  -31.2985   21.3935 H   0  0  0  0  0  0
  -23.3770  -35.9547   23.3253 H   0  0  0  0  0  0
  -24.3568  -36.8935   22.2058 H   0  0  0  0  0  0
  -23.7143  -37.6418   23.6679 H   0  0  0  0  0  0
  -26.1091  -31.5264   20.6059 H   0  0  0  0  0  0
  -26.8510  -30.8224   22.0095 H   0  0  0  0  0  0
  -28.1166  -28.9148   21.2206 H   0  0  0  0  0  0
  -25.9599  -25.8870   19.0255 H   0  0  0  0  0  0
  -23.9737  -27.3024   19.0064 H   0  0  0  0  0  0
  -23.7712  -30.5819   19.3986 H   0  0  0  0  0  0
  -22.7667  -29.2396   19.8547 H   0  0  0  0  0  0
  -25.1259  -36.1928   25.0818 H   0  0  0  0  0  0
  -21.0012  -28.3297   24.1393 H   0  0  0  0  0  0
  -20.5652  -26.2337   23.3630 H   0  0  0  0  0  0
  -21.6636  -26.7446   22.1222 H   0  0  0  0  0  0
  -19.6879  -25.6309   21.1270 H   0  0  0  0  0  0
  -19.6667  -27.3199   20.6734 H   0  0  0  0  0  0
  -17.4193  -26.6745   21.4041 H   0  0  0  0  0  0
  -18.0311  -26.0105   22.9032 H   0  0  0  0  0  0
  -19.7943  -30.7297   24.2297 H   0  0  0  0  0  0
  -17.5026  -31.6299   24.5170 H   0  0  0  0  0  0
  -15.5362  -30.3022   23.7640 H   0  0  0  0  0  0
  -15.8691  -28.0820   22.7122 H   0  0  0  0  0  0
  -24.5876  -30.7119   25.7781 H   0  0  0  0  0  0
  -24.8890  -32.2941   26.4833 H   0  0  0  0  0  0
  -25.8013  -30.8972   27.0245 H   0  0  0  0  0  0
  -26.2871  -29.6784   24.1203 H   0  0  0  0  0  0
  -27.3970  -29.7249   25.4712 H   0  0  0  0  0  0
  -27.8774  -30.4272   23.9440 H   0  0  0  0  0  0
  -27.2731  -33.3640   26.2027 H   0  0  0  0  0  0
  -28.3898  -32.6825   25.0302 H   0  0  0  0  0  0
  -28.0723  -31.8435   26.5410 H   0  0  0  0  0  0
  -28.2549  -38.0122   24.7640 H   0  0  0  0  0  0
  -28.1150  -36.2670   24.6098 H   0  0  0  0  0  0
  -27.2344  -37.1201   25.8856 H   0  0  0  0  0  0
  -20.9409  -29.8798   21.6880 H   0  0  0  0  0  0
  -26.0152  -38.2845   24.1549 H   0  0  0  0  0  0
  -30.8168  -19.5728   18.3773 H   0  0  0  0  0  0
  -28.4833  -17.7912   22.1943 H   0  0  0  0  0  0
  -28.4144  -25.7496   18.2946 H   0  0  0  0  0  0
  -29.3885  -23.8042   17.2560 H   0  0  0  0  0  0
  -27.8798  -22.9655   17.6096 H   0  0  0  0  0  0
  -30.6968  -22.0567   18.2699 H   0  0  0  0  0  0
  -29.3667  -21.1340   17.5639 H   0  0  0  0  0  0
  -27.1730  -23.4976   21.5935 H   0  0  0  0  0  0
  -27.5466  -21.8056   21.8779 H   0  0  0  0  0  0
  -26.7122  -22.2908   20.4051 H   0  0  0  0  0  0
  -29.6845  -24.0735   21.9299 H   0  0  0  0  0  0
  -30.8954  -23.3046   20.9128 H   0  0  0  0  0  0
  -30.0705  -22.3734   22.1561 H   0  0  0  0  0  0
  -28.9575  -15.5271   21.3208 H   0  0  0  0  0  0
  1 25  1  0  0  0
  1 30  2  0  0  0
  1 85  1  0  0  0
  2  3  1  0  0  0
  2 25  1  0  0  0
  2 86  1  0  0  0
  2 87  1  0  0  0
  3  4  1  0  0  0
  3 88  1  0  0  0
  3 89  1  0  0  0
  4  5  1  0  0  0
  4 90  1  0  0  0
  4 91  1  0  0  0
  5  6  1  0  0  0
  5 26  1  0  0  0
  5 92  1  0  0  0
  6 25  1  0  0  0
  6 93  1  0  0  0
  6 94  1  0  0  0
  7  8  2  0  0  0
  7 26  1  0  0  0
  7 29  1  0  0  0
  8  9  1  0  0  0
  8 22  1  0  0  0
  9 10  1  0  0  0
  9 27  2  0  0  0
 10 11  2  0  0  0
 10 15  1  0  0  0
 11 12  1  0  0  0
 11 95  1  0  0  0
 12 13  2  0  0  0
 12 96  1  0  0  0
 13 14  1  0  0  0
 13 31  1  0  0  0
 14 15  2  0  0  0
 14 97  1  0  0  0
 15 98  1  0  0  0
 16 17  2  0  0  0
 16 21  1  0  0  0
 16 31  1  0  0  0
 17 18  1  0  0  0
 17 99  1  0  0  0
 18 19  2  0  0  0
 18100  1  0  0  0
 19 20  1  0  0  0
 19 24  1  0  0  0
 20 21  2  0  0  0
 20101  1  0  0  0
 21 23  1  0  0  0
 22 28  1  0  0  0
 22 32  2  0  0  0
 26 27  1  0  0  0
 28102  1  0  0  0
 28103  1  0  0  0
 29104  1  0  0  0
 29105  1  0  0  0
 33 34  1  0  0  0
 33 66  1  0  0  0
 33 70  2  0  0  0
 34 36  1  0  0  0
 34 59  1  0  0  0
 34106  1  0  0  0
 35 44  2  0  0  0
 35 45  1  0  0  0
 35 68  1  0  0  0
 36 56  1  0  0  0
 36107  1  0  0  0
 37 39  1  0  0  0
 37 47  1  0  0  0
 37 66  1  0  0  0
 37108  1  0  0  0
 38 43  2  0  0  0
 38 46  1  0  0  0
 38 47  1  0  0  0
 39 64  1  0  0  0
 39 67  2  0  0  0
 40 52  1  0  0  0
 40 53  2  0  0  0
 40 58  1  0  0  0
 41109  1  0  0  0
 41110  1  0  0  0
 41111  1  0  0  0
 41 48  1  0  0  0
 42 43  1  0  0  0
 42 66  1  0  0  0
 42112  1  0  0  0
 42113  1  0  0  0
 43 44  1  0  0  0
 44114  1  0  0  0
 45 46  2  0  0  0
 45115  1  0  0  0
 46116  1  0  0  0
 47117  1  0  0  0
 47118  1  0  0  0
 48 56  1  0  0  0
 48 65  1  0  0  0
 48119  1  0  0  0
 49 50  1  0  0  0
 49 53  1  0  0  0
 49 64  1  0  0  0
 49120  1  0  0  0
 50 51  1  0  0  0
 50121  1  0  0  0
 50122  1  0  0  0
 51 52  1  0  0  0
 51123  1  0  0  0
 51124  1  0  0  0
 52125  1  0  0  0
 52126  1  0  0  0
 53 54  1  0  0  0
 54 55  2  0  0  0
 54127  1  0  0  0
 55 57  1  0  0  0
 55128  1  0  0  0
 56 69  2  0  0  0
 57 58  2  0  0  0
 57129  1  0  0  0
 58130  1  0  0  0
 59 60  1  0  0  0
 59 61  1  0  0  0
 59 62  1  0  0  0
 60131  1  0  0  0
 60132  1  0  0  0
 60133  1  0  0  0
 61134  1  0  0  0
 61135  1  0  0  0
 61136  1  0  0  0
 62137  1  0  0  0
 62138  1  0  0  0
 62139  1  0  0  0
 63 65  1  0  0  0
 63140  1  0  0  0
 63141  1  0  0  0
 63142  1  0  0  0
 64143  1  0  0  0
 65144  1  0  0  0
 68 76  1  0  0  0
 71 73  2  0  0  0
 71 83  1  0  0  0
 71145  1  0  0  0
 72 74  1  0  0  0
 72 82  2  0  0  0
 72146  1  0  0  0
 73 82  1  0  0  0
 73 84  1  0  0  0
 74 83  2  0  0  0
 74 85  1  0  0  0
 75 76  2  0  0  0
 75 77  1  0  0  0
 75 79  1  0  0  0
 76147  1  0  0  0
 77 78  1  0  0  0
 77148  1  0  0  0
 77149  1  0  0  0
 78 84  1  0  0  0
 78150  1  0  0  0
 78151  1  0  0  0
 79 80  1  0  0  0
 79 81  1  0  0  0
 79 84  1  0  0  0
 80152  1  0  0  0
 80153  1  0  0  0
 80154  1  0  0  0
 81155  1  0  0  0
 81156  1  0  0  0
 81157  1  0  0  0
 85158  1  0  0  0
M  ISO  4   1 100  68 101  76 101  85 100
M  END
> <chiral flag>
0

> <version>
0

> <s_m_source_file>
/data/baiqing/PycharmProjects/Reinvent-master-3.2/result/LINK_invent/BTK/process_docking_weight1_custom_product_contain_oxygen_bond_distance_aromatic_linkinvent_7_9_3/rearranged_h_0162.sdf

> <i_m_source_file_index>
34

> <r_mmod_Potential_Energy-OPLS-2005>
249.219223022461

> <r_mmod_Stretch_Energy-OPLS-2005>
116.551834106445

> <r_mmod_Bend_Energy-OPLS-2005>
253.933364868164

> <r_mmod_Torsional_Energy-OPLS-2005>
239.272094726562

> <r_mmod_Improper_Torsional_Energy-OPLS-2005>
4.1888222694397

> <r_mmod_Van_der_Waal_Energy-OPLS-2005>
138.830062866211

> <r_mmod_Electrostatic_Energy-OPLS-2005>
-358.961853027344

> <r_mmod_Solvation_Energy-OPLS-2005>
-233.244186401367

> <b_mmod_Minimization_Converged-OPLS-2005>
0

> <r_mmod_RMS_Derivative-OPLS-2005>
1.79550909996033

$$$$
34
                    3D
 Structure written by MMmdl.
172180  0  0  1  0            999 V2000
  -30.6656  -14.5938   20.4610 C   0  0  0  0  0  0
  -30.4193  -12.3475   19.4446 C   0  0  0  0  0  0
  -29.4901  -12.4372   18.2176 C   0  0  0  0  0  0
  -28.0177  -12.2851   18.6444 C   0  0  0  0  0  0
  -27.6407  -13.1841   19.8490 C   0  0  2  0  0  0
  -28.6903  -13.0914   20.9732 C   0  0  0  0  0  0
  -25.2588  -13.8083   20.5721 C   0  0  0  0  0  0
  -24.1838  -13.0396   20.9239 C   0  0  0  0  0  0
  -24.6386  -11.6844   20.8855 C   0  0  0  0  0  0
  -23.9042  -10.4263   21.0515 C   0  0  0  0  0  0
  -24.3595   -9.4161   21.9271 C   0  0  0  0  0  0
  -23.6263   -8.2219   22.0816 C   0  0  0  0  0  0
  -22.4243   -8.0275   21.3591 C   0  0  0  0  0  0
  -21.9898   -9.0281   20.4727 C   0  0  0  0  0  0
  -22.7242  -10.2138   20.3137 C   0  0  0  0  0  0
  -21.6845   -6.0776   22.5314 C   0  0  0  0  0  0
  -21.4019   -6.5689   23.8247 C   0  0  0  0  0  0
  -21.3604   -5.6827   24.9190 C   0  0  0  0  0  0
  -21.6009   -4.3106   24.7244 C   0  0  0  0  0  0
  -21.8827   -3.8201   23.4371 C   0  0  0  0  0  0
  -21.9204   -4.7008   22.3432 C   0  0  0  0  0  0
  -22.7864  -13.5260   21.1782 C   0  0  0  0  0  0
  -22.1695   -4.2209   21.0999 F   0  0  0  0  0  0
  -21.5559   -3.4583   25.7765 F   0  0  0  0  0  0
  -30.0058  -13.3973   20.3948 N   0  0  0  0  0  0
  -26.2949  -12.9198   20.3350 N   0  0  0  0  0  0
  -25.9298  -11.6377   20.5901 N   0  0  0  0  0  0
  -22.0388  -12.8429   22.0347 N   0  0  0  0  0  0
  -25.4254  -15.1820   20.4123 N   0  0  0  0  0  0
  -31.8633  -14.6841   20.1774 O   0  0  0  0  0  0
  -21.6596   -6.8899   21.4276 O   0  0  0  0  0  0
  -22.3656  -14.5544   20.6490 O   0  0  0  0  0  0
  -24.6165  -31.8666   23.2039 C   0  0  0  0  0  0
  -25.9040  -32.4830   23.8364 C   0  0  1  0  0  0
  -27.2528  -27.3970   20.1293 C   0  0  0  0  0  0
  -25.5884  -33.8624   24.2296 N   0  0  0  0  0  0
  -23.4094  -30.4806   21.5468 C   0  0  2  0  0  0
  -24.8634  -28.9321   20.1248 C   0  0  0  0  0  0
  -22.7440  -29.4625   22.5003 C   0  0  0  0  0  0
  -18.0272  -28.1334   22.8509 C   0  0  0  0  0  0
  -24.1489  -36.7297   23.2637 C   0  0  0  0  0  0
  -25.9396  -30.8195   21.3629 C   0  0  0  0  0  0
  -26.0233  -29.4480   20.7182 C   0  0  0  0  0  0
  -27.2223  -28.6902   20.7109 C   0  0  0  0  0  0
  -26.0740  -26.8995   19.5360 C   0  0  0  0  0  0
  -24.8847  -27.6572   19.5283 C   0  0  0  0  0  0
  -23.6219  -29.7982   20.1670 C   0  0  0  0  0  0
  -25.4114  -36.3110   24.0336 C   0  0  1  0  0  0
  -20.5870  -28.3624   23.1318 C   0  0  2  0  0  0
  -20.6738  -26.9360   22.5407 C   0  0  0  0  0  0
  -19.5704  -26.6361   21.5205 C   0  0  0  0  0  0
  -18.1896  -26.7893   22.1625 C   0  0  0  0  0  0
  -19.1527  -28.8799   23.2907 C   0  0  0  0  0  0
  -18.9449  -30.1417   23.8911 C   0  0  0  0  0  0
  -17.6449  -30.6559   24.0548 C   0  0  0  0  0  0
  -25.9039  -34.9482   23.5121 C   0  0  0  0  0  0
  -16.5342  -29.9047   23.6325 C   0  0  0  0  0  0
  -16.7267  -28.6442   23.0389 C   0  0  0  0  0  0
  -26.4456  -31.6624   25.0720 C   0  0  0  0  0  0
  -25.3714  -31.3729   26.1463 C   0  0  0  0  0  0
  -27.0274  -30.3065   24.6106 C   0  0  0  0  0  0
  -27.6046  -32.4349   25.7451 C   0  0  0  0  0  0
  -27.5592  -37.1787   24.8472 C   0  0  0  0  0  0
  -21.4157  -29.3007   22.3742 N   0  0  0  0  0  0
  -26.4305  -37.3797   23.9422 N   0  0  0  0  0  0
  -24.6735  -31.0716   22.0958 N   0  0  0  0  0  0
  -23.4191  -28.8213   23.3093 O   0  0  0  0  0  0
  -28.4083  -26.6344   20.0933 O   0  0  0  0  0  0
  -26.5630  -34.8939   22.4702 O   0  0  0  0  0  0
  -23.5348  -32.1435   23.7410 O   0  0  0  0  0  0
  -30.0600  -19.1890   23.0280 C   0  0  0  0  0  0
  -30.1982  -18.1821   20.8328 C   0  0  0  0  0  0
  -29.8473  -16.7355   22.7744 C   0  0  0  0  0  0
  -30.2338  -19.3512   21.6446 C   0  0  0  0  0  0
  -29.8955  -17.9052   23.5885 C   0  0  0  0  0  0
  -29.9963  -16.8556   21.3560 C   0  0  0  0  0  0
  -29.5399  -22.9936   21.0771 C   0  0  0  0  0  0
  -28.8289  -24.1403   20.2451 C   0  0  0  0  0  0
  -30.8393  -17.8758   25.8307 C   0  0  0  0  0  0
  -29.6217  -15.3939   23.4754 C   0  0  0  0  0  0
  -30.1636  -14.9104   27.9313 C   0  0  0  0  0  0
  -29.4779  -16.0963   19.0615 C   0  0  0  0  0  0
  -29.4570  -21.5051   20.6079 C   0  0  0  0  0  0
  -28.4424  -25.4686   20.9632 C   0  0  0  0  0  0
  -30.6555  -17.3212   27.2438 C   0  0  0  0  0  0
  -31.2121  -15.8870   27.3820 C   0  0  0  0  0  0
  -29.7891  -17.7897   24.9974 N   0  0  0  0  0  0
  -30.5398  -20.6381   21.1329 N   0  0  0  0  0  0
  -29.8820  -15.7237   20.4300 N   0  0  0  0  0  0
  -30.2136  -23.2684   22.0816 O   0  0  0  0  0  0
  -28.6009  -23.9930   19.0370 O   0  0  0  0  0  0
  -31.9214  -18.3717   25.5093 O   0  0  0  0  0  0
  -31.4596  -12.4516   19.1322 H   0  0  0  0  0  0
  -30.3337  -11.3655   19.9112 H   0  0  0  0  0  0
  -29.7430  -11.6555   17.5009 H   0  0  0  0  0  0
  -29.6441  -13.3732   17.6852 H   0  0  0  0  0  0
  -27.8729  -11.2377   18.9120 H   0  0  0  0  0  0
  -27.3476  -12.4685   17.8048 H   0  0  0  0  0  0
  -27.6210  -14.2022   19.4803 H   0  0  0  0  0  0
  -28.7032  -12.0953   21.4194 H   0  0  0  0  0  0
  -28.4232  -13.7807   21.7675 H   0  0  0  0  0  0
  -25.2719   -9.5678   22.4868 H   0  0  0  0  0  0
  -23.9954   -7.4614   22.7551 H   0  0  0  0  0  0
  -21.0790   -8.8825   19.9084 H   0  0  0  0  0  0
  -22.3687  -10.9693   19.6264 H   0  0  0  0  0  0
  -21.2062   -7.6200   23.9804 H   0  0  0  0  0  0
  -21.1342   -6.0534   25.9085 H   0  0  0  0  0  0
  -22.0639   -2.7681   23.2832 H   0  0  0  0  0  0
  -22.3882  -12.0170   22.4981 H   0  0  0  0  0  0
  -21.1010  -13.1599   22.2315 H   0  0  0  0  0  0
  -24.6462  -15.8153   20.5337 H   0  0  0  0  0  0
  -26.2779  -15.6597   20.1494 H   0  0  0  0  0  0
  -26.7123  -32.5539   23.1136 H   0  0  0  0  0  0
  -24.9991  -33.9775   25.0412 H   0  0  0  0  0  0
  -22.6987  -31.2964   21.3989 H   0  0  0  0  0  0
  -23.3771  -35.9609   23.3306 H   0  0  0  0  0  0
  -24.3577  -36.8911   22.2051 H   0  0  0  0  0  0
  -23.7211  -37.6486   23.6652 H   0  0  0  0  0  0
  -26.0565  -31.5811   20.5908 H   0  0  0  0  0  0
  -26.8234  -30.8781   21.9858 H   0  0  0  0  0  0
  -28.1184  -29.0891   21.1644 H   0  0  0  0  0  0
  -26.0828  -25.9165   19.0864 H   0  0  0  0  0  0
  -23.9933  -27.2456   19.0747 H   0  0  0  0  0  0
  -23.7239  -30.5649   19.3980 H   0  0  0  0  0  0
  -22.7475  -29.2094   19.8804 H   0  0  0  0  0  0
  -25.1289  -36.1966   25.0827 H   0  0  0  0  0  0
  -20.9964  -28.3161   24.1437 H   0  0  0  0  0  0
  -20.5595  -26.2241   23.3589 H   0  0  0  0  0  0
  -21.6609  -26.7361   22.1222 H   0  0  0  0  0  0
  -19.6855  -25.6280   21.1203 H   0  0  0  0  0  0
  -19.6630  -27.3194   20.6749 H   0  0  0  0  0  0
  -17.4170  -26.6690   21.4026 H   0  0  0  0  0  0
  -18.0285  -26.0008   22.8982 H   0  0  0  0  0  0
  -19.7928  -30.7230   24.2292 H   0  0  0  0  0  0
  -17.4997  -31.6251   24.5111 H   0  0  0  0  0  0
  -15.5339  -30.2934   23.7630 H   0  0  0  0  0  0
  -15.8673  -28.0731   22.7137 H   0  0  0  0  0  0
  -24.5849  -30.7140   25.7763 H   0  0  0  0  0  0
  -24.8955  -32.2892   26.4970 H   0  0  0  0  0  0
  -25.8048  -30.8815   27.0187 H   0  0  0  0  0  0
  -26.2803  -29.6830   24.1188 H   0  0  0  0  0  0
  -27.4057  -29.7298   25.4557 H   0  0  0  0  0  0
  -27.8640  -30.4371   23.9241 H   0  0  0  0  0  0
  -27.2679  -33.3631   26.2069 H   0  0  0  0  0  0
  -28.3802  -32.6951   25.0242 H   0  0  0  0  0  0
  -28.0784  -31.8472   26.5317 H   0  0  0  0  0  0
  -28.2614  -38.0078   24.7550 H   0  0  0  0  0  0
  -28.1081  -36.2625   24.6266 H   0  0  0  0  0  0
  -27.2320  -37.1403   25.8871 H   0  0  0  0  0  0
  -20.9333  -29.8723   21.6952 H   0  0  0  0  0  0
  -26.0201  -38.2880   24.1417 H   0  0  0  0  0  0
  -30.0943  -20.0495   23.6829 H   0  0  0  0  0  0
  -30.3604  -18.3335   19.7769 H   0  0  0  0  0  0
  -30.1306  -14.5632   23.0041 H   0  0  0  0  0  0
  -28.5529  -15.1785   23.5484 H   0  0  0  0  0  0
  -30.0275  -15.3920   24.4843 H   0  0  0  0  0  0
  -30.5376  -13.8860   27.9161 H   0  0  0  0  0  0
  -29.2453  -14.9437   27.3417 H   0  0  0  0  0  0
  -29.9033  -15.1483   28.9639 H   0  0  0  0  0  0
  -29.1175  -15.2624   18.4702 H   0  0  0  0  0  0
  -30.3196  -16.5108   18.5049 H   0  0  0  0  0  0
  -28.6715  -16.8336   19.0713 H   0  0  0  0  0  0
  -29.4790  -21.4896   19.5177 H   0  0  0  0  0  0
  -28.4825  -21.1172   20.9040 H   0  0  0  0  0  0
  -29.1670  -25.6577   21.7556 H   0  0  0  0  0  0
  -27.4742  -25.3266   21.4465 H   0  0  0  0  0  0
  -29.5974  -17.3479   27.5080 H   0  0  0  0  0  0
  -31.1592  -17.9848   27.9488 H   0  0  0  0  0  0
  -31.5710  -15.5098   26.4228 H   0  0  0  0  0  0
  -32.0859  -15.8924   28.0347 H   0  0  0  0  0  0
  -28.9737  -17.3057   25.3521 H   0  0  0  0  0  0
  -31.0839  -21.2014   21.7886 H   0  0  0  0  0  0
  1 25  1  0  0  0
  1 30  2  0  0  0
  1 89  1  0  0  0
  2  3  1  0  0  0
  2 25  1  0  0  0
  2 93  1  0  0  0
  2 94  1  0  0  0
  3  4  1  0  0  0
  3 95  1  0  0  0
  3 96  1  0  0  0
  4  5  1  0  0  0
  4 97  1  0  0  0
  4 98  1  0  0  0
  5  6  1  0  0  0
  5 26  1  0  0  0
  5 99  1  0  0  0
  6 25  1  0  0  0
  6100  1  0  0  0
  6101  1  0  0  0
  7  8  2  0  0  0
  7 26  1  0  0  0
  7 29  1  0  0  0
  8  9  1  0  0  0
  8 22  1  0  0  0
  9 10  1  0  0  0
  9 27  2  0  0  0
 10 11  2  0  0  0
 10 15  1  0  0  0
 11 12  1  0  0  0
 11102  1  0  0  0
 12 13  2  0  0  0
 12103  1  0  0  0
 13 14  1  0  0  0
 13 31  1  0  0  0
 14 15  2  0  0  0
 14104  1  0  0  0
 15105  1  0  0  0
 16 17  2  0  0  0
 16 21  1  0  0  0
 16 31  1  0  0  0
 17 18  1  0  0  0
 17106  1  0  0  0
 18 19  2  0  0  0
 18107  1  0  0  0
 19 20  1  0  0  0
 19 24  1  0  0  0
 20 21  2  0  0  0
 20108  1  0  0  0
 21 23  1  0  0  0
 22 28  1  0  0  0
 22 32  2  0  0  0
 26 27  1  0  0  0
 28109  1  0  0  0
 28110  1  0  0  0
 29111  1  0  0  0
 29112  1  0  0  0
 33 34  1  0  0  0
 33 66  1  0  0  0
 33 70  2  0  0  0
 34 36  1  0  0  0
 34 59  1  0  0  0
 34113  1  0  0  0
 35 44  2  0  0  0
 35 45  1  0  0  0
 35 68  1  0  0  0
 36 56  1  0  0  0
 36114  1  0  0  0
 37 39  1  0  0  0
 37 47  1  0  0  0
 37 66  1  0  0  0
 37115  1  0  0  0
 38 43  2  0  0  0
 38 46  1  0  0  0
 38 47  1  0  0  0
 39 64  1  0  0  0
 39 67  2  0  0  0
 40 52  1  0  0  0
 40 53  2  0  0  0
 40 58  1  0  0  0
 41116  1  0  0  0
 41117  1  0  0  0
 41118  1  0  0  0
 41 48  1  0  0  0
 42 43  1  0  0  0
 42 66  1  0  0  0
 42119  1  0  0  0
 42120  1  0  0  0
 43 44  1  0  0  0
 44121  1  0  0  0
 45 46  2  0  0  0
 45122  1  0  0  0
 46123  1  0  0  0
 47124  1  0  0  0
 47125  1  0  0  0
 48 56  1  0  0  0
 48 65  1  0  0  0
 48126  1  0  0  0
 49 50  1  0  0  0
 49 53  1  0  0  0
 49 64  1  0  0  0
 49127  1  0  0  0
 50 51  1  0  0  0
 50128  1  0  0  0
 50129  1  0  0  0
 51 52  1  0  0  0
 51130  1  0  0  0
 51131  1  0  0  0
 52132  1  0  0  0
 52133  1  0  0  0
 53 54  1  0  0  0
 54 55  2  0  0  0
 54134  1  0  0  0
 55 57  1  0  0  0
 55135  1  0  0  0
 56 69  2  0  0  0
 57 58  2  0  0  0
 57136  1  0  0  0
 58137  1  0  0  0
 59 60  1  0  0  0
 59 61  1  0  0  0
 59 62  1  0  0  0
 60138  1  0  0  0
 60139  1  0  0  0
 60140  1  0  0  0
 61141  1  0  0  0
 61142  1  0  0  0
 61143  1  0  0  0
 62144  1  0  0  0
 62145  1  0  0  0
 62146  1  0  0  0
 63 65  1  0  0  0
 63147  1  0  0  0
 63148  1  0  0  0
 63149  1  0  0  0
 64150  1  0  0  0
 65151  1  0  0  0
 68 84  1  0  0  0
 71 74  2  0  0  0
 71 75  1  0  0  0
 71152  1  0  0  0
 72 74  1  0  0  0
 72 76  2  0  0  0
 72153  1  0  0  0
 73 75  2  0  0  0
 73 76  1  0  0  0
 73 80  1  0  0  0
 74 88  1  0  0  0
 75 87  1  0  0  0
 76 89  1  0  0  0
 77 78  1  0  0  0
 77 83  1  0  0  0
 77 90  2  0  0  0
 78 84  1  0  0  0
 78 91  2  0  0  0
 79 85  1  0  0  0
 79 87  1  0  0  0
 79 92  2  0  0  0
 80154  1  0  0  0
 80155  1  0  0  0
 80156  1  0  0  0
 81 86  1  0  0  0
 81157  1  0  0  0
 81158  1  0  0  0
 81159  1  0  0  0
 82 89  1  0  0  0
 82160  1  0  0  0
 82161  1  0  0  0
 82162  1  0  0  0
 83 88  1  0  0  0
 83163  1  0  0  0
 83164  1  0  0  0
 84165  1  0  0  0
 84166  1  0  0  0
 85 86  1  0  0  0
 85167  1  0  0  0
 85168  1  0  0  0
 86169  1  0  0  0
 86170  1  0  0  0
 87171  1  0  0  0
 88172  1  0  0  0
M  ISO  4   1 100  68 101  84 101  89 100
M  END
> <chiral flag>
0

> <version>
0

> <s_m_source_file>
/data/baiqing/PycharmProjects/Reinvent-master-3.2/result/LINK_invent/BTK/process_docking_weight1_custom_product_contain_oxygen_bond_distance_aromatic_linkinvent_7_9_3/rearranged_h_0162.sdf

> <i_m_source_file_index>
35

> <r_mmod_Potential_Energy-OPLS-2005>
337.725982666016

> <r_mmod_Stretch_Energy-OPLS-2005>
65.8225402832031

> <r_mmod_Bend_Energy-OPLS-2005>
123.157341003418

> <r_mmod_Torsional_Energy-OPLS-2005>
392.010009765625

> <r_mmod_Improper_Torsional_Energy-OPLS-2005>
21.3878574371338

> <r_mmod_Van_der_Waal_Energy-OPLS-2005>
157.401916503906

> <r_mmod_Electrostatic_Energy-OPLS-2005>
-199.207244873047

> <r_mmod_Solvation_Energy-OPLS-2005>
-256.568725585938

> <b_mmod_Minimization_Converged-OPLS-2005>
0

> <r_mmod_RMS_Derivative-OPLS-2005>
5.39911365509033

$$$$
35
                    3D
 Structure written by MMmdl.
164173  0  0  1  0            999 V2000
  -30.6419  -14.6843   20.4804 C   0  0  0  0  0  0
  -30.4277  -12.4231   19.4562 C   0  0  0  0  0  0
  -29.5008  -12.4901   18.2244 C   0  0  0  0  0  0
  -28.0292  -12.3173   18.6462 C   0  0  0  0  0  0
  -27.6402  -13.2219   19.8454 C   0  0  2  0  0  0
  -28.6868  -13.1512   20.9785 C   0  0  0  0  0  0
  -25.2519  -13.8179   20.5688 C   0  0  0  0  0  0
  -24.1798  -13.0438   20.9193 C   0  0  0  0  0  0
  -24.6371  -11.6911   20.8737 C   0  0  0  0  0  0
  -23.9051  -10.4291   21.0405 C   0  0  0  0  0  0
  -24.3605   -9.4210   21.9178 C   0  0  0  0  0  0
  -23.6280   -8.2242   22.0742 C   0  0  0  0  0  0
  -22.4259   -8.0281   21.3540 C   0  0  0  0  0  0
  -21.9880   -9.0260   20.4646 C   0  0  0  0  0  0
  -22.7212  -10.2137   20.3062 C   0  0  0  0  0  0
  -21.6861   -6.0722   22.5273 C   0  0  0  0  0  0
  -21.4023   -6.5627   23.8204 C   0  0  0  0  0  0
  -21.3661   -5.6780   24.9171 C   0  0  0  0  0  0
  -21.6042   -4.3044   24.7226 C   0  0  0  0  0  0
  -21.8821   -3.8139   23.4349 C   0  0  0  0  0  0
  -21.9192   -4.6946   22.3400 C   0  0  0  0  0  0
  -22.7828  -13.5242   21.1864 C   0  0  0  0  0  0
  -22.1665   -4.2129   21.0979 F   0  0  0  0  0  0
  -21.5623   -3.4533   25.7743 F   0  0  0  0  0  0
  -29.9898  -13.4824   20.3880 N   0  0  0  0  0  0
  -26.2925  -12.9362   20.3259 N   0  0  0  0  0  0
  -25.9293  -11.6516   20.5734 N   0  0  0  0  0  0
  -22.0471  -12.8249   22.0430 N   0  0  0  0  0  0
  -25.4222  -15.1902   20.4113 N   0  0  0  0  0  0
  -31.8371  -14.7652   20.1836 O   0  0  0  0  0  0
  -21.6642   -6.8868   21.4232 O   0  0  0  0  0  0
  -22.3522  -14.5552   20.6711 O   0  0  0  0  0  0
  -24.6289  -31.8567   23.2009 C   0  0  0  0  0  0
  -25.9128  -32.4763   23.8328 C   0  0  1  0  0  0
  -27.2251  -27.2978   20.0976 C   0  0  0  0  0  0
  -25.5931  -33.8563   24.2263 N   0  0  0  0  0  0
  -23.4222  -30.4823   21.5441 C   0  0  2  0  0  0
  -24.8669  -28.9361   20.1069 C   0  0  0  0  0  0
  -22.7477  -29.4612   22.4914 C   0  0  0  0  0  0
  -18.0289  -28.1388   22.8474 C   0  0  0  0  0  0
  -24.1495  -36.7298   23.2637 C   0  0  0  0  0  0
  -25.9666  -30.7803   21.3742 C   0  0  0  0  0  0
  -26.0384  -29.4068   20.7121 C   0  0  0  0  0  0
  -27.2159  -28.5969   20.7034 C   0  0  0  0  0  0
  -26.0149  -26.8726   19.5013 C   0  0  0  0  0  0
  -24.8581  -27.6739   19.4961 C   0  0  0  0  0  0
  -23.6361  -29.8196   20.1583 C   0  0  0  0  0  0
  -25.4115  -36.3075   24.0328 C   0  0  1  0  0  0
  -20.5887  -28.3690   23.1274 C   0  0  2  0  0  0
  -20.6772  -26.9402   22.5426 C   0  0  0  0  0  0
  -19.5766  -26.6377   21.5211 C   0  0  0  0  0  0
  -18.1934  -26.7936   22.1601 C   0  0  0  0  0  0
  -19.1539  -28.8855   23.2875 C   0  0  0  0  0  0
  -18.9459  -30.1450   23.8900 C   0  0  0  0  0  0
  -17.6461  -30.6580   24.0565 C   0  0  0  0  0  0
  -25.9049  -34.9443   23.5096 C   0  0  0  0  0  0
  -16.5354  -29.9079   23.6331 C   0  0  0  0  0  0
  -16.7275  -28.6500   23.0345 C   0  0  0  0  0  0
  -26.4509  -31.6588   25.0708 C   0  0  0  0  0  0
  -25.3759  -31.3779   26.1466 C   0  0  0  0  0  0
  -27.0316  -30.2984   24.6199 C   0  0  0  0  0  0
  -27.6095  -32.4317   25.7439 C   0  0  0  0  0  0
  -27.5592  -37.1781   24.8451 C   0  0  0  0  0  0
  -21.4187  -29.3035   22.3660 N   0  0  0  0  0  0
  -26.4292  -37.3769   23.9410 N   0  0  0  0  0  0
  -24.6917  -31.0562   22.0966 N   0  0  0  0  0  0
  -23.4192  -28.8149   23.2999 O   0  0  0  0  0  0
  -28.3446  -26.4423   20.1599 O   0  0  0  0  0  0
  -26.5616  -34.8916   22.4662 O   0  0  0  0  0  0
  -23.5448  -32.1374   23.7333 O   0  0  0  0  0  0
  -31.3781  -17.2020   21.9766 C   0  0  0  0  0  0
  -30.1937  -19.5743   21.2321 C   0  0  0  0  0  0
  -30.3193  -17.1719   21.0344 C   0  0  0  0  0  0
  -31.2692  -19.4890   22.1696 C   0  0  0  0  0  0
  -28.2072  -21.3609   20.4561 C   0  0  0  0  0  0
  -30.6128  -21.8766   19.9411 C   0  0  0  0  0  0
  -27.8859  -22.9241   20.3799 C   0  0  0  0  0  0
  -30.2868  -23.4148   19.9429 C   0  0  0  0  0  0
  -29.6797  -21.0436   20.8628 C   0  0  2  0  0  0
  -28.8450  -23.7617   19.4638 C   0  0  2  0  0  0
  -29.4273  -23.4655   17.0734 C   0  0  0  0  0  0
  -28.5383  -25.3402   19.1876 C   0  0  0  0  0  0
  -31.8478  -18.3331   22.5335 N   0  0  0  0  0  0
  -29.7368  -18.3893   20.6555 N   0  0  0  0  0  0
  -31.8441  -20.5925   22.7881 N   0  0  0  0  0  0
  -29.8828  -15.8280   20.6384 N   0  0  0  0  0  0
  -28.6297  -23.1012   18.2028 O   0  0  0  0  0  0
  -31.4683  -12.5400   19.1489 H   0  0  0  0  0  0
  -30.3656  -11.4459   19.9369 H   0  0  0  0  0  0
  -29.7712  -11.7195   17.5008 H   0  0  0  0  0  0
  -29.6284  -13.4463   17.7162 H   0  0  0  0  0  0
  -27.8890  -11.2701   18.9158 H   0  0  0  0  0  0
  -27.3687  -12.5039   17.7987 H   0  0  0  0  0  0
  -27.6362  -14.2405   19.4588 H   0  0  0  0  0  0
  -28.7123  -12.1569   21.4262 H   0  0  0  0  0  0
  -28.4310  -13.8435   21.7830 H   0  0  0  0  0  0
  -25.2741   -9.5687   22.4769 H   0  0  0  0  0  0
  -23.9985   -7.4634   22.7465 H   0  0  0  0  0  0
  -21.0797   -8.8790   19.8968 H   0  0  0  0  0  0
  -22.3655  -10.9687   19.6196 H   0  0  0  0  0  0
  -21.2027   -7.6132   23.9705 H   0  0  0  0  0  0
  -21.1480   -6.0514   25.9069 H   0  0  0  0  0  0
  -22.0597   -2.7598   23.2866 H   0  0  0  0  0  0
  -22.4077  -11.9918   22.4844 H   0  0  0  0  0  0
  -21.1111  -13.1316   22.2669 H   0  0  0  0  0  0
  -24.6558  -15.8436   20.5300 H   0  0  0  0  0  0
  -26.2637  -15.6324   20.0643 H   0  0  0  0  0  0
  -26.7190  -32.5419   23.1064 H   0  0  0  0  0  0
  -25.0078  -33.9699   25.0409 H   0  0  0  0  0  0
  -22.7168  -31.3037   21.4014 H   0  0  0  0  0  0
  -23.3744  -35.9643   23.3302 H   0  0  0  0  0  0
  -24.3593  -36.8917   22.2051 H   0  0  0  0  0  0
  -23.7271  -37.6511   23.6659 H   0  0  0  0  0  0
  -26.1019  -31.5453   20.6082 H   0  0  0  0  0  0
  -26.8460  -30.8254   22.0051 H   0  0  0  0  0  0
  -28.1132  -28.9546   21.1881 H   0  0  0  0  0  0
  -25.9097  -25.8877   19.0735 H   0  0  0  0  0  0
  -23.9532  -27.2977   19.0382 H   0  0  0  0  0  0
  -23.7522  -30.5971   19.4020 H   0  0  0  0  0  0
  -22.7546  -29.2502   19.8579 H   0  0  0  0  0  0
  -25.1297  -36.1921   25.0820 H   0  0  0  0  0  0
  -20.9982  -28.3286   24.1393 H   0  0  0  0  0  0
  -20.5636  -26.2303   23.3633 H   0  0  0  0  0  0
  -21.6651  -26.7406   22.1253 H   0  0  0  0  0  0
  -19.6925  -25.6286   21.1247 H   0  0  0  0  0  0
  -19.6725  -27.3180   20.6738 H   0  0  0  0  0  0
  -17.4214  -26.6689   21.3993 H   0  0  0  0  0  0
  -18.0312  -26.0073   22.8986 H   0  0  0  0  0  0
  -19.7937  -30.7262   24.2274 H   0  0  0  0  0  0
  -17.5015  -31.6262   24.5161 H   0  0  0  0  0  0
  -15.5355  -30.2978   23.7654 H   0  0  0  0  0  0
  -15.8674  -28.0820   22.7062 H   0  0  0  0  0  0
  -24.5933  -30.7097   25.7855 H   0  0  0  0  0  0
  -24.8948  -32.2965   26.4833 H   0  0  0  0  0  0
  -25.8106  -30.9032   27.0272 H   0  0  0  0  0  0
  -26.2869  -29.6732   24.1258 H   0  0  0  0  0  0
  -27.4005  -29.7256   25.4718 H   0  0  0  0  0  0
  -27.8757  -30.4216   23.9411 H   0  0  0  0  0  0
  -27.2728  -33.3607   26.2051 H   0  0  0  0  0  0
  -28.3861  -32.6903   25.0229 H   0  0  0  0  0  0
  -28.0818  -31.8430   26.5314 H   0  0  0  0  0  0
  -28.2622  -38.0064   24.7484 H   0  0  0  0  0  0
  -28.1073  -36.2602   24.6272 H   0  0  0  0  0  0
  -27.2324  -37.1443   25.8858 H   0  0  0  0  0  0
  -20.9355  -29.8759   21.6880 H   0  0  0  0  0  0
  -26.0180  -38.2840   24.1428 H   0  0  0  0  0  0
  -31.8450  -16.2975   22.3392 H   0  0  0  0  0  0
  -27.9944  -20.8947   19.4934 H   0  0  0  0  0  0
  -27.5276  -20.8943   21.1698 H   0  0  0  0  0  0
  -31.6455  -21.7538   20.2642 H   0  0  0  0  0  0
  -30.5767  -21.4744   18.9290 H   0  0  0  0  0  0
  -27.9154  -23.3428   21.3867 H   0  0  0  0  0  0
  -26.8580  -23.0577   20.0412 H   0  0  0  0  0  0
  -31.0248  -23.9406   19.3376 H   0  0  0  0  0  0
  -30.4245  -23.8077   20.9512 H   0  0  0  0  0  0
  -29.7254  -21.5445   21.8293 H   0  0  0  0  0  0
  -29.1744  -22.8086   16.2408 H   0  0  0  0  0  0
  -30.4962  -23.3500   17.2500 H   0  0  0  0  0  0
  -29.2383  -24.4847   16.7373 H   0  0  0  0  0  0
  -27.7708  -25.3794   18.4197 H   0  0  0  0  0  0
  -29.4124  -25.7024   18.6459 H   0  0  0  0  0  0
  -31.6555  -21.5205   22.4288 H   0  0  0  0  0  0
  -32.7460  -20.4897   23.2366 H   0  0  0  0  0  0
  -28.8870  -15.7014   20.5690 H   0  0  0  0  0  0
  1 25  1  0  0  0
  1 30  2  0  0  0
  1 86  1  0  0  0
  2  3  1  0  0  0
  2 25  1  0  0  0
  2 88  1  0  0  0
  2 89  1  0  0  0
  3  4  1  0  0  0
  3 90  1  0  0  0
  3 91  1  0  0  0
  4  5  1  0  0  0
  4 92  1  0  0  0
  4 93  1  0  0  0
  5  6  1  0  0  0
  5 26  1  0  0  0
  5 94  1  0  0  0
  6 25  1  0  0  0
  6 95  1  0  0  0
  6 96  1  0  0  0
  7  8  2  0  0  0
  7 26  1  0  0  0
  7 29  1  0  0  0
  8  9  1  0  0  0
  8 22  1  0  0  0
  9 10  1  0  0  0
  9 27  2  0  0  0
 10 11  2  0  0  0
 10 15  1  0  0  0
 11 12  1  0  0  0
 11 97  1  0  0  0
 12 13  2  0  0  0
 12 98  1  0  0  0
 13 14  1  0  0  0
 13 31  1  0  0  0
 14 15  2  0  0  0
 14 99  1  0  0  0
 15100  1  0  0  0
 16 17  2  0  0  0
 16 21  1  0  0  0
 16 31  1  0  0  0
 17 18  1  0  0  0
 17101  1  0  0  0
 18 19  2  0  0  0
 18102  1  0  0  0
 19 20  1  0  0  0
 19 24  1  0  0  0
 20 21  2  0  0  0
 20103  1  0  0  0
 21 23  1  0  0  0
 22 28  1  0  0  0
 22 32  2  0  0  0
 26 27  1  0  0  0
 28104  1  0  0  0
 28105  1  0  0  0
 29106  1  0  0  0
 29107  1  0  0  0
 33 34  1  0  0  0
 33 66  1  0  0  0
 33 70  2  0  0  0
 34 36  1  0  0  0
 34 59  1  0  0  0
 34108  1  0  0  0
 35 44  2  0  0  0
 35 45  1  0  0  0
 35 68  1  0  0  0
 36 56  1  0  0  0
 36109  1  0  0  0
 37 39  1  0  0  0
 37 47  1  0  0  0
 37 66  1  0  0  0
 37110  1  0  0  0
 38 43  2  0  0  0
 38 46  1  0  0  0
 38 47  1  0  0  0
 39 64  1  0  0  0
 39 67  2  0  0  0
 40 52  1  0  0  0
 40 53  2  0  0  0
 40 58  1  0  0  0
 41111  1  0  0  0
 41112  1  0  0  0
 41113  1  0  0  0
 41 48  1  0  0  0
 42 43  1  0  0  0
 42 66  1  0  0  0
 42114  1  0  0  0
 42115  1  0  0  0
 43 44  1  0  0  0
 44116  1  0  0  0
 45 46  2  0  0  0
 45117  1  0  0  0
 46118  1  0  0  0
 47119  1  0  0  0
 47120  1  0  0  0
 48 56  1  0  0  0
 48 65  1  0  0  0
 48121  1  0  0  0
 49 50  1  0  0  0
 49 53  1  0  0  0
 49 64  1  0  0  0
 49122  1  0  0  0
 50 51  1  0  0  0
 50123  1  0  0  0
 50124  1  0  0  0
 51 52  1  0  0  0
 51125  1  0  0  0
 51126  1  0  0  0
 52127  1  0  0  0
 52128  1  0  0  0
 53 54  1  0  0  0
 54 55  2  0  0  0
 54129  1  0  0  0
 55 57  1  0  0  0
 55130  1  0  0  0
 56 69  2  0  0  0
 57 58  2  0  0  0
 57131  1  0  0  0
 58132  1  0  0  0
 59 60  1  0  0  0
 59 61  1  0  0  0
 59 62  1  0  0  0
 60133  1  0  0  0
 60134  1  0  0  0
 60135  1  0  0  0
 61136  1  0  0  0
 61137  1  0  0  0
 61138  1  0  0  0
 62139  1  0  0  0
 62140  1  0  0  0
 62141  1  0  0  0
 63 65  1  0  0  0
 63142  1  0  0  0
 63143  1  0  0  0
 63144  1  0  0  0
 64145  1  0  0  0
 65146  1  0  0  0
 68 82  1  0  0  0
 71 73  2  0  0  0
 71 83  1  0  0  0
 71147  1  0  0  0
 72 74  1  0  0  0
 72 84  2  0  0  0
 72 79  1  0  0  0
 73 84  1  0  0  0
 73 86  1  0  0  0
 74 83  2  0  0  0
 74 85  1  0  0  0
 75 77  1  0  0  0
 75 79  1  0  0  0
 75148  1  0  0  0
 75149  1  0  0  0
 76 78  1  0  0  0
 76 79  1  0  0  0
 76150  1  0  0  0
 76151  1  0  0  0
 77 80  1  0  0  0
 77152  1  0  0  0
 77153  1  0  0  0
 78 80  1  0  0  0
 78154  1  0  0  0
 78155  1  0  0  0
 79156  1  0  0  0
 80 82  1  0  0  0
 80 87  1  0  0  0
 81 87  1  0  0  0
 81157  1  0  0  0
 81158  1  0  0  0
 81159  1  0  0  0
 82160  1  0  0  0
 82161  1  0  0  0
 85162  1  0  0  0
 85163  1  0  0  0
 86164  1  0  0  0
M  ISO  4   1 100  68 101  82 101  86 100
M  END
> <chiral flag>
0

> <version>
0

> <s_m_source_file>
/data/baiqing/PycharmProjects/Reinvent-master-3.2/result/LINK_invent/BTK/process_docking_weight1_custom_product_contain_oxygen_bond_distance_aromatic_linkinvent_7_9_3/rearranged_h_0162.sdf

> <i_m_source_file_index>
36

> <r_mmod_Potential_Energy-OPLS-2005>
151.483154296875

> <r_mmod_Stretch_Energy-OPLS-2005>
109.524482727051

> <r_mmod_Bend_Energy-OPLS-2005>
213.137176513672

> <r_mmod_Torsional_Energy-OPLS-2005>
255.170654296875

> <r_mmod_Improper_Torsional_Energy-OPLS-2005>
9.13773727416992

> <r_mmod_Van_der_Waal_Energy-OPLS-2005>
163.621734619141

> <r_mmod_Electrostatic_Energy-OPLS-2005>
-438.116821289062

> <r_mmod_Solvation_Energy-OPLS-2005>
-225.876251220703

> <b_mmod_Minimization_Converged-OPLS-2005>
0

> <r_mmod_RMS_Derivative-OPLS-2005>
1.65442490577698

$$$$
36
                    3D
 Structure written by MMmdl.
153161  0  0  1  0            999 V2000
  -30.5949  -14.7166   20.4840 C   0  0  0  0  0  0
  -30.4431  -12.4375   19.4699 C   0  0  0  0  0  0
  -29.5134  -12.5104   18.2368 C   0  0  0  0  0  0
  -28.0378  -12.3394   18.6472 C   0  0  0  0  0  0
  -27.6510  -13.2229   19.8625 C   0  0  2  0  0  0
  -28.6948  -13.1103   20.9965 C   0  0  0  0  0  0
  -25.2552  -13.8182   20.5697 C   0  0  0  0  0  0
  -24.1824  -13.0437   20.9194 C   0  0  0  0  0  0
  -24.6399  -11.6907   20.8743 C   0  0  0  0  0  0
  -23.9072  -10.4287   21.0403 C   0  0  0  0  0  0
  -24.3621   -9.4202   21.9182 C   0  0  0  0  0  0
  -23.6289   -8.2243   22.0760 C   0  0  0  0  0  0
  -22.4273   -8.0280   21.3545 C   0  0  0  0  0  0
  -21.9908   -9.0256   20.4651 C   0  0  0  0  0  0
  -22.7242  -10.2132   20.3053 C   0  0  0  0  0  0
  -21.6850   -6.0733   22.5270 C   0  0  0  0  0  0
  -21.4015   -6.5637   23.8206 C   0  0  0  0  0  0
  -21.3658   -5.6791   24.9168 C   0  0  0  0  0  0
  -21.6042   -4.3054   24.7216 C   0  0  0  0  0  0
  -21.8822   -3.8142   23.4341 C   0  0  0  0  0  0
  -21.9193   -4.6961   22.3395 C   0  0  0  0  0  0
  -22.7846  -13.5227   21.1850 C   0  0  0  0  0  0
  -22.1660   -4.2146   21.0972 F   0  0  0  0  0  0
  -21.5631   -3.4539   25.7731 F   0  0  0  0  0  0
  -30.0033  -13.4735   20.4328 N   0  0  0  0  0  0
  -26.2980  -12.9371   20.3321 N   0  0  0  0  0  0
  -25.9330  -11.6519   20.5763 N   0  0  0  0  0  0
  -22.0489  -12.8220   22.0411 N   0  0  0  0  0  0
  -25.4262  -15.1910   20.4121 N   0  0  0  0  0  0
  -31.7554  -14.8645   20.0855 O   0  0  0  0  0  0
  -21.6638   -6.8875   21.4233 O   0  0  0  0  0  0
  -22.3529  -14.5524   20.6692 O   0  0  0  0  0  0
  -24.6297  -31.8560   23.1999 C   0  0  0  0  0  0
  -25.9127  -32.4760   23.8341 C   0  0  1  0  0  0
  -27.2131  -27.2672   20.1267 C   0  0  0  0  0  0
  -25.5928  -33.8562   24.2255 N   0  0  0  0  0  0
  -23.4261  -30.4807   21.5420 C   0  0  2  0  0  0
  -24.8715  -28.9332   20.1054 C   0  0  0  0  0  0
  -22.7494  -29.4608   22.4899 C   0  0  0  0  0  0
  -18.0298  -28.1395   22.8495 C   0  0  0  0  0  0
  -24.1485  -36.7277   23.2643 C   0  0  0  0  0  0
  -25.9720  -30.7675   21.3837 C   0  0  0  0  0  0
  -26.0408  -29.3925   20.7239 C   0  0  0  0  0  0
  -27.2107  -28.5700   20.7289 C   0  0  0  0  0  0
  -26.0281  -26.8880   19.4545 C   0  0  0  0  0  0
  -24.8707  -27.6888   19.4600 C   0  0  0  0  0  0
  -23.6423  -29.8182   20.1564 C   0  0  0  0  0  0
  -25.4109  -36.3074   24.0331 C   0  0  1  0  0  0
  -20.5902  -28.3698   23.1272 C   0  0  2  0  0  0
  -20.6784  -26.9415   22.5412 C   0  0  0  0  0  0
  -19.5756  -26.6381   21.5228 C   0  0  0  0  0  0
  -18.1934  -26.7943   22.1628 C   0  0  0  0  0  0
  -19.1552  -28.8864   23.2884 C   0  0  0  0  0  0
  -18.9473  -30.1465   23.8898 C   0  0  0  0  0  0
  -17.6473  -30.6597   24.0566 C   0  0  0  0  0  0
  -25.9054  -34.9446   23.5100 C   0  0  0  0  0  0
  -16.5362  -29.9093   23.6332 C   0  0  0  0  0  0
  -16.7282  -28.6508   23.0363 C   0  0  0  0  0  0
  -26.4495  -31.6594   25.0733 C   0  0  0  0  0  0
  -25.3710  -31.3758   26.1451 C   0  0  0  0  0  0
  -27.0358  -30.3015   24.6232 C   0  0  0  0  0  0
  -27.6041  -32.4345   25.7501 C   0  0  0  0  0  0
  -27.5575  -37.1793   24.8467 C   0  0  0  0  0  0
  -21.4202  -29.3053   22.3654 N   0  0  0  0  0  0
  -26.4283  -37.3773   23.9411 N   0  0  0  0  0  0
  -24.6946  -31.0534   22.0973 N   0  0  0  0  0  0
  -23.4206  -28.8146   23.2988 O   0  0  0  0  0  0
  -28.3097  -26.3791   20.2188 O   0  0  0  0  0  0
  -26.5626  -34.8925   22.4672 O   0  0  0  0  0  0
  -23.5446  -32.1384   23.7286 O   0  0  0  0  0  0
  -30.2953  -19.2709   19.6197 C   0  0  0  0  0  0
  -29.4814  -19.8320   20.5964 C   0  0  0  0  0  0
  -29.8515  -17.2380   20.6601 C   0  0  0  0  0  0
  -29.0765  -22.3044   20.0969 C   0  0  0  0  0  0
  -30.3963  -24.2875   20.9352 C   0  0  0  0  0  0
  -28.2724  -23.6736   22.1257 C   0  0  0  0  0  0
  -28.1642  -24.9148   19.8972 C   0  0  0  0  0  0
  -28.9545  -23.7805   20.7439 C   0  0  0  0  0  0
  -30.4970  -17.8577   19.6572 N   0  0  0  0  0  0
  -29.1657  -21.1716   20.8864 N   0  0  0  0  0  0
  -29.8040  -15.7754   20.8869 N   0  0  0  0  0  0
  -29.0874  -22.2077   18.8695 O   0  0  0  0  0  0
  -30.9080  -19.9994   18.7152 F   0  0  0  0  0  0
  -28.9350  -18.4634   21.6115 S   0  0  0  0  0  0
  -31.4815  -12.5734   19.1634 H   0  0  0  0  0  0
  -30.3978  -11.4494   19.9302 H   0  0  0  0  0  0
  -29.7902  -11.7437   17.5122 H   0  0  0  0  0  0
  -29.6449  -13.4693   17.7324 H   0  0  0  0  0  0
  -27.8851  -11.2879   18.8931 H   0  0  0  0  0  0
  -27.3819  -12.5512   17.8020 H   0  0  0  0  0  0
  -27.6592  -14.2531   19.5050 H   0  0  0  0  0  0
  -28.7247  -12.0942   21.3924 H   0  0  0  0  0  0
  -28.4266  -13.7498   21.8386 H   0  0  0  0  0  0
  -25.2769   -9.5676   22.4751 H   0  0  0  0  0  0
  -23.9992   -7.4637   22.7485 H   0  0  0  0  0  0
  -21.0836   -8.8771   19.8960 H   0  0  0  0  0  0
  -22.3698  -10.9668   19.6158 H   0  0  0  0  0  0
  -21.2006   -7.6146   23.9702 H   0  0  0  0  0  0
  -21.1479   -6.0525   25.9069 H   0  0  0  0  0  0
  -22.0604   -2.7604   23.2837 H   0  0  0  0  0  0
  -22.4099  -11.9874   22.4788 H   0  0  0  0  0  0
  -21.1115  -13.1259   22.2628 H   0  0  0  0  0  0
  -24.6589  -15.8448   20.5249 H   0  0  0  0  0  0
  -26.2667  -15.6278   20.0564 H   0  0  0  0  0  0
  -26.7187  -32.5407   23.1077 H   0  0  0  0  0  0
  -25.0098  -33.9710   25.0416 H   0  0  0  0  0  0
  -22.7236  -31.3037   21.3978 H   0  0  0  0  0  0
  -23.3764  -35.9595   23.3306 H   0  0  0  0  0  0
  -24.3573  -36.8895   22.2058 H   0  0  0  0  0  0
  -23.7222  -37.6471   23.6663 H   0  0  0  0  0  0
  -26.1176  -31.5284   20.6160 H   0  0  0  0  0  0
  -26.8486  -30.8112   22.0188 H   0  0  0  0  0  0
  -28.1008  -28.9127   21.2375 H   0  0  0  0  0  0
  -25.9571  -25.9552   18.9184 H   0  0  0  0  0  0
  -23.9800  -27.3389   18.9565 H   0  0  0  0  0  0
  -23.7638  -30.5961   19.4020 H   0  0  0  0  0  0
  -22.7609  -29.2509   19.8511 H   0  0  0  0  0  0
  -25.1295  -36.1914   25.0821 H   0  0  0  0  0  0
  -20.9998  -28.3280   24.1388 H   0  0  0  0  0  0
  -20.5697  -26.2313   23.3620 H   0  0  0  0  0  0
  -21.6647  -26.7448   22.1188 H   0  0  0  0  0  0
  -19.6918  -25.6291   21.1260 H   0  0  0  0  0  0
  -19.6690  -27.3186   20.6755 H   0  0  0  0  0  0
  -17.4203  -26.6706   21.4021 H   0  0  0  0  0  0
  -18.0312  -26.0088   22.9020 H   0  0  0  0  0  0
  -19.7953  -30.7286   24.2250 H   0  0  0  0  0  0
  -17.5033  -31.6277   24.5171 H   0  0  0  0  0  0
  -15.5365  -30.3006   23.7670 H   0  0  0  0  0  0
  -15.8678  -28.0831   22.7081 H   0  0  0  0  0  0
  -24.5883  -30.7108   25.7785 H   0  0  0  0  0  0
  -24.8905  -32.2941   26.4838 H   0  0  0  0  0  0
  -25.8021  -30.8961   27.0250 H   0  0  0  0  0  0
  -26.2958  -29.6753   24.1241 H   0  0  0  0  0  0
  -27.4042  -29.7274   25.4744 H   0  0  0  0  0  0
  -27.8830  -30.4306   23.9495 H   0  0  0  0  0  0
  -27.2639  -33.3656   26.2044 H   0  0  0  0  0  0
  -28.3871  -32.6887   25.0345 H   0  0  0  0  0  0
  -28.0696  -31.8498   26.5446 H   0  0  0  0  0  0
  -28.2596  -38.0090   24.7524 H   0  0  0  0  0  0
  -28.1081  -36.2626   24.6290 H   0  0  0  0  0  0
  -27.2303  -37.1427   25.8875 H   0  0  0  0  0  0
  -20.9373  -29.8779   21.6871 H   0  0  0  0  0  0
  -26.0173  -38.2851   24.1421 H   0  0  0  0  0  0
  -31.0051  -23.5767   21.4957 H   0  0  0  0  0  0
  -30.4126  -25.2300   21.4841 H   0  0  0  0  0  0
  -30.8851  -24.4587   19.9749 H   0  0  0  0  0  0
  -28.8411  -23.0592   22.8235 H   0  0  0  0  0  0
  -27.2714  -23.2470   22.0442 H   0  0  0  0  0  0
  -28.1639  -24.6561   22.5856 H   0  0  0  0  0  0
  -27.1207  -24.6157   19.9703 H   0  0  0  0  0  0
  -28.4219  -24.8115   18.8422 H   0  0  0  0  0  0
  -28.9883  -21.3563   21.8636 H   0  0  0  0  0  0
  -28.9696  -15.4712   21.3632 H   0  0  0  0  0  0
  1 25  1  0  0  0
  1 30  2  0  0  0
  1 81  1  0  0  0
  2  3  1  0  0  0
  2 25  1  0  0  0
  2 85  1  0  0  0
  2 86  1  0  0  0
  3  4  1  0  0  0
  3 87  1  0  0  0
  3 88  1  0  0  0
  4  5  1  0  0  0
  4 89  1  0  0  0
  4 90  1  0  0  0
  5  6  1  0  0  0
  5 26  1  0  0  0
  5 91  1  0  0  0
  6 25  1  0  0  0
  6 92  1  0  0  0
  6 93  1  0  0  0
  7  8  2  0  0  0
  7 26  1  0  0  0
  7 29  1  0  0  0
  8  9  1  0  0  0
  8 22  1  0  0  0
  9 10  1  0  0  0
  9 27  2  0  0  0
 10 11  2  0  0  0
 10 15  1  0  0  0
 11 12  1  0  0  0
 11 94  1  0  0  0
 12 13  2  0  0  0
 12 95  1  0  0  0
 13 14  1  0  0  0
 13 31  1  0  0  0
 14 15  2  0  0  0
 14 96  1  0  0  0
 15 97  1  0  0  0
 16 17  2  0  0  0
 16 21  1  0  0  0
 16 31  1  0  0  0
 17 18  1  0  0  0
 17 98  1  0  0  0
 18 19  2  0  0  0
 18 99  1  0  0  0
 19 20  1  0  0  0
 19 24  1  0  0  0
 20 21  2  0  0  0
 20100  1  0  0  0
 21 23  1  0  0  0
 22 28  1  0  0  0
 22 32  2  0  0  0
 26 27  1  0  0  0
 28101  1  0  0  0
 28102  1  0  0  0
 29103  1  0  0  0
 29104  1  0  0  0
 33 34  1  0  0  0
 33 66  1  0  0  0
 33 70  2  0  0  0
 34 36  1  0  0  0
 34 59  1  0  0  0
 34105  1  0  0  0
 35 44  2  0  0  0
 35 45  1  0  0  0
 35 68  1  0  0  0
 36 56  1  0  0  0
 36106  1  0  0  0
 37 39  1  0  0  0
 37 47  1  0  0  0
 37 66  1  0  0  0
 37107  1  0  0  0
 38 43  2  0  0  0
 38 46  1  0  0  0
 38 47  1  0  0  0
 39 64  1  0  0  0
 39 67  2  0  0  0
 40 52  1  0  0  0
 40 53  2  0  0  0
 40 58  1  0  0  0
 41108  1  0  0  0
 41109  1  0  0  0
 41110  1  0  0  0
 41 48  1  0  0  0
 42 43  1  0  0  0
 42 66  1  0  0  0
 42111  1  0  0  0
 42112  1  0  0  0
 43 44  1  0  0  0
 44113  1  0  0  0
 45 46  2  0  0  0
 45114  1  0  0  0
 46115  1  0  0  0
 47116  1  0  0  0
 47117  1  0  0  0
 48 56  1  0  0  0
 48 65  1  0  0  0
 48118  1  0  0  0
 49 50  1  0  0  0
 49 53  1  0  0  0
 49 64  1  0  0  0
 49119  1  0  0  0
 50 51  1  0  0  0
 50120  1  0  0  0
 50121  1  0  0  0
 51 52  1  0  0  0
 51122  1  0  0  0
 51123  1  0  0  0
 52124  1  0  0  0
 52125  1  0  0  0
 53 54  1  0  0  0
 54 55  2  0  0  0
 54126  1  0  0  0
 55 57  1  0  0  0
 55127  1  0  0  0
 56 69  2  0  0  0
 57 58  2  0  0  0
 57128  1  0  0  0
 58129  1  0  0  0
 59 60  1  0  0  0
 59 61  1  0  0  0
 59 62  1  0  0  0
 60130  1  0  0  0
 60131  1  0  0  0
 60132  1  0  0  0
 61133  1  0  0  0
 61134  1  0  0  0
 61135  1  0  0  0
 62136  1  0  0  0
 62137  1  0  0  0
 62138  1  0  0  0
 63 65  1  0  0  0
 63139  1  0  0  0
 63140  1  0  0  0
 63141  1  0  0  0
 64142  1  0  0  0
 65143  1  0  0  0
 68 77  1  0  0  0
 71 72  2  0  0  0
 71 79  1  0  0  0
 71 83  1  0  0  0
 72 80  1  0  0  0
 72 84  1  0  0  0
 73 79  2  0  0  0
 73 81  1  0  0  0
 73 84  1  0  0  0
 74 78  1  0  0  0
 74 80  1  0  0  0
 74 82  2  0  0  0
 75144  1  0  0  0
 75145  1  0  0  0
 75146  1  0  0  0
 75 78  1  0  0  0
 76 78  1  0  0  0
 76147  1  0  0  0
 76148  1  0  0  0
 76149  1  0  0  0
 77 78  1  0  0  0
 77150  1  0  0  0
 77151  1  0  0  0
 80152  1  0  0  0
 81153  1  0  0  0
M  ISO  4   1 100  68 101  77 101  81 100
M  END
> <chiral flag>
0

> <version>
0

> <s_m_source_file>
/data/baiqing/PycharmProjects/Reinvent-master-3.2/result/LINK_invent/BTK/process_docking_weight1_custom_product_contain_oxygen_bond_distance_aromatic_linkinvent_7_9_3/rearranged_h_0162.sdf

> <i_m_source_file_index>
37

> <r_mmod_Potential_Energy-OPLS-2005>
51.2226829528809

> <r_mmod_Stretch_Energy-OPLS-2005>
108.57625579834

> <r_mmod_Bend_Energy-OPLS-2005>
168.105270385742

> <r_mmod_Torsional_Energy-OPLS-2005>
245.283218383789

> <r_mmod_Improper_Torsional_Energy-OPLS-2005>
3.4321391582489

> <r_mmod_Van_der_Waal_Energy-OPLS-2005>
123.481460571289

> <r_mmod_Electrostatic_Energy-OPLS-2005>
-428.752685546875

> <r_mmod_Solvation_Energy-OPLS-2005>
-246.082092285156

> <b_mmod_Minimization_Converged-OPLS-2005>
0

> <r_mmod_RMS_Derivative-OPLS-2005>
1.31263637542725

$$$$
37
                    3D
 Structure written by MMmdl.
155163  0  0  1  0            999 V2000
  -30.6153  -14.7580   20.4641 C   0  0  0  0  0  0
  -30.4305  -12.4687   19.4708 C   0  0  0  0  0  0
  -29.5062  -12.5034   18.2348 C   0  0  0  0  0  0
  -28.0345  -12.3230   18.6536 C   0  0  0  0  0  0
  -27.6382  -13.2327   19.8468 C   0  0  2  0  0  0
  -28.6831  -13.1836   20.9817 C   0  0  0  0  0  0
  -25.2502  -13.8200   20.5688 C   0  0  0  0  0  0
  -24.1798  -13.0444   20.9204 C   0  0  0  0  0  0
  -24.6399  -11.6923   20.8763 C   0  0  0  0  0  0
  -23.9082  -10.4296   21.0421 C   0  0  0  0  0  0
  -24.3630   -9.4205   21.9193 C   0  0  0  0  0  0
  -23.6297   -8.2244   22.0764 C   0  0  0  0  0  0
  -22.4278   -8.0289   21.3548 C   0  0  0  0  0  0
  -21.9920   -9.0267   20.4654 C   0  0  0  0  0  0
  -22.7256  -10.2144   20.3064 C   0  0  0  0  0  0
  -21.6852   -6.0744   22.5278 C   0  0  0  0  0  0
  -21.4018   -6.5649   23.8214 C   0  0  0  0  0  0
  -21.3653   -5.6797   24.9172 C   0  0  0  0  0  0
  -21.6042   -4.3061   24.7221 C   0  0  0  0  0  0
  -21.8818   -3.8154   23.4342 C   0  0  0  0  0  0
  -21.9195   -4.6972   22.3399 C   0  0  0  0  0  0
  -22.7820  -13.5224   21.1860 C   0  0  0  0  0  0
  -22.1661   -4.2161   21.0973 F   0  0  0  0  0  0
  -21.5624   -3.4539   25.7731 F   0  0  0  0  0  0
  -29.9783  -13.5387   20.3908 N   0  0  0  0  0  0
  -26.2923  -12.9410   20.3275 N   0  0  0  0  0  0
  -25.9328  -11.6555   20.5769 N   0  0  0  0  0  0
  -22.0476  -12.8215   22.0421 N   0  0  0  0  0  0
  -25.4178  -15.1926   20.4088 N   0  0  0  0  0  0
  -31.8129  -14.8315   20.1768 O   0  0  0  0  0  0
  -21.6640   -6.8888   21.4239 O   0  0  0  0  0  0
  -22.3502  -14.5525   20.6701 O   0  0  0  0  0  0
  -24.6327  -31.8540   23.1970 C   0  0  0  0  0  0
  -25.9151  -32.4747   23.8318 C   0  0  1  0  0  0
  -27.2218  -27.2539   20.1437 C   0  0  0  0  0  0
  -25.5936  -33.8549   24.2244 N   0  0  0  0  0  0
  -23.4299  -30.4741   21.5405 C   0  0  2  0  0  0
  -24.8785  -28.9137   20.1157 C   0  0  0  0  0  0
  -22.7511  -29.4577   22.4905 C   0  0  0  0  0  0
  -18.0288  -28.1372   22.8482 C   0  0  0  0  0  0
  -24.1496  -36.7279   23.2640 C   0  0  0  0  0  0
  -25.9751  -30.7665   21.3753 C   0  0  0  0  0  0
  -26.0506  -29.3852   20.7230 C   0  0  0  0  0  0
  -27.2287  -28.5697   20.7199 C   0  0  0  0  0  0
  -26.0282  -26.8432   19.5177 C   0  0  0  0  0  0
  -24.8721  -27.6501   19.5015 C   0  0  0  0  0  0
  -23.6503  -29.8044   20.1584 C   0  0  0  0  0  0
  -25.4120  -36.3060   24.0320 C   0  0  1  0  0  0
  -20.5897  -28.3689   23.1261 C   0  0  2  0  0  0
  -20.6785  -26.9403   22.5407 C   0  0  0  0  0  0
  -19.5759  -26.6366   21.5215 C   0  0  0  0  0  0
  -18.1933  -26.7913   22.1618 C   0  0  0  0  0  0
  -19.1542  -28.8846   23.2867 C   0  0  0  0  0  0
  -18.9464  -30.1446   23.8885 C   0  0  0  0  0  0
  -17.6464  -30.6579   24.0552 C   0  0  0  0  0  0
  -25.9057  -34.9434   23.5084 C   0  0  0  0  0  0
  -16.5356  -29.9073   23.6328 C   0  0  0  0  0  0
  -16.7276  -28.6492   23.0349 C   0  0  0  0  0  0
  -26.4516  -31.6573   25.0708 C   0  0  0  0  0  0
  -25.3731  -31.3734   26.1423 C   0  0  0  0  0  0
  -27.0369  -30.2990   24.6200 C   0  0  0  0  0  0
  -27.6058  -32.4330   25.7489 C   0  0  0  0  0  0
  -27.5576  -37.1797   24.8461 C   0  0  0  0  0  0
  -21.4214  -29.3034   22.3653 N   0  0  0  0  0  0
  -26.4293  -37.3758   23.9404 N   0  0  0  0  0  0
  -24.6987  -31.0499   22.0944 N   0  0  0  0  0  0
  -23.4203  -28.8125   23.3019 O   0  0  0  0  0  0
  -28.3193  -26.3639   20.1240 O   0  0  0  0  0  0
  -26.5634  -34.8914   22.4652 O   0  0  0  0  0  0
  -23.5477  -32.1357   23.7263 O   0  0  0  0  0  0
  -29.8278  -20.0135   21.1576 C   0  0  0  0  0  0
  -29.6390  -18.7169   20.5117 C   0  0  0  0  0  0
  -28.7306  -19.0452   19.5230 C   0  0  0  0  0  0
  -29.0864  -21.0008   20.5192 C   0  0  0  0  0  0
  -28.0738  -18.2196   18.4678 C   0  0  0  0  0  0
  -29.0064  -25.1857   22.0689 C   0  0  0  0  0  0
  -30.4068  -17.3421   20.8371 C   0  0  0  0  0  0
  -28.6437  -23.6163   20.0245 C   0  0  0  0  0  0
  -28.2020  -25.0079   20.7713 C   0  0  2  0  0  0
  -28.9547  -22.4026   20.8903 N   0  0  0  0  0  0
  -29.8715  -15.9163   20.6707 N   0  0  0  0  0  0
  -28.4022  -20.4058   19.5043 O   0  0  0  0  0  0
  -31.4689  -12.5987   19.1623 H   0  0  0  0  0  0
  -30.3843  -11.4969   19.9645 H   0  0  0  0  0  0
  -29.7921  -11.7243   17.5269 H   0  0  0  0  0  0
  -29.6248  -13.4528   17.7108 H   0  0  0  0  0  0
  -27.8990  -11.2759   18.9275 H   0  0  0  0  0  0
  -27.3733  -12.5007   17.8046 H   0  0  0  0  0  0
  -27.6284  -14.2502   19.4559 H   0  0  0  0  0  0
  -28.7259  -12.1920   21.4348 H   0  0  0  0  0  0
  -28.4155  -13.8761   21.7817 H   0  0  0  0  0  0
  -25.2778   -9.5677   22.4769 H   0  0  0  0  0  0
  -24.0004   -7.4636   22.7486 H   0  0  0  0  0  0
  -21.0853   -8.8793   19.8959 H   0  0  0  0  0  0
  -22.3721  -10.9686   19.6177 H   0  0  0  0  0  0
  -21.2015   -7.6160   23.9720 H   0  0  0  0  0  0
  -21.1472   -6.0528   25.9076 H   0  0  0  0  0  0
  -22.0604   -2.7618   23.2834 H   0  0  0  0  0  0
  -22.4098  -11.9867   22.4788 H   0  0  0  0  0  0
  -21.1106  -13.1249   22.2659 H   0  0  0  0  0  0
  -24.6466  -15.8425   20.5167 H   0  0  0  0  0  0
  -26.2611  -15.6342   20.0673 H   0  0  0  0  0  0
  -26.7222  -32.5412   23.1063 H   0  0  0  0  0  0
  -25.0083  -33.9671   25.0391 H   0  0  0  0  0  0
  -22.7271  -31.2960   21.3920 H   0  0  0  0  0  0
  -23.3754  -35.9616   23.3294 H   0  0  0  0  0  0
  -24.3590  -36.8916   22.2058 H   0  0  0  0  0  0
  -23.7255  -37.6477   23.6677 H   0  0  0  0  0  0
  -26.1123  -31.5258   20.6046 H   0  0  0  0  0  0
  -26.8523  -30.8196   22.0085 H   0  0  0  0  0  0
  -28.1315  -28.9304   21.1931 H   0  0  0  0  0  0
  -25.9878  -25.8726   19.0432 H   0  0  0  0  0  0
  -23.9765  -27.2830   19.0197 H   0  0  0  0  0  0
  -23.7776  -30.5791   19.4009 H   0  0  0  0  0  0
  -22.7693  -29.2371   19.8532 H   0  0  0  0  0  0
  -25.1306  -36.1895   25.0813 H   0  0  0  0  0  0
  -20.9984  -28.3272   24.1383 H   0  0  0  0  0  0
  -20.5693  -26.2298   23.3615 H   0  0  0  0  0  0
  -21.6652  -26.7426   22.1194 H   0  0  0  0  0  0
  -19.6921  -25.6276   21.1242 H   0  0  0  0  0  0
  -19.6695  -27.3181   20.6748 H   0  0  0  0  0  0
  -17.4206  -26.6657   21.4014 H   0  0  0  0  0  0
  -18.0324  -26.0054   22.9010 H   0  0  0  0  0  0
  -19.7948  -30.7257   24.2249 H   0  0  0  0  0  0
  -17.5024  -31.6261   24.5151 H   0  0  0  0  0  0
  -15.5357  -30.2970   23.7659 H   0  0  0  0  0  0
  -15.8675  -28.0810   22.7062 H   0  0  0  0  0  0
  -24.5902  -30.7088   25.7746 H   0  0  0  0  0  0
  -24.8928  -32.2914   26.4824 H   0  0  0  0  0  0
  -25.8034  -30.8921   27.0212 H   0  0  0  0  0  0
  -26.2952  -29.6726   24.1230 H   0  0  0  0  0  0
  -27.4053  -29.7264   25.4721 H   0  0  0  0  0  0
  -27.8827  -30.4260   23.9440 H   0  0  0  0  0  0
  -27.2649  -33.3639   26.2027 H   0  0  0  0  0  0
  -28.3886  -32.6873   25.0333 H   0  0  0  0  0  0
  -28.0703  -31.8482   26.5441 H   0  0  0  0  0  0
  -28.2580  -38.0105   24.7510 H   0  0  0  0  0  0
  -28.1086  -36.2634   24.6283 H   0  0  0  0  0  0
  -27.2298  -37.1426   25.8865 H   0  0  0  0  0  0
  -20.9397  -29.8768   21.6866 H   0  0  0  0  0  0
  -26.0165  -38.2825   24.1416 H   0  0  0  0  0  0
  -30.4748  -20.1987   22.0033 H   0  0  0  0  0  0
  -28.6819  -17.3515   18.2128 H   0  0  0  0  0  0
  -27.9169  -18.7958   17.5565 H   0  0  0  0  0  0
  -27.1031  -17.8589   18.8080 H   0  0  0  0  0  0
  -28.8619  -24.3511   22.7545 H   0  0  0  0  0  0
  -28.7004  -26.0871   22.6004 H   0  0  0  0  0  0
  -30.0728  -25.2694   21.8579 H   0  0  0  0  0  0
  -30.7273  -17.4166   21.8768 H   0  0  0  0  0  0
  -31.3323  -17.4007   20.2624 H   0  0  0  0  0  0
  -29.5466  -23.8228   19.4484 H   0  0  0  0  0  0
  -27.8831  -23.3456   19.2907 H   0  0  0  0  0  0
  -27.1624  -24.8743   21.0740 H   0  0  0  0  0  0
  -29.4310  -22.6502   21.7531 H   0  0  0  0  0  0
  -28.8847  -15.7875   20.8323 H   0  0  0  0  0  0
  1 25  1  0  0  0
  1 30  2  0  0  0
  1 81  1  0  0  0
  2  3  1  0  0  0
  2 25  1  0  0  0
  2 83  1  0  0  0
  2 84  1  0  0  0
  3  4  1  0  0  0
  3 85  1  0  0  0
  3 86  1  0  0  0
  4  5  1  0  0  0
  4 87  1  0  0  0
  4 88  1  0  0  0
  5  6  1  0  0  0
  5 26  1  0  0  0
  5 89  1  0  0  0
  6 25  1  0  0  0
  6 90  1  0  0  0
  6 91  1  0  0  0
  7  8  2  0  0  0
  7 26  1  0  0  0
  7 29  1  0  0  0
  8  9  1  0  0  0
  8 22  1  0  0  0
  9 10  1  0  0  0
  9 27  2  0  0  0
 10 11  2  0  0  0
 10 15  1  0  0  0
 11 12  1  0  0  0
 11 92  1  0  0  0
 12 13  2  0  0  0
 12 93  1  0  0  0
 13 14  1  0  0  0
 13 31  1  0  0  0
 14 15  2  0  0  0
 14 94  1  0  0  0
 15 95  1  0  0  0
 16 17  2  0  0  0
 16 21  1  0  0  0
 16 31  1  0  0  0
 17 18  1  0  0  0
 17 96  1  0  0  0
 18 19  2  0  0  0
 18 97  1  0  0  0
 19 20  1  0  0  0
 19 24  1  0  0  0
 20 21  2  0  0  0
 20 98  1  0  0  0
 21 23  1  0  0  0
 22 28  1  0  0  0
 22 32  2  0  0  0
 26 27  1  0  0  0
 28 99  1  0  0  0
 28100  1  0  0  0
 29101  1  0  0  0
 29102  1  0  0  0
 33 34  1  0  0  0
 33 66  1  0  0  0
 33 70  2  0  0  0
 34 36  1  0  0  0
 34 59  1  0  0  0
 34103  1  0  0  0
 35 44  2  0  0  0
 35 45  1  0  0  0
 35 68  1  0  0  0
 36 56  1  0  0  0
 36104  1  0  0  0
 37 39  1  0  0  0
 37 47  1  0  0  0
 37 66  1  0  0  0
 37105  1  0  0  0
 38 43  2  0  0  0
 38 46  1  0  0  0
 38 47  1  0  0  0
 39 64  1  0  0  0
 39 67  2  0  0  0
 40 52  1  0  0  0
 40 53  2  0  0  0
 40 58  1  0  0  0
 41106  1  0  0  0
 41107  1  0  0  0
 41108  1  0  0  0
 41 48  1  0  0  0
 42 43  1  0  0  0
 42 66  1  0  0  0
 42109  1  0  0  0
 42110  1  0  0  0
 43 44  1  0  0  0
 44111  1  0  0  0
 45 46  2  0  0  0
 45112  1  0  0  0
 46113  1  0  0  0
 47114  1  0  0  0
 47115  1  0  0  0
 48 56  1  0  0  0
 48 65  1  0  0  0
 48116  1  0  0  0
 49 50  1  0  0  0
 49 53  1  0  0  0
 49 64  1  0  0  0
 49117  1  0  0  0
 50 51  1  0  0  0
 50118  1  0  0  0
 50119  1  0  0  0
 51 52  1  0  0  0
 51120  1  0  0  0
 51121  1  0  0  0
 52122  1  0  0  0
 52123  1  0  0  0
 53 54  1  0  0  0
 54 55  2  0  0  0
 54124  1  0  0  0
 55 57  1  0  0  0
 55125  1  0  0  0
 56 69  2  0  0  0
 57 58  2  0  0  0
 57126  1  0  0  0
 58127  1  0  0  0
 59 60  1  0  0  0
 59 61  1  0  0  0
 59 62  1  0  0  0
 60128  1  0  0  0
 60129  1  0  0  0
 60130  1  0  0  0
 61131  1  0  0  0
 61132  1  0  0  0
 61133  1  0  0  0
 62134  1  0  0  0
 62135  1  0  0  0
 62136  1  0  0  0
 63 65  1  0  0  0
 63137  1  0  0  0
 63138  1  0  0  0
 63139  1  0  0  0
 64140  1  0  0  0
 65141  1  0  0  0
 68 79  1  0  0  0
 71 72  1  0  0  0
 71 74  2  0  0  0
 71142  1  0  0  0
 72 73  2  0  0  0
 72 77  1  0  0  0
 73 75  1  0  0  0
 73 82  1  0  0  0
 74 80  1  0  0  0
 74 82  1  0  0  0
 75143  1  0  0  0
 75144  1  0  0  0
 75145  1  0  0  0
 76146  1  0  0  0
 76147  1  0  0  0
 76148  1  0  0  0
 76 79  1  0  0  0
 77 81  1  0  0  0
 77149  1  0  0  0
 77150  1  0  0  0
 78 79  1  0  0  0
 78 80  1  0  0  0
 78151  1  0  0  0
 78152  1  0  0  0
 79153  1  0  0  0
 80154  1  0  0  0
 81155  1  0  0  0
M  ISO  4   1 100  68 101  79 101  81 100
M  END
> <chiral flag>
0

> <version>
0

> <s_m_source_file>
/data/baiqing/PycharmProjects/Reinvent-master-3.2/result/LINK_invent/BTK/process_docking_weight1_custom_product_contain_oxygen_bond_distance_aromatic_linkinvent_7_9_3/rearranged_h_0162.sdf

> <i_m_source_file_index>
38

> <r_mmod_Potential_Energy-OPLS-2005>
68.7762756347656

> <r_mmod_Stretch_Energy-OPLS-2005>
123.070022583008

> <r_mmod_Bend_Energy-OPLS-2005>
190.955627441406

> <r_mmod_Torsional_Energy-OPLS-2005>
228.416290283203

> <r_mmod_Improper_Torsional_Energy-OPLS-2005>
5.84028244018555

> <r_mmod_Van_der_Waal_Energy-OPLS-2005>
109.388236999512

> <r_mmod_Electrostatic_Energy-OPLS-2005>
-457.98095703125

> <r_mmod_Solvation_Energy-OPLS-2005>
-220.355651855469

> <b_mmod_Minimization_Converged-OPLS-2005>
0

> <r_mmod_RMS_Derivative-OPLS-2005>
1.19153106212616

$$$$
38
                    3D
 Structure written by MMmdl.
150158  0  0  1  0            999 V2000
  -30.6753  -14.6217   20.5184 C   0  0  0  0  0  0
  -30.4300  -12.3889   19.4585 C   0  0  0  0  0  0
  -29.5062  -12.4975   18.2277 C   0  0  0  0  0  0
  -28.0289  -12.3446   18.6407 C   0  0  0  0  0  0
  -27.6507  -13.2249   19.8624 C   0  0  2  0  0  0
  -28.6969  -13.1061   20.9915 C   0  0  0  0  0  0
  -25.2545  -13.8207   20.5714 C   0  0  0  0  0  0
  -24.1812  -13.0468   20.9205 C   0  0  0  0  0  0
  -24.6392  -11.6942   20.8757 C   0  0  0  0  0  0
  -23.9070  -10.4305   21.0412 C   0  0  0  0  0  0
  -24.3619   -9.4212   21.9184 C   0  0  0  0  0  0
  -23.6289   -8.2249   22.0752 C   0  0  0  0  0  0
  -22.4269   -8.0284   21.3542 C   0  0  0  0  0  0
  -21.9907   -9.0270   20.4655 C   0  0  0  0  0  0
  -22.7239  -10.2147   20.3064 C   0  0  0  0  0  0
  -21.6848   -6.0737   22.5281 C   0  0  0  0  0  0
  -21.4020   -6.5643   23.8214 C   0  0  0  0  0  0
  -21.3667   -5.6791   24.9173 C   0  0  0  0  0  0
  -21.6039   -4.3051   24.7223 C   0  0  0  0  0  0
  -21.8824   -3.8147   23.4348 C   0  0  0  0  0  0
  -21.9191   -4.6965   22.3404 C   0  0  0  0  0  0
  -22.7825  -13.5252   21.1852 C   0  0  0  0  0  0
  -22.1653   -4.2157   21.0974 F   0  0  0  0  0  0
  -21.5624   -3.4535   25.7733 F   0  0  0  0  0  0
  -30.0096  -13.4296   20.4161 N   0  0  0  0  0  0
  -26.2980  -12.9403   20.3350 N   0  0  0  0  0  0
  -25.9326  -11.6554   20.5790 N   0  0  0  0  0  0
  -22.0455  -12.8255   22.0409 N   0  0  0  0  0  0
  -25.4238  -15.1921   20.4104 N   0  0  0  0  0  0
  -31.8458  -14.7297   20.1491 O   0  0  0  0  0  0
  -21.6637   -6.8875   21.4238 O   0  0  0  0  0  0
  -22.3509  -14.5553   20.6695 O   0  0  0  0  0  0
  -24.6234  -31.8620   23.2067 C   0  0  0  0  0  0
  -25.9087  -32.4797   23.8387 C   0  0  1  0  0  0
  -27.2298  -27.3528   20.1112 C   0  0  0  0  0  0
  -25.5921  -33.8600   24.2313 N   0  0  0  0  0  0
  -23.4180  -30.4841   21.5483 C   0  0  2  0  0  0
  -24.8697  -28.9436   20.1124 C   0  0  0  0  0  0
  -22.7482  -29.4614   22.4959 C   0  0  0  0  0  0
  -18.0284  -28.1393   22.8497 C   0  0  0  0  0  0
  -24.1486  -36.7290   23.2639 C   0  0  0  0  0  0
  -25.9572  -30.8006   21.3762 C   0  0  0  0  0  0
  -26.0358  -29.4294   20.7211 C   0  0  0  0  0  0
  -27.2237  -28.6431   20.7168 C   0  0  0  0  0  0
  -26.0502  -26.9081   19.4852 C   0  0  0  0  0  0
  -24.8778  -27.6877   19.4832 C   0  0  0  0  0  0
  -23.6349  -29.8194   20.1630 C   0  0  0  0  0  0
  -25.4111  -36.3090   24.0334 C   0  0  1  0  0  0
  -20.5883  -28.3679   23.1302 C   0  0  2  0  0  0
  -20.6771  -26.9400   22.5428 C   0  0  0  0  0  0
  -19.5739  -26.6386   21.5236 C   0  0  0  0  0  0
  -18.1920  -26.7940   22.1640 C   0  0  0  0  0  0
  -19.1534  -28.8858   23.2895 C   0  0  0  0  0  0
  -18.9451  -30.1467   23.8903 C   0  0  0  0  0  0
  -17.6446  -30.6592   24.0567 C   0  0  0  0  0  0
  -25.9043  -34.9457   23.5113 C   0  0  0  0  0  0
  -16.5341  -29.9088   23.6336 C   0  0  0  0  0  0
  -16.7270  -28.6513   23.0347 C   0  0  0  0  0  0
  -26.4494  -31.6598   25.0738 C   0  0  0  0  0  0
  -25.3754  -31.3719   26.1479 C   0  0  0  0  0  0
  -27.0339  -30.3036   24.6160 C   0  0  0  0  0  0
  -27.6056  -32.4332   25.7504 C   0  0  0  0  0  0
  -27.5572  -37.1809   24.8473 C   0  0  0  0  0  0
  -21.4197  -29.3033   22.3712 N   0  0  0  0  0  0
  -26.4292  -37.3776   23.9405 N   0  0  0  0  0  0
  -24.6848  -31.0644   22.1012 N   0  0  0  0  0  0
  -23.4228  -28.8152   23.3014 O   0  0  0  0  0  0
  -28.3096  -26.4731   20.1034 O   0  0  0  0  0  0
  -26.5589  -34.8918   22.4669 O   0  0  0  0  0  0
  -23.5393  -32.1393   23.7405 O   0  0  0  0  0  0
  -29.6936  -19.5702   21.3593 C   0  0  0  0  0  0
  -29.4057  -20.3541   19.1800 C   0  0  0  0  0  0
  -29.3945  -20.7061   20.5067 C   0  0  0  0  0  0
  -29.9577  -18.3772   20.6927 C   0  0  0  0  0  0
  -28.4888  -25.7076   21.2500 C   0  0  0  0  0  0
  -28.7806  -24.3771   21.4570 C   0  0  0  0  0  0
  -28.9684  -23.2801   20.4578 C   0  0  0  0  0  0
  -30.5207  -17.0625   21.2841 C   0  0  0  0  0  0
  -29.1217  -22.0385   21.0367 N   0  0  0  0  0  0
  -29.9634  -15.7245   20.9001 N   0  0  0  0  0  0
  -28.9799  -23.4452   19.2365 O   0  0  0  0  0  0
  -28.9387  -24.0480   22.7506 O   0  0  0  0  0  0
  -29.7785  -18.6445   18.9700 S   0  0  0  0  0  0
  -31.4734  -12.4955   19.1562 H   0  0  0  0  0  0
  -30.3532  -11.4030   19.9210 H   0  0  0  0  0  0
  -29.7709  -11.7390   17.4892 H   0  0  0  0  0  0
  -29.6527  -13.4632   17.7396 H   0  0  0  0  0  0
  -27.8632  -11.2935   18.8777 H   0  0  0  0  0  0
  -27.3765  -12.5720   17.7977 H   0  0  0  0  0  0
  -27.6653  -14.2572   19.5082 H   0  0  0  0  0  0
  -28.7086  -12.0983   21.4085 H   0  0  0  0  0  0
  -28.4473  -13.7701   21.8209 H   0  0  0  0  0  0
  -25.2755   -9.5689   22.4768 H   0  0  0  0  0  0
  -24.0000   -7.4645   22.7478 H   0  0  0  0  0  0
  -21.0833   -8.8798   19.8972 H   0  0  0  0  0  0
  -22.3684  -10.9694   19.6187 H   0  0  0  0  0  0
  -21.2016   -7.6150   23.9725 H   0  0  0  0  0  0
  -21.1475   -6.0515   25.9081 H   0  0  0  0  0  0
  -22.0592   -2.7614   23.2838 H   0  0  0  0  0  0
  -22.4048  -11.9928   22.4817 H   0  0  0  0  0  0
  -21.1101  -13.1326   22.2651 H   0  0  0  0  0  0
  -24.6553  -15.8468   20.5117 H   0  0  0  0  0  0
  -26.2693  -15.6294   20.0672 H   0  0  0  0  0  0
  -26.7156  -32.5499   23.1139 H   0  0  0  0  0  0
  -25.0141  -33.9771   25.0504 H   0  0  0  0  0  0
  -22.7082  -31.3025   21.4077 H   0  0  0  0  0  0
  -23.3743  -35.9632   23.3333 H   0  0  0  0  0  0
  -24.3564  -36.8873   22.2047 H   0  0  0  0  0  0
  -23.7256  -37.6511   23.6634 H   0  0  0  0  0  0
  -26.0818  -31.5609   20.6040 H   0  0  0  0  0  0
  -26.8408  -30.8551   22.0013 H   0  0  0  0  0  0
  -28.1229  -29.0114   21.1918 H   0  0  0  0  0  0
  -26.0364  -25.9339   19.0161 H   0  0  0  0  0  0
  -23.9875  -27.3139   18.9975 H   0  0  0  0  0  0
  -23.7557  -30.5988   19.4096 H   0  0  0  0  0  0
  -22.7562  -29.2475   19.8577 H   0  0  0  0  0  0
  -25.1293  -36.1944   25.0826 H   0  0  0  0  0  0
  -20.9970  -28.3245   24.1420 H   0  0  0  0  0  0
  -20.5689  -26.2279   23.3621 H   0  0  0  0  0  0
  -21.6636  -26.7448   22.1194 H   0  0  0  0  0  0
  -19.6887  -25.6302   21.1248 H   0  0  0  0  0  0
  -19.6671  -27.3215   20.6778 H   0  0  0  0  0  0
  -17.4190  -26.6705   21.4032 H   0  0  0  0  0  0
  -18.0291  -26.0088   22.9034 H   0  0  0  0  0  0
  -19.7925  -30.7295   24.2270 H   0  0  0  0  0  0
  -17.4993  -31.6269   24.5170 H   0  0  0  0  0  0
  -15.5340  -30.2975   23.7670 H   0  0  0  0  0  0
  -15.8672  -28.0841   22.7034 H   0  0  0  0  0  0
  -24.5910  -30.7080   25.7814 H   0  0  0  0  0  0
  -24.8968  -32.2885   26.4939 H   0  0  0  0  0  0
  -25.8096  -30.8872   27.0234 H   0  0  0  0  0  0
  -26.2910  -29.6788   24.1184 H   0  0  0  0  0  0
  -27.4063  -29.7274   25.4640 H   0  0  0  0  0  0
  -27.8764  -30.4340   23.9364 H   0  0  0  0  0  0
  -27.2671  -33.3631   26.2083 H   0  0  0  0  0  0
  -28.3866  -32.6897   25.0332 H   0  0  0  0  0  0
  -28.0731  -31.8467   26.5422 H   0  0  0  0  0  0
  -28.2613  -38.0080   24.7474 H   0  0  0  0  0  0
  -28.1041  -36.2607   24.6356 H   0  0  0  0  0  0
  -27.2281  -37.1533   25.8876 H   0  0  0  0  0  0
  -20.9380  -29.8755   21.6921 H   0  0  0  0  0  0
  -26.0171  -38.2853   24.1392 H   0  0  0  0  0  0
  -29.7522  -19.6753   22.4346 H   0  0  0  0  0  0
  -29.2237  -20.9770   18.3120 H   0  0  0  0  0  0
  -28.3812  -26.3491   22.1147 H   0  0  0  0  0  0
  -30.4277  -17.1151   22.3695 H   0  0  0  0  0  0
  -31.5975  -17.0619   21.1049 H   0  0  0  0  0  0
  -29.0046  -22.0537   22.0384 H   0  0  0  0  0  0
  -28.9886  -15.5771   21.1077 H   0  0  0  0  0  0
  -29.5723  -23.3440   22.7913 H   0  0  0  0  0  0
  1 25  1  0  0  0
  1 30  2  0  0  0
  1 80  1  0  0  0
  2  3  1  0  0  0
  2 25  1  0  0  0
  2 84  1  0  0  0
  2 85  1  0  0  0
  3  4  1  0  0  0
  3 86  1  0  0  0
  3 87  1  0  0  0
  4  5  1  0  0  0
  4 88  1  0  0  0
  4 89  1  0  0  0
  5  6  1  0  0  0
  5 26  1  0  0  0
  5 90  1  0  0  0
  6 25  1  0  0  0
  6 91  1  0  0  0
  6 92  1  0  0  0
  7  8  2  0  0  0
  7 26  1  0  0  0
  7 29  1  0  0  0
  8  9  1  0  0  0
  8 22  1  0  0  0
  9 10  1  0  0  0
  9 27  2  0  0  0
 10 11  2  0  0  0
 10 15  1  0  0  0
 11 12  1  0  0  0
 11 93  1  0  0  0
 12 13  2  0  0  0
 12 94  1  0  0  0
 13 14  1  0  0  0
 13 31  1  0  0  0
 14 15  2  0  0  0
 14 95  1  0  0  0
 15 96  1  0  0  0
 16 17  2  0  0  0
 16 21  1  0  0  0
 16 31  1  0  0  0
 17 18  1  0  0  0
 17 97  1  0  0  0
 18 19  2  0  0  0
 18 98  1  0  0  0
 19 20  1  0  0  0
 19 24  1  0  0  0
 20 21  2  0  0  0
 20 99  1  0  0  0
 21 23  1  0  0  0
 22 28  1  0  0  0
 22 32  2  0  0  0
 26 27  1  0  0  0
 28100  1  0  0  0
 28101  1  0  0  0
 29102  1  0  0  0
 29103  1  0  0  0
 33 34  1  0  0  0
 33 66  1  0  0  0
 33 70  2  0  0  0
 34 36  1  0  0  0
 34 59  1  0  0  0
 34104  1  0  0  0
 35 44  2  0  0  0
 35 45  1  0  0  0
 35 68  1  0  0  0
 36 56  1  0  0  0
 36105  1  0  0  0
 37 39  1  0  0  0
 37 47  1  0  0  0
 37 66  1  0  0  0
 37106  1  0  0  0
 38 43  2  0  0  0
 38 46  1  0  0  0
 38 47  1  0  0  0
 39 64  1  0  0  0
 39 67  2  0  0  0
 40 52  1  0  0  0
 40 53  2  0  0  0
 40 58  1  0  0  0
 41107  1  0  0  0
 41108  1  0  0  0
 41109  1  0  0  0
 41 48  1  0  0  0
 42 43  1  0  0  0
 42 66  1  0  0  0
 42110  1  0  0  0
 42111  1  0  0  0
 43 44  1  0  0  0
 44112  1  0  0  0
 45 46  2  0  0  0
 45113  1  0  0  0
 46114  1  0  0  0
 47115  1  0  0  0
 47116  1  0  0  0
 48 56  1  0  0  0
 48 65  1  0  0  0
 48117  1  0  0  0
 49 50  1  0  0  0
 49 53  1  0  0  0
 49 64  1  0  0  0
 49118  1  0  0  0
 50 51  1  0  0  0
 50119  1  0  0  0
 50120  1  0  0  0
 51 52  1  0  0  0
 51121  1  0  0  0
 51122  1  0  0  0
 52123  1  0  0  0
 52124  1  0  0  0
 53 54  1  0  0  0
 54 55  2  0  0  0
 54125  1  0  0  0
 55 57  1  0  0  0
 55126  1  0  0  0
 56 69  2  0  0  0
 57 58  2  0  0  0
 57127  1  0  0  0
 58128  1  0  0  0
 59 60  1  0  0  0
 59 61  1  0  0  0
 59 62  1  0  0  0
 60129  1  0  0  0
 60130  1  0  0  0
 60131  1  0  0  0
 61132  1  0  0  0
 61133  1  0  0  0
 61134  1  0  0  0
 62135  1  0  0  0
 62136  1  0  0  0
 62137  1  0  0  0
 63 65  1  0  0  0
 63138  1  0  0  0
 63139  1  0  0  0
 63140  1  0  0  0
 64141  1  0  0  0
 65142  1  0  0  0
 68 75  1  0  0  0
 71 73  1  0  0  0
 71 74  2  0  0  0
 71143  1  0  0  0
 72 73  2  0  0  0
 72 83  1  0  0  0
 72144  1  0  0  0
 73 79  1  0  0  0
 74 78  1  0  0  0
 74 83  1  0  0  0
 75 76  2  0  0  0
 75145  1  0  0  0
 76 77  1  0  0  0
 76 82  1  0  0  0
 77 79  1  0  0  0
 77 81  2  0  0  0
 78 80  1  0  0  0
 78146  1  0  0  0
 78147  1  0  0  0
 79148  1  0  0  0
 80149  1  0  0  0
 82150  1  0  0  0
M  ISO  4   1 100  68 101  75 101  80 100
M  END
> <chiral flag>
0

> <version>
0

> <s_m_source_file>
/data/baiqing/PycharmProjects/Reinvent-master-3.2/result/LINK_invent/BTK/process_docking_weight1_custom_product_contain_oxygen_bond_distance_aromatic_linkinvent_7_9_3/rearranged_h_0162.sdf

> <i_m_source_file_index>
39

> <r_mmod_Potential_Energy-OPLS-2005>
-39.3903541564941

> <r_mmod_Stretch_Energy-OPLS-2005>
65.0412368774414

> <r_mmod_Bend_Energy-OPLS-2005>
159.161376953125

> <r_mmod_Torsional_Energy-OPLS-2005>
228.810684204102

> <r_mmod_Improper_Torsional_Energy-OPLS-2005>
4.19336652755737

> <r_mmod_Van_der_Waal_Energy-OPLS-2005>
122.802894592285

> <r_mmod_Electrostatic_Energy-OPLS-2005>
-412.169708251953

> <r_mmod_Solvation_Energy-OPLS-2005>
-250.39794921875

> <b_mmod_Minimization_Converged-OPLS-2005>
0

> <r_mmod_RMS_Derivative-OPLS-2005>
2.49166417121887

$$$$
39
                    3D
 Structure written by MMmdl.
159167  0  0  1  0            999 V2000
  -30.6843  -14.5117   20.5803 C   0  0  0  0  0  0
  -30.4260  -12.3359   19.4254 C   0  0  0  0  0  0
  -29.4908  -12.5028   18.2089 C   0  0  0  0  0  0
  -28.0163  -12.3525   18.6296 C   0  0  0  0  0  0
  -27.6569  -13.2062   19.8743 C   0  0  2  0  0  0
  -28.6997  -13.0068   20.9951 C   0  0  0  0  0  0
  -25.2554  -13.8148   20.5700 C   0  0  0  0  0  0
  -24.1814  -13.0439   20.9190 C   0  0  0  0  0  0
  -24.6367  -11.6909   20.8750 C   0  0  0  0  0  0
  -23.9029  -10.4297   21.0414 C   0  0  0  0  0  0
  -24.3578   -9.4215   21.9196 C   0  0  0  0  0  0
  -23.6268   -8.2241   22.0744 C   0  0  0  0  0  0
  -22.4251   -8.0279   21.3543 C   0  0  0  0  0  0
  -21.9901   -9.0243   20.4629 C   0  0  0  0  0  0
  -22.7206  -10.2134   20.3058 C   0  0  0  0  0  0
  -21.6871   -6.0734   22.5268 C   0  0  0  0  0  0
  -21.4010   -6.5636   23.8198 C   0  0  0  0  0  0
  -21.3656   -5.6793   24.9168 C   0  0  0  0  0  0
  -21.6038   -4.3048   24.7231 C   0  0  0  0  0  0
  -21.8819   -3.8152   23.4346 C   0  0  0  0  0  0
  -21.9188   -4.6967   22.3397 C   0  0  0  0  0  0
  -22.7840  -13.5235   21.1876 C   0  0  0  0  0  0
  -22.1666   -4.2154   21.0988 F   0  0  0  0  0  0
  -21.5640   -3.4513   25.7742 F   0  0  0  0  0  0
  -30.0209  -13.3302   20.4335 N   0  0  0  0  0  0
  -26.2989  -12.9325   20.3364 N   0  0  0  0  0  0
  -25.9286  -11.6493   20.5773 N   0  0  0  0  0  0
  -22.0474  -12.8237   22.0414 N   0  0  0  0  0  0
  -25.4312  -15.1869   20.4106 N   0  0  0  0  0  0
  -31.8223  -14.6906   20.1386 O   0  0  0  0  0  0
  -21.6649   -6.8869   21.4236 O   0  0  0  0  0  0
  -22.3540  -14.5557   20.6722 O   0  0  0  0  0  0
  -24.6194  -31.8665   23.2139 C   0  0  0  0  0  0
  -25.9075  -32.4803   23.8434 C   0  0  1  0  0  0
  -27.2301  -27.3980   20.0888 C   0  0  0  0  0  0
  -25.5905  -33.8591   24.2339 N   0  0  0  0  0  0
  -23.4053  -30.4954   21.5563 C   0  0  2  0  0  0
  -24.8492  -28.9604   20.1148 C   0  0  0  0  0  0
  -22.7417  -29.4655   22.5005 C   0  0  0  0  0  0
  -18.0270  -28.1369   22.8534 C   0  0  0  0  0  0
  -24.1469  -36.7287   23.2661 C   0  0  0  0  0  0
  -25.9414  -30.8189   21.3732 C   0  0  0  0  0  0
  -26.0138  -29.4527   20.7148 C   0  0  0  0  0  0
  -27.2006  -28.6784   20.7035 C   0  0  0  0  0  0
  -26.0382  -26.9382   19.4720 C   0  0  0  0  0  0
  -24.8588  -27.7048   19.4927 C   0  0  0  0  0  0
  -23.6144  -29.8324   20.1702 C   0  0  0  0  0  0
  -25.4099  -36.3084   24.0346 C   0  0  1  0  0  0
  -20.5865  -28.3669   23.1307 C   0  0  2  0  0  0
  -20.6755  -26.9403   22.5412 C   0  0  0  0  0  0
  -19.5727  -26.6389   21.5204 C   0  0  0  0  0  0
  -18.1909  -26.7921   22.1628 C   0  0  0  0  0  0
  -19.1524  -28.8841   23.2912 C   0  0  0  0  0  0
  -18.9448  -30.1450   23.8912 C   0  0  0  0  0  0
  -17.6454  -30.6606   24.0559 C   0  0  0  0  0  0
  -25.9025  -34.9440   23.5142 C   0  0  0  0  0  0
  -16.5333  -29.9101   23.6331 C   0  0  0  0  0  0
  -16.7254  -28.6492   23.0392 C   0  0  0  0  0  0
  -26.4507  -31.6619   25.0784 C   0  0  0  0  0  0
  -25.3746  -31.3664   26.1496 C   0  0  0  0  0  0
  -27.0438  -30.3073   24.6215 C   0  0  0  0  0  0
  -27.6059  -32.4384   25.7517 C   0  0  0  0  0  0
  -27.5572  -37.1776   24.8466 C   0  0  0  0  0  0
  -21.4145  -29.3030   22.3715 N   0  0  0  0  0  0
  -26.4273  -37.3790   23.9418 N   0  0  0  0  0  0
  -24.6749  -31.0742   22.1052 N   0  0  0  0  0  0
  -23.4182  -28.8173   23.3030 O   0  0  0  0  0  0
  -28.4016  -26.6493   20.1336 O   0  0  0  0  0  0
  -26.5583  -34.8909   22.4706 O   0  0  0  0  0  0
  -23.5375  -32.1443   23.7504 O   0  0  0  0  0  0
  -29.7225  -19.9118   19.2488 C   0  0  0  0  0  0
  -29.8100  -19.3302   21.5030 C   0  0  0  0  0  0
  -29.6259  -20.3910   20.5288 C   0  0  0  0  0  0
  -30.1065  -18.0913   20.9448 C   0  0  0  0  0  0
  -29.7512  -19.5015   22.9525 C   0  0  0  0  0  0
  -29.1636  -24.2814   20.4994 C   0  0  0  0  0  0
  -27.4724  -18.4664   23.4197 C   0  0  0  0  0  0
  -30.5208  -16.7997   21.6530 C   0  0  0  0  0  0
  -28.3518  -19.7284   23.5220 C   0  0  0  0  0  0
  -29.4908  -22.8853   19.9035 C   0  0  0  0  0  0
  -28.4335  -25.3010   19.5893 C   0  0  0  0  0  0
  -29.3933  -21.7622   20.8593 N   0  0  0  0  0  0
  -29.9850  -15.5170   21.1515 N   0  0  0  0  0  0
  -30.7093  -19.3985   23.7243 O   0  0  0  0  0  0
  -29.4494  -24.5402   21.6737 O   0  0  0  0  0  0
  -30.0658  -18.1978   19.2034 S   0  0  0  0  0  0
  -31.4668  -12.4539   19.1151 H   0  0  0  0  0  0
  -30.3473  -11.3284   19.8409 H   0  0  0  0  0  0
  -29.7343  -11.7669   17.4419 H   0  0  0  0  0  0
  -29.6435  -13.4823   17.7518 H   0  0  0  0  0  0
  -27.8401  -11.2987   18.8468 H   0  0  0  0  0  0
  -27.3574  -12.6031   17.7985 H   0  0  0  0  0  0
  -27.6971  -14.2502   19.5641 H   0  0  0  0  0  0
  -28.6886  -11.9691   21.3346 H   0  0  0  0  0  0
  -28.4534  -13.6067   21.8730 H   0  0  0  0  0  0
  -25.2719   -9.5713   22.4774 H   0  0  0  0  0  0
  -23.9977   -7.4652   22.7486 H   0  0  0  0  0  0
  -21.0832   -8.8774   19.8943 H   0  0  0  0  0  0
  -22.3659  -10.9686   19.6173 H   0  0  0  0  0  0
  -21.2001   -7.6152   23.9703 H   0  0  0  0  0  0
  -21.1485   -6.0533   25.9079 H   0  0  0  0  0  0
  -22.0606   -2.7611   23.2852 H   0  0  0  0  0  0
  -22.4089  -11.9880   22.4777 H   0  0  0  0  0  0
  -21.1103  -13.1280   22.2638 H   0  0  0  0  0  0
  -24.6666  -15.8446   20.5143 H   0  0  0  0  0  0
  -26.2827  -15.6214   20.0789 H   0  0  0  0  0  0
  -26.7138  -32.5498   23.1192 H   0  0  0  0  0  0
  -24.9979  -33.9709   25.0432 H   0  0  0  0  0  0
  -22.6969  -31.3161   21.4240 H   0  0  0  0  0  0
  -23.3726  -35.9615   23.3295 H   0  0  0  0  0  0
  -24.3571  -36.8958   22.2085 H   0  0  0  0  0  0
  -23.7217  -37.6483   23.6700 H   0  0  0  0  0  0
  -26.0667  -31.5895   20.6116 H   0  0  0  0  0  0
  -26.8258  -30.8599   22.0005 H   0  0  0  0  0  0
  -28.0959  -29.0586   21.1782 H   0  0  0  0  0  0
  -25.9638  -25.9926   18.9571 H   0  0  0  0  0  0
  -23.9615  -27.3265   19.0246 H   0  0  0  0  0  0
  -23.7169  -30.6108   19.4132 H   0  0  0  0  0  0
  -22.7342  -29.2547   19.8774 H   0  0  0  0  0  0
  -25.1291  -36.1952   25.0843 H   0  0  0  0  0  0
  -20.9982  -28.3257   24.1417 H   0  0  0  0  0  0
  -20.5649  -26.2270   23.3594 H   0  0  0  0  0  0
  -21.6618  -26.7455   22.1190 H   0  0  0  0  0  0
  -19.6858  -25.6296   21.1229 H   0  0  0  0  0  0
  -19.6653  -27.3203   20.6723 H   0  0  0  0  0  0
  -17.4188  -26.6698   21.4038 H   0  0  0  0  0  0
  -18.0268  -26.0067   22.9007 H   0  0  0  0  0  0
  -19.7921  -30.7250   24.2293 H   0  0  0  0  0  0
  -17.5013  -31.6291   24.5180 H   0  0  0  0  0  0
  -15.5326  -30.3006   23.7675 H   0  0  0  0  0  0
  -15.8636  -28.0806   22.7138 H   0  0  0  0  0  0
  -24.5923  -30.7043   25.7765 H   0  0  0  0  0  0
  -24.8918  -32.2785   26.4979 H   0  0  0  0  0  0
  -25.8087  -30.8784   27.0229 H   0  0  0  0  0  0
  -26.3052  -29.6695   24.1332 H   0  0  0  0  0  0
  -27.4330  -29.7440   25.4716 H   0  0  0  0  0  0
  -27.8791  -30.4429   23.9333 H   0  0  0  0  0  0
  -27.2684  -33.3708   26.2029 H   0  0  0  0  0  0
  -28.3862  -32.6903   25.0325 H   0  0  0  0  0  0
  -28.0701  -31.8567   26.5488 H   0  0  0  0  0  0
  -28.2559  -38.0107   24.7614 H   0  0  0  0  0  0
  -28.1134  -36.2644   24.6224 H   0  0  0  0  0  0
  -27.2296  -37.1380   25.8875 H   0  0  0  0  0  0
  -20.9304  -29.8721   21.6912 H   0  0  0  0  0  0
  -26.0158  -38.2863   24.1475 H   0  0  0  0  0  0
  -29.6255  -20.4519   18.3155 H   0  0  0  0  0  0
  -26.4969  -18.6430   23.8744 H   0  0  0  0  0  0
  -27.9307  -17.6208   23.9407 H   0  0  0  0  0  0
  -27.3035  -18.1760   22.3786 H   0  0  0  0  0  0
  -30.2274  -16.8355   22.7029 H   0  0  0  0  0  0
  -31.6104  -16.7583   21.6751 H   0  0  0  0  0  0
  -27.8805  -20.5563   22.9919 H   0  0  0  0  0  0
  -28.4433  -20.0372   24.5652 H   0  0  0  0  0  0
  -30.5096  -22.9351   19.5130 H   0  0  0  0  0  0
  -28.8369  -22.7072   19.0496 H   0  0  0  0  0  0
  -27.4518  -24.8617   19.4445 H   0  0  0  0  0  0
  -28.9238  -25.3264   18.6144 H   0  0  0  0  0  0
  -29.3605  -22.0537   21.8342 H   0  0  0  0  0  0
  -29.0405  -15.2886   21.4225 H   0  0  0  0  0  0
  1 25  1  0  0  0
  1 30  2  0  0  0
  1 83  1  0  0  0
  2  3  1  0  0  0
  2 25  1  0  0  0
  2 87  1  0  0  0
  2 88  1  0  0  0
  3  4  1  0  0  0
  3 89  1  0  0  0
  3 90  1  0  0  0
  4  5  1  0  0  0
  4 91  1  0  0  0
  4 92  1  0  0  0
  5  6  1  0  0  0
  5 26  1  0  0  0
  5 93  1  0  0  0
  6 25  1  0  0  0
  6 94  1  0  0  0
  6 95  1  0  0  0
  7  8  2  0  0  0
  7 26  1  0  0  0
  7 29  1  0  0  0
  8  9  1  0  0  0
  8 22  1  0  0  0
  9 10  1  0  0  0
  9 27  2  0  0  0
 10 11  2  0  0  0
 10 15  1  0  0  0
 11 12  1  0  0  0
 11 96  1  0  0  0
 12 13  2  0  0  0
 12 97  1  0  0  0
 13 14  1  0  0  0
 13 31  1  0  0  0
 14 15  2  0  0  0
 14 98  1  0  0  0
 15 99  1  0  0  0
 16 17  2  0  0  0
 16 21  1  0  0  0
 16 31  1  0  0  0
 17 18  1  0  0  0
 17100  1  0  0  0
 18 19  2  0  0  0
 18101  1  0  0  0
 19 20  1  0  0  0
 19 24  1  0  0  0
 20 21  2  0  0  0
 20102  1  0  0  0
 21 23  1  0  0  0
 22 28  1  0  0  0
 22 32  2  0  0  0
 26 27  1  0  0  0
 28103  1  0  0  0
 28104  1  0  0  0
 29105  1  0  0  0
 29106  1  0  0  0
 33 34  1  0  0  0
 33 66  1  0  0  0
 33 70  2  0  0  0
 34 36  1  0  0  0
 34 59  1  0  0  0
 34107  1  0  0  0
 35 44  2  0  0  0
 35 45  1  0  0  0
 35 68  1  0  0  0
 36 56  1  0  0  0
 36108  1  0  0  0
 37 39  1  0  0  0
 37 47  1  0  0  0
 37 66  1  0  0  0
 37109  1  0  0  0
 38 43  2  0  0  0
 38 46  1  0  0  0
 38 47  1  0  0  0
 39 64  1  0  0  0
 39 67  2  0  0  0
 40 52  1  0  0  0
 40 53  2  0  0  0
 40 58  1  0  0  0
 41110  1  0  0  0
 41111  1  0  0  0
 41112  1  0  0  0
 41 48  1  0  0  0
 42 43  1  0  0  0
 42 66  1  0  0  0
 42113  1  0  0  0
 42114  1  0  0  0
 43 44  1  0  0  0
 44115  1  0  0  0
 45 46  2  0  0  0
 45116  1  0  0  0
 46117  1  0  0  0
 47118  1  0  0  0
 47119  1  0  0  0
 48 56  1  0  0  0
 48 65  1  0  0  0
 48120  1  0  0  0
 49 50  1  0  0  0
 49 53  1  0  0  0
 49 64  1  0  0  0
 49121  1  0  0  0
 50 51  1  0  0  0
 50122  1  0  0  0
 50123  1  0  0  0
 51 52  1  0  0  0
 51124  1  0  0  0
 51125  1  0  0  0
 52126  1  0  0  0
 52127  1  0  0  0
 53 54  1  0  0  0
 54 55  2  0  0  0
 54128  1  0  0  0
 55 57  1  0  0  0
 55129  1  0  0  0
 56 69  2  0  0  0
 57 58  2  0  0  0
 57130  1  0  0  0
 58131  1  0  0  0
 59 60  1  0  0  0
 59 61  1  0  0  0
 59 62  1  0  0  0
 60132  1  0  0  0
 60133  1  0  0  0
 60134  1  0  0  0
 61135  1  0  0  0
 61136  1  0  0  0
 61137  1  0  0  0
 62138  1  0  0  0
 62139  1  0  0  0
 62140  1  0  0  0
 63 65  1  0  0  0
 63141  1  0  0  0
 63142  1  0  0  0
 63143  1  0  0  0
 64144  1  0  0  0
 65145  1  0  0  0
 68 81  1  0  0  0
 71 73  2  0  0  0
 71 86  1  0  0  0
 71146  1  0  0  0
 72 73  1  0  0  0
 72 74  2  0  0  0
 72 75  1  0  0  0
 73 82  1  0  0  0
 74 78  1  0  0  0
 74 86  1  0  0  0
 75 79  1  0  0  0
 75 84  2  0  0  0
 76 80  1  0  0  0
 76 81  1  0  0  0
 76 85  2  0  0  0
 77 79  1  0  0  0
 77147  1  0  0  0
 77148  1  0  0  0
 77149  1  0  0  0
 78 83  1  0  0  0
 78150  1  0  0  0
 78151  1  0  0  0
 79152  1  0  0  0
 79153  1  0  0  0
 80 82  1  0  0  0
 80154  1  0  0  0
 80155  1  0  0  0
 81156  1  0  0  0
 81157  1  0  0  0
 82158  1  0  0  0
 83159  1  0  0  0
M  ISO  4   1 100  68 101  81 101  83 100
M  END
> <chiral flag>
0

> <version>
0

> <s_m_source_file>
/data/baiqing/PycharmProjects/Reinvent-master-3.2/result/LINK_invent/BTK/process_docking_weight1_custom_product_contain_oxygen_bond_distance_aromatic_linkinvent_7_9_3/rearranged_h_0162.sdf

> <i_m_source_file_index>
40

> <r_mmod_Potential_Energy-OPLS-2005>
-1.08138680458069

> <r_mmod_Stretch_Energy-OPLS-2005>
46.6435165405273

> <r_mmod_Bend_Energy-OPLS-2005>
116.72159576416

> <r_mmod_Torsional_Energy-OPLS-2005>
244.041015625

> <r_mmod_Improper_Torsional_Energy-OPLS-2005>
4.15153074264526

> <r_mmod_Van_der_Waal_Energy-OPLS-2005>
125.626251220703

> <r_mmod_Electrostatic_Energy-OPLS-2005>
-303.498840332031

> <r_mmod_Solvation_Energy-OPLS-2005>
-254.017929077148

> <b_mmod_Minimization_Converged-OPLS-2005>
0

> <r_mmod_RMS_Derivative-OPLS-2005>
4.42973899841309

$$$$
40
                    3D
 Structure written by MMmdl.
148156  0  0  1  0            999 V2000
  -30.4051  -15.0586   20.4848 C   0  0  0  0  0  0
  -30.4608  -12.6687   19.5408 C   0  0  0  0  0  0
  -29.5386  -12.5636   18.2969 C   0  0  0  0  0  0
  -28.0763  -12.3035   18.7066 C   0  0  0  0  0  0
  -27.6305  -13.2373   19.8593 C   0  0  2  0  0  0
  -28.6584  -13.2444   21.0082 C   0  0  0  0  0  0
  -25.2438  -13.8196   20.5705 C   0  0  0  0  0  0
  -24.1754  -13.0438   20.9233 C   0  0  0  0  0  0
  -24.6360  -11.6907   20.8768 C   0  0  0  0  0  0
  -23.9044  -10.4278   21.0418 C   0  0  0  0  0  0
  -24.3604   -9.4183   21.9182 C   0  0  0  0  0  0
  -23.6281   -8.2227   22.0751 C   0  0  0  0  0  0
  -22.4252   -8.0279   21.3556 C   0  0  0  0  0  0
  -21.9900   -9.0247   20.4647 C   0  0  0  0  0  0
  -22.7232  -10.2119   20.3052 C   0  0  0  0  0  0
  -21.6848   -6.0728   22.5282 C   0  0  0  0  0  0
  -21.4013   -6.5634   23.8211 C   0  0  0  0  0  0
  -21.3657   -5.6783   24.9186 C   0  0  0  0  0  0
  -21.6040   -4.3047   24.7232 C   0  0  0  0  0  0
  -21.8821   -3.8145   23.4355 C   0  0  0  0  0  0
  -21.9188   -4.6958   22.3417 C   0  0  0  0  0  0
  -22.7782  -13.5214   21.1894 C   0  0  0  0  0  0
  -22.1655   -4.2151   21.0993 F   0  0  0  0  0  0
  -21.5625   -3.4538   25.7743 F   0  0  0  0  0  0
  -29.9219  -13.7397   20.4418 N   0  0  0  0  0  0
  -26.2844  -12.9392   20.3281 N   0  0  0  0  0  0
  -25.9274  -11.6522   20.5763 N   0  0  0  0  0  0
  -22.0434  -12.8194   22.0458 N   0  0  0  0  0  0
  -25.4141  -15.1909   20.4036 N   0  0  0  0  0  0
  -31.5859  -15.2104   20.1402 O   0  0  0  0  0  0
  -21.6626   -6.8867   21.4246 O   0  0  0  0  0  0
  -22.3485  -14.5517   20.6734 O   0  0  0  0  0  0
  -24.6508  -31.8357   23.1766 C   0  0  0  0  0  0
  -25.9237  -32.4655   23.8200 C   0  0  1  0  0  0
  -27.2123  -27.0304   20.2310 C   0  0  0  0  0  0
  -25.5952  -33.8469   24.2141 N   0  0  0  0  0  0
  -23.4623  -30.4510   21.5219 C   0  0  2  0  0  0
  -24.9180  -28.8445   20.1227 C   0  0  0  0  0  0
  -22.7623  -29.4510   22.4776 C   0  0  0  0  0  0
  -18.0321  -28.1453   22.8483 C   0  0  0  0  0  0
  -24.1473  -36.7233   23.2638 C   0  0  0  0  0  0
  -26.0189  -30.6833   21.3871 C   0  0  0  0  0  0
  -26.0934  -29.2750   20.7498 C   0  0  0  0  0  0
  -27.2443  -28.3867   20.7788 C   0  0  0  0  0  0
  -26.0115  -26.7202   19.5578 C   0  0  0  0  0  0
  -24.8918  -27.5854   19.5086 C   0  0  0  0  0  0
  -23.7019  -29.7662   20.1463 C   0  0  0  0  0  0
  -25.4109  -36.3046   24.0314 C   0  0  1  0  0  0
  -20.5943  -28.3776   23.1218 C   0  0  2  0  0  0
  -20.6791  -26.9467   22.5399 C   0  0  0  0  0  0
  -19.5755  -26.6421   21.5226 C   0  0  0  0  0  0
  -18.1948  -26.7993   22.1640 C   0  0  0  0  0  0
  -19.1581  -28.8931   23.2850 C   0  0  0  0  0  0
  -18.9519  -30.1525   23.8875 C   0  0  0  0  0  0
  -17.6516  -30.6638   24.0596 C   0  0  0  0  0  0
  -25.9069  -34.9388   23.5044 C   0  0  0  0  0  0
  -16.5382  -29.9153   23.6364 C   0  0  0  0  0  0
  -16.7308  -28.6581   23.0368 C   0  0  0  0  0  0
  -26.4548  -31.6567   25.0644 C   0  0  0  0  0  0
  -25.3719  -31.3791   26.1338 C   0  0  0  0  0  0
  -27.0385  -30.2949   24.6234 C   0  0  0  0  0  0
  -27.6056  -32.4330   25.7447 C   0  0  0  0  0  0
  -27.5569  -37.1786   24.8479 C   0  0  0  0  0  0
  -21.4292  -29.3079   22.3575 N   0  0  0  0  0  0
  -26.4284  -37.3750   23.9419 N   0  0  0  0  0  0
  -24.7303  -31.0141   22.0846 N   0  0  0  0  0  0
  -23.4217  -28.8043   23.2945 O   0  0  0  0  0  0
  -28.2633  -26.0167   20.2078 O   0  0  0  0  0  0
  -26.5661  -34.8918   22.4619 O   0  0  0  0  0  0
  -23.5613  -32.1249   23.6964 O   0  0  0  0  0  0
  -27.7600  -18.0075   20.9272 C   0  0  0  0  0  0
  -29.1395  -17.6619   20.7378 C   0  0  0  0  0  0
  -27.6092  -19.3866   20.9216 C   0  0  0  0  0  0
  -28.3303  -23.0437   20.2409 C   0  0  0  0  0  0
  -29.1086  -21.6510   20.8440 C   0  0  0  0  0  0
  -28.2666  -24.5945   20.9413 C   0  0  0  0  0  0
  -29.7641  -18.9305   20.6133 N   0  0  0  0  0  0
  -28.8218  -20.0499   20.7078 N   0  0  0  0  0  0
  -26.4453  -20.1155   21.1472 N   0  0  0  0  0  0
  -29.4832  -16.1242   20.8162 N   0  0  0  0  0  0
  -27.6987  -22.9072   19.1858 O   0  0  0  0  0  0
  -31.4808  -12.8920   19.2253 H   0  0  0  0  0  0
  -30.5254  -11.7173   20.0697 H   0  0  0  0  0  0
  -29.8938  -11.7775   17.6291 H   0  0  0  0  0  0
  -29.5937  -13.4976   17.7352 H   0  0  0  0  0  0
  -28.0023  -11.2648   19.0307 H   0  0  0  0  0  0
  -27.4137  -12.4068   17.8474 H   0  0  0  0  0  0
  -27.6014  -14.2420   19.4344 H   0  0  0  0  0  0
  -28.7730  -12.2416   21.4259 H   0  0  0  0  0  0
  -28.3197  -13.8733   21.8337 H   0  0  0  0  0  0
  -25.2743   -9.5656   22.4748 H   0  0  0  0  0  0
  -23.9997   -7.4602   22.7436 H   0  0  0  0  0  0
  -21.0849   -8.8760   19.8930 H   0  0  0  0  0  0
  -22.3703  -10.9657   19.6151 H   0  0  0  0  0  0
  -21.2010   -7.6148   23.9733 H   0  0  0  0  0  0
  -21.1470   -6.0516   25.9093 H   0  0  0  0  0  0
  -22.0603   -2.7610   23.2860 H   0  0  0  0  0  0
  -22.4066  -11.9839   22.4813 H   0  0  0  0  0  0
  -21.1060  -13.1222   22.2674 H   0  0  0  0  0  0
  -24.6339  -15.8345   20.4756 H   0  0  0  0  0  0
  -26.2318  -15.6084   19.9842 H   0  0  0  0  0  0
  -26.7272  -32.5259   23.0919 H   0  0  0  0  0  0
  -25.0126  -33.9571   25.0328 H   0  0  0  0  0  0
  -22.7708  -31.2766   21.3522 H   0  0  0  0  0  0
  -23.3746  -35.9550   23.3322 H   0  0  0  0  0  0
  -24.3562  -36.8846   22.2047 H   0  0  0  0  0  0
  -23.7223  -37.6419   23.6660 H   0  0  0  0  0  0
  -26.1745  -31.4198   20.5947 H   0  0  0  0  0  0
  -26.8904  -30.7565   22.0270 H   0  0  0  0  0  0
  -28.1435  -28.7199   21.2801 H   0  0  0  0  0  0
  -25.9240  -25.7519   19.0816 H   0  0  0  0  0  0
  -23.9957  -27.2544   19.0035 H   0  0  0  0  0  0
  -23.8684  -30.5307   19.3887 H   0  0  0  0  0  0
  -22.8132  -29.2206   19.8224 H   0  0  0  0  0  0
  -25.1325  -36.1838   25.0806 H   0  0  0  0  0  0
  -21.0050  -28.3372   24.1345 H   0  0  0  0  0  0
  -20.5710  -26.2365   23.3661 H   0  0  0  0  0  0
  -21.6654  -26.7482   22.1185 H   0  0  0  0  0  0
  -19.6890  -25.6338   21.1286 H   0  0  0  0  0  0
  -19.6684  -27.3215   20.6768 H   0  0  0  0  0  0
  -17.4214  -26.6760   21.4058 H   0  0  0  0  0  0
  -18.0321  -26.0182   22.9077 H   0  0  0  0  0  0
  -19.7968  -30.7367   24.2202 H   0  0  0  0  0  0
  -17.5055  -31.6309   24.5240 H   0  0  0  0  0  0
  -15.5386  -30.3063   23.7690 H   0  0  0  0  0  0
  -15.8704  -28.0910   22.7062 H   0  0  0  0  0  0
  -24.5901  -30.7138   25.7689 H   0  0  0  0  0  0
  -24.8895  -32.2975   26.4665 H   0  0  0  0  0  0
  -25.7982  -30.9047   27.0185 H   0  0  0  0  0  0
  -26.2987  -29.6665   24.1234 H   0  0  0  0  0  0
  -27.4015  -29.7262   25.4811 H   0  0  0  0  0  0
  -27.8916  -30.4196   23.9546 H   0  0  0  0  0  0
  -27.2656  -33.3690   26.1895 H   0  0  0  0  0  0
  -28.3934  -32.6774   25.0315 H   0  0  0  0  0  0
  -28.0617  -31.8503   26.5475 H   0  0  0  0  0  0
  -28.2611  -38.0063   24.7520 H   0  0  0  0  0  0
  -28.1051  -36.2591   24.6335 H   0  0  0  0  0  0
  -27.2282  -37.1479   25.8884 H   0  0  0  0  0  0
  -20.9509  -29.8833   21.6796 H   0  0  0  0  0  0
  -26.0144  -38.2803   24.1441 H   0  0  0  0  0  0
  -26.9491  -17.3146   21.0994 H   0  0  0  0  0  0
  -29.1156  -21.8285   21.9190 H   0  0  0  0  0  0
  -30.1553  -21.7784   20.5669 H   0  0  0  0  0  0
  -29.1385  -24.6236   21.5966 H   0  0  0  0  0  0
  -27.4221  -24.5892   21.6317 H   0  0  0  0  0  0
  -25.5315  -19.7042   21.3111 H   0  0  0  0  0  0
  -26.4108  -21.1301   21.1523 H   0  0  0  0  0  0
  -28.6732  -15.6370   21.1600 H   0  0  0  0  0  0
  1 25  1  0  0  0
  1 30  2  0  0  0
  1 80  1  0  0  0
  2  3  1  0  0  0
  2 25  1  0  0  0
  2 82  1  0  0  0
  2 83  1  0  0  0
  3  4  1  0  0  0
  3 84  1  0  0  0
  3 85  1  0  0  0
  4  5  1  0  0  0
  4 86  1  0  0  0
  4 87  1  0  0  0
  5  6  1  0  0  0
  5 26  1  0  0  0
  5 88  1  0  0  0
  6 25  1  0  0  0
  6 89  1  0  0  0
  6 90  1  0  0  0
  7  8  2  0  0  0
  7 26  1  0  0  0
  7 29  1  0  0  0
  8  9  1  0  0  0
  8 22  1  0  0  0
  9 10  1  0  0  0
  9 27  2  0  0  0
 10 11  2  0  0  0
 10 15  1  0  0  0
 11 12  1  0  0  0
 11 91  1  0  0  0
 12 13  2  0  0  0
 12 92  1  0  0  0
 13 14  1  0  0  0
 13 31  1  0  0  0
 14 15  2  0  0  0
 14 93  1  0  0  0
 15 94  1  0  0  0
 16 17  2  0  0  0
 16 21  1  0  0  0
 16 31  1  0  0  0
 17 18  1  0  0  0
 17 95  1  0  0  0
 18 19  2  0  0  0
 18 96  1  0  0  0
 19 20  1  0  0  0
 19 24  1  0  0  0
 20 21  2  0  0  0
 20 97  1  0  0  0
 21 23  1  0  0  0
 22 28  1  0  0  0
 22 32  2  0  0  0
 26 27  1  0  0  0
 28 98  1  0  0  0
 28 99  1  0  0  0
 29100  1  0  0  0
 29101  1  0  0  0
 33 34  1  0  0  0
 33 66  1  0  0  0
 33 70  2  0  0  0
 34 36  1  0  0  0
 34 59  1  0  0  0
 34102  1  0  0  0
 35 44  2  0  0  0
 35 45  1  0  0  0
 35 68  1  0  0  0
 36 56  1  0  0  0
 36103  1  0  0  0
 37 39  1  0  0  0
 37 47  1  0  0  0
 37 66  1  0  0  0
 37104  1  0  0  0
 38 43  2  0  0  0
 38 46  1  0  0  0
 38 47  1  0  0  0
 39 64  1  0  0  0
 39 67  2  0  0  0
 40 52  1  0  0  0
 40 53  2  0  0  0
 40 58  1  0  0  0
 41105  1  0  0  0
 41106  1  0  0  0
 41107  1  0  0  0
 41 48  1  0  0  0
 42 43  1  0  0  0
 42 66  1  0  0  0
 42108  1  0  0  0
 42109  1  0  0  0
 43 44  1  0  0  0
 44110  1  0  0  0
 45 46  2  0  0  0
 45111  1  0  0  0
 46112  1  0  0  0
 47113  1  0  0  0
 47114  1  0  0  0
 48 56  1  0  0  0
 48 65  1  0  0  0
 48115  1  0  0  0
 49 50  1  0  0  0
 49 53  1  0  0  0
 49 64  1  0  0  0
 49116  1  0  0  0
 50 51  1  0  0  0
 50117  1  0  0  0
 50118  1  0  0  0
 51 52  1  0  0  0
 51119  1  0  0  0
 51120  1  0  0  0
 52121  1  0  0  0
 52122  1  0  0  0
 53 54  1  0  0  0
 54 55  2  0  0  0
 54123  1  0  0  0
 55 57  1  0  0  0
 55124  1  0  0  0
 56 69  2  0  0  0
 57 58  2  0  0  0
 57125  1  0  0  0
 58126  1  0  0  0
 59 60  1  0  0  0
 59 61  1  0  0  0
 59 62  1  0  0  0
 60127  1  0  0  0
 60128  1  0  0  0
 60129  1  0  0  0
 61130  1  0  0  0
 61131  1  0  0  0
 61132  1  0  0  0
 62133  1  0  0  0
 62134  1  0  0  0
 62135  1  0  0  0
 63 65  1  0  0  0
 63136  1  0  0  0
 63137  1  0  0  0
 63138  1  0  0  0
 64139  1  0  0  0
 65140  1  0  0  0
 68 76  1  0  0  0
 71 72  1  0  0  0
 71 73  2  0  0  0
 71141  1  0  0  0
 72 77  2  0  0  0
 72 80  1  0  0  0
 73 78  1  0  0  0
 73 79  1  0  0  0
 74 75  1  0  0  0
 74 76  1  0  0  0
 74 81  2  0  0  0
 75 78  1  0  0  0
 75142  1  0  0  0
 75143  1  0  0  0
 76144  1  0  0  0
 76145  1  0  0  0
 77 78  1  0  0  0
 79146  1  0  0  0
 79147  1  0  0  0
 80148  1  0  0  0
M  ISO  4   1 100  68 101  76 101  80 100
M  END
> <chiral flag>
0

> <version>
0

> <s_m_source_file>
/data/baiqing/PycharmProjects/Reinvent-master-3.2/result/LINK_invent/BTK/process_docking_weight1_custom_product_contain_oxygen_bond_distance_aromatic_linkinvent_7_9_3/rearranged_h_0162.sdf

> <i_m_source_file_index>
41

> <r_mmod_Potential_Energy-OPLS-2005>
749.24267578125

> <r_mmod_Stretch_Energy-OPLS-2005>
375.438201904297

> <r_mmod_Bend_Energy-OPLS-2005>
397.973846435547

> <r_mmod_Torsional_Energy-OPLS-2005>
241.942886352539

> <r_mmod_Improper_Torsional_Energy-OPLS-2005>
5.39255809783936

> <r_mmod_Van_der_Waal_Energy-OPLS-2005>
102.006401062012

> <r_mmod_Electrostatic_Energy-OPLS-2005>
-401.02783203125

> <r_mmod_Solvation_Energy-OPLS-2005>
-262.600250244141

> <b_mmod_Minimization_Converged-OPLS-2005>
0

> <r_mmod_RMS_Derivative-OPLS-2005>
7.24410390853882

$$$$
41
                    3D
 Structure written by MMmdl.
149157  0  0  1  0            999 V2000
  -30.6272  -14.7191   20.4291 C   0  0  0  0  0  0
  -30.4227  -12.4235   19.4914 C   0  0  0  0  0  0
  -29.5104  -12.4757   18.2459 C   0  0  0  0  0  0
  -28.0302  -12.3324   18.6500 C   0  0  0  0  0  0
  -27.6409  -13.2343   19.8537 C   0  0  2  0  0  0
  -28.6829  -13.1618   20.9918 C   0  0  0  0  0  0
  -25.2472  -13.8204   20.5698 C   0  0  0  0  0  0
  -24.1765  -13.0438   20.9179 C   0  0  0  0  0  0
  -24.6356  -11.6917   20.8715 C   0  0  0  0  0  0
  -23.9024  -10.4295   21.0386 C   0  0  0  0  0  0
  -24.3583   -9.4213   21.9155 C   0  0  0  0  0  0
  -23.6266   -8.2247   22.0737 C   0  0  0  0  0  0
  -22.4254   -8.0256   21.3533 C   0  0  0  0  0  0
  -21.9876   -9.0223   20.4642 C   0  0  0  0  0  0
  -22.7189  -10.2114   20.3048 C   0  0  0  0  0  0
  -21.6854   -6.0695   22.5268 C   0  0  0  0  0  0
  -21.4022   -6.5613   23.8193 C   0  0  0  0  0  0
  -21.3675   -5.6779   24.9161 C   0  0  0  0  0  0
  -21.6044   -4.3039   24.7223 C   0  0  0  0  0  0
  -21.8815   -3.8115   23.4351 C   0  0  0  0  0  0
  -21.9184   -4.6921   22.3399 C   0  0  0  0  0  0
  -22.7789  -13.5208   21.1872 C   0  0  0  0  0  0
  -22.1649   -4.2096   21.0980 F   0  0  0  0  0  0
  -21.5640   -3.4533   25.7746 F   0  0  0  0  0  0
  -29.9890  -13.4990   20.4161 N   0  0  0  0  0  0
  -26.2916  -12.9426   20.3299 N   0  0  0  0  0  0
  -25.9287  -11.6554   20.5737 N   0  0  0  0  0  0
  -22.0459  -12.8197   22.0454 N   0  0  0  0  0  0
  -25.4135  -15.1938   20.4144 N   0  0  0  0  0  0
  -31.8196  -14.7565   20.1074 O   0  0  0  0  0  0
  -21.6640   -6.8838   21.4228 O   0  0  0  0  0  0
  -22.3469  -14.5514   20.6728 O   0  0  0  0  0  0
  -24.6308  -31.8536   23.2012 C   0  0  0  0  0  0
  -25.9154  -32.4726   23.8323 C   0  0  1  0  0  0
  -27.1941  -27.2509   20.1132 C   0  0  0  0  0  0
  -25.5951  -33.8533   24.2232 N   0  0  0  0  0  0
  -23.4238  -30.4776   21.5503 C   0  0  2  0  0  0
  -24.8663  -28.9386   20.1051 C   0  0  0  0  0  0
  -22.7507  -29.4559   22.4977 C   0  0  0  0  0  0
  -18.0272  -28.1376   22.8500 C   0  0  0  0  0  0
  -24.1486  -36.7228   23.2640 C   0  0  0  0  0  0
  -25.9752  -30.7547   21.3944 C   0  0  0  0  0  0
  -26.0407  -29.3850   20.7250 C   0  0  0  0  0  0
  -27.2075  -28.5512   20.7233 C   0  0  0  0  0  0
  -26.0035  -26.9006   19.4294 C   0  0  0  0  0  0
  -24.8554  -27.7066   19.4448 C   0  0  0  0  0  0
  -23.6361  -29.8197   20.1642 C   0  0  0  0  0  0
  -25.4124  -36.3032   24.0316 C   0  0  1  0  0  0
  -20.5877  -28.3657   23.1308 C   0  0  2  0  0  0
  -20.6771  -26.9382   22.5425 C   0  0  0  0  0  0
  -19.5729  -26.6374   21.5236 C   0  0  0  0  0  0
  -18.1915  -26.7918   22.1646 C   0  0  0  0  0  0
  -19.1534  -28.8846   23.2885 C   0  0  0  0  0  0
  -18.9450  -30.1462   23.8865 C   0  0  0  0  0  0
  -17.6453  -30.6590   24.0548 C   0  0  0  0  0  0
  -25.9080  -34.9413   23.5070 C   0  0  0  0  0  0
  -16.5340  -29.9069   23.6356 C   0  0  0  0  0  0
  -16.7263  -28.6491   23.0375 C   0  0  0  0  0  0
  -26.4526  -31.6569   25.0718 C   0  0  0  0  0  0
  -25.3744  -31.3745   26.1440 C   0  0  0  0  0  0
  -27.0383  -30.2960   24.6264 C   0  0  0  0  0  0
  -27.6039  -32.4374   25.7497 C   0  0  0  0  0  0
  -27.5576  -37.1763   24.8477 C   0  0  0  0  0  0
  -21.4216  -29.2981   22.3698 N   0  0  0  0  0  0
  -26.4287  -37.3747   23.9422 N   0  0  0  0  0  0
  -24.6944  -31.0486   22.1012 N   0  0  0  0  0  0
  -23.4217  -28.8122   23.3088 O   0  0  0  0  0  0
  -28.2521  -26.3113   20.2079 O   0  0  0  0  0  0
  -26.5664  -34.8894   22.4646 O   0  0  0  0  0  0
  -23.5472  -32.1392   23.7304 O   0  0  0  0  0  0
  -29.5842  -18.4901   20.4922 C   0  0  0  0  0  0
  -29.5680  -19.1787   21.6969 C   0  0  0  0  0  0
  -28.9745  -21.0206   20.3790 C   0  0  0  0  0  0
  -30.1397  -17.1195   20.0260 C   0  0  0  0  0  0
  -28.7521  -23.6610   20.5086 C   0  0  0  0  0  0
  -29.9901  -18.6185   23.0209 C   0  0  0  0  0  0
  -27.9644  -24.8776   19.8323 C   0  0  0  0  0  0
  -29.2194  -20.5675   21.6230 N   0  0  0  0  0  0
  -28.5407  -22.3849   20.0110 N   0  0  0  0  0  0
  -29.8939  -15.8868   20.6231 N   0  0  0  0  0  0
  -30.8414  -17.1810   19.0102 O   0  0  0  0  0  0
  -29.5202  -23.8858   21.4494 O   0  0  0  0  0  0
  -29.1277  -19.6586   19.2192 S   0  0  0  0  0  0
  -31.4671  -12.5198   19.1906 H   0  0  0  0  0  0
  -30.3463  -11.4524   19.9865 H   0  0  0  0  0  0
  -29.7833  -11.6768   17.5524 H   0  0  0  0  0  0
  -29.6614  -13.4136   17.7097 H   0  0  0  0  0  0
  -27.8668  -11.2868   18.9089 H   0  0  0  0  0  0
  -27.3828  -12.5362   17.7972 H   0  0  0  0  0  0
  -27.6394  -14.2583   19.4791 H   0  0  0  0  0  0
  -28.7083  -12.1623   21.4266 H   0  0  0  0  0  0
  -28.4274  -13.8446   21.8032 H   0  0  0  0  0  0
  -25.2717   -9.5701   22.4722 H   0  0  0  0  0  0
  -23.9953   -7.4667   22.7495 H   0  0  0  0  0  0
  -21.0773   -8.8729   19.8994 H   0  0  0  0  0  0
  -22.3590  -10.9630   19.6170 H   0  0  0  0  0  0
  -21.2030   -7.6130   23.9671 H   0  0  0  0  0  0
  -21.1509   -6.0527   25.9062 H   0  0  0  0  0  0
  -22.0585   -2.7569   23.2876 H   0  0  0  0  0  0
  -22.4076  -11.9850   22.4832 H   0  0  0  0  0  0
  -21.1103  -13.1250   22.2730 H   0  0  0  0  0  0
  -24.6424  -15.8421   20.5304 H   0  0  0  0  0  0
  -26.2528  -15.6355   20.0641 H   0  0  0  0  0  0
  -26.7187  -32.5341   23.1038 H   0  0  0  0  0  0
  -25.0073  -33.9678   25.0357 H   0  0  0  0  0  0
  -22.7172  -31.2973   21.4120 H   0  0  0  0  0  0
  -23.3765  -35.9544   23.3317 H   0  0  0  0  0  0
  -24.3552  -36.8834   22.2044 H   0  0  0  0  0  0
  -23.7232  -37.6422   23.6669 H   0  0  0  0  0  0
  -26.1416  -31.5202   20.6358 H   0  0  0  0  0  0
  -26.8440  -30.7797   22.0408 H   0  0  0  0  0  0
  -28.1024  -28.8750   21.2371 H   0  0  0  0  0  0
  -25.9031  -25.9792   18.8779 H   0  0  0  0  0  0
  -23.9621  -27.3719   18.9342 H   0  0  0  0  0  0
  -23.7436  -30.5947   19.4050 H   0  0  0  0  0  0
  -22.7549  -29.2441   19.8727 H   0  0  0  0  0  0
  -25.1311  -36.1848   25.0806 H   0  0  0  0  0  0
  -20.9947  -28.3227   24.1443 H   0  0  0  0  0  0
  -20.5713  -26.2250   23.3611 H   0  0  0  0  0  0
  -21.6633  -26.7446   22.1175 H   0  0  0  0  0  0
  -19.6892  -25.6300   21.1232 H   0  0  0  0  0  0
  -19.6665  -27.3219   20.6791 H   0  0  0  0  0  0
  -17.4188  -26.6667   21.4049 H   0  0  0  0  0  0
  -18.0304  -26.0062   22.9038 H   0  0  0  0  0  0
  -19.7926  -30.7295   24.2208 H   0  0  0  0  0  0
  -17.5000  -31.6270   24.5145 H   0  0  0  0  0  0
  -15.5342  -30.2950   23.7714 H   0  0  0  0  0  0
  -15.8654  -28.0797   22.7118 H   0  0  0  0  0  0
  -24.5890  -30.7131   25.7781 H   0  0  0  0  0  0
  -24.8983  -32.2920   26.4882 H   0  0  0  0  0  0
  -25.8045  -30.8894   27.0205 H   0  0  0  0  0  0
  -26.2979  -29.6699   24.1260 H   0  0  0  0  0  0
  -27.3994  -29.7240   25.4826 H   0  0  0  0  0  0
  -27.8904  -30.4199   23.9575 H   0  0  0  0  0  0
  -27.2571  -33.3660   26.2049 H   0  0  0  0  0  0
  -28.3836  -32.6980   25.0327 H   0  0  0  0  0  0
  -28.0728  -31.8540   26.5430 H   0  0  0  0  0  0
  -28.2599  -38.0061   24.7531 H   0  0  0  0  0  0
  -28.1058  -36.2582   24.6297 H   0  0  0  0  0  0
  -27.2273  -37.1400   25.8877 H   0  0  0  0  0  0
  -20.9437  -29.8606   21.6792 H   0  0  0  0  0  0
  -26.0136  -38.2798   24.1474 H   0  0  0  0  0  0
  -29.4454  -17.7056   23.2607 H   0  0  0  0  0  0
  -29.8243  -19.3220   23.8360 H   0  0  0  0  0  0
  -31.0537  -18.3734   23.0158 H   0  0  0  0  0  0
  -26.9366  -24.6259   20.0877 H   0  0  0  0  0  0
  -28.0597  -24.7897   18.7477 H   0  0  0  0  0  0
  -27.9763  -22.3980   19.1740 H   0  0  0  0  0  0
  -29.0598  -15.8183   21.1822 H   0  0  0  0  0  0
  1 25  1  0  0  0
  1 30  2  0  0  0
  1 80  1  0  0  0
  2  3  1  0  0  0
  2 25  1  0  0  0
  2 84  1  0  0  0
  2 85  1  0  0  0
  3  4  1  0  0  0
  3 86  1  0  0  0
  3 87  1  0  0  0
  4  5  1  0  0  0
  4 88  1  0  0  0
  4 89  1  0  0  0
  5  6  1  0  0  0
  5 26  1  0  0  0
  5 90  1  0  0  0
  6 25  1  0  0  0
  6 91  1  0  0  0
  6 92  1  0  0  0
  7  8  2  0  0  0
  7 26  1  0  0  0
  7 29  1  0  0  0
  8  9  1  0  0  0
  8 22  1  0  0  0
  9 10  1  0  0  0
  9 27  2  0  0  0
 10 11  2  0  0  0
 10 15  1  0  0  0
 11 12  1  0  0  0
 11 93  1  0  0  0
 12 13  2  0  0  0
 12 94  1  0  0  0
 13 14  1  0  0  0
 13 31  1  0  0  0
 14 15  2  0  0  0
 14 95  1  0  0  0
 15 96  1  0  0  0
 16 17  2  0  0  0
 16 21  1  0  0  0
 16 31  1  0  0  0
 17 18  1  0  0  0
 17 97  1  0  0  0
 18 19  2  0  0  0
 18 98  1  0  0  0
 19 20  1  0  0  0
 19 24  1  0  0  0
 20 21  2  0  0  0
 20 99  1  0  0  0
 21 23  1  0  0  0
 22 28  1  0  0  0
 22 32  2  0  0  0
 26 27  1  0  0  0
 28100  1  0  0  0
 28101  1  0  0  0
 29102  1  0  0  0
 29103  1  0  0  0
 33 34  1  0  0  0
 33 66  1  0  0  0
 33 70  2  0  0  0
 34 36  1  0  0  0
 34 59  1  0  0  0
 34104  1  0  0  0
 35 44  2  0  0  0
 35 45  1  0  0  0
 35 68  1  0  0  0
 36 56  1  0  0  0
 36105  1  0  0  0
 37 39  1  0  0  0
 37 47  1  0  0  0
 37 66  1  0  0  0
 37106  1  0  0  0
 38 43  2  0  0  0
 38 46  1  0  0  0
 38 47  1  0  0  0
 39 64  1  0  0  0
 39 67  2  0  0  0
 40 52  1  0  0  0
 40 53  2  0  0  0
 40 58  1  0  0  0
 41107  1  0  0  0
 41108  1  0  0  0
 41109  1  0  0  0
 41 48  1  0  0  0
 42 43  1  0  0  0
 42 66  1  0  0  0
 42110  1  0  0  0
 42111  1  0  0  0
 43 44  1  0  0  0
 44112  1  0  0  0
 45 46  2  0  0  0
 45113  1  0  0  0
 46114  1  0  0  0
 47115  1  0  0  0
 47116  1  0  0  0
 48 56  1  0  0  0
 48 65  1  0  0  0
 48117  1  0  0  0
 49 50  1  0  0  0
 49 53  1  0  0  0
 49 64  1  0  0  0
 49118  1  0  0  0
 50 51  1  0  0  0
 50119  1  0  0  0
 50120  1  0  0  0
 51 52  1  0  0  0
 51121  1  0  0  0
 51122  1  0  0  0
 52123  1  0  0  0
 52124  1  0  0  0
 53 54  1  0  0  0
 54 55  2  0  0  0
 54125  1  0  0  0
 55 57  1  0  0  0
 55126  1  0  0  0
 56 69  2  0  0  0
 57 58  2  0  0  0
 57127  1  0  0  0
 58128  1  0  0  0
 59 60  1  0  0  0
 59 61  1  0  0  0
 59 62  1  0  0  0
 60129  1  0  0  0
 60130  1  0  0  0
 60131  1  0  0  0
 61132  1  0  0  0
 61133  1  0  0  0
 61134  1  0  0  0
 62135  1  0  0  0
 62136  1  0  0  0
 62137  1  0  0  0
 63 65  1  0  0  0
 63138  1  0  0  0
 63139  1  0  0  0
 63140  1  0  0  0
 64141  1  0  0  0
 65142  1  0  0  0
 68 77  1  0  0  0
 71 72  2  0  0  0
 71 74  1  0  0  0
 71 83  1  0  0  0
 72 76  1  0  0  0
 72 78  1  0  0  0
 73 78  2  0  0  0
 73 79  1  0  0  0
 73 83  1  0  0  0
 74 80  1  0  0  0
 74 81  2  0  0  0
 75 77  1  0  0  0
 75 79  1  0  0  0
 75 82  2  0  0  0
 76143  1  0  0  0
 76144  1  0  0  0
 76145  1  0  0  0
 77146  1  0  0  0
 77147  1  0  0  0
 79148  1  0  0  0
 80149  1  0  0  0
M  ISO  4   1 100  68 101  77 101  80 100
M  END
> <chiral flag>
0

> <version>
0

> <s_m_source_file>
/data/baiqing/PycharmProjects/Reinvent-master-3.2/result/LINK_invent/BTK/process_docking_weight1_custom_product_contain_oxygen_bond_distance_aromatic_linkinvent_7_9_3/rearranged_h_0162.sdf

> <i_m_source_file_index>
42

> <r_mmod_Potential_Energy-OPLS-2005>
23.7047233581543

> <r_mmod_Stretch_Energy-OPLS-2005>
108.158386230469

> <r_mmod_Bend_Energy-OPLS-2005>
177.867614746094

> <r_mmod_Torsional_Energy-OPLS-2005>
260.207244873047

> <r_mmod_Improper_Torsional_Energy-OPLS-2005>
5.86230564117432

> <r_mmod_Van_der_Waal_Energy-OPLS-2005>
130.202911376953

> <r_mmod_Electrostatic_Energy-OPLS-2005>
-466.878753662109

> <r_mmod_Solvation_Energy-OPLS-2005>
-281.194488525391

> <b_mmod_Minimization_Converged-OPLS-2005>
0

> <r_mmod_RMS_Derivative-OPLS-2005>
3.18651080131531

$$$$
42
                    3D
 Structure written by MMmdl.
166175  0  0  1  0            999 V2000
  -30.7591  -14.4422   20.5471 C   0  0  0  0  0  0
  -30.4030  -12.2811   19.4322 C   0  0  0  0  0  0
  -29.4882  -12.4859   18.2092 C   0  0  0  0  0  0
  -28.0106  -12.3593   18.6218 C   0  0  0  0  0  0
  -27.6605  -13.2139   19.8714 C   0  0  2  0  0  0
  -28.7047  -13.0326   20.9978 C   0  0  0  0  0  0
  -25.2596  -13.8186   20.5693 C   0  0  0  0  0  0
  -24.1852  -13.0447   20.9177 C   0  0  0  0  0  0
  -24.6419  -11.6918   20.8766 C   0  0  0  0  0  0
  -23.9087  -10.4298   21.0431 C   0  0  0  0  0  0
  -24.3646   -9.4211   21.9207 C   0  0  0  0  0  0
  -23.6311   -8.2254   22.0766 C   0  0  0  0  0  0
  -22.4297   -8.0296   21.3557 C   0  0  0  0  0  0
  -21.9939   -9.0265   20.4645 C   0  0  0  0  0  0
  -22.7273  -10.2130   20.3064 C   0  0  0  0  0  0
  -21.6848   -6.0752   22.5283 C   0  0  0  0  0  0
  -21.4002   -6.5653   23.8220 C   0  0  0  0  0  0
  -21.3660   -5.6791   24.9177 C   0  0  0  0  0  0
  -21.6044   -4.3057   24.7216 C   0  0  0  0  0  0
  -21.8822   -3.8151   23.4340 C   0  0  0  0  0  0
  -21.9198   -4.6977   22.3407 C   0  0  0  0  0  0
  -22.7865  -13.5243   21.1815 C   0  0  0  0  0  0
  -22.1665   -4.2169   21.0984 F   0  0  0  0  0  0
  -21.5635   -3.4532   25.7730 F   0  0  0  0  0  0
  -30.0360  -13.2959   20.4314 N   0  0  0  0  0  0
  -26.3043  -12.9365   20.3389 N   0  0  0  0  0  0
  -25.9350  -11.6518   20.5815 N   0  0  0  0  0  0
  -22.0514  -12.8239   22.0375 N   0  0  0  0  0  0
  -25.4316  -15.1890   20.4062 N   0  0  0  0  0  0
  -31.8855  -14.5563   20.0624 O   0  0  0  0  0  0
  -21.6651   -6.8893   21.4253 O   0  0  0  0  0  0
  -22.3552  -14.5568   20.6680 O   0  0  0  0  0  0
  -24.6127  -31.8691   23.2133 C   0  0  0  0  0  0
  -25.9027  -32.4828   23.8397 C   0  0  1  0  0  0
  -27.2291  -27.4296   20.0758 C   0  0  0  0  0  0
  -25.5903  -33.8624   24.2339 N   0  0  0  0  0  0
  -23.3970  -30.4939   21.5584 C   0  0  2  0  0  0
  -24.8406  -28.9665   20.1176 C   0  0  0  0  0  0
  -22.7386  -29.4631   22.5025 C   0  0  0  0  0  0
  -18.0242  -28.1356   22.8518 C   0  0  0  0  0  0
  -24.1487  -36.7287   23.2641 C   0  0  0  0  0  0
  -25.9308  -30.8251   21.3744 C   0  0  0  0  0  0
  -26.0015  -29.4601   20.7227 C   0  0  0  0  0  0
  -27.1903  -28.6932   20.7145 C   0  0  0  0  0  0
  -26.0453  -26.9698   19.4433 C   0  0  0  0  0  0
  -24.8578  -27.7170   19.4823 C   0  0  0  0  0  0
  -23.6016  -29.8303   20.1726 C   0  0  0  0  0  0
  -25.4108  -36.3089   24.0337 C   0  0  1  0  0  0
  -20.5849  -28.3586   23.1359 C   0  0  2  0  0  0
  -20.6760  -26.9332   22.5430 C   0  0  0  0  0  0
  -19.5729  -26.6355   21.5239 C   0  0  0  0  0  0
  -18.1891  -26.7921   22.1612 C   0  0  0  0  0  0
  -19.1509  -28.8790   23.2937 C   0  0  0  0  0  0
  -18.9443  -30.1426   23.8893 C   0  0  0  0  0  0
  -17.6450  -30.6585   24.0548 C   0  0  0  0  0  0
  -25.9026  -34.9468   23.5122 C   0  0  0  0  0  0
  -16.5327  -29.9071   23.6366 C   0  0  0  0  0  0
  -16.7232  -28.6489   23.0377 C   0  0  0  0  0  0
  -26.4466  -31.6585   25.0703 C   0  0  0  0  0  0
  -25.3737  -31.3706   26.1453 C   0  0  0  0  0  0
  -27.0279  -30.3027   24.6047 C   0  0  0  0  0  0
  -27.6022  -32.4296   25.7486 C   0  0  0  0  0  0
  -27.5575  -37.1806   24.8467 C   0  0  0  0  0  0
  -21.4114  -29.2971   22.3775 N   0  0  0  0  0  0
  -26.4285  -37.3777   23.9411 N   0  0  0  0  0  0
  -24.6653  -31.0765   22.1058 N   0  0  0  0  0  0
  -23.4195  -28.8154   23.3022 O   0  0  0  0  0  0
  -28.4159  -26.7113   20.0975 O   0  0  0  0  0  0
  -26.5578  -34.8913   22.4682 O   0  0  0  0  0  0
  -23.5331  -32.1445   23.7541 O   0  0  0  0  0  0
  -31.5937  -19.5001   21.2001 C   0  0  0  0  0  0
  -32.0042  -17.1112   21.4194 C   0  0  0  0  0  0
  -30.2121  -19.2837   20.9582 C   0  0  0  0  0  0
  -30.6447  -16.8416   21.1433 C   0  0  0  0  0  0
  -32.4743  -18.4311   21.4331 C   0  0  0  0  0  0
  -29.7595  -17.9259   20.9357 C   0  0  0  0  0  0
  -29.2570  -20.4377   20.7608 C   0  0  0  0  0  0
  -29.0161  -22.9323   20.1381 C   0  0  0  0  0  0
  -29.7090  -23.7662   22.8371 C   0  0  0  0  0  0
  -29.6789  -21.8985   21.0980 C   0  0  1  0  0  0
  -29.3495  -22.2860   22.5706 C   0  0  1  0  0  0
  -29.2957  -24.4217   20.4858 C   0  0  1  0  0  0
  -30.0533  -21.3942   23.6132 C   0  0  0  0  0  0
  -28.4385  -25.3574   19.6011 C   0  0  0  0  0  0
  -28.0779  -20.2577   20.3317 N   0  0  0  0  0  0
  -30.1295  -15.5052   21.0800 N   0  0  0  0  0  0
  -28.9953  -24.6723   21.9148 N   0  3  0  0  0  0
  -33.7858  -18.6760   21.6738 F   0  0  0  0  0  0
  -28.4553  -17.6263   20.7072 F   0  0  0  0  0  0
  -31.4522  -12.3308   19.1365 H   0  0  0  0  0  0
  -30.2669  -11.2825   19.8504 H   0  0  0  0  0  0
  -29.7281  -11.7543   17.4368 H   0  0  0  0  0  0
  -29.6678  -13.4679   17.7689 H   0  0  0  0  0  0
  -27.8166  -11.3054   18.8265 H   0  0  0  0  0  0
  -27.3594  -12.6275   17.7884 H   0  0  0  0  0  0
  -27.6963  -14.2563   19.5545 H   0  0  0  0  0  0
  -28.6690  -12.0161   21.3926 H   0  0  0  0  0  0
  -28.4801  -13.6833   21.8439 H   0  0  0  0  0  0
  -25.2786   -9.5688   22.4789 H   0  0  0  0  0  0
  -24.0018   -7.4645   22.7485 H   0  0  0  0  0  0
  -21.0874   -8.8772   19.8939 H   0  0  0  0  0  0
  -22.3746  -10.9674   19.6168 H   0  0  0  0  0  0
  -21.1975   -7.6161   23.9732 H   0  0  0  0  0  0
  -21.1478   -6.0517   25.9082 H   0  0  0  0  0  0
  -22.0604   -2.7613   23.2825 H   0  0  0  0  0  0
  -22.4093  -11.9854   22.4716 H   0  0  0  0  0  0
  -21.1132  -13.1265   22.2565 H   0  0  0  0  0  0
  -24.6671  -15.8471   20.5140 H   0  0  0  0  0  0
  -26.2888  -15.6312   20.0981 H   0  0  0  0  0  0
  -26.7067  -32.5523   23.1130 H   0  0  0  0  0  0
  -25.0111  -33.9789   25.0524 H   0  0  0  0  0  0
  -22.6817  -31.3094   21.4270 H   0  0  0  0  0  0
  -23.3757  -35.9610   23.3291 H   0  0  0  0  0  0
  -24.3588  -36.8909   22.2060 H   0  0  0  0  0  0
  -23.7227  -37.6485   23.6651 H   0  0  0  0  0  0
  -26.0480  -31.5845   20.6007 H   0  0  0  0  0  0
  -26.8228  -30.8763   21.9882 H   0  0  0  0  0  0
  -28.0790  -29.0710   21.2013 H   0  0  0  0  0  0
  -25.9884  -26.0519   18.8823 H   0  0  0  0  0  0
  -23.9693  -27.3359   18.9968 H   0  0  0  0  0  0
  -23.6989  -30.6069   19.4144 H   0  0  0  0  0  0
  -22.7277  -29.2431   19.8811 H   0  0  0  0  0  0
  -25.1311  -36.1940   25.0831 H   0  0  0  0  0  0
  -20.9937  -28.3131   24.1476 H   0  0  0  0  0  0
  -20.5699  -26.2163   23.3588 H   0  0  0  0  0  0
  -21.6620  -26.7412   22.1168 H   0  0  0  0  0  0
  -19.6873  -25.6280   21.1219 H   0  0  0  0  0  0
  -19.6716  -27.3216   20.6821 H   0  0  0  0  0  0
  -17.4195  -26.6703   21.3977 H   0  0  0  0  0  0
  -18.0226  -26.0062   22.8985 H   0  0  0  0  0  0
  -19.7926  -30.7258   24.2233 H   0  0  0  0  0  0
  -17.5001  -31.6280   24.5117 H   0  0  0  0  0  0
  -15.5323  -30.2958   23.7737 H   0  0  0  0  0  0
  -15.8616  -28.0814   22.7103 H   0  0  0  0  0  0
  -24.5855  -30.7122   25.7795 H   0  0  0  0  0  0
  -24.9006  -32.2886   26.4940 H   0  0  0  0  0  0
  -25.8083  -30.8820   27.0182 H   0  0  0  0  0  0
  -26.2810  -29.6803   24.1105 H   0  0  0  0  0  0
  -27.4088  -29.7222   25.4462 H   0  0  0  0  0  0
  -27.8626  -30.4366   23.9161 H   0  0  0  0  0  0
  -27.2610  -33.3579   26.2081 H   0  0  0  0  0  0
  -28.3838  -32.6887   25.0329 H   0  0  0  0  0  0
  -28.0663  -31.8407   26.5407 H   0  0  0  0  0  0
  -28.2588  -38.0104   24.7499 H   0  0  0  0  0  0
  -28.1077  -36.2636   24.6317 H   0  0  0  0  0  0
  -27.2282  -37.1465   25.8864 H   0  0  0  0  0  0
  -20.9226  -29.8677   21.7023 H   0  0  0  0  0  0
  -26.0169  -38.2849   24.1428 H   0  0  0  0  0  0
  -32.0274  -20.4841   21.2311 H   0  0  0  0  0  0
  -32.7072  -16.3142   21.6093 H   0  0  0  0  0  0
  -27.9336  -22.7849   20.1499 H   0  0  0  0  0  0
  -29.3248  -22.7318   19.1112 H   0  0  0  0  0  0
  -30.7849  -23.9241   22.7448 H   0  0  0  0  0  0
  -29.4401  -24.0443   23.8575 H   0  0  0  0  0  0
  -30.7451  -22.0238   20.9361 H   0  0  0  0  0  0
  -28.2742  -22.1743   22.7221 H   0  0  0  0  0  0
  -30.3513  -24.6437   20.3191 H   0  0  0  0  0  0
  -31.1364  -21.4075   23.4911 H   0  0  0  0  0  0
  -29.7193  -20.3598   23.5506 H   0  0  0  0  0  0
  -29.8338  -21.7289   24.6279 H   0  0  0  0  0  0
  -27.4559  -24.8971   19.5778 H   0  0  0  0  0  0
  -28.8100  -25.3597   18.5756 H   0  0  0  0  0  0
  -27.8922  -19.2741   20.1563 H   0  0  0  0  0  0
  -29.1447  -15.3934   21.2683 H   0  0  0  0  0  0
  -29.2475  -25.6259   22.1315 H   0  0  0  0  0  0
  -28.0044  -24.5905   22.0803 H   0  0  0  0  0  0
  1 25  1  0  0  0
  1 30  2  0  0  0
  1 86  1  0  0  0
  2  3  1  0  0  0
  2 25  1  0  0  0
  2 90  1  0  0  0
  2 91  1  0  0  0
  3  4  1  0  0  0
  3 92  1  0  0  0
  3 93  1  0  0  0
  4  5  1  0  0  0
  4 94  1  0  0  0
  4 95  1  0  0  0
  5  6  1  0  0  0
  5 26  1  0  0  0
  5 96  1  0  0  0
  6 25  1  0  0  0
  6 97  1  0  0  0
  6 98  1  0  0  0
  7  8  2  0  0  0
  7 26  1  0  0  0
  7 29  1  0  0  0
  8  9  1  0  0  0
  8 22  1  0  0  0
  9 10  1  0  0  0
  9 27  2  0  0  0
 10 11  2  0  0  0
 10 15  1  0  0  0
 11 12  1  0  0  0
 11 99  1  0  0  0
 12 13  2  0  0  0
 12100  1  0  0  0
 13 14  1  0  0  0
 13 31  1  0  0  0
 14 15  2  0  0  0
 14101  1  0  0  0
 15102  1  0  0  0
 16 17  2  0  0  0
 16 21  1  0  0  0
 16 31  1  0  0  0
 17 18  1  0  0  0
 17103  1  0  0  0
 18 19  2  0  0  0
 18104  1  0  0  0
 19 20  1  0  0  0
 19 24  1  0  0  0
 20 21  2  0  0  0
 20105  1  0  0  0
 21 23  1  0  0  0
 22 28  1  0  0  0
 22 32  2  0  0  0
 26 27  1  0  0  0
 28106  1  0  0  0
 28107  1  0  0  0
 29108  1  0  0  0
 29109  1  0  0  0
 33 34  1  0  0  0
 33 66  1  0  0  0
 33 70  2  0  0  0
 34 36  1  0  0  0
 34 59  1  0  0  0
 34110  1  0  0  0
 35 44  2  0  0  0
 35 45  1  0  0  0
 35 68  1  0  0  0
 36 56  1  0  0  0
 36111  1  0  0  0
 37 39  1  0  0  0
 37 47  1  0  0  0
 37 66  1  0  0  0
 37112  1  0  0  0
 38 43  2  0  0  0
 38 46  1  0  0  0
 38 47  1  0  0  0
 39 64  1  0  0  0
 39 67  2  0  0  0
 40 52  1  0  0  0
 40 53  2  0  0  0
 40 58  1  0  0  0
 41113  1  0  0  0
 41114  1  0  0  0
 41115  1  0  0  0
 41 48  1  0  0  0
 42 43  1  0  0  0
 42 66  1  0  0  0
 42116  1  0  0  0
 42117  1  0  0  0
 43 44  1  0  0  0
 44118  1  0  0  0
 45 46  2  0  0  0
 45119  1  0  0  0
 46120  1  0  0  0
 47121  1  0  0  0
 47122  1  0  0  0
 48 56  1  0  0  0
 48 65  1  0  0  0
 48123  1  0  0  0
 49 50  1  0  0  0
 49 53  1  0  0  0
 49 64  1  0  0  0
 49124  1  0  0  0
 50 51  1  0  0  0
 50125  1  0  0  0
 50126  1  0  0  0
 51 52  1  0  0  0
 51127  1  0  0  0
 51128  1  0  0  0
 52129  1  0  0  0
 52130  1  0  0  0
 53 54  1  0  0  0
 54 55  2  0  0  0
 54131  1  0  0  0
 55 57  1  0  0  0
 55132  1  0  0  0
 56 69  2  0  0  0
 57 58  2  0  0  0
 57133  1  0  0  0
 58134  1  0  0  0
 59 60  1  0  0  0
 59 61  1  0  0  0
 59 62  1  0  0  0
 60135  1  0  0  0
 60136  1  0  0  0
 60137  1  0  0  0
 61138  1  0  0  0
 61139  1  0  0  0
 61140  1  0  0  0
 62141  1  0  0  0
 62142  1  0  0  0
 62143  1  0  0  0
 63 65  1  0  0  0
 63144  1  0  0  0
 63145  1  0  0  0
 63146  1  0  0  0
 64147  1  0  0  0
 65148  1  0  0  0
 68 84  1  0  0  0
 71 73  2  0  0  0
 71 75  1  0  0  0
 71149  1  0  0  0
 72 74  1  0  0  0
 72 75  2  0  0  0
 72150  1  0  0  0
 73 76  1  0  0  0
 73 77  1  0  0  0
 74 76  2  0  0  0
 74 86  1  0  0  0
 75 88  1  0  0  0
 76 89  1  0  0  0
 77 85  2  0  0  0
 77 80  1  0  0  0
 78 80  1  0  0  0
 78 82  1  0  0  0
 78151  1  0  0  0
 78152  1  0  0  0
 79 81  1  0  0  0
 79 87  1  0  0  0
 79153  1  0  0  0
 79154  1  0  0  0
 80 81  1  0  0  0
 80155  1  0  0  0
 81 83  1  0  0  0
 81156  1  0  0  0
 82 84  1  0  0  0
 82 87  1  0  0  0
 82157  1  0  0  0
 83158  1  0  0  0
 83159  1  0  0  0
 83160  1  0  0  0
 84161  1  0  0  0
 84162  1  0  0  0
 85163  1  0  0  0
 86164  1  0  0  0
 87165  1  0  0  0
 87166  1  0  0  0
M  CHG  1  87   1
M  ISO  4   1 100  68 101  84 101  86 100
M  END
> <chiral flag>
0

> <version>
0

> <s_m_source_file>
/data/baiqing/PycharmProjects/Reinvent-master-3.2/result/LINK_invent/BTK/process_docking_weight1_custom_product_contain_oxygen_bond_distance_aromatic_linkinvent_7_9_3/rearranged_h_0162.sdf

> <i_m_source_file_index>
43

> <r_mmod_Potential_Energy-OPLS-2005>
-152.355163574219

> <r_mmod_Stretch_Energy-OPLS-2005>
45.9280815124512

> <r_mmod_Bend_Energy-OPLS-2005>
109.760101318359

> <r_mmod_Torsional_Energy-OPLS-2005>
246.436737060547

> <r_mmod_Improper_Torsional_Energy-OPLS-2005>
3.73914885520935

> <r_mmod_Van_der_Waal_Energy-OPLS-2005>
187.736953735352

> <r_mmod_Electrostatic_Energy-OPLS-2005>
-333.916229248047

> <r_mmod_Solvation_Energy-OPLS-2005>
-427.698883056641

> <b_mmod_Minimization_Converged-OPLS-2005>
0

> <r_mmod_RMS_Derivative-OPLS-2005>
2.90999007225037

$$$$
43
                    3D
 Structure written by MMmdl.
149157  0  0  1  0            999 V2000
  -30.7227  -14.5727   20.5019 C   0  0  0  0  0  0
  -30.4184  -12.3509   19.4459 C   0  0  0  0  0  0
  -29.4920  -12.4686   18.2190 C   0  0  0  0  0  0
  -28.0218  -12.3147   18.6433 C   0  0  0  0  0  0
  -27.6513  -13.2184   19.8467 C   0  0  2  0  0  0
  -28.6972  -13.1250   20.9840 C   0  0  0  0  0  0
  -25.2613  -13.8195   20.5700 C   0  0  0  0  0  0
  -24.1890  -13.0448   20.9179 C   0  0  0  0  0  0
  -24.6449  -11.6919   20.8755 C   0  0  0  0  0  0
  -23.9140  -10.4292   21.0429 C   0  0  0  0  0  0
  -24.3671   -9.4194   21.9188 C   0  0  0  0  0  0
  -23.6332   -8.2247   22.0750 C   0  0  0  0  0  0
  -22.4311   -8.0303   21.3549 C   0  0  0  0  0  0
  -21.9959   -9.0288   20.4650 C   0  0  0  0  0  0
  -22.7310  -10.2160   20.3063 C   0  0  0  0  0  0
  -21.6857   -6.0792   22.5297 C   0  0  0  0  0  0
  -21.4016   -6.5683   23.8231 C   0  0  0  0  0  0
  -21.3631   -5.6817   24.9181 C   0  0  0  0  0  0
  -21.6021   -4.3088   24.7221 C   0  0  0  0  0  0
  -21.8818   -3.8191   23.4335 C   0  0  0  0  0  0
  -21.9200   -4.7017   22.3411 C   0  0  0  0  0  0
  -22.7916  -13.5233   21.1863 C   0  0  0  0  0  0
  -22.1672   -4.2202   21.0989 F   0  0  0  0  0  0
  -21.5594   -3.4555   25.7734 F   0  0  0  0  0  0
  -30.0215  -13.3993   20.4077 N   0  0  0  0  0  0
  -26.3004  -12.9365   20.3271 N   0  0  0  0  0  0
  -25.9368  -11.6511   20.5765 N   0  0  0  0  0  0
  -22.0583  -12.8187   22.0398 N   0  0  0  0  0  0
  -25.4331  -15.1907   20.4147 N   0  0  0  0  0  0
  -31.8943  -14.6197   20.1282 O   0  0  0  0  0  0
  -21.6642   -6.8927   21.4247 O   0  0  0  0  0  0
  -22.3589  -14.5537   20.6717 O   0  0  0  0  0  0
  -24.6238  -31.8620   23.2002 C   0  0  0  0  0  0
  -25.9105  -32.4819   23.8361 C   0  0  1  0  0  0
  -27.2397  -27.3627   20.1397 C   0  0  0  0  0  0
  -25.5902  -33.8616   24.2284 N   0  0  0  0  0  0
  -23.4158  -30.4828   21.5423 C   0  0  2  0  0  0
  -24.8689  -28.9330   20.1235 C   0  0  0  0  0  0
  -22.7428  -29.4665   22.4944 C   0  0  0  0  0  0
  -18.0280  -28.1359   22.8553 C   0  0  0  0  0  0
  -24.1500  -36.7295   23.2636 C   0  0  0  0  0  0
  -25.9490  -30.8135   21.3600 C   0  0  0  0  0  0
  -26.0319  -29.4387   20.7169 C   0  0  0  0  0  0
  -27.2262  -28.6674   20.7077 C   0  0  0  0  0  0
  -26.0572  -26.8824   19.5430 C   0  0  0  0  0  0
  -24.8798  -27.6576   19.5296 C   0  0  0  0  0  0
  -23.6336  -29.8119   20.1606 C   0  0  0  0  0  0
  -25.4122  -36.3095   24.0326 C   0  0  1  0  0  0
  -20.5868  -28.3687   23.1296 C   0  0  2  0  0  0
  -20.6831  -26.9448   22.5292 C   0  0  0  0  0  0
  -19.5721  -26.6371   21.5221 C   0  0  0  0  0  0
  -18.1960  -26.7849   22.1808 C   0  0  0  0  0  0
  -19.1520  -28.8837   23.2908 C   0  0  0  0  0  0
  -18.9433  -30.1485   23.8858 C   0  0  0  0  0  0
  -17.6438  -30.6622   24.0512 C   0  0  0  0  0  0
  -25.9062  -34.9461   23.5117 C   0  0  0  0  0  0
  -16.5336  -29.9083   23.6299 C   0  0  0  0  0  0
  -16.7265  -28.6479   23.0408 C   0  0  0  0  0  0
  -26.4499  -31.6591   25.0701 C   0  0  0  0  0  0
  -25.3748  -31.3700   26.1431 C   0  0  0  0  0  0
  -27.0327  -30.3022   24.6093 C   0  0  0  0  0  0
  -27.6088  -32.4287   25.7465 C   0  0  0  0  0  0
  -27.5582  -37.1804   24.8465 C   0  0  0  0  0  0
  -21.4131  -29.3116   22.3725 N   0  0  0  0  0  0
  -26.4299  -37.3785   23.9407 N   0  0  0  0  0  0
  -24.6807  -31.0688   22.0946 N   0  0  0  0  0  0
  -23.4181  -28.8159   23.2984 O   0  0  0  0  0  0
  -28.3888  -26.5820   20.0922 O   0  0  0  0  0  0
  -26.5626  -34.8918   22.4704 O   0  0  0  0  0  0
  -23.5395  -32.1400   23.7347 O   0  0  0  0  0  0
  -29.7582  -19.4962   20.8568 C   0  0  0  0  0  0
  -29.4123  -18.0996   20.9639 C   0  0  0  0  0  0
  -28.5768  -20.1870   20.9700 C   0  0  0  0  0  0
  -30.4535  -16.9923   20.7962 C   0  0  0  0  0  0
  -28.4033  -24.0069   20.1682 C   0  0  0  0  0  0
  -29.0539  -22.7216   20.7997 C   0  0  0  0  0  0
  -28.4532  -25.3801   20.9290 C   0  0  0  0  0  0
  -28.1088  -17.9689   21.1827 N   0  0  0  0  0  0
  -28.1636  -21.5357   20.8957 N   0  0  0  0  0  0
  -30.0163  -15.6955   20.8240 N   0  0  0  0  0  0
  -31.6341  -17.3239   20.6205 O   0  0  0  0  0  0
  -27.8386  -23.9186   19.0751 O   0  0  0  0  0  0
  -27.5861  -19.2756   21.1862 O   0  0  0  0  0  0
  -31.4557  -12.4388   19.1215 H   0  0  0  0  0  0
  -30.3376  -11.3625   19.9022 H   0  0  0  0  0  0
  -29.7377  -11.7086   17.4731 H   0  0  0  0  0  0
  -29.6322  -13.4325   17.7338 H   0  0  0  0  0  0
  -27.8647  -11.2688   18.9105 H   0  0  0  0  0  0
  -27.3587  -12.5155   17.7995 H   0  0  0  0  0  0
  -27.6604  -14.2424   19.4659 H   0  0  0  0  0  0
  -28.6855  -12.1477   21.4675 H   0  0  0  0  0  0
  -28.4567  -13.8500   21.7645 H   0  0  0  0  0  0
  -25.2835   -9.5653   22.4753 H   0  0  0  0  0  0
  -24.0027   -7.4643   22.7470 H   0  0  0  0  0  0
  -21.0892   -8.8858   19.8980 H   0  0  0  0  0  0
  -22.3804  -10.9715   19.6177 H   0  0  0  0  0  0
  -21.2022   -7.6195   23.9750 H   0  0  0  0  0  0
  -21.1431   -6.0551   25.9080 H   0  0  0  0  0  0
  -22.0621   -2.7659   23.2838 H   0  0  0  0  0  0
  -22.4235  -11.9804   22.4701 H   0  0  0  0  0  0
  -21.1230  -13.1201   22.2663 H   0  0  0  0  0  0
  -24.6735  -15.8497   20.5461 H   0  0  0  0  0  0
  -26.2920  -15.6403   20.1267 H   0  0  0  0  0  0
  -26.7174  -32.5507   23.1119 H   0  0  0  0  0  0
  -25.0018  -33.9764   25.0389 H   0  0  0  0  0  0
  -22.7077  -31.2991   21.3952 H   0  0  0  0  0  0
  -23.3763  -35.9639   23.3318 H   0  0  0  0  0  0
  -24.3572  -36.8893   22.2048 H   0  0  0  0  0  0
  -23.7264  -37.6507   23.6645 H   0  0  0  0  0  0
  -26.0651  -31.5799   20.5905 H   0  0  0  0  0  0
  -26.8352  -30.8733   21.9818 H   0  0  0  0  0  0
  -28.1281  -29.0652   21.1519 H   0  0  0  0  0  0
  -26.0503  -25.9012   19.0860 H   0  0  0  0  0  0
  -23.9898  -27.2591   19.0656 H   0  0  0  0  0  0
  -23.7414  -30.5867   19.3962 H   0  0  0  0  0  0
  -22.7581  -29.2315   19.8655 H   0  0  0  0  0  0
  -25.1310  -36.1948   25.0815 H   0  0  0  0  0  0
  -20.9976  -28.3212   24.1419 H   0  0  0  0  0  0
  -20.5940  -26.2244   23.3433 H   0  0  0  0  0  0
  -21.6657  -26.7609   22.0938 H   0  0  0  0  0  0
  -19.6897  -25.6262   21.1290 H   0  0  0  0  0  0
  -19.6497  -27.3140   20.6696 H   0  0  0  0  0  0
  -18.0584  -26.0043   22.9320 H   0  0  0  0  0  0
  -17.4107  -26.6360   21.4369 H   0  0  0  0  0  0
  -19.7907  -30.7350   24.2175 H   0  0  0  0  0  0
  -17.4977  -31.6329   24.5053 H   0  0  0  0  0  0
  -15.5325  -30.3008   23.7588 H   0  0  0  0  0  0
  -15.8682  -28.0755   22.7181 H   0  0  0  0  0  0
  -24.5932  -30.7042   25.7729 H   0  0  0  0  0  0
  -24.8933  -32.2860   26.4859 H   0  0  0  0  0  0
  -25.8079  -30.8858   27.0192 H   0  0  0  0  0  0
  -26.2859  -29.6774   24.1166 H   0  0  0  0  0  0
  -27.4103  -29.7263   25.4549 H   0  0  0  0  0  0
  -27.8699  -30.4320   23.9236 H   0  0  0  0  0  0
  -27.2736  -33.3582   26.2076 H   0  0  0  0  0  0
  -28.3888  -32.6847   25.0281 H   0  0  0  0  0  0
  -28.0783  -31.8387   26.5340 H   0  0  0  0  0  0
  -28.2615  -38.0081   24.7500 H   0  0  0  0  0  0
  -28.1057  -36.2616   24.6318 H   0  0  0  0  0  0
  -27.2286  -37.1479   25.8860 H   0  0  0  0  0  0
  -20.9297  -29.8889   21.6981 H   0  0  0  0  0  0
  -26.0182  -38.2867   24.1392 H   0  0  0  0  0  0
  -30.7415  -19.9055   20.6905 H   0  0  0  0  0  0
  -29.9318  -22.4542   20.2102 H   0  0  0  0  0  0
  -29.4224  -22.9655   21.7923 H   0  0  0  0  0  0
  -29.4003  -25.4114   21.4629 H   0  0  0  0  0  0
  -27.6721  -25.3941   21.6875 H   0  0  0  0  0  0
  -27.1940  -21.7274   21.1159 H   0  0  0  0  0  0
  -29.0410  -15.5847   21.0467 H   0  0  0  0  0  0
  1 25  1  0  0  0
  1 30  2  0  0  0
  1 80  1  0  0  0
  2  3  1  0  0  0
  2 25  1  0  0  0
  2 84  1  0  0  0
  2 85  1  0  0  0
  3  4  1  0  0  0
  3 86  1  0  0  0
  3 87  1  0  0  0
  4  5  1  0  0  0
  4 88  1  0  0  0
  4 89  1  0  0  0
  5  6  1  0  0  0
  5 26  1  0  0  0
  5 90  1  0  0  0
  6 25  1  0  0  0
  6 91  1  0  0  0
  6 92  1  0  0  0
  7  8  2  0  0  0
  7 26  1  0  0  0
  7 29  1  0  0  0
  8  9  1  0  0  0
  8 22  1  0  0  0
  9 10  1  0  0  0
  9 27  2  0  0  0
 10 11  2  0  0  0
 10 15  1  0  0  0
 11 12  1  0  0  0
 11 93  1  0  0  0
 12 13  2  0  0  0
 12 94  1  0  0  0
 13 14  1  0  0  0
 13 31  1  0  0  0
 14 15  2  0  0  0
 14 95  1  0  0  0
 15 96  1  0  0  0
 16 17  2  0  0  0
 16 21  1  0  0  0
 16 31  1  0  0  0
 17 18  1  0  0  0
 17 97  1  0  0  0
 18 19  2  0  0  0
 18 98  1  0  0  0
 19 20  1  0  0  0
 19 24  1  0  0  0
 20 21  2  0  0  0
 20 99  1  0  0  0
 21 23  1  0  0  0
 22 28  1  0  0  0
 22 32  2  0  0  0
 26 27  1  0  0  0
 28100  1  0  0  0
 28101  1  0  0  0
 29102  1  0  0  0
 29103  1  0  0  0
 33 34  1  0  0  0
 33 66  1  0  0  0
 33 70  2  0  0  0
 34 36  1  0  0  0
 34 59  1  0  0  0
 34104  1  0  0  0
 35 44  2  0  0  0
 35 45  1  0  0  0
 35 68  1  0  0  0
 36 56  1  0  0  0
 36105  1  0  0  0
 37 39  1  0  0  0
 37 47  1  0  0  0
 37 66  1  0  0  0
 37106  1  0  0  0
 38 43  2  0  0  0
 38 46  1  0  0  0
 38 47  1  0  0  0
 39 64  1  0  0  0
 39 67  2  0  0  0
 40 52  1  0  0  0
 40 53  2  0  0  0
 40 58  1  0  0  0
 41107  1  0  0  0
 41108  1  0  0  0
 41109  1  0  0  0
 41 48  1  0  0  0
 42 43  1  0  0  0
 42 66  1  0  0  0
 42110  1  0  0  0
 42111  1  0  0  0
 43 44  1  0  0  0
 44112  1  0  0  0
 45 46  2  0  0  0
 45113  1  0  0  0
 46114  1  0  0  0
 47115  1  0  0  0
 47116  1  0  0  0
 48 56  1  0  0  0
 48 65  1  0  0  0
 48117  1  0  0  0
 49 50  1  0  0  0
 49 53  1  0  0  0
 49 64  1  0  0  0
 49118  1  0  0  0
 50 51  1  0  0  0
 50119  1  0  0  0
 50120  1  0  0  0
 51 52  1  0  0  0
 51121  1  0  0  0
 51122  1  0  0  0
 52123  1  0  0  0
 52124  1  0  0  0
 53 54  1  0  0  0
 54 55  2  0  0  0
 54125  1  0  0  0
 55 57  1  0  0  0
 55126  1  0  0  0
 56 69  2  0  0  0
 57 58  2  0  0  0
 57127  1  0  0  0
 58128  1  0  0  0
 59 60  1  0  0  0
 59 61  1  0  0  0
 59 62  1  0  0  0
 60129  1  0  0  0
 60130  1  0  0  0
 60131  1  0  0  0
 61132  1  0  0  0
 61133  1  0  0  0
 61134  1  0  0  0
 62135  1  0  0  0
 62136  1  0  0  0
 62137  1  0  0  0
 63 65  1  0  0  0
 63138  1  0  0  0
 63139  1  0  0  0
 63140  1  0  0  0
 64141  1  0  0  0
 65142  1  0  0  0
 68 77  1  0  0  0
 71 72  1  0  0  0
 71 73  2  0  0  0
 71143  1  0  0  0
 72 74  1  0  0  0
 72 78  2  0  0  0
 73 79  1  0  0  0
 73 83  1  0  0  0
 74 80  1  0  0  0
 74 81  2  0  0  0
 75 76  1  0  0  0
 75 77  1  0  0  0
 75 82  2  0  0  0
 76 79  1  0  0  0
 76144  1  0  0  0
 76145  1  0  0  0
 77146  1  0  0  0
 77147  1  0  0  0
 78 83  1  0  0  0
 79148  1  0  0  0
 80149  1  0  0  0
M  ISO  4   1 100  68 101  77 101  80 100
M  END
> <chiral flag>
0

> <version>
0

> <s_m_source_file>
/data/baiqing/PycharmProjects/Reinvent-master-3.2/result/LINK_invent/BTK/process_docking_weight1_custom_product_contain_oxygen_bond_distance_aromatic_linkinvent_7_9_3/rearranged_h_0162.sdf

> <i_m_source_file_index>
44

> <r_mmod_Potential_Energy-OPLS-2005>
-179.228820800781

> <r_mmod_Stretch_Energy-OPLS-2005>
56.5609245300293

> <r_mmod_Bend_Energy-OPLS-2005>
119.865592956543

> <r_mmod_Torsional_Energy-OPLS-2005>
242.960006713867

> <r_mmod_Improper_Torsional_Energy-OPLS-2005>
4.8756537437439

> <r_mmod_Van_der_Waal_Energy-OPLS-2005>
124.309394836426

> <r_mmod_Electrostatic_Energy-OPLS-2005>
-504.318023681641

> <r_mmod_Solvation_Energy-OPLS-2005>
-256.855895996094

> <b_mmod_Minimization_Converged-OPLS-2005>
0

> <r_mmod_RMS_Derivative-OPLS-2005>
6.41192245483398

$$$$
44
                    3D
 Structure written by MMmdl.
159167  0  0  1  0            999 V2000
  -30.6873  -14.5403   20.5446 C   0  0  0  0  0  0
  -30.4231  -12.3442   19.4457 C   0  0  0  0  0  0
  -29.5028  -12.5283   18.2202 C   0  0  0  0  0  0
  -28.0220  -12.3796   18.6220 C   0  0  0  0  0  0
  -27.6584  -13.2199   19.8758 C   0  0  2  0  0  0
  -28.7007  -13.0437   21.0045 C   0  0  0  0  0  0
  -25.2576  -13.8192   20.5694 C   0  0  0  0  0  0
  -24.1837  -13.0451   20.9170 C   0  0  0  0  0  0
  -24.6423  -11.6929   20.8752 C   0  0  0  0  0  0
  -23.9097  -10.4312   21.0411 C   0  0  0  0  0  0
  -24.3641   -9.4228   21.9197 C   0  0  0  0  0  0
  -23.6307   -8.2268   22.0763 C   0  0  0  0  0  0
  -22.4296   -8.0307   21.3547 C   0  0  0  0  0  0
  -21.9931   -9.0280   20.4653 C   0  0  0  0  0  0
  -22.7261  -10.2162   20.3059 C   0  0  0  0  0  0
  -21.6857   -6.0758   22.5284 C   0  0  0  0  0  0
  -21.4015   -6.5651   23.8219 C   0  0  0  0  0  0
  -21.3654   -5.6797   24.9173 C   0  0  0  0  0  0
  -21.6035   -4.3061   24.7220 C   0  0  0  0  0  0
  -21.8818   -3.8165   23.4343 C   0  0  0  0  0  0
  -21.9192   -4.6985   22.3403 C   0  0  0  0  0  0
  -22.7858  -13.5242   21.1840 C   0  0  0  0  0  0
  -22.1659   -4.2168   21.0976 F   0  0  0  0  0  0
  -21.5625   -3.4542   25.7737 F   0  0  0  0  0  0
  -30.0289  -13.3483   20.4505 N   0  0  0  0  0  0
  -26.3015  -12.9374   20.3380 N   0  0  0  0  0  0
  -25.9352  -11.6521   20.5781 N   0  0  0  0  0  0
  -22.0488  -12.8226   22.0383 N   0  0  0  0  0  0
  -25.4307  -15.1911   20.4128 N   0  0  0  0  0  0
  -31.8377  -14.6765   20.1178 O   0  0  0  0  0  0
  -21.6646   -6.8916   21.4252 O   0  0  0  0  0  0
  -22.3542  -14.5565   20.6709 O   0  0  0  0  0  0
  -24.6249  -31.8658   23.2101 C   0  0  0  0  0  0
  -25.9127  -32.4808   23.8405 C   0  0  1  0  0  0
  -27.2088  -27.3825   20.1024 C   0  0  0  0  0  0
  -25.5960  -33.8614   24.2328 N   0  0  0  0  0  0
  -23.4173  -30.4904   21.5501 C   0  0  2  0  0  0
  -24.8616  -28.9760   20.0985 C   0  0  0  0  0  0
  -22.7514  -29.4618   22.4958 C   0  0  0  0  0  0
  -18.0290  -28.1383   22.8470 C   0  0  0  0  0  0
  -24.1478  -36.7305   23.2640 C   0  0  0  0  0  0
  -25.9554  -30.8191   21.3734 C   0  0  0  0  0  0
  -26.0274  -29.4541   20.7113 C   0  0  0  0  0  0
  -27.2093  -28.6649   20.7115 C   0  0  0  0  0  0
  -26.0394  -26.9738   19.4174 C   0  0  0  0  0  0
  -24.8678  -27.7430   19.4341 C   0  0  0  0  0  0
  -23.6290  -29.8449   20.1574 C   0  0  0  0  0  0
  -25.4107  -36.3103   24.0343 C   0  0  1  0  0  0
  -20.5891  -28.3670   23.1312 C   0  0  2  0  0  0
  -20.6766  -26.9395   22.5426 C   0  0  0  0  0  0
  -19.5741  -26.6370   21.5222 C   0  0  0  0  0  0
  -18.1917  -26.7918   22.1617 C   0  0  0  0  0  0
  -19.1546  -28.8834   23.2864 C   0  0  0  0  0  0
  -18.9478  -30.1428   23.8902 C   0  0  0  0  0  0
  -17.6493  -30.6581   24.0563 C   0  0  0  0  0  0
  -25.9055  -34.9469   23.5127 C   0  0  0  0  0  0
  -16.5370  -29.9089   23.6331 C   0  0  0  0  0  0
  -16.7277  -28.6512   23.0348 C   0  0  0  0  0  0
  -26.4530  -31.6607   25.0759 C   0  0  0  0  0  0
  -25.3757  -31.3739   26.1476 C   0  0  0  0  0  0
  -27.0367  -30.3049   24.6131 C   0  0  0  0  0  0
  -27.6109  -32.4310   25.7531 C   0  0  0  0  0  0
  -27.5573  -37.1782   24.8470 C   0  0  0  0  0  0
  -21.4234  -29.3026   22.3737 N   0  0  0  0  0  0
  -26.4277  -37.3795   23.9434 N   0  0  0  0  0  0
  -24.6841  -31.0726   22.1016 N   0  0  0  0  0  0
  -23.4267  -28.8132   23.2999 O   0  0  0  0  0  0
  -28.2689  -26.4938   20.2290 O   0  0  0  0  0  0
  -26.5610  -34.8922   22.4677 O   0  0  0  0  0  0
  -23.5427  -32.1429   23.7448 O   0  0  0  0  0  0
  -31.0367  -17.5326   19.9367 C   0  0  0  0  0  0
  -30.8792  -18.9468   20.0773 C   0  0  0  0  0  0
  -29.8500  -19.1390   20.9736 C   0  0  0  0  0  0
  -30.1653  -16.9410   20.8114 C   0  0  0  0  0  0
  -29.1998  -20.3938   21.4866 C   0  0  0  0  0  0
  -28.7597  -24.0027   20.7920 C   0  0  0  0  0  0
  -31.6994  -19.9950   19.3686 C   0  0  0  0  0  0
  -25.8691  -21.2518   21.0348 C   0  0  0  0  0  0
  -27.7750  -25.1997   20.7042 C   0  0  0  0  0  0
  -26.7988  -22.3846   21.5106 C   0  0  0  0  0  0
  -28.0864  -22.5842   20.6526 C   0  0  2  0  0  0
  -29.9607  -15.5947   21.0073 N   0  0  0  0  0  0
  -28.9783  -21.3885   20.5941 N   0  0  0  0  0  0
  -28.8071  -20.4437   22.6538 O   0  0  0  0  0  0
  -29.9731  -24.1782   20.9478 O   0  0  0  0  0  0
  -29.4328  -17.9080   21.4541 O   0  0  0  0  0  0
  -31.4694  -12.4359   19.1510 H   0  0  0  0  0  0
  -30.3174  -11.3404   19.8603 H   0  0  0  0  0  0
  -29.7569  -11.8093   17.4403 H   0  0  0  0  0  0
  -29.6606  -13.5165   17.7848 H   0  0  0  0  0  0
  -27.8305  -11.3228   18.8083 H   0  0  0  0  0  0
  -27.3775  -12.6618   17.7876 H   0  0  0  0  0  0
  -27.6886  -14.2647   19.5654 H   0  0  0  0  0  0
  -28.6878  -12.0202   21.3845 H   0  0  0  0  0  0
  -28.4577  -13.6772   21.8586 H   0  0  0  0  0  0
  -25.2787   -9.5693   22.4770 H   0  0  0  0  0  0
  -24.0013   -7.4655   22.7476 H   0  0  0  0  0  0
  -21.0866   -8.8811   19.8952 H   0  0  0  0  0  0
  -22.3737  -10.9706   19.6171 H   0  0  0  0  0  0
  -21.2018   -7.6159   23.9728 H   0  0  0  0  0  0
  -21.1456   -6.0525   25.9074 H   0  0  0  0  0  0
  -22.0603   -2.7623   23.2833 H   0  0  0  0  0  0
  -22.4082  -11.9871   22.4739 H   0  0  0  0  0  0
  -21.1123  -13.1275   22.2612 H   0  0  0  0  0  0
  -24.6685  -15.8509   20.5250 H   0  0  0  0  0  0
  -26.2903  -15.6283   20.1061 H   0  0  0  0  0  0
  -26.7232  -32.5499   23.1198 H   0  0  0  0  0  0
  -25.0144  -33.9773   25.0491 H   0  0  0  0  0  0
  -22.7091  -31.3084   21.4134 H   0  0  0  0  0  0
  -23.3751  -35.9619   23.3286 H   0  0  0  0  0  0
  -24.3585  -36.8945   22.2059 H   0  0  0  0  0  0
  -23.7191  -37.6487   23.6669 H   0  0  0  0  0  0
  -26.0773  -31.5864   20.6084 H   0  0  0  0  0  0
  -26.8451  -30.8695   21.9904 H   0  0  0  0  0  0
  -28.0997  -29.0073   21.2195 H   0  0  0  0  0  0
  -26.0032  -26.0490   18.8618 H   0  0  0  0  0  0
  -23.9866  -27.3912   18.9148 H   0  0  0  0  0  0
  -23.7447  -30.6300   19.4083 H   0  0  0  0  0  0
  -22.7544  -29.2707   19.8494 H   0  0  0  0  0  0
  -25.1244  -36.1986   25.0829 H   0  0  0  0  0  0
  -20.9942  -28.3204   24.1446 H   0  0  0  0  0  0
  -20.5673  -26.2273   23.3615 H   0  0  0  0  0  0
  -21.6627  -26.7415   22.1204 H   0  0  0  0  0  0
  -19.6929  -25.6286   21.1231 H   0  0  0  0  0  0
  -19.6697  -27.3193   20.6760 H   0  0  0  0  0  0
  -17.4190  -26.6679   21.4012 H   0  0  0  0  0  0
  -18.0292  -26.0072   22.9017 H   0  0  0  0  0  0
  -19.7974  -30.7212   24.2294 H   0  0  0  0  0  0
  -17.5064  -31.6276   24.5149 H   0  0  0  0  0  0
  -15.5374  -30.3004   23.7661 H   0  0  0  0  0  0
  -15.8672  -28.0838   22.7071 H   0  0  0  0  0  0
  -24.5978  -30.7039   25.7814 H   0  0  0  0  0  0
  -24.8894  -32.2898   26.4836 H   0  0  0  0  0  0
  -25.8072  -30.8984   27.0292 H   0  0  0  0  0  0
  -26.2911  -29.6805   24.1199 H   0  0  0  0  0  0
  -27.4191  -29.7296   25.4579 H   0  0  0  0  0  0
  -27.8725  -30.4407   23.9267 H   0  0  0  0  0  0
  -27.2775  -33.3664   26.2031 H   0  0  0  0  0  0
  -28.3964  -32.6754   25.0373 H   0  0  0  0  0  0
  -28.0712  -31.8462   26.5505 H   0  0  0  0  0  0
  -28.2549  -38.0106   24.7534 H   0  0  0  0  0  0
  -28.1079  -36.2637   24.6239 H   0  0  0  0  0  0
  -27.2303  -37.1374   25.8867 H   0  0  0  0  0  0
  -20.9429  -29.8855   21.7032 H   0  0  0  0  0  0
  -26.0176  -38.2864   24.1458 H   0  0  0  0  0  0
  -31.7282  -17.0260   19.2758 H   0  0  0  0  0  0
  -32.6275  -19.5617   18.9952 H   0  0  0  0  0  0
  -31.9623  -20.8011   20.0552 H   0  0  0  0  0  0
  -31.1515  -20.4141   18.5246 H   0  0  0  0  0  0
  -24.9731  -21.2145   21.6559 H   0  0  0  0  0  0
  -26.3419  -20.2717   21.0900 H   0  0  0  0  0  0
  -25.5376  -21.4086   20.0081 H   0  0  0  0  0  0
  -27.3129  -25.3396   21.6836 H   0  0  0  0  0  0
  -26.9919  -24.8262   20.0519 H   0  0  0  0  0  0
  -27.0512  -22.2438   22.5623 H   0  0  0  0  0  0
  -26.1926  -23.2902   21.4892 H   0  0  0  0  0  0
  -27.7048  -22.6128   19.6327 H   0  0  0  0  0  0
  -29.0876  -15.3447   21.4451 H   0  0  0  0  0  0
  -29.3892  -21.2300   19.6862 H   0  0  0  0  0  0
  1 25  1  0  0  0
  1 30  2  0  0  0
  1 82  1  0  0  0
  2  3  1  0  0  0
  2 25  1  0  0  0
  2 87  1  0  0  0
  2 88  1  0  0  0
  3  4  1  0  0  0
  3 89  1  0  0  0
  3 90  1  0  0  0
  4  5  1  0  0  0
  4 91  1  0  0  0
  4 92  1  0  0  0
  5  6  1  0  0  0
  5 26  1  0  0  0
  5 93  1  0  0  0
  6 25  1  0  0  0
  6 94  1  0  0  0
  6 95  1  0  0  0
  7  8  2  0  0  0
  7 26  1  0  0  0
  7 29  1  0  0  0
  8  9  1  0  0  0
  8 22  1  0  0  0
  9 10  1  0  0  0
  9 27  2  0  0  0
 10 11  2  0  0  0
 10 15  1  0  0  0
 11 12  1  0  0  0
 11 96  1  0  0  0
 12 13  2  0  0  0
 12 97  1  0  0  0
 13 14  1  0  0  0
 13 31  1  0  0  0
 14 15  2  0  0  0
 14 98  1  0  0  0
 15 99  1  0  0  0
 16 17  2  0  0  0
 16 21  1  0  0  0
 16 31  1  0  0  0
 17 18  1  0  0  0
 17100  1  0  0  0
 18 19  2  0  0  0
 18101  1  0  0  0
 19 20  1  0  0  0
 19 24  1  0  0  0
 20 21  2  0  0  0
 20102  1  0  0  0
 21 23  1  0  0  0
 22 28  1  0  0  0
 22 32  2  0  0  0
 26 27  1  0  0  0
 28103  1  0  0  0
 28104  1  0  0  0
 29105  1  0  0  0
 29106  1  0  0  0
 33 34  1  0  0  0
 33 66  1  0  0  0
 33 70  2  0  0  0
 34 36  1  0  0  0
 34 59  1  0  0  0
 34107  1  0  0  0
 35 44  2  0  0  0
 35 45  1  0  0  0
 35 68  1  0  0  0
 36 56  1  0  0  0
 36108  1  0  0  0
 37 39  1  0  0  0
 37 47  1  0  0  0
 37 66  1  0  0  0
 37109  1  0  0  0
 38 43  2  0  0  0
 38 46  1  0  0  0
 38 47  1  0  0  0
 39 64  1  0  0  0
 39 67  2  0  0  0
 40 52  1  0  0  0
 40 53  2  0  0  0
 40 58  1  0  0  0
 41110  1  0  0  0
 41111  1  0  0  0
 41112  1  0  0  0
 41 48  1  0  0  0
 42 43  1  0  0  0
 42 66  1  0  0  0
 42113  1  0  0  0
 42114  1  0  0  0
 43 44  1  0  0  0
 44115  1  0  0  0
 45 46  2  0  0  0
 45116  1  0  0  0
 46117  1  0  0  0
 47118  1  0  0  0
 47119  1  0  0  0
 48 56  1  0  0  0
 48 65  1  0  0  0
 48120  1  0  0  0
 49 50  1  0  0  0
 49 53  1  0  0  0
 49 64  1  0  0  0
 49121  1  0  0  0
 50 51  1  0  0  0
 50122  1  0  0  0
 50123  1  0  0  0
 51 52  1  0  0  0
 51124  1  0  0  0
 51125  1  0  0  0
 52126  1  0  0  0
 52127  1  0  0  0
 53 54  1  0  0  0
 54 55  2  0  0  0
 54128  1  0  0  0
 55 57  1  0  0  0
 55129  1  0  0  0
 56 69  2  0  0  0
 57 58  2  0  0  0
 57130  1  0  0  0
 58131  1  0  0  0
 59 60  1  0  0  0
 59 61  1  0  0  0
 59 62  1  0  0  0
 60132  1  0  0  0
 60133  1  0  0  0
 60134  1  0  0  0
 61135  1  0  0  0
 61136  1  0  0  0
 61137  1  0  0  0
 62138  1  0  0  0
 62139  1  0  0  0
 62140  1  0  0  0
 63 65  1  0  0  0
 63141  1  0  0  0
 63142  1  0  0  0
 63143  1  0  0  0
 64144  1  0  0  0
 65145  1  0  0  0
 68 79  1  0  0  0
 71 72  1  0  0  0
 71 74  2  0  0  0
 71146  1  0  0  0
 72 73  2  0  0  0
 72 77  1  0  0  0
 73 75  1  0  0  0
 73 86  1  0  0  0
 74 82  1  0  0  0
 74 86  1  0  0  0
 75 83  1  0  0  0
 75 84  2  0  0  0
 76 79  1  0  0  0
 76 81  1  0  0  0
 76 85  2  0  0  0
 77147  1  0  0  0
 77148  1  0  0  0
 77149  1  0  0  0
 78 80  1  0  0  0
 78150  1  0  0  0
 78151  1  0  0  0
 78152  1  0  0  0
 79153  1  0  0  0
 79154  1  0  0  0
 80155  1  0  0  0
 80156  1  0  0  0
 80 81  1  0  0  0
 81 83  1  0  0  0
 81157  1  0  0  0
 82158  1  0  0  0
 83159  1  0  0  0
M  ISO  4   1 100  68 101  79 101  82 100
M  END
> <chiral flag>
0

> <version>
0

> <s_m_source_file>
/data/baiqing/PycharmProjects/Reinvent-master-3.2/result/LINK_invent/BTK/process_docking_weight1_custom_product_contain_oxygen_bond_distance_aromatic_linkinvent_7_9_3/rearranged_h_0162.sdf

> <i_m_source_file_index>
45

> <r_mmod_Potential_Energy-OPLS-2005>
-12.2082891464233

> <r_mmod_Stretch_Energy-OPLS-2005>
52.5326995849609

> <r_mmod_Bend_Energy-OPLS-2005>
141.247024536133

> <r_mmod_Torsional_Energy-OPLS-2005>
245.720504760742

> <r_mmod_Improper_Torsional_Energy-OPLS-2005>
4.57086658477783

> <r_mmod_Van_der_Waal_Energy-OPLS-2005>
138.565933227539

> <r_mmod_Electrostatic_Energy-OPLS-2005>
-380.617767333984

> <r_mmod_Solvation_Energy-OPLS-2005>
-248.830184936523

> <b_mmod_Minimization_Converged-OPLS-2005>
0

> <r_mmod_RMS_Derivative-OPLS-2005>
3.61978077888489

$$$$
45
                    3D
 Structure written by MMmdl.
168176  0  0  1  0            999 V2000
  -30.7589  -14.4154   20.5407 C   0  0  0  0  0  0
  -30.4113  -12.2636   19.4232 C   0  0  0  0  0  0
  -29.4809  -12.4507   18.2052 C   0  0  0  0  0  0
  -28.0011  -12.3624   18.6156 C   0  0  0  0  0  0
  -27.6654  -13.2048   19.8768 C   0  0  2  0  0  0
  -28.7122  -13.0011   20.9984 C   0  0  0  0  0  0
  -25.2648  -13.8163   20.5746 C   0  0  0  0  0  0
  -24.1886  -13.0454   20.9211 C   0  0  0  0  0  0
  -24.6422  -11.6914   20.8722 C   0  0  0  0  0  0
  -23.9078  -10.4306   21.0358 C   0  0  0  0  0  0
  -24.3627   -9.4235   21.9144 C   0  0  0  0  0  0
  -23.6313   -8.2263   22.0726 C   0  0  0  0  0  0
  -22.4295   -8.0293   21.3533 C   0  0  0  0  0  0
  -21.9932   -9.0255   20.4621 C   0  0  0  0  0  0
  -22.7240  -10.2137   20.3022 C   0  0  0  0  0  0
  -21.6865   -6.0748   22.5288 C   0  0  0  0  0  0
  -21.4016   -6.5648   23.8221 C   0  0  0  0  0  0
  -21.3666   -5.6796   24.9183 C   0  0  0  0  0  0
  -21.6048   -4.3063   24.7229 C   0  0  0  0  0  0
  -21.8820   -3.8157   23.4352 C   0  0  0  0  0  0
  -21.9204   -4.6975   22.3408 C   0  0  0  0  0  0
  -22.7905  -13.5247   21.1863 C   0  0  0  0  0  0
  -22.1662   -4.2167   21.0975 F   0  0  0  0  0  0
  -21.5641   -3.4549   25.7738 F   0  0  0  0  0  0
  -30.0476  -13.2615   20.4410 N   0  0  0  0  0  0
  -26.3076  -12.9332   20.3420 N   0  0  0  0  0  0
  -25.9357  -11.6492   20.5817 N   0  0  0  0  0  0
  -22.0550  -12.8200   22.0382 N   0  0  0  0  0  0
  -25.4428  -15.1875   20.4176 N   0  0  0  0  0  0
  -31.8980  -14.5544   20.0847 O   0  0  0  0  0  0
  -21.6647   -6.8897   21.4253 O   0  0  0  0  0  0
  -22.3608  -14.5569   20.6726 O   0  0  0  0  0  0
  -24.6066  -31.8680   23.2125 C   0  0  0  0  0  0
  -25.8961  -32.4801   23.8412 C   0  0  1  0  0  0
  -27.2558  -27.4772   20.0907 C   0  0  0  0  0  0
  -25.5875  -33.8604   24.2355 N   0  0  0  0  0  0
  -23.3967  -30.4910   21.5450 C   0  0  2  0  0  0
  -24.8542  -28.9538   20.1195 C   0  0  0  0  0  0
  -22.7354  -29.4685   22.4976 C   0  0  0  0  0  0
  -18.0262  -28.1387   22.8471 C   0  0  0  0  0  0
  -24.1510  -36.7302   23.2645 C   0  0  0  0  0  0
  -25.9207  -30.8481   21.3593 C   0  0  0  0  0  0
  -26.0062  -29.4819   20.7116 C   0  0  0  0  0  0
  -27.2141  -28.7505   20.6938 C   0  0  0  0  0  0
  -26.0896  -26.9448   19.5059 C   0  0  0  0  0  0
  -24.8875  -27.6808   19.5177 C   0  0  0  0  0  0
  -23.6088  -29.8114   20.1632 C   0  0  0  0  0  0
  -25.4124  -36.3109   24.0355 C   0  0  1  0  0  0
  -20.5842  -28.3672   23.1319 C   0  0  2  0  0  0
  -20.6764  -26.9414   22.5430 C   0  0  0  0  0  0
  -19.5744  -26.6393   21.5227 C   0  0  0  0  0  0
  -18.1910  -26.7929   22.1612 C   0  0  0  0  0  0
  -19.1515  -28.8839   23.2895 C   0  0  0  0  0  0
  -18.9458  -30.1441   23.8906 C   0  0  0  0  0  0
  -17.6461  -30.6597   24.0553 C   0  0  0  0  0  0
  -25.9030  -34.9453   23.5164 C   0  0  0  0  0  0
  -16.5342  -29.9092   23.6346 C   0  0  0  0  0  0
  -16.7257  -28.6523   23.0354 C   0  0  0  0  0  0
  -26.4430  -31.6556   25.0707 C   0  0  0  0  0  0
  -25.3715  -31.3577   26.1473 C   0  0  0  0  0  0
  -27.0276  -30.3020   24.6014 C   0  0  0  0  0  0
  -27.6042  -32.4270   25.7430 C   0  0  0  0  0  0
  -27.5598  -37.1803   24.8479 C   0  0  0  0  0  0
  -21.4096  -29.3041   22.3718 N   0  0  0  0  0  0
  -26.4318  -37.3785   23.9417 N   0  0  0  0  0  0
  -24.6585  -31.0838   22.0977 N   0  0  0  0  0  0
  -23.4145  -28.8202   23.2988 O   0  0  0  0  0  0
  -28.4322  -26.7737   20.0450 O   0  0  0  0  0  0
  -26.5596  -34.8884   22.4723 O   0  0  0  0  0  0
  -23.5268  -32.1410   23.7572 O   0  0  0  0  0  0
  -30.8065  -19.5813   22.8018 C   0  0  0  0  0  0
  -30.9007  -18.3538   22.1141 C   0  0  0  0  0  0
  -29.7235  -20.4517   22.5552 C   0  0  0  0  0  0
  -28.8442  -18.8832   20.9109 C   0  0  0  0  0  0
  -29.9188  -18.0012   21.1679 C   0  0  0  0  0  0
  -28.7438  -20.1195   21.5847 C   0  0  0  0  0  0
  -30.1053  -16.7987   20.3620 C   0  0  0  0  0  0
  -27.6546  -22.1661   21.0031 C   0  0  0  0  0  0
  -28.7695  -24.3515   20.1876 C   0  0  0  0  0  0
  -26.3396  -22.8141   20.5911 C   0  0  0  0  0  0
  -31.9977  -16.5143   17.3243 C   0  0  0  0  0  0
  -29.5044  -16.4069   16.7770 C   0  0  0  0  0  0
  -28.8956  -23.0752   21.0341 C   0  0  0  0  0  0
  -28.4894  -25.6615   20.9401 C   0  0  0  0  0  0
  -30.5851  -16.2332   17.8549 C   0  0  0  0  0  0
  -27.6304  -20.9137   21.2731 N   0  0  0  0  0  0
  -30.0644  -15.5835   20.9619 N   0  0  0  0  0  0
  -30.3070  -17.0626   19.0445 N   0  3  0  0  0  0
  -28.8806  -24.3155   18.9563 O   0  0  0  0  0  0
  -31.4523  -12.3395   19.1067 H   0  0  0  0  0  0
  -30.3037  -11.2584   19.8347 H   0  0  0  0  0  0
  -29.7014  -11.6954   17.4505 H   0  0  0  0  0  0
  -29.6605  -13.4038   17.7170 H   0  0  0  0  0  0
  -27.7687  -11.3108   18.7926 H   0  0  0  0  0  0
  -27.3712  -12.6744   17.7814 H   0  0  0  0  0  0
  -27.7133  -14.2518   19.5786 H   0  0  0  0  0  0
  -28.6713  -11.9755   21.3687 H   0  0  0  0  0  0
  -28.4931  -13.6382   21.8562 H   0  0  0  0  0  0
  -25.2783   -9.5720   22.4712 H   0  0  0  0  0  0
  -24.0050   -7.4645   22.7423 H   0  0  0  0  0  0
  -21.0886   -8.8738   19.8910 H   0  0  0  0  0  0
  -22.3693  -10.9656   19.6120 H   0  0  0  0  0  0
  -21.1988   -7.6156   23.9738 H   0  0  0  0  0  0
  -21.1485   -6.0515   25.9083 H   0  0  0  0  0  0
  -22.0591   -2.7633   23.2837 H   0  0  0  0  0  0
  -22.4176  -11.9868   22.4772 H   0  0  0  0  0  0
  -21.1136  -13.1155   22.2516 H   0  0  0  0  0  0
  -24.6907  -15.8512   20.5631 H   0  0  0  0  0  0
  -26.2962  -15.6248   20.0934 H   0  0  0  0  0  0
  -26.6987  -32.5551   23.1144 H   0  0  0  0  0  0
  -25.0116  -33.9790   25.0561 H   0  0  0  0  0  0
  -22.6845  -31.3050   21.3932 H   0  0  0  0  0  0
  -23.3790  -35.9620   23.3323 H   0  0  0  0  0  0
  -24.3620  -36.8923   22.2066 H   0  0  0  0  0  0
  -23.7233  -37.6493   23.6646 H   0  0  0  0  0  0
  -26.0272  -31.6140   20.5900 H   0  0  0  0  0  0
  -26.8087  -30.9069   21.9750 H   0  0  0  0  0  0
  -28.1075  -29.1619   21.1409 H   0  0  0  0  0  0
  -26.1281  -25.9734   19.0306 H   0  0  0  0  0  0
  -24.0009  -27.2641   19.0632 H   0  0  0  0  0  0
  -23.7035  -30.5779   19.3934 H   0  0  0  0  0  0
  -22.7418  -29.2173   19.8714 H   0  0  0  0  0  0
  -25.1279  -36.2008   25.0845 H   0  0  0  0  0  0
  -20.9921  -28.3244   24.1437 H   0  0  0  0  0  0
  -20.5702  -26.2252   23.3603 H   0  0  0  0  0  0
  -21.6628  -26.7495   22.1177 H   0  0  0  0  0  0
  -19.6917  -25.6317   21.1242 H   0  0  0  0  0  0
  -19.6697  -27.3215   20.6773 H   0  0  0  0  0  0
  -17.4191  -26.6696   21.4001 H   0  0  0  0  0  0
  -18.0281  -26.0071   22.9006 H   0  0  0  0  0  0
  -19.7946  -30.7259   24.2251 H   0  0  0  0  0  0
  -17.5045  -31.6270   24.5180 H   0  0  0  0  0  0
  -15.5355  -30.3008   23.7710 H   0  0  0  0  0  0
  -15.8642  -28.0869   22.7047 H   0  0  0  0  0  0
  -24.5954  -30.6844   25.7800 H   0  0  0  0  0  0
  -24.8798  -32.2666   26.4947 H   0  0  0  0  0  0
  -25.8115  -30.8748   27.0210 H   0  0  0  0  0  0
  -26.2774  -29.6716   24.1213 H   0  0  0  0  0  0
  -27.4246  -29.7306   25.4416 H   0  0  0  0  0  0
  -27.8505  -30.4392   23.8994 H   0  0  0  0  0  0
  -27.2736  -33.3640   26.1920 H   0  0  0  0  0  0
  -28.3867  -32.6712   25.0227 H   0  0  0  0  0  0
  -28.0633  -31.8398   26.5395 H   0  0  0  0  0  0
  -28.2606  -38.0110   24.7578 H   0  0  0  0  0  0
  -28.1104  -36.2649   24.6268 H   0  0  0  0  0  0
  -27.2303  -37.1428   25.8874 H   0  0  0  0  0  0
  -20.9241  -29.8761   21.6942 H   0  0  0  0  0  0
  -26.0225  -38.2863   24.1426 H   0  0  0  0  0  0
  -31.5752  -19.8623   23.5101 H   0  0  0  0  0  0
  -31.7580  -17.7125   22.2732 H   0  0  0  0  0  0
  -29.6658  -21.3717   23.1179 H   0  0  0  0  0  0
  -28.0955  -18.6116   20.1776 H   0  0  0  0  0  0
  -26.1457  -23.7212   21.1633 H   0  0  0  0  0  0
  -25.5024  -22.1363   20.7511 H   0  0  0  0  0  0
  -26.3603  -23.0551   19.5259 H   0  0  0  0  0  0
  -32.3945  -15.6534   16.7852 H   0  0  0  0  0  0
  -32.6925  -16.7273   18.1380 H   0  0  0  0  0  0
  -32.0128  -17.3635   16.6429 H   0  0  0  0  0  0
  -29.5668  -15.6128   16.0328 H   0  0  0  0  0  0
  -29.6082  -17.3539   16.2484 H   0  0  0  0  0  0
  -28.5013  -16.3679   17.2015 H   0  0  0  0  0  0
  -29.7753  -22.5266   20.6989 H   0  0  0  0  0  0
  -29.0782  -23.3719   22.0662 H   0  0  0  0  0  0
  -29.2977  -25.8306   21.6511 H   0  0  0  0  0  0
  -27.5716  -25.5666   21.5218 H   0  0  0  0  0  0
  -30.5652  -15.1914   18.1388 H   0  0  0  0  0  0
  -29.3608  -15.5428   21.6808 H   0  0  0  0  0  0
  -30.3051  -18.0561   18.8487 H   0  0  0  0  0  0
  1 25  1  0  0  0
  1 30  2  0  0  0
  1 87  1  0  0  0
  2  3  1  0  0  0
  2 25  1  0  0  0
  2 90  1  0  0  0
  2 91  1  0  0  0
  3  4  1  0  0  0
  3 92  1  0  0  0
  3 93  1  0  0  0
  4  5  1  0  0  0
  4 94  1  0  0  0
  4 95  1  0  0  0
  5  6  1  0  0  0
  5 26  1  0  0  0
  5 96  1  0  0  0
  6 25  1  0  0  0
  6 97  1  0  0  0
  6 98  1  0  0  0
  7  8  2  0  0  0
  7 26  1  0  0  0
  7 29  1  0  0  0
  8  9  1  0  0  0
  8 22  1  0  0  0
  9 10  1  0  0  0
  9 27  2  0  0  0
 10 11  2  0  0  0
 10 15  1  0  0  0
 11 12  1  0  0  0
 11 99  1  0  0  0
 12 13  2  0  0  0
 12100  1  0  0  0
 13 14  1  0  0  0
 13 31  1  0  0  0
 14 15  2  0  0  0
 14101  1  0  0  0
 15102  1  0  0  0
 16 17  2  0  0  0
 16 21  1  0  0  0
 16 31  1  0  0  0
 17 18  1  0  0  0
 17103  1  0  0  0
 18 19  2  0  0  0
 18104  1  0  0  0
 19 20  1  0  0  0
 19 24  1  0  0  0
 20 21  2  0  0  0
 20105  1  0  0  0
 21 23  1  0  0  0
 22 28  1  0  0  0
 22 32  2  0  0  0
 26 27  1  0  0  0
 28106  1  0  0  0
 28107  1  0  0  0
 29108  1  0  0  0
 29109  1  0  0  0
 33 34  1  0  0  0
 33 66  1  0  0  0
 33 70  2  0  0  0
 34 36  1  0  0  0
 34 59  1  0  0  0
 34110  1  0  0  0
 35 44  2  0  0  0
 35 45  1  0  0  0
 35 68  1  0  0  0
 36 56  1  0  0  0
 36111  1  0  0  0
 37 39  1  0  0  0
 37 47  1  0  0  0
 37 66  1  0  0  0
 37112  1  0  0  0
 38 43  2  0  0  0
 38 46  1  0  0  0
 38 47  1  0  0  0
 39 64  1  0  0  0
 39 67  2  0  0  0
 40 52  1  0  0  0
 40 53  2  0  0  0
 40 58  1  0  0  0
 41113  1  0  0  0
 41114  1  0  0  0
 41115  1  0  0  0
 41 48  1  0  0  0
 42 43  1  0  0  0
 42 66  1  0  0  0
 42116  1  0  0  0
 42117  1  0  0  0
 43 44  1  0  0  0
 44118  1  0  0  0
 45 46  2  0  0  0
 45119  1  0  0  0
 46120  1  0  0  0
 47121  1  0  0  0
 47122  1  0  0  0
 48 56  1  0  0  0
 48 65  1  0  0  0
 48123  1  0  0  0
 49 50  1  0  0  0
 49 53  1  0  0  0
 49 64  1  0  0  0
 49124  1  0  0  0
 50 51  1  0  0  0
 50125  1  0  0  0
 50126  1  0  0  0
 51 52  1  0  0  0
 51127  1  0  0  0
 51128  1  0  0  0
 52129  1  0  0  0
 52130  1  0  0  0
 53 54  1  0  0  0
 54 55  2  0  0  0
 54131  1  0  0  0
 55 57  1  0  0  0
 55132  1  0  0  0
 56 69  2  0  0  0
 57 58  2  0  0  0
 57133  1  0  0  0
 58134  1  0  0  0
 59 60  1  0  0  0
 59 61  1  0  0  0
 59 62  1  0  0  0
 60135  1  0  0  0
 60136  1  0  0  0
 60137  1  0  0  0
 61138  1  0  0  0
 61139  1  0  0  0
 61140  1  0  0  0
 62141  1  0  0  0
 62142  1  0  0  0
 62143  1  0  0  0
 63 65  1  0  0  0
 63144  1  0  0  0
 63145  1  0  0  0
 63146  1  0  0  0
 64147  1  0  0  0
 65148  1  0  0  0
 68 84  1  0  0  0
 71 72  2  0  0  0
 71 73  1  0  0  0
 71149  1  0  0  0
 72 75  1  0  0  0
 72150  1  0  0  0
 73 76  2  0  0  0
 73151  1  0  0  0
 74 75  2  0  0  0
 74 76  1  0  0  0
 74152  1  0  0  0
 75 77  1  0  0  0
 76 86  1  0  0  0
 77 87  1  0  0  0
 77 88  2  0  0  0
 78 80  1  0  0  0
 78 83  1  0  0  0
 78 86  2  0  0  0
 79 83  1  0  0  0
 79 84  1  0  0  0
 79 89  2  0  0  0
 80153  1  0  0  0
 80154  1  0  0  0
 80155  1  0  0  0
 81156  1  0  0  0
 81157  1  0  0  0
 81158  1  0  0  0
 81 85  1  0  0  0
 82 85  1  0  0  0
 82159  1  0  0  0
 82160  1  0  0  0
 82161  1  0  0  0
 83162  1  0  0  0
 83163  1  0  0  0
 84164  1  0  0  0
 84165  1  0  0  0
 85 88  1  0  0  0
 85166  1  0  0  0
 87167  1  0  0  0
 88168  1  0  0  0
M  CHG  1  88   1
M  ISO  4   1 100  68 101  84 101  87 100
M  END
> <chiral flag>
0

> <version>
0

> <s_m_source_file>
/data/baiqing/PycharmProjects/Reinvent-master-3.2/result/LINK_invent/BTK/process_docking_weight1_custom_product_contain_oxygen_bond_distance_aromatic_linkinvent_7_9_3/rearranged_h_0162.sdf

> <i_m_source_file_index>
46

> <r_mmod_Potential_Energy-OPLS-2005>
-165.941253662109

> <r_mmod_Stretch_Energy-OPLS-2005>
36.3522834777832

> <r_mmod_Bend_Energy-OPLS-2005>
136.549697875977

> <r_mmod_Torsional_Energy-OPLS-2005>
305.091918945312

> <r_mmod_Improper_Torsional_Energy-OPLS-2005>
6.31411218643188

> <r_mmod_Van_der_Waal_Energy-OPLS-2005>
151.719451904297

> <r_mmod_Electrostatic_Energy-OPLS-2005>
-401.681823730469

> <r_mmod_Solvation_Energy-OPLS-2005>
-412.141021728516

> <b_mmod_Minimization_Converged-OPLS-2005>
0

> <r_mmod_RMS_Derivative-OPLS-2005>
4.51158952713013

$$$$
46
                    3D
 Structure written by MMmdl.
150158  0  0  1  0            999 V2000
  -30.1591  -16.0033   20.2933 C   0  0  0  0  0  0
  -30.3972  -13.3765   19.4914 C   0  0  0  0  0  0
  -29.5474  -12.7310   18.3459 C   0  0  0  0  0  0
  -28.1665  -12.2913   18.8450 C   0  0  0  0  0  0
  -27.5854  -13.3410   19.8094 C   0  0  2  0  0  0
  -28.5936  -13.8307   20.8827 C   0  0  0  0  0  0
  -25.2295  -13.8331   20.5925 C   0  0  0  0  0  0
  -24.1715  -13.0429   20.9348 C   0  0  0  0  0  0
  -24.6476  -11.6954   20.8793 C   0  0  0  0  0  0
  -23.9200  -10.4282   21.0399 C   0  0  0  0  0  0
  -24.3711   -9.4183   21.9182 C   0  0  0  0  0  0
  -23.6346   -8.2240   22.0749 C   0  0  0  0  0  0
  -22.4323   -8.0301   21.3552 C   0  0  0  0  0  0
  -21.9993   -9.0284   20.4643 C   0  0  0  0  0  0
  -22.7360  -10.2138   20.3049 C   0  0  0  0  0  0
  -21.6859   -6.0755   22.5276 C   0  0  0  0  0  0
  -21.4019   -6.5658   23.8208 C   0  0  0  0  0  0
  -21.3665   -5.6814   24.9172 C   0  0  0  0  0  0
  -21.6035   -4.3072   24.7217 C   0  0  0  0  0  0
  -21.8822   -3.8161   23.4344 C   0  0  0  0  0  0
  -21.9198   -4.6982   22.3394 C   0  0  0  0  0  0
  -22.7709  -13.5096   21.1963 C   0  0  0  0  0  0
  -22.1668   -4.2167   21.0976 F   0  0  0  0  0  0
  -21.5628   -3.4551   25.7730 F   0  0  0  0  0  0
  -29.6778  -14.5807   20.1672 N   0  0  0  0  0  0
  -26.2803  -12.9746   20.3398 N   0  0  0  0  0  0
  -25.9431  -11.6764   20.5732 N   0  0  0  0  0  0
  -22.0433  -12.8024   22.0526 N   0  0  0  0  0  0
  -25.3792  -15.2091   20.4395 N   0  0  0  0  0  0
  -31.4074  -15.8684   20.3030 O   0  0  0  0  0  0
  -21.6666   -6.8913   21.4244 O   0  0  0  0  0  0
  -22.3336  -14.5384   20.6810 O   0  0  0  0  0  0
  -24.7094  -31.7700   23.1303 C   0  0  0  0  0  0
  -25.9548  -32.4329   23.7944 C   0  0  1  0  0  0
  -27.2352  -26.4379   20.2401 C   0  0  0  0  0  0
  -25.6021  -33.8170   24.1810 N   0  0  0  0  0  0
  -23.5456  -30.3613   21.4918 C   0  0  2  0  0  0
  -25.0045  -28.6450   20.1316 C   0  0  0  0  0  0
  -22.7841  -29.4173   22.4647 C   0  0  0  0  0  0
  -18.0319  -28.1425   22.8496 C   0  0  0  0  0  0
  -24.1499  -36.7098   23.2663 C   0  0  0  0  0  0
  -26.1382  -30.4178   21.4312 C   0  0  0  0  0  0
  -26.2019  -28.9507   20.7901 C   0  0  0  0  0  0
  -27.2937  -27.8883   20.7938 C   0  0  0  0  0  0
  -25.9966  -26.4061   19.5279 C   0  0  0  0  0  0
  -24.9579  -27.4008   19.4752 C   0  0  0  0  0  0
  -23.8152  -29.6355   20.1396 C   0  0  0  0  0  0
  -25.4158  -36.2817   24.0263 C   0  0  1  0  0  0
  -20.5972  -28.3753   23.1074 C   0  0  2  0  0  0
  -20.6756  -26.9437   22.5245 C   0  0  0  0  0  0
  -19.5641  -26.6414   21.5147 C   0  0  0  0  0  0
  -18.1895  -26.7928   22.1699 C   0  0  0  0  0  0
  -19.1607  -28.8894   23.2804 C   0  0  0  0  0  0
  -18.9537  -30.1435   23.8959 C   0  0  0  0  0  0
  -17.6544  -30.6574   24.0681 C   0  0  0  0  0  0
  -25.9149  -34.9218   23.4892 C   0  0  0  0  0  0
  -16.5411  -29.9123   23.6418 C   0  0  0  0  0  0
  -16.7316  -28.6545   23.0435 C   0  0  0  0  0  0
  -26.4633  -31.6471   25.0666 C   0  0  0  0  0  0
  -25.3623  -31.3863   26.1218 C   0  0  0  0  0  0
  -27.0604  -30.2784   24.6747 C   0  0  0  0  0  0
  -27.6052  -32.4385   25.7497 C   0  0  0  0  0  0
  -27.5549  -37.1714   24.8470 C   0  0  0  0  0  0
  -21.4457  -29.3038   22.3434 N   0  0  0  0  0  0
  -26.4256  -37.3603   23.9407 N   0  0  0  0  0  0
  -24.8251  -30.8879   22.0708 N   0  0  0  0  0  0
  -23.4161  -28.7796   23.3080 O   0  0  0  0  0  0
  -28.1957  -25.1201   20.2085 O   0  0  0  0  0  0
  -26.5813  -34.8854   22.4530 O   0  0  0  0  0  0
  -23.6058  -32.0906   23.6091 O   0  0  0  0  0  0
  -26.6802  -19.8385   19.5837 C   0  0  0  0  0  0
  -26.7711  -19.7217   21.1258 C   0  0  0  0  0  0
  -27.6527  -20.8749   18.9681 C   0  0  0  0  0  0
  -28.1588  -19.2950   21.6759 C   0  0  0  0  0  0
  -28.7704  -21.2710   19.9479 C   0  0  2  0  0  0
  -29.2636  -19.3389   20.6055 C   0  0  2  0  0  0
  -28.2062  -23.2392   20.4852 C   0  0  0  0  0  0
  -29.4017  -17.4648   20.2218 N   0  0  0  0  0  0
  -31.3308  -13.7233   19.0449 H   0  0  0  0  0  0
  -30.7043  -12.6305   20.2266 H   0  0  0  0  0  0
  -30.0708  -11.8825   17.9014 H   0  0  0  0  0  0
  -29.4183  -13.4597   17.5448 H   0  0  0  0  0  0
  -28.2880  -11.3495   19.3810 H   0  0  0  0  0  0
  -27.4872  -12.0919   18.0157 H   0  0  0  0  0  0
  -27.3929  -14.2028   19.1685 H   0  0  0  0  0  0
  -28.9641  -13.0094   21.4969 H   0  0  0  0  0  0
  -28.1042  -14.5171   21.5736 H   0  0  0  0  0  0
  -25.2851   -9.5631   22.4772 H   0  0  0  0  0  0
  -24.0042   -7.4616   22.7457 H   0  0  0  0  0  0
  -21.0929   -8.8827   19.8934 H   0  0  0  0  0  0
  -22.3843  -10.9697   19.6161 H   0  0  0  0  0  0
  -21.2029   -7.6168   23.9714 H   0  0  0  0  0  0
  -21.1474   -6.0545   25.9076 H   0  0  0  0  0  0
  -22.0599   -2.7623   23.2835 H   0  0  0  0  0  0
  -22.4131  -11.9694   22.4878 H   0  0  0  0  0  0
  -21.1034  -13.0908   22.2800 H   0  0  0  0  0  0
  -24.6007  -15.8487   20.5550 H   0  0  0  0  0  0
  -26.2270  -15.6691   20.1392 H   0  0  0  0  0  0
  -26.7660  -32.4742   23.0669 H   0  0  0  0  0  0
  -25.0050  -33.9163   24.9888 H   0  0  0  0  0  0
  -22.8864  -31.2052   21.2784 H   0  0  0  0  0  0
  -23.3775  -35.9405   23.3256 H   0  0  0  0  0  0
  -24.3562  -36.8835   22.2091 H   0  0  0  0  0  0
  -23.7248  -37.6254   23.6791 H   0  0  0  0  0  0
  -26.3608  -31.1233   20.6294 H   0  0  0  0  0  0
  -26.9819  -30.5009   22.1029 H   0  0  0  0  0  0
  -28.2037  -28.1541   21.3136 H   0  0  0  0  0  0
  -25.7860  -25.4876   18.9977 H   0  0  0  0  0  0
  -24.0644  -27.1571   18.9169 H   0  0  0  0  0  0
  -24.0199  -30.3866   19.3761 H   0  0  0  0  0  0
  -22.9126  -29.1199   19.8046 H   0  0  0  0  0  0
  -25.1378  -36.1538   25.0744 H   0  0  0  0  0  0
  -21.0029  -28.3239   24.1199 H   0  0  0  0  0  0
  -20.5699  -26.2352   23.3486 H   0  0  0  0  0  0
  -21.6546  -26.7412   22.0886 H   0  0  0  0  0  0
  -19.6779  -25.6343   21.1111 H   0  0  0  0  0  0
  -19.6440  -27.3275   20.6699 H   0  0  0  0  0  0
  -17.4040  -26.6587   21.4238 H   0  0  0  0  0  0
  -18.0412  -26.0127   22.9188 H   0  0  0  0  0  0
  -19.8000  -30.7183   24.2475 H   0  0  0  0  0  0
  -17.5119  -31.6185   24.5434 H   0  0  0  0  0  0
  -15.5426  -30.3038   23.7808 H   0  0  0  0  0  0
  -15.8727  -28.0802   22.7256 H   0  0  0  0  0  0
  -24.5857  -30.7165   25.7485 H   0  0  0  0  0  0
  -24.8753  -32.3106   26.4342 H   0  0  0  0  0  0
  -25.7721  -30.9214   27.0193 H   0  0  0  0  0  0
  -26.3366  -29.6318   24.1777 H   0  0  0  0  0  0
  -27.3961  -29.7331   25.5576 H   0  0  0  0  0  0
  -27.9369  -30.3835   24.0357 H   0  0  0  0  0  0
  -27.2581  -33.3794   26.1773 H   0  0  0  0  0  0
  -28.4016  -32.6769   25.0437 H   0  0  0  0  0  0
  -28.0547  -31.8718   26.5654 H   0  0  0  0  0  0
  -28.2533  -38.0039   24.7491 H   0  0  0  0  0  0
  -28.1076  -36.2559   24.6316 H   0  0  0  0  0  0
  -27.2267  -37.1372   25.8874 H   0  0  0  0  0  0
  -20.9780  -29.8727   21.6508 H   0  0  0  0  0  0
  -26.0060  -38.2638   24.1421 H   0  0  0  0  0  0
  -25.6579  -20.0877   19.2961 H   0  0  0  0  0  0
  -26.8684  -18.8575   19.1453 H   0  0  0  0  0  0
  -26.0140  -19.0241   21.4832 H   0  0  0  0  0  0
  -26.4982  -20.6864   21.5559 H   0  0  0  0  0  0
  -27.1071  -21.7623   18.6467 H   0  0  0  0  0  0
  -28.0899  -20.4518   18.0613 H   0  0  0  0  0  0
  -28.0920  -18.3099   22.1390 H   0  0  0  0  0  0
  -28.4284  -19.9728   22.4880 H   0  0  0  0  0  0
  -29.6524  -21.5008   19.3495 H   0  0  0  0  0  0
  -30.2176  -19.4914   21.1101 H   0  0  0  0  0  0
  -28.6515  -23.2670   21.4804 H   0  0  0  0  0  0
  -27.1478  -23.0951   20.7018 H   0  0  0  0  0  0
  -28.4637  -17.1916   19.9630 H   0  0  0  0  0  0
  1 25  1  0  0  0
  1 30  2  0  0  0
  1 78  1  0  0  0
  2  3  1  0  0  0
  2 25  1  0  0  0
  2 79  1  0  0  0
  2 80  1  0  0  0
  3  4  1  0  0  0
  3 81  1  0  0  0
  3 82  1  0  0  0
  4  5  1  0  0  0
  4 83  1  0  0  0
  4 84  1  0  0  0
  5  6  1  0  0  0
  5 26  1  0  0  0
  5 85  1  0  0  0
  6 25  1  0  0  0
  6 86  1  0  0  0
  6 87  1  0  0  0
  7  8  2  0  0  0
  7 26  1  0  0  0
  7 29  1  0  0  0
  8  9  1  0  0  0
  8 22  1  0  0  0
  9 10  1  0  0  0
  9 27  2  0  0  0
 10 11  2  0  0  0
 10 15  1  0  0  0
 11 12  1  0  0  0
 11 88  1  0  0  0
 12 13  2  0  0  0
 12 89  1  0  0  0
 13 14  1  0  0  0
 13 31  1  0  0  0
 14 15  2  0  0  0
 14 90  1  0  0  0
 15 91  1  0  0  0
 16 17  2  0  0  0
 16 21  1  0  0  0
 16 31  1  0  0  0
 17 18  1  0  0  0
 17 92  1  0  0  0
 18 19  2  0  0  0
 18 93  1  0  0  0
 19 20  1  0  0  0
 19 24  1  0  0  0
 20 21  2  0  0  0
 20 94  1  0  0  0
 21 23  1  0  0  0
 22 28  1  0  0  0
 22 32  2  0  0  0
 26 27  1  0  0  0
 28 95  1  0  0  0
 28 96  1  0  0  0
 29 97  1  0  0  0
 29 98  1  0  0  0
 33 34  1  0  0  0
 33 66  1  0  0  0
 33 70  2  0  0  0
 34 36  1  0  0  0
 34 59  1  0  0  0
 34 99  1  0  0  0
 35 44  2  0  0  0
 35 45  1  0  0  0
 35 68  1  0  0  0
 36 56  1  0  0  0
 36100  1  0  0  0
 37 39  1  0  0  0
 37 47  1  0  0  0
 37 66  1  0  0  0
 37101  1  0  0  0
 38 43  2  0  0  0
 38 46  1  0  0  0
 38 47  1  0  0  0
 39 64  1  0  0  0
 39 67  2  0  0  0
 40 52  1  0  0  0
 40 53  2  0  0  0
 40 58  1  0  0  0
 41102  1  0  0  0
 41103  1  0  0  0
 41104  1  0  0  0
 41 48  1  0  0  0
 42 43  1  0  0  0
 42 66  1  0  0  0
 42105  1  0  0  0
 42106  1  0  0  0
 43 44  1  0  0  0
 44107  1  0  0  0
 45 46  2  0  0  0
 45108  1  0  0  0
 46109  1  0  0  0
 47110  1  0  0  0
 47111  1  0  0  0
 48 56  1  0  0  0
 48 65  1  0  0  0
 48112  1  0  0  0
 49 50  1  0  0  0
 49 53  1  0  0  0
 49 64  1  0  0  0
 49113  1  0  0  0
 50 51  1  0  0  0
 50114  1  0  0  0
 50115  1  0  0  0
 51 52  1  0  0  0
 51116  1  0  0  0
 51117  1  0  0  0
 52118  1  0  0  0
 52119  1  0  0  0
 53 54  1  0  0  0
 54 55  2  0  0  0
 54120  1  0  0  0
 55 57  1  0  0  0
 55121  1  0  0  0
 56 69  2  0  0  0
 57 58  2  0  0  0
 57122  1  0  0  0
 58123  1  0  0  0
 59 60  1  0  0  0
 59 61  1  0  0  0
 59 62  1  0  0  0
 60124  1  0  0  0
 60125  1  0  0  0
 60126  1  0  0  0
 61127  1  0  0  0
 61128  1  0  0  0
 61129  1  0  0  0
 62130  1  0  0  0
 62131  1  0  0  0
 62132  1  0  0  0
 63 65  1  0  0  0
 63133  1  0  0  0
 63134  1  0  0  0
 63135  1  0  0  0
 64136  1  0  0  0
 65137  1  0  0  0
 68 77  1  0  0  0
 71 72  1  0  0  0
 71 73  1  0  0  0
 71138  1  0  0  0
 71139  1  0  0  0
 72 74  1  0  0  0
 72140  1  0  0  0
 72141  1  0  0  0
 73 75  1  0  0  0
 73142  1  0  0  0
 73143  1  0  0  0
 74 76  1  0  0  0
 74144  1  0  0  0
 74145  1  0  0  0
 75 76  1  0  0  0
 75 77  1  0  0  0
 75146  1  0  0  0
 76 78  1  0  0  0
 76147  1  0  0  0
 77148  1  0  0  0
 77149  1  0  0  0
 78150  1  0  0  0
M  ISO  4   1 100  68 101  77 101  78 100
M  END
> <chiral flag>
0

> <version>
0

> <s_m_source_file>
/data/baiqing/PycharmProjects/Reinvent-master-3.2/result/LINK_invent/BTK/process_docking_weight1_custom_product_contain_oxygen_bond_distance_aromatic_linkinvent_7_9_3/rearranged_h_0162.sdf

> <i_m_source_file_index>
47

> <r_mmod_Potential_Energy-OPLS-2005>
4263.6240234375

> <r_mmod_Stretch_Energy-OPLS-2005>
1940.06298828125

> <r_mmod_Bend_Energy-OPLS-2005>
926.381286621094

> <r_mmod_Torsional_Energy-OPLS-2005>
292.090667724609

> <r_mmod_Improper_Torsional_Energy-OPLS-2005>
5.70295143127441

> <r_mmod_Van_der_Waal_Energy-OPLS-2005>
119.142356872559

> <r_mmod_Electrostatic_Energy-OPLS-2005>
-344.377014160156

> <r_mmod_Solvation_Energy-OPLS-2005>
-213.111877441406

> <b_mmod_Minimization_Converged-OPLS-2005>
0

> <r_mmod_RMS_Derivative-OPLS-2005>
3.04597520828247

$$$$
47
                    3D
 Structure written by MMmdl.
150158  0  0  1  0            999 V2000
  -30.6710  -14.5414   20.5481 C   0  0  0  0  0  0
  -30.4266  -12.3449   19.4314 C   0  0  0  0  0  0
  -29.4961  -12.5023   18.2105 C   0  0  0  0  0  0
  -28.0187  -12.3523   18.6259 C   0  0  0  0  0  0
  -27.6552  -13.2106   19.8672 C   0  0  2  0  0  0
  -28.6986  -13.0292   20.9920 C   0  0  0  0  0  0
  -25.2567  -13.8164   20.5685 C   0  0  0  0  0  0
  -24.1825  -13.0438   20.9188 C   0  0  0  0  0  0
  -24.6386  -11.6907   20.8742 C   0  0  0  0  0  0
  -23.9058  -10.4293   21.0411 C   0  0  0  0  0  0
  -24.3611   -9.4208   21.9188 C   0  0  0  0  0  0
  -23.6290   -8.2242   22.0754 C   0  0  0  0  0  0
  -22.4271   -8.0282   21.3544 C   0  0  0  0  0  0
  -21.9906   -9.0254   20.4645 C   0  0  0  0  0  0
  -22.7232  -10.2135   20.3058 C   0  0  0  0  0  0
  -21.6850   -6.0737   22.5279 C   0  0  0  0  0  0
  -21.4013   -6.5641   23.8213 C   0  0  0  0  0  0
  -21.3658   -5.6794   24.9175 C   0  0  0  0  0  0
  -21.6045   -4.3056   24.7224 C   0  0  0  0  0  0
  -21.8819   -3.8149   23.4345 C   0  0  0  0  0  0
  -21.9191   -4.6966   22.3403 C   0  0  0  0  0  0
  -22.7852  -13.5235   21.1855 C   0  0  0  0  0  0
  -22.1662   -4.2154   21.0980 F   0  0  0  0  0  0
  -21.5627   -3.4540   25.7737 F   0  0  0  0  0  0
  -30.0197  -13.3491   20.4294 N   0  0  0  0  0  0
  -26.2992  -12.9337   20.3337 N   0  0  0  0  0  0
  -25.9312  -11.6496   20.5762 N   0  0  0  0  0  0
  -22.0494  -12.8226   22.0409 N   0  0  0  0  0  0
  -25.4290  -15.1885   20.4102 N   0  0  0  0  0  0
  -31.8193  -14.7078   20.1288 O   0  0  0  0  0  0
  -21.6636   -6.8880   21.4241 O   0  0  0  0  0  0
  -22.3543  -14.5547   20.6711 O   0  0  0  0  0  0
  -24.6198  -31.8639   23.2069 C   0  0  0  0  0  0
  -25.9073  -32.4796   23.8378 C   0  0  1  0  0  0
  -27.2293  -27.3782   20.0928 C   0  0  0  0  0  0
  -25.5913  -33.8599   24.2305 N   0  0  0  0  0  0
  -23.4093  -30.4886   21.5487 C   0  0  2  0  0  0
  -24.8528  -28.9480   20.1138 C   0  0  0  0  0  0
  -22.7428  -29.4649   22.4968 C   0  0  0  0  0  0
  -18.0275  -28.1378   22.8491 C   0  0  0  0  0  0
  -24.1487  -36.7305   23.2641 C   0  0  0  0  0  0
  -25.9446  -30.8108   21.3684 C   0  0  0  0  0  0
  -26.0174  -29.4420   20.7122 C   0  0  0  0  0  0
  -27.2045  -28.6644   20.6982 C   0  0  0  0  0  0
  -26.0331  -26.9072   19.5013 C   0  0  0  0  0  0
  -24.8582  -27.6819   19.5077 C   0  0  0  0  0  0
  -23.6191  -29.8227   20.1637 C   0  0  0  0  0  0
  -25.4109  -36.3097   24.0334 C   0  0  1  0  0  0
  -20.5870  -28.3671   23.1303 C   0  0  2  0  0  0
  -20.6765  -26.9403   22.5412 C   0  0  0  0  0  0
  -19.5745  -26.6383   21.5208 C   0  0  0  0  0  0
  -18.1920  -26.7925   22.1619 C   0  0  0  0  0  0
  -19.1526  -28.8841   23.2894 C   0  0  0  0  0  0
  -18.9453  -30.1445   23.8907 C   0  0  0  0  0  0
  -17.6456  -30.6586   24.0564 C   0  0  0  0  0  0
  -25.9039  -34.9463   23.5116 C   0  0  0  0  0  0
  -16.5348  -29.9088   23.6332 C   0  0  0  0  0  0
  -16.7263  -28.6503   23.0353 C   0  0  0  0  0  0
  -26.4484  -31.6596   25.0727 C   0  0  0  0  0  0
  -25.3736  -31.3713   26.1466 C   0  0  0  0  0  0
  -27.0325  -30.3033   24.6140 C   0  0  0  0  0  0
  -27.6053  -32.4326   25.7489 C   0  0  0  0  0  0
  -27.5580  -37.1806   24.8465 C   0  0  0  0  0  0
  -21.4149  -29.3039   22.3707 N   0  0  0  0  0  0
  -26.4294  -37.3782   23.9407 N   0  0  0  0  0  0
  -24.6767  -31.0696   22.0993 N   0  0  0  0  0  0
  -23.4178  -28.8186   23.3025 O   0  0  0  0  0  0
  -28.4020  -26.6286   20.1221 O   0  0  0  0  0  0
  -26.5600  -34.8920   22.4678 O   0  0  0  0  0  0
  -23.5379  -32.1420   23.7431 O   0  0  0  0  0  0
  -28.9984  -18.1695   19.3550 C   0  0  0  0  0  0
  -29.6904  -18.0966   20.5417 C   0  0  0  0  0  0
  -29.1005  -20.1713   20.1679 C   0  0  0  0  0  0
  -28.5952  -24.0948   20.2956 C   0  0  0  0  0  0
  -30.3954  -16.9654   21.2846 C   0  0  0  0  0  0
  -28.6402  -22.7061   19.5915 C   0  0  0  0  0  0
  -28.5202  -25.3682   19.3962 C   0  0  0  0  0  0
  -28.6364  -19.5003   19.1197 N   0  0  0  0  0  0
  -29.0511  -21.5473   20.4172 N   0  0  0  0  0  0
  -29.9360  -15.5789   21.0182 N   0  0  0  0  0  0
  -28.6415  -24.1691   21.5291 O   0  0  0  0  0  0
  -29.7507  -19.3809   21.0745 O   0  0  0  0  0  0
  -31.4693  -12.4561   19.1290 H   0  0  0  0  0  0
  -30.3438  -11.3422   19.8525 H   0  0  0  0  0  0
  -29.7463  -11.7631   17.4479 H   0  0  0  0  0  0
  -29.6511  -13.4800   17.7514 H   0  0  0  0  0  0
  -27.8431  -11.2978   18.8424 H   0  0  0  0  0  0
  -27.3643  -12.6026   17.7899 H   0  0  0  0  0  0
  -27.6865  -14.2519   19.5465 H   0  0  0  0  0  0
  -28.6918  -12.0015   21.3582 H   0  0  0  0  0  0
  -28.4548  -13.6501   21.8556 H   0  0  0  0  0  0
  -25.2755   -9.5687   22.4760 H   0  0  0  0  0  0
  -24.0003   -7.4635   22.7472 H   0  0  0  0  0  0
  -21.0838   -8.8774   19.8949 H   0  0  0  0  0  0
  -22.3693  -10.9676   19.6168 H   0  0  0  0  0  0
  -21.2007   -7.6148   23.9719 H   0  0  0  0  0  0
  -21.1480   -6.0522   25.9079 H   0  0  0  0  0  0
  -22.0598   -2.7612   23.2844 H   0  0  0  0  0  0
  -22.4103  -11.9878   22.4784 H   0  0  0  0  0  0
  -21.1116  -13.1260   22.2627 H   0  0  0  0  0  0
  -24.6623  -15.8434   20.5188 H   0  0  0  0  0  0
  -26.2792  -15.6277   20.0806 H   0  0  0  0  0  0
  -26.7139  -32.5479   23.1129 H   0  0  0  0  0  0
  -25.0070  -33.9756   25.0457 H   0  0  0  0  0  0
  -22.7006  -31.3077   21.4085 H   0  0  0  0  0  0
  -23.3740  -35.9647   23.3315 H   0  0  0  0  0  0
  -24.3577  -36.8911   22.2053 H   0  0  0  0  0  0
  -23.7250  -37.6517   23.6651 H   0  0  0  0  0  0
  -26.0660  -31.5755   20.6000 H   0  0  0  0  0  0
  -26.8298  -30.8615   21.9910 H   0  0  0  0  0  0
  -28.1036  -29.0435   21.1636 H   0  0  0  0  0  0
  -25.9603  -25.9327   19.0457 H   0  0  0  0  0  0
  -23.9584  -27.2909   19.0528 H   0  0  0  0  0  0
  -23.7325  -30.5985   19.4055 H   0  0  0  0  0  0
  -22.7402  -29.2483   19.8654 H   0  0  0  0  0  0
  -25.1285  -36.1958   25.0827 H   0  0  0  0  0  0
  -20.9965  -28.3243   24.1423 H   0  0  0  0  0  0
  -20.5664  -26.2278   23.3599 H   0  0  0  0  0  0
  -21.6636  -26.7438   22.1210 H   0  0  0  0  0  0
  -19.6905  -25.6295   21.1237 H   0  0  0  0  0  0
  -19.6692  -27.3194   20.6739 H   0  0  0  0  0  0
  -17.4191  -26.6676   21.4018 H   0  0  0  0  0  0
  -18.0324  -26.0058   22.9008 H   0  0  0  0  0  0
  -19.7929  -30.7257   24.2284 H   0  0  0  0  0  0
  -17.5011  -31.6269   24.5157 H   0  0  0  0  0  0
  -15.5348  -30.2992   23.7651 H   0  0  0  0  0  0
  -15.8661  -28.0827   22.7067 H   0  0  0  0  0  0
  -24.5917  -30.7051   25.7804 H   0  0  0  0  0  0
  -24.8915  -32.2866   26.4906 H   0  0  0  0  0  0
  -25.8080  -30.8892   27.0232 H   0  0  0  0  0  0
  -26.2887  -29.6779   24.1186 H   0  0  0  0  0  0
  -27.4075  -29.7288   25.4622 H   0  0  0  0  0  0
  -27.8730  -30.4344   23.9319 H   0  0  0  0  0  0
  -27.2677  -33.3630   26.2070 H   0  0  0  0  0  0
  -28.3859  -32.6882   25.0310 H   0  0  0  0  0  0
  -28.0721  -31.8445   26.5399 H   0  0  0  0  0  0
  -28.2601  -38.0098   24.7506 H   0  0  0  0  0  0
  -28.1077  -36.2632   24.6304 H   0  0  0  0  0  0
  -27.2298  -37.1473   25.8868 H   0  0  0  0  0  0
  -20.9305  -29.8773   21.6942 H   0  0  0  0  0  0
  -26.0180  -38.2863   24.1398 H   0  0  0  0  0  0
  -28.7634  -17.3823   18.6517 H   0  0  0  0  0  0
  -30.2862  -17.1328   22.3565 H   0  0  0  0  0  0
  -31.4671  -17.0443   21.0956 H   0  0  0  0  0  0
  -29.3168  -22.7803   18.7397 H   0  0  0  0  0  0
  -27.6502  -22.5066   19.1796 H   0  0  0  0  0  0
  -27.7703  -25.2324   18.6212 H   0  0  0  0  0  0
  -29.4660  -25.4134   18.8566 H   0  0  0  0  0  0
  -29.4425  -21.8200   21.3128 H   0  0  0  0  0  0
  -28.9940  -15.3570   21.3025 H   0  0  0  0  0  0
  1 25  1  0  0  0
  1 30  2  0  0  0
  1 80  1  0  0  0
  2  3  1  0  0  0
  2 25  1  0  0  0
  2 83  1  0  0  0
  2 84  1  0  0  0
  3  4  1  0  0  0
  3 85  1  0  0  0
  3 86  1  0  0  0
  4  5  1  0  0  0
  4 87  1  0  0  0
  4 88  1  0  0  0
  5  6  1  0  0  0
  5 26  1  0  0  0
  5 89  1  0  0  0
  6 25  1  0  0  0
  6 90  1  0  0  0
  6 91  1  0  0  0
  7  8  2  0  0  0
  7 26  1  0  0  0
  7 29  1  0  0  0
  8  9  1  0  0  0
  8 22  1  0  0  0
  9 10  1  0  0  0
  9 27  2  0  0  0
 10 11  2  0  0  0
 10 15  1  0  0  0
 11 12  1  0  0  0
 11 92  1  0  0  0
 12 13  2  0  0  0
 12 93  1  0  0  0
 13 14  1  0  0  0
 13 31  1  0  0  0
 14 15  2  0  0  0
 14 94  1  0  0  0
 15 95  1  0  0  0
 16 17  2  0  0  0
 16 21  1  0  0  0
 16 31  1  0  0  0
 17 18  1  0  0  0
 17 96  1  0  0  0
 18 19  2  0  0  0
 18 97  1  0  0  0
 19 20  1  0  0  0
 19 24  1  0  0  0
 20 21  2  0  0  0
 20 98  1  0  0  0
 21 23  1  0  0  0
 22 28  1  0  0  0
 22 32  2  0  0  0
 26 27  1  0  0  0
 28 99  1  0  0  0
 28100  1  0  0  0
 29101  1  0  0  0
 29102  1  0  0  0
 33 34  1  0  0  0
 33 66  1  0  0  0
 33 70  2  0  0  0
 34 36  1  0  0  0
 34 59  1  0  0  0
 34103  1  0  0  0
 35 44  2  0  0  0
 35 45  1  0  0  0
 35 68  1  0  0  0
 36 56  1  0  0  0
 36104  1  0  0  0
 37 39  1  0  0  0
 37 47  1  0  0  0
 37 66  1  0  0  0
 37105  1  0  0  0
 38 43  2  0  0  0
 38 46  1  0  0  0
 38 47  1  0  0  0
 39 64  1  0  0  0
 39 67  2  0  0  0
 40 52  1  0  0  0
 40 53  2  0  0  0
 40 58  1  0  0  0
 41106  1  0  0  0
 41107  1  0  0  0
 41108  1  0  0  0
 41 48  1  0  0  0
 42 43  1  0  0  0
 42 66  1  0  0  0
 42109  1  0  0  0
 42110  1  0  0  0
 43 44  1  0  0  0
 44111  1  0  0  0
 45 46  2  0  0  0
 45112  1  0  0  0
 46113  1  0  0  0
 47114  1  0  0  0
 47115  1  0  0  0
 48 56  1  0  0  0
 48 65  1  0  0  0
 48116  1  0  0  0
 49 50  1  0  0  0
 49 53  1  0  0  0
 49 64  1  0  0  0
 49117  1  0  0  0
 50 51  1  0  0  0
 50118  1  0  0  0
 50119  1  0  0  0
 51 52  1  0  0  0
 51120  1  0  0  0
 51121  1  0  0  0
 52122  1  0  0  0
 52123  1  0  0  0
 53 54  1  0  0  0
 54 55  2  0  0  0
 54124  1  0  0  0
 55 57  1  0  0  0
 55125  1  0  0  0
 56 69  2  0  0  0
 57 58  2  0  0  0
 57126  1  0  0  0
 58127  1  0  0  0
 59 60  1  0  0  0
 59 61  1  0  0  0
 59 62  1  0  0  0
 60128  1  0  0  0
 60129  1  0  0  0
 60130  1  0  0  0
 61131  1  0  0  0
 61132  1  0  0  0
 61133  1  0  0  0
 62134  1  0  0  0
 62135  1  0  0  0
 62136  1  0  0  0
 63 65  1  0  0  0
 63137  1  0  0  0
 63138  1  0  0  0
 63139  1  0  0  0
 64140  1  0  0  0
 65141  1  0  0  0
 68 77  1  0  0  0
 71 72  2  0  0  0
 71 78  1  0  0  0
 71142  1  0  0  0
 72 75  1  0  0  0
 72 82  1  0  0  0
 73 78  2  0  0  0
 73 79  1  0  0  0
 73 82  1  0  0  0
 74 76  1  0  0  0
 74 77  1  0  0  0
 74 81  2  0  0  0
 75 80  1  0  0  0
 75143  1  0  0  0
 75144  1  0  0  0
 76 79  1  0  0  0
 76145  1  0  0  0
 76146  1  0  0  0
 77147  1  0  0  0
 77148  1  0  0  0
 79149  1  0  0  0
 80150  1  0  0  0
M  ISO  4   1 100  68 101  77 101  80 100
M  END
> <chiral flag>
0

> <version>
0

> <s_m_source_file>
/data/baiqing/PycharmProjects/Reinvent-master-3.2/result/LINK_invent/BTK/process_docking_weight1_custom_product_contain_oxygen_bond_distance_aromatic_linkinvent_7_9_3/rearranged_h_0162.sdf

> <i_m_source_file_index>
48

> <r_mmod_Potential_Energy-OPLS-2005>
-246.785125732422

> <r_mmod_Stretch_Energy-OPLS-2005>
47.8573837280273

> <r_mmod_Bend_Energy-OPLS-2005>
117.170135498047

> <r_mmod_Torsional_Energy-OPLS-2005>
176.967300415039

> <r_mmod_Improper_Torsional_Energy-OPLS-2005>
3.50655031204224

> <r_mmod_Van_der_Waal_Energy-OPLS-2005>
124.754852294922

> <r_mmod_Electrostatic_Energy-OPLS-2005>
-483.651428222656

> <r_mmod_Solvation_Energy-OPLS-2005>
-256.765197753906

> <b_mmod_Minimization_Converged-OPLS-2005>
0

> <r_mmod_RMS_Derivative-OPLS-2005>
0.654435813426971

$$$$
48
                    3D
 Structure written by MMmdl.
154162  0  0  1  0            999 V2000
  -30.6958  -14.5513   20.5870 C   0  0  0  0  0  0
  -30.4412  -12.3611   19.4608 C   0  0  0  0  0  0
  -29.5176  -12.5319   18.2349 C   0  0  0  0  0  0
  -28.0374  -12.3701   18.6340 C   0  0  0  0  0  0
  -27.6656  -13.2177   19.8804 C   0  0  2  0  0  0
  -28.7051  -13.0359   21.0124 C   0  0  0  0  0  0
  -25.2587  -13.8174   20.5670 C   0  0  0  0  0  0
  -24.1850  -13.0434   20.9148 C   0  0  0  0  0  0
  -24.6425  -11.6907   20.8716 C   0  0  0  0  0  0
  -23.9087  -10.4297   21.0386 C   0  0  0  0  0  0
  -24.3628   -9.4220   21.9174 C   0  0  0  0  0  0
  -23.6303   -8.2257   22.0759 C   0  0  0  0  0  0
  -22.4284   -8.0294   21.3553 C   0  0  0  0  0  0
  -21.9927   -9.0252   20.4638 C   0  0  0  0  0  0
  -22.7256  -10.2128   20.3037 C   0  0  0  0  0  0
  -21.6854   -6.0751   22.5284 C   0  0  0  0  0  0
  -21.3999   -6.5641   23.8218 C   0  0  0  0  0  0
  -21.3637   -5.6791   24.9170 C   0  0  0  0  0  0
  -21.6032   -4.3063   24.7224 C   0  0  0  0  0  0
  -21.8825   -3.8159   23.4346 C   0  0  0  0  0  0
  -21.9199   -4.6978   22.3408 C   0  0  0  0  0  0
  -22.7867  -13.5223   21.1815 C   0  0  0  0  0  0
  -22.1669   -4.2170   21.0984 F   0  0  0  0  0  0
  -21.5622   -3.4546   25.7728 F   0  0  0  0  0  0
  -30.0389  -13.3551   20.4743 N   0  0  0  0  0  0
  -26.3051  -12.9364   20.3365 N   0  0  0  0  0  0
  -25.9365  -11.6510   20.5766 N   0  0  0  0  0  0
  -22.0510  -12.8219   22.0370 N   0  0  0  0  0  0
  -25.4294  -15.1905   20.4059 N   0  0  0  0  0  0
  -31.8053  -14.7247   20.0717 O   0  0  0  0  0  0
  -21.6643   -6.8890   21.4248 O   0  0  0  0  0  0
  -22.3548  -14.5539   20.6684 O   0  0  0  0  0  0
  -24.6206  -31.8643   23.2097 C   0  0  0  0  0  0
  -25.9086  -32.4790   23.8408 C   0  0  1  0  0  0
  -27.2151  -27.3909   20.1176 C   0  0  0  0  0  0
  -25.5944  -33.8591   24.2333 N   0  0  0  0  0  0
  -23.4094  -30.4872   21.5495 C   0  0  2  0  0  0
  -24.8534  -28.9523   20.1086 C   0  0  0  0  0  0
  -22.7454  -29.4608   22.4965 C   0  0  0  0  0  0
  -18.0265  -28.1393   22.8494 C   0  0  0  0  0  0
  -24.1438  -36.7250   23.2647 C   0  0  0  0  0  0
  -25.9408  -30.8165   21.3652 C   0  0  0  0  0  0
  -26.0150  -29.4474   20.7158 C   0  0  0  0  0  0
  -27.2020  -28.6737   20.7191 C   0  0  0  0  0  0
  -26.0424  -26.9226   19.4880 C   0  0  0  0  0  0
  -24.8643  -27.6927   19.4862 C   0  0  0  0  0  0
  -23.6200  -29.8258   20.1603 C   0  0  0  0  0  0
  -25.4065  -36.3064   24.0353 C   0  0  1  0  0  0
  -20.5875  -28.3663   23.1291 C   0  0  2  0  0  0
  -20.6739  -26.9387   22.5410 C   0  0  0  0  0  0
  -19.5698  -26.6366   21.5221 C   0  0  0  0  0  0
  -18.1870  -26.7946   22.1607 C   0  0  0  0  0  0
  -19.1533  -28.8852   23.2876 C   0  0  0  0  0  0
  -18.9472  -30.1463   23.8881 C   0  0  0  0  0  0
  -17.6480  -30.6609   24.0571 C   0  0  0  0  0  0
  -25.9032  -34.9451   23.5129 C   0  0  0  0  0  0
  -16.5357  -29.9108   23.6379 C   0  0  0  0  0  0
  -16.7257  -28.6524   23.0396 C   0  0  0  0  0  0
  -26.4496  -31.6591   25.0762 C   0  0  0  0  0  0
  -25.3787  -31.3701   26.1537 C   0  0  0  0  0  0
  -27.0312  -30.3043   24.6110 C   0  0  0  0  0  0
  -27.6042  -32.4334   25.7551 C   0  0  0  0  0  0
  -27.5540  -37.1754   24.8479 C   0  0  0  0  0  0
  -21.4180  -29.3022   22.3718 N   0  0  0  0  0  0
  -26.4214  -37.3782   23.9481 N   0  0  0  0  0  0
  -24.6766  -31.0706   22.1012 N   0  0  0  0  0  0
  -23.4213  -28.8162   23.3027 O   0  0  0  0  0  0
  -28.3226  -26.5659   20.1719 O   0  0  0  0  0  0
  -26.5547  -34.8912   22.4663 O   0  0  0  0  0  0
  -23.5392  -32.1389   23.7476 O   0  0  0  0  0  0
  -29.4603  -17.9176   21.8828 C   0  0  0  0  0  0
  -29.7295  -19.1298   21.2853 C   0  0  0  0  0  0
  -30.1155  -16.9664   21.0353 C   0  0  0  0  0  0
  -29.2905  -20.4585   21.7500 C   0  0  0  0  0  0
  -28.7438  -24.0832   20.5429 C   0  0  0  0  0  0
  -28.1171  -25.4209   21.0450 C   0  0  0  0  0  0
  -26.8056  -22.5248   21.1570 C   0  0  0  0  0  0
  -28.3226  -22.7777   21.3023 C   0  0  1  0  0  0
  -30.7214  -17.5779   20.0146 N   0  0  0  0  0  0
  -29.0766  -20.5998   23.0693 N   0  0  0  0  0  0
  -30.0450  -15.5439   21.2502 N   0  0  0  0  0  0
  -29.0637  -21.5263   20.9263 N   0  3  0  0  0  0
  -29.5387  -24.0784   19.5981 O   0  0  0  0  0  0
  -30.4834  -18.9594   20.1670 O   0  0  0  0  0  0
  -26.3733  -22.7210   19.9092 F   0  0  0  0  0  0
  -31.4850  -12.4745   19.1610 H   0  0  0  0  0  0
  -30.3668  -11.3553   19.8749 H   0  0  0  0  0  0
  -29.7846  -11.8125   17.4595 H   0  0  0  0  0  0
  -29.6699  -13.5201   17.7971 H   0  0  0  0  0  0
  -27.8615  -11.3124   18.8355 H   0  0  0  0  0  0
  -27.3939  -12.6337   17.7945 H   0  0  0  0  0  0
  -27.6965  -14.2613   19.5667 H   0  0  0  0  0  0
  -28.6963  -12.0064   21.3741 H   0  0  0  0  0  0
  -28.4457  -13.6510   21.8750 H   0  0  0  0  0  0
  -25.2764   -9.5702   22.4749 H   0  0  0  0  0  0
  -23.9997   -7.4662   22.7495 H   0  0  0  0  0  0
  -21.0855   -8.8760   19.8951 H   0  0  0  0  0  0
  -22.3715  -10.9654   19.6138 H   0  0  0  0  0  0
  -21.1981   -7.6149   23.9721 H   0  0  0  0  0  0
  -21.1432   -6.0518   25.9064 H   0  0  0  0  0  0
  -22.0625   -2.7625   23.2840 H   0  0  0  0  0  0
  -22.4097  -11.9866   22.4757 H   0  0  0  0  0  0
  -21.1132  -13.1267   22.2574 H   0  0  0  0  0  0
  -24.6605  -15.8437   20.5076 H   0  0  0  0  0  0
  -26.2765  -15.6284   20.0668 H   0  0  0  0  0  0
  -26.7169  -32.5486   23.1174 H   0  0  0  0  0  0
  -25.0237  -33.9760   25.0577 H   0  0  0  0  0  0
  -22.6981  -31.3050   21.4105 H   0  0  0  0  0  0
  -23.3736  -35.9541   23.3275 H   0  0  0  0  0  0
  -24.3529  -36.8912   22.2067 H   0  0  0  0  0  0
  -23.7126  -37.6415   23.6691 H   0  0  0  0  0  0
  -26.0514  -31.5730   20.5864 H   0  0  0  0  0  0
  -26.8311  -30.8776   21.9779 H   0  0  0  0  0  0
  -28.0934  -29.0368   21.2116 H   0  0  0  0  0  0
  -26.0317  -25.9493   19.0174 H   0  0  0  0  0  0
  -23.9718  -27.3105   19.0094 H   0  0  0  0  0  0
  -23.7420  -30.6051   19.4070 H   0  0  0  0  0  0
  -22.7412  -29.2562   19.8529 H   0  0  0  0  0  0
  -25.1222  -36.1887   25.0832 H   0  0  0  0  0  0
  -20.9933  -28.3213   24.1422 H   0  0  0  0  0  0
  -20.5633  -26.2273   23.3606 H   0  0  0  0  0  0
  -21.6600  -26.7405   22.1178 H   0  0  0  0  0  0
  -19.6837  -25.6266   21.1258 H   0  0  0  0  0  0
  -19.6648  -27.3171   20.6743 H   0  0  0  0  0  0
  -17.4150  -26.6755   21.3993 H   0  0  0  0  0  0
  -18.0211  -26.0081   22.8978 H   0  0  0  0  0  0
  -19.7955  -30.7282   24.2204 H   0  0  0  0  0  0
  -17.5046  -31.6285   24.5175 H   0  0  0  0  0  0
  -15.5357  -30.3007   23.7761 H   0  0  0  0  0  0
  -15.8635  -28.0843   22.7157 H   0  0  0  0  0  0
  -24.5962  -30.7015   25.7936 H   0  0  0  0  0  0
  -24.8983  -32.2860   26.4999 H   0  0  0  0  0  0
  -25.8187  -30.8907   27.0292 H   0  0  0  0  0  0
  -26.2813  -29.6802   24.1231 H   0  0  0  0  0  0
  -27.4189  -29.7275   25.4514 H   0  0  0  0  0  0
  -27.8613  -30.4380   23.9165 H   0  0  0  0  0  0
  -27.2629  -33.3670   26.2031 H   0  0  0  0  0  0
  -28.3929  -32.6833   25.0447 H   0  0  0  0  0  0
  -28.0601  -31.8527   26.5571 H   0  0  0  0  0  0
  -28.2519  -38.0089   24.7596 H   0  0  0  0  0  0
  -28.1063  -36.2628   24.6194 H   0  0  0  0  0  0
  -27.2275  -37.1273   25.8882 H   0  0  0  0  0  0
  -20.9369  -29.8759   21.6937 H   0  0  0  0  0  0
  -26.0082  -38.2824   24.1616 H   0  0  0  0  0  0
  -28.8787  -17.7417   22.7741 H   0  0  0  0  0  0
  -28.5473  -25.6597   22.0172 H   0  0  0  0  0  0
  -27.0551  -25.2538   21.2258 H   0  0  0  0  0  0
  -26.2265  -23.1656   21.8226 H   0  0  0  0  0  0
  -26.5530  -21.4941   21.4067 H   0  0  0  0  0  0
  -28.5266  -22.9532   22.3586 H   0  0  0  0  0  0
  -29.2859  -19.8264   23.6808 H   0  0  0  0  0  0
  -28.8333  -21.4775   23.4936 H   0  0  0  0  0  0
  -29.2890  -15.2413   21.8406 H   0  0  0  0  0  0
  -29.2987  -21.4230   19.9485 H   0  0  0  0  0  0
  1 25  1  0  0  0
  1 30  2  0  0  0
  1 81  1  0  0  0
  2  3  1  0  0  0
  2 25  1  0  0  0
  2 86  1  0  0  0
  2 87  1  0  0  0
  3  4  1  0  0  0
  3 88  1  0  0  0
  3 89  1  0  0  0
  4  5  1  0  0  0
  4 90  1  0  0  0
  4 91  1  0  0  0
  5  6  1  0  0  0
  5 26  1  0  0  0
  5 92  1  0  0  0
  6 25  1  0  0  0
  6 93  1  0  0  0
  6 94  1  0  0  0
  7  8  2  0  0  0
  7 26  1  0  0  0
  7 29  1  0  0  0
  8  9  1  0  0  0
  8 22  1  0  0  0
  9 10  1  0  0  0
  9 27  2  0  0  0
 10 11  2  0  0  0
 10 15  1  0  0  0
 11 12  1  0  0  0
 11 95  1  0  0  0
 12 13  2  0  0  0
 12 96  1  0  0  0
 13 14  1  0  0  0
 13 31  1  0  0  0
 14 15  2  0  0  0
 14 97  1  0  0  0
 15 98  1  0  0  0
 16 17  2  0  0  0
 16 21  1  0  0  0
 16 31  1  0  0  0
 17 18  1  0  0  0
 17 99  1  0  0  0
 18 19  2  0  0  0
 18100  1  0  0  0
 19 20  1  0  0  0
 19 24  1  0  0  0
 20 21  2  0  0  0
 20101  1  0  0  0
 21 23  1  0  0  0
 22 28  1  0  0  0
 22 32  2  0  0  0
 26 27  1  0  0  0
 28102  1  0  0  0
 28103  1  0  0  0
 29104  1  0  0  0
 29105  1  0  0  0
 33 34  1  0  0  0
 33 66  1  0  0  0
 33 70  2  0  0  0
 34 36  1  0  0  0
 34 59  1  0  0  0
 34106  1  0  0  0
 35 44  2  0  0  0
 35 45  1  0  0  0
 35 68  1  0  0  0
 36 56  1  0  0  0
 36107  1  0  0  0
 37 39  1  0  0  0
 37 47  1  0  0  0
 37 66  1  0  0  0
 37108  1  0  0  0
 38 43  2  0  0  0
 38 46  1  0  0  0
 38 47  1  0  0  0
 39 64  1  0  0  0
 39 67  2  0  0  0
 40 52  1  0  0  0
 40 53  2  0  0  0
 40 58  1  0  0  0
 41109  1  0  0  0
 41110  1  0  0  0
 41111  1  0  0  0
 41 48  1  0  0  0
 42 43  1  0  0  0
 42 66  1  0  0  0
 42112  1  0  0  0
 42113  1  0  0  0
 43 44  1  0  0  0
 44114  1  0  0  0
 45 46  2  0  0  0
 45115  1  0  0  0
 46116  1  0  0  0
 47117  1  0  0  0
 47118  1  0  0  0
 48 56  1  0  0  0
 48 65  1  0  0  0
 48119  1  0  0  0
 49 50  1  0  0  0
 49 53  1  0  0  0
 49 64  1  0  0  0
 49120  1  0  0  0
 50 51  1  0  0  0
 50121  1  0  0  0
 50122  1  0  0  0
 51 52  1  0  0  0
 51123  1  0  0  0
 51124  1  0  0  0
 52125  1  0  0  0
 52126  1  0  0  0
 53 54  1  0  0  0
 54 55  2  0  0  0
 54127  1  0  0  0
 55 57  1  0  0  0
 55128  1  0  0  0
 56 69  2  0  0  0
 57 58  2  0  0  0
 57129  1  0  0  0
 58130  1  0  0  0
 59 60  1  0  0  0
 59 61  1  0  0  0
 59 62  1  0  0  0
 60131  1  0  0  0
 60132  1  0  0  0
 60133  1  0  0  0
 61134  1  0  0  0
 61135  1  0  0  0
 61136  1  0  0  0
 62137  1  0  0  0
 62138  1  0  0  0
 62139  1  0  0  0
 63 65  1  0  0  0
 63140  1  0  0  0
 63141  1  0  0  0
 63142  1  0  0  0
 64143  1  0  0  0
 65144  1  0  0  0
 68 76  1  0  0  0
 71 72  2  0  0  0
 71 73  1  0  0  0
 71145  1  0  0  0
 72 74  1  0  0  0
 72 84  1  0  0  0
 73 79  2  0  0  0
 73 81  1  0  0  0
 74 80  1  0  0  0
 74 82  2  0  0  0
 75 76  1  0  0  0
 75 78  1  0  0  0
 75 83  2  0  0  0
 76146  1  0  0  0
 76147  1  0  0  0
 77 85  1  0  0  0
 77148  1  0  0  0
 77149  1  0  0  0
 77 78  1  0  0  0
 78 82  1  0  0  0
 78150  1  0  0  0
 79 84  1  0  0  0
 80151  1  0  0  0
 80152  1  0  0  0
 81153  1  0  0  0
 82154  1  0  0  0
M  CHG  1  82   1
M  ISO  4   1 100  68 101  76 101  81 100
M  END
> <chiral flag>
0

> <version>
0

> <s_m_source_file>
/data/baiqing/PycharmProjects/Reinvent-master-3.2/result/LINK_invent/BTK/process_docking_weight1_custom_product_contain_oxygen_bond_distance_aromatic_linkinvent_7_9_3/rearranged_h_0162.sdf

> <i_m_source_file_index>
49

> <r_mmod_Potential_Energy-OPLS-2005>
-393.092163085938

> <r_mmod_Stretch_Energy-OPLS-2005>
50.1494255065918

> <r_mmod_Bend_Energy-OPLS-2005>
116.323936462402

> <r_mmod_Torsional_Energy-OPLS-2005>
224.550308227539

> <r_mmod_Improper_Torsional_Energy-OPLS-2005>
3.16597032546997

> <r_mmod_Van_der_Waal_Energy-OPLS-2005>
128.539321899414

> <r_mmod_Electrostatic_Energy-OPLS-2005>
-373.430328369141

> <r_mmod_Solvation_Energy-OPLS-2005>
-568.395874023438

> <b_mmod_Minimization_Converged-OPLS-2005>
0

> <r_mmod_RMS_Derivative-OPLS-2005>
3.64586281776428

$$$$
49
                    3D
 Structure written by MMmdl.
154162  0  0  1  0            999 V2000
  -30.6812  -14.4723   20.5358 C   0  0  0  0  0  0
  -30.4283  -12.2938   19.4110 C   0  0  0  0  0  0
  -29.4931  -12.4863   18.1972 C   0  0  0  0  0  0
  -28.0123  -12.3574   18.6123 C   0  0  0  0  0  0
  -27.6632  -13.1992   19.8680 C   0  0  2  0  0  0
  -28.7075  -12.9679   20.9847 C   0  0  0  0  0  0
  -25.2619  -13.8135   20.5666 C   0  0  0  0  0  0
  -24.1843  -13.0432   20.9166 C   0  0  0  0  0  0
  -24.6385  -11.6890   20.8716 C   0  0  0  0  0  0
  -23.9046  -10.4282   21.0387 C   0  0  0  0  0  0
  -24.3600   -9.4203   21.9174 C   0  0  0  0  0  0
  -23.6283   -8.2239   22.0744 C   0  0  0  0  0  0
  -22.4266   -8.0261   21.3536 C   0  0  0  0  0  0
  -21.9897   -9.0226   20.4631 C   0  0  0  0  0  0
  -22.7222  -10.2112   20.3038 C   0  0  0  0  0  0
  -21.6851   -6.0719   22.5283 C   0  0  0  0  0  0
  -21.3996   -6.5635   23.8213 C   0  0  0  0  0  0
  -21.3651   -5.6789   24.9172 C   0  0  0  0  0  0
  -21.6048   -4.3048   24.7225 C   0  0  0  0  0  0
  -21.8825   -3.8135   23.4351 C   0  0  0  0  0  0
  -21.9194   -4.6958   22.3408 C   0  0  0  0  0  0
  -22.7869  -13.5245   21.1848 C   0  0  0  0  0  0
  -22.1668   -4.2137   21.0990 F   0  0  0  0  0  0
  -21.5635   -3.4538   25.7751 F   0  0  0  0  0  0
  -30.0394  -13.2768   20.4327 N   0  0  0  0  0  0
  -26.3037  -12.9294   20.3327 N   0  0  0  0  0  0
  -25.9315  -11.6471   20.5742 N   0  0  0  0  0  0
  -22.0522  -12.8203   22.0390 N   0  0  0  0  0  0
  -25.4398  -15.1848   20.4072 N   0  0  0  0  0  0
  -31.8184  -14.6631   20.0929 O   0  0  0  0  0  0
  -21.6642   -6.8856   21.4240 O   0  0  0  0  0  0
  -22.3547  -14.5570   20.6731 O   0  0  0  0  0  0
  -24.6175  -31.8682   23.2122 C   0  0  0  0  0  0
  -25.9079  -32.4800   23.8401 C   0  0  1  0  0  0
  -27.2207  -27.4277   20.0955 C   0  0  0  0  0  0
  -25.5957  -33.8601   24.2358 N   0  0  0  0  0  0
  -23.4032  -30.4964   21.5502 C   0  0  2  0  0  0
  -24.8486  -28.9681   20.1059 C   0  0  0  0  0  0
  -22.7409  -29.4699   22.4975 C   0  0  0  0  0  0
  -18.0288  -28.1391   22.8481 C   0  0  0  0  0  0
  -24.1470  -36.7240   23.2638 C   0  0  0  0  0  0
  -25.9362  -30.8257   21.3745 C   0  0  0  0  0  0
  -26.0087  -29.4651   20.7146 C   0  0  0  0  0  0
  -27.1999  -28.7006   20.7111 C   0  0  0  0  0  0
  -26.0519  -26.9638   19.4517 C   0  0  0  0  0  0
  -24.8658  -27.7179   19.4675 C   0  0  0  0  0  0
  -23.6090  -29.8316   20.1630 C   0  0  0  0  0  0
  -25.4090  -36.3073   24.0363 C   0  0  1  0  0  0
  -20.5875  -28.3691   23.1289 C   0  0  2  0  0  0
  -20.6790  -26.9422   22.5409 C   0  0  0  0  0  0
  -19.5772  -26.6394   21.5209 C   0  0  0  0  0  0
  -18.1935  -26.7956   22.1591 C   0  0  0  0  0  0
  -19.1535  -28.8858   23.2890 C   0  0  0  0  0  0
  -18.9475  -30.1464   23.8899 C   0  0  0  0  0  0
  -17.6475  -30.6602   24.0577 C   0  0  0  0  0  0
  -25.9040  -34.9456   23.5143 C   0  0  0  0  0  0
  -16.5362  -29.9095   23.6361 C   0  0  0  0  0  0
  -16.7272  -28.6521   23.0359 C   0  0  0  0  0  0
  -26.4511  -31.6572   25.0725 C   0  0  0  0  0  0
  -25.3791  -31.3643   26.1475 C   0  0  0  0  0  0
  -27.0369  -30.3024   24.6104 C   0  0  0  0  0  0
  -27.6095  -32.4285   25.7478 C   0  0  0  0  0  0
  -27.5592  -37.1737   24.8463 C   0  0  0  0  0  0
  -21.4143  -29.3057   22.3689 N   0  0  0  0  0  0
  -26.4246  -37.3792   23.9475 N   0  0  0  0  0  0
  -24.6692  -31.0784   22.1028 N   0  0  0  0  0  0
  -23.4187  -28.8262   23.3034 O   0  0  0  0  0  0
  -28.3502  -26.6340   20.1341 O   0  0  0  0  0  0
  -26.5575  -34.8917   22.4686 O   0  0  0  0  0  0
  -23.5367  -32.1449   23.7514 O   0  0  0  0  0  0
  -29.1073  -17.7116   21.2759 C   0  0  0  0  0  0
  -29.5694  -19.0099   20.8905 C   0  0  0  0  0  0
  -30.0512  -16.8103   20.8677 C   0  0  0  0  0  0
  -30.7764  -18.7634   20.2734 C   0  0  0  0  0  0
  -28.8696  -20.3137   21.1075 C   0  0  0  0  0  0
  -29.5364  -21.6477   20.7009 C   0  0  0  0  0  0
  -28.6595  -22.8926   21.0065 C   0  0  0  0  0  0
  -29.1435  -24.2522   20.4366 C   0  0  0  0  0  0
  -28.1144  -25.3584   20.7611 C   0  0  0  0  0  0
  -31.6592  -19.6646   19.6902 N   0  0  0  0  0  0
  -29.9195  -15.4656   21.0320 N   0  0  0  0  0  0
  -27.7443  -20.3252   21.6204 O   0  0  0  0  0  0
  -31.0938  -17.4333   20.2458 O   0  0  0  0  0  0
  -31.4723  -12.3948   19.1084 H   0  0  0  0  0  0
  -30.3312  -11.2817   19.8101 H   0  0  0  0  0  0
  -29.7243  -11.7499   17.4265 H   0  0  0  0  0  0
  -29.6657  -13.4635   17.7442 H   0  0  0  0  0  0
  -27.8167  -11.3029   18.8090 H   0  0  0  0  0  0
  -27.3618  -12.6314   17.7810 H   0  0  0  0  0  0
  -27.7080  -14.2471   19.5688 H   0  0  0  0  0  0
  -28.6832  -11.9273   21.3120 H   0  0  0  0  0  0
  -28.4730  -13.5540   21.8741 H   0  0  0  0  0  0
  -25.2750   -9.5689   22.4737 H   0  0  0  0  0  0
  -23.9999   -7.4637   22.7458 H   0  0  0  0  0  0
  -21.0839   -8.8723   19.8935 H   0  0  0  0  0  0
  -22.3677  -10.9630   19.6123 H   0  0  0  0  0  0
  -21.1970   -7.6135   23.9707 H   0  0  0  0  0  0
  -21.1467   -6.0517   25.9073 H   0  0  0  0  0  0
  -22.0609   -2.7598   23.2866 H   0  0  0  0  0  0
  -22.4150  -11.9838   22.4723 H   0  0  0  0  0  0
  -21.1149  -13.1201   22.2643 H   0  0  0  0  0  0
  -24.6798  -15.8472   20.5108 H   0  0  0  0  0  0
  -26.2923  -15.6127   20.0687 H   0  0  0  0  0  0
  -26.7139  -32.5498   23.1145 H   0  0  0  0  0  0
  -25.0237  -33.9764   25.0587 H   0  0  0  0  0  0
  -22.6940  -31.3164   21.4116 H   0  0  0  0  0  0
  -23.3802  -35.9500   23.3219 H   0  0  0  0  0  0
  -24.3590  -36.8916   22.2067 H   0  0  0  0  0  0
  -23.7117  -37.6376   23.6689 H   0  0  0  0  0  0
  -26.0662  -31.5938   20.6115 H   0  0  0  0  0  0
  -26.8177  -30.8639   22.0025 H   0  0  0  0  0  0
  -28.0890  -29.0688   21.2032 H   0  0  0  0  0  0
  -26.0457  -26.0147   18.9346 H   0  0  0  0  0  0
  -23.9797  -27.3384   18.9773 H   0  0  0  0  0  0
  -23.7097  -30.6049   19.4013 H   0  0  0  0  0  0
  -22.7343  -29.2475   19.8705 H   0  0  0  0  0  0
  -25.1245  -36.1908   25.0854 H   0  0  0  0  0  0
  -20.9970  -28.3265   24.1409 H   0  0  0  0  0  0
  -20.5713  -26.2301   23.3600 H   0  0  0  0  0  0
  -21.6654  -26.7489   22.1177 H   0  0  0  0  0  0
  -19.6934  -25.6308   21.1238 H   0  0  0  0  0  0
  -19.6730  -27.3214   20.6753 H   0  0  0  0  0  0
  -17.4225  -26.6752   21.3961 H   0  0  0  0  0  0
  -18.0290  -26.0073   22.8953 H   0  0  0  0  0  0
  -19.7958  -30.7286   24.2238 H   0  0  0  0  0  0
  -17.5044  -31.6287   24.5178 H   0  0  0  0  0  0
  -15.5367  -30.3001   23.7721 H   0  0  0  0  0  0
  -15.8660  -28.0861   22.7060 H   0  0  0  0  0  0
  -24.6015  -30.6927   25.7812 H   0  0  0  0  0  0
  -24.8936  -32.2777   26.4921 H   0  0  0  0  0  0
  -25.8173  -30.8830   27.0229 H   0  0  0  0  0  0
  -26.2906  -29.6716   24.1261 H   0  0  0  0  0  0
  -27.4274  -29.7313   25.4538 H   0  0  0  0  0  0
  -27.8680  -30.4357   23.9176 H   0  0  0  0  0  0
  -27.2746  -33.3598   26.2048 H   0  0  0  0  0  0
  -28.3912  -32.6799   25.0299 H   0  0  0  0  0  0
  -28.0756  -31.8409   26.5394 H   0  0  0  0  0  0
  -28.2501  -38.0144   24.7685 H   0  0  0  0  0  0
  -28.1184  -36.2689   24.6039 H   0  0  0  0  0  0
  -27.2347  -37.1068   25.8864 H   0  0  0  0  0  0
  -20.9314  -29.8712   21.6841 H   0  0  0  0  0  0
  -26.0122  -38.2826   24.1627 H   0  0  0  0  0  0
  -28.1823  -17.4818   21.7860 H   0  0  0  0  0  0
  -29.7504  -21.6054   19.6325 H   0  0  0  0  0  0
  -30.4919  -21.7267   21.2210 H   0  0  0  0  0  0
  -28.5388  -22.9901   22.0863 H   0  0  0  0  0  0
  -27.6583  -22.7062   20.6132 H   0  0  0  0  0  0
  -29.2677  -24.1722   19.3567 H   0  0  0  0  0  0
  -30.1219  -24.5142   20.8415 H   0  0  0  0  0  0
  -28.0746  -25.5109   21.8406 H   0  0  0  0  0  0
  -27.1383  -24.9548   20.4961 H   0  0  0  0  0  0
  -31.4910  -20.6599   19.5992 H   0  0  0  0  0  0
  -32.5402  -19.3897   19.2665 H   0  0  0  0  0  0
  -29.0358  -15.1592   21.4066 H   0  0  0  0  0  0
  1 25  1  0  0  0
  1 30  2  0  0  0
  1 81  1  0  0  0
  2  3  1  0  0  0
  2 25  1  0  0  0
  2 84  1  0  0  0
  2 85  1  0  0  0
  3  4  1  0  0  0
  3 86  1  0  0  0
  3 87  1  0  0  0
  4  5  1  0  0  0
  4 88  1  0  0  0
  4 89  1  0  0  0
  5  6  1  0  0  0
  5 26  1  0  0  0
  5 90  1  0  0  0
  6 25  1  0  0  0
  6 91  1  0  0  0
  6 92  1  0  0  0
  7  8  2  0  0  0
  7 26  1  0  0  0
  7 29  1  0  0  0
  8  9  1  0  0  0
  8 22  1  0  0  0
  9 10  1  0  0  0
  9 27  2  0  0  0
 10 11  2  0  0  0
 10 15  1  0  0  0
 11 12  1  0  0  0
 11 93  1  0  0  0
 12 13  2  0  0  0
 12 94  1  0  0  0
 13 14  1  0  0  0
 13 31  1  0  0  0
 14 15  2  0  0  0
 14 95  1  0  0  0
 15 96  1  0  0  0
 16 17  2  0  0  0
 16 21  1  0  0  0
 16 31  1  0  0  0
 17 18  1  0  0  0
 17 97  1  0  0  0
 18 19  2  0  0  0
 18 98  1  0  0  0
 19 20  1  0  0  0
 19 24  1  0  0  0
 20 21  2  0  0  0
 20 99  1  0  0  0
 21 23  1  0  0  0
 22 28  1  0  0  0
 22 32  2  0  0  0
 26 27  1  0  0  0
 28100  1  0  0  0
 28101  1  0  0  0
 29102  1  0  0  0
 29103  1  0  0  0
 33 34  1  0  0  0
 33 66  1  0  0  0
 33 70  2  0  0  0
 34 36  1  0  0  0
 34 59  1  0  0  0
 34104  1  0  0  0
 35 44  2  0  0  0
 35 45  1  0  0  0
 35 68  1  0  0  0
 36 56  1  0  0  0
 36105  1  0  0  0
 37 39  1  0  0  0
 37 47  1  0  0  0
 37 66  1  0  0  0
 37106  1  0  0  0
 38 43  2  0  0  0
 38 46  1  0  0  0
 38 47  1  0  0  0
 39 64  1  0  0  0
 39 67  2  0  0  0
 40 52  1  0  0  0
 40 53  2  0  0  0
 40 58  1  0  0  0
 41107  1  0  0  0
 41108  1  0  0  0
 41109  1  0  0  0
 41 48  1  0  0  0
 42 43  1  0  0  0
 42 66  1  0  0  0
 42110  1  0  0  0
 42111  1  0  0  0
 43 44  1  0  0  0
 44112  1  0  0  0
 45 46  2  0  0  0
 45113  1  0  0  0
 46114  1  0  0  0
 47115  1  0  0  0
 47116  1  0  0  0
 48 56  1  0  0  0
 48 65  1  0  0  0
 48117  1  0  0  0
 49 50  1  0  0  0
 49 53  1  0  0  0
 49 64  1  0  0  0
 49118  1  0  0  0
 50 51  1  0  0  0
 50119  1  0  0  0
 50120  1  0  0  0
 51 52  1  0  0  0
 51121  1  0  0  0
 51122  1  0  0  0
 52123  1  0  0  0
 52124  1  0  0  0
 53 54  1  0  0  0
 54 55  2  0  0  0
 54125  1  0  0  0
 55 57  1  0  0  0
 55126  1  0  0  0
 56 69  2  0  0  0
 57 58  2  0  0  0
 57127  1  0  0  0
 58128  1  0  0  0
 59 60  1  0  0  0
 59 61  1  0  0  0
 59 62  1  0  0  0
 60129  1  0  0  0
 60130  1  0  0  0
 60131  1  0  0  0
 61132  1  0  0  0
 61133  1  0  0  0
 61134  1  0  0  0
 62135  1  0  0  0
 62136  1  0  0  0
 62137  1  0  0  0
 63 65  1  0  0  0
 63138  1  0  0  0
 63139  1  0  0  0
 63140  1  0  0  0
 64141  1  0  0  0
 65142  1  0  0  0
 68 79  1  0  0  0
 71 72  1  0  0  0
 71 73  2  0  0  0
 71143  1  0  0  0
 72 74  2  0  0  0
 72 75  1  0  0  0
 73 81  1  0  0  0
 73 83  1  0  0  0
 74 80  1  0  0  0
 74 83  1  0  0  0
 75 76  1  0  0  0
 75 82  2  0  0  0
 76 77  1  0  0  0
 76144  1  0  0  0
 76145  1  0  0  0
 77 78  1  0  0  0
 77146  1  0  0  0
 77147  1  0  0  0
 78 79  1  0  0  0
 78148  1  0  0  0
 78149  1  0  0  0
 79150  1  0  0  0
 79151  1  0  0  0
 80152  1  0  0  0
 80153  1  0  0  0
 81154  1  0  0  0
M  ISO  4   1 100  68 101  79 101  81 100
M  END
> <chiral flag>
0

> <version>
0

> <s_m_source_file>
/data/baiqing/PycharmProjects/Reinvent-master-3.2/result/LINK_invent/BTK/process_docking_weight1_custom_product_contain_oxygen_bond_distance_aromatic_linkinvent_7_9_3/rearranged_h_0162.sdf

> <i_m_source_file_index>
50

> <r_mmod_Potential_Energy-OPLS-2005>
-17.6540813446045

> <r_mmod_Stretch_Energy-OPLS-2005>
35.9274635314941

> <r_mmod_Bend_Energy-OPLS-2005>
120.158012390137

> <r_mmod_Torsional_Energy-OPLS-2005>
237.204467773438

> <r_mmod_Improper_Torsional_Energy-OPLS-2005>
3.88838672637939

> <r_mmod_Van_der_Waal_Energy-OPLS-2005>
139.150833129883

> <r_mmod_Electrostatic_Energy-OPLS-2005>
-338.211334228516

> <r_mmod_Solvation_Energy-OPLS-2005>
-232.082656860352

> <b_mmod_Minimization_Converged-OPLS-2005>
0

> <r_mmod_RMS_Derivative-OPLS-2005>
2.74558401107788

$$$$
50
                    3D
 Structure written by MMmdl.
154162  0  0  1  0            999 V2000
  -30.7417  -14.5074   20.5450 C   0  0  0  0  0  0
  -30.4059  -12.3305   19.4285 C   0  0  0  0  0  0
  -29.4846  -12.4870   18.2046 C   0  0  0  0  0  0
  -28.0097  -12.3459   18.6257 C   0  0  0  0  0  0
  -27.6470  -13.2202   19.8570 C   0  0  2  0  0  0
  -28.6954  -13.0833   20.9827 C   0  0  0  0  0  0
  -25.2525  -13.8191   20.5695 C   0  0  0  0  0  0
  -24.1807  -13.0444   20.9201 C   0  0  0  0  0  0
  -24.6384  -11.6916   20.8753 C   0  0  0  0  0  0
  -23.9065  -10.4293   21.0411 C   0  0  0  0  0  0
  -24.3619   -9.4207   21.9186 C   0  0  0  0  0  0
  -23.6295   -8.2243   22.0756 C   0  0  0  0  0  0
  -22.4278   -8.0282   21.3547 C   0  0  0  0  0  0
  -21.9915   -9.0254   20.4647 C   0  0  0  0  0  0
  -22.7241  -10.2133   20.3059 C   0  0  0  0  0  0
  -21.6856   -6.0732   22.5279 C   0  0  0  0  0  0
  -21.4005   -6.5636   23.8209 C   0  0  0  0  0  0
  -21.3661   -5.6791   24.9174 C   0  0  0  0  0  0
  -21.6052   -4.3054   24.7228 C   0  0  0  0  0  0
  -21.8817   -3.8143   23.4346 C   0  0  0  0  0  0
  -21.9190   -4.6958   22.3402 C   0  0  0  0  0  0
  -22.7828  -13.5224   21.1865 C   0  0  0  0  0  0
  -22.1660   -4.2145   21.0979 F   0  0  0  0  0  0
  -21.5636   -3.4543   25.7741 F   0  0  0  0  0  0
  -30.0120  -13.3662   20.3978 N   0  0  0  0  0  0
  -26.2957  -12.9386   20.3329 N   0  0  0  0  0  0
  -25.9310  -11.6532   20.5777 N   0  0  0  0  0  0
  -22.0482  -12.8205   22.0421 N   0  0  0  0  0  0
  -25.4228  -15.1915   20.4088 N   0  0  0  0  0  0
  -31.9243  -14.5443   20.1962 O   0  0  0  0  0  0
  -21.6643   -6.8878   21.4241 O   0  0  0  0  0  0
  -22.3506  -14.5536   20.6732 O   0  0  0  0  0  0
  -24.6163  -31.8667   23.2089 C   0  0  0  0  0  0
  -25.9048  -32.4813   23.8397 C   0  0  1  0  0  0
  -27.2302  -27.4163   20.1062 C   0  0  0  0  0  0
  -25.5907  -33.8611   24.2327 N   0  0  0  0  0  0
  -23.4062  -30.4889   21.5503 C   0  0  2  0  0  0
  -24.8531  -28.9494   20.1210 C   0  0  0  0  0  0
  -22.7422  -29.4657   22.4993 C   0  0  0  0  0  0
  -18.0277  -28.1390   22.8492 C   0  0  0  0  0  0
  -24.1486  -36.7302   23.2641 C   0  0  0  0  0  0
  -25.9366  -30.8262   21.3659 C   0  0  0  0  0  0
  -26.0145  -29.4584   20.7161 C   0  0  0  0  0  0
  -27.2099  -28.6996   20.7035 C   0  0  0  0  0  0
  -26.0540  -26.9231   19.5078 C   0  0  0  0  0  0
  -24.8672  -27.6806   19.5156 C   0  0  0  0  0  0
  -23.6162  -29.8187   20.1670 C   0  0  0  0  0  0
  -25.4108  -36.3104   24.0340 C   0  0  1  0  0  0
  -20.5868  -28.3684   23.1312 C   0  0  2  0  0  0
  -20.6777  -26.9420   22.5422 C   0  0  0  0  0  0
  -19.5763  -26.6401   21.5215 C   0  0  0  0  0  0
  -18.1930  -26.7936   22.1617 C   0  0  0  0  0  0
  -19.1525  -28.8851   23.2893 C   0  0  0  0  0  0
  -18.9451  -30.1450   23.8914 C   0  0  0  0  0  0
  -17.6457  -30.6594   24.0569 C   0  0  0  0  0  0
  -25.9042  -34.9470   23.5132 C   0  0  0  0  0  0
  -16.5346  -29.9098   23.6335 C   0  0  0  0  0  0
  -16.7266  -28.6512   23.0362 C   0  0  0  0  0  0
  -26.4489  -31.6596   25.0727 C   0  0  0  0  0  0
  -25.3759  -31.3664   26.1474 C   0  0  0  0  0  0
  -27.0340  -30.3048   24.6102 C   0  0  0  0  0  0
  -27.6073  -32.4322   25.7476 C   0  0  0  0  0  0
  -27.5582  -37.1788   24.8461 C   0  0  0  0  0  0
  -21.4156  -29.3030   22.3706 N   0  0  0  0  0  0
  -26.4288  -37.3795   23.9416 N   0  0  0  0  0  0
  -24.6711  -31.0759   22.0995 N   0  0  0  0  0  0
  -23.4176  -28.8211   23.3065 O   0  0  0  0  0  0
  -28.3818  -26.6593   20.0631 O   0  0  0  0  0  0
  -26.5599  -34.8919   22.4692 O   0  0  0  0  0  0
  -23.5351  -32.1433   23.7472 O   0  0  0  0  0  0
  -30.8213  -18.9886   19.7857 C   0  0  0  0  0  0
  -30.1973  -18.1265   20.6729 C   0  0  0  0  0  0
  -29.2615  -20.4268   20.6328 C   0  0  0  0  0  0
  -31.9749  -18.6312   18.9512 C   0  0  0  0  0  0
  -30.6781  -16.8120   21.1900 C   0  0  0  0  0  0
  -28.3895  -24.1595   20.3169 C   0  0  0  0  0  0
  -32.6143  -19.7738   18.1698 C   0  0  0  0  0  0
  -29.2332  -23.0266   20.9525 C   0  0  0  0  0  0
  -28.4373  -25.5563   20.9942 C   0  0  0  0  0  0
  -30.2833  -20.2902   19.7947 N   0  0  0  0  0  0
  -28.6721  -21.6611   20.9070 N   0  0  0  0  0  0
  -30.0694  -15.6510   20.8416 N   0  0  0  0  0  0
  -32.4485  -17.4991   18.8179 O   0  0  0  0  0  0
  -31.6935  -16.8399   21.8947 O   0  0  0  0  0  0
  -27.7024  -23.9452   19.3129 O   0  0  0  0  0  0
  -28.8435  -18.9171   21.4658 S   0  0  0  0  0  0
  -31.4501  -12.4070   19.1201 H   0  0  0  0  0  0
  -30.2982  -11.3390   19.8711 H   0  0  0  0  0  0
  -29.7305  -11.7394   17.4489 H   0  0  0  0  0  0
  -29.6454  -13.4596   17.7379 H   0  0  0  0  0  0
  -27.8353  -11.2945   18.8569 H   0  0  0  0  0  0
  -27.3537  -12.5852   17.7877 H   0  0  0  0  0  0
  -27.6661  -14.2545   19.5140 H   0  0  0  0  0  0
  -28.6815  -12.0771   21.4032 H   0  0  0  0  0  0
  -28.4686  -13.7609   21.8078 H   0  0  0  0  0  0
  -25.2759   -9.5680   22.4759 H   0  0  0  0  0  0
  -24.0003   -7.4632   22.7478 H   0  0  0  0  0  0
  -21.0847   -8.8774   19.8950 H   0  0  0  0  0  0
  -22.3705  -10.9672   19.6171 H   0  0  0  0  0  0
  -21.1991   -7.6141   23.9708 H   0  0  0  0  0  0
  -21.1492   -6.0523   25.9076 H   0  0  0  0  0  0
  -22.0595   -2.7603   23.2852 H   0  0  0  0  0  0
  -22.4109  -11.9853   22.4775 H   0  0  0  0  0  0
  -21.1103  -13.1226   22.2659 H   0  0  0  0  0  0
  -24.6540  -15.8448   20.5121 H   0  0  0  0  0  0
  -26.2691  -15.6300   20.0699 H   0  0  0  0  0  0
  -26.7120  -32.5527   23.1162 H   0  0  0  0  0  0
  -25.0072  -33.9782   25.0479 H   0  0  0  0  0  0
  -22.6961  -31.3063   21.4086 H   0  0  0  0  0  0
  -23.3762  -35.9623   23.3303 H   0  0  0  0  0  0
  -24.3577  -36.8928   22.2056 H   0  0  0  0  0  0
  -23.7222  -37.6494   23.6666 H   0  0  0  0  0  0
  -26.0515  -31.5911   20.5968 H   0  0  0  0  0  0
  -26.8223  -30.8783   21.9871 H   0  0  0  0  0  0
  -28.1098  -29.0919   21.1561 H   0  0  0  0  0  0
  -26.0546  -25.9538   19.0303 H   0  0  0  0  0  0
  -23.9724  -27.2824   19.0566 H   0  0  0  0  0  0
  -23.7279  -30.5927   19.4069 H   0  0  0  0  0  0
  -22.7393  -29.2393   19.8715 H   0  0  0  0  0  0
  -25.1279  -36.1973   25.0832 H   0  0  0  0  0  0
  -20.9938  -28.3268   24.1444 H   0  0  0  0  0  0
  -20.5707  -26.2288   23.3613 H   0  0  0  0  0  0
  -21.6640  -26.7489   22.1188 H   0  0  0  0  0  0
  -19.6932  -25.6313   21.1243 H   0  0  0  0  0  0
  -19.6709  -27.3218   20.6750 H   0  0  0  0  0  0
  -17.4202  -26.6698   21.4010 H   0  0  0  0  0  0
  -18.0314  -26.0069   22.9003 H   0  0  0  0  0  0
  -19.7923  -30.7251   24.2300 H   0  0  0  0  0  0
  -17.5017  -31.6279   24.5164 H   0  0  0  0  0  0
  -15.5347  -30.3009   23.7654 H   0  0  0  0  0  0
  -15.8663  -28.0835   22.7086 H   0  0  0  0  0  0
  -24.5961  -30.6985   25.7798 H   0  0  0  0  0  0
  -24.8911  -32.2788   26.4951 H   0  0  0  0  0  0
  -25.8123  -30.8822   27.0218 H   0  0  0  0  0  0
  -26.2879  -29.6766   24.1220 H   0  0  0  0  0  0
  -27.4194  -29.7322   25.4549 H   0  0  0  0  0  0
  -27.8674  -30.4385   23.9201 H   0  0  0  0  0  0
  -27.2720  -33.3634   26.2057 H   0  0  0  0  0  0
  -28.3868  -32.6862   25.0277 H   0  0  0  0  0  0
  -28.0764  -31.8444   26.5380 H   0  0  0  0  0  0
  -28.2576  -38.0109   24.7555 H   0  0  0  0  0  0
  -28.1105  -36.2640   24.6239 H   0  0  0  0  0  0
  -27.2302  -37.1382   25.8864 H   0  0  0  0  0  0
  -20.9344  -29.8707   21.6868 H   0  0  0  0  0  0
  -26.0183  -38.2869   24.1451 H   0  0  0  0  0  0
  -32.9413  -20.5591   18.8500 H   0  0  0  0  0  0
  -31.8979  -20.1971   17.4664 H   0  0  0  0  0  0
  -33.4796  -19.4179   17.6117 H   0  0  0  0  0  0
  -29.4227  -23.2857   21.9949 H   0  0  0  0  0  0
  -30.2059  -23.0254   20.4594 H   0  0  0  0  0  0
  -29.3657  -25.6374   21.5600 H   0  0  0  0  0  0
  -27.6267  -25.6204   21.7217 H   0  0  0  0  0  0
  -27.7977  -21.5814   21.4173 H   0  0  0  0  0  0
  -29.0837  -15.6702   20.6464 H   0  0  0  0  0  0
  1 25  1  0  0  0
  1 30  2  0  0  0
  1 82  1  0  0  0
  2  3  1  0  0  0
  2 25  1  0  0  0
  2 87  1  0  0  0
  2 88  1  0  0  0
  3  4  1  0  0  0
  3 89  1  0  0  0
  3 90  1  0  0  0
  4  5  1  0  0  0
  4 91  1  0  0  0
  4 92  1  0  0  0
  5  6  1  0  0  0
  5 26  1  0  0  0
  5 93  1  0  0  0
  6 25  1  0  0  0
  6 94  1  0  0  0
  6 95  1  0  0  0
  7  8  2  0  0  0
  7 26  1  0  0  0
  7 29  1  0  0  0
  8  9  1  0  0  0
  8 22  1  0  0  0
  9 10  1  0  0  0
  9 27  2  0  0  0
 10 11  2  0  0  0
 10 15  1  0  0  0
 11 12  1  0  0  0
 11 96  1  0  0  0
 12 13  2  0  0  0
 12 97  1  0  0  0
 13 14  1  0  0  0
 13 31  1  0  0  0
 14 15  2  0  0  0
 14 98  1  0  0  0
 15 99  1  0  0  0
 16 17  2  0  0  0
 16 21  1  0  0  0
 16 31  1  0  0  0
 17 18  1  0  0  0
 17100  1  0  0  0
 18 19  2  0  0  0
 18101  1  0  0  0
 19 20  1  0  0  0
 19 24  1  0  0  0
 20 21  2  0  0  0
 20102  1  0  0  0
 21 23  1  0  0  0
 22 28  1  0  0  0
 22 32  2  0  0  0
 26 27  1  0  0  0
 28103  1  0  0  0
 28104  1  0  0  0
 29105  1  0  0  0
 29106  1  0  0  0
 33 34  1  0  0  0
 33 66  1  0  0  0
 33 70  2  0  0  0
 34 36  1  0  0  0
 34 59  1  0  0  0
 34107  1  0  0  0
 35 44  2  0  0  0
 35 45  1  0  0  0
 35 68  1  0  0  0
 36 56  1  0  0  0
 36108  1  0  0  0
 37 39  1  0  0  0
 37 47  1  0  0  0
 37 66  1  0  0  0
 37109  1  0  0  0
 38 43  2  0  0  0
 38 46  1  0  0  0
 38 47  1  0  0  0
 39 64  1  0  0  0
 39 67  2  0  0  0
 40 52  1  0  0  0
 40 53  2  0  0  0
 40 58  1  0  0  0
 41110  1  0  0  0
 41111  1  0  0  0
 41112  1  0  0  0
 41 48  1  0  0  0
 42 43  1  0  0  0
 42 66  1  0  0  0
 42113  1  0  0  0
 42114  1  0  0  0
 43 44  1  0  0  0
 44115  1  0  0  0
 45 46  2  0  0  0
 45116  1  0  0  0
 46117  1  0  0  0
 47118  1  0  0  0
 47119  1  0  0  0
 48 56  1  0  0  0
 48 65  1  0  0  0
 48120  1  0  0  0
 49 50  1  0  0  0
 49 53  1  0  0  0
 49 64  1  0  0  0
 49121  1  0  0  0
 50 51  1  0  0  0
 50122  1  0  0  0
 50123  1  0  0  0
 51 52  1  0  0  0
 51124  1  0  0  0
 51125  1  0  0  0
 52126  1  0  0  0
 52127  1  0  0  0
 53 54  1  0  0  0
 54 55  2  0  0  0
 54128  1  0  0  0
 55 57  1  0  0  0
 55129  1  0  0  0
 56 69  2  0  0  0
 57 58  2  0  0  0
 57130  1  0  0  0
 58131  1  0  0  0
 59 60  1  0  0  0
 59 61  1  0  0  0
 59 62  1  0  0  0
 60132  1  0  0  0
 60133  1  0  0  0
 60134  1  0  0  0
 61135  1  0  0  0
 61136  1  0  0  0
 61137  1  0  0  0
 62138  1  0  0  0
 62139  1  0  0  0
 62140  1  0  0  0
 63 65  1  0  0  0
 63141  1  0  0  0
 63142  1  0  0  0
 63143  1  0  0  0
 64144  1  0  0  0
 65145  1  0  0  0
 68 79  1  0  0  0
 71 72  2  0  0  0
 71 74  1  0  0  0
 71 80  1  0  0  0
 72 75  1  0  0  0
 72 86  1  0  0  0
 73 80  2  0  0  0
 73 81  1  0  0  0
 73 86  1  0  0  0
 74 77  1  0  0  0
 74 83  2  0  0  0
 75 82  1  0  0  0
 75 84  2  0  0  0
 76 78  1  0  0  0
 76 79  1  0  0  0
 76 85  2  0  0  0
 77146  1  0  0  0
 77147  1  0  0  0
 77148  1  0  0  0
 78 81  1  0  0  0
 78149  1  0  0  0
 78150  1  0  0  0
 79151  1  0  0  0
 79152  1  0  0  0
 81153  1  0  0  0
 82154  1  0  0  0
M  ISO  4   1 100  68 101  79 101  82 100
M  END
> <chiral flag>
0

> <version>
0

> <s_m_source_file>
/data/baiqing/PycharmProjects/Reinvent-master-3.2/result/LINK_invent/BTK/process_docking_weight1_custom_product_contain_oxygen_bond_distance_aromatic_linkinvent_7_9_3/rearranged_h_0162.sdf

> <i_m_source_file_index>
51

> <r_mmod_Potential_Energy-OPLS-2005>
-217.899307250977

> <r_mmod_Stretch_Energy-OPLS-2005>
40.2055473327637

> <r_mmod_Bend_Energy-OPLS-2005>
101.020492553711

> <r_mmod_Torsional_Energy-OPLS-2005>
305.845520019531

> <r_mmod_Improper_Torsional_Energy-OPLS-2005>
8.89515686035156

> <r_mmod_Van_der_Waal_Energy-OPLS-2005>
128.641159057617

> <r_mmod_Electrostatic_Energy-OPLS-2005>
-553.842163085938

> <r_mmod_Solvation_Energy-OPLS-2005>
-272.724334716797

> <b_mmod_Minimization_Converged-OPLS-2005>
0

> <r_mmod_RMS_Derivative-OPLS-2005>
1.20899891853333

$$$$
51
                    3D
 Structure written by MMmdl.
163171  0  0  1  0            999 V2000
  -30.7008  -14.5235   20.5615 C   0  0  0  0  0  0
  -30.4134  -12.3386   19.4410 C   0  0  0  0  0  0
  -29.4892  -12.4619   18.2129 C   0  0  0  0  0  0
  -28.0134  -12.3154   18.6323 C   0  0  0  0  0  0
  -27.6398  -13.2103   19.8452 C   0  0  2  0  0  0
  -28.6797  -13.0818   20.9798 C   0  0  0  0  0  0
  -25.2490  -13.8152   20.5643 C   0  0  0  0  0  0
  -24.1777  -13.0389   20.9141 C   0  0  0  0  0  0
  -24.6337  -11.6869   20.8736 C   0  0  0  0  0  0
  -23.8990  -10.4261   21.0404 C   0  0  0  0  0  0
  -24.3549   -9.4198   21.9186 C   0  0  0  0  0  0
  -23.6249   -8.2216   22.0734 C   0  0  0  0  0  0
  -22.4229   -8.0251   21.3529 C   0  0  0  0  0  0
  -21.9852   -9.0231   20.4633 C   0  0  0  0  0  0
  -22.7152  -10.2119   20.3053 C   0  0  0  0  0  0
  -21.6838   -6.0714   22.5286 C   0  0  0  0  0  0
  -21.3994   -6.5616   23.8215 C   0  0  0  0  0  0
  -21.3666   -5.6779   24.9191 C   0  0  0  0  0  0
  -21.6033   -4.3044   24.7250 C   0  0  0  0  0  0
  -21.8809   -3.8131   23.4373 C   0  0  0  0  0  0
  -21.9179   -4.6942   22.3428 C   0  0  0  0  0  0
  -22.7821  -13.5224   21.1814 C   0  0  0  0  0  0
  -22.1661   -4.2117   21.1007 F   0  0  0  0  0  0
  -21.5633   -3.4537   25.7773 F   0  0  0  0  0  0
  -29.9980  -13.3690   20.4035 N   0  0  0  0  0  0
  -26.2890  -12.9321   20.3235 N   0  0  0  0  0  0
  -25.9260  -11.6472   20.5756 N   0  0  0  0  0  0
  -22.0473  -12.8226   22.0384 N   0  0  0  0  0  0
  -25.4061  -15.1876   20.4176 N   0  0  0  0  0  0
  -31.8947  -14.6361   20.2599 O   0  0  0  0  0  0
  -21.6601   -6.8832   21.4230 O   0  0  0  0  0  0
  -22.3498  -14.5538   20.6667 O   0  0  0  0  0  0
  -24.6167  -31.8657   23.2057 C   0  0  0  0  0  0
  -25.9037  -32.4811   23.8349 C   0  0  1  0  0  0
  -27.2346  -27.3950   20.1171 C   0  0  0  0  0  0
  -25.5891  -33.8601   24.2294 N   0  0  0  0  0  0
  -23.4090  -30.4869   21.5461 C   0  0  2  0  0  0
  -24.8610  -28.9544   20.1071 C   0  0  0  0  0  0
  -22.7453  -29.4613   22.4942 C   0  0  0  0  0  0
  -18.0296  -28.1393   22.8456 C   0  0  0  0  0  0
  -24.1490  -36.7289   23.2625 C   0  0  0  0  0  0
  -25.9413  -30.8209   21.3652 C   0  0  0  0  0  0
  -26.0209  -29.4526   20.7119 C   0  0  0  0  0  0
  -27.2142  -28.6817   20.7125 C   0  0  0  0  0  0
  -26.0579  -26.9296   19.4899 C   0  0  0  0  0  0
  -24.8765  -27.6931   19.4887 C   0  0  0  0  0  0
  -23.6222  -29.8196   20.1605 C   0  0  0  0  0  0
  -25.4123  -36.3100   24.0331 C   0  0  1  0  0  0
  -20.5890  -28.3692   23.1254 C   0  0  2  0  0  0
  -20.6780  -26.9414   22.5394 C   0  0  0  0  0  0
  -19.5752  -26.6364   21.5214 C   0  0  0  0  0  0
  -18.1952  -26.7905   22.1669 C   0  0  0  0  0  0
  -19.1555  -28.8845   23.2828 C   0  0  0  0  0  0
  -18.9477  -30.1443   23.8844 C   0  0  0  0  0  0
  -17.6497  -30.6579   24.0545 C   0  0  0  0  0  0
  -25.9047  -34.9464   23.5116 C   0  0  0  0  0  0
  -16.5381  -29.9084   23.6331 C   0  0  0  0  0  0
  -16.7281  -28.6525   23.0322 C   0  0  0  0  0  0
  -26.4469  -31.6584   25.0653 C   0  0  0  0  0  0
  -25.3731  -31.3701   26.1398 C   0  0  0  0  0  0
  -27.0298  -30.3013   24.6034 C   0  0  0  0  0  0
  -27.6032  -32.4313   25.7435 C   0  0  0  0  0  0
  -27.5592  -37.1805   24.8471 C   0  0  0  0  0  0
  -21.4169  -29.3049   22.3683 N   0  0  0  0  0  0
  -26.4301  -37.3780   23.9422 N   0  0  0  0  0  0
  -24.6742  -31.0731   22.0977 N   0  0  0  0  0  0
  -23.4209  -28.8134   23.2972 O   0  0  0  0  0  0
  -28.3523  -26.5766   20.1607 O   0  0  0  0  0  0
  -26.5586  -34.8926   22.4661 O   0  0  0  0  0  0
  -23.5343  -32.1394   23.7437 O   0  0  0  0  0  0
  -28.0928  -19.7534   21.0236 C   0  0  0  0  0  0
  -28.3222  -18.3576   21.2092 C   0  0  0  0  0  0
  -29.6703  -18.1129   21.2243 C   0  0  0  0  0  0
  -29.3461  -20.2922   20.9210 C   0  0  0  0  0  0
  -30.4969  -16.9049   21.3269 C   0  0  0  0  0  0
  -29.1160  -24.1686   20.5122 C   0  0  0  0  0  0
  -33.7565  -17.5665   23.1748 C   0  0  0  0  0  0
  -31.4618  -18.1848   24.0321 C   0  0  0  0  0  0
  -28.7132  -22.7347   20.9695 C   0  0  0  0  0  0
  -28.1013  -25.3054   20.8238 C   0  0  0  0  0  0
  -32.3230  -17.9581   22.7729 C   0  0  0  0  0  0
  -27.3242  -17.3845   21.3063 N   0  0  0  0  0  0
  -29.6825  -21.6471   20.7082 N   0  0  0  0  0  0
  -29.9646  -15.7325   20.8741 N   0  0  0  0  0  0
  -31.7204  -16.9172   21.9213 N   0  3  0  0  0  0
  -30.1969  -24.3822   19.9493 O   0  0  0  0  0  0
  -30.3166  -19.3210   21.0179 O   0  0  0  0  0  0
  -31.4583  -12.4442   19.1390 H   0  0  0  0  0  0
  -30.3276  -11.3490   19.8963 H   0  0  0  0  0  0
  -29.7445  -11.6999   17.4746 H   0  0  0  0  0  0
  -29.6464  -13.4250   17.7264 H   0  0  0  0  0  0
  -27.8526  -11.2661   18.8889 H   0  0  0  0  0  0
  -27.3591  -12.5253   17.7879 H   0  0  0  0  0  0
  -27.6483  -14.2379   19.4825 H   0  0  0  0  0  0
  -28.6658  -12.0779   21.4078 H   0  0  0  0  0  0
  -28.4362  -13.7592   21.8017 H   0  0  0  0  0  0
  -25.2654   -9.5695   22.4801 H   0  0  0  0  0  0
  -23.9962   -7.4585   22.7436 H   0  0  0  0  0  0
  -21.0780   -8.8705   19.8938 H   0  0  0  0  0  0
  -22.3551  -10.9661   19.6197 H   0  0  0  0  0  0
  -21.1950   -7.6112   23.9730 H   0  0  0  0  0  0
  -21.1506   -6.0506   25.9104 H   0  0  0  0  0  0
  -22.0567   -2.7577   23.2889 H   0  0  0  0  0  0
  -22.4131  -11.9919   22.4817 H   0  0  0  0  0  0
  -21.1094  -13.1292   22.2532 H   0  0  0  0  0  0
  -24.6442  -15.8189   20.6410 H   0  0  0  0  0  0
  -26.2781  -15.6863   20.2689 H   0  0  0  0  0  0
  -26.7104  -32.5538   23.1106 H   0  0  0  0  0  0
  -25.0138  -33.9773   25.0502 H   0  0  0  0  0  0
  -22.6921  -31.2996   21.4059 H   0  0  0  0  0  0
  -23.3762  -35.9614   23.3301 H   0  0  0  0  0  0
  -24.3569  -36.8863   22.2034 H   0  0  0  0  0  0
  -23.7240  -37.6493   23.6627 H   0  0  0  0  0  0
  -26.0584  -31.5869   20.5995 H   0  0  0  0  0  0
  -26.8274  -30.8754   21.9866 H   0  0  0  0  0  0
  -28.1019  -29.0542   21.2032 H   0  0  0  0  0  0
  -26.0480  -25.9629   19.0084 H   0  0  0  0  0  0
  -23.9880  -27.2994   19.0169 H   0  0  0  0  0  0
  -23.7296  -30.5924   19.4002 H   0  0  0  0  0  0
  -22.7488  -29.2349   19.8653 H   0  0  0  0  0  0
  -25.1310  -36.1948   25.0823 H   0  0  0  0  0  0
  -20.9980  -28.3280   24.1368 H   0  0  0  0  0  0
  -20.5696  -26.2304   23.3596 H   0  0  0  0  0  0
  -21.6622  -26.7421   22.1135 H   0  0  0  0  0  0
  -19.6904  -25.6273   21.1236 H   0  0  0  0  0  0
  -19.6703  -27.3171   20.6730 H   0  0  0  0  0  0
  -17.4194  -26.6551   21.4132 H   0  0  0  0  0  0
  -18.0440  -26.0126   22.9157 H   0  0  0  0  0  0
  -19.7977  -30.7224   24.2185 H   0  0  0  0  0  0
  -17.5097  -31.6235   24.5201 H   0  0  0  0  0  0
  -15.5400  -30.3008   23.7702 H   0  0  0  0  0  0
  -15.8661  -28.0861   22.7068 H   0  0  0  0  0  0
  -24.5906  -30.7042   25.7730 H   0  0  0  0  0  0
  -24.8924  -32.2868   26.4823 H   0  0  0  0  0  0
  -25.8075  -30.8877   27.0160 H   0  0  0  0  0  0
  -26.2845  -29.6772   24.1079 H   0  0  0  0  0  0
  -27.4053  -29.7236   25.4488 H   0  0  0  0  0  0
  -27.8686  -30.4316   23.9193 H   0  0  0  0  0  0
  -27.2635  -33.3605   26.2046 H   0  0  0  0  0  0
  -28.3841  -32.6901   25.0261 H   0  0  0  0  0  0
  -28.0716  -31.8411   26.5329 H   0  0  0  0  0  0
  -28.2633  -38.0078   24.7523 H   0  0  0  0  0  0
  -28.1069  -36.2617   24.6324 H   0  0  0  0  0  0
  -27.2294  -37.1475   25.8860 H   0  0  0  0  0  0
  -20.9367  -29.8873   21.6957 H   0  0  0  0  0  0
  -26.0182  -38.2854   24.1400 H   0  0  0  0  0  0
  -27.1503  -20.2751   20.9606 H   0  0  0  0  0  0
  -34.0371  -18.0143   24.1294 H   0  0  0  0  0  0
  -34.4838  -17.9077   22.4373 H   0  0  0  0  0  0
  -33.8791  -16.4898   23.2905 H   0  0  0  0  0  0
  -31.6472  -19.1742   24.4511 H   0  0  0  0  0  0
  -31.6876  -17.4531   24.8087 H   0  0  0  0  0  0
  -30.3928  -18.1169   23.8357 H   0  0  0  0  0  0
  -27.7569  -22.5013   20.5011 H   0  0  0  0  0  0
  -28.5270  -22.7789   22.0434 H   0  0  0  0  0  0
  -28.1130  -25.4814   21.8990 H   0  0  0  0  0  0
  -27.1151  -24.9120   20.5840 H   0  0  0  0  0  0
  -32.3691  -18.8876   22.2084 H   0  0  0  0  0  0
  -26.3914  -17.7502   21.1341 H   0  0  0  0  0  0
  -27.2753  -16.9038   22.2004 H   0  0  0  0  0  0
  -30.6508  -21.9546   20.6408 H   0  0  0  0  0  0
  -28.9577  -15.7783   20.8285 H   0  0  0  0  0  0
  -32.2761  -16.0741   21.8388 H   0  0  0  0  0  0
  1 25  1  0  0  0
  1 30  2  0  0  0
  1 84  1  0  0  0
  2  3  1  0  0  0
  2 25  1  0  0  0
  2 88  1  0  0  0
  2 89  1  0  0  0
  3  4  1  0  0  0
  3 90  1  0  0  0
  3 91  1  0  0  0
  4  5  1  0  0  0
  4 92  1  0  0  0
  4 93  1  0  0  0
  5  6  1  0  0  0
  5 26  1  0  0  0
  5 94  1  0  0  0
  6 25  1  0  0  0
  6 95  1  0  0  0
  6 96  1  0  0  0
  7  8  2  0  0  0
  7 26  1  0  0  0
  7 29  1  0  0  0
  8  9  1  0  0  0
  8 22  1  0  0  0
  9 10  1  0  0  0
  9 27  2  0  0  0
 10 11  2  0  0  0
 10 15  1  0  0  0
 11 12  1  0  0  0
 11 97  1  0  0  0
 12 13  2  0  0  0
 12 98  1  0  0  0
 13 14  1  0  0  0
 13 31  1  0  0  0
 14 15  2  0  0  0
 14 99  1  0  0  0
 15100  1  0  0  0
 16 17  2  0  0  0
 16 21  1  0  0  0
 16 31  1  0  0  0
 17 18  1  0  0  0
 17101  1  0  0  0
 18 19  2  0  0  0
 18102  1  0  0  0
 19 20  1  0  0  0
 19 24  1  0  0  0
 20 21  2  0  0  0
 20103  1  0  0  0
 21 23  1  0  0  0
 22 28  1  0  0  0
 22 32  2  0  0  0
 26 27  1  0  0  0
 28104  1  0  0  0
 28105  1  0  0  0
 29106  1  0  0  0
 29107  1  0  0  0
 33 34  1  0  0  0
 33 66  1  0  0  0
 33 70  2  0  0  0
 34 36  1  0  0  0
 34 59  1  0  0  0
 34108  1  0  0  0
 35 44  2  0  0  0
 35 45  1  0  0  0
 35 68  1  0  0  0
 36 56  1  0  0  0
 36109  1  0  0  0
 37 39  1  0  0  0
 37 47  1  0  0  0
 37 66  1  0  0  0
 37110  1  0  0  0
 38 43  2  0  0  0
 38 46  1  0  0  0
 38 47  1  0  0  0
 39 64  1  0  0  0
 39 67  2  0  0  0
 40 52  1  0  0  0
 40 53  2  0  0  0
 40 58  1  0  0  0
 41111  1  0  0  0
 41112  1  0  0  0
 41113  1  0  0  0
 41 48  1  0  0  0
 42 43  1  0  0  0
 42 66  1  0  0  0
 42114  1  0  0  0
 42115  1  0  0  0
 43 44  1  0  0  0
 44116  1  0  0  0
 45 46  2  0  0  0
 45117  1  0  0  0
 46118  1  0  0  0
 47119  1  0  0  0
 47120  1  0  0  0
 48 56  1  0  0  0
 48 65  1  0  0  0
 48121  1  0  0  0
 49 50  1  0  0  0
 49 53  1  0  0  0
 49 64  1  0  0  0
 49122  1  0  0  0
 50 51  1  0  0  0
 50123  1  0  0  0
 50124  1  0  0  0
 51 52  1  0  0  0
 51125  1  0  0  0
 51126  1  0  0  0
 52127  1  0  0  0
 52128  1  0  0  0
 53 54  1  0  0  0
 54 55  2  0  0  0
 54129  1  0  0  0
 55 57  1  0  0  0
 55130  1  0  0  0
 56 69  2  0  0  0
 57 58  2  0  0  0
 57131  1  0  0  0
 58132  1  0  0  0
 59 60  1  0  0  0
 59 61  1  0  0  0
 59 62  1  0  0  0
 60133  1  0  0  0
 60134  1  0  0  0
 60135  1  0  0  0
 61136  1  0  0  0
 61137  1  0  0  0
 61138  1  0  0  0
 62139  1  0  0  0
 62140  1  0  0  0
 62141  1  0  0  0
 63 65  1  0  0  0
 63142  1  0  0  0
 63143  1  0  0  0
 63144  1  0  0  0
 64145  1  0  0  0
 65146  1  0  0  0
 68 80  1  0  0  0
 71 72  1  0  0  0
 71 74  2  0  0  0
 71147  1  0  0  0
 72 73  2  0  0  0
 72 82  1  0  0  0
 73 75  1  0  0  0
 73 87  1  0  0  0
 74 83  1  0  0  0
 74 87  1  0  0  0
 75 84  1  0  0  0
 75 85  2  0  0  0
 76 79  1  0  0  0
 76 80  1  0  0  0
 76 86  2  0  0  0
 77148  1  0  0  0
 77149  1  0  0  0
 77150  1  0  0  0
 77 81  1  0  0  0
 78 81  1  0  0  0
 78151  1  0  0  0
 78152  1  0  0  0
 78153  1  0  0  0
 79 83  1  0  0  0
 79154  1  0  0  0
 79155  1  0  0  0
 80156  1  0  0  0
 80157  1  0  0  0
 81 85  1  0  0  0
 81158  1  0  0  0
 82159  1  0  0  0
 82160  1  0  0  0
 83161  1  0  0  0
 84162  1  0  0  0
 85163  1  0  0  0
M  CHG  1  85   1
M  ISO  4   1 100  68 101  80 101  84 100
M  END
> <chiral flag>
0

> <version>
0

> <s_m_source_file>
/data/baiqing/PycharmProjects/Reinvent-master-3.2/result/LINK_invent/BTK/process_docking_weight1_custom_product_contain_oxygen_bond_distance_aromatic_linkinvent_7_9_3/rearranged_h_0162.sdf

> <i_m_source_file_index>
52

> <r_mmod_Potential_Energy-OPLS-2005>
-74.8201904296875

> <r_mmod_Stretch_Energy-OPLS-2005>
45.9898414611816

> <r_mmod_Bend_Energy-OPLS-2005>
124.701225280762

> <r_mmod_Torsional_Energy-OPLS-2005>
257.410949707031

> <r_mmod_Improper_Torsional_Energy-OPLS-2005>
12.2163238525391

> <r_mmod_Van_der_Waal_Energy-OPLS-2005>
129.659896850586

> <r_mmod_Electrostatic_Energy-OPLS-2005>
-233.015472412109

> <r_mmod_Solvation_Energy-OPLS-2005>
-442.701538085938

> <b_mmod_Minimization_Converged-OPLS-2005>
0

> <r_mmod_RMS_Derivative-OPLS-2005>
4.46846723556519

$$$$
52
                    3D
 Structure written by MMmdl.
154162  0  0  1  0            999 V2000
  -30.6790  -14.5118   20.5624 C   0  0  0  0  0  0
  -30.4342  -12.3360   19.4226 C   0  0  0  0  0  0
  -29.5000  -12.5018   18.2052 C   0  0  0  0  0  0
  -28.0208  -12.3595   18.6213 C   0  0  0  0  0  0
  -27.6612  -13.2068   19.8721 C   0  0  2  0  0  0
  -28.7059  -12.9948   20.9901 C   0  0  0  0  0  0
  -25.2599  -13.8145   20.5634 C   0  0  0  0  0  0
  -24.1871  -13.0439   20.9177 C   0  0  0  0  0  0
  -24.6430  -11.6896   20.8744 C   0  0  0  0  0  0
  -23.9101  -10.4290   21.0419 C   0  0  0  0  0  0
  -24.3641   -9.4192   21.9194 C   0  0  0  0  0  0
  -23.6306   -8.2228   22.0756 C   0  0  0  0  0  0
  -22.4284   -8.0277   21.3541 C   0  0  0  0  0  0
  -21.9932   -9.0264   20.4646 C   0  0  0  0  0  0
  -22.7277  -10.2133   20.3065 C   0  0  0  0  0  0
  -21.6838   -6.0738   22.5274 C   0  0  0  0  0  0
  -21.4008   -6.5642   23.8211 C   0  0  0  0  0  0
  -21.3658   -5.6792   24.9171 C   0  0  0  0  0  0
  -21.6041   -4.3058   24.7217 C   0  0  0  0  0  0
  -21.8827   -3.8153   23.4340 C   0  0  0  0  0  0
  -21.9201   -4.6971   22.3397 C   0  0  0  0  0  0
  -22.7884  -13.5216   21.1848 C   0  0  0  0  0  0
  -22.1662   -4.2167   21.0971 F   0  0  0  0  0  0
  -21.5636   -3.4536   25.7727 F   0  0  0  0  0  0
  -30.0266  -13.3243   20.4323 N   0  0  0  0  0  0
  -26.3036  -12.9312   20.3346 N   0  0  0  0  0  0
  -25.9356  -11.6472   20.5781 N   0  0  0  0  0  0
  -22.0542  -12.8198   22.0400 N   0  0  0  0  0  0
  -25.4315  -15.1845   20.3875 N   0  0  0  0  0  0
  -31.8170  -14.6991   20.1245 O   0  0  0  0  0  0
  -21.6621   -6.8889   21.4235 O   0  0  0  0  0  0
  -22.3570  -14.5531   20.6700 O   0  0  0  0  0  0
  -24.6176  -31.8676   23.2115 C   0  0  0  0  0  0
  -25.9059  -32.4840   23.8409 C   0  0  1  0  0  0
  -27.2302  -27.4092   20.0890 C   0  0  0  0  0  0
  -25.5893  -33.8635   24.2341 N   0  0  0  0  0  0
  -23.4073  -30.4903   21.5577 C   0  0  2  0  0  0
  -24.8533  -28.9686   20.1103 C   0  0  0  0  0  0
  -22.7453  -29.4610   22.5034 C   0  0  0  0  0  0
  -18.0258  -28.1359   22.8494 C   0  0  0  0  0  0
  -24.1487  -36.7329   23.2626 C   0  0  0  0  0  0
  -25.9406  -30.8230   21.3734 C   0  0  0  0  0  0
  -26.0163  -29.4588   20.7142 C   0  0  0  0  0  0
  -27.2064  -28.6875   20.7039 C   0  0  0  0  0  0
  -26.0406  -26.9592   19.4584 C   0  0  0  0  0  0
  -24.8637  -27.7214   19.4721 C   0  0  0  0  0  0
  -23.6166  -29.8336   20.1688 C   0  0  0  0  0  0
  -25.4096  -36.3128   24.0343 C   0  0  1  0  0  0
  -20.5859  -28.3643   23.1317 C   0  0  2  0  0  0
  -20.6771  -26.9391   22.5406 C   0  0  0  0  0  0
  -19.5739  -26.6381   21.5220 C   0  0  0  0  0  0
  -18.1910  -26.7914   22.1634 C   0  0  0  0  0  0
  -19.1507  -28.8831   23.2888 C   0  0  0  0  0  0
  -18.9447  -30.1452   23.8891 C   0  0  0  0  0  0
  -17.6448  -30.6583   24.0565 C   0  0  0  0  0  0
  -25.9032  -34.9485   23.5130 C   0  0  0  0  0  0
  -16.5337  -29.9069   23.6343 C   0  0  0  0  0  0
  -16.7252  -28.6481   23.0360 C   0  0  0  0  0  0
  -26.4449  -31.6623   25.0756 C   0  0  0  0  0  0
  -25.3688  -31.3760   26.1488 C   0  0  0  0  0  0
  -27.0268  -30.3059   24.6153 C   0  0  0  0  0  0
  -27.6056  -32.4325   25.7496 C   0  0  0  0  0  0
  -27.5607  -37.1777   24.8438 C   0  0  0  0  0  0
  -21.4177  -29.3016   22.3786 N   0  0  0  0  0  0
  -26.4285  -37.3811   23.9433 N   0  0  0  0  0  0
  -24.6733  -31.0741   22.1055 N   0  0  0  0  0  0
  -23.4215  -28.8113   23.3063 O   0  0  0  0  0  0
  -28.3807  -26.6304   20.1308 O   0  0  0  0  0  0
  -26.5610  -34.8934   22.4706 O   0  0  0  0  0  0
  -23.5358  -32.1444   23.7464 O   0  0  0  0  0  0
  -29.6582  -17.6735   18.9816 C   0  0  0  0  0  0
  -29.3465  -18.6993   18.0698 C   0  0  0  0  0  0
  -30.0656  -19.3646   20.6922 C   0  0  0  0  0  0
  -30.0185  -17.9956   20.3084 C   0  0  0  0  0  0
  -29.7563  -20.4132   19.7847 C   0  0  0  0  0  0
  -29.3859  -20.0535   18.4597 C   0  0  0  0  0  0
  -29.2867  -24.2637   20.1509 C   0  0  0  0  0  0
  -30.3920  -16.9122   21.3314 C   0  0  0  0  0  0
  -29.2058  -22.8659   19.4979 C   0  0  0  0  0  0
  -28.2260  -25.2714   19.6631 C   0  0  0  0  0  0
  -29.8370  -21.7555   20.2370 N   0  0  0  0  0  0
  -29.9503  -15.5273   21.0719 N   0  0  0  0  0  0
  -30.1299  -24.5357   21.0113 O   0  0  0  0  0  0
  -29.0642  -20.9924   17.5339 F   0  0  0  0  0  0
  -31.4774  -12.4560   19.1221 H   0  0  0  0  0  0
  -30.3571  -11.3300   19.8367 H   0  0  0  0  0  0
  -29.7458  -11.7573   17.4462 H   0  0  0  0  0  0
  -29.6618  -13.4765   17.7410 H   0  0  0  0  0  0
  -27.8393  -11.3032   18.8265 H   0  0  0  0  0  0
  -27.3670  -12.6227   17.7882 H   0  0  0  0  0  0
  -27.7006  -14.2538   19.5688 H   0  0  0  0  0  0
  -28.7016  -11.9542   21.3162 H   0  0  0  0  0  0
  -28.4689  -13.5805   21.8795 H   0  0  0  0  0  0
  -25.2794   -9.5630   22.4767 H   0  0  0  0  0  0
  -24.0010   -7.4597   22.7454 H   0  0  0  0  0  0
  -21.0875   -8.8801   19.8927 H   0  0  0  0  0  0
  -22.3777  -10.9676   19.6166 H   0  0  0  0  0  0
  -21.1989   -7.6148   23.9718 H   0  0  0  0  0  0
  -21.1469   -6.0513   25.9071 H   0  0  0  0  0  0
  -22.0615   -2.7619   23.2823 H   0  0  0  0  0  0
  -22.4172  -11.9843   22.4756 H   0  0  0  0  0  0
  -21.1162  -13.1198   22.2634 H   0  0  0  0  0  0
  -24.6519  -15.8313   20.4411 H   0  0  0  0  0  0
  -26.2662  -15.6008   19.9935 H   0  0  0  0  0  0
  -26.7163  -32.5562   23.1186 H   0  0  0  0  0  0
  -25.0039  -33.9818   25.0477 H   0  0  0  0  0  0
  -22.6936  -31.3042   21.4237 H   0  0  0  0  0  0
  -23.3782  -35.9633   23.3231 H   0  0  0  0  0  0
  -24.3588  -36.9000   22.2050 H   0  0  0  0  0  0
  -23.7201  -37.6489   23.6682 H   0  0  0  0  0  0
  -26.0543  -31.5910   20.6059 H   0  0  0  0  0  0
  -26.8254  -30.8733   21.9963 H   0  0  0  0  0  0
  -28.0989  -29.0627   21.1823 H   0  0  0  0  0  0
  -25.9753  -26.0164   18.9362 H   0  0  0  0  0  0
  -23.9765  -27.3460   18.9814 H   0  0  0  0  0  0
  -23.7259  -30.6089   19.4095 H   0  0  0  0  0  0
  -22.7422  -29.2464   19.8811 H   0  0  0  0  0  0
  -25.1268  -36.1981   25.0831 H   0  0  0  0  0  0
  -20.9914  -28.3205   24.1444 H   0  0  0  0  0  0
  -20.5717  -26.2244   23.3579 H   0  0  0  0  0  0
  -21.6630  -26.7466   22.1163 H   0  0  0  0  0  0
  -19.6904  -25.6291   21.1244 H   0  0  0  0  0  0
  -19.6688  -27.3219   20.6766 H   0  0  0  0  0  0
  -17.4193  -26.6683   21.4024 H   0  0  0  0  0  0
  -18.0265  -26.0056   22.9020 H   0  0  0  0  0  0
  -19.7933  -30.7256   24.2261 H   0  0  0  0  0  0
  -17.5004  -31.6268   24.5172 H   0  0  0  0  0  0
  -15.5331  -30.2959   23.7676 H   0  0  0  0  0  0
  -15.8650  -28.0806   22.7053 H   0  0  0  0  0  0
  -24.5865  -30.7112   25.7803 H   0  0  0  0  0  0
  -24.8859  -32.2925   26.4901 H   0  0  0  0  0  0
  -25.7983  -30.8939   27.0277 H   0  0  0  0  0  0
  -26.2825  -29.6818   24.1204 H   0  0  0  0  0  0
  -27.4009  -29.7310   25.4623 H   0  0  0  0  0  0
  -27.8669  -30.4357   23.9329 H   0  0  0  0  0  0
  -27.2762  -33.3703   26.1969 H   0  0  0  0  0  0
  -28.3889  -32.6731   25.0303 H   0  0  0  0  0  0
  -28.0672  -31.8495   26.5460 H   0  0  0  0  0  0
  -28.2522  -38.0174   24.7639 H   0  0  0  0  0  0
  -28.1205  -36.2714   24.6077 H   0  0  0  0  0  0
  -27.2345  -37.1182   25.8834 H   0  0  0  0  0  0
  -20.9356  -29.8737   21.6997 H   0  0  0  0  0  0
  -26.0190  -38.2880   24.1504 H   0  0  0  0  0  0
  -29.6283  -16.6465   18.6451 H   0  0  0  0  0  0
  -29.0804  -18.4514   17.0512 H   0  0  0  0  0  0
  -30.3420  -19.6113   21.7071 H   0  0  0  0  0  0
  -29.9443  -17.2096   22.2813 H   0  0  0  0  0  0
  -31.4732  -16.9406   21.4798 H   0  0  0  0  0  0
  -29.6656  -22.9727   18.5155 H   0  0  0  0  0  0
  -28.1516  -22.6358   19.3362 H   0  0  0  0  0  0
  -27.2856  -24.8609   20.0281 H   0  0  0  0  0  0
  -28.2025  -25.2671   18.5726 H   0  0  0  0  0  0
  -30.0280  -21.9288   21.2195 H   0  0  0  0  0  0
  -29.0163  -15.2994   21.3777 H   0  0  0  0  0  0
  1 25  1  0  0  0
  1 30  2  0  0  0
  1 82  1  0  0  0
  2  3  1  0  0  0
  2 25  1  0  0  0
  2 85  1  0  0  0
  2 86  1  0  0  0
  3  4  1  0  0  0
  3 87  1  0  0  0
  3 88  1  0  0  0
  4  5  1  0  0  0
  4 89  1  0  0  0
  4 90  1  0  0  0
  5  6  1  0  0  0
  5 26  1  0  0  0
  5 91  1  0  0  0
  6 25  1  0  0  0
  6 92  1  0  0  0
  6 93  1  0  0  0
  7  8  2  0  0  0
  7 26  1  0  0  0
  7 29  1  0  0  0
  8  9  1  0  0  0
  8 22  1  0  0  0
  9 10  1  0  0  0
  9 27  2  0  0  0
 10 11  2  0  0  0
 10 15  1  0  0  0
 11 12  1  0  0  0
 11 94  1  0  0  0
 12 13  2  0  0  0
 12 95  1  0  0  0
 13 14  1  0  0  0
 13 31  1  0  0  0
 14 15  2  0  0  0
 14 96  1  0  0  0
 15 97  1  0  0  0
 16 17  2  0  0  0
 16 21  1  0  0  0
 16 31  1  0  0  0
 17 18  1  0  0  0
 17 98  1  0  0  0
 18 19  2  0  0  0
 18 99  1  0  0  0
 19 20  1  0  0  0
 19 24  1  0  0  0
 20 21  2  0  0  0
 20100  1  0  0  0
 21 23  1  0  0  0
 22 28  1  0  0  0
 22 32  2  0  0  0
 26 27  1  0  0  0
 28101  1  0  0  0
 28102  1  0  0  0
 29103  1  0  0  0
 29104  1  0  0  0
 33 34  1  0  0  0
 33 66  1  0  0  0
 33 70  2  0  0  0
 34 36  1  0  0  0
 34 59  1  0  0  0
 34105  1  0  0  0
 35 44  2  0  0  0
 35 45  1  0  0  0
 35 68  1  0  0  0
 36 56  1  0  0  0
 36106  1  0  0  0
 37 39  1  0  0  0
 37 47  1  0  0  0
 37 66  1  0  0  0
 37107  1  0  0  0
 38 43  2  0  0  0
 38 46  1  0  0  0
 38 47  1  0  0  0
 39 64  1  0  0  0
 39 67  2  0  0  0
 40 52  1  0  0  0
 40 53  2  0  0  0
 40 58  1  0  0  0
 41108  1  0  0  0
 41109  1  0  0  0
 41110  1  0  0  0
 41 48  1  0  0  0
 42 43  1  0  0  0
 42 66  1  0  0  0
 42111  1  0  0  0
 42112  1  0  0  0
 43 44  1  0  0  0
 44113  1  0  0  0
 45 46  2  0  0  0
 45114  1  0  0  0
 46115  1  0  0  0
 47116  1  0  0  0
 47117  1  0  0  0
 48 56  1  0  0  0
 48 65  1  0  0  0
 48118  1  0  0  0
 49 50  1  0  0  0
 49 53  1  0  0  0
 49 64  1  0  0  0
 49119  1  0  0  0
 50 51  1  0  0  0
 50120  1  0  0  0
 50121  1  0  0  0
 51 52  1  0  0  0
 51122  1  0  0  0
 51123  1  0  0  0
 52124  1  0  0  0
 52125  1  0  0  0
 53 54  1  0  0  0
 54 55  2  0  0  0
 54126  1  0  0  0
 55 57  1  0  0  0
 55127  1  0  0  0
 56 69  2  0  0  0
 57 58  2  0  0  0
 57128  1  0  0  0
 58129  1  0  0  0
 59 60  1  0  0  0
 59 61  1  0  0  0
 59 62  1  0  0  0
 60130  1  0  0  0
 60131  1  0  0  0
 60132  1  0  0  0
 61133  1  0  0  0
 61134  1  0  0  0
 61135  1  0  0  0
 62136  1  0  0  0
 62137  1  0  0  0
 62138  1  0  0  0
 63 65  1  0  0  0
 63139  1  0  0  0
 63140  1  0  0  0
 63141  1  0  0  0
 64142  1  0  0  0
 65143  1  0  0  0
 68 80  1  0  0  0
 71 72  2  0  0  0
 71 74  1  0  0  0
 71144  1  0  0  0
 72 76  1  0  0  0
 72145  1  0  0  0
 73 74  2  0  0  0
 73 75  1  0  0  0
 73146  1  0  0  0
 74 78  1  0  0  0
 75 76  2  0  0  0
 75 81  1  0  0  0
 76 84  1  0  0  0
 77 79  1  0  0  0
 77 80  1  0  0  0
 77 83  2  0  0  0
 78 82  1  0  0  0
 78147  1  0  0  0
 78148  1  0  0  0
 79 81  1  0  0  0
 79149  1  0  0  0
 79150  1  0  0  0
 80151  1  0  0  0
 80152  1  0  0  0
 81153  1  0  0  0
 82154  1  0  0  0
M  ISO  4   1 100  68 101  80 101  82 100
M  END
> <chiral flag>
0

> <version>
0

> <s_m_source_file>
/data/baiqing/PycharmProjects/Reinvent-master-3.2/result/LINK_invent/BTK/process_docking_weight1_custom_product_contain_oxygen_bond_distance_aromatic_linkinvent_7_9_3/rearranged_h_0162.sdf

> <i_m_source_file_index>
53

> <r_mmod_Potential_Energy-OPLS-2005>
-57.165771484375

> <r_mmod_Stretch_Energy-OPLS-2005>
42.8096199035645

> <r_mmod_Bend_Energy-OPLS-2005>
112.726554870605

> <r_mmod_Torsional_Energy-OPLS-2005>
178.53239440918

> <r_mmod_Improper_Torsional_Energy-OPLS-2005>
4.84272432327271

> <r_mmod_Van_der_Waal_Energy-OPLS-2005>
161.079742431641

> <r_mmod_Electrostatic_Energy-OPLS-2005>
-333.363311767578

> <r_mmod_Solvation_Energy-OPLS-2005>
-243.155853271484

> <b_mmod_Minimization_Converged-OPLS-2005>
0

> <r_mmod_RMS_Derivative-OPLS-2005>
4.15814113616943

$$$$
53
                    3D
 Structure written by MMmdl.
155163  0  0  1  0            999 V2000
  -30.5649  -14.7853   20.4854 C   0  0  0  0  0  0
  -30.4393  -12.4755   19.5061 C   0  0  0  0  0  0
  -29.5306  -12.5498   18.2553 C   0  0  0  0  0  0
  -28.0581  -12.3486   18.6552 C   0  0  0  0  0  0
  -27.6465  -13.2376   19.8562 C   0  0  2  0  0  0
  -28.6744  -13.1576   21.0073 C   0  0  0  0  0  0
  -25.2481  -13.8252   20.5646 C   0  0  0  0  0  0
  -24.1801  -13.0500   20.9177 C   0  0  0  0  0  0
  -24.6389  -11.6985   20.8764 C   0  0  0  0  0  0
  -23.9061  -10.4328   21.0454 C   0  0  0  0  0  0
  -24.3574   -9.4235   21.9236 C   0  0  0  0  0  0
  -23.6239   -8.2289   22.0808 C   0  0  0  0  0  0
  -22.4227   -8.0319   21.3560 C   0  0  0  0  0  0
  -21.9832   -9.0318   20.4664 C   0  0  0  0  0  0
  -22.7227  -10.2176   20.3093 C   0  0  0  0  0  0
  -21.6859   -6.0714   22.5290 C   0  0  0  0  0  0
  -21.4026   -6.5590   23.8218 C   0  0  0  0  0  0
  -21.3690   -5.6738   24.9149 C   0  0  0  0  0  0
  -21.6011   -4.3013   24.7233 C   0  0  0  0  0  0
  -21.8823   -3.8117   23.4376 C   0  0  0  0  0  0
  -21.9191   -4.6928   22.3420 C   0  0  0  0  0  0
  -22.7829  -13.5321   21.1831 C   0  0  0  0  0  0
  -22.1656   -4.2120   21.1003 F   0  0  0  0  0  0
  -21.5633   -3.4488   25.7756 F   0  0  0  0  0  0
  -29.9854  -13.5276   20.4555 N   0  0  0  0  0  0
  -26.2894  -12.9464   20.3161 N   0  0  0  0  0  0
  -25.9273  -11.6614   20.5694 N   0  0  0  0  0  0
  -22.0325  -12.8425   22.0345 N   0  0  0  0  0  0
  -25.4156  -15.1979   20.4179 N   0  0  0  0  0  0
  -31.7014  -14.9329   20.0337 O   0  0  0  0  0  0
  -21.6634   -6.8893   21.4253 O   0  0  0  0  0  0
  -22.3609  -14.5654   20.6644 O   0  0  0  0  0  0
  -24.6363  -31.8457   23.1893 C   0  0  0  0  0  0
  -25.9160  -32.4725   23.8299 C   0  0  1  0  0  0
  -27.2270  -27.2062   20.1739 C   0  0  0  0  0  0
  -25.5908  -33.8518   24.2238 N   0  0  0  0  0  0
  -23.4387  -30.4659   21.5242 C   0  0  2  0  0  0
  -24.8925  -28.8940   20.1062 C   0  0  0  0  0  0
  -22.7564  -29.4553   22.4810 C   0  0  0  0  0  0
  -18.0313  -28.1409   22.8464 C   0  0  0  0  0  0
  -24.1475  -36.7296   23.2625 C   0  0  0  0  0  0
  -25.9819  -30.7491   21.3663 C   0  0  0  0  0  0
  -26.0548  -29.3591   20.7293 C   0  0  0  0  0  0
  -27.2166  -28.5238   20.7584 C   0  0  0  0  0  0
  -26.0457  -26.8092   19.5143 C   0  0  0  0  0  0
  -24.9003  -27.6348   19.4804 C   0  0  0  0  0  0
  -23.6656  -29.7889   20.1439 C   0  0  0  0  0  0
  -25.4084  -36.3050   24.0320 C   0  0  1  0  0  0
  -20.5899  -28.3720   23.1248 C   0  0  2  0  0  0
  -20.6770  -26.9423   22.5403 C   0  0  0  0  0  0
  -19.5750  -26.6386   21.5203 C   0  0  0  0  0  0
  -18.1934  -26.7966   22.1610 C   0  0  0  0  0  0
  -19.1561  -28.8880   23.2857 C   0  0  0  0  0  0
  -18.9488  -30.1468   23.8919 C   0  0  0  0  0  0
  -17.6477  -30.6597   24.0564 C   0  0  0  0  0  0
  -25.9020  -34.9428   23.5092 C   0  0  0  0  0  0
  -16.5368  -29.9108   23.6288 C   0  0  0  0  0  0
  -16.7301  -28.6512   23.0335 C   0  0  0  0  0  0
  -26.4529  -31.6563   25.0691 C   0  0  0  0  0  0
  -25.3783  -31.3744   26.1452 C   0  0  0  0  0  0
  -27.0344  -30.2987   24.6135 C   0  0  0  0  0  0
  -27.6104  -32.4294   25.7453 C   0  0  0  0  0  0
  -27.5577  -37.1771   24.8447 C   0  0  0  0  0  0
  -21.4247  -29.3078   22.3626 N   0  0  0  0  0  0
  -26.4258  -37.3755   23.9431 N   0  0  0  0  0  0
  -24.7041  -31.0415   22.0839 N   0  0  0  0  0  0
  -23.4235  -28.8057   23.2901 O   0  0  0  0  0  0
  -28.3496  -26.3433   20.3019 O   0  0  0  0  0  0
  -26.5588  -34.8900   22.4659 O   0  0  0  0  0  0
  -23.5499  -32.1297   23.7162 O   0  0  0  0  0  0
  -29.3497  -18.2967   21.4564 C   0  0  0  0  0  0
  -29.0469  -19.5099   20.6834 C   0  0  0  0  0  0
  -29.6869  -17.2192   20.6295 C   0  0  0  0  0  0
  -29.2117  -19.0146   19.4021 C   0  0  0  0  0  0
  -28.5522  -20.9398   21.1491 C   0  0  0  0  0  0
  -28.4860  -24.7811   18.3335 C   0  0  0  0  0  0
  -28.4023  -23.4068   17.6673 C   0  0  0  0  0  0
  -28.0164  -23.5328   20.6950 C   0  0  0  0  0  0
  -28.5261  -24.8819   19.8778 C   0  0  2  0  0  0
  -28.9509  -19.6613   18.1956 N   0  0  0  0  0  0
  -29.8198  -15.8538   20.9870 N   0  0  0  0  0  0
  -28.5805  -22.1085   20.3899 N   0  0  0  0  0  0
  -28.1222  -21.0302   22.3007 O   0  0  0  0  0  0
  -28.5881  -25.7936   17.6325 O   0  0  0  0  0  0
  -29.6219  -17.6834   19.3451 O   0  0  0  0  0  0
  -31.4905  -12.5848   19.2352 H   0  0  0  0  0  0
  -30.3655  -11.4894   19.9691 H   0  0  0  0  0  0
  -29.8269  -11.8038   17.5073 H   0  0  0  0  0  0
  -29.6563  -13.5222   17.7778 H   0  0  0  0  0  0
  -27.9231  -11.2974   18.9135 H   0  0  0  0  0  0
  -27.4141  -12.5412   17.7995 H   0  0  0  0  0  0
  -27.6468  -14.2614   19.4791 H   0  0  0  0  0  0
  -28.7054  -12.1448   21.4260 H   0  0  0  0  0  0
  -28.3915  -13.8236   21.8231 H   0  0  0  0  0  0
  -25.2715   -9.5688   22.4802 H   0  0  0  0  0  0
  -23.9924   -7.4661   22.7535 H   0  0  0  0  0  0
  -21.0742   -8.8844   19.9003 H   0  0  0  0  0  0
  -22.3698  -10.9686   19.6190 H   0  0  0  0  0  0
  -21.2011   -7.6088   23.9718 H   0  0  0  0  0  0
  -21.1504   -6.0456   25.9053 H   0  0  0  0  0  0
  -22.0573   -2.7577   23.2889 H   0  0  0  0  0  0
  -22.3797  -12.0073   22.4811 H   0  0  0  0  0  0
  -21.0981  -13.1687   22.2536 H   0  0  0  0  0  0
  -24.6364  -15.8387   20.5327 H   0  0  0  0  0  0
  -26.2463  -15.6407   20.0448 H   0  0  0  0  0  0
  -26.7234  -32.5389   23.1036 H   0  0  0  0  0  0
  -25.0097  -33.9635   25.0420 H   0  0  0  0  0  0
  -22.7367  -31.2855   21.3676 H   0  0  0  0  0  0
  -23.3737  -35.9635   23.3250 H   0  0  0  0  0  0
  -24.3591  -36.8960   22.2058 H   0  0  0  0  0  0
  -23.7256  -37.6474   23.6708 H   0  0  0  0  0  0
  -26.0936  -31.4950   20.5767 H   0  0  0  0  0  0
  -26.8683  -30.8343   21.9844 H   0  0  0  0  0  0
  -28.1026  -28.8624   21.2739 H   0  0  0  0  0  0
  -25.9885  -25.8389   19.0423 H   0  0  0  0  0  0
  -24.0084  -27.2834   18.9812 H   0  0  0  0  0  0
  -23.8021  -30.5572   19.3824 H   0  0  0  0  0  0
  -22.7884  -29.2210   19.8289 H   0  0  0  0  0  0
  -25.1265  -36.1852   25.0812 H   0  0  0  0  0  0
  -21.0028  -28.3320   24.1344 H   0  0  0  0  0  0
  -20.5626  -26.2347   23.3613 H   0  0  0  0  0  0
  -21.6653  -26.7388   22.1243 H   0  0  0  0  0  0
  -19.6884  -25.6295   21.1251 H   0  0  0  0  0  0
  -19.6680  -27.3163   20.6708 H   0  0  0  0  0  0
  -17.4184  -26.6721   21.4013 H   0  0  0  0  0  0
  -18.0316  -26.0122   22.9028 H   0  0  0  0  0  0
  -19.7956  -30.7276   24.2334 H   0  0  0  0  0  0
  -17.5025  -31.6276   24.5169 H   0  0  0  0  0  0
  -15.5378  -30.3005   23.7612 H   0  0  0  0  0  0
  -15.8713  -28.0826   22.7069 H   0  0  0  0  0  0
  -24.5900  -30.7126   25.7824 H   0  0  0  0  0  0
  -24.9038  -32.2939   26.4923 H   0  0  0  0  0  0
  -25.8130  -30.8898   27.0214 H   0  0  0  0  0  0
  -26.2875  -29.6717   24.1246 H   0  0  0  0  0  0
  -27.4144  -29.7254   25.4602 H   0  0  0  0  0  0
  -27.8721  -30.4263   23.9268 H   0  0  0  0  0  0
  -27.2738  -33.3608   26.2039 H   0  0  0  0  0  0
  -28.3933  -32.6834   25.0283 H   0  0  0  0  0  0
  -28.0781  -31.8409   26.5361 H   0  0  0  0  0  0
  -28.2550  -38.0100   24.7543 H   0  0  0  0  0  0
  -28.1105  -36.2651   24.6191 H   0  0  0  0  0  0
  -27.2331  -37.1344   25.8845 H   0  0  0  0  0  0
  -20.9423  -29.8878   21.6893 H   0  0  0  0  0  0
  -26.0121  -38.2799   24.1501 H   0  0  0  0  0  0
  -29.2898  -18.2129   22.5308 H   0  0  0  0  0  0
  -29.1831  -22.7509   18.0479 H   0  0  0  0  0  0
  -28.5382  -23.4745   16.5845 H   0  0  0  0  0  0
  -27.4291  -22.9575   17.8638 H   0  0  0  0  0  0
  -26.9275  -23.4736   20.5975 H   0  0  0  0  0  0
  -28.1761  -23.7322   21.7555 H   0  0  0  0  0  0
  -29.6038  -24.8030   20.0412 H   0  0  0  0  0  0
  -28.1594  -20.2949   18.1544 H   0  0  0  0  0  0
  -28.9613  -19.0938   17.3494 H   0  0  0  0  0  0
  -29.1185  -15.5341   21.6305 H   0  0  0  0  0  0
  -28.9686  -21.9712   19.4661 H   0  0  0  0  0  0
  1 25  1  0  0  0
  1 30  2  0  0  0
  1 81  1  0  0  0
  2  3  1  0  0  0
  2 25  1  0  0  0
  2 86  1  0  0  0
  2 87  1  0  0  0
  3  4  1  0  0  0
  3 88  1  0  0  0
  3 89  1  0  0  0
  4  5  1  0  0  0
  4 90  1  0  0  0
  4 91  1  0  0  0
  5  6  1  0  0  0
  5 26  1  0  0  0
  5 92  1  0  0  0
  6 25  1  0  0  0
  6 93  1  0  0  0
  6 94  1  0  0  0
  7  8  2  0  0  0
  7 26  1  0  0  0
  7 29  1  0  0  0
  8  9  1  0  0  0
  8 22  1  0  0  0
  9 10  1  0  0  0
  9 27  2  0  0  0
 10 11  2  0  0  0
 10 15  1  0  0  0
 11 12  1  0  0  0
 11 95  1  0  0  0
 12 13  2  0  0  0
 12 96  1  0  0  0
 13 14  1  0  0  0
 13 31  1  0  0  0
 14 15  2  0  0  0
 14 97  1  0  0  0
 15 98  1  0  0  0
 16 17  2  0  0  0
 16 21  1  0  0  0
 16 31  1  0  0  0
 17 18  1  0  0  0
 17 99  1  0  0  0
 18 19  2  0  0  0
 18100  1  0  0  0
 19 20  1  0  0  0
 19 24  1  0  0  0
 20 21  2  0  0  0
 20101  1  0  0  0
 21 23  1  0  0  0
 22 28  1  0  0  0
 22 32  2  0  0  0
 26 27  1  0  0  0
 28102  1  0  0  0
 28103  1  0  0  0
 29104  1  0  0  0
 29105  1  0  0  0
 33 34  1  0  0  0
 33 66  1  0  0  0
 33 70  2  0  0  0
 34 36  1  0  0  0
 34 59  1  0  0  0
 34106  1  0  0  0
 35 44  2  0  0  0
 35 45  1  0  0  0
 35 68  1  0  0  0
 36 56  1  0  0  0
 36107  1  0  0  0
 37 39  1  0  0  0
 37 47  1  0  0  0
 37 66  1  0  0  0
 37108  1  0  0  0
 38 43  2  0  0  0
 38 46  1  0  0  0
 38 47  1  0  0  0
 39 64  1  0  0  0
 39 67  2  0  0  0
 40 52  1  0  0  0
 40 53  2  0  0  0
 40 58  1  0  0  0
 41109  1  0  0  0
 41110  1  0  0  0
 41111  1  0  0  0
 41 48  1  0  0  0
 42 43  1  0  0  0
 42 66  1  0  0  0
 42112  1  0  0  0
 42113  1  0  0  0
 43 44  1  0  0  0
 44114  1  0  0  0
 45 46  2  0  0  0
 45115  1  0  0  0
 46116  1  0  0  0
 47117  1  0  0  0
 47118  1  0  0  0
 48 56  1  0  0  0
 48 65  1  0  0  0
 48119  1  0  0  0
 49 50  1  0  0  0
 49 53  1  0  0  0
 49 64  1  0  0  0
 49120  1  0  0  0
 50 51  1  0  0  0
 50121  1  0  0  0
 50122  1  0  0  0
 51 52  1  0  0  0
 51123  1  0  0  0
 51124  1  0  0  0
 52125  1  0  0  0
 52126  1  0  0  0
 53 54  1  0  0  0
 54 55  2  0  0  0
 54127  1  0  0  0
 55 57  1  0  0  0
 55128  1  0  0  0
 56 69  2  0  0  0
 57 58  2  0  0  0
 57129  1  0  0  0
 58130  1  0  0  0
 59 60  1  0  0  0
 59 61  1  0  0  0
 59 62  1  0  0  0
 60131  1  0  0  0
 60132  1  0  0  0
 60133  1  0  0  0
 61134  1  0  0  0
 61135  1  0  0  0
 61136  1  0  0  0
 62137  1  0  0  0
 62138  1  0  0  0
 62139  1  0  0  0
 63 65  1  0  0  0
 63140  1  0  0  0
 63141  1  0  0  0
 63142  1  0  0  0
 64143  1  0  0  0
 65144  1  0  0  0
 68 79  1  0  0  0
 71 72  1  0  0  0
 71 73  2  0  0  0
 71145  1  0  0  0
 72 74  2  0  0  0
 72 75  1  0  0  0
 73 81  1  0  0  0
 73 85  1  0  0  0
 74 80  1  0  0  0
 74 85  1  0  0  0
 75 82  1  0  0  0
 75 83  2  0  0  0
 76 77  1  0  0  0
 76 79  1  0  0  0
 76 84  2  0  0  0
 77146  1  0  0  0
 77147  1  0  0  0
 77148  1  0  0  0
 78 82  1  0  0  0
 78149  1  0  0  0
 78150  1  0  0  0
 78 79  1  0  0  0
 79151  1  0  0  0
 80152  1  0  0  0
 80153  1  0  0  0
 81154  1  0  0  0
 82155  1  0  0  0
M  ISO  4   1 100  68 101  79 101  81 100
M  END
> <chiral flag>
0

> <version>
0

> <s_m_source_file>
/data/baiqing/PycharmProjects/Reinvent-master-3.2/result/LINK_invent/BTK/process_docking_weight1_custom_product_contain_oxygen_bond_distance_aromatic_linkinvent_7_9_3/rearranged_h_0162.sdf

> <i_m_source_file_index>
54

> <r_mmod_Potential_Energy-OPLS-2005>
218.894485473633

> <r_mmod_Stretch_Energy-OPLS-2005>
158.89404296875

> <r_mmod_Bend_Energy-OPLS-2005>
249.265640258789

> <r_mmod_Torsional_Energy-OPLS-2005>
218.670043945312

> <r_mmod_Improper_Torsional_Energy-OPLS-2005>
9.41243553161621

> <r_mmod_Van_der_Waal_Energy-OPLS-2005>
110.444549560547

> <r_mmod_Electrostatic_Energy-OPLS-2005>
-367.27978515625

> <r_mmod_Solvation_Energy-OPLS-2005>
-272.557983398438

> <b_mmod_Minimization_Converged-OPLS-2005>
0

> <r_mmod_RMS_Derivative-OPLS-2005>
8.64104747772217

$$$$
54
                    3D
 Structure written by MMmdl.
153161  0  0  1  0            999 V2000
  -30.6793  -14.4796   20.5322 C   0  0  0  0  0  0
  -30.4211  -12.2898   19.4489 C   0  0  0  0  0  0
  -29.5059  -12.4947   18.2224 C   0  0  0  0  0  0
  -28.0207  -12.3685   18.6203 C   0  0  0  0  0  0
  -27.6608  -13.2097   19.8742 C   0  0  2  0  0  0
  -28.6950  -12.9988   21.0032 C   0  0  0  0  0  0
  -25.2560  -13.8163   20.5648 C   0  0  0  0  0  0
  -24.1820  -13.0439   20.9189 C   0  0  0  0  0  0
  -24.6383  -11.6916   20.8735 C   0  0  0  0  0  0
  -23.9063  -10.4290   21.0401 C   0  0  0  0  0  0
  -24.3609   -9.4199   21.9180 C   0  0  0  0  0  0
  -23.6299   -8.2228   22.0740 C   0  0  0  0  0  0
  -22.4276   -8.0266   21.3532 C   0  0  0  0  0  0
  -21.9903   -9.0254   20.4649 C   0  0  0  0  0  0
  -22.7224  -10.2136   20.3066 C   0  0  0  0  0  0
  -21.6850   -6.0739   22.5289 C   0  0  0  0  0  0
  -21.4010   -6.5638   23.8219 C   0  0  0  0  0  0
  -21.3660   -5.6785   24.9183 C   0  0  0  0  0  0
  -21.6051   -4.3061   24.7225 C   0  0  0  0  0  0
  -21.8811   -3.8151   23.4348 C   0  0  0  0  0  0
  -21.9176   -4.6969   22.3400 C   0  0  0  0  0  0
  -22.7828  -13.5239   21.1843 C   0  0  0  0  0  0
  -22.1647   -4.2153   21.0985 F   0  0  0  0  0  0
  -21.5635   -3.4544   25.7740 F   0  0  0  0  0  0
  -30.0300  -13.2881   20.4569 N   0  0  0  0  0  0
  -26.3006  -12.9348   20.3347 N   0  0  0  0  0  0
  -25.9310  -11.6511   20.5764 N   0  0  0  0  0  0
  -22.0470  -12.8259   22.0416 N   0  0  0  0  0  0
  -25.4306  -15.1881   20.4050 N   0  0  0  0  0  0
  -31.8297  -14.6400   20.1163 O   0  0  0  0  0  0
  -21.6629   -6.8879   21.4246 O   0  0  0  0  0  0
  -22.3515  -14.5529   20.6669 O   0  0  0  0  0  0
  -24.6177  -31.8667   23.2088 C   0  0  0  0  0  0
  -25.9073  -32.4815   23.8360 C   0  0  1  0  0  0
  -27.2275  -27.4092   20.0853 C   0  0  0  0  0  0
  -25.5917  -33.8607   24.2283 N   0  0  0  0  0  0
  -23.4042  -30.4918   21.5511 C   0  0  2  0  0  0
  -24.8463  -28.9602   20.1092 C   0  0  0  0  0  0
  -22.7422  -29.4665   22.4989 C   0  0  0  0  0  0
  -18.0287  -28.1399   22.8483 C   0  0  0  0  0  0
  -24.1493  -36.7336   23.2624 C   0  0  0  0  0  0
  -25.9365  -30.8202   21.3674 C   0  0  0  0  0  0
  -26.0103  -29.4549   20.7115 C   0  0  0  0  0  0
  -27.2021  -28.6874   20.6992 C   0  0  0  0  0  0
  -26.0436  -26.9517   19.4558 C   0  0  0  0  0  0
  -24.8604  -27.7086   19.4777 C   0  0  0  0  0  0
  -23.6103  -29.8292   20.1645 C   0  0  0  0  0  0
  -25.4114  -36.3103   24.0310 C   0  0  1  0  0  0
  -20.5875  -28.3687   23.1307 C   0  0  2  0  0  0
  -20.6789  -26.9429   22.5405 C   0  0  0  0  0  0
  -19.5757  -26.6400   21.5211 C   0  0  0  0  0  0
  -18.1940  -26.7940   22.1623 C   0  0  0  0  0  0
  -19.1537  -28.8852   23.2890 C   0  0  0  0  0  0
  -18.9464  -30.1464   23.8897 C   0  0  0  0  0  0
  -17.6465  -30.6597   24.0571 C   0  0  0  0  0  0
  -25.9049  -34.9473   23.5095 C   0  0  0  0  0  0
  -16.5357  -29.9101   23.6335 C   0  0  0  0  0  0
  -16.7274  -28.6525   23.0337 C   0  0  0  0  0  0
  -26.4468  -31.6614   25.0723 C   0  0  0  0  0  0
  -25.3710  -31.3785   26.1469 C   0  0  0  0  0  0
  -27.0279  -30.3031   24.6134 C   0  0  0  0  0  0
  -27.6019  -32.4342   25.7501 C   0  0  0  0  0  0
  -27.5586  -37.1818   24.8450 C   0  0  0  0  0  0
  -21.4150  -29.3041   22.3706 N   0  0  0  0  0  0
  -26.4299  -37.3793   23.9400 N   0  0  0  0  0  0
  -24.6709  -31.0748   22.1012 N   0  0  0  0  0  0
  -23.4187  -28.8208   23.3041 O   0  0  0  0  0  0
  -28.3790  -26.6334   20.1295 O   0  0  0  0  0  0
  -26.5608  -34.8935   22.4658 O   0  0  0  0  0  0
  -23.5372  -32.1426   23.7480 O   0  0  0  0  0  0
  -29.5535  -17.9765   21.1616 C   0  0  0  0  0  0
  -30.3961  -17.0882   19.0516 C   0  0  0  0  0  0
  -29.9689  -19.4776   19.2847 C   0  0  0  0  0  0
  -29.9756  -16.8599   20.3851 C   0  0  0  0  0  0
  -29.6006  -19.2967   20.6368 C   0  0  0  0  0  0
  -30.3732  -18.3839   18.5018 C   0  0  0  0  0  0
  -28.8259  -22.7831   20.6331 C   0  0  0  0  0  0
  -29.2461  -24.2883   20.4742 C   0  0  0  0  0  0
  -29.8489  -21.7503   21.1674 C   0  0  0  0  0  0
  -28.1973  -25.2238   19.8411 C   0  0  0  0  0  0
  -29.9273  -15.5313   20.9307 N   0  0  0  0  0  0
  -29.2974  -20.4024   21.4608 N   0  0  0  0  0  0
  -27.6805  -22.4179   20.3364 O   0  0  0  0  0  0
  -30.3602  -24.6975   20.8299 O   0  0  0  0  0  0
  -30.7536  -18.5784   17.2173 F   0  0  0  0  0  0
  -31.4709  -12.3765   19.1622 H   0  0  0  0  0  0
  -30.3072  -11.2837   19.8577 H   0  0  0  0  0  0
  -29.7479  -11.7672   17.4470 H   0  0  0  0  0  0
  -29.6866  -13.4770   17.7838 H   0  0  0  0  0  0
  -27.8163  -11.3164   18.8163 H   0  0  0  0  0  0
  -27.3806  -12.6489   17.7830 H   0  0  0  0  0  0
  -27.7043  -14.2574   19.5731 H   0  0  0  0  0  0
  -28.6563  -11.9684   21.3646 H   0  0  0  0  0  0
  -28.4614  -13.6187   21.8709 H   0  0  0  0  0  0
  -25.2762   -9.5675   22.4749 H   0  0  0  0  0  0
  -24.0019   -7.4605   22.7448 H   0  0  0  0  0  0
  -21.0831   -8.8787   19.8964 H   0  0  0  0  0  0
  -22.3687  -10.9679   19.6185 H   0  0  0  0  0  0
  -21.2010   -7.6146   23.9738 H   0  0  0  0  0  0
  -21.1493   -6.0514   25.9087 H   0  0  0  0  0  0
  -22.0587   -2.7617   23.2847 H   0  0  0  0  0  0
  -22.4083  -11.9976   22.4894 H   0  0  0  0  0  0
  -21.1087  -13.1316   22.2594 H   0  0  0  0  0  0
  -24.6731  -15.8522   20.5190 H   0  0  0  0  0  0
  -26.2903  -15.6192   20.0888 H   0  0  0  0  0  0
  -26.7147  -32.5500   23.1125 H   0  0  0  0  0  0
  -25.0077  -33.9759   25.0425 H   0  0  0  0  0  0
  -22.6935  -31.3102   21.4173 H   0  0  0  0  0  0
  -23.3736  -35.9690   23.3285 H   0  0  0  0  0  0
  -24.3582  -36.8960   22.2043 H   0  0  0  0  0  0
  -23.7284  -37.6548   23.6651 H   0  0  0  0  0  0
  -26.0564  -31.5833   20.5968 H   0  0  0  0  0  0
  -26.8245  -30.8682   21.9864 H   0  0  0  0  0  0
  -28.0947  -29.0637   21.1780 H   0  0  0  0  0  0
  -26.0001  -26.0082   18.9293 H   0  0  0  0  0  0
  -23.9733  -27.3234   18.9934 H   0  0  0  0  0  0
  -23.7149  -30.6055   19.4051 H   0  0  0  0  0  0
  -22.7312  -29.2505   19.8720 H   0  0  0  0  0  0
  -25.1299  -36.1947   25.0800 H   0  0  0  0  0  0
  -20.9971  -28.3283   24.1422 H   0  0  0  0  0  0
  -20.5739  -26.2302   23.3605 H   0  0  0  0  0  0
  -21.6664  -26.7507   22.1176 H   0  0  0  0  0  0
  -19.6935  -25.6315   21.1238 H   0  0  0  0  0  0
  -19.6698  -27.3216   20.6752 H   0  0  0  0  0  0
  -17.4218  -26.6680   21.4024 H   0  0  0  0  0  0
  -18.0346  -26.0089   22.9026 H   0  0  0  0  0  0
  -19.7947  -30.7282   24.2257 H   0  0  0  0  0  0
  -17.5032  -31.6270   24.5191 H   0  0  0  0  0  0
  -15.5368  -30.3006   23.7659 H   0  0  0  0  0  0
  -15.8677  -28.0859   22.7030 H   0  0  0  0  0  0
  -24.5867  -30.7139   25.7842 H   0  0  0  0  0  0
  -24.8928  -32.2974   26.4861 H   0  0  0  0  0  0
  -25.8046  -30.9003   27.0257 H   0  0  0  0  0  0
  -26.2829  -29.6834   24.1135 H   0  0  0  0  0  0
  -27.3954  -29.7249   25.4621 H   0  0  0  0  0  0
  -27.8708  -30.4322   23.9344 H   0  0  0  0  0  0
  -27.2601  -33.3616   26.2101 H   0  0  0  0  0  0
  -28.3827  -32.6945   25.0349 H   0  0  0  0  0  0
  -28.0684  -31.8461   26.5412 H   0  0  0  0  0  0
  -28.2595  -38.0121   24.7504 H   0  0  0  0  0  0
  -28.1087  -36.2656   24.6257 H   0  0  0  0  0  0
  -27.2304  -37.1452   25.8849 H   0  0  0  0  0  0
  -20.9335  -29.8725   21.6877 H   0  0  0  0  0  0
  -26.0178  -38.2862   24.1397 H   0  0  0  0  0  0
  -29.2118  -17.8116   22.1769 H   0  0  0  0  0  0
  -30.7249  -16.2776   18.4168 H   0  0  0  0  0  0
  -29.9522  -20.4526   18.8224 H   0  0  0  0  0  0
  -30.2786  -22.1477   22.0870 H   0  0  0  0  0  0
  -30.6846  -21.6940   20.4663 H   0  0  0  0  0  0
  -27.2358  -24.8841   20.2231 H   0  0  0  0  0  0
  -28.2077  -25.0664   18.7634 H   0  0  0  0  0  0
  -29.1094  -15.3060   21.4765 H   0  0  0  0  0  0
  -29.0344  -20.2246   22.4283 H   0  0  0  0  0  0
  1 25  1  0  0  0
  1 30  2  0  0  0
  1 81  1  0  0  0
  2  3  1  0  0  0
  2 25  1  0  0  0
  2 86  1  0  0  0
  2 87  1  0  0  0
  3  4  1  0  0  0
  3 88  1  0  0  0
  3 89  1  0  0  0
  4  5  1  0  0  0
  4 90  1  0  0  0
  4 91  1  0  0  0
  5  6  1  0  0  0
  5 26  1  0  0  0
  5 92  1  0  0  0
  6 25  1  0  0  0
  6 93  1  0  0  0
  6 94  1  0  0  0
  7  8  2  0  0  0
  7 26  1  0  0  0
  7 29  1  0  0  0
  8  9  1  0  0  0
  8 22  1  0  0  0
  9 10  1  0  0  0
  9 27  2  0  0  0
 10 11  2  0  0  0
 10 15  1  0  0  0
 11 12  1  0  0  0
 11 95  1  0  0  0
 12 13  2  0  0  0
 12 96  1  0  0  0
 13 14  1  0  0  0
 13 31  1  0  0  0
 14 15  2  0  0  0
 14 97  1  0  0  0
 15 98  1  0  0  0
 16 17  2  0  0  0
 16 21  1  0  0  0
 16 31  1  0  0  0
 17 18  1  0  0  0
 17 99  1  0  0  0
 18 19  2  0  0  0
 18100  1  0  0  0
 19 20  1  0  0  0
 19 24  1  0  0  0
 20 21  2  0  0  0
 20101  1  0  0  0
 21 23  1  0  0  0
 22 28  1  0  0  0
 22 32  2  0  0  0
 26 27  1  0  0  0
 28102  1  0  0  0
 28103  1  0  0  0
 29104  1  0  0  0
 29105  1  0  0  0
 33 34  1  0  0  0
 33 66  1  0  0  0
 33 70  2  0  0  0
 34 36  1  0  0  0
 34 59  1  0  0  0
 34106  1  0  0  0
 35 44  2  0  0  0
 35 45  1  0  0  0
 35 68  1  0  0  0
 36 56  1  0  0  0
 36107  1  0  0  0
 37 39  1  0  0  0
 37 47  1  0  0  0
 37 66  1  0  0  0
 37108  1  0  0  0
 38 43  2  0  0  0
 38 46  1  0  0  0
 38 47  1  0  0  0
 39 64  1  0  0  0
 39 67  2  0  0  0
 40 52  1  0  0  0
 40 53  2  0  0  0
 40 58  1  0  0  0
 41109  1  0  0  0
 41110  1  0  0  0
 41111  1  0  0  0
 41 48  1  0  0  0
 42 43  1  0  0  0
 42 66  1  0  0  0
 42112  1  0  0  0
 42113  1  0  0  0
 43 44  1  0  0  0
 44114  1  0  0  0
 45 46  2  0  0  0
 45115  1  0  0  0
 46116  1  0  0  0
 47117  1  0  0  0
 47118  1  0  0  0
 48 56  1  0  0  0
 48 65  1  0  0  0
 48119  1  0  0  0
 49 50  1  0  0  0
 49 53  1  0  0  0
 49 64  1  0  0  0
 49120  1  0  0  0
 50 51  1  0  0  0
 50121  1  0  0  0
 50122  1  0  0  0
 51 52  1  0  0  0
 51123  1  0  0  0
 51124  1  0  0  0
 52125  1  0  0  0
 52126  1  0  0  0
 53 54  1  0  0  0
 54 55  2  0  0  0
 54127  1  0  0  0
 55 57  1  0  0  0
 55128  1  0  0  0
 56 69  2  0  0  0
 57 58  2  0  0  0
 57129  1  0  0  0
 58130  1  0  0  0
 59 60  1  0  0  0
 59 61  1  0  0  0
 59 62  1  0  0  0
 60131  1  0  0  0
 60132  1  0  0  0
 60133  1  0  0  0
 61134  1  0  0  0
 61135  1  0  0  0
 61136  1  0  0  0
 62137  1  0  0  0
 62138  1  0  0  0
 62139  1  0  0  0
 63 65  1  0  0  0
 63140  1  0  0  0
 63141  1  0  0  0
 63142  1  0  0  0
 64143  1  0  0  0
 65144  1  0  0  0
 68 80  1  0  0  0
 71 74  2  0  0  0
 71 75  1  0  0  0
 71145  1  0  0  0
 72 74  1  0  0  0
 72 76  2  0  0  0
 72146  1  0  0  0
 73 75  2  0  0  0
 73 76  1  0  0  0
 73147  1  0  0  0
 74 81  1  0  0  0
 75 82  1  0  0  0
 76 85  1  0  0  0
 77 78  1  0  0  0
 77 79  1  0  0  0
 77 83  2  0  0  0
 78 80  1  0  0  0
 78 84  2  0  0  0
 79 82  1  0  0  0
 79148  1  0  0  0
 79149  1  0  0  0
 80150  1  0  0  0
 80151  1  0  0  0
 81152  1  0  0  0
 82153  1  0  0  0
M  ISO  4   1 100  68 101  80 101  81 100
M  END
> <chiral flag>
0

> <version>
0

> <s_m_source_file>
/data/baiqing/PycharmProjects/Reinvent-master-3.2/result/LINK_invent/BTK/process_docking_weight1_custom_product_contain_oxygen_bond_distance_aromatic_linkinvent_7_9_3/rearranged_h_0162.sdf

> <i_m_source_file_index>
55

> <r_mmod_Potential_Energy-OPLS-2005>
113.573013305664

> <r_mmod_Stretch_Energy-OPLS-2005>
45.698371887207

> <r_mmod_Bend_Energy-OPLS-2005>
103.048454284668

> <r_mmod_Torsional_Energy-OPLS-2005>
221.582717895508

> <r_mmod_Improper_Torsional_Energy-OPLS-2005>
6.22140693664551

> <r_mmod_Van_der_Waal_Energy-OPLS-2005>
161.770324707031

> <r_mmod_Electrostatic_Energy-OPLS-2005>
-194.280151367188

> <r_mmod_Solvation_Energy-OPLS-2005>
-248.405624389648

> <b_mmod_Minimization_Converged-OPLS-2005>
0

> <r_mmod_RMS_Derivative-OPLS-2005>
3.81995558738708

$$$$
55
                    3D
 Structure written by MMmdl.
155163  0  0  1  0            999 V2000
  -30.7136  -14.4842   20.5622 C   0  0  0  0  0  0
  -30.4168  -12.3121   19.4293 C   0  0  0  0  0  0
  -29.4932  -12.5015   18.2091 C   0  0  0  0  0  0
  -28.0149  -12.3616   18.6219 C   0  0  0  0  0  0
  -27.6583  -13.2118   19.8714 C   0  0  2  0  0  0
  -28.7010  -13.0167   20.9961 C   0  0  0  0  0  0
  -25.2573  -13.8176   20.5683 C   0  0  0  0  0  0
  -24.1830  -13.0441   20.9172 C   0  0  0  0  0  0
  -24.6393  -11.6912   20.8734 C   0  0  0  0  0  0
  -23.9065  -10.4294   21.0403 C   0  0  0  0  0  0
  -24.3617   -9.4210   21.9181 C   0  0  0  0  0  0
  -23.6292   -8.2245   22.0754 C   0  0  0  0  0  0
  -22.4273   -8.0282   21.3545 C   0  0  0  0  0  0
  -21.9910   -9.0255   20.4646 C   0  0  0  0  0  0
  -22.7238  -10.2133   20.3053 C   0  0  0  0  0  0
  -21.6853   -6.0738   22.5280 C   0  0  0  0  0  0
  -21.4012   -6.5640   23.8213 C   0  0  0  0  0  0
  -21.3658   -5.6792   24.9175 C   0  0  0  0  0  0
  -21.6044   -4.3056   24.7225 C   0  0  0  0  0  0
  -21.8820   -3.8149   23.4345 C   0  0  0  0  0  0
  -21.9192   -4.6966   22.3402 C   0  0  0  0  0  0
  -22.7853  -13.5236   21.1838 C   0  0  0  0  0  0
  -22.1661   -4.2150   21.0980 F   0  0  0  0  0  0
  -21.5629   -3.4539   25.7737 F   0  0  0  0  0  0
  -30.0301  -13.3128   20.4379 N   0  0  0  0  0  0
  -26.3011  -12.9355   20.3363 N   0  0  0  0  0  0
  -25.9323  -11.6511   20.5773 N   0  0  0  0  0  0
  -22.0497  -12.8226   22.0396 N   0  0  0  0  0  0
  -25.4290  -15.1898   20.4111 N   0  0  0  0  0  0
  -31.8451  -14.6305   20.0938 O   0  0  0  0  0  0
  -21.6639   -6.8878   21.4241 O   0  0  0  0  0  0
  -22.3536  -14.5545   20.6692 O   0  0  0  0  0  0
  -24.6160  -31.8673   23.2091 C   0  0  0  0  0  0
  -25.9051  -32.4818   23.8391 C   0  0  1  0  0  0
  -27.2277  -27.4256   20.1001 C   0  0  0  0  0  0
  -25.5907  -33.8616   24.2327 N   0  0  0  0  0  0
  -23.4044  -30.4910   21.5495 C   0  0  2  0  0  0
  -24.8518  -28.9585   20.1105 C   0  0  0  0  0  0
  -22.7418  -29.4657   22.4979 C   0  0  0  0  0  0
  -18.0275  -28.1381   22.8491 C   0  0  0  0  0  0
  -24.1486  -36.7307   23.2638 C   0  0  0  0  0  0
  -25.9345  -30.8323   21.3619 C   0  0  0  0  0  0
  -26.0136  -29.4670   20.7067 C   0  0  0  0  0  0
  -27.2094  -28.7089   20.6958 C   0  0  0  0  0  0
  -26.0539  -26.9380   19.4886 C   0  0  0  0  0  0
  -24.8677  -27.6947   19.4954 C   0  0  0  0  0  0
  -23.6128  -29.8248   20.1635 C   0  0  0  0  0  0
  -25.4106  -36.3107   24.0337 C   0  0  1  0  0  0
  -20.5867  -28.3667   23.1312 C   0  0  2  0  0  0
  -20.6767  -26.9402   22.5415 C   0  0  0  0  0  0
  -19.5744  -26.6390   21.5214 C   0  0  0  0  0  0
  -18.1922  -26.7929   22.1623 C   0  0  0  0  0  0
  -19.1525  -28.8840   23.2901 C   0  0  0  0  0  0
  -18.9453  -30.1448   23.8909 C   0  0  0  0  0  0
  -17.6455  -30.6587   24.0566 C   0  0  0  0  0  0
  -25.9035  -34.9472   23.5128 C   0  0  0  0  0  0
  -16.5345  -29.9088   23.6331 C   0  0  0  0  0  0
  -16.7263  -28.6506   23.0348 C   0  0  0  0  0  0
  -26.4474  -31.6589   25.0715 C   0  0  0  0  0  0
  -25.3740  -31.3702   26.1463 C   0  0  0  0  0  0
  -27.0294  -30.3029   24.6083 C   0  0  0  0  0  0
  -27.6059  -32.4295   25.7478 C   0  0  0  0  0  0
  -27.5577  -37.1807   24.8466 C   0  0  0  0  0  0
  -21.4143  -29.3034   22.3717 N   0  0  0  0  0  0
  -26.4292  -37.3790   23.9409 N   0  0  0  0  0  0
  -24.6700  -31.0773   22.0989 N   0  0  0  0  0  0
  -23.4186  -28.8198   23.3025 O   0  0  0  0  0  0
  -28.3496  -26.6258   20.1338 O   0  0  0  0  0  0
  -26.5596  -34.8924   22.4689 O   0  0  0  0  0  0
  -23.5350  -32.1422   23.7485 O   0  0  0  0  0  0
  -32.1057  -18.6680   21.3646 C   0  0  0  0  0  0
  -31.1047  -19.6555   21.3081 C   0  0  0  0  0  0
  -31.7672  -17.3052   21.2900 C   0  0  0  0  0  0
  -29.7450  -19.2959   21.1701 C   0  0  0  0  0  0
  -30.4173  -16.9045   21.1401 C   0  0  0  0  0  0
  -29.4130  -17.9081   21.0899 C   0  0  0  0  0  0
  -28.7233  -20.3732   21.1844 C   0  0  0  0  0  0
  -28.7499  -24.1557   20.3890 C   0  0  0  0  0  0
  -28.1077  -22.8319   20.8600 C   0  0  0  0  0  0
  -28.1622  -25.4622   20.9729 C   0  0  0  0  0  0
  -30.0245  -15.5223   21.0841 N   0  0  0  0  0  0
  -28.9846  -21.6299   20.7542 N   0  0  0  0  0  0
  -27.5118  -20.1329   21.6865 N   0  3  0  0  0  0
  -29.7106  -24.1510   19.6094 O   0  0  0  0  0  0
  -28.1181  -17.5127   20.9867 F   0  0  0  0  0  0
  -31.4627  -12.3976   19.1288 H   0  0  0  0  0  0
  -30.3091  -11.3068   19.8394 H   0  0  0  0  0  0
  -29.7357  -11.7714   17.4357 H   0  0  0  0  0  0
  -29.6608  -13.4845   17.7657 H   0  0  0  0  0  0
  -27.8292  -11.3066   18.8273 H   0  0  0  0  0  0
  -27.3639  -12.6263   17.7880 H   0  0  0  0  0  0
  -27.6949  -14.2562   19.5604 H   0  0  0  0  0  0
  -28.6784  -11.9886   21.3608 H   0  0  0  0  0  0
  -28.4640  -13.6385   21.8605 H   0  0  0  0  0  0
  -25.2763   -9.5685   22.4752 H   0  0  0  0  0  0
  -24.0002   -7.4637   22.7474 H   0  0  0  0  0  0
  -21.0842   -8.8770   19.8953 H   0  0  0  0  0  0
  -22.3697  -10.9668   19.6158 H   0  0  0  0  0  0
  -21.2002   -7.6148   23.9716 H   0  0  0  0  0  0
  -21.1479   -6.0523   25.9076 H   0  0  0  0  0  0
  -22.0599   -2.7611   23.2845 H   0  0  0  0  0  0
  -22.4108  -11.9878   22.4771 H   0  0  0  0  0  0
  -21.1114  -13.1250   22.2603 H   0  0  0  0  0  0
  -24.6624  -15.8437   20.5248 H   0  0  0  0  0  0
  -26.2883  -15.6379   20.1185 H   0  0  0  0  0  0
  -26.7123  -32.5527   23.1157 H   0  0  0  0  0  0
  -25.0066  -33.9781   25.0479 H   0  0  0  0  0  0
  -22.6931  -31.3078   21.4111 H   0  0  0  0  0  0
  -23.3745  -35.9644   23.3314 H   0  0  0  0  0  0
  -24.3579  -36.8904   22.2050 H   0  0  0  0  0  0
  -23.7242  -37.6519   23.6637 H   0  0  0  0  0  0
  -26.0469  -31.5994   20.5943 H   0  0  0  0  0  0
  -26.8226  -30.8858   21.9798 H   0  0  0  0  0  0
  -28.1045  -29.0923   21.1653 H   0  0  0  0  0  0
  -26.0522  -25.9648   19.0179 H   0  0  0  0  0  0
  -23.9748  -27.2989   19.0310 H   0  0  0  0  0  0
  -23.7183  -30.6005   19.4041 H   0  0  0  0  0  0
  -22.7369  -29.2439   19.8684 H   0  0  0  0  0  0
  -25.1287  -36.1967   25.0831 H   0  0  0  0  0  0
  -20.9964  -28.3232   24.1431 H   0  0  0  0  0  0
  -20.5677  -26.2276   23.3605 H   0  0  0  0  0  0
  -21.6636  -26.7450   22.1201 H   0  0  0  0  0  0
  -19.6908  -25.6309   21.1225 H   0  0  0  0  0  0
  -19.6685  -27.3215   20.6757 H   0  0  0  0  0  0
  -17.4197  -26.6683   21.4021 H   0  0  0  0  0  0
  -18.0318  -26.0069   22.9017 H   0  0  0  0  0  0
  -19.7929  -30.7263   24.2278 H   0  0  0  0  0  0
  -17.5011  -31.6267   24.5169 H   0  0  0  0  0  0
  -15.5346  -30.2994   23.7655 H   0  0  0  0  0  0
  -15.8661  -28.0833   22.7055 H   0  0  0  0  0  0
  -24.5910  -30.7053   25.7801 H   0  0  0  0  0  0
  -24.8938  -32.2862   26.4912 H   0  0  0  0  0  0
  -25.8094  -30.8866   27.0217 H   0  0  0  0  0  0
  -26.2831  -29.6800   24.1138 H   0  0  0  0  0  0
  -27.4069  -29.7254   25.4532 H   0  0  0  0  0  0
  -27.8666  -30.4351   23.9225 H   0  0  0  0  0  0
  -27.2696  -33.3604   26.2057 H   0  0  0  0  0  0
  -28.3871  -32.6833   25.0301 H   0  0  0  0  0  0
  -28.0714  -31.8405   26.5391 H   0  0  0  0  0  0
  -28.2603  -38.0096   24.7500 H   0  0  0  0  0  0
  -28.1064  -36.2626   24.6307 H   0  0  0  0  0  0
  -27.2293  -37.1470   25.8870 H   0  0  0  0  0  0
  -20.9302  -29.8751   21.6935 H   0  0  0  0  0  0
  -26.0180  -38.2868   24.1406 H   0  0  0  0  0  0
  -33.1415  -18.9556   21.4806 H   0  0  0  0  0  0
  -31.3951  -20.6930   21.3965 H   0  0  0  0  0  0
  -32.5647  -16.5817   21.3656 H   0  0  0  0  0  0
  -27.2027  -22.6725   20.2726 H   0  0  0  0  0  0
  -27.7934  -22.9595   21.8967 H   0  0  0  0  0  0
  -28.6493  -25.6530   21.9290 H   0  0  0  0  0  0
  -27.1089  -25.2897   21.1984 H   0  0  0  0  0  0
  -29.0636  -15.3325   21.3234 H   0  0  0  0  0  0
  -29.8684  -21.8048   20.2882 H   0  0  0  0  0  0
  -27.2830  -19.1765   21.9240 H   0  0  0  0  0  0
  -26.7842  -20.8246   21.7308 H   0  0  0  0  0  0
  1 25  1  0  0  0
  1 30  2  0  0  0
  1 81  1  0  0  0
  2  3  1  0  0  0
  2 25  1  0  0  0
  2 86  1  0  0  0
  2 87  1  0  0  0
  3  4  1  0  0  0
  3 88  1  0  0  0
  3 89  1  0  0  0
  4  5  1  0  0  0
  4 90  1  0  0  0
  4 91  1  0  0  0
  5  6  1  0  0  0
  5 26  1  0  0  0
  5 92  1  0  0  0
  6 25  1  0  0  0
  6 93  1  0  0  0
  6 94  1  0  0  0
  7  8  2  0  0  0
  7 26  1  0  0  0
  7 29  1  0  0  0
  8  9  1  0  0  0
  8 22  1  0  0  0
  9 10  1  0  0  0
  9 27  2  0  0  0
 10 11  2  0  0  0
 10 15  1  0  0  0
 11 12  1  0  0  0
 11 95  1  0  0  0
 12 13  2  0  0  0
 12 96  1  0  0  0
 13 14  1  0  0  0
 13 31  1  0  0  0
 14 15  2  0  0  0
 14 97  1  0  0  0
 15 98  1  0  0  0
 16 17  2  0  0  0
 16 21  1  0  0  0
 16 31  1  0  0  0
 17 18  1  0  0  0
 17 99  1  0  0  0
 18 19  2  0  0  0
 18100  1  0  0  0
 19 20  1  0  0  0
 19 24  1  0  0  0
 20 21  2  0  0  0
 20101  1  0  0  0
 21 23  1  0  0  0
 22 28  1  0  0  0
 22 32  2  0  0  0
 26 27  1  0  0  0
 28102  1  0  0  0
 28103  1  0  0  0
 29104  1  0  0  0
 29105  1  0  0  0
 33 34  1  0  0  0
 33 66  1  0  0  0
 33 70  2  0  0  0
 34 36  1  0  0  0
 34 59  1  0  0  0
 34106  1  0  0  0
 35 44  2  0  0  0
 35 45  1  0  0  0
 35 68  1  0  0  0
 36 56  1  0  0  0
 36107  1  0  0  0
 37 39  1  0  0  0
 37 47  1  0  0  0
 37 66  1  0  0  0
 37108  1  0  0  0
 38 43  2  0  0  0
 38 46  1  0  0  0
 38 47  1  0  0  0
 39 64  1  0  0  0
 39 67  2  0  0  0
 40 52  1  0  0  0
 40 53  2  0  0  0
 40 58  1  0  0  0
 41109  1  0  0  0
 41110  1  0  0  0
 41111  1  0  0  0
 41 48  1  0  0  0
 42 43  1  0  0  0
 42 66  1  0  0  0
 42112  1  0  0  0
 42113  1  0  0  0
 43 44  1  0  0  0
 44114  1  0  0  0
 45 46  2  0  0  0
 45115  1  0  0  0
 46116  1  0  0  0
 47117  1  0  0  0
 47118  1  0  0  0
 48 56  1  0  0  0
 48 65  1  0  0  0
 48119  1  0  0  0
 49 50  1  0  0  0
 49 53  1  0  0  0
 49 64  1  0  0  0
 49120  1  0  0  0
 50 51  1  0  0  0
 50121  1  0  0  0
 50122  1  0  0  0
 51 52  1  0  0  0
 51123  1  0  0  0
 51124  1  0  0  0
 52125  1  0  0  0
 52126  1  0  0  0
 53 54  1  0  0  0
 54 55  2  0  0  0
 54127  1  0  0  0
 55 57  1  0  0  0
 55128  1  0  0  0
 56 69  2  0  0  0
 57 58  2  0  0  0
 57129  1  0  0  0
 58130  1  0  0  0
 59 60  1  0  0  0
 59 61  1  0  0  0
 59 62  1  0  0  0
 60131  1  0  0  0
 60132  1  0  0  0
 60133  1  0  0  0
 61134  1  0  0  0
 61135  1  0  0  0
 61136  1  0  0  0
 62137  1  0  0  0
 62138  1  0  0  0
 62139  1  0  0  0
 63 65  1  0  0  0
 63140  1  0  0  0
 63141  1  0  0  0
 63142  1  0  0  0
 64143  1  0  0  0
 65144  1  0  0  0
 68 80  1  0  0  0
 71 72  2  0  0  0
 71 73  1  0  0  0
 71145  1  0  0  0
 72 74  1  0  0  0
 72146  1  0  0  0
 73 75  2  0  0  0
 73147  1  0  0  0
 74 76  2  0  0  0
 74 77  1  0  0  0
 75 76  1  0  0  0
 75 81  1  0  0  0
 76 85  1  0  0  0
 77 82  1  0  0  0
 77 83  2  0  0  0
 78 79  1  0  0  0
 78 80  1  0  0  0
 78 84  2  0  0  0
 79 82  1  0  0  0
 79148  1  0  0  0
 79149  1  0  0  0
 80150  1  0  0  0
 80151  1  0  0  0
 81152  1  0  0  0
 82153  1  0  0  0
 83154  1  0  0  0
 83155  1  0  0  0
M  CHG  1  83   1
M  ISO  4   1 100  68 101  80 101  81 100
M  END
> <chiral flag>
0

> <version>
0

> <s_m_source_file>
/data/baiqing/PycharmProjects/Reinvent-master-3.2/result/LINK_invent/BTK/process_docking_weight1_custom_product_contain_oxygen_bond_distance_aromatic_linkinvent_7_9_3/rearranged_h_0162.sdf

> <i_m_source_file_index>
56

> <r_mmod_Potential_Energy-OPLS-2005>
-307.141510009766

> <r_mmod_Stretch_Energy-OPLS-2005>
42.4182052612305

> <r_mmod_Bend_Energy-OPLS-2005>
95.3919906616211

> <r_mmod_Torsional_Energy-OPLS-2005>
233.270584106445

> <r_mmod_Improper_Torsional_Energy-OPLS-2005>
4.26513433456421

> <r_mmod_Van_der_Waal_Energy-OPLS-2005>
159.307357788086

> <r_mmod_Electrostatic_Energy-OPLS-2005>
-419.984497070312

> <r_mmod_Solvation_Energy-OPLS-2005>
-438.124328613281

> <b_mmod_Minimization_Converged-OPLS-2005>
0

> <r_mmod_RMS_Derivative-OPLS-2005>
0.565765142440796

$$$$
56
                    3D
 Structure written by MMmdl.
153161  0  0  1  0            999 V2000
  -30.6984  -14.4588   20.6072 C   0  0  0  0  0  0
  -30.4258  -12.3077   19.4147 C   0  0  0  0  0  0
  -29.4921  -12.5114   18.2037 C   0  0  0  0  0  0
  -28.0141  -12.3687   18.6182 C   0  0  0  0  0  0
  -27.6653  -13.2037   19.8798 C   0  0  2  0  0  0
  -28.7094  -12.9701   20.9961 C   0  0  0  0  0  0
  -25.2613  -13.8153   20.5691 C   0  0  0  0  0  0
  -24.1850  -13.0434   20.9167 C   0  0  0  0  0  0
  -24.6397  -11.6900   20.8724 C   0  0  0  0  0  0
  -23.9056  -10.4288   21.0398 C   0  0  0  0  0  0
  -24.3610   -9.4206   21.9182 C   0  0  0  0  0  0
  -23.6288   -8.2242   22.0755 C   0  0  0  0  0  0
  -22.4272   -8.0277   21.3541 C   0  0  0  0  0  0
  -21.9904   -9.0247   20.4645 C   0  0  0  0  0  0
  -22.7227  -10.2130   20.3051 C   0  0  0  0  0  0
  -21.6853   -6.0734   22.5274 C   0  0  0  0  0  0
  -21.4011   -6.5641   23.8207 C   0  0  0  0  0  0
  -21.3655   -5.6791   24.9172 C   0  0  0  0  0  0
  -21.6046   -4.3057   24.7224 C   0  0  0  0  0  0
  -21.8821   -3.8148   23.4345 C   0  0  0  0  0  0
  -21.9192   -4.6960   22.3400 C   0  0  0  0  0  0
  -22.7871  -13.5233   21.1828 C   0  0  0  0  0  0
  -22.1662   -4.2152   21.0977 F   0  0  0  0  0  0
  -21.5628   -3.4543   25.7735 F   0  0  0  0  0  0
  -30.0369  -13.2801   20.4474 N   0  0  0  0  0  0
  -26.3056  -12.9319   20.3406 N   0  0  0  0  0  0
  -25.9330  -11.6477   20.5780 N   0  0  0  0  0  0
  -22.0517  -12.8227   22.0392 N   0  0  0  0  0  0
  -25.4350  -15.1872   20.4107 N   0  0  0  0  0  0
  -31.8040  -14.6565   20.0927 O   0  0  0  0  0  0
  -21.6637   -6.8877   21.4237 O   0  0  0  0  0  0
  -22.3552  -14.5537   20.6676 O   0  0  0  0  0  0
  -24.6136  -31.8686   23.2101 C   0  0  0  0  0  0
  -25.9031  -32.4829   23.8401 C   0  0  1  0  0  0
  -27.2388  -27.4445   20.1020 C   0  0  0  0  0  0
  -25.5894  -33.8626   24.2338 N   0  0  0  0  0  0
  -23.4026  -30.4893   21.5513 C   0  0  2  0  0  0
  -24.8519  -28.9543   20.1174 C   0  0  0  0  0  0
  -22.7411  -29.4652   22.5010 C   0  0  0  0  0  0
  -18.0267  -28.1372   22.8508 C   0  0  0  0  0  0
  -24.1478  -36.7303   23.2639 C   0  0  0  0  0  0
  -25.9292  -30.8381   21.3608 C   0  0  0  0  0  0
  -26.0106  -29.4721   20.7108 C   0  0  0  0  0  0
  -27.2111  -28.7263   20.6958 C   0  0  0  0  0  0
  -26.0666  -26.9349   19.5065 C   0  0  0  0  0  0
  -24.8735  -27.6848   19.5120 C   0  0  0  0  0  0
  -23.6109  -29.8178   20.1673 C   0  0  0  0  0  0
  -25.4106  -36.3120   24.0342 C   0  0  1  0  0  0
  -20.5862  -28.3659   23.1330 C   0  0  2  0  0  0
  -20.6761  -26.9399   22.5423 C   0  0  0  0  0  0
  -19.5736  -26.6385   21.5215 C   0  0  0  0  0  0
  -18.1911  -26.7924   22.1622 C   0  0  0  0  0  0
  -19.1517  -28.8832   23.2911 C   0  0  0  0  0  0
  -18.9450  -30.1438   23.8922 C   0  0  0  0  0  0
  -17.6454  -30.6592   24.0563 C   0  0  0  0  0  0
  -25.9033  -34.9480   23.5138 C   0  0  0  0  0  0
  -16.5342  -29.9095   23.6331 C   0  0  0  0  0  0
  -16.7254  -28.6502   23.0374 C   0  0  0  0  0  0
  -26.4471  -31.6609   25.0723 C   0  0  0  0  0  0
  -25.3736  -31.3682   26.1468 C   0  0  0  0  0  0
  -27.0319  -30.3072   24.6075 C   0  0  0  0  0  0
  -27.6065  -32.4318   25.7480 C   0  0  0  0  0  0
  -27.5578  -37.1801   24.8470 C   0  0  0  0  0  0
  -21.4143  -29.3025   22.3747 N   0  0  0  0  0  0
  -26.4292  -37.3806   23.9413 N   0  0  0  0  0  0
  -24.6670  -31.0781   22.1001 N   0  0  0  0  0  0
  -23.4188  -28.8198   23.3057 O   0  0  0  0  0  0
  -28.3975  -26.7036   20.0897 O   0  0  0  0  0  0
  -26.5600  -34.8929   22.4701 O   0  0  0  0  0  0
  -23.5328  -32.1434   23.7502 O   0  0  0  0  0  0
  -28.4888  -19.3215   23.2505 C   0  0  0  0  0  0
  -29.1506  -18.1922   22.7356 C   0  0  0  0  0  0
  -28.4403  -20.5210   22.5149 C   0  0  0  0  0  0
  -29.7124  -19.4615   20.7363 C   0  0  0  0  0  0
  -29.7632  -18.2467   21.4663 C   0  0  0  0  0  0
  -29.0657  -20.6166   21.2442 C   0  0  0  0  0  0
  -28.8104  -22.9523   20.8933 C   0  0  0  0  0  0
  -28.7248  -24.2462   20.0976 C   0  0  0  0  0  0
  -30.5016  -17.0351   20.8810 C   0  0  0  0  0  0
  -28.3479  -25.5109   20.8953 C   0  0  0  0  0  0
  -30.0276  -15.6328   21.3626 C   0  0  0  0  0  0
  -29.0500  -21.7748   20.4348 N   0  0  0  0  0  0
  -28.9339  -24.2988   18.8773 O   0  0  0  0  0  0
  -31.4690  -12.4107   19.1107 H   0  0  0  0  0  0
  -30.3323  -11.2927   19.8032 H   0  0  0  0  0  0
  -29.7302  -11.7923   17.4190 H   0  0  0  0  0  0
  -29.6580  -13.5007   17.7748 H   0  0  0  0  0  0
  -27.8231  -11.3118   18.8086 H   0  0  0  0  0  0
  -27.3619  -12.6495   17.7899 H   0  0  0  0  0  0
  -27.7134  -14.2529   19.5884 H   0  0  0  0  0  0
  -28.6866  -11.9291   21.3213 H   0  0  0  0  0  0
  -28.4772  -13.5521   21.8879 H   0  0  0  0  0  0
  -25.2756   -9.5687   22.4755 H   0  0  0  0  0  0
  -23.9998   -7.4637   22.7476 H   0  0  0  0  0  0
  -21.0836   -8.8758   19.8952 H   0  0  0  0  0  0
  -22.3681  -10.9666   19.6158 H   0  0  0  0  0  0
  -21.2001   -7.6147   23.9708 H   0  0  0  0  0  0
  -21.1478   -6.0526   25.9071 H   0  0  0  0  0  0
  -22.0605   -2.7611   23.2842 H   0  0  0  0  0  0
  -22.4133  -11.9879   22.4766 H   0  0  0  0  0  0
  -21.1142  -13.1254   22.2612 H   0  0  0  0  0  0
  -24.6733  -15.8473   20.5236 H   0  0  0  0  0  0
  -26.2989  -15.6268   20.1180 H   0  0  0  0  0  0
  -26.7113  -32.5557   23.1178 H   0  0  0  0  0  0
  -25.0066  -33.9796   25.0500 H   0  0  0  0  0  0
  -22.6903  -31.3054   21.4111 H   0  0  0  0  0  0
  -23.3747  -35.9628   23.3324 H   0  0  0  0  0  0
  -24.3566  -36.8904   22.2049 H   0  0  0  0  0  0
  -23.7217  -37.6506   23.6646 H   0  0  0  0  0  0
  -26.0332  -31.6019   20.5890 H   0  0  0  0  0  0
  -26.8188  -30.8981   21.9759 H   0  0  0  0  0  0
  -28.1092  -29.1217   21.1501 H   0  0  0  0  0  0
  -26.0771  -25.9619   19.0358 H   0  0  0  0  0  0
  -23.9820  -27.2804   19.0523 H   0  0  0  0  0  0
  -23.7142  -30.5913   19.4061 H   0  0  0  0  0  0
  -22.7365  -29.2336   19.8760 H   0  0  0  0  0  0
  -25.1271  -36.1997   25.0835 H   0  0  0  0  0  0
  -20.9933  -28.3227   24.1458 H   0  0  0  0  0  0
  -20.5677  -26.2261   23.3608 H   0  0  0  0  0  0
  -21.6629  -26.7460   22.1199 H   0  0  0  0  0  0
  -19.6906  -25.6298   21.1238 H   0  0  0  0  0  0
  -19.6687  -27.3208   20.6757 H   0  0  0  0  0  0
  -17.4184  -26.6695   21.4010 H   0  0  0  0  0  0
  -18.0298  -26.0052   22.9000 H   0  0  0  0  0  0
  -19.7927  -30.7238   24.2319 H   0  0  0  0  0  0
  -17.5013  -31.6281   24.5149 H   0  0  0  0  0  0
  -15.5344  -30.3004   23.7650 H   0  0  0  0  0  0
  -15.8649  -28.0818   22.7104 H   0  0  0  0  0  0
  -24.5938  -30.7006   25.7783 H   0  0  0  0  0  0
  -24.8878  -32.2810   26.4924 H   0  0  0  0  0  0
  -25.8076  -30.8848   27.0228 H   0  0  0  0  0  0
  -26.2857  -29.6806   24.1175 H   0  0  0  0  0  0
  -27.4177  -29.7333   25.4510 H   0  0  0  0  0  0
  -27.8644  -30.4419   23.9167 H   0  0  0  0  0  0
  -27.2724  -33.3626   26.2070 H   0  0  0  0  0  0
  -28.3864  -32.6860   25.0290 H   0  0  0  0  0  0
  -28.0741  -31.8427   26.5380 H   0  0  0  0  0  0
  -28.2605  -38.0091   24.7537 H   0  0  0  0  0  0
  -28.1069  -36.2628   24.6281 H   0  0  0  0  0  0
  -27.2292  -37.1435   25.8873 H   0  0  0  0  0  0
  -20.9312  -29.8739   21.6954 H   0  0  0  0  0  0
  -26.0189  -38.2884   24.1433 H   0  0  0  0  0  0
  -28.0115  -19.2667   24.2190 H   0  0  0  0  0  0
  -29.1751  -17.2907   23.3305 H   0  0  0  0  0  0
  -27.9019  -21.3491   22.9531 H   0  0  0  0  0  0
  -30.1848  -19.5074   19.7639 H   0  0  0  0  0  0
  -28.6526  -23.0949   21.9646 H   0  0  0  0  0  0
  -31.5627  -17.1594   21.1008 H   0  0  0  0  0  0
  -30.4110  -17.0811   19.7945 H   0  0  0  0  0  0
  -29.0501  -25.6276   21.7209 H   0  0  0  0  0  0
  -27.3615  -25.3660   21.3382 H   0  0  0  0  0  0
  -28.9482  -15.5929   21.2272 H   0  0  0  0  0  0
  -30.2256  -15.5027   22.4262 H   0  0  0  0  0  0
  1 25  1  0  0  0
  1 30  2  0  0  0
  1 81  1  0  0  0
  2  3  1  0  0  0
  2 25  1  0  0  0
  2 84  1  0  0  0
  2 85  1  0  0  0
  3  4  1  0  0  0
  3 86  1  0  0  0
  3 87  1  0  0  0
  4  5  1  0  0  0
  4 88  1  0  0  0
  4 89  1  0  0  0
  5  6  1  0  0  0
  5 26  1  0  0  0
  5 90  1  0  0  0
  6 25  1  0  0  0
  6 91  1  0  0  0
  6 92  1  0  0  0
  7  8  2  0  0  0
  7 26  1  0  0  0
  7 29  1  0  0  0
  8  9  1  0  0  0
  8 22  1  0  0  0
  9 10  1  0  0  0
  9 27  2  0  0  0
 10 11  2  0  0  0
 10 15  1  0  0  0
 11 12  1  0  0  0
 11 93  1  0  0  0
 12 13  2  0  0  0
 12 94  1  0  0  0
 13 14  1  0  0  0
 13 31  1  0  0  0
 14 15  2  0  0  0
 14 95  1  0  0  0
 15 96  1  0  0  0
 16 17  2  0  0  0
 16 21  1  0  0  0
 16 31  1  0  0  0
 17 18  1  0  0  0
 17 97  1  0  0  0
 18 19  2  0  0  0
 18 98  1  0  0  0
 19 20  1  0  0  0
 19 24  1  0  0  0
 20 21  2  0  0  0
 20 99  1  0  0  0
 21 23  1  0  0  0
 22 28  1  0  0  0
 22 32  2  0  0  0
 26 27  1  0  0  0
 28100  1  0  0  0
 28101  1  0  0  0
 29102  1  0  0  0
 29103  1  0  0  0
 33 34  1  0  0  0
 33 66  1  0  0  0
 33 70  2  0  0  0
 34 36  1  0  0  0
 34 59  1  0  0  0
 34104  1  0  0  0
 35 44  2  0  0  0
 35 45  1  0  0  0
 35 68  1  0  0  0
 36 56  1  0  0  0
 36105  1  0  0  0
 37 39  1  0  0  0
 37 47  1  0  0  0
 37 66  1  0  0  0
 37106  1  0  0  0
 38 43  2  0  0  0
 38 46  1  0  0  0
 38 47  1  0  0  0
 39 64  1  0  0  0
 39 67  2  0  0  0
 40 52  1  0  0  0
 40 53  2  0  0  0
 40 58  1  0  0  0
 41107  1  0  0  0
 41108  1  0  0  0
 41109  1  0  0  0
 41 48  1  0  0  0
 42 43  1  0  0  0
 42 66  1  0  0  0
 42110  1  0  0  0
 42111  1  0  0  0
 43 44  1  0  0  0
 44112  1  0  0  0
 45 46  2  0  0  0
 45113  1  0  0  0
 46114  1  0  0  0
 47115  1  0  0  0
 47116  1  0  0  0
 48 56  1  0  0  0
 48 65  1  0  0  0
 48117  1  0  0  0
 49 50  1  0  0  0
 49 53  1  0  0  0
 49 64  1  0  0  0
 49118  1  0  0  0
 50 51  1  0  0  0
 50119  1  0  0  0
 50120  1  0  0  0
 51 52  1  0  0  0
 51121  1  0  0  0
 51122  1  0  0  0
 52123  1  0  0  0
 52124  1  0  0  0
 53 54  1  0  0  0
 54 55  2  0  0  0
 54125  1  0  0  0
 55 57  1  0  0  0
 55126  1  0  0  0
 56 69  2  0  0  0
 57 58  2  0  0  0
 57127  1  0  0  0
 58128  1  0  0  0
 59 60  1  0  0  0
 59 61  1  0  0  0
 59 62  1  0  0  0
 60129  1  0  0  0
 60130  1  0  0  0
 60131  1  0  0  0
 61132  1  0  0  0
 61133  1  0  0  0
 61134  1  0  0  0
 62135  1  0  0  0
 62136  1  0  0  0
 62137  1  0  0  0
 63 65  1  0  0  0
 63138  1  0  0  0
 63139  1  0  0  0
 63140  1  0  0  0
 64141  1  0  0  0
 65142  1  0  0  0
 68 80  1  0  0  0
 71 72  2  0  0  0
 71 73  1  0  0  0
 71143  1  0  0  0
 72 75  1  0  0  0
 72144  1  0  0  0
 73 76  2  0  0  0
 73145  1  0  0  0
 74 75  2  0  0  0
 74 76  1  0  0  0
 74146  1  0  0  0
 75 79  1  0  0  0
 76 82  1  0  0  0
 77 78  1  0  0  0
 77 82  2  0  0  0
 77147  1  0  0  0
 78 80  1  0  0  0
 78 83  2  0  0  0
 79 81  1  0  0  0
 79148  1  0  0  0
 79149  1  0  0  0
 80150  1  0  0  0
 80151  1  0  0  0
 81152  1  0  0  0
 81153  1  0  0  0
M  ISO  4   1 100  68 101  80 101  81 100
M  END
> <chiral flag>
0

> <version>
0

> <s_m_source_file>
/data/baiqing/PycharmProjects/Reinvent-master-3.2/result/LINK_invent/BTK/process_docking_weight1_custom_product_contain_oxygen_bond_distance_aromatic_linkinvent_7_9_3/rearranged_h_0162.sdf

> <i_m_source_file_index>
57

> <r_mmod_Potential_Energy-OPLS-2005>
-22.5484180450439

> <r_mmod_Stretch_Energy-OPLS-2005>
39.8194732666016

> <r_mmod_Bend_Energy-OPLS-2005>
95.0150146484375

> <r_mmod_Torsional_Energy-OPLS-2005>
190.511810302734

> <r_mmod_Improper_Torsional_Energy-OPLS-2005>
2.34130191802979

> <r_mmod_Van_der_Waal_Energy-OPLS-2005>
154.593170166016

> <r_mmod_Electrostatic_Energy-OPLS-2005>
-285.015686035156

> <r_mmod_Solvation_Energy-OPLS-2005>
-230.071228027344

> <b_mmod_Minimization_Converged-OPLS-2005>
0

> <r_mmod_RMS_Derivative-OPLS-2005>
1.18893444538116

$$$$
57
                    3D
 Structure written by MMmdl.
156165  0  0  1  0            999 V2000
  -30.5684  -14.6777   20.5146 C   0  0  0  0  0  0
  -30.4571  -12.4199   19.4499 C   0  0  0  0  0  0
  -29.5136  -12.5078   18.2263 C   0  0  0  0  0  0
  -28.0380  -12.3313   18.6407 C   0  0  0  0  0  0
  -27.6574  -13.2014   19.8658 C   0  0  2  0  0  0
  -28.7032  -13.0384   20.9932 C   0  0  0  0  0  0
  -25.2599  -13.8141   20.5651 C   0  0  0  0  0  0
  -24.1858  -13.0431   20.9195 C   0  0  0  0  0  0
  -24.6405  -11.6892   20.8757 C   0  0  0  0  0  0
  -23.9062  -10.4291   21.0413 C   0  0  0  0  0  0
  -24.3614   -9.4209   21.9187 C   0  0  0  0  0  0
  -23.6276   -8.2256   22.0763 C   0  0  0  0  0  0
  -22.4268   -8.0287   21.3539 C   0  0  0  0  0  0
  -21.9893   -9.0278   20.4657 C   0  0  0  0  0  0
  -22.7229  -10.2153   20.3064 C   0  0  0  0  0  0
  -21.6857   -6.0729   22.5261 C   0  0  0  0  0  0
  -21.4025   -6.5639   23.8194 C   0  0  0  0  0  0
  -21.3657   -5.6792   24.9147 C   0  0  0  0  0  0
  -21.6036   -4.3055   24.7197 C   0  0  0  0  0  0
  -21.8825   -3.8138   23.4327 C   0  0  0  0  0  0
  -21.9196   -4.6959   22.3388 C   0  0  0  0  0  0
  -22.7884  -13.5252   21.1831 C   0  0  0  0  0  0
  -22.1658   -4.2140   21.0965 F   0  0  0  0  0  0
  -21.5621   -3.4540   25.7711 F   0  0  0  0  0  0
  -30.0155  -13.4217   20.4402 N   0  0  0  0  0  0
  -26.3004  -12.9279   20.3305 N   0  0  0  0  0  0
  -25.9332  -11.6462   20.5786 N   0  0  0  0  0  0
  -22.0508  -12.8289   22.0396 N   0  0  0  0  0  0
  -25.4330  -15.1861   20.3956 N   0  0  0  0  0  0
  -31.7038  -14.9160   20.0884 O   0  0  0  0  0  0
  -21.6632   -6.8880   21.4227 O   0  0  0  0  0  0
  -22.3591  -14.5556   20.6653 O   0  0  0  0  0  0
  -24.6266  -31.8581   23.2012 C   0  0  0  0  0  0
  -25.9105  -32.4773   23.8348 C   0  0  1  0  0  0
  -27.2287  -27.3134   20.1190 C   0  0  0  0  0  0
  -25.5918  -33.8576   24.2261 N   0  0  0  0  0  0
  -23.4230  -30.4800   21.5425 C   0  0  2  0  0  0
  -24.8740  -28.9341   20.1107 C   0  0  0  0  0  0
  -22.7495  -29.4605   22.4923 C   0  0  0  0  0  0
  -18.0293  -28.1389   22.8475 C   0  0  0  0  0  0
  -24.1485  -36.7293   23.2621 C   0  0  0  0  0  0
  -25.9652  -30.7861   21.3764 C   0  0  0  0  0  0
  -26.0433  -29.4127   20.7183 C   0  0  0  0  0  0
  -27.2276  -28.6137   20.7139 C   0  0  0  0  0  0
  -26.0431  -26.8927   19.4811 C   0  0  0  0  0  0
  -24.8761  -27.6791   19.4814 C   0  0  0  0  0  0
  -23.6417  -29.8145   20.1585 C   0  0  0  0  0  0
  -25.4098  -36.3074   24.0324 C   0  0  1  0  0  0
  -20.5892  -28.3694   23.1273 C   0  0  2  0  0  0
  -20.6772  -26.9415   22.5416 C   0  0  0  0  0  0
  -19.5753  -26.6380   21.5211 C   0  0  0  0  0  0
  -18.1932  -26.7921   22.1625 C   0  0  0  0  0  0
  -19.1544  -28.8855   23.2866 C   0  0  0  0  0  0
  -18.9467  -30.1452   23.8891 C   0  0  0  0  0  0
  -17.6466  -30.6587   24.0564 C   0  0  0  0  0  0
  -25.9053  -34.9455   23.5093 C   0  0  0  0  0  0
  -16.5357  -29.9093   23.6326 C   0  0  0  0  0  0
  -16.7279  -28.6514   23.0343 C   0  0  0  0  0  0
  -26.4486  -31.6600   25.0729 C   0  0  0  0  0  0
  -25.3715  -31.3793   26.1461 C   0  0  0  0  0  0
  -27.0311  -30.3004   24.6214 C   0  0  0  0  0  0
  -27.6039  -32.4343   25.7486 C   0  0  0  0  0  0
  -27.5610  -37.1741   24.8418 C   0  0  0  0  0  0
  -21.4206  -29.3041   22.3669 N   0  0  0  0  0  0
  -26.4248  -37.3803   23.9473 N   0  0  0  0  0  0
  -24.6893  -31.0588   22.0962 N   0  0  0  0  0  0
  -23.4213  -28.8140   23.3004 O   0  0  0  0  0  0
  -28.3100  -26.4172   20.1486 O   0  0  0  0  0  0
  -26.5638  -34.8920   22.4670 O   0  0  0  0  0  0
  -23.5418  -32.1378   23.7330 O   0  0  0  0  0  0
  -28.3501  -17.6227   21.4680 C   0  0  0  0  0  0
  -29.4893  -17.0836   20.9217 C   0  0  0  0  0  0
  -29.4972  -19.3382   20.5727 C   0  0  0  0  0  0
  -29.7021  -23.2516   21.3288 C   0  0  0  0  0  0
  -28.7329  -23.7787   20.5446 C   0  0  0  0  0  0
  -30.1908  -21.7798   21.3597 C   0  0  0  0  0  0
  -28.0290  -22.8106   19.5869 C   0  0  0  0  0  0
  -28.8193  -21.5065   19.1766 C   0  0  0  0  0  0
  -29.8165  -20.8211   20.1775 C   0  0  2  0  0  0
  -28.0360  -25.1604   20.8865 C   0  0  0  0  0  0
  -30.1878  -18.1652   20.3695 N   0  0  0  0  0  0
  -28.3899  -18.9769   21.2389 N   0  3  0  0  0  0
  -29.7079  -15.6297   20.9981 N   0  0  0  0  0  0
  -31.4907  -12.5863   19.1420 H   0  0  0  0  0  0
  -30.4313  -11.4209   19.8880 H   0  0  0  0  0  0
  -29.7849  -11.7501   17.4907 H   0  0  0  0  0  0
  -29.6400  -13.4721   17.7316 H   0  0  0  0  0  0
  -27.8912  -11.2762   18.8794 H   0  0  0  0  0  0
  -27.3781  -12.5481   17.7995 H   0  0  0  0  0  0
  -27.6795  -14.2372   19.5286 H   0  0  0  0  0  0
  -28.7308  -12.0039   21.3413 H   0  0  0  0  0  0
  -28.4301  -13.6264   21.8703 H   0  0  0  0  0  0
  -25.2776   -9.5678   22.4743 H   0  0  0  0  0  0
  -23.9959   -7.4673   22.7522 H   0  0  0  0  0  0
  -21.0796   -8.8841   19.9006 H   0  0  0  0  0  0
  -22.3698  -10.9707   19.6180 H   0  0  0  0  0  0
  -21.2041   -7.6153   23.9692 H   0  0  0  0  0  0
  -21.1458   -6.0518   25.9049 H   0  0  0  0  0  0
  -22.0607   -2.7595   23.2830 H   0  0  0  0  0  0
  -22.4071  -11.9942   22.4820 H   0  0  0  0  0  0
  -21.1159  -13.1400   22.2615 H   0  0  0  0  0  0
  -24.6355  -15.8126   20.4333 H   0  0  0  0  0  0
  -26.2244  -15.5888   19.9122 H   0  0  0  0  0  0
  -26.7180  -32.5458   23.1108 H   0  0  0  0  0  0
  -25.0039  -33.9721   25.0384 H   0  0  0  0  0  0
  -22.7159  -31.2987   21.3970 H   0  0  0  0  0  0
  -23.3772  -35.9594   23.3169 H   0  0  0  0  0  0
  -24.3601  -36.9028   22.2061 H   0  0  0  0  0  0
  -23.7181  -37.6434   23.6711 H   0  0  0  0  0  0
  -26.0997  -31.5497   20.6090 H   0  0  0  0  0  0
  -26.8432  -30.8337   22.0093 H   0  0  0  0  0  0
  -28.1231  -28.9724   21.2021 H   0  0  0  0  0  0
  -26.0111  -25.9261   18.9981 H   0  0  0  0  0  0
  -23.9810  -27.3065   19.0010 H   0  0  0  0  0  0
  -23.7669  -30.5913   19.4035 H   0  0  0  0  0  0
  -22.7620  -29.2467   19.8502 H   0  0  0  0  0  0
  -25.1251  -36.1890   25.0804 H   0  0  0  0  0  0
  -20.9969  -28.3274   24.1399 H   0  0  0  0  0  0
  -20.5653  -26.2315   23.3623 H   0  0  0  0  0  0
  -21.6643  -26.7424   22.1221 H   0  0  0  0  0  0
  -19.6912  -25.6291   21.1242 H   0  0  0  0  0  0
  -19.6685  -27.3189   20.6740 H   0  0  0  0  0  0
  -17.4193  -26.6651   21.4036 H   0  0  0  0  0  0
  -18.0343  -26.0078   22.9040 H   0  0  0  0  0  0
  -19.7944  -30.7264   24.2271 H   0  0  0  0  0  0
  -17.5024  -31.6255   24.5189 H   0  0  0  0  0  0
  -15.5356  -30.3000   23.7649 H   0  0  0  0  0  0
  -15.8678  -28.0839   22.7051 H   0  0  0  0  0  0
  -24.5862  -30.7161   25.7818 H   0  0  0  0  0  0
  -24.8946  -32.2996   26.4852 H   0  0  0  0  0  0
  -25.8029  -30.8999   27.0258 H   0  0  0  0  0  0
  -26.2895  -29.6767   24.1207 H   0  0  0  0  0  0
  -27.3940  -29.7255   25.4747 H   0  0  0  0  0  0
  -27.8800  -30.4252   23.9484 H   0  0  0  0  0  0
  -27.2619  -33.3609   26.2111 H   0  0  0  0  0  0
  -28.3818  -32.6973   25.0305 H   0  0  0  0  0  0
  -28.0748  -31.8455   26.5368 H   0  0  0  0  0  0
  -28.2460  -38.0205   24.7720 H   0  0  0  0  0  0
  -28.1266  -36.2760   24.5885 H   0  0  0  0  0  0
  -27.2384  -37.0947   25.8813 H   0  0  0  0  0  0
  -20.9391  -29.8789   21.6896 H   0  0  0  0  0  0
  -26.0107  -38.2822   24.1663 H   0  0  0  0  0  0
  -27.5206  -17.1609   21.9880 H   0  0  0  0  0  0
  -30.1113  -23.8739   22.1124 H   0  0  0  0  0  0
  -29.7818  -21.3644   22.2810 H   0  0  0  0  0  0
  -31.2729  -21.7785   21.4994 H   0  0  0  0  0  0
  -27.7400  -23.3576   18.6879 H   0  0  0  0  0  0
  -27.0949  -22.5108   20.0649 H   0  0  0  0  0  0
  -29.4102  -21.7848   18.3023 H   0  0  0  0  0  0
  -28.1200  -20.7654   18.7854 H   0  0  0  0  0  0
  -30.7413  -20.7003   19.6110 H   0  0  0  0  0  0
  -28.3017  -25.3926   21.9185 H   0  0  0  0  0  0
  -26.9661  -24.9518   20.9332 H   0  0  0  0  0  0
  -31.0778  -18.1051   19.8885 H   0  0  0  0  0  0
  -27.6682  -19.6228   21.5345 H   0  0  0  0  0  0
  -28.9159  -15.1566   21.4048 H   0  0  0  0  0  0
  1 25  1  0  0  0
  1 30  2  0  0  0
  1 83  1  0  0  0
  2  3  1  0  0  0
  2 25  1  0  0  0
  2 84  1  0  0  0
  2 85  1  0  0  0
  3  4  1  0  0  0
  3 86  1  0  0  0
  3 87  1  0  0  0
  4  5  1  0  0  0
  4 88  1  0  0  0
  4 89  1  0  0  0
  5  6  1  0  0  0
  5 26  1  0  0  0
  5 90  1  0  0  0
  6 25  1  0  0  0
  6 91  1  0  0  0
  6 92  1  0  0  0
  7  8  2  0  0  0
  7 26  1  0  0  0
  7 29  1  0  0  0
  8  9  1  0  0  0
  8 22  1  0  0  0
  9 10  1  0  0  0
  9 27  2  0  0  0
 10 11  2  0  0  0
 10 15  1  0  0  0
 11 12  1  0  0  0
 11 93  1  0  0  0
 12 13  2  0  0  0
 12 94  1  0  0  0
 13 14  1  0  0  0
 13 31  1  0  0  0
 14 15  2  0  0  0
 14 95  1  0  0  0
 15 96  1  0  0  0
 16 17  2  0  0  0
 16 21  1  0  0  0
 16 31  1  0  0  0
 17 18  1  0  0  0
 17 97  1  0  0  0
 18 19  2  0  0  0
 18 98  1  0  0  0
 19 20  1  0  0  0
 19 24  1  0  0  0
 20 21  2  0  0  0
 20 99  1  0  0  0
 21 23  1  0  0  0
 22 28  1  0  0  0
 22 32  2  0  0  0
 26 27  1  0  0  0
 28100  1  0  0  0
 28101  1  0  0  0
 29102  1  0  0  0
 29103  1  0  0  0
 33 34  1  0  0  0
 33 66  1  0  0  0
 33 70  2  0  0  0
 34 36  1  0  0  0
 34 59  1  0  0  0
 34104  1  0  0  0
 35 44  2  0  0  0
 35 45  1  0  0  0
 35 68  1  0  0  0
 36 56  1  0  0  0
 36105  1  0  0  0
 37 39  1  0  0  0
 37 47  1  0  0  0
 37 66  1  0  0  0
 37106  1  0  0  0
 38 43  2  0  0  0
 38 46  1  0  0  0
 38 47  1  0  0  0
 39 64  1  0  0  0
 39 67  2  0  0  0
 40 52  1  0  0  0
 40 53  2  0  0  0
 40 58  1  0  0  0
 41107  1  0  0  0
 41108  1  0  0  0
 41109  1  0  0  0
 41 48  1  0  0  0
 42 43  1  0  0  0
 42 66  1  0  0  0
 42110  1  0  0  0
 42111  1  0  0  0
 43 44  1  0  0  0
 44112  1  0  0  0
 45 46  2  0  0  0
 45113  1  0  0  0
 46114  1  0  0  0
 47115  1  0  0  0
 47116  1  0  0  0
 48 56  1  0  0  0
 48 65  1  0  0  0
 48117  1  0  0  0
 49 50  1  0  0  0
 49 53  1  0  0  0
 49 64  1  0  0  0
 49118  1  0  0  0
 50 51  1  0  0  0
 50119  1  0  0  0
 50120  1  0  0  0
 51 52  1  0  0  0
 51121  1  0  0  0
 51122  1  0  0  0
 52123  1  0  0  0
 52124  1  0  0  0
 53 54  1  0  0  0
 54 55  2  0  0  0
 54125  1  0  0  0
 55 57  1  0  0  0
 55126  1  0  0  0
 56 69  2  0  0  0
 57 58  2  0  0  0
 57127  1  0  0  0
 58128  1  0  0  0
 59 60  1  0  0  0
 59 61  1  0  0  0
 59 62  1  0  0  0
 60129  1  0  0  0
 60130  1  0  0  0
 60131  1  0  0  0
 61132  1  0  0  0
 61133  1  0  0  0
 61134  1  0  0  0
 62135  1  0  0  0
 62136  1  0  0  0
 62137  1  0  0  0
 63 65  1  0  0  0
 63138  1  0  0  0
 63139  1  0  0  0
 63140  1  0  0  0
 64141  1  0  0  0
 65142  1  0  0  0
 68 80  1  0  0  0
 71 72  2  0  0  0
 71 82  1  0  0  0
 71143  1  0  0  0
 72 81  1  0  0  0
 72 83  1  0  0  0
 73 81  1  0  0  0
 73 82  2  0  0  0
 73 79  1  0  0  0
 74 75  2  0  0  0
 74 76  1  0  0  0
 74144  1  0  0  0
 75 77  1  0  0  0
 75 80  1  0  0  0
 76 79  1  0  0  0
 76145  1  0  0  0
 76146  1  0  0  0
 77 78  1  0  0  0
 77147  1  0  0  0
 77148  1  0  0  0
 78 79  1  0  0  0
 78149  1  0  0  0
 78150  1  0  0  0
 79151  1  0  0  0
 80152  1  0  0  0
 80153  1  0  0  0
 81154  1  0  0  0
 82155  1  0  0  0
 83156  1  0  0  0
M  CHG  1  82   1
M  ISO  4   1 100  68 101  80 101  83 100
M  END
> <chiral flag>
0

> <version>
0

> <s_m_source_file>
/data/baiqing/PycharmProjects/Reinvent-master-3.2/result/LINK_invent/BTK/process_docking_weight1_custom_product_contain_oxygen_bond_distance_aromatic_linkinvent_7_9_3/rearranged_h_0162.sdf

> <i_m_source_file_index>
58

> <r_mmod_Potential_Energy-OPLS-2005>
64.3149261474609

> <r_mmod_Stretch_Energy-OPLS-2005>
85.458137512207

> <r_mmod_Bend_Energy-OPLS-2005>
198.100357055664

> <r_mmod_Torsional_Energy-OPLS-2005>
269.778137207031

> <r_mmod_Improper_Torsional_Energy-OPLS-2005>
5.65400505065918

> <r_mmod_Van_der_Waal_Energy-OPLS-2005>
121.184326171875

> <r_mmod_Electrostatic_Energy-OPLS-2005>
-234.252899169922

> <r_mmod_Solvation_Energy-OPLS-2005>
-443.613555908203

> <b_mmod_Minimization_Converged-OPLS-2005>
0

> <r_mmod_RMS_Derivative-OPLS-2005>
2.60971260070801

$$$$
58
                    3D
 Structure written by MMmdl.
157165  0  0  1  0            999 V2000
  -30.7062  -14.4889   20.5667 C   0  0  0  0  0  0
  -30.4201  -12.3166   19.4269 C   0  0  0  0  0  0
  -29.4943  -12.5019   18.2076 C   0  0  0  0  0  0
  -28.0162  -12.3597   18.6210 C   0  0  0  0  0  0
  -27.6589  -13.2089   19.8704 C   0  0  2  0  0  0
  -28.7015  -13.0121   20.9945 C   0  0  0  0  0  0
  -25.2583  -13.8163   20.5681 C   0  0  0  0  0  0
  -24.1839  -13.0441   20.9192 C   0  0  0  0  0  0
  -24.6393  -11.6908   20.8742 C   0  0  0  0  0  0
  -23.9060  -10.4292   21.0410 C   0  0  0  0  0  0
  -24.3614   -9.4209   21.9188 C   0  0  0  0  0  0
  -23.6291   -8.2243   22.0755 C   0  0  0  0  0  0
  -22.4272   -8.0281   21.3546 C   0  0  0  0  0  0
  -21.9909   -9.0255   20.4648 C   0  0  0  0  0  0
  -22.7234  -10.2136   20.3058 C   0  0  0  0  0  0
  -21.6853   -6.0738   22.5283 C   0  0  0  0  0  0
  -21.4011   -6.5640   23.8216 C   0  0  0  0  0  0
  -21.3656   -5.6792   24.9177 C   0  0  0  0  0  0
  -21.6044   -4.3056   24.7226 C   0  0  0  0  0  0
  -21.8819   -3.8149   23.4346 C   0  0  0  0  0  0
  -21.9192   -4.6966   22.3403 C   0  0  0  0  0  0
  -22.7861  -13.5244   21.1849 C   0  0  0  0  0  0
  -22.1664   -4.2153   21.0981 F   0  0  0  0  0  0
  -21.5628   -3.4538   25.7738 F   0  0  0  0  0  0
  -30.0294  -13.3143   20.4364 N   0  0  0  0  0  0
  -26.3012  -12.9336   20.3348 N   0  0  0  0  0  0
  -25.9322  -11.6497   20.5767 N   0  0  0  0  0  0
  -22.0495  -12.8236   22.0397 N   0  0  0  0  0  0
  -25.4303  -15.1881   20.4072 N   0  0  0  0  0  0
  -31.8399  -14.6455   20.1048 O   0  0  0  0  0  0
  -21.6637   -6.8879   21.4243 O   0  0  0  0  0  0
  -22.3554  -14.5552   20.6695 O   0  0  0  0  0  0
  -24.6161  -31.8665   23.2090 C   0  0  0  0  0  0
  -25.9047  -32.4815   23.8393 C   0  0  1  0  0  0
  -27.2304  -27.4239   20.1012 C   0  0  0  0  0  0
  -25.5896  -33.8611   24.2323 N   0  0  0  0  0  0
  -23.4057  -30.4907   21.5489 C   0  0  2  0  0  0
  -24.8540  -28.9580   20.1105 C   0  0  0  0  0  0
  -22.7427  -29.4649   22.4969 C   0  0  0  0  0  0
  -18.0276  -28.1380   22.8490 C   0  0  0  0  0  0
  -24.1483  -36.7308   23.2639 C   0  0  0  0  0  0
  -25.9362  -30.8310   21.3633 C   0  0  0  0  0  0
  -26.0157  -29.4659   20.7075 C   0  0  0  0  0  0
  -27.2115  -28.7074   20.6974 C   0  0  0  0  0  0
  -26.0567  -26.9385   19.4871 C   0  0  0  0  0  0
  -24.8701  -27.6949   19.4942 C   0  0  0  0  0  0
  -23.6154  -29.8245   20.1630 C   0  0  0  0  0  0
  -25.4104  -36.3104   24.0339 C   0  0  1  0  0  0
  -20.5870  -28.3665   23.1310 C   0  0  2  0  0  0
  -20.6764  -26.9398   22.5415 C   0  0  0  0  0  0
  -19.5739  -26.6387   21.5213 C   0  0  0  0  0  0
  -18.1920  -26.7926   22.1626 C   0  0  0  0  0  0
  -19.1527  -28.8840   23.2898 C   0  0  0  0  0  0
  -18.9454  -30.1447   23.8905 C   0  0  0  0  0  0
  -17.6456  -30.6583   24.0567 C   0  0  0  0  0  0
  -25.9032  -34.9469   23.5128 C   0  0  0  0  0  0
  -16.5346  -29.9083   23.6333 C   0  0  0  0  0  0
  -16.7264  -28.6504   23.0348 C   0  0  0  0  0  0
  -26.4473  -31.6592   25.0720 C   0  0  0  0  0  0
  -25.3742  -31.3699   26.1470 C   0  0  0  0  0  0
  -27.0306  -30.3036   24.6093 C   0  0  0  0  0  0
  -27.6050  -32.4309   25.7483 C   0  0  0  0  0  0
  -27.5577  -37.1810   24.8467 C   0  0  0  0  0  0
  -21.4151  -29.3031   22.3714 N   0  0  0  0  0  0
  -26.4290  -37.3788   23.9409 N   0  0  0  0  0  0
  -24.6711  -31.0764   22.0991 N   0  0  0  0  0  0
  -23.4195  -28.8186   23.3009 O   0  0  0  0  0  0
  -28.3510  -26.6206   20.1385 O   0  0  0  0  0  0
  -26.5594  -34.8920   22.4690 O   0  0  0  0  0  0
  -23.5350  -32.1412   23.7482 O   0  0  0  0  0  0
  -31.1694  -19.6146   21.6111 C   0  0  0  0  0  0
  -29.4548  -17.9395   21.1350 C   0  0  0  0  0  0
  -31.7561  -17.2437   21.5281 C   0  0  0  0  0  0
  -29.8242  -19.3021   21.3253 C   0  0  0  0  0  0
  -32.1316  -18.5924   21.7146 C   0  0  0  0  0  0
  -30.4147  -16.8949   21.2293 C   0  0  0  0  0  0
  -28.8247  -20.3896   21.3074 C   0  0  0  0  0  0
  -28.8286  -24.1654   20.4615 C   0  0  0  0  0  0
  -28.2060  -22.8299   20.9273 C   0  0  0  0  0  0
  -28.1530  -25.4583   20.9787 C   0  0  0  0  0  0
  -33.4539  -18.9209   22.0180 N   0  0  0  0  0  0
  -29.9998  -15.5241   21.0779 N   0  0  0  0  0  0
  -29.0961  -21.6331   20.8533 N   0  0  0  0  0  0
  -27.6113  -20.1496   21.8021 N   0  3  0  0  0  0
  -29.8327  -24.1819   19.7387 O   0  0  0  0  0  0
  -31.4651  -12.4088   19.1252 H   0  0  0  0  0  0
  -30.3178  -11.3103   19.8363 H   0  0  0  0  0  0
  -29.7379  -11.7719   17.4345 H   0  0  0  0  0  0
  -29.6601  -13.4845   17.7628 H   0  0  0  0  0  0
  -27.8312  -11.3048   18.8267 H   0  0  0  0  0  0
  -27.3640  -12.6237   17.7876 H   0  0  0  0  0  0
  -27.6963  -14.2529   19.5590 H   0  0  0  0  0  0
  -28.6823  -11.9826   21.3558 H   0  0  0  0  0  0
  -28.4632  -13.6299   21.8617 H   0  0  0  0  0  0
  -25.2763   -9.5684   22.4759 H   0  0  0  0  0  0
  -24.0005   -7.4634   22.7473 H   0  0  0  0  0  0
  -21.0842   -8.8771   19.8954 H   0  0  0  0  0  0
  -22.3695  -10.9672   19.6162 H   0  0  0  0  0  0
  -21.2000   -7.6149   23.9719 H   0  0  0  0  0  0
  -21.1477   -6.0522   25.9080 H   0  0  0  0  0  0
  -22.0599   -2.7612   23.2846 H   0  0  0  0  0  0
  -22.4102  -11.9892   22.4783 H   0  0  0  0  0  0
  -21.1114  -13.1267   22.2599 H   0  0  0  0  0  0
  -24.6571  -15.8383   20.4982 H   0  0  0  0  0  0
  -26.2695  -15.6209   20.0438 H   0  0  0  0  0  0
  -26.7118  -32.5526   23.1158 H   0  0  0  0  0  0
  -25.0056  -33.9769   25.0476 H   0  0  0  0  0  0
  -22.6952  -31.3082   21.4099 H   0  0  0  0  0  0
  -23.3739  -35.9649   23.3313 H   0  0  0  0  0  0
  -24.3577  -36.8907   22.2050 H   0  0  0  0  0  0
  -23.7242  -37.6520   23.6646 H   0  0  0  0  0  0
  -26.0502  -31.5983   20.5964 H   0  0  0  0  0  0
  -26.8233  -30.8832   21.9827 H   0  0  0  0  0  0
  -28.1064  -29.0895   21.1687 H   0  0  0  0  0  0
  -26.0549  -25.9668   19.0134 H   0  0  0  0  0  0
  -23.9780  -27.3004   19.0266 H   0  0  0  0  0  0
  -23.7239  -30.5997   19.4035 H   0  0  0  0  0  0
  -22.7394  -29.2445   19.8668 H   0  0  0  0  0  0
  -25.1281  -36.1971   25.0833 H   0  0  0  0  0  0
  -20.9970  -28.3229   24.1427 H   0  0  0  0  0  0
  -20.5665  -26.2269   23.3601 H   0  0  0  0  0  0
  -21.6634  -26.7438   22.1212 H   0  0  0  0  0  0
  -19.6897  -25.6301   21.1229 H   0  0  0  0  0  0
  -19.6680  -27.3210   20.6751 H   0  0  0  0  0  0
  -17.4193  -26.6679   21.4023 H   0  0  0  0  0  0
  -18.0316  -26.0067   22.9019 H   0  0  0  0  0  0
  -19.7930  -30.7264   24.2274 H   0  0  0  0  0  0
  -17.5011  -31.6264   24.5168 H   0  0  0  0  0  0
  -15.5346  -30.2987   23.7654 H   0  0  0  0  0  0
  -15.8664  -28.0830   22.7050 H   0  0  0  0  0  0
  -24.5910  -30.7046   25.7811 H   0  0  0  0  0  0
  -24.8934  -32.2851   26.4932 H   0  0  0  0  0  0
  -25.8097  -30.8860   27.0221 H   0  0  0  0  0  0
  -26.2848  -29.6793   24.1153 H   0  0  0  0  0  0
  -27.4085  -29.7272   25.4546 H   0  0  0  0  0  0
  -27.8679  -30.4355   23.9236 H   0  0  0  0  0  0
  -27.2678  -33.3599   26.2093 H   0  0  0  0  0  0
  -28.3850  -32.6883   25.0306 H   0  0  0  0  0  0
  -28.0733  -31.8411   26.5374 H   0  0  0  0  0  0
  -28.2608  -38.0095   24.7508 H   0  0  0  0  0  0
  -28.1060  -36.2627   24.6302 H   0  0  0  0  0  0
  -27.2296  -37.1476   25.8871 H   0  0  0  0  0  0
  -20.9312  -29.8754   21.6937 H   0  0  0  0  0  0
  -26.0176  -38.2866   24.1409 H   0  0  0  0  0  0
  -31.4566  -20.6436   21.7800 H   0  0  0  0  0  0
  -28.4242  -17.6941   20.9199 H   0  0  0  0  0  0
  -32.5082  -16.4767   21.6365 H   0  0  0  0  0  0
  -27.3140  -22.6524   20.3255 H   0  0  0  0  0  0
  -27.8705  -22.9615   21.9569 H   0  0  0  0  0  0
  -28.5585  -25.6789   21.9661 H   0  0  0  0  0  0
  -27.0942  -25.2435   21.1269 H   0  0  0  0  0  0
  -33.6444  -19.8216   22.4462 H   0  0  0  0  0  0
  -34.0695  -18.1881   22.3587 H   0  0  0  0  0  0
  -29.0381  -15.3144   21.2959 H   0  0  0  0  0  0
  -29.9903  -21.7979   20.4035 H   0  0  0  0  0  0
  -27.4247  -19.2545   22.2277 H   0  0  0  0  0  0
  -26.8685  -20.8264   21.7778 H   0  0  0  0  0  0
  1 25  1  0  0  0
  1 30  2  0  0  0
  1 82  1  0  0  0
  2  3  1  0  0  0
  2 25  1  0  0  0
  2 86  1  0  0  0
  2 87  1  0  0  0
  3  4  1  0  0  0
  3 88  1  0  0  0
  3 89  1  0  0  0
  4  5  1  0  0  0
  4 90  1  0  0  0
  4 91  1  0  0  0
  5  6  1  0  0  0
  5 26  1  0  0  0
  5 92  1  0  0  0
  6 25  1  0  0  0
  6 93  1  0  0  0
  6 94  1  0  0  0
  7  8  2  0  0  0
  7 26  1  0  0  0
  7 29  1  0  0  0
  8  9  1  0  0  0
  8 22  1  0  0  0
  9 10  1  0  0  0
  9 27  2  0  0  0
 10 11  2  0  0  0
 10 15  1  0  0  0
 11 12  1  0  0  0
 11 95  1  0  0  0
 12 13  2  0  0  0
 12 96  1  0  0  0
 13 14  1  0  0  0
 13 31  1  0  0  0
 14 15  2  0  0  0
 14 97  1  0  0  0
 15 98  1  0  0  0
 16 17  2  0  0  0
 16 21  1  0  0  0
 16 31  1  0  0  0
 17 18  1  0  0  0
 17 99  1  0  0  0
 18 19  2  0  0  0
 18100  1  0  0  0
 19 20  1  0  0  0
 19 24  1  0  0  0
 20 21  2  0  0  0
 20101  1  0  0  0
 21 23  1  0  0  0
 22 28  1  0  0  0
 22 32  2  0  0  0
 26 27  1  0  0  0
 28102  1  0  0  0
 28103  1  0  0  0
 29104  1  0  0  0
 29105  1  0  0  0
 33 34  1  0  0  0
 33 66  1  0  0  0
 33 70  2  0  0  0
 34 36  1  0  0  0
 34 59  1  0  0  0
 34106  1  0  0  0
 35 44  2  0  0  0
 35 45  1  0  0  0
 35 68  1  0  0  0
 36 56  1  0  0  0
 36107  1  0  0  0
 37 39  1  0  0  0
 37 47  1  0  0  0
 37 66  1  0  0  0
 37108  1  0  0  0
 38 43  2  0  0  0
 38 46  1  0  0  0
 38 47  1  0  0  0
 39 64  1  0  0  0
 39 67  2  0  0  0
 40 52  1  0  0  0
 40 53  2  0  0  0
 40 58  1  0  0  0
 41109  1  0  0  0
 41110  1  0  0  0
 41111  1  0  0  0
 41 48  1  0  0  0
 42 43  1  0  0  0
 42 66  1  0  0  0
 42112  1  0  0  0
 42113  1  0  0  0
 43 44  1  0  0  0
 44114  1  0  0  0
 45 46  2  0  0  0
 45115  1  0  0  0
 46116  1  0  0  0
 47117  1  0  0  0
 47118  1  0  0  0
 48 56  1  0  0  0
 48 65  1  0  0  0
 48119  1  0  0  0
 49 50  1  0  0  0
 49 53  1  0  0  0
 49 64  1  0  0  0
 49120  1  0  0  0
 50 51  1  0  0  0
 50121  1  0  0  0
 50122  1  0  0  0
 51 52  1  0  0  0
 51123  1  0  0  0
 51124  1  0  0  0
 52125  1  0  0  0
 52126  1  0  0  0
 53 54  1  0  0  0
 54 55  2  0  0  0
 54127  1  0  0  0
 55 57  1  0  0  0
 55128  1  0  0  0
 56 69  2  0  0  0
 57 58  2  0  0  0
 57129  1  0  0  0
 58130  1  0  0  0
 59 60  1  0  0  0
 59 61  1  0  0  0
 59 62  1  0  0  0
 60131  1  0  0  0
 60132  1  0  0  0
 60133  1  0  0  0
 61134  1  0  0  0
 61135  1  0  0  0
 61136  1  0  0  0
 62137  1  0  0  0
 62138  1  0  0  0
 62139  1  0  0  0
 63 65  1  0  0  0
 63140  1  0  0  0
 63141  1  0  0  0
 63142  1  0  0  0
 64143  1  0  0  0
 65144  1  0  0  0
 68 80  1  0  0  0
 71 74  2  0  0  0
 71 75  1  0  0  0
 71145  1  0  0  0
 72 74  1  0  0  0
 72 76  2  0  0  0
 72146  1  0  0  0
 73 75  2  0  0  0
 73 76  1  0  0  0
 73147  1  0  0  0
 74 77  1  0  0  0
 75 81  1  0  0  0
 76 82  1  0  0  0
 77 83  1  0  0  0
 77 84  2  0  0  0
 78 79  1  0  0  0
 78 80  1  0  0  0
 78 85  2  0  0  0
 79 83  1  0  0  0
 79148  1  0  0  0
 79149  1  0  0  0
 80150  1  0  0  0
 80151  1  0  0  0
 81152  1  0  0  0
 81153  1  0  0  0
 82154  1  0  0  0
 83155  1  0  0  0
 84156  1  0  0  0
 84157  1  0  0  0
M  CHG  1  84   1
M  ISO  4   1 100  68 101  80 101  82 100
M  END
> <chiral flag>
0

> <version>
0

> <s_m_source_file>
/data/baiqing/PycharmProjects/Reinvent-master-3.2/result/LINK_invent/BTK/process_docking_weight1_custom_product_contain_oxygen_bond_distance_aromatic_linkinvent_7_9_3/rearranged_h_0162.sdf

> <i_m_source_file_index>
59

> <r_mmod_Potential_Energy-OPLS-2005>
-331.592437744141

> <r_mmod_Stretch_Energy-OPLS-2005>
42.4529190063477

> <r_mmod_Bend_Energy-OPLS-2005>
96.9526748657227

> <r_mmod_Torsional_Energy-OPLS-2005>
238.172378540039

> <r_mmod_Improper_Torsional_Energy-OPLS-2005>
7.41415309906006

> <r_mmod_Van_der_Waal_Energy-OPLS-2005>
155.11833190918

> <r_mmod_Electrostatic_Energy-OPLS-2005>
-423.512237548828

> <r_mmod_Solvation_Energy-OPLS-2005>
-464.858367919922

> <b_mmod_Minimization_Converged-OPLS-2005>
0

> <r_mmod_RMS_Derivative-OPLS-2005>
0.575897097587585

$$$$
59
                    3D
 Structure written by MMmdl.
153161  0  0  1  0            999 V2000
  -30.6488  -14.5834   20.5294 C   0  0  0  0  0  0
  -30.4353  -12.3693   19.4286 C   0  0  0  0  0  0
  -29.4990  -12.5023   18.2084 C   0  0  0  0  0  0
  -28.0224  -12.3445   18.6263 C   0  0  0  0  0  0
  -27.6534  -13.2097   19.8609 C   0  0  2  0  0  0
  -28.7001  -13.0435   20.9842 C   0  0  0  0  0  0
  -25.2565  -13.8151   20.5664 C   0  0  0  0  0  0
  -24.1831  -13.0425   20.9190 C   0  0  0  0  0  0
  -24.6387  -11.6892   20.8740 C   0  0  0  0  0  0
  -23.9053  -10.4280   21.0406 C   0  0  0  0  0  0
  -24.3610   -9.4201   21.9184 C   0  0  0  0  0  0
  -23.6284   -8.2239   22.0756 C   0  0  0  0  0  0
  -22.4269   -8.0273   21.3546 C   0  0  0  0  0  0
  -21.9900   -9.0248   20.4650 C   0  0  0  0  0  0
  -22.7228  -10.2124   20.3054 C   0  0  0  0  0  0
  -21.6851   -6.0724   22.5278 C   0  0  0  0  0  0
  -21.4014   -6.5636   23.8209 C   0  0  0  0  0  0
  -21.3660   -5.6793   24.9174 C   0  0  0  0  0  0
  -21.6039   -4.3053   24.7229 C   0  0  0  0  0  0
  -21.8822   -3.8141   23.4353 C   0  0  0  0  0  0
  -21.9194   -4.6952   22.3405 C   0  0  0  0  0  0
  -22.7852  -13.5223   21.1852 C   0  0  0  0  0  0
  -22.1662   -4.2136   21.0982 F   0  0  0  0  0  0
  -21.5630   -3.4539   25.7744 F   0  0  0  0  0  0
  -30.0150  -13.3794   20.4151 N   0  0  0  0  0  0
  -26.2988  -12.9320   20.3311 N   0  0  0  0  0  0
  -25.9315  -11.6480   20.5759 N   0  0  0  0  0  0
  -22.0499  -12.8216   22.0413 N   0  0  0  0  0  0
  -25.4272  -15.1861   20.4054 N   0  0  0  0  0  0
  -31.8143  -14.7500   20.1609 O   0  0  0  0  0  0
  -21.6637   -6.8865   21.4238 O   0  0  0  0  0  0
  -22.3542  -14.5536   20.6703 O   0  0  0  0  0  0
  -24.6204  -31.8630   23.2042 C   0  0  0  0  0  0
  -25.9075  -32.4788   23.8358 C   0  0  1  0  0  0
  -27.2334  -27.3703   20.1154 C   0  0  0  0  0  0
  -25.5929  -33.8595   24.2297 N   0  0  0  0  0  0
  -23.4114  -30.4842   21.5459 C   0  0  2  0  0  0
  -24.8590  -28.9353   20.1189 C   0  0  0  0  0  0
  -22.7436  -29.4648   22.4979 C   0  0  0  0  0  0
  -18.0278  -28.1376   22.8496 C   0  0  0  0  0  0
  -24.1498  -36.7305   23.2641 C   0  0  0  0  0  0
  -25.9458  -30.8089   21.3649 C   0  0  0  0  0  0
  -26.0233  -29.4362   20.7153 C   0  0  0  0  0  0
  -27.2151  -28.6653   20.7027 C   0  0  0  0  0  0
  -26.0492  -26.8949   19.5153 C   0  0  0  0  0  0
  -24.8700  -27.6670   19.5135 C   0  0  0  0  0  0
  -23.6232  -29.8098   20.1638 C   0  0  0  0  0  0
  -25.4119  -36.3104   24.0329 C   0  0  1  0  0  0
  -20.5874  -28.3671   23.1312 C   0  0  2  0  0  0
  -20.6773  -26.9401   22.5415 C   0  0  0  0  0  0
  -19.5750  -26.6381   21.5225 C   0  0  0  0  0  0
  -18.1928  -26.7924   22.1625 C   0  0  0  0  0  0
  -19.1528  -28.8839   23.2898 C   0  0  0  0  0  0
  -18.9458  -30.1445   23.8903 C   0  0  0  0  0  0
  -17.6461  -30.6582   24.0563 C   0  0  0  0  0  0
  -25.9048  -34.9464   23.5112 C   0  0  0  0  0  0
  -16.5350  -29.9080   23.6330 C   0  0  0  0  0  0
  -16.7265  -28.6498   23.0353 C   0  0  0  0  0  0
  -26.4483  -31.6581   25.0700 C   0  0  0  0  0  0
  -25.3741  -31.3693   26.1438 C   0  0  0  0  0  0
  -27.0307  -30.3022   24.6097 C   0  0  0  0  0  0
  -27.6054  -32.4301   25.7465 C   0  0  0  0  0  0
  -27.5575  -37.1809   24.8466 C   0  0  0  0  0  0
  -21.4157  -29.3039   22.3717 N   0  0  0  0  0  0
  -26.4299  -37.3792   23.9399 N   0  0  0  0  0  0
  -24.6778  -31.0678   22.0967 N   0  0  0  0  0  0
  -23.4181  -28.8198   23.3046 O   0  0  0  0  0  0
  -28.3809  -26.5914   20.0712 O   0  0  0  0  0  0
  -26.5618  -34.8929   22.4679 O   0  0  0  0  0  0
  -23.5385  -32.1412   23.7408 O   0  0  0  0  0  0
  -30.4400  -18.0248   18.9559 C   0  0  0  0  0  0
  -29.6543  -20.2846   18.5310 C   0  0  0  0  0  0
  -30.2794  -19.1086   18.0785 C   0  0  0  0  0  0
  -29.9925  -18.1537   20.2807 C   0  0  0  0  0  0
  -29.2036  -20.3507   19.8574 C   0  0  0  0  0  0
  -28.4201  -24.0237   19.9882 C   0  0  0  0  0  0
  -30.2690  -17.0116   21.2908 C   0  0  0  0  0  0
  -29.1446  -22.7570   20.5570 C   0  0  0  0  0  0
  -28.3779  -25.3427   20.8325 C   0  0  0  0  0  0
  -29.3862  -19.3070   20.7205 N   0  0  0  0  0  0
  -28.4543  -21.4736   20.2795 N   0  0  0  0  0  0
  -29.8731  -15.6232   20.9280 N   0  0  0  0  0  0
  -27.8509  -23.9498   18.8936 O   0  0  0  0  0  0
  -30.7198  -19.0205   16.8006 F   0  0  0  0  0  0
  -31.4756  -12.4965   19.1228 H   0  0  0  0  0  0
  -30.3690  -11.3691   19.8595 H   0  0  0  0  0  0
  -29.7545  -11.7569   17.4540 H   0  0  0  0  0  0
  -29.6446  -13.4753   17.7368 H   0  0  0  0  0  0
  -27.8553  -11.2909   18.8529 H   0  0  0  0  0  0
  -27.3653  -12.5822   17.7887 H   0  0  0  0  0  0
  -27.6788  -14.2478   19.5300 H   0  0  0  0  0  0
  -28.7072  -12.0167   21.3537 H   0  0  0  0  0  0
  -28.4548  -13.6655   21.8468 H   0  0  0  0  0  0
  -25.2753   -9.5677   22.4763 H   0  0  0  0  0  0
  -23.9992   -7.4627   22.7472 H   0  0  0  0  0  0
  -21.0831   -8.8759   19.8959 H   0  0  0  0  0  0
  -22.3680  -10.9660   19.6167 H   0  0  0  0  0  0
  -21.2008   -7.6145   23.9706 H   0  0  0  0  0  0
  -21.1478   -6.0524   25.9072 H   0  0  0  0  0  0
  -22.0601   -2.7601   23.2858 H   0  0  0  0  0  0
  -22.4116  -11.9870   22.4787 H   0  0  0  0  0  0
  -21.1120  -13.1244   22.2628 H   0  0  0  0  0  0
  -24.6565  -15.8377   20.5054 H   0  0  0  0  0  0
  -26.2677  -15.6241   20.0510 H   0  0  0  0  0  0
  -26.7126  -32.5473   23.1095 H   0  0  0  0  0  0
  -25.0084  -33.9763   25.0447 H   0  0  0  0  0  0
  -22.7043  -31.3037   21.4002 H   0  0  0  0  0  0
  -23.3759  -35.9643   23.3334 H   0  0  0  0  0  0
  -24.3589  -36.8895   22.2052 H   0  0  0  0  0  0
  -23.7253  -37.6517   23.6637 H   0  0  0  0  0  0
  -26.0660  -31.5697   20.5924 H   0  0  0  0  0  0
  -26.8313  -30.8639   21.9868 H   0  0  0  0  0  0
  -28.1164  -29.0544   21.1548 H   0  0  0  0  0  0
  -26.0386  -25.9244   19.0403 H   0  0  0  0  0  0
  -23.9760  -27.2759   19.0485 H   0  0  0  0  0  0
  -23.7353  -30.5819   19.4020 H   0  0  0  0  0  0
  -22.7461  -29.2325   19.8668 H   0  0  0  0  0  0
  -25.1300  -36.1965   25.0821 H   0  0  0  0  0  0
  -20.9956  -28.3223   24.1438 H   0  0  0  0  0  0
  -20.5700  -26.2274   23.3610 H   0  0  0  0  0  0
  -21.6638  -26.7453   22.1196 H   0  0  0  0  0  0
  -19.6922  -25.6297   21.1239 H   0  0  0  0  0  0
  -19.6687  -27.3205   20.6768 H   0  0  0  0  0  0
  -17.4206  -26.6685   21.4026 H   0  0  0  0  0  0
  -18.0310  -26.0053   22.9012 H   0  0  0  0  0  0
  -19.7934  -30.7256   24.2275 H   0  0  0  0  0  0
  -17.5018  -31.6272   24.5154 H   0  0  0  0  0  0
  -15.5357  -30.2986   23.7653 H   0  0  0  0  0  0
  -15.8666  -28.0817   22.7070 H   0  0  0  0  0  0
  -24.5921  -30.7036   25.7771 H   0  0  0  0  0  0
  -24.8926  -32.2850   26.4881 H   0  0  0  0  0  0
  -25.8086  -30.8858   27.0194 H   0  0  0  0  0  0
  -26.2842  -29.6794   24.1160 H   0  0  0  0  0  0
  -27.4076  -29.7251   25.4550 H   0  0  0  0  0  0
  -27.8682  -30.4341   23.9246 H   0  0  0  0  0  0
  -27.2669  -33.3602   26.2048 H   0  0  0  0  0  0
  -28.3857  -32.6864   25.0285 H   0  0  0  0  0  0
  -28.0729  -31.8422   26.5377 H   0  0  0  0  0  0
  -28.2607  -38.0095   24.7498 H   0  0  0  0  0  0
  -28.1053  -36.2622   24.6308 H   0  0  0  0  0  0
  -27.2288  -37.1471   25.8871 H   0  0  0  0  0  0
  -20.9332  -29.8746   21.6916 H   0  0  0  0  0  0
  -26.0188  -38.2872   24.1394 H   0  0  0  0  0  0
  -30.9309  -17.1221   18.6220 H   0  0  0  0  0  0
  -29.5089  -21.1064   17.8442 H   0  0  0  0  0  0
  -29.7616  -17.2534   22.2256 H   0  0  0  0  0  0
  -31.3344  -17.0307   21.5257 H   0  0  0  0  0  0
  -29.2534  -22.8710   21.6357 H   0  0  0  0  0  0
  -30.1528  -22.7327   20.1414 H   0  0  0  0  0  0
  -29.2512  -25.3500   21.4838 H   0  0  0  0  0  0
  -27.5076  -25.3067   21.4881 H   0  0  0  0  0  0
  -27.7647  -21.7079   19.5696 H   0  0  0  0  0  0
  -28.9088  -15.3965   21.1107 H   0  0  0  0  0  0
  1 25  1  0  0  0
  1 30  2  0  0  0
  1 82  1  0  0  0
  2  3  1  0  0  0
  2 25  1  0  0  0
  2 85  1  0  0  0
  2 86  1  0  0  0
  3  4  1  0  0  0
  3 87  1  0  0  0
  3 88  1  0  0  0
  4  5  1  0  0  0
  4 89  1  0  0  0
  4 90  1  0  0  0
  5  6  1  0  0  0
  5 26  1  0  0  0
  5 91  1  0  0  0
  6 25  1  0  0  0
  6 92  1  0  0  0
  6 93  1  0  0  0
  7  8  2  0  0  0
  7 26  1  0  0  0
  7 29  1  0  0  0
  8  9  1  0  0  0
  8 22  1  0  0  0
  9 10  1  0  0  0
  9 27  2  0  0  0
 10 11  2  0  0  0
 10 15  1  0  0  0
 11 12  1  0  0  0
 11 94  1  0  0  0
 12 13  2  0  0  0
 12 95  1  0  0  0
 13 14  1  0  0  0
 13 31  1  0  0  0
 14 15  2  0  0  0
 14 96  1  0  0  0
 15 97  1  0  0  0
 16 17  2  0  0  0
 16 21  1  0  0  0
 16 31  1  0  0  0
 17 18  1  0  0  0
 17 98  1  0  0  0
 18 19  2  0  0  0
 18 99  1  0  0  0
 19 20  1  0  0  0
 19 24  1  0  0  0
 20 21  2  0  0  0
 20100  1  0  0  0
 21 23  1  0  0  0
 22 28  1  0  0  0
 22 32  2  0  0  0
 26 27  1  0  0  0
 28101  1  0  0  0
 28102  1  0  0  0
 29103  1  0  0  0
 29104  1  0  0  0
 33 34  1  0  0  0
 33 66  1  0  0  0
 33 70  2  0  0  0
 34 36  1  0  0  0
 34 59  1  0  0  0
 34105  1  0  0  0
 35 44  2  0  0  0
 35 45  1  0  0  0
 35 68  1  0  0  0
 36 56  1  0  0  0
 36106  1  0  0  0
 37 39  1  0  0  0
 37 47  1  0  0  0
 37 66  1  0  0  0
 37107  1  0  0  0
 38 43  2  0  0  0
 38 46  1  0  0  0
 38 47  1  0  0  0
 39 64  1  0  0  0
 39 67  2  0  0  0
 40 52  1  0  0  0
 40 53  2  0  0  0
 40 58  1  0  0  0
 41108  1  0  0  0
 41109  1  0  0  0
 41110  1  0  0  0
 41 48  1  0  0  0
 42 43  1  0  0  0
 42 66  1  0  0  0
 42111  1  0  0  0
 42112  1  0  0  0
 43 44  1  0  0  0
 44113  1  0  0  0
 45 46  2  0  0  0
 45114  1  0  0  0
 46115  1  0  0  0
 47116  1  0  0  0
 47117  1  0  0  0
 48 56  1  0  0  0
 48 65  1  0  0  0
 48118  1  0  0  0
 49 50  1  0  0  0
 49 53  1  0  0  0
 49 64  1  0  0  0
 49119  1  0  0  0
 50 51  1  0  0  0
 50120  1  0  0  0
 50121  1  0  0  0
 51 52  1  0  0  0
 51122  1  0  0  0
 51123  1  0  0  0
 52124  1  0  0  0
 52125  1  0  0  0
 53 54  1  0  0  0
 54 55  2  0  0  0
 54126  1  0  0  0
 55 57  1  0  0  0
 55127  1  0  0  0
 56 69  2  0  0  0
 57 58  2  0  0  0
 57128  1  0  0  0
 58129  1  0  0  0
 59 60  1  0  0  0
 59 61  1  0  0  0
 59 62  1  0  0  0
 60130  1  0  0  0
 60131  1  0  0  0
 60132  1  0  0  0
 61133  1  0  0  0
 61134  1  0  0  0
 61135  1  0  0  0
 62136  1  0  0  0
 62137  1  0  0  0
 62138  1  0  0  0
 63 65  1  0  0  0
 63139  1  0  0  0
 63140  1  0  0  0
 63141  1  0  0  0
 64142  1  0  0  0
 65143  1  0  0  0
 68 79  1  0  0  0
 71 73  2  0  0  0
 71 74  1  0  0  0
 71144  1  0  0  0
 72 73  1  0  0  0
 72 75  2  0  0  0
 72145  1  0  0  0
 73 84  1  0  0  0
 74 77  1  0  0  0
 74 80  2  0  0  0
 75 80  1  0  0  0
 75 81  1  0  0  0
 76 78  1  0  0  0
 76 79  1  0  0  0
 76 83  2  0  0  0
 77 82  1  0  0  0
 77146  1  0  0  0
 77147  1  0  0  0
 78 81  1  0  0  0
 78148  1  0  0  0
 78149  1  0  0  0
 79150  1  0  0  0
 79151  1  0  0  0
 81152  1  0  0  0
 82153  1  0  0  0
M  ISO  4   1 100  68 101  79 101  82 100
M  END
> <chiral flag>
0

> <version>
0

> <s_m_source_file>
/data/baiqing/PycharmProjects/Reinvent-master-3.2/result/LINK_invent/BTK/process_docking_weight1_custom_product_contain_oxygen_bond_distance_aromatic_linkinvent_7_9_3/rearranged_h_0162.sdf

> <i_m_source_file_index>
60

> <r_mmod_Potential_Energy-OPLS-2005>
-405.419342041016

> <r_mmod_Stretch_Energy-OPLS-2005>
54.0475006103516

> <r_mmod_Bend_Energy-OPLS-2005>
114.127380371094

> <r_mmod_Torsional_Energy-OPLS-2005>
247.85905456543

> <r_mmod_Improper_Torsional_Energy-OPLS-2005>
10.389949798584

> <r_mmod_Van_der_Waal_Energy-OPLS-2005>
137.271148681641

> <r_mmod_Electrostatic_Energy-OPLS-2005>
-753.40576171875

> <r_mmod_Solvation_Energy-OPLS-2005>
-245.064346313477

> <b_mmod_Minimization_Converged-OPLS-2005>
0

> <r_mmod_RMS_Derivative-OPLS-2005>
1.54808819293976

$$$$
60
                    3D
 Structure written by MMmdl.
153161  0  0  1  0            999 V2000
  -30.6690  -14.5720   20.4559 C   0  0  0  0  0  0
  -30.4192  -12.3385   19.4596 C   0  0  0  0  0  0
  -29.5045  -12.4806   18.2246 C   0  0  0  0  0  0
  -28.0246  -12.3409   18.6334 C   0  0  0  0  0  0
  -27.6511  -13.2182   19.8593 C   0  0  2  0  0  0
  -28.6922  -13.0875   20.9937 C   0  0  0  0  0  0
  -25.2555  -13.8180   20.5697 C   0  0  0  0  0  0
  -24.1820  -13.0442   20.9194 C   0  0  0  0  0  0
  -24.6383  -11.6911   20.8744 C   0  0  0  0  0  0
  -23.9047  -10.4290   21.0397 C   0  0  0  0  0  0
  -24.3596   -9.4206   21.9179 C   0  0  0  0  0  0
  -23.6284   -8.2229   22.0748 C   0  0  0  0  0  0
  -22.4265   -8.0270   21.3541 C   0  0  0  0  0  0
  -21.9893   -9.0236   20.4641 C   0  0  0  0  0  0
  -22.7213  -10.2122   20.3046 C   0  0  0  0  0  0
  -21.6844   -6.0729   22.5283 C   0  0  0  0  0  0
  -21.4009   -6.5636   23.8216 C   0  0  0  0  0  0
  -21.3658   -5.6790   24.9179 C   0  0  0  0  0  0
  -21.6047   -4.3051   24.7231 C   0  0  0  0  0  0
  -21.8818   -3.8139   23.4351 C   0  0  0  0  0  0
  -21.9185   -4.6956   22.3409 C   0  0  0  0  0  0
  -22.7841  -13.5232   21.1862 C   0  0  0  0  0  0
  -22.1647   -4.2140   21.0987 F   0  0  0  0  0  0
  -21.5631   -3.4537   25.7744 F   0  0  0  0  0  0
  -30.0138  -13.3769   20.4239 N   0  0  0  0  0  0
  -26.2978  -12.9360   20.3302 N   0  0  0  0  0  0
  -25.9311  -11.6514   20.5754 N   0  0  0  0  0  0
  -22.0466  -12.8238   22.0417 N   0  0  0  0  0  0
  -25.4258  -15.1898   20.4128 N   0  0  0  0  0  0
  -31.8658  -14.6526   20.1652 O   0  0  0  0  0  0
  -21.6628   -6.8871   21.4246 O   0  0  0  0  0  0
  -22.3538  -14.5540   20.6701 O   0  0  0  0  0  0
  -24.6203  -31.8637   23.2050 C   0  0  0  0  0  0
  -25.9078  -32.4791   23.8366 C   0  0  1  0  0  0
  -27.2333  -27.3823   20.0921 C   0  0  0  0  0  0
  -25.5920  -33.8590   24.2296 N   0  0  0  0  0  0
  -23.4099  -30.4858   21.5468 C   0  0  2  0  0  0
  -24.8542  -28.9446   20.1113 C   0  0  0  0  0  0
  -22.7441  -29.4634   22.4966 C   0  0  0  0  0  0
  -18.0276  -28.1380   22.8496 C   0  0  0  0  0  0
  -24.1491  -36.7303   23.2638 C   0  0  0  0  0  0
  -25.9437  -30.8119   21.3649 C   0  0  0  0  0  0
  -26.0173  -29.4422   20.7106 C   0  0  0  0  0  0
  -27.2050  -28.6667   20.7001 C   0  0  0  0  0  0
  -26.0403  -26.9052   19.5017 C   0  0  0  0  0  0
  -24.8630  -27.6778   19.5048 C   0  0  0  0  0  0
  -23.6195  -29.8176   20.1616 C   0  0  0  0  0  0
  -25.4111  -36.3089   24.0333 C   0  0  1  0  0  0
  -20.5873  -28.3667   23.1313 C   0  0  2  0  0  0
  -20.6764  -26.9400   22.5417 C   0  0  0  0  0  0
  -19.5743  -26.6388   21.5214 C   0  0  0  0  0  0
  -18.1920  -26.7929   22.1624 C   0  0  0  0  0  0
  -19.1528  -28.8842   23.2902 C   0  0  0  0  0  0
  -18.9449  -30.1443   23.8912 C   0  0  0  0  0  0
  -17.6449  -30.6583   24.0562 C   0  0  0  0  0  0
  -25.9047  -34.9455   23.5110 C   0  0  0  0  0  0
  -16.5341  -29.9080   23.6325 C   0  0  0  0  0  0
  -16.7264  -28.6499   23.0349 C   0  0  0  0  0  0
  -26.4489  -31.6591   25.0718 C   0  0  0  0  0  0
  -25.3753  -31.3709   26.1471 C   0  0  0  0  0  0
  -27.0306  -30.3024   24.6116 C   0  0  0  0  0  0
  -27.6071  -32.4314   25.7477 C   0  0  0  0  0  0
  -27.5582  -37.1799   24.8460 C   0  0  0  0  0  0
  -21.4162  -29.3031   22.3718 N   0  0  0  0  0  0
  -26.4290  -37.3781   23.9413 N   0  0  0  0  0  0
  -24.6763  -31.0699   22.0965 N   0  0  0  0  0  0
  -23.4197  -28.8186   23.3029 O   0  0  0  0  0  0
  -28.4030  -26.6307   20.1287 O   0  0  0  0  0  0
  -26.5610  -34.8919   22.4671 O   0  0  0  0  0  0
  -23.5384  -32.1405   23.7417 O   0  0  0  0  0  0
  -29.4695  -18.2346   20.2186 C   0  0  0  0  0  0
  -30.9099  -17.0637   18.7844 C   0  0  0  0  0  0
  -30.1113  -16.9661   19.8968 C   0  0  0  0  0  0
  -29.8059  -19.2654   19.3393 C   0  0  0  0  0  0
  -28.9389  -22.8917   19.2874 C   0  0  0  0  0  0
  -28.5974  -24.0655   19.9172 C   0  0  0  0  0  0
  -28.9704  -21.5635   19.9775 C   0  0  0  0  0  0
  -29.3188  -22.9102   17.8007 C   0  0  0  0  0  0
  -28.5919  -25.4781   19.2615 C   0  0  0  0  0  0
  -29.9060  -15.6987   20.5847 N   0  0  0  0  0  0
  -29.4547  -20.5834   19.1784 N   0  0  0  0  0  0
  -28.6060  -21.3532   21.1376 O   0  0  0  0  0  0
  -28.2383  -24.1520   21.2089 O   0  0  0  0  0  0
  -30.9029  -18.6629   18.1199 S   0  0  0  0  0  0
  -31.4673  -12.4247   19.1670 H   0  0  0  0  0  0
  -30.3154  -11.3481   19.9060 H   0  0  0  0  0  0
  -29.7596  -11.7232   17.4816 H   0  0  0  0  0  0
  -29.6689  -13.4467   17.7447 H   0  0  0  0  0  0
  -27.8505  -11.2897   18.8672 H   0  0  0  0  0  0
  -27.3738  -12.5757   17.7901 H   0  0  0  0  0  0
  -27.6677  -14.2508   19.5102 H   0  0  0  0  0  0
  -28.6808  -12.0815   21.4159 H   0  0  0  0  0  0
  -28.4570  -13.7647   21.8163 H   0  0  0  0  0  0
  -25.2733   -9.5695   22.4760 H   0  0  0  0  0  0
  -23.9990   -7.4628   22.7479 H   0  0  0  0  0  0
  -21.0809   -8.8742   19.8971 H   0  0  0  0  0  0
  -22.3652  -10.9650   19.6153 H   0  0  0  0  0  0
  -21.2000   -7.6147   23.9717 H   0  0  0  0  0  0
  -21.1488   -6.0524   25.9087 H   0  0  0  0  0  0
  -22.0601   -2.7601   23.2852 H   0  0  0  0  0  0
  -22.4051  -11.9892   22.4818 H   0  0  0  0  0  0
  -21.1088  -13.1286   22.2610 H   0  0  0  0  0  0
  -24.6537  -15.8384   20.5235 H   0  0  0  0  0  0
  -26.2754  -15.6362   20.0916 H   0  0  0  0  0  0
  -26.7146  -32.5476   23.1123 H   0  0  0  0  0  0
  -25.0077  -33.9750   25.0445 H   0  0  0  0  0  0
  -22.7002  -31.3033   21.4057 H   0  0  0  0  0  0
  -23.3751  -35.9636   23.3283 H   0  0  0  0  0  0
  -24.3592  -36.8938   22.2057 H   0  0  0  0  0  0
  -23.7243  -37.6501   23.6665 H   0  0  0  0  0  0
  -26.0647  -31.5755   20.5952 H   0  0  0  0  0  0
  -26.8295  -30.8627   21.9866 H   0  0  0  0  0  0
  -28.1020  -29.0472   21.1683 H   0  0  0  0  0  0
  -25.9834  -25.9227   19.0581 H   0  0  0  0  0  0
  -23.9654  -27.2831   19.0483 H   0  0  0  0  0  0
  -23.7327  -30.5911   19.4013 H   0  0  0  0  0  0
  -22.7419  -29.2404   19.8653 H   0  0  0  0  0  0
  -25.1291  -36.1931   25.0826 H   0  0  0  0  0  0
  -20.9970  -28.3224   24.1433 H   0  0  0  0  0  0
  -20.5660  -26.2270   23.3600 H   0  0  0  0  0  0
  -21.6632  -26.7432   22.1209 H   0  0  0  0  0  0
  -19.6897  -25.6300   21.1234 H   0  0  0  0  0  0
  -19.6688  -27.3207   20.6750 H   0  0  0  0  0  0
  -17.4194  -26.6681   21.4021 H   0  0  0  0  0  0
  -18.0316  -26.0066   22.9018 H   0  0  0  0  0  0
  -19.7921  -30.7255   24.2294 H   0  0  0  0  0  0
  -17.5000  -31.6263   24.5162 H   0  0  0  0  0  0
  -15.5339  -30.2984   23.7642 H   0  0  0  0  0  0
  -15.8665  -28.0819   22.7055 H   0  0  0  0  0  0
  -24.5893  -30.7103   25.7797 H   0  0  0  0  0  0
  -24.8993  -32.2872   26.4975 H   0  0  0  0  0  0
  -25.8107  -30.8819   27.0195 H   0  0  0  0  0  0
  -26.2835  -29.6792   24.1188 H   0  0  0  0  0  0
  -27.4070  -29.7265   25.4579 H   0  0  0  0  0  0
  -27.8684  -30.4321   23.9264 H   0  0  0  0  0  0
  -27.2696  -33.3606   26.2078 H   0  0  0  0  0  0
  -28.3870  -32.6884   25.0300 H   0  0  0  0  0  0
  -28.0754  -31.8425   26.5374 H   0  0  0  0  0  0
  -28.2586  -38.0108   24.7516 H   0  0  0  0  0  0
  -28.1089  -36.2639   24.6265 H   0  0  0  0  0  0
  -27.2304  -37.1422   25.8863 H   0  0  0  0  0  0
  -20.9320  -29.8759   21.6949 H   0  0  0  0  0  0
  -26.0167  -38.2851   24.1423 H   0  0  0  0  0  0
  -28.7886  -18.3412   21.0521 H   0  0  0  0  0  0
  -31.5031  -16.3031   18.2911 H   0  0  0  0  0  0
  -29.2658  -23.8962   17.3442 H   0  0  0  0  0  0
  -28.6451  -22.2711   17.2277 H   0  0  0  0  0  0
  -30.3404  -22.5574   17.6530 H   0  0  0  0  0  0
  -27.9381  -25.4886   18.3912 H   0  0  0  0  0  0
  -29.5902  -25.6183   18.8452 H   0  0  0  0  0  0
  -28.9985  -15.5644   21.0059 H   0  0  0  0  0  0
  -29.7177  -20.9611   18.2783 H   0  0  0  0  0  0
  -28.2541  -23.2686   21.5665 H   0  0  0  0  0  0
  1 25  1  0  0  0
  1 30  2  0  0  0
  1 80  1  0  0  0
  2  3  1  0  0  0
  2 25  1  0  0  0
  2 85  1  0  0  0
  2 86  1  0  0  0
  3  4  1  0  0  0
  3 87  1  0  0  0
  3 88  1  0  0  0
  4  5  1  0  0  0
  4 89  1  0  0  0
  4 90  1  0  0  0
  5  6  1  0  0  0
  5 26  1  0  0  0
  5 91  1  0  0  0
  6 25  1  0  0  0
  6 92  1  0  0  0
  6 93  1  0  0  0
  7  8  2  0  0  0
  7 26  1  0  0  0
  7 29  1  0  0  0
  8  9  1  0  0  0
  8 22  1  0  0  0
  9 10  1  0  0  0
  9 27  2  0  0  0
 10 11  2  0  0  0
 10 15  1  0  0  0
 11 12  1  0  0  0
 11 94  1  0  0  0
 12 13  2  0  0  0
 12 95  1  0  0  0
 13 14  1  0  0  0
 13 31  1  0  0  0
 14 15  2  0  0  0
 14 96  1  0  0  0
 15 97  1  0  0  0
 16 17  2  0  0  0
 16 21  1  0  0  0
 16 31  1  0  0  0
 17 18  1  0  0  0
 17 98  1  0  0  0
 18 19  2  0  0  0
 18 99  1  0  0  0
 19 20  1  0  0  0
 19 24  1  0  0  0
 20 21  2  0  0  0
 20100  1  0  0  0
 21 23  1  0  0  0
 22 28  1  0  0  0
 22 32  2  0  0  0
 26 27  1  0  0  0
 28101  1  0  0  0
 28102  1  0  0  0
 29103  1  0  0  0
 29104  1  0  0  0
 33 34  1  0  0  0
 33 66  1  0  0  0
 33 70  2  0  0  0
 34 36  1  0  0  0
 34 59  1  0  0  0
 34105  1  0  0  0
 35 44  2  0  0  0
 35 45  1  0  0  0
 35 68  1  0  0  0
 36 56  1  0  0  0
 36106  1  0  0  0
 37 39  1  0  0  0
 37 47  1  0  0  0
 37 66  1  0  0  0
 37107  1  0  0  0
 38 43  2  0  0  0
 38 46  1  0  0  0
 38 47  1  0  0  0
 39 64  1  0  0  0
 39 67  2  0  0  0
 40 52  1  0  0  0
 40 53  2  0  0  0
 40 58  1  0  0  0
 41108  1  0  0  0
 41109  1  0  0  0
 41110  1  0  0  0
 41 48  1  0  0  0
 42 43  1  0  0  0
 42 66  1  0  0  0
 42111  1  0  0  0
 42112  1  0  0  0
 43 44  1  0  0  0
 44113  1  0  0  0
 45 46  2  0  0  0
 45114  1  0  0  0
 46115  1  0  0  0
 47116  1  0  0  0
 47117  1  0  0  0
 48 56  1  0  0  0
 48 65  1  0  0  0
 48118  1  0  0  0
 49 50  1  0  0  0
 49 53  1  0  0  0
 49 64  1  0  0  0
 49119  1  0  0  0
 50 51  1  0  0  0
 50120  1  0  0  0
 50121  1  0  0  0
 51 52  1  0  0  0
 51122  1  0  0  0
 51123  1  0  0  0
 52124  1  0  0  0
 52125  1  0  0  0
 53 54  1  0  0  0
 54 55  2  0  0  0
 54126  1  0  0  0
 55 57  1  0  0  0
 55127  1  0  0  0
 56 69  2  0  0  0
 57 58  2  0  0  0
 57128  1  0  0  0
 58129  1  0  0  0
 59 60  1  0  0  0
 59 61  1  0  0  0
 59 62  1  0  0  0
 60130  1  0  0  0
 60131  1  0  0  0
 60132  1  0  0  0
 61133  1  0  0  0
 61134  1  0  0  0
 61135  1  0  0  0
 62136  1  0  0  0
 62137  1  0  0  0
 62138  1  0  0  0
 63 65  1  0  0  0
 63139  1  0  0  0
 63140  1  0  0  0
 63141  1  0  0  0
 64142  1  0  0  0
 65143  1  0  0  0
 68 79  1  0  0  0
 71 73  1  0  0  0
 71 74  2  0  0  0
 71144  1  0  0  0
 72 73  2  0  0  0
 72 84  1  0  0  0
 72145  1  0  0  0
 73 80  1  0  0  0
 74 81  1  0  0  0
 74 84  1  0  0  0
 75 76  2  0  0  0
 75 77  1  0  0  0
 75 78  1  0  0  0
 76 79  1  0  0  0
 76 83  1  0  0  0
 77 81  1  0  0  0
 77 82  2  0  0  0
 78146  1  0  0  0
 78147  1  0  0  0
 78148  1  0  0  0
 79149  1  0  0  0
 79150  1  0  0  0
 80151  1  0  0  0
 81152  1  0  0  0
 83153  1  0  0  0
M  ISO  4   1 100  68 101  79 101  80 100
M  END
> <chiral flag>
0

> <version>
0

> <s_m_source_file>
/data/baiqing/PycharmProjects/Reinvent-master-3.2/result/LINK_invent/BTK/process_docking_weight1_custom_product_contain_oxygen_bond_distance_aromatic_linkinvent_7_9_3/rearranged_h_0162.sdf

> <i_m_source_file_index>
61

> <r_mmod_Potential_Energy-OPLS-2005>
25.6241130828857

> <r_mmod_Stretch_Energy-OPLS-2005>
58.7627906799316

> <r_mmod_Bend_Energy-OPLS-2005>
152.086791992188

> <r_mmod_Torsional_Energy-OPLS-2005>
230.773559570312

> <r_mmod_Improper_Torsional_Energy-OPLS-2005>
6.5477089881897

> <r_mmod_Van_der_Waal_Energy-OPLS-2005>
146.359848022461

> <r_mmod_Electrostatic_Energy-OPLS-2005>
-368.177947998047

> <r_mmod_Solvation_Energy-OPLS-2005>
-232.22705078125

> <b_mmod_Minimization_Converged-OPLS-2005>
0

> <r_mmod_RMS_Derivative-OPLS-2005>
1.32020747661591

$$$$
61
                    3D
 Structure written by MMmdl.
150158  0  0  1  0            999 V2000
  -30.6178  -14.6499   20.4974 C   0  0  0  0  0  0
  -30.4402  -12.3980   19.4568 C   0  0  0  0  0  0
  -29.5099  -12.5062   18.2275 C   0  0  0  0  0  0
  -28.0329  -12.3416   18.6388 C   0  0  0  0  0  0
  -27.6535  -13.2157   19.8636 C   0  0  2  0  0  0
  -28.6977  -13.0758   20.9947 C   0  0  0  0  0  0
  -25.2563  -13.8164   20.5683 C   0  0  0  0  0  0
  -24.1831  -13.0434   20.9197 C   0  0  0  0  0  0
  -24.6397  -11.6904   20.8743 C   0  0  0  0  0  0
  -23.9064  -10.4289   21.0407 C   0  0  0  0  0  0
  -24.3616   -9.4205   21.9184 C   0  0  0  0  0  0
  -23.6292   -8.2240   22.0753 C   0  0  0  0  0  0
  -22.4274   -8.0279   21.3544 C   0  0  0  0  0  0
  -21.9909   -9.0253   20.4646 C   0  0  0  0  0  0
  -22.7236  -10.2133   20.3056 C   0  0  0  0  0  0
  -21.6852   -6.0735   22.5280 C   0  0  0  0  0  0
  -21.4013   -6.5639   23.8213 C   0  0  0  0  0  0
  -21.3659   -5.6792   24.9174 C   0  0  0  0  0  0
  -21.6045   -4.3055   24.7225 C   0  0  0  0  0  0
  -21.8819   -3.8146   23.4346 C   0  0  0  0  0  0
  -21.9193   -4.6963   22.3402 C   0  0  0  0  0  0
  -22.7854  -13.5232   21.1860 C   0  0  0  0  0  0
  -22.1662   -4.2149   21.0980 F   0  0  0  0  0  0
  -21.5630   -3.4538   25.7737 F   0  0  0  0  0  0
  -30.0130  -13.4211   20.4327 N   0  0  0  0  0  0
  -26.2989  -12.9344   20.3313 N   0  0  0  0  0  0
  -25.9324  -11.6500   20.5757 N   0  0  0  0  0  0
  -22.0495  -12.8222   22.0414 N   0  0  0  0  0  0
  -25.4275  -15.1885   20.4078 N   0  0  0  0  0  0
  -31.7768  -14.8149   20.1080 O   0  0  0  0  0  0
  -21.6639   -6.8876   21.4240 O   0  0  0  0  0  0
  -22.3543  -14.5539   20.6708 O   0  0  0  0  0  0
  -24.6263  -31.8599   23.2032 C   0  0  0  0  0  0
  -25.9110  -32.4781   23.8360 C   0  0  1  0  0  0
  -27.2223  -27.3164   20.1214 C   0  0  0  0  0  0
  -25.5926  -33.8581   24.2286 N   0  0  0  0  0  0
  -23.4205  -30.4840   21.5456 C   0  0  2  0  0  0
  -24.8681  -28.9398   20.1122 C   0  0  0  0  0  0
  -22.7477  -29.4625   22.4936 C   0  0  0  0  0  0
  -18.0285  -28.1385   22.8490 C   0  0  0  0  0  0
  -24.1487  -36.7292   23.2638 C   0  0  0  0  0  0
  -25.9625  -30.7899   21.3759 C   0  0  0  0  0  0
  -26.0375  -29.4169   20.7186 C   0  0  0  0  0  0
  -27.2200  -28.6174   20.7135 C   0  0  0  0  0  0
  -26.0353  -26.9008   19.4771 C   0  0  0  0  0  0
  -24.8692  -27.6871   19.4817 C   0  0  0  0  0  0
  -23.6360  -29.8197   20.1609 C   0  0  0  0  0  0
  -25.4113  -36.3085   24.0329 C   0  0  1  0  0  0
  -20.5887  -28.3688   23.1283 C   0  0  2  0  0  0
  -20.6774  -26.9411   22.5409 C   0  0  0  0  0  0
  -19.5749  -26.6384   21.5212 C   0  0  0  0  0  0
  -18.1930  -26.7929   22.1625 C   0  0  0  0  0  0
  -19.1539  -28.8853   23.2881 C   0  0  0  0  0  0
  -18.9462  -30.1456   23.8895 C   0  0  0  0  0  0
  -17.6462  -30.6588   24.0564 C   0  0  0  0  0  0
  -25.9050  -34.9454   23.5107 C   0  0  0  0  0  0
  -16.5353  -29.9086   23.6334 C   0  0  0  0  0  0
  -16.7273  -28.6504   23.0355 C   0  0  0  0  0  0
  -26.4496  -31.6591   25.0730 C   0  0  0  0  0  0
  -25.3732  -31.3731   26.1459 C   0  0  0  0  0  0
  -27.0339  -30.3016   24.6183 C   0  0  0  0  0  0
  -27.6057  -32.4327   25.7501 C   0  0  0  0  0  0
  -27.5580  -37.1801   24.8466 C   0  0  0  0  0  0
  -21.4189  -29.3044   22.3679 N   0  0  0  0  0  0
  -26.4291  -37.3779   23.9409 N   0  0  0  0  0  0
  -24.6886  -31.0609   22.0986 N   0  0  0  0  0  0
  -23.4201  -28.8158   23.3010 O   0  0  0  0  0  0
  -28.3230  -26.4468   20.1571 O   0  0  0  0  0  0
  -26.5614  -34.8920   22.4671 O   0  0  0  0  0  0
  -23.5427  -32.1396   23.7359 O   0  0  0  0  0  0
  -31.0017  -17.8320   20.0466 C   0  0  0  0  0  0
  -28.8618  -18.0103   21.0926 C   0  0  0  0  0  0
  -29.9189  -17.1552   20.6670 C   0  0  0  0  0  0
  -30.9708  -19.2486   19.8881 C   0  0  0  0  0  0
  -29.8608  -20.0044   20.3473 C   0  0  0  0  0  0
  -29.0956  -23.9329   20.1979 C   0  0  0  0  0  0
  -28.8017  -22.4144   20.5477 C   0  0  0  0  0  0
  -28.0236  -25.0407   20.5442 C   0  0  0  0  0  0
  -28.8212  -19.3742   20.9456 N   0  0  0  0  0  0
  -29.8131  -15.6996   20.8618 N   0  0  0  0  0  0
  -29.8570  -21.4240   20.1699 N   0  0  0  0  0  0
  -30.1634  -24.2357   19.6524 O   0  0  0  0  0  0
  -32.0096  -19.8823   19.2889 F   0  0  0  0  0  0
  -31.4811  -12.5260   19.1547 H   0  0  0  0  0  0
  -30.3791  -11.4033   19.9011 H   0  0  0  0  0  0
  -29.7769  -11.7525   17.4856 H   0  0  0  0  0  0
  -29.6499  -13.4741   17.7434 H   0  0  0  0  0  0
  -27.8731  -11.2889   18.8749 H   0  0  0  0  0  0
  -27.3780  -12.5658   17.7962 H   0  0  0  0  0  0
  -27.6707  -14.2496   19.5189 H   0  0  0  0  0  0
  -28.7113  -12.0548   21.3795 H   0  0  0  0  0  0
  -28.4404  -13.7090   21.8451 H   0  0  0  0  0  0
  -25.2761   -9.5681   22.4756 H   0  0  0  0  0  0
  -24.0003   -7.4631   22.7471 H   0  0  0  0  0  0
  -21.0841   -8.8771   19.8951 H   0  0  0  0  0  0
  -22.3695  -10.9672   19.6164 H   0  0  0  0  0  0
  -21.2003   -7.6147   23.9716 H   0  0  0  0  0  0
  -21.1482   -6.0522   25.9078 H   0  0  0  0  0  0
  -22.0598   -2.7609   23.2846 H   0  0  0  0  0  0
  -22.4109  -11.9880   22.4796 H   0  0  0  0  0  0
  -21.1115  -13.1249   22.2623 H   0  0  0  0  0  0
  -24.6534  -15.8373   20.5007 H   0  0  0  0  0  0
  -26.2616  -15.6204   20.0321 H   0  0  0  0  0  0
  -26.7178  -32.5452   23.1110 H   0  0  0  0  0  0
  -25.0087  -33.9728   25.0440 H   0  0  0  0  0  0
  -22.7145  -31.3048   21.4029 H   0  0  0  0  0  0
  -23.3751  -35.9622   23.3302 H   0  0  0  0  0  0
  -24.3581  -36.8912   22.2053 H   0  0  0  0  0  0
  -23.7236  -37.6494   23.6657 H   0  0  0  0  0  0
  -26.0947  -31.5535   20.6079 H   0  0  0  0  0  0
  -26.8428  -30.8385   22.0052 H   0  0  0  0  0  0
  -28.1163  -28.9781   21.1986 H   0  0  0  0  0  0
  -25.9893  -25.9550   18.9581 H   0  0  0  0  0  0
  -23.9765  -27.3210   18.9932 H   0  0  0  0  0  0
  -23.7549  -30.5964   19.4045 H   0  0  0  0  0  0
  -22.7561  -29.2486   19.8586 H   0  0  0  0  0  0
  -25.1294  -36.1938   25.0822 H   0  0  0  0  0  0
  -20.9980  -28.3257   24.1402 H   0  0  0  0  0  0
  -20.5676  -26.2295   23.3608 H   0  0  0  0  0  0
  -21.6642  -26.7440   22.1200 H   0  0  0  0  0  0
  -19.6909  -25.6294   21.1243 H   0  0  0  0  0  0
  -19.6688  -27.3194   20.6741 H   0  0  0  0  0  0
  -17.4200  -26.6679   21.4026 H   0  0  0  0  0  0
  -18.0329  -26.0071   22.9022 H   0  0  0  0  0  0
  -19.7938  -30.7275   24.2260 H   0  0  0  0  0  0
  -17.5017  -31.6270   24.5162 H   0  0  0  0  0  0
  -15.5354  -30.2989   23.7658 H   0  0  0  0  0  0
  -15.8673  -28.0824   22.7069 H   0  0  0  0  0  0
  -24.5902  -30.7085   25.7789 H   0  0  0  0  0  0
  -24.8928  -32.2899   26.4887 H   0  0  0  0  0  0
  -25.8059  -30.8907   27.0232 H   0  0  0  0  0  0
  -26.2912  -29.6768   24.1207 H   0  0  0  0  0  0
  -27.4040  -29.7271   25.4684 H   0  0  0  0  0  0
  -27.8781  -30.4307   23.9407 H   0  0  0  0  0  0
  -27.2669  -33.3630   26.2072 H   0  0  0  0  0  0
  -28.3870  -32.6883   25.0330 H   0  0  0  0  0  0
  -28.0721  -31.8455   26.5422 H   0  0  0  0  0  0
  -28.2597  -38.0099   24.7517 H   0  0  0  0  0  0
  -28.1077  -36.2631   24.6286 H   0  0  0  0  0  0
  -27.2300  -37.1443   25.8869 H   0  0  0  0  0  0
  -20.9363  -29.8776   21.6901 H   0  0  0  0  0  0
  -26.0174  -38.2854   24.1413 H   0  0  0  0  0  0
  -31.8583  -17.2899   19.6775 H   0  0  0  0  0  0
  -27.9937  -17.5802   21.5707 H   0  0  0  0  0  0
  -27.8675  -22.1302   20.0631 H   0  0  0  0  0  0
  -28.6260  -22.3434   21.6213 H   0  0  0  0  0  0
  -27.8745  -25.0217   21.6238 H   0  0  0  0  0  0
  -27.0889  -24.6913   20.1126 H   0  0  0  0  0  0
  -28.9236  -15.3899   21.2258 H   0  0  0  0  0  0
  -30.6726  -21.8179   19.7101 H   0  0  0  0  0  0
  1 25  1  0  0  0
  1 30  2  0  0  0
  1 80  1  0  0  0
  2  3  1  0  0  0
  2 25  1  0  0  0
  2 84  1  0  0  0
  2 85  1  0  0  0
  3  4  1  0  0  0
  3 86  1  0  0  0
  3 87  1  0  0  0
  4  5  1  0  0  0
  4 88  1  0  0  0
  4 89  1  0  0  0
  5  6  1  0  0  0
  5 26  1  0  0  0
  5 90  1  0  0  0
  6 25  1  0  0  0
  6 91  1  0  0  0
  6 92  1  0  0  0
  7  8  2  0  0  0
  7 26  1  0  0  0
  7 29  1  0  0  0
  8  9  1  0  0  0
  8 22  1  0  0  0
  9 10  1  0  0  0
  9 27  2  0  0  0
 10 11  2  0  0  0
 10 15  1  0  0  0
 11 12  1  0  0  0
 11 93  1  0  0  0
 12 13  2  0  0  0
 12 94  1  0  0  0
 13 14  1  0  0  0
 13 31  1  0  0  0
 14 15  2  0  0  0
 14 95  1  0  0  0
 15 96  1  0  0  0
 16 17  2  0  0  0
 16 21  1  0  0  0
 16 31  1  0  0  0
 17 18  1  0  0  0
 17 97  1  0  0  0
 18 19  2  0  0  0
 18 98  1  0  0  0
 19 20  1  0  0  0
 19 24  1  0  0  0
 20 21  2  0  0  0
 20 99  1  0  0  0
 21 23  1  0  0  0
 22 28  1  0  0  0
 22 32  2  0  0  0
 26 27  1  0  0  0
 28100  1  0  0  0
 28101  1  0  0  0
 29102  1  0  0  0
 29103  1  0  0  0
 33 34  1  0  0  0
 33 66  1  0  0  0
 33 70  2  0  0  0
 34 36  1  0  0  0
 34 59  1  0  0  0
 34104  1  0  0  0
 35 44  2  0  0  0
 35 45  1  0  0  0
 35 68  1  0  0  0
 36 56  1  0  0  0
 36105  1  0  0  0
 37 39  1  0  0  0
 37 47  1  0  0  0
 37 66  1  0  0  0
 37106  1  0  0  0
 38 43  2  0  0  0
 38 46  1  0  0  0
 38 47  1  0  0  0
 39 64  1  0  0  0
 39 67  2  0  0  0
 40 52  1  0  0  0
 40 53  2  0  0  0
 40 58  1  0  0  0
 41107  1  0  0  0
 41108  1  0  0  0
 41109  1  0  0  0
 41 48  1  0  0  0
 42 43  1  0  0  0
 42 66  1  0  0  0
 42110  1  0  0  0
 42111  1  0  0  0
 43 44  1  0  0  0
 44112  1  0  0  0
 45 46  2  0  0  0
 45113  1  0  0  0
 46114  1  0  0  0
 47115  1  0  0  0
 47116  1  0  0  0
 48 56  1  0  0  0
 48 65  1  0  0  0
 48117  1  0  0  0
 49 50  1  0  0  0
 49 53  1  0  0  0
 49 64  1  0  0  0
 49118  1  0  0  0
 50 51  1  0  0  0
 50119  1  0  0  0
 50120  1  0  0  0
 51 52  1  0  0  0
 51121  1  0  0  0
 51122  1  0  0  0
 52123  1  0  0  0
 52124  1  0  0  0
 53 54  1  0  0  0
 54 55  2  0  0  0
 54125  1  0  0  0
 55 57  1  0  0  0
 55126  1  0  0  0
 56 69  2  0  0  0
 57 58  2  0  0  0
 57127  1  0  0  0
 58128  1  0  0  0
 59 60  1  0  0  0
 59 61  1  0  0  0
 59 62  1  0  0  0
 60129  1  0  0  0
 60130  1  0  0  0
 60131  1  0  0  0
 61132  1  0  0  0
 61133  1  0  0  0
 61134  1  0  0  0
 62135  1  0  0  0
 62136  1  0  0  0
 62137  1  0  0  0
 63 65  1  0  0  0
 63138  1  0  0  0
 63139  1  0  0  0
 63140  1  0  0  0
 64141  1  0  0  0
 65142  1  0  0  0
 68 78  1  0  0  0
 71 73  2  0  0  0
 71 74  1  0  0  0
 71143  1  0  0  0
 72 73  1  0  0  0
 72 79  2  0  0  0
 72144  1  0  0  0
 73 80  1  0  0  0
 74 75  2  0  0  0
 74 83  1  0  0  0
 75 79  1  0  0  0
 75 81  1  0  0  0
 76 77  1  0  0  0
 76 78  1  0  0  0
 76 82  2  0  0  0
 77 81  1  0  0  0
 77145  1  0  0  0
 77146  1  0  0  0
 78147  1  0  0  0
 78148  1  0  0  0
 80149  1  0  0  0
 81150  1  0  0  0
M  ISO  4   1 100  68 101  78 101  80 100
M  END
> <chiral flag>
0

> <version>
0

> <s_m_source_file>
/data/baiqing/PycharmProjects/Reinvent-master-3.2/result/LINK_invent/BTK/process_docking_weight1_custom_product_contain_oxygen_bond_distance_aromatic_linkinvent_7_9_3/rearranged_h_0162.sdf

> <i_m_source_file_index>
62

> <r_mmod_Potential_Energy-OPLS-2005>
-144.992919921875

> <r_mmod_Stretch_Energy-OPLS-2005>
78.8335113525391

> <r_mmod_Bend_Energy-OPLS-2005>
144.359222412109

> <r_mmod_Torsional_Energy-OPLS-2005>
210.772369384766

> <r_mmod_Improper_Torsional_Energy-OPLS-2005>
4.04822683334351

> <r_mmod_Van_der_Waal_Energy-OPLS-2005>
146.01399230957

> <r_mmod_Electrostatic_Energy-OPLS-2005>
-536.500305175781

> <r_mmod_Solvation_Energy-OPLS-2005>
-244.41145324707

> <b_mmod_Minimization_Converged-OPLS-2005>
0

> <r_mmod_RMS_Derivative-OPLS-2005>
0.340102761983871

$$$$
62
                    3D
 Structure written by MMmdl.
157166  0  0  1  0            999 V2000
  -30.6916  -14.4974   20.5712 C   0  0  0  0  0  0
  -30.4197  -12.3173   19.4341 C   0  0  0  0  0  0
  -29.4940  -12.5084   18.2146 C   0  0  0  0  0  0
  -28.0162  -12.3586   18.6252 C   0  0  0  0  0  0
  -27.6578  -13.2101   19.8726 C   0  0  2  0  0  0
  -28.7006  -13.0197   20.9977 C   0  0  0  0  0  0
  -25.2577  -13.8163   20.5693 C   0  0  0  0  0  0
  -24.1831  -13.0435   20.9172 C   0  0  0  0  0  0
  -24.6392  -11.6901   20.8734 C   0  0  0  0  0  0
  -23.9062  -10.4287   21.0403 C   0  0  0  0  0  0
  -24.3613   -9.4199   21.9186 C   0  0  0  0  0  0
  -23.6288   -8.2237   22.0761 C   0  0  0  0  0  0
  -22.4271   -8.0278   21.3544 C   0  0  0  0  0  0
  -21.9900   -9.0247   20.4650 C   0  0  0  0  0  0
  -22.7231  -10.2128   20.3063 C   0  0  0  0  0  0
  -21.6838   -6.0742   22.5278 C   0  0  0  0  0  0
  -21.4015   -6.5642   23.8212 C   0  0  0  0  0  0
  -21.3656   -5.6796   24.9169 C   0  0  0  0  0  0
  -21.6044   -4.3058   24.7217 C   0  0  0  0  0  0
  -21.8818   -3.8154   23.4339 C   0  0  0  0  0  0
  -21.9191   -4.6968   22.3400 C   0  0  0  0  0  0
  -22.7859  -13.5222   21.1837 C   0  0  0  0  0  0
  -22.1659   -4.2156   21.0975 F   0  0  0  0  0  0
  -21.5624   -3.4543   25.7730 F   0  0  0  0  0  0
  -30.0286  -13.3144   20.4451 N   0  0  0  0  0  0
  -26.3013  -12.9346   20.3374 N   0  0  0  0  0  0
  -25.9322  -11.6499   20.5769 N   0  0  0  0  0  0
  -22.0498  -12.8214   22.0388 N   0  0  0  0  0  0
  -25.4302  -15.1890   20.4122 N   0  0  0  0  0  0
  -31.8291  -14.6404   20.1113 O   0  0  0  0  0  0
  -21.6634   -6.8880   21.4243 O   0  0  0  0  0  0
  -22.3544  -14.5523   20.6677 O   0  0  0  0  0  0
  -24.6165  -31.8658   23.2090 C   0  0  0  0  0  0
  -25.9059  -32.4801   23.8392 C   0  0  1  0  0  0
  -27.2323  -27.4184   20.1116 C   0  0  0  0  0  0
  -25.5914  -33.8603   24.2321 N   0  0  0  0  0  0
  -23.4054  -30.4872   21.5509 C   0  0  2  0  0  0
  -24.8523  -28.9498   20.1176 C   0  0  0  0  0  0
  -22.7413  -29.4654   22.5020 C   0  0  0  0  0  0
  -18.0259  -28.1370   22.8495 C   0  0  0  0  0  0
  -24.1490  -36.7309   23.2638 C   0  0  0  0  0  0
  -25.9348  -30.8291   21.3620 C   0  0  0  0  0  0
  -26.0139  -29.4625   20.7092 C   0  0  0  0  0  0
  -27.2111  -28.7069   20.6957 C   0  0  0  0  0  0
  -26.0551  -26.9204   19.5144 C   0  0  0  0  0  0
  -24.8686  -27.6794   19.5146 C   0  0  0  0  0  0
  -23.6129  -29.8153   20.1672 C   0  0  0  0  0  0
  -25.4112  -36.3102   24.0336 C   0  0  1  0  0  0
  -20.5848  -28.3670   23.1320 C   0  0  2  0  0  0
  -20.6749  -26.9404   22.5432 C   0  0  0  0  0  0
  -19.5741  -26.6389   21.5215 C   0  0  0  0  0  0
  -18.1900  -26.7927   22.1600 C   0  0  0  0  0  0
  -19.1506  -28.8838   23.2897 C   0  0  0  0  0  0
  -18.9442  -30.1448   23.8894 C   0  0  0  0  0  0
  -17.6443  -30.6583   24.0569 C   0  0  0  0  0  0
  -25.9043  -34.9461   23.5124 C   0  0  0  0  0  0
  -16.5335  -29.9079   23.6339 C   0  0  0  0  0  0
  -16.7251  -28.6497   23.0356 C   0  0  0  0  0  0
  -26.4476  -31.6587   25.0731 C   0  0  0  0  0  0
  -25.3716  -31.3676   26.1461 C   0  0  0  0  0  0
  -27.0315  -30.3026   24.6132 C   0  0  0  0  0  0
  -27.6064  -32.4290   25.7475 C   0  0  0  0  0  0
  -27.5583  -37.1803   24.8458 C   0  0  0  0  0  0
  -21.4145  -29.3024   22.3729 N   0  0  0  0  0  0
  -26.4298  -37.3785   23.9404 N   0  0  0  0  0  0
  -24.6703  -31.0744   22.0993 N   0  0  0  0  0  0
  -23.4172  -28.8204   23.3078 O   0  0  0  0  0  0
  -28.3849  -26.6619   20.1102 O   0  0  0  0  0  0
  -26.5602  -34.8911   22.4681 O   0  0  0  0  0  0
  -23.5357  -32.1435   23.7471 O   0  0  0  0  0  0
  -29.3700  -19.3433   19.8836 C   0  0  0  0  0  0
  -29.8727  -18.4206   20.8569 C   0  0  0  0  0  0
  -29.7430  -19.0821   22.0590 C   0  0  0  0  0  0
  -29.0804  -20.5060   20.5395 C   0  0  0  0  0  0
  -28.6641  -22.8087   20.5222 C   0  0  0  0  0  0
  -28.3776  -24.1689   19.8818 C   0  0  0  0  0  0
  -29.4246  -17.5895   24.1900 C   0  0  0  0  0  0
  -29.1276  -19.0098   24.6039 C   0  0  0  0  0  0
  -30.0935  -18.7393   23.4721 C   0  0  0  0  0  0
  -30.5414  -17.0795   20.5354 C   0  0  0  0  0  0
  -28.3029  -25.3993   20.8160 C   0  0  0  0  0  0
  -29.9923  -15.7596   21.1618 C   0  0  0  0  0  0
  -28.7196  -21.6825   19.9069 N   0  0  0  0  0  0
  -28.2058  -24.2996   18.6609 O   0  0  0  0  0  0
  -29.2770  -20.3625   21.8756 O   0  0  0  0  0  0
  -31.4652  -12.4065   19.1364 H   0  0  0  0  0  0
  -30.3125  -11.3112   19.8418 H   0  0  0  0  0  0
  -29.7398  -11.7870   17.4344 H   0  0  0  0  0  0
  -29.6537  -13.4982   17.7827 H   0  0  0  0  0  0
  -27.8343  -11.3030   18.8311 H   0  0  0  0  0  0
  -27.3636  -12.6220   17.7911 H   0  0  0  0  0  0
  -27.6919  -14.2522   19.5580 H   0  0  0  0  0  0
  -28.6792  -11.9916   21.3634 H   0  0  0  0  0  0
  -28.4718  -13.6449   21.8621 H   0  0  0  0  0  0
  -25.2760   -9.5668   22.4763 H   0  0  0  0  0  0
  -23.9988   -7.4633   22.7488 H   0  0  0  0  0  0
  -21.0831   -8.8772   19.8960 H   0  0  0  0  0  0
  -22.3691  -10.9673   19.6179 H   0  0  0  0  0  0
  -21.2019   -7.6149   23.9713 H   0  0  0  0  0  0
  -21.1478   -6.0531   25.9075 H   0  0  0  0  0  0
  -22.0603   -2.7621   23.2840 H   0  0  0  0  0  0
  -22.4116  -11.9873   22.4767 H   0  0  0  0  0  0
  -21.1137  -13.1275   22.2625 H   0  0  0  0  0  0
  -24.6666  -15.8462   20.5304 H   0  0  0  0  0  0
  -26.2924  -15.6309   20.1174 H   0  0  0  0  0  0
  -26.7142  -32.5508   23.1167 H   0  0  0  0  0  0
  -25.0108  -33.9780   25.0491 H   0  0  0  0  0  0
  -22.6960  -31.3048   21.4098 H   0  0  0  0  0  0
  -23.3753  -35.9639   23.3302 H   0  0  0  0  0  0
  -24.3587  -36.8928   22.2055 H   0  0  0  0  0  0
  -23.7240  -37.6508   23.6665 H   0  0  0  0  0  0
  -26.0471  -31.5942   20.5922 H   0  0  0  0  0  0
  -26.8209  -30.8820   21.9833 H   0  0  0  0  0  0
  -28.1108  -29.1016   21.1475 H   0  0  0  0  0  0
  -26.0547  -25.9472   19.0437 H   0  0  0  0  0  0
  -23.9751  -27.2802   19.0553 H   0  0  0  0  0  0
  -23.7136  -30.5883   19.4042 H   0  0  0  0  0  0
  -22.7370  -29.2310   19.8784 H   0  0  0  0  0  0
  -25.1271  -36.1977   25.0825 H   0  0  0  0  0  0
  -20.9924  -28.3246   24.1446 H   0  0  0  0  0  0
  -20.5663  -26.2271   23.3620 H   0  0  0  0  0  0
  -21.6624  -26.7444   22.1231 H   0  0  0  0  0  0
  -19.6910  -25.6303   21.1239 H   0  0  0  0  0  0
  -19.6693  -27.3202   20.6751 H   0  0  0  0  0  0
  -17.4197  -26.6716   21.3968 H   0  0  0  0  0  0
  -18.0261  -26.0042   22.8959 H   0  0  0  0  0  0
  -19.7922  -30.7267   24.2258 H   0  0  0  0  0  0
  -17.4999  -31.6259   24.5180 H   0  0  0  0  0  0
  -15.5343  -30.2978   23.7671 H   0  0  0  0  0  0
  -15.8653  -28.0833   22.7057 H   0  0  0  0  0  0
  -24.6050  -30.6822   25.7845 H   0  0  0  0  0  0
  -24.8699  -32.2785   26.4736 H   0  0  0  0  0  0
  -25.8083  -30.9065   27.0337 H   0  0  0  0  0  0
  -26.2884  -29.6769   24.1196 H   0  0  0  0  0  0
  -27.4088  -29.7278   25.4608 H   0  0  0  0  0  0
  -27.8702  -30.4348   23.9287 H   0  0  0  0  0  0
  -27.2751  -33.3640   26.2012 H   0  0  0  0  0  0
  -28.3886  -32.6773   25.0280 H   0  0  0  0  0  0
  -28.0723  -31.8426   26.5414 H   0  0  0  0  0  0
  -28.2603  -38.0102   24.7517 H   0  0  0  0  0  0
  -28.1076  -36.2632   24.6271 H   0  0  0  0  0  0
  -27.2301  -37.1443   25.8861 H   0  0  0  0  0  0
  -20.9328  -29.8736   21.6933 H   0  0  0  0  0  0
  -26.0189  -38.2860   24.1413 H   0  0  0  0  0  0
  -29.3183  -19.2021   18.8130 H   0  0  0  0  0  0
  -28.8465  -22.8409   21.6006 H   0  0  0  0  0  0
  -28.6350  -17.0469   23.6739 H   0  0  0  0  0  0
  -30.0409  -16.9911   24.8577 H   0  0  0  0  0  0
  -29.5435  -19.3545   25.5491 H   0  0  0  0  0  0
  -28.1493  -19.4135   24.3507 H   0  0  0  0  0  0
  -31.1491  -18.9169   23.6720 H   0  0  0  0  0  0
  -31.5949  -17.1886   20.7983 H   0  0  0  0  0  0
  -30.5233  -16.9781   19.4494 H   0  0  0  0  0  0
  -29.1323  -25.3499   21.5216 H   0  0  0  0  0  0
  -27.3893  -25.3427   21.4100 H   0  0  0  0  0  0
  -28.9190  -15.7127   20.9876 H   0  0  0  0  0  0
  -30.1430  -15.7588   22.2403 H   0  0  0  0  0  0
  1 25  1  0  0  0
  1 30  2  0  0  0
  1 82  1  0  0  0
  2  3  1  0  0  0
  2 25  1  0  0  0
  2 86  1  0  0  0
  2 87  1  0  0  0
  3  4  1  0  0  0
  3 88  1  0  0  0
  3 89  1  0  0  0
  4  5  1  0  0  0
  4 90  1  0  0  0
  4 91  1  0  0  0
  5  6  1  0  0  0
  5 26  1  0  0  0
  5 92  1  0  0  0
  6 25  1  0  0  0
  6 93  1  0  0  0
  6 94  1  0  0  0
  7  8  2  0  0  0
  7 26  1  0  0  0
  7 29  1  0  0  0
  8  9  1  0  0  0
  8 22  1  0  0  0
  9 10  1  0  0  0
  9 27  2  0  0  0
 10 11  2  0  0  0
 10 15  1  0  0  0
 11 12  1  0  0  0
 11 95  1  0  0  0
 12 13  2  0  0  0
 12 96  1  0  0  0
 13 14  1  0  0  0
 13 31  1  0  0  0
 14 15  2  0  0  0
 14 97  1  0  0  0
 15 98  1  0  0  0
 16 17  2  0  0  0
 16 21  1  0  0  0
 16 31  1  0  0  0
 17 18  1  0  0  0
 17 99  1  0  0  0
 18 19  2  0  0  0
 18100  1  0  0  0
 19 20  1  0  0  0
 19 24  1  0  0  0
 20 21  2  0  0  0
 20101  1  0  0  0
 21 23  1  0  0  0
 22 28  1  0  0  0
 22 32  2  0  0  0
 26 27  1  0  0  0
 28102  1  0  0  0
 28103  1  0  0  0
 29104  1  0  0  0
 29105  1  0  0  0
 33 34  1  0  0  0
 33 66  1  0  0  0
 33 70  2  0  0  0
 34 36  1  0  0  0
 34 59  1  0  0  0
 34106  1  0  0  0
 35 44  2  0  0  0
 35 45  1  0  0  0
 35 68  1  0  0  0
 36 56  1  0  0  0
 36107  1  0  0  0
 37 39  1  0  0  0
 37 47  1  0  0  0
 37 66  1  0  0  0
 37108  1  0  0  0
 38 43  2  0  0  0
 38 46  1  0  0  0
 38 47  1  0  0  0
 39 64  1  0  0  0
 39 67  2  0  0  0
 40 52  1  0  0  0
 40 53  2  0  0  0
 40 58  1  0  0  0
 41109  1  0  0  0
 41110  1  0  0  0
 41111  1  0  0  0
 41 48  1  0  0  0
 42 43  1  0  0  0
 42 66  1  0  0  0
 42112  1  0  0  0
 42113  1  0  0  0
 43 44  1  0  0  0
 44114  1  0  0  0
 45 46  2  0  0  0
 45115  1  0  0  0
 46116  1  0  0  0
 47117  1  0  0  0
 47118  1  0  0  0
 48 56  1  0  0  0
 48 65  1  0  0  0
 48119  1  0  0  0
 49 50  1  0  0  0
 49 53  1  0  0  0
 49 64  1  0  0  0
 49120  1  0  0  0
 50 51  1  0  0  0
 50121  1  0  0  0
 50122  1  0  0  0
 51 52  1  0  0  0
 51123  1  0  0  0
 51124  1  0  0  0
 52125  1  0  0  0
 52126  1  0  0  0
 53 54  1  0  0  0
 54 55  2  0  0  0
 54127  1  0  0  0
 55 57  1  0  0  0
 55128  1  0  0  0
 56 69  2  0  0  0
 57 58  2  0  0  0
 57129  1  0  0  0
 58130  1  0  0  0
 59 60  1  0  0  0
 59 61  1  0  0  0
 59 62  1  0  0  0
 60131  1  0  0  0
 60132  1  0  0  0
 60133  1  0  0  0
 61134  1  0  0  0
 61135  1  0  0  0
 61136  1  0  0  0
 62137  1  0  0  0
 62138  1  0  0  0
 62139  1  0  0  0
 63 65  1  0  0  0
 63140  1  0  0  0
 63141  1  0  0  0
 63142  1  0  0  0
 64143  1  0  0  0
 65144  1  0  0  0
 68 81  1  0  0  0
 71 72  1  0  0  0
 71 74  2  0  0  0
 71145  1  0  0  0
 72 73  2  0  0  0
 72 80  1  0  0  0
 73 85  1  0  0  0
 73 79  1  0  0  0
 74 83  1  0  0  0
 74 85  1  0  0  0
 75 76  1  0  0  0
 75 83  2  0  0  0
 75146  1  0  0  0
 76 81  1  0  0  0
 76 84  2  0  0  0
 77 78  1  0  0  0
 77 79  1  0  0  0
 77147  1  0  0  0
 77148  1  0  0  0
 78 79  1  0  0  0
 78149  1  0  0  0
 78150  1  0  0  0
 79151  1  0  0  0
 80 82  1  0  0  0
 80152  1  0  0  0
 80153  1  0  0  0
 81154  1  0  0  0
 81155  1  0  0  0
 82156  1  0  0  0
 82157  1  0  0  0
M  ISO  4   1 100  68 101  81 101  82 100
M  END
> <chiral flag>
0

> <version>
0

> <s_m_source_file>
/data/baiqing/PycharmProjects/Reinvent-master-3.2/result/LINK_invent/BTK/process_docking_weight1_custom_product_contain_oxygen_bond_distance_aromatic_linkinvent_7_9_3/rearranged_h_0162.sdf

> <i_m_source_file_index>
63

> <r_mmod_Potential_Energy-OPLS-2005>
-39.5173301696777

> <r_mmod_Stretch_Energy-OPLS-2005>
41.2700424194336

> <r_mmod_Bend_Energy-OPLS-2005>
107.125305175781

> <r_mmod_Torsional_Energy-OPLS-2005>
223.003784179688

> <r_mmod_Improper_Torsional_Energy-OPLS-2005>
4.11517000198364

> <r_mmod_Van_der_Waal_Energy-OPLS-2005>
118.202926635742

> <r_mmod_Electrostatic_Energy-OPLS-2005>
-324.684326171875

> <r_mmod_Solvation_Energy-OPLS-2005>
-224.140319824219

> <b_mmod_Minimization_Converged-OPLS-2005>
0

> <r_mmod_RMS_Derivative-OPLS-2005>
2.01898741722107

$$$$
63
                    3D
 Structure written by MMmdl.
163171  0  0  1  0            999 V2000
  -30.7866  -14.4155   20.6571 C   0  0  0  0  0  0
  -30.4052  -12.3197   19.4006 C   0  0  0  0  0  0
  -29.4706  -12.5046   18.1913 C   0  0  0  0  0  0
  -28.0041  -12.3194   18.6193 C   0  0  0  0  0  0
  -27.6518  -13.1769   19.8583 C   0  0  2  0  0  0
  -28.6975  -12.9850   20.9839 C   0  0  0  0  0  0
  -25.2646  -13.8106   20.5706 C   0  0  0  0  0  0
  -24.1846  -13.0427   20.9146 C   0  0  0  0  0  0
  -24.6350  -11.6876   20.8709 C   0  0  0  0  0  0
  -23.9014  -10.4282   21.0394 C   0  0  0  0  0  0
  -24.3590   -9.4209   21.9172 C   0  0  0  0  0  0
  -23.6275   -8.2241   22.0752 C   0  0  0  0  0  0
  -22.4258   -8.0269   21.3551 C   0  0  0  0  0  0
  -21.9878   -9.0231   20.4658 C   0  0  0  0  0  0
  -22.7187  -10.2113   20.3056 C   0  0  0  0  0  0
  -21.6850   -6.0732   22.5277 C   0  0  0  0  0  0
  -21.4005   -6.5643   23.8203 C   0  0  0  0  0  0
  -21.3658   -5.6803   24.9173 C   0  0  0  0  0  0
  -21.6037   -4.3061   24.7227 C   0  0  0  0  0  0
  -21.8820   -3.8152   23.4349 C   0  0  0  0  0  0
  -21.9192   -4.6963   22.3406 C   0  0  0  0  0  0
  -22.7891  -13.5263   21.1821 C   0  0  0  0  0  0
  -22.1669   -4.2152   21.0982 F   0  0  0  0  0  0
  -21.5624   -3.4545   25.7737 F   0  0  0  0  0  0
  -30.0236  -13.3044   20.4306 N   0  0  0  0  0  0
  -26.2984  -12.9189   20.3319 N   0  0  0  0  0  0
  -25.9256  -11.6389   20.5744 N   0  0  0  0  0  0
  -22.0547  -12.8259   22.0387 N   0  0  0  0  0  0
  -25.4584  -15.1811   20.4256 N   0  0  0  0  0  0
  -31.8622  -14.5955   20.0853 O   0  0  0  0  0  0
  -21.6637   -6.8861   21.4238 O   0  0  0  0  0  0
  -22.3578  -14.5572   20.6671 O   0  0  0  0  0  0
  -24.6129  -31.8694   23.2104 C   0  0  0  0  0  0
  -25.9033  -32.4824   23.8390 C   0  0  1  0  0  0
  -27.2290  -27.4633   20.0894 C   0  0  0  0  0  0
  -25.5900  -33.8618   24.2327 N   0  0  0  0  0  0
  -23.3997  -30.4949   21.5504 C   0  0  2  0  0  0
  -24.8438  -28.9636   20.1112 C   0  0  0  0  0  0
  -22.7400  -29.4688   22.4993 C   0  0  0  0  0  0
  -18.0272  -28.1389   22.8490 C   0  0  0  0  0  0
  -24.1491  -36.7320   23.2638 C   0  0  0  0  0  0
  -25.9256  -30.8446   21.3581 C   0  0  0  0  0  0
  -26.0032  -29.4831   20.7016 C   0  0  0  0  0  0
  -27.2035  -28.7407   20.6848 C   0  0  0  0  0  0
  -26.0579  -26.9485   19.4958 C   0  0  0  0  0  0
  -24.8638  -27.6937   19.5058 C   0  0  0  0  0  0
  -23.6041  -29.8270   20.1641 C   0  0  0  0  0  0
  -25.4109  -36.3108   24.0338 C   0  0  1  0  0  0
  -20.5856  -28.3692   23.1311 C   0  0  2  0  0  0
  -20.6777  -26.9425   22.5424 C   0  0  0  0  0  0
  -19.5758  -26.6380   21.5227 C   0  0  0  0  0  0
  -18.1934  -26.7929   22.1642 C   0  0  0  0  0  0
  -19.1515  -28.8856   23.2898 C   0  0  0  0  0  0
  -18.9453  -30.1464   23.8909 C   0  0  0  0  0  0
  -17.6455  -30.6595   24.0584 C   0  0  0  0  0  0
  -25.9036  -34.9474   23.5127 C   0  0  0  0  0  0
  -16.5348  -29.9099   23.6342 C   0  0  0  0  0  0
  -16.7261  -28.6523   23.0347 C   0  0  0  0  0  0
  -26.4473  -31.6589   25.0707 C   0  0  0  0  0  0
  -25.3757  -31.3682   26.1469 C   0  0  0  0  0  0
  -27.0310  -30.3036   24.6061 C   0  0  0  0  0  0
  -27.6045  -32.4307   25.7476 C   0  0  0  0  0  0
  -27.5577  -37.1811   24.8464 C   0  0  0  0  0  0
  -21.4126  -29.3066   22.3726 N   0  0  0  0  0  0
  -26.4294  -37.3789   23.9408 N   0  0  0  0  0  0
  -24.6645  -31.0836   22.0985 N   0  0  0  0  0  0
  -23.4171  -28.8215   23.3026 O   0  0  0  0  0  0
  -28.3771  -26.7143   20.1081 O   0  0  0  0  0  0
  -26.5599  -34.8927   22.4690 O   0  0  0  0  0  0
  -23.5334  -32.1438   23.7519 O   0  0  0  0  0  0
  -28.9278  -19.6182   21.7810 C   0  0  0  0  0  0
  -26.9928  -18.2769   22.3161 C   0  0  0  0  0  0
  -26.6649  -20.4257   21.5366 C   0  0  0  0  0  0
  -28.3950  -18.4012   22.2511 C   0  0  0  0  0  0
  -28.0551  -20.6643   21.4083 C   0  0  0  0  0  0
  -28.9833  -16.7080   24.0673 C   0  0  0  0  0  0
  -28.4872  -24.2596   20.1448 C   0  0  0  0  0  0
  -29.3409  -16.1197   21.6014 C   0  0  0  0  0  0
  -27.1461  -15.6437   25.5079 C   0  0  0  0  0  0
  -27.9885  -15.5479   24.2257 C   0  0  0  0  0  0
  -27.7190  -23.0092   20.6021 C   0  0  0  0  0  0
  -28.2550  -25.5528   20.9372 C   0  0  0  0  0  0
  -29.3196  -17.2455   22.6596 C   0  0  2  0  0  0
  -26.1444  -19.2637   21.9756 N   0  0  0  0  0  0
  -28.5908  -21.8765   20.9315 N   0  0  0  0  0  0
  -30.4178  -15.3119   21.5907 N   0  0  0  0  0  0
  -29.4731  -17.2480   25.0638 O   0  0  0  0  0  0
  -29.2837  -24.2012   19.2013 O   0  0  0  0  0  0
  -28.4118  -16.0463   20.7923 O   0  0  0  0  0  0
  -31.4461  -12.4078   19.0832 H   0  0  0  0  0  0
  -30.3093  -11.3096   19.8024 H   0  0  0  0  0  0
  -29.7232  -11.7933   17.4030 H   0  0  0  0  0  0
  -29.6060  -13.4984   17.7623 H   0  0  0  0  0  0
  -27.8487  -11.2631   18.8427 H   0  0  0  0  0  0
  -27.3345  -12.5587   17.7927 H   0  0  0  0  0  0
  -27.6767  -14.2001   19.4953 H   0  0  0  0  0  0
  -28.6910  -11.9503   21.3307 H   0  0  0  0  0  0
  -28.4401  -13.5728   21.8634 H   0  0  0  0  0  0
  -25.2736   -9.5692   22.4735 H   0  0  0  0  0  0
  -23.9993   -7.4638   22.7467 H   0  0  0  0  0  0
  -21.0810   -8.8739   19.8965 H   0  0  0  0  0  0
  -22.3637  -10.9650   19.6169 H   0  0  0  0  0  0
  -21.1998   -7.6154   23.9703 H   0  0  0  0  0  0
  -21.1477   -6.0541   25.9074 H   0  0  0  0  0  0
  -22.0602   -2.7616   23.2848 H   0  0  0  0  0  0
  -22.4179  -11.9913   22.4755 H   0  0  0  0  0  0
  -21.1181  -13.1294   22.2609 H   0  0  0  0  0  0
  -24.7244  -15.8663   20.5625 H   0  0  0  0  0  0
  -26.3729  -15.5906   20.2517 H   0  0  0  0  0  0
  -26.7109  -32.5548   23.1164 H   0  0  0  0  0  0
  -25.0060  -33.9777   25.0474 H   0  0  0  0  0  0
  -22.6879  -31.3116   21.4129 H   0  0  0  0  0  0
  -23.3742  -35.9666   23.3320 H   0  0  0  0  0  0
  -24.3587  -36.8908   22.2049 H   0  0  0  0  0  0
  -23.7261  -37.6537   23.6641 H   0  0  0  0  0  0
  -26.0361  -31.6138   20.5920 H   0  0  0  0  0  0
  -26.8143  -30.8948   21.9756 H   0  0  0  0  0  0
  -28.1013  -29.1346   21.1417 H   0  0  0  0  0  0
  -26.0653  -25.9732   19.0291 H   0  0  0  0  0  0
  -23.9698  -27.2864   19.0512 H   0  0  0  0  0  0
  -23.7060  -30.6018   19.4038 H   0  0  0  0  0  0
  -22.7286  -29.2435   19.8729 H   0  0  0  0  0  0
  -25.1286  -36.1976   25.0831 H   0  0  0  0  0  0
  -20.9941  -28.3282   24.1430 H   0  0  0  0  0  0
  -21.6650  -26.7478   22.1215 H   0  0  0  0  0  0
  -20.5691  -26.2302   23.3615 H   0  0  0  0  0  0
  -19.6933  -25.6288   21.1268 H   0  0  0  0  0  0
  -19.6699  -27.3179   20.6743 H   0  0  0  0  0  0
  -17.4193  -26.6646   21.4059 H   0  0  0  0  0  0
  -18.0360  -26.0088   22.9054 H   0  0  0  0  0  0
  -19.7936  -30.7267   24.2279 H   0  0  0  0  0  0
  -17.5018  -31.6274   24.5190 H   0  0  0  0  0  0
  -15.5345  -30.2998   23.7676 H   0  0  0  0  0  0
  -15.8672  -28.0849   22.7038 H   0  0  0  0  0  0
  -24.5923  -30.7029   25.7817 H   0  0  0  0  0  0
  -24.8962  -32.2837   26.4941 H   0  0  0  0  0  0
  -25.8130  -30.8842   27.0210 H   0  0  0  0  0  0
  -26.2847  -29.6790   24.1135 H   0  0  0  0  0  0
  -27.4119  -29.7270   25.4500 H   0  0  0  0  0  0
  -27.8663  -30.4366   23.9181 H   0  0  0  0  0  0
  -27.2649  -33.3582   26.2104 H   0  0  0  0  0  0
  -28.3837  -32.6905   25.0296 H   0  0  0  0  0  0
  -28.0745  -31.8406   26.5356 H   0  0  0  0  0  0
  -28.2609  -38.0094   24.7495 H   0  0  0  0  0  0
  -28.1060  -36.2624   24.6313 H   0  0  0  0  0  0
  -27.2297  -37.1493   25.8867 H   0  0  0  0  0  0
  -20.9293  -29.8792   21.6951 H   0  0  0  0  0  0
  -26.0188  -38.2872   24.1389 H   0  0  0  0  0  0
  -29.9982  -19.7519   21.7128 H   0  0  0  0  0  0
  -26.5215  -17.3662   22.6513 H   0  0  0  0  0  0
  -25.9359  -21.1773   21.2743 H   0  0  0  0  0  0
  -26.3971  -14.8524   25.5375 H   0  0  0  0  0  0
  -26.6227  -16.5990   25.5702 H   0  0  0  0  0  0
  -27.7648  -15.5403   26.4003 H   0  0  0  0  0  0
  -28.5513  -14.6150   24.2255 H   0  0  0  0  0  0
  -27.3252  -15.5070   23.3625 H   0  0  0  0  0  0
  -27.0352  -22.7272   19.8008 H   0  0  0  0  0  0
  -27.1087  -23.2699   21.4677 H   0  0  0  0  0  0
  -29.0016  -25.6105   21.7290 H   0  0  0  0  0  0
  -27.2840  -25.5047   21.4332 H   0  0  0  0  0  0
  -30.3353  -17.6412   22.7161 H   0  0  0  0  0  0
  -29.5641  -21.9339   20.6369 H   0  0  0  0  0  0
  -31.1995  -15.6956   22.0980 H   0  0  0  0  0  0
  1 25  1  0  0  0
  1 30  2  0  0  0
  1 86  1  0  0  0
  2  3  1  0  0  0
  2 25  1  0  0  0
  2 90  1  0  0  0
  2 91  1  0  0  0
  3  4  1  0  0  0
  3 92  1  0  0  0
  3 93  1  0  0  0
  4  5  1  0  0  0
  4 94  1  0  0  0
  4 95  1  0  0  0
  5  6  1  0  0  0
  5 26  1  0  0  0
  5 96  1  0  0  0
  6 25  1  0  0  0
  6 97  1  0  0  0
  6 98  1  0  0  0
  7  8  2  0  0  0
  7 26  1  0  0  0
  7 29  1  0  0  0
  8  9  1  0  0  0
  8 22  1  0  0  0
  9 10  1  0  0  0
  9 27  2  0  0  0
 10 11  2  0  0  0
 10 15  1  0  0  0
 11 12  1  0  0  0
 11 99  1  0  0  0
 12 13  2  0  0  0
 12100  1  0  0  0
 13 14  1  0  0  0
 13 31  1  0  0  0
 14 15  2  0  0  0
 14101  1  0  0  0
 15102  1  0  0  0
 16 17  2  0  0  0
 16 21  1  0  0  0
 16 31  1  0  0  0
 17 18  1  0  0  0
 17103  1  0  0  0
 18 19  2  0  0  0
 18104  1  0  0  0
 19 20  1  0  0  0
 19 24  1  0  0  0
 20 21  2  0  0  0
 20105  1  0  0  0
 21 23  1  0  0  0
 22 28  1  0  0  0
 22 32  2  0  0  0
 26 27  1  0  0  0
 28106  1  0  0  0
 28107  1  0  0  0
 29108  1  0  0  0
 29109  1  0  0  0
 33 34  1  0  0  0
 33 66  1  0  0  0
 33 70  2  0  0  0
 34 36  1  0  0  0
 34 59  1  0  0  0
 34110  1  0  0  0
 35 44  2  0  0  0
 35 45  1  0  0  0
 35 68  1  0  0  0
 36 56  1  0  0  0
 36111  1  0  0  0
 37 39  1  0  0  0
 37 47  1  0  0  0
 37 66  1  0  0  0
 37112  1  0  0  0
 38 43  2  0  0  0
 38 46  1  0  0  0
 38 47  1  0  0  0
 39 64  1  0  0  0
 39 67  2  0  0  0
 40 52  1  0  0  0
 40 53  2  0  0  0
 40 58  1  0  0  0
 41113  1  0  0  0
 41114  1  0  0  0
 41115  1  0  0  0
 41 48  1  0  0  0
 42 43  1  0  0  0
 42 66  1  0  0  0
 42116  1  0  0  0
 42117  1  0  0  0
 43 44  1  0  0  0
 44118  1  0  0  0
 45 46  2  0  0  0
 45119  1  0  0  0
 46120  1  0  0  0
 47121  1  0  0  0
 47122  1  0  0  0
 48 56  1  0  0  0
 48 65  1  0  0  0
 48123  1  0  0  0
 49 50  1  0  0  0
 49 53  1  0  0  0
 49 64  1  0  0  0
 49124  1  0  0  0
 50 51  1  0  0  0
 50125  1  0  0  0
 50126  1  0  0  0
 51 52  1  0  0  0
 51127  1  0  0  0
 51128  1  0  0  0
 52129  1  0  0  0
 52130  1  0  0  0
 53 54  1  0  0  0
 54 55  2  0  0  0
 54131  1  0  0  0
 55 57  1  0  0  0
 55132  1  0  0  0
 56 69  2  0  0  0
 57 58  2  0  0  0
 57133  1  0  0  0
 58134  1  0  0  0
 59 60  1  0  0  0
 59 61  1  0  0  0
 59 62  1  0  0  0
 60135  1  0  0  0
 60136  1  0  0  0
 60137  1  0  0  0
 61138  1  0  0  0
 61139  1  0  0  0
 61140  1  0  0  0
 62141  1  0  0  0
 62142  1  0  0  0
 62143  1  0  0  0
 63 65  1  0  0  0
 63144  1  0  0  0
 63145  1  0  0  0
 63146  1  0  0  0
 64147  1  0  0  0
 65148  1  0  0  0
 68 82  1  0  0  0
 71 74  2  0  0  0
 71 75  1  0  0  0
 71149  1  0  0  0
 72 74  1  0  0  0
 72 84  2  0  0  0
 72150  1  0  0  0
 73 75  2  0  0  0
 73 84  1  0  0  0
 73151  1  0  0  0
 74 83  1  0  0  0
 75 85  1  0  0  0
 76 80  1  0  0  0
 76 87  2  0  0  0
 76 83  1  0  0  0
 77 81  1  0  0  0
 77 82  1  0  0  0
 77 88  2  0  0  0
 78 83  1  0  0  0
 78 86  1  0  0  0
 78 89  2  0  0  0
 79 80  1  0  0  0
 79152  1  0  0  0
 79153  1  0  0  0
 79154  1  0  0  0
 80155  1  0  0  0
 80156  1  0  0  0
 81 85  1  0  0  0
 81157  1  0  0  0
 81158  1  0  0  0
 82159  1  0  0  0
 82160  1  0  0  0
 83161  1  0  0  0
 85162  1  0  0  0
 86163  1  0  0  0
M  ISO  4   1 100  68 101  82 101  86 100
M  END
> <chiral flag>
0

> <version>
0

> <s_m_source_file>
/data/baiqing/PycharmProjects/Reinvent-master-3.2/result/LINK_invent/BTK/process_docking_weight1_custom_product_contain_oxygen_bond_distance_aromatic_linkinvent_7_9_3/rearranged_h_0162.sdf

> <i_m_source_file_index>
64

> <r_mmod_Potential_Energy-OPLS-2005>
-137.308227539062

> <r_mmod_Stretch_Energy-OPLS-2005>
35.7660179138184

> <r_mmod_Bend_Energy-OPLS-2005>
119.30101776123

> <r_mmod_Torsional_Energy-OPLS-2005>
286.779602050781

> <r_mmod_Improper_Torsional_Energy-OPLS-2005>
4.65075826644897

> <r_mmod_Van_der_Waal_Energy-OPLS-2005>
157.478057861328

> <r_mmod_Electrostatic_Energy-OPLS-2005>
-499.3828125

> <r_mmod_Solvation_Energy-OPLS-2005>
-253.728454589844

> <b_mmod_Minimization_Converged-OPLS-2005>
0

> <r_mmod_RMS_Derivative-OPLS-2005>
1.85972428321838

$$$$
64
                    3D
 Structure written by MMmdl.
158166  0  0  1  0            999 V2000
  -30.6482  -14.4828   20.5816 C   0  0  0  0  0  0
  -30.4367  -12.3188   19.4121 C   0  0  0  0  0  0
  -29.5016  -12.5124   18.1961 C   0  0  0  0  0  0
  -28.0204  -12.3635   18.6043 C   0  0  0  0  0  0
  -27.6608  -13.1935   19.8647 C   0  0  2  0  0  0
  -28.6998  -12.9492   20.9846 C   0  0  0  0  0  0
  -25.2604  -13.8114   20.5584 C   0  0  0  0  0  0
  -24.1858  -13.0421   20.9185 C   0  0  0  0  0  0
  -24.6398  -11.6888   20.8756 C   0  0  0  0  0  0
  -23.9043  -10.4287   21.0450 C   0  0  0  0  0  0
  -24.3612   -9.4183   21.9204 C   0  0  0  0  0  0
  -23.6290   -8.2220   22.0759 C   0  0  0  0  0  0
  -22.4269   -8.0277   21.3556 C   0  0  0  0  0  0
  -21.9909   -9.0243   20.4655 C   0  0  0  0  0  0
  -22.7230  -10.2123   20.3076 C   0  0  0  0  0  0
  -21.6829   -6.0739   22.5292 C   0  0  0  0  0  0
  -21.3991   -6.5648   23.8213 C   0  0  0  0  0  0
  -21.3656   -5.6804   24.9185 C   0  0  0  0  0  0
  -21.6026   -4.3065   24.7231 C   0  0  0  0  0  0
  -21.8828   -3.8157   23.4361 C   0  0  0  0  0  0
  -21.9188   -4.6973   22.3415 C   0  0  0  0  0  0
  -22.7905  -13.5246   21.1868 C   0  0  0  0  0  0
  -22.1674   -4.2161   21.0996 F   0  0  0  0  0  0
  -21.5628   -3.4548   25.7745 F   0  0  0  0  0  0
  -30.0276  -13.2793   20.4454 N   0  0  0  0  0  0
  -26.3002  -12.9243   20.3239 N   0  0  0  0  0  0
  -25.9303  -11.6423   20.5716 N   0  0  0  0  0  0
  -22.0533  -12.8227   22.0405 N   0  0  0  0  0  0
  -25.4351  -15.1809   20.3878 N   0  0  0  0  0  0
  -31.7811  -14.7298   20.1386 O   0  0  0  0  0  0
  -21.6626   -6.8884   21.4253 O   0  0  0  0  0  0
  -22.3628  -14.5581   20.6753 O   0  0  0  0  0  0
  -24.6138  -31.8660   23.2077 C   0  0  0  0  0  0
  -25.9014  -32.4820   23.8369 C   0  0  1  0  0  0
  -27.2286  -27.4288   20.0851 C   0  0  0  0  0  0
  -25.5871  -33.8627   24.2299 N   0  0  0  0  0  0
  -23.4009  -30.4900   21.5486 C   0  0  2  0  0  0
  -24.8457  -28.9516   20.1117 C   0  0  0  0  0  0
  -22.7392  -29.4658   22.4974 C   0  0  0  0  0  0
  -18.0270  -28.1389   22.8516 C   0  0  0  0  0  0
  -24.1483  -36.7340   23.2635 C   0  0  0  0  0  0
  -25.9298  -30.8277   21.3617 C   0  0  0  0  0  0
  -26.0057  -29.4616   20.7103 C   0  0  0  0  0  0
  -27.2001  -28.7058   20.6940 C   0  0  0  0  0  0
  -26.0564  -26.9375   19.4755 C   0  0  0  0  0  0
  -24.8652  -27.6898   19.4928 C   0  0  0  0  0  0
  -23.6066  -29.8169   20.1638 C   0  0  0  0  0  0
  -25.4107  -36.3120   24.0315 C   0  0  1  0  0  0
  -20.5867  -28.3671   23.1327 C   0  0  2  0  0  0
  -20.6767  -26.9402   22.5430 C   0  0  0  0  0  0
  -19.5736  -26.6401   21.5229 C   0  0  0  0  0  0
  -18.1917  -26.7937   22.1644 C   0  0  0  0  0  0
  -19.1521  -28.8846   23.2931 C   0  0  0  0  0  0
  -18.9443  -30.1464   23.8910 C   0  0  0  0  0  0
  -17.6443  -30.6593   24.0584 C   0  0  0  0  0  0
  -25.9043  -34.9484   23.5122 C   0  0  0  0  0  0
  -16.5343  -29.9089   23.6346 C   0  0  0  0  0  0
  -16.7259  -28.6526   23.0341 C   0  0  0  0  0  0
  -26.4437  -31.6607   25.0712 C   0  0  0  0  0  0
  -25.3694  -31.3723   26.1459 C   0  0  0  0  0  0
  -27.0265  -30.3050   24.6108 C   0  0  0  0  0  0
  -27.6019  -32.4332   25.7461 C   0  0  0  0  0  0
  -27.5580  -37.1816   24.8453 C   0  0  0  0  0  0
  -21.4122  -29.3034   22.3712 N   0  0  0  0  0  0
  -26.4301  -37.3797   23.9388 N   0  0  0  0  0  0
  -24.6664  -31.0764   22.0979 N   0  0  0  0  0  0
  -23.4180  -28.8194   23.3001 O   0  0  0  0  0  0
  -28.3900  -26.6823   20.0787 O   0  0  0  0  0  0
  -26.5620  -34.8914   22.4681 O   0  0  0  0  0  0
  -23.5332  -32.1410   23.7477 O   0  0  0  0  0  0
  -28.7336  -19.5964   19.6984 C   0  0  0  0  0  0
  -28.7891  -19.1807   21.0151 C   0  0  0  0  0  0
  -28.4177  -21.6132   20.7136 C   0  0  0  0  0  0
  -30.0318  -16.8981   21.0678 C   0  0  0  0  0  0
  -28.8272  -18.7401   18.4719 C   0  0  0  0  0  0
  -27.6475  -25.5741   22.1750 C   0  0  0  0  0  0
  -28.9210  -17.7873   21.5929 C   0  0  0  0  0  0
  -28.0610  -24.1633   20.0477 C   0  0  0  0  0  0
  -28.4182  -25.4559   20.8415 C   0  0  1  0  0  0
  -28.5341  -20.9817   19.5458 N   0  0  0  0  0  0
  -28.2153  -22.9761   20.8885 N   0  0  0  0  0  0
  -29.8039  -15.5517   21.0731 N   0  0  0  0  0  0
  -31.1951  -17.4777   20.6952 N   0  3  0  0  0  0
  -28.5504  -20.5372   22.0961 S   0  0  0  0  0  0
  -31.4804  -12.4502   19.1174 H   0  0  0  0  0  0
  -30.3596  -11.2995   19.7971 H   0  0  0  0  0  0
  -29.7492  -11.7897   17.4164 H   0  0  0  0  0  0
  -29.6663  -13.4982   17.7567 H   0  0  0  0  0  0
  -27.8336  -11.3065   18.7988 H   0  0  0  0  0  0
  -27.3729  -12.6396   17.7697 H   0  0  0  0  0  0
  -27.7052  -14.2408   19.5657 H   0  0  0  0  0  0
  -28.6789  -11.9005   21.2889 H   0  0  0  0  0  0
  -28.4542  -13.5108   21.8868 H   0  0  0  0  0  0
  -25.2765   -9.5640   22.4760 H   0  0  0  0  0  0
  -24.0002   -7.4597   22.7463 H   0  0  0  0  0  0
  -21.0843   -8.8763   19.8946 H   0  0  0  0  0  0
  -22.3711  -10.9673   19.6186 H   0  0  0  0  0  0
  -21.1972   -7.6152   23.9723 H   0  0  0  0  0  0
  -21.1469   -6.0540   25.9085 H   0  0  0  0  0  0
  -22.0610   -2.7622   23.2858 H   0  0  0  0  0  0
  -22.4167  -11.9868   22.4743 H   0  0  0  0  0  0
  -21.1160  -13.1275   22.2615 H   0  0  0  0  0  0
  -24.6308  -15.7998   20.4085 H   0  0  0  0  0  0
  -26.1922  -15.5526   19.8304 H   0  0  0  0  0  0
  -26.7078  -32.5535   23.1130 H   0  0  0  0  0  0
  -24.9975  -33.9773   25.0408 H   0  0  0  0  0  0
  -22.6921  -31.3084   21.4058 H   0  0  0  0  0  0
  -23.3737  -35.9690   23.3323 H   0  0  0  0  0  0
  -24.3579  -36.8956   22.2058 H   0  0  0  0  0  0
  -23.7259  -37.6549   23.6648 H   0  0  0  0  0  0
  -26.0405  -31.5914   20.5927 H   0  0  0  0  0  0
  -26.8204  -30.8877   21.9749 H   0  0  0  0  0  0
  -28.0969  -29.0908   21.1584 H   0  0  0  0  0  0
  -26.0625  -25.9833   18.9736 H   0  0  0  0  0  0
  -23.9766  -27.2959   19.0186 H   0  0  0  0  0  0
  -23.7049  -30.5866   19.3984 H   0  0  0  0  0  0
  -22.7331  -29.2284   19.8772 H   0  0  0  0  0  0
  -25.1290  -36.1985   25.0812 H   0  0  0  0  0  0
  -20.9988  -28.3240   24.1437 H   0  0  0  0  0  0
  -20.5690  -26.2266   23.3612 H   0  0  0  0  0  0
  -21.6631  -26.7455   22.1198 H   0  0  0  0  0  0
  -19.6891  -25.6317   21.1240 H   0  0  0  0  0  0
  -19.6673  -27.3238   20.6776 H   0  0  0  0  0  0
  -17.4190  -26.6713   21.4045 H   0  0  0  0  0  0
  -18.0302  -26.0074   22.9031 H   0  0  0  0  0  0
  -19.7915  -30.7298   24.2272 H   0  0  0  0  0  0
  -17.4987  -31.6264   24.5189 H   0  0  0  0  0  0
  -15.5344  -30.2984   23.7651 H   0  0  0  0  0  0
  -15.8676  -28.0853   22.7004 H   0  0  0  0  0  0
  -24.5859  -30.7082   25.7781 H   0  0  0  0  0  0
  -24.8878  -32.2892   26.4890 H   0  0  0  0  0  0
  -25.8039  -30.8891   27.0224 H   0  0  0  0  0  0
  -26.2819  -29.6830   24.1151 H   0  0  0  0  0  0
  -27.4011  -29.7278   25.4562 H   0  0  0  0  0  0
  -27.8642  -30.4366   23.9270 H   0  0  0  0  0  0
  -27.2645  -33.3625   26.2053 H   0  0  0  0  0  0
  -28.3798  -32.6923   25.0272 H   0  0  0  0  0  0
  -28.0706  -31.8459   26.5361 H   0  0  0  0  0  0
  -28.2600  -38.0113   24.7519 H   0  0  0  0  0  0
  -28.1082  -36.2658   24.6269 H   0  0  0  0  0  0
  -27.2298  -37.1442   25.8853 H   0  0  0  0  0  0
  -20.9257  -29.8768   21.6956 H   0  0  0  0  0  0
  -26.0207  -38.2876   24.1397 H   0  0  0  0  0  0
  -29.6516  -18.0322   18.5289 H   0  0  0  0  0  0
  -28.9810  -19.3377   17.5714 H   0  0  0  0  0  0
  -27.9152  -18.1619   18.3278 H   0  0  0  0  0  0
  -27.9155  -24.7770   22.8661 H   0  0  0  0  0  0
  -26.5681  -25.5222   22.0233 H   0  0  0  0  0  0
  -27.8728  -26.5133   22.6791 H   0  0  0  0  0  0
  -27.9642  -17.2803   21.4566 H   0  0  0  0  0  0
  -29.0494  -17.8584   22.6744 H   0  0  0  0  0  0
  -28.7014  -24.0662   19.1682 H   0  0  0  0  0  0
  -27.0346  -24.1990   19.6841 H   0  0  0  0  0  0
  -29.4688  -25.3535   21.1160 H   0  0  0  0  0  0
  -28.1274  -23.2122   21.8710 H   0  0  0  0  0  0
  -28.8904  -15.3201   21.4279 H   0  0  0  0  0  0
  -31.3292  -18.4772   20.7706 H   0  0  0  0  0  0
  -31.9716  -16.9225   20.3519 H   0  0  0  0  0  0
  1 25  1  0  0  0
  1 30  2  0  0  0
  1 82  1  0  0  0
  2  3  1  0  0  0
  2 25  1  0  0  0
  2 85  1  0  0  0
  2 86  1  0  0  0
  3  4  1  0  0  0
  3 87  1  0  0  0
  3 88  1  0  0  0
  4  5  1  0  0  0
  4 89  1  0  0  0
  4 90  1  0  0  0
  5  6  1  0  0  0
  5 26  1  0  0  0
  5 91  1  0  0  0
  6 25  1  0  0  0
  6 92  1  0  0  0
  6 93  1  0  0  0
  7  8  2  0  0  0
  7 26  1  0  0  0
  7 29  1  0  0  0
  8  9  1  0  0  0
  8 22  1  0  0  0
  9 10  1  0  0  0
  9 27  2  0  0  0
 10 11  2  0  0  0
 10 15  1  0  0  0
 11 12  1  0  0  0
 11 94  1  0  0  0
 12 13  2  0  0  0
 12 95  1  0  0  0
 13 14  1  0  0  0
 13 31  1  0  0  0
 14 15  2  0  0  0
 14 96  1  0  0  0
 15 97  1  0  0  0
 16 17  2  0  0  0
 16 21  1  0  0  0
 16 31  1  0  0  0
 17 18  1  0  0  0
 17 98  1  0  0  0
 18 19  2  0  0  0
 18 99  1  0  0  0
 19 20  1  0  0  0
 19 24  1  0  0  0
 20 21  2  0  0  0
 20100  1  0  0  0
 21 23  1  0  0  0
 22 28  1  0  0  0
 22 32  2  0  0  0
 26 27  1  0  0  0
 28101  1  0  0  0
 28102  1  0  0  0
 29103  1  0  0  0
 29104  1  0  0  0
 33 34  1  0  0  0
 33 66  1  0  0  0
 33 70  2  0  0  0
 34 36  1  0  0  0
 34 59  1  0  0  0
 34105  1  0  0  0
 35 44  2  0  0  0
 35 45  1  0  0  0
 35 68  1  0  0  0
 36 56  1  0  0  0
 36106  1  0  0  0
 37 39  1  0  0  0
 37 47  1  0  0  0
 37 66  1  0  0  0
 37107  1  0  0  0
 38 43  2  0  0  0
 38 46  1  0  0  0
 38 47  1  0  0  0
 39 64  1  0  0  0
 39 67  2  0  0  0
 40 52  1  0  0  0
 40 53  2  0  0  0
 40 58  1  0  0  0
 41108  1  0  0  0
 41109  1  0  0  0
 41110  1  0  0  0
 41 48  1  0  0  0
 42 43  1  0  0  0
 42 66  1  0  0  0
 42111  1  0  0  0
 42112  1  0  0  0
 43 44  1  0  0  0
 44113  1  0  0  0
 45 46  2  0  0  0
 45114  1  0  0  0
 46115  1  0  0  0
 47116  1  0  0  0
 47117  1  0  0  0
 48 56  1  0  0  0
 48 65  1  0  0  0
 48118  1  0  0  0
 49 50  1  0  0  0
 49 53  1  0  0  0
 49 64  1  0  0  0
 49119  1  0  0  0
 50 51  1  0  0  0
 50120  1  0  0  0
 50121  1  0  0  0
 51 52  1  0  0  0
 51122  1  0  0  0
 51123  1  0  0  0
 52124  1  0  0  0
 52125  1  0  0  0
 53 54  1  0  0  0
 54 55  2  0  0  0
 54126  1  0  0  0
 55 57  1  0  0  0
 55127  1  0  0  0
 56 69  2  0  0  0
 57 58  2  0  0  0
 57128  1  0  0  0
 58129  1  0  0  0
 59 60  1  0  0  0
 59 61  1  0  0  0
 59 62  1  0  0  0
 60130  1  0  0  0
 60131  1  0  0  0
 60132  1  0  0  0
 61133  1  0  0  0
 61134  1  0  0  0
 61135  1  0  0  0
 62136  1  0  0  0
 62137  1  0  0  0
 62138  1  0  0  0
 63 65  1  0  0  0
 63139  1  0  0  0
 63140  1  0  0  0
 63141  1  0  0  0
 64142  1  0  0  0
 65143  1  0  0  0
 68 79  1  0  0  0
 71 72  2  0  0  0
 71 75  1  0  0  0
 71 80  1  0  0  0
 72 77  1  0  0  0
 72 84  1  0  0  0
 73 80  2  0  0  0
 73 81  1  0  0  0
 73 84  1  0  0  0
 74 77  1  0  0  0
 74 82  1  0  0  0
 74 83  2  0  0  0
 75144  1  0  0  0
 75145  1  0  0  0
 75146  1  0  0  0
 76147  1  0  0  0
 76148  1  0  0  0
 76149  1  0  0  0
 76 79  1  0  0  0
 77150  1  0  0  0
 77151  1  0  0  0
 78 79  1  0  0  0
 78 81  1  0  0  0
 78152  1  0  0  0
 78153  1  0  0  0
 79154  1  0  0  0
 81155  1  0  0  0
 82156  1  0  0  0
 83157  1  0  0  0
 83158  1  0  0  0
M  CHG  1  83   1
M  ISO  4   1 100  68 101  79 101  82 100
M  END
> <chiral flag>
0

> <version>
0

> <s_m_source_file>
/data/baiqing/PycharmProjects/Reinvent-master-3.2/result/LINK_invent/BTK/process_docking_weight1_custom_product_contain_oxygen_bond_distance_aromatic_linkinvent_7_9_3/rearranged_h_0162.sdf

> <i_m_source_file_index>
65

> <r_mmod_Potential_Energy-OPLS-2005>
-227.271881103516

> <r_mmod_Stretch_Energy-OPLS-2005>
38.2691917419434

> <r_mmod_Bend_Energy-OPLS-2005>
110.695610046387

> <r_mmod_Torsional_Energy-OPLS-2005>
224.309967041016

> <r_mmod_Improper_Torsional_Energy-OPLS-2005>
7.44765090942383

> <r_mmod_Van_der_Waal_Energy-OPLS-2005>
126.224006652832

> <r_mmod_Electrostatic_Energy-OPLS-2005>
-281.520599365234

> <r_mmod_Solvation_Energy-OPLS-2005>
-467.074432373047

> <b_mmod_Minimization_Converged-OPLS-2005>
0

> <r_mmod_RMS_Derivative-OPLS-2005>
3.45750546455383

$$$$
65
                    3D
 Structure written by MMmdl.
146154  0  0  1  0            999 V2000
  -30.5821  -14.7957   20.4549 C   0  0  0  0  0  0
  -30.4413  -12.4838   19.4865 C   0  0  0  0  0  0
  -29.5181  -12.5182   18.2463 C   0  0  0  0  0  0
  -28.0443  -12.3327   18.6572 C   0  0  0  0  0  0
  -27.6445  -13.2331   19.8561 C   0  0  2  0  0  0
  -28.6885  -13.1721   20.9941 C   0  0  0  0  0  0
  -25.2518  -13.8195   20.5703 C   0  0  0  0  0  0
  -24.1810  -13.0440   20.9210 C   0  0  0  0  0  0
  -24.6404  -11.6918   20.8750 C   0  0  0  0  0  0
  -23.9080  -10.4293   21.0406 C   0  0  0  0  0  0
  -24.3628   -9.4209   21.9185 C   0  0  0  0  0  0
  -23.6299   -8.2245   22.0754 C   0  0  0  0  0  0
  -22.4279   -8.0285   21.3546 C   0  0  0  0  0  0
  -21.9920   -9.0260   20.4647 C   0  0  0  0  0  0
  -22.7252  -10.2136   20.3058 C   0  0  0  0  0  0
  -21.6853   -6.0741   22.5280 C   0  0  0  0  0  0
  -21.4015   -6.5643   23.8215 C   0  0  0  0  0  0
  -21.3658   -5.6793   24.9175 C   0  0  0  0  0  0
  -21.6043   -4.3056   24.7225 C   0  0  0  0  0  0
  -21.8818   -3.8152   23.4345 C   0  0  0  0  0  0
  -21.9193   -4.6969   22.3402 C   0  0  0  0  0  0
  -22.7828  -13.5221   21.1865 C   0  0  0  0  0  0
  -22.1660   -4.2155   21.0979 F   0  0  0  0  0  0
  -21.5629   -3.4541   25.7738 F   0  0  0  0  0  0
  -29.9895  -13.5456   20.4211 N   0  0  0  0  0  0
  -26.2950  -12.9405   20.3301 N   0  0  0  0  0  0
  -25.9340  -11.6547   20.5770 N   0  0  0  0  0  0
  -22.0473  -12.8211   22.0416 N   0  0  0  0  0  0
  -25.4200  -15.1925   20.4110 N   0  0  0  0  0  0
  -31.7533  -14.9100   20.0757 O   0  0  0  0  0  0
  -21.6639   -6.8885   21.4242 O   0  0  0  0  0  0
  -22.3515  -14.5527   20.6710 O   0  0  0  0  0  0
  -24.6355  -31.8516   23.1967 C   0  0  0  0  0  0
  -25.9168  -32.4735   23.8321 C   0  0  1  0  0  0
  -27.2175  -27.2183   20.1307 C   0  0  0  0  0  0
  -25.5952  -33.8541   24.2244 N   0  0  0  0  0  0
  -23.4345  -30.4749   21.5404 C   0  0  2  0  0  0
  -24.8827  -28.9194   20.1070 C   0  0  0  0  0  0
  -22.7523  -29.4586   22.4890 C   0  0  0  0  0  0
  -18.0298  -28.1387   22.8485 C   0  0  0  0  0  0
  -24.1493  -36.7270   23.2640 C   0  0  0  0  0  0
  -25.9850  -30.7495   21.3861 C   0  0  0  0  0  0
  -26.0555  -29.3691   20.7262 C   0  0  0  0  0  0
  -27.2225  -28.5303   20.7307 C   0  0  0  0  0  0
  -26.0247  -26.8614   19.4590 C   0  0  0  0  0  0
  -24.8757  -27.6754   19.4614 C   0  0  0  0  0  0
  -23.6554  -29.8110   20.1560 C   0  0  0  0  0  0
  -25.4123  -36.3059   24.0322 C   0  0  1  0  0  0
  -20.5904  -28.3707   23.1253 C   0  0  2  0  0  0
  -20.6783  -26.9417   22.5405 C   0  0  0  0  0  0
  -19.5759  -26.6382   21.5210 C   0  0  0  0  0  0
  -18.1939  -26.7931   22.1622 C   0  0  0  0  0  0
  -19.1553  -28.8866   23.2863 C   0  0  0  0  0  0
  -18.9471  -30.1463   23.8885 C   0  0  0  0  0  0
  -17.6468  -30.6586   24.0562 C   0  0  0  0  0  0
  -25.9065  -34.9429   23.5084 C   0  0  0  0  0  0
  -16.5359  -29.9080   23.6334 C   0  0  0  0  0  0
  -16.7284  -28.6498   23.0357 C   0  0  0  0  0  0
  -26.4521  -31.6573   25.0726 C   0  0  0  0  0  0
  -25.3728  -31.3734   26.1434 C   0  0  0  0  0  0
  -27.0378  -30.2980   24.6253 C   0  0  0  0  0  0
  -27.6070  -32.4322   25.7502 C   0  0  0  0  0  0
  -27.5579  -37.1795   24.8468 C   0  0  0  0  0  0
  -21.4225  -29.3043   22.3633 N   0  0  0  0  0  0
  -26.4294  -37.3759   23.9406 N   0  0  0  0  0  0
  -24.7041  -31.0444   22.0967 N   0  0  0  0  0  0
  -23.4204  -28.8125   23.3006 O   0  0  0  0  0  0
  -28.2881  -26.2806   20.2218 O   0  0  0  0  0  0
  -26.5632  -34.8909   22.4652 O   0  0  0  0  0  0
  -23.5496  -32.1364   23.7234 O   0  0  0  0  0  0
  -29.5605  -19.5307   20.4304 C   0  0  0  0  0  0
  -29.9026  -17.3527   20.5109 C   0  0  0  0  0  0
  -28.8729  -23.6179   20.5461 C   0  0  0  0  0  0
  -28.9713  -22.1257   19.9133 C   0  0  0  0  0  0
  -28.0708  -24.8241   19.8211 C   0  0  0  0  0  0
  -29.2184  -18.3710   21.1291 N   0  0  0  0  0  0
  -30.3788  -19.2667   19.4135 N   0  0  0  0  0  0
  -29.1038  -20.8835   20.7999 N   0  0  0  0  0  0
  -29.8031  -15.8956   20.8071 N   0  0  0  0  0  0
  -29.4176  -23.8236   21.6358 O   0  0  0  0  0  0
  -30.6204  -17.8615   19.4692 O   0  0  0  0  0  0
  -31.4812  -12.6171   19.1830 H   0  0  0  0  0  0
  -30.3982  -11.5075   19.9717 H   0  0  0  0  0  0
  -29.8082  -11.7417   17.5371 H   0  0  0  0  0  0
  -29.6373  -13.4688   17.7241 H   0  0  0  0  0  0
  -27.9077  -11.2842   18.9239 H   0  0  0  0  0  0
  -27.3862  -12.5180   17.8072 H   0  0  0  0  0  0
  -27.6365  -14.2541   19.4738 H   0  0  0  0  0  0
  -28.7341  -12.1712   21.4257 H   0  0  0  0  0  0
  -28.4109  -13.8400   21.8105 H   0  0  0  0  0  0
  -25.2775   -9.5680   22.4759 H   0  0  0  0  0  0
  -24.0008   -7.4636   22.7474 H   0  0  0  0  0  0
  -21.0852   -8.8785   19.8951 H   0  0  0  0  0  0
  -22.3720  -10.9676   19.6165 H   0  0  0  0  0  0
  -21.2004   -7.6151   23.9720 H   0  0  0  0  0  0
  -21.1480   -6.0523   25.9077 H   0  0  0  0  0  0
  -22.0598   -2.7615   23.2845 H   0  0  0  0  0  0
  -22.4094  -11.9872   22.4801 H   0  0  0  0  0  0
  -21.1089  -13.1228   22.2619 H   0  0  0  0  0  0
  -24.6468  -15.8410   20.5143 H   0  0  0  0  0  0
  -26.2569  -15.6320   20.0506 H   0  0  0  0  0  0
  -26.7230  -32.5367   23.1054 H   0  0  0  0  0  0
  -25.0113  -33.9675   25.0401 H   0  0  0  0  0  0
  -22.7331  -31.2986   21.3932 H   0  0  0  0  0  0
  -23.3756  -35.9599   23.3305 H   0  0  0  0  0  0
  -24.3581  -36.8892   22.2053 H   0  0  0  0  0  0
  -23.7245  -37.6471   23.6666 H   0  0  0  0  0  0
  -26.1334  -31.5091   20.6176 H   0  0  0  0  0  0
  -26.8586  -30.7956   22.0245 H   0  0  0  0  0  0
  -28.1141  -28.8653   21.2421 H   0  0  0  0  0  0
  -25.9371  -25.9247   18.9312 H   0  0  0  0  0  0
  -23.9821  -27.3312   18.9587 H   0  0  0  0  0  0
  -23.7840  -30.5890   19.4025 H   0  0  0  0  0  0
  -22.7726  -29.2480   19.8479 H   0  0  0  0  0  0
  -25.1310  -36.1900   25.0812 H   0  0  0  0  0  0
  -21.0002  -28.3290   24.1373 H   0  0  0  0  0  0
  -20.5682  -26.2317   23.3616 H   0  0  0  0  0  0
  -21.6650  -26.7432   22.1201 H   0  0  0  0  0  0
  -19.6918  -25.6291   21.1247 H   0  0  0  0  0  0
  -19.6697  -27.3186   20.6737 H   0  0  0  0  0  0
  -17.4209  -26.6683   21.4021 H   0  0  0  0  0  0
  -18.0335  -26.0068   22.9017 H   0  0  0  0  0  0
  -19.7945  -30.7284   24.2245 H   0  0  0  0  0  0
  -17.5020  -31.6265   24.5165 H   0  0  0  0  0  0
  -15.5359  -30.2977   23.7663 H   0  0  0  0  0  0
  -15.8686  -28.0810   22.7081 H   0  0  0  0  0  0
  -24.5925  -30.7057   25.7764 H   0  0  0  0  0  0
  -24.8892  -32.2902   26.4815 H   0  0  0  0  0  0
  -25.8034  -30.8950   27.0239 H   0  0  0  0  0  0
  -26.2976  -29.6712   24.1264 H   0  0  0  0  0  0
  -27.4025  -29.7265   25.4799 H   0  0  0  0  0  0
  -27.8872  -30.4241   23.9536 H   0  0  0  0  0  0
  -27.2681  -33.3639   26.2043 H   0  0  0  0  0  0
  -28.3897  -32.6849   25.0337 H   0  0  0  0  0  0
  -28.0714  -31.8464   26.5445 H   0  0  0  0  0  0
  -28.2600  -38.0089   24.7505 H   0  0  0  0  0  0
  -28.1072  -36.2617   24.6309 H   0  0  0  0  0  0
  -27.2292  -37.1461   25.8870 H   0  0  0  0  0  0
  -20.9416  -29.8765   21.6834 H   0  0  0  0  0  0
  -26.0169  -38.2831   24.1401 H   0  0  0  0  0  0
  -29.8170  -22.1324   19.2249 H   0  0  0  0  0  0
  -28.0893  -21.9888   19.2869 H   0  0  0  0  0  0
  -27.0287  -24.5649   19.9996 H   0  0  0  0  0  0
  -28.2294  -24.7384   18.7462 H   0  0  0  0  0  0
  -28.5212  -20.9060   21.6293 H   0  0  0  0  0  0
  -28.9444  -15.6428   21.2640 H   0  0  0  0  0  0
  1 25  1  0  0  0
  1 30  2  0  0  0
  1 79  1  0  0  0
  2  3  1  0  0  0
  2 25  1  0  0  0
  2 82  1  0  0  0
  2 83  1  0  0  0
  3  4  1  0  0  0
  3 84  1  0  0  0
  3 85  1  0  0  0
  4  5  1  0  0  0
  4 86  1  0  0  0
  4 87  1  0  0  0
  5  6  1  0  0  0
  5 26  1  0  0  0
  5 88  1  0  0  0
  6 25  1  0  0  0
  6 89  1  0  0  0
  6 90  1  0  0  0
  7  8  2  0  0  0
  7 26  1  0  0  0
  7 29  1  0  0  0
  8  9  1  0  0  0
  8 22  1  0  0  0
  9 10  1  0  0  0
  9 27  2  0  0  0
 10 11  2  0  0  0
 10 15  1  0  0  0
 11 12  1  0  0  0
 11 91  1  0  0  0
 12 13  2  0  0  0
 12 92  1  0  0  0
 13 14  1  0  0  0
 13 31  1  0  0  0
 14 15  2  0  0  0
 14 93  1  0  0  0
 15 94  1  0  0  0
 16 17  2  0  0  0
 16 21  1  0  0  0
 16 31  1  0  0  0
 17 18  1  0  0  0
 17 95  1  0  0  0
 18 19  2  0  0  0
 18 96  1  0  0  0
 19 20  1  0  0  0
 19 24  1  0  0  0
 20 21  2  0  0  0
 20 97  1  0  0  0
 21 23  1  0  0  0
 22 28  1  0  0  0
 22 32  2  0  0  0
 26 27  1  0  0  0
 28 98  1  0  0  0
 28 99  1  0  0  0
 29100  1  0  0  0
 29101  1  0  0  0
 33 34  1  0  0  0
 33 66  1  0  0  0
 33 70  2  0  0  0
 34 36  1  0  0  0
 34 59  1  0  0  0
 34102  1  0  0  0
 35 44  2  0  0  0
 35 45  1  0  0  0
 35 68  1  0  0  0
 36 56  1  0  0  0
 36103  1  0  0  0
 37 39  1  0  0  0
 37 47  1  0  0  0
 37 66  1  0  0  0
 37104  1  0  0  0
 38 43  2  0  0  0
 38 46  1  0  0  0
 38 47  1  0  0  0
 39 64  1  0  0  0
 39 67  2  0  0  0
 40 52  1  0  0  0
 40 53  2  0  0  0
 40 58  1  0  0  0
 41105  1  0  0  0
 41106  1  0  0  0
 41107  1  0  0  0
 41 48  1  0  0  0
 42 43  1  0  0  0
 42 66  1  0  0  0
 42108  1  0  0  0
 42109  1  0  0  0
 43 44  1  0  0  0
 44110  1  0  0  0
 45 46  2  0  0  0
 45111  1  0  0  0
 46112  1  0  0  0
 47113  1  0  0  0
 47114  1  0  0  0
 48 56  1  0  0  0
 48 65  1  0  0  0
 48115  1  0  0  0
 49 50  1  0  0  0
 49 53  1  0  0  0
 49 64  1  0  0  0
 49116  1  0  0  0
 50 51  1  0  0  0
 50117  1  0  0  0
 50118  1  0  0  0
 51 52  1  0  0  0
 51119  1  0  0  0
 51120  1  0  0  0
 52121  1  0  0  0
 52122  1  0  0  0
 53 54  1  0  0  0
 54 55  2  0  0  0
 54123  1  0  0  0
 55 57  1  0  0  0
 55124  1  0  0  0
 56 69  2  0  0  0
 57 58  2  0  0  0
 57125  1  0  0  0
 58126  1  0  0  0
 59 60  1  0  0  0
 59 61  1  0  0  0
 59 62  1  0  0  0
 60127  1  0  0  0
 60128  1  0  0  0
 60129  1  0  0  0
 61130  1  0  0  0
 61131  1  0  0  0
 61132  1  0  0  0
 62133  1  0  0  0
 62134  1  0  0  0
 62135  1  0  0  0
 63 65  1  0  0  0
 63136  1  0  0  0
 63137  1  0  0  0
 63138  1  0  0  0
 64139  1  0  0  0
 65140  1  0  0  0
 68 75  1  0  0  0
 71 76  1  0  0  0
 71 77  2  0  0  0
 71 78  1  0  0  0
 72 76  2  0  0  0
 72 79  1  0  0  0
 72 81  1  0  0  0
 73 74  1  0  0  0
 73 75  1  0  0  0
 73 80  2  0  0  0
 74 78  1  0  0  0
 74141  1  0  0  0
 74142  1  0  0  0
 75143  1  0  0  0
 75144  1  0  0  0
 77 81  1  0  0  0
 78145  1  0  0  0
 79146  1  0  0  0
M  ISO  4   1 100  68 101  75 101  79 100
M  END
> <chiral flag>
0

> <version>
0

> <s_m_source_file>
/data/baiqing/PycharmProjects/Reinvent-master-3.2/result/LINK_invent/BTK/process_docking_weight1_custom_product_contain_oxygen_bond_distance_aromatic_linkinvent_7_9_3/rearranged_h_0162.sdf

> <i_m_source_file_index>
66

> <r_mmod_Potential_Energy-OPLS-2005>
-23.1168823242188

> <r_mmod_Stretch_Energy-OPLS-2005>
138.633026123047

> <r_mmod_Bend_Energy-OPLS-2005>
188.300918579102

> <r_mmod_Torsional_Energy-OPLS-2005>
200.758377075195

> <r_mmod_Improper_Torsional_Energy-OPLS-2005>
4.72122001647949

> <r_mmod_Van_der_Waal_Energy-OPLS-2005>
117.893676757812

> <r_mmod_Electrostatic_Energy-OPLS-2005>
-514.26708984375

> <r_mmod_Solvation_Energy-OPLS-2005>
-271.164642333984

> <b_mmod_Minimization_Converged-OPLS-2005>
0

> <r_mmod_RMS_Derivative-OPLS-2005>
0.713410973548889

$$$$
66
                    3D
 Structure written by MMmdl.
160168  0  0  1  0            999 V2000
  -30.6464  -14.7272   20.4209 C   0  0  0  0  0  0
  -30.4061  -12.4358   19.4842 C   0  0  0  0  0  0
  -29.4952  -12.4938   18.2402 C   0  0  0  0  0  0
  -28.0233  -12.3203   18.6554 C   0  0  0  0  0  0
  -27.6299  -13.2383   19.8431 C   0  0  2  0  0  0
  -28.6722  -13.2113   20.9811 C   0  0  0  0  0  0
  -25.2465  -13.8237   20.5742 C   0  0  0  0  0  0
  -24.1771  -13.0447   20.9238 C   0  0  0  0  0  0
  -24.6368  -11.6924   20.8765 C   0  0  0  0  0  0
  -23.9052  -10.4302   21.0420 C   0  0  0  0  0  0
  -24.3624   -9.4219   21.9192 C   0  0  0  0  0  0
  -23.6307   -8.2244   22.0747 C   0  0  0  0  0  0
  -22.4283   -8.0287   21.3539 C   0  0  0  0  0  0
  -21.9922   -9.0257   20.4627 C   0  0  0  0  0  0
  -22.7240  -10.2144   20.3047 C   0  0  0  0  0  0
  -21.6851   -6.0736   22.5280 C   0  0  0  0  0  0
  -21.4007   -6.5638   23.8221 C   0  0  0  0  0  0
  -21.3665   -5.6793   24.9189 C   0  0  0  0  0  0
  -21.6042   -4.3054   24.7232 C   0  0  0  0  0  0
  -21.8811   -3.8144   23.4351 C   0  0  0  0  0  0
  -21.9197   -4.6959   22.3408 C   0  0  0  0  0  0
  -22.7789  -13.5225   21.1903 C   0  0  0  0  0  0
  -22.1660   -4.2153   21.0978 F   0  0  0  0  0  0
  -21.5638   -3.4527   25.7735 F   0  0  0  0  0  0
  -29.9743  -13.5261   20.3888 N   0  0  0  0  0  0
  -26.2860  -12.9445   20.3273 N   0  0  0  0  0  0
  -25.9294  -11.6573   20.5772 N   0  0  0  0  0  0
  -22.0451  -12.8189   22.0455 N   0  0  0  0  0  0
  -25.4125  -15.1972   20.4168 N   0  0  0  0  0  0
  -31.8544  -14.7028   20.1645 O   0  0  0  0  0  0
  -21.6649   -6.8883   21.4230 O   0  0  0  0  0  0
  -22.3462  -14.5541   20.6775 O   0  0  0  0  0  0
  -24.6263  -31.8570   23.2038 C   0  0  0  0  0  0
  -25.9124  -32.4755   23.8341 C   0  0  1  0  0  0
  -27.2070  -27.3016   20.1138 C   0  0  0  0  0  0
  -25.6004  -33.8579   24.2268 N   0  0  0  0  0  0
  -23.4158  -30.4860   21.5475 C   0  0  2  0  0  0
  -24.8565  -28.9395   20.1103 C   0  0  0  0  0  0
  -22.7441  -29.4633   22.4941 C   0  0  0  0  0  0
  -18.0280  -28.1368   22.8522 C   0  0  0  0  0  0
  -24.1499  -36.7256   23.2636 C   0  0  0  0  0  0
  -25.9564  -30.7885   21.3712 C   0  0  0  0  0  0
  -26.0293  -29.4149   20.7100 C   0  0  0  0  0  0
  -27.2057  -28.6094   20.6983 C   0  0  0  0  0  0
  -26.0011  -26.8662   19.5233 C   0  0  0  0  0  0
  -24.8455  -27.6709   19.5100 C   0  0  0  0  0  0
  -23.6263  -29.8229   20.1616 C   0  0  0  0  0  0
  -25.4114  -36.3057   24.0315 C   0  0  1  0  0  0
  -20.5884  -28.3668   23.1291 C   0  0  2  0  0  0
  -20.6772  -26.9407   22.5416 C   0  0  0  0  0  0
  -19.5757  -26.6386   21.5215 C   0  0  0  0  0  0
  -18.1934  -26.7926   22.1628 C   0  0  0  0  0  0
  -19.1526  -28.8843   23.2911 C   0  0  0  0  0  0
  -18.9470  -30.1474   23.8900 C   0  0  0  0  0  0
  -17.6461  -30.6596   24.0569 C   0  0  0  0  0  0
  -25.9055  -34.9451   23.5042 C   0  0  0  0  0  0
  -16.5349  -29.9071   23.6355 C   0  0  0  0  0  0
  -16.7276  -28.6495   23.0363 C   0  0  0  0  0  0
  -26.4541  -31.6571   25.0714 C   0  0  0  0  0  0
  -25.3806  -31.3701   26.1454 C   0  0  0  0  0  0
  -27.0369  -30.3007   24.6145 C   0  0  0  0  0  0
  -27.6102  -32.4309   25.7484 C   0  0  0  0  0  0
  -27.5548  -37.1764   24.8468 C   0  0  0  0  0  0
  -21.4151  -29.3035   22.3682 N   0  0  0  0  0  0
  -26.4256  -37.3782   23.9433 N   0  0  0  0  0  0
  -24.6858  -31.0590   22.0979 N   0  0  0  0  0  0
  -23.4181  -28.8171   23.3005 O   0  0  0  0  0  0
  -28.3493  -26.4913   20.1587 O   0  0  0  0  0  0
  -26.5582  -34.8955   22.4583 O   0  0  0  0  0  0
  -23.5436  -32.1372   23.7382 O   0  0  0  0  0  0
  -29.6004  -21.0501   20.7958 C   0  0  0  0  0  0
  -27.7367  -20.0233   19.7150 C   0  0  0  0  0  0
  -29.6329  -18.5489   20.4256 C   0  0  0  0  0  0
  -30.2379  -19.7699   20.9196 C   0  0  0  0  0  0
  -28.3634  -21.2293   20.1453 C   0  0  0  0  0  0
  -28.3368  -18.7277   19.8538 C   0  0  0  0  0  0
  -30.4331  -17.2088   20.2934 C   0  0  0  0  0  0
  -32.6766  -20.4397   20.6259 C   0  0  0  0  0  0
  -28.1946  -24.9343   18.1593 C   0  0  0  0  0  0
  -31.6222  -19.8325   21.5699 C   0  0  0  0  0  0
  -27.9814  -23.8382   20.5571 C   0  0  0  0  0  0
  -28.4605  -25.0879   19.6710 C   0  0  2  0  0  0
  -27.7852  -22.5175   19.8592 N   0  0  0  0  0  0
  -29.9386  -15.9258   20.5246 N   0  0  0  0  0  0
  -31.6041  -17.3675   19.9307 O   0  0  0  0  0  0
  -27.6684  -17.6513   19.3687 F   0  0  0  0  0  0
  -31.4498  -12.5170   19.1811 H   0  0  0  0  0  0
  -30.3188  -11.4685   19.9815 H   0  0  0  0  0  0
  -29.7760  -11.7161   17.5267 H   0  0  0  0  0  0
  -29.6264  -13.4483   17.7248 H   0  0  0  0  0  0
  -27.8887  -11.2745   18.9362 H   0  0  0  0  0  0
  -27.3648  -12.4961   17.8039 H   0  0  0  0  0  0
  -27.6177  -14.2528   19.4439 H   0  0  0  0  0  0
  -28.6944  -12.2356   21.4668 H   0  0  0  0  0  0
  -28.4096  -13.9352   21.7549 H   0  0  0  0  0  0
  -25.2766   -9.5695   22.4786 H   0  0  0  0  0  0
  -24.0005   -7.4628   22.7461 H   0  0  0  0  0  0
  -21.0857   -8.8763   19.8938 H   0  0  0  0  0  0
  -22.3687  -10.9685   19.6162 H   0  0  0  0  0  0
  -21.1992   -7.6149   23.9711 H   0  0  0  0  0  0
  -21.1494   -6.0537   25.9091 H   0  0  0  0  0  0
  -22.0588   -2.7607   23.2848 H   0  0  0  0  0  0
  -22.4082  -11.9823   22.4778 H   0  0  0  0  0  0
  -21.1064  -13.1172   22.2692 H   0  0  0  0  0  0
  -24.6398  -15.8421   20.5357 H   0  0  0  0  0  0
  -26.2476  -15.6447   20.0637 H   0  0  0  0  0  0
  -26.7173  -32.5436   23.1079 H   0  0  0  0  0  0
  -25.0279  -33.9769   25.0479 H   0  0  0  0  0  0
  -22.7170  -31.3107   21.4093 H   0  0  0  0  0  0
  -23.3803  -35.9562   23.3299 H   0  0  0  0  0  0
  -24.3589  -36.8875   22.2061 H   0  0  0  0  0  0
  -23.7223  -37.6428   23.6661 H   0  0  0  0  0  0
  -26.0866  -31.5534   20.6050 H   0  0  0  0  0  0
  -26.8392  -30.8376   21.9990 H   0  0  0  0  0  0
  -28.1097  -28.9731   21.1678 H   0  0  0  0  0  0
  -25.9118  -25.8833   19.0976 H   0  0  0  0  0  0
  -23.9406  -27.2931   19.0541 H   0  0  0  0  0  0
  -23.7488  -30.6049   19.4123 H   0  0  0  0  0  0
  -22.7439  -29.2581   19.8531 H   0  0  0  0  0  0
  -25.1311  -36.1857   25.0806 H   0  0  0  0  0  0
  -21.0021  -28.3224   24.1376 H   0  0  0  0  0  0
  -20.5712  -26.2257   23.3599 H   0  0  0  0  0  0
  -21.6613  -26.7441   22.1170 H   0  0  0  0  0  0
  -19.6928  -25.6304   21.1220 H   0  0  0  0  0  0
  -19.6686  -27.3222   20.6780 H   0  0  0  0  0  0
  -17.4196  -26.6771   21.4020 H   0  0  0  0  0  0
  -18.0324  -26.0008   22.8973 H   0  0  0  0  0  0
  -19.7938  -30.7319   24.2237 H   0  0  0  0  0  0
  -17.4998  -31.6285   24.5172 H   0  0  0  0  0  0
  -15.5359  -30.2974   23.7666 H   0  0  0  0  0  0
  -15.8685  -28.0825   22.7019 H   0  0  0  0  0  0
  -24.6017  -30.7014   25.7757 H   0  0  0  0  0  0
  -24.8996  -32.2871   26.4860 H   0  0  0  0  0  0
  -25.8130  -30.8878   27.0231 H   0  0  0  0  0  0
  -26.2884  -29.6795   24.1212 H   0  0  0  0  0  0
  -27.4102  -29.7241   25.4621 H   0  0  0  0  0  0
  -27.8772  -30.4299   23.9326 H   0  0  0  0  0  0
  -27.2698  -33.3665   26.1944 H   0  0  0  0  0  0
  -28.3935  -32.6750   25.0289 H   0  0  0  0  0  0
  -28.0751  -31.8516   26.5489 H   0  0  0  0  0  0
  -28.2527  -38.0088   24.7493 H   0  0  0  0  0  0
  -28.1055  -36.2602   24.6277 H   0  0  0  0  0  0
  -27.2266  -37.1358   25.8868 H   0  0  0  0  0  0
  -20.9305  -29.8718   21.6875 H   0  0  0  0  0  0
  -26.0132  -38.2832   24.1496 H   0  0  0  0  0  0
  -30.1232  -21.9283   21.1497 H   0  0  0  0  0  0
  -26.7747  -20.0786   19.2257 H   0  0  0  0  0  0
  -33.6268  -20.5935   21.1390 H   0  0  0  0  0  0
  -32.3593  -21.4104   20.2504 H   0  0  0  0  0  0
  -32.8608  -19.7995   19.7642 H   0  0  0  0  0  0
  -28.7610  -24.0886   17.7673 H   0  0  0  0  0  0
  -28.5222  -25.8171   17.6109 H   0  0  0  0  0  0
  -27.1528  -24.7403   17.9114 H   0  0  0  0  0  0
  -31.9504  -18.8628   21.9428 H   0  0  0  0  0  0
  -31.5495  -20.4631   22.4591 H   0  0  0  0  0  0
  -27.0170  -24.1005   20.9897 H   0  0  0  0  0  0
  -28.6514  -23.7173   21.4103 H   0  0  0  0  0  0
  -29.5442  -24.9741   19.7149 H   0  0  0  0  0  0
  -26.9447  -22.4984   19.2887 H   0  0  0  0  0  0
  -28.9553  -15.8592   20.7225 H   0  0  0  0  0  0
  1 25  1  0  0  0
  1 30  2  0  0  0
  1 84  1  0  0  0
  2  3  1  0  0  0
  2 25  1  0  0  0
  2 87  1  0  0  0
  2 88  1  0  0  0
  3  4  1  0  0  0
  3 89  1  0  0  0
  3 90  1  0  0  0
  4  5  1  0  0  0
  4 91  1  0  0  0
  4 92  1  0  0  0
  5  6  1  0  0  0
  5 26  1  0  0  0
  5 93  1  0  0  0
  6 25  1  0  0  0
  6 94  1  0  0  0
  6 95  1  0  0  0
  7  8  2  0  0  0
  7 26  1  0  0  0
  7 29  1  0  0  0
  8  9  1  0  0  0
  8 22  1  0  0  0
  9 10  1  0  0  0
  9 27  2  0  0  0
 10 11  2  0  0  0
 10 15  1  0  0  0
 11 12  1  0  0  0
 11 96  1  0  0  0
 12 13  2  0  0  0
 12 97  1  0  0  0
 13 14  1  0  0  0
 13 31  1  0  0  0
 14 15  2  0  0  0
 14 98  1  0  0  0
 15 99  1  0  0  0
 16 17  2  0  0  0
 16 21  1  0  0  0
 16 31  1  0  0  0
 17 18  1  0  0  0
 17100  1  0  0  0
 18 19  2  0  0  0
 18101  1  0  0  0
 19 20  1  0  0  0
 19 24  1  0  0  0
 20 21  2  0  0  0
 20102  1  0  0  0
 21 23  1  0  0  0
 22 28  1  0  0  0
 22 32  2  0  0  0
 26 27  1  0  0  0
 28103  1  0  0  0
 28104  1  0  0  0
 29105  1  0  0  0
 29106  1  0  0  0
 33 34  1  0  0  0
 33 66  1  0  0  0
 33 70  2  0  0  0
 34 36  1  0  0  0
 34 59  1  0  0  0
 34107  1  0  0  0
 35 44  2  0  0  0
 35 45  1  0  0  0
 35 68  1  0  0  0
 36 56  1  0  0  0
 36108  1  0  0  0
 37 39  1  0  0  0
 37 47  1  0  0  0
 37 66  1  0  0  0
 37109  1  0  0  0
 38 43  2  0  0  0
 38 46  1  0  0  0
 38 47  1  0  0  0
 39 64  1  0  0  0
 39 67  2  0  0  0
 40 52  1  0  0  0
 40 53  2  0  0  0
 40 58  1  0  0  0
 41110  1  0  0  0
 41111  1  0  0  0
 41112  1  0  0  0
 41 48  1  0  0  0
 42 43  1  0  0  0
 42 66  1  0  0  0
 42113  1  0  0  0
 42114  1  0  0  0
 43 44  1  0  0  0
 44115  1  0  0  0
 45 46  2  0  0  0
 45116  1  0  0  0
 46117  1  0  0  0
 47118  1  0  0  0
 47119  1  0  0  0
 48 56  1  0  0  0
 48 65  1  0  0  0
 48120  1  0  0  0
 49 50  1  0  0  0
 49 53  1  0  0  0
 49 64  1  0  0  0
 49121  1  0  0  0
 50 51  1  0  0  0
 50122  1  0  0  0
 50123  1  0  0  0
 51 52  1  0  0  0
 51124  1  0  0  0
 51125  1  0  0  0
 52126  1  0  0  0
 52127  1  0  0  0
 53 54  1  0  0  0
 54 55  2  0  0  0
 54128  1  0  0  0
 55 57  1  0  0  0
 55129  1  0  0  0
 56 69  2  0  0  0
 57 58  2  0  0  0
 57130  1  0  0  0
 58131  1  0  0  0
 59 60  1  0  0  0
 59 61  1  0  0  0
 59 62  1  0  0  0
 60132  1  0  0  0
 60133  1  0  0  0
 60134  1  0  0  0
 61135  1  0  0  0
 61136  1  0  0  0
 61137  1  0  0  0
 62138  1  0  0  0
 62139  1  0  0  0
 62140  1  0  0  0
 63 65  1  0  0  0
 63141  1  0  0  0
 63142  1  0  0  0
 63143  1  0  0  0
 64144  1  0  0  0
 65145  1  0  0  0
 68 82  1  0  0  0
 71 74  2  0  0  0
 71 75  1  0  0  0
 71146  1  0  0  0
 72 75  2  0  0  0
 72 76  1  0  0  0
 72147  1  0  0  0
 73 74  1  0  0  0
 73 76  2  0  0  0
 73 77  1  0  0  0
 74 80  1  0  0  0
 75 83  1  0  0  0
 76 86  1  0  0  0
 77 84  1  0  0  0
 77 85  2  0  0  0
 78 80  1  0  0  0
 78148  1  0  0  0
 78149  1  0  0  0
 78150  1  0  0  0
 79151  1  0  0  0
 79152  1  0  0  0
 79153  1  0  0  0
 79 82  1  0  0  0
 80154  1  0  0  0
 80155  1  0  0  0
 81 82  1  0  0  0
 81 83  1  0  0  0
 81156  1  0  0  0
 81157  1  0  0  0
 82158  1  0  0  0
 83159  1  0  0  0
 84160  1  0  0  0
M  ISO  4   1 100  68 101  82 101  84 100
M  END
> <chiral flag>
0

> <version>
0

> <s_m_source_file>
/data/baiqing/PycharmProjects/Reinvent-master-3.2/result/LINK_invent/BTK/process_docking_weight1_custom_product_contain_oxygen_bond_distance_aromatic_linkinvent_7_9_3/rearranged_h_0162.sdf

> <i_m_source_file_index>
67

> <r_mmod_Potential_Energy-OPLS-2005>
153.844680786133

> <r_mmod_Stretch_Energy-OPLS-2005>
101.44864654541

> <r_mmod_Bend_Energy-OPLS-2005>
210.180908203125

> <r_mmod_Torsional_Energy-OPLS-2005>
226.966186523438

> <r_mmod_Improper_Torsional_Energy-OPLS-2005>
7.29844903945923

> <r_mmod_Van_der_Waal_Energy-OPLS-2005>
152.758392333984

> <r_mmod_Electrostatic_Energy-OPLS-2005>
-403.553161621094

> <r_mmod_Solvation_Energy-OPLS-2005>
-213.742767333984

> <b_mmod_Minimization_Converged-OPLS-2005>
0

> <r_mmod_RMS_Derivative-OPLS-2005>
5.08150482177734

$$$$
67
                    3D
 Structure written by MMmdl.
152160  0  0  1  0            999 V2000
  -30.6042  -14.6937   20.4937 C   0  0  0  0  0  0
  -30.4314  -12.4363   19.4291 C   0  0  0  0  0  0
  -29.4819  -12.5113   18.2108 C   0  0  0  0  0  0
  -28.0148  -12.3305   18.6412 C   0  0  0  0  0  0
  -27.6393  -13.2208   19.8561 C   0  0  2  0  0  0
  -28.6952  -13.1078   20.9778 C   0  0  0  0  0  0
  -25.2500  -13.8191   20.5715 C   0  0  0  0  0  0
  -24.1779  -13.0446   20.9232 C   0  0  0  0  0  0
  -24.6366  -11.6923   20.8817 C   0  0  0  0  0  0
  -23.9045  -10.4298   21.0453 C   0  0  0  0  0  0
  -24.3595   -9.4194   21.9200 C   0  0  0  0  0  0
  -23.6270   -8.2229   22.0751 C   0  0  0  0  0  0
  -22.4268   -8.0261   21.3535 C   0  0  0  0  0  0
  -21.9909   -9.0258   20.4655 C   0  0  0  0  0  0
  -22.7235  -10.2138   20.3076 C   0  0  0  0  0  0
  -21.6839   -6.0733   22.5276 C   0  0  0  0  0  0
  -21.4012   -6.5642   23.8209 C   0  0  0  0  0  0
  -21.3671   -5.6796   24.9177 C   0  0  0  0  0  0
  -21.6026   -4.3051   24.7235 C   0  0  0  0  0  0
  -21.8819   -3.8144   23.4359 C   0  0  0  0  0  0
  -21.9188   -4.6960   22.3411 C   0  0  0  0  0  0
  -22.7789  -13.5230   21.1891 C   0  0  0  0  0  0
  -22.1661   -4.2138   21.0993 F   0  0  0  0  0  0
  -21.5634   -3.4542   25.7753 F   0  0  0  0  0  0
  -29.9923  -13.4680   20.3910 N   0  0  0  0  0  0
  -26.2917  -12.9369   20.3353 N   0  0  0  0  0  0
  -25.9289  -11.6528   20.5825 N   0  0  0  0  0  0
  -22.0419  -12.8240   22.0454 N   0  0  0  0  0  0
  -25.4201  -15.1917   20.4115 N   0  0  0  0  0  0
  -31.7984  -14.8308   20.2091 O   0  0  0  0  0  0
  -21.6625   -6.8862   21.4231 O   0  0  0  0  0  0
  -22.3479  -14.5540   20.6725 O   0  0  0  0  0  0
  -24.6308  -31.8574   23.2001 C   0  0  0  0  0  0
  -25.9135  -32.4756   23.8331 C   0  0  1  0  0  0
  -27.2179  -27.2814   20.1474 C   0  0  0  0  0  0
  -25.5965  -33.8571   24.2268 N   0  0  0  0  0  0
  -23.4273  -30.4787   21.5409 C   0  0  2  0  0  0
  -24.8758  -28.9286   20.1082 C   0  0  0  0  0  0
  -22.7499  -29.4607   22.4916 C   0  0  0  0  0  0
  -18.0304  -28.1360   22.8467 C   0  0  0  0  0  0
  -24.1496  -36.7284   23.2628 C   0  0  0  0  0  0
  -25.9678  -30.7773   21.3759 C   0  0  0  0  0  0
  -26.0431  -29.4005   20.7220 C   0  0  0  0  0  0
  -27.2212  -28.5890   20.7308 C   0  0  0  0  0  0
  -26.0361  -26.8787   19.4869 C   0  0  0  0  0  0
  -24.8750  -27.6753   19.4775 C   0  0  0  0  0  0
  -23.6438  -29.8125   20.1576 C   0  0  0  0  0  0
  -25.4114  -36.3063   24.0310 C   0  0  1  0  0  0
  -20.5907  -28.3673   23.1222 C   0  0  2  0  0  0
  -20.6820  -26.9440   22.5263 C   0  0  0  0  0  0
  -19.5744  -26.6349   21.5155 C   0  0  0  0  0  0
  -18.1973  -26.7852   22.1679 C   0  0  0  0  0  0
  -19.1558  -28.8843   23.2831 C   0  0  0  0  0  0
  -18.9487  -30.1433   23.8882 C   0  0  0  0  0  0
  -17.6487  -30.6566   24.0558 C   0  0  0  0  0  0
  -25.9069  -34.9443   23.5084 C   0  0  0  0  0  0
  -16.5373  -29.9057   23.6334 C   0  0  0  0  0  0
  -16.7286  -28.6472   23.0340 C   0  0  0  0  0  0
  -26.4511  -31.6580   25.0713 C   0  0  0  0  0  0
  -25.3722  -31.3754   26.1424 C   0  0  0  0  0  0
  -27.0355  -30.2999   24.6188 C   0  0  0  0  0  0
  -27.6070  -32.4318   25.7489 C   0  0  0  0  0  0
  -27.5567  -37.1801   24.8455 C   0  0  0  0  0  0
  -21.4207  -29.3047   22.3665 N   0  0  0  0  0  0
  -26.4294  -37.3759   23.9404 N   0  0  0  0  0  0
  -24.6922  -31.0544   22.0962 N   0  0  0  0  0  0
  -23.4198  -28.8157   23.3024 O   0  0  0  0  0  0
  -28.2958  -26.3784   20.2073 O   0  0  0  0  0  0
  -26.5620  -34.8923   22.4641 O   0  0  0  0  0  0
  -23.5471  -32.1421   23.7315 O   0  0  0  0  0  0
  -29.5294  -18.3557   20.3784 C   0  0  0  0  0  0
  -30.1798  -19.7964   22.2209 C   0  0  0  0  0  0
  -30.5786  -17.3702   22.3362 C   0  0  0  0  0  0
  -29.6193  -19.7000   20.9273 C   0  0  0  0  0  0
  -30.0024  -17.1685   21.0660 C   0  0  0  0  0  0
  -30.6539  -18.6590   22.9065 C   0  0  0  0  0  0
  -29.2233  -20.9953   20.1691 C   0  0  0  0  0  0
  -28.9236  -23.7897   20.2879 C   0  0  0  0  0  0
  -28.6895  -22.3239   20.8991 C   0  0  0  0  0  0
  -27.9741  -25.0005   20.7065 C   0  0  0  0  0  0
  -29.2750  -20.9692   18.9034 N   0  0  0  0  0  0
  -29.7649  -15.7845   20.6165 N   0  0  0  0  0  0
  -29.8580  -24.0007   19.5067 O   0  0  0  0  0  0
  -31.1834  -18.8035   24.1455 F   0  0  0  0  0  0
  -31.4664  -12.5775   19.1077 H   0  0  0  0  0  0
  -30.3856  -11.4466   19.8873 H   0  0  0  0  0  0
  -29.7454  -11.7541   17.4737 H   0  0  0  0  0  0
  -29.5962  -13.4755   17.7116 H   0  0  0  0  0  0
  -27.8752  -11.2807   18.9010 H   0  0  0  0  0  0
  -27.3406  -12.5258   17.8065 H   0  0  0  0  0  0
  -27.6420  -14.2486   19.4918 H   0  0  0  0  0  0
  -28.7246  -12.0947   21.3799 H   0  0  0  0  0  0
  -28.4465  -13.7554   21.8190 H   0  0  0  0  0  0
  -25.2732   -9.5678   22.4786 H   0  0  0  0  0  0
  -23.9980   -7.4623   22.7462 H   0  0  0  0  0  0
  -21.0829   -8.8796   19.8963 H   0  0  0  0  0  0
  -22.3680  -10.9699   19.6204 H   0  0  0  0  0  0
  -21.1996   -7.6144   23.9725 H   0  0  0  0  0  0
  -21.1492   -6.0520   25.9084 H   0  0  0  0  0  0
  -22.0577   -2.7602   23.2868 H   0  0  0  0  0  0
  -22.4026  -11.9927   22.4883 H   0  0  0  0  0  0
  -21.1042  -13.1296   22.2660 H   0  0  0  0  0  0
  -24.6438  -15.8362   20.5069 H   0  0  0  0  0  0
  -26.2526  -15.6341   20.0482 H   0  0  0  0  0  0
  -26.7172  -32.5413   23.1061 H   0  0  0  0  0  0
  -25.0115  -33.9706   25.0403 H   0  0  0  0  0  0
  -22.7212  -31.2978   21.3947 H   0  0  0  0  0  0
  -23.3752  -35.9624   23.3296 H   0  0  0  0  0  0
  -24.3585  -36.8911   22.2041 H   0  0  0  0  0  0
  -23.7272  -37.6493   23.6664 H   0  0  0  0  0  0
  -26.1026  -31.5357   20.6027 H   0  0  0  0  0  0
  -26.8432  -30.8300   22.0103 H   0  0  0  0  0  0
  -28.1124  -28.9365   21.2321 H   0  0  0  0  0  0
  -25.9953  -25.9224   18.9827 H   0  0  0  0  0  0
  -23.9857  -27.3150   18.9809 H   0  0  0  0  0  0
  -23.7619  -30.5877   19.3998 H   0  0  0  0  0  0
  -22.7651  -29.2414   19.8548 H   0  0  0  0  0  0
  -25.1306  -36.1896   25.0801 H   0  0  0  0  0  0
  -21.0017  -28.3238   24.1319 H   0  0  0  0  0  0
  -20.5873  -26.2275   23.3428 H   0  0  0  0  0  0
  -21.6638  -26.7570   22.0901 H   0  0  0  0  0  0
  -19.6937  -25.6247   21.1218 H   0  0  0  0  0  0
  -19.6596  -27.3126   20.6642 H   0  0  0  0  0  0
  -17.4153  -26.6431   21.4203 H   0  0  0  0  0  0
  -18.0589  -26.0059   22.9207 H   0  0  0  0  0  0
  -19.7961  -30.7225   24.2266 H   0  0  0  0  0  0
  -17.5035  -31.6259   24.5141 H   0  0  0  0  0  0
  -15.5373  -30.2950   23.7655 H   0  0  0  0  0  0
  -15.8686  -28.0782   22.7066 H   0  0  0  0  0  0
  -24.5882  -30.7127   25.7739 H   0  0  0  0  0  0
  -24.8931  -32.2943   26.4828 H   0  0  0  0  0  0
  -25.8025  -30.8931   27.0208 H   0  0  0  0  0  0
  -26.2941  -29.6749   24.1206 H   0  0  0  0  0  0
  -27.4024  -29.7276   25.4713 H   0  0  0  0  0  0
  -27.8820  -30.4260   23.9435 H   0  0  0  0  0  0
  -27.2664  -33.3605   26.2088 H   0  0  0  0  0  0
  -28.3877  -32.6910   25.0318 H   0  0  0  0  0  0
  -28.0737  -31.8428   26.5398 H   0  0  0  0  0  0
  -28.2585  -38.0096   24.7494 H   0  0  0  0  0  0
  -28.1078  -36.2639   24.6300 H   0  0  0  0  0  0
  -27.2297  -37.1443   25.8861 H   0  0  0  0  0  0
  -20.9384  -29.8777   21.6898 H   0  0  0  0  0  0
  -26.0166  -38.2835   24.1425 H   0  0  0  0  0  0
  -29.0806  -18.2385   19.4025 H   0  0  0  0  0  0
  -30.2875  -20.7566   22.7004 H   0  0  0  0  0  0
  -30.9330  -16.5289   22.9167 H   0  0  0  0  0  0
  -29.0867  -22.3440   21.9136 H   0  0  0  0  0  0
  -27.6139  -22.2056   21.0233 H   0  0  0  0  0  0
  -26.9660  -24.7068   20.4202 H   0  0  0  0  0  0
  -27.9584  -25.0518   21.7960 H   0  0  0  0  0  0
  -29.0051  -21.8528   18.4841 H   0  0  0  0  0  0
  -28.7895  -15.5344   20.5486 H   0  0  0  0  0  0
  1 25  1  0  0  0
  1 30  2  0  0  0
  1 82  1  0  0  0
  2  3  1  0  0  0
  2 25  1  0  0  0
  2 85  1  0  0  0
  2 86  1  0  0  0
  3  4  1  0  0  0
  3 87  1  0  0  0
  3 88  1  0  0  0
  4  5  1  0  0  0
  4 89  1  0  0  0
  4 90  1  0  0  0
  5  6  1  0  0  0
  5 26  1  0  0  0
  5 91  1  0  0  0
  6 25  1  0  0  0
  6 92  1  0  0  0
  6 93  1  0  0  0
  7  8  2  0  0  0
  7 26  1  0  0  0
  7 29  1  0  0  0
  8  9  1  0  0  0
  8 22  1  0  0  0
  9 10  1  0  0  0
  9 27  2  0  0  0
 10 11  2  0  0  0
 10 15  1  0  0  0
 11 12  1  0  0  0
 11 94  1  0  0  0
 12 13  2  0  0  0
 12 95  1  0  0  0
 13 14  1  0  0  0
 13 31  1  0  0  0
 14 15  2  0  0  0
 14 96  1  0  0  0
 15 97  1  0  0  0
 16 17  2  0  0  0
 16 21  1  0  0  0
 16 31  1  0  0  0
 17 18  1  0  0  0
 17 98  1  0  0  0
 18 19  2  0  0  0
 18 99  1  0  0  0
 19 20  1  0  0  0
 19 24  1  0  0  0
 20 21  2  0  0  0
 20100  1  0  0  0
 21 23  1  0  0  0
 22 28  1  0  0  0
 22 32  2  0  0  0
 26 27  1  0  0  0
 28101  1  0  0  0
 28102  1  0  0  0
 29103  1  0  0  0
 29104  1  0  0  0
 33 34  1  0  0  0
 33 66  1  0  0  0
 33 70  2  0  0  0
 34 36  1  0  0  0
 34 59  1  0  0  0
 34105  1  0  0  0
 35 44  2  0  0  0
 35 45  1  0  0  0
 35 68  1  0  0  0
 36 56  1  0  0  0
 36106  1  0  0  0
 37 39  1  0  0  0
 37 47  1  0  0  0
 37 66  1  0  0  0
 37107  1  0  0  0
 38 43  2  0  0  0
 38 46  1  0  0  0
 38 47  1  0  0  0
 39 64  1  0  0  0
 39 67  2  0  0  0
 40 52  1  0  0  0
 40 53  2  0  0  0
 40 58  1  0  0  0
 41108  1  0  0  0
 41109  1  0  0  0
 41110  1  0  0  0
 41 48  1  0  0  0
 42 43  1  0  0  0
 42 66  1  0  0  0
 42111  1  0  0  0
 42112  1  0  0  0
 43 44  1  0  0  0
 44113  1  0  0  0
 45 46  2  0  0  0
 45114  1  0  0  0
 46115  1  0  0  0
 47116  1  0  0  0
 47117  1  0  0  0
 48 56  1  0  0  0
 48 65  1  0  0  0
 48118  1  0  0  0
 49 50  1  0  0  0
 49 53  1  0  0  0
 49 64  1  0  0  0
 49119  1  0  0  0
 50 51  1  0  0  0
 50120  1  0  0  0
 50121  1  0  0  0
 51 52  1  0  0  0
 51122  1  0  0  0
 51123  1  0  0  0
 52124  1  0  0  0
 52125  1  0  0  0
 53 54  1  0  0  0
 54 55  2  0  0  0
 54126  1  0  0  0
 55 57  1  0  0  0
 55127  1  0  0  0
 56 69  2  0  0  0
 57 58  2  0  0  0
 57128  1  0  0  0
 58129  1  0  0  0
 59 60  1  0  0  0
 59 61  1  0  0  0
 59 62  1  0  0  0
 60130  1  0  0  0
 60131  1  0  0  0
 60132  1  0  0  0
 61133  1  0  0  0
 61134  1  0  0  0
 61135  1  0  0  0
 62136  1  0  0  0
 62137  1  0  0  0
 62138  1  0  0  0
 63 65  1  0  0  0
 63139  1  0  0  0
 63140  1  0  0  0
 63141  1  0  0  0
 64142  1  0  0  0
 65143  1  0  0  0
 68 80  1  0  0  0
 71 74  2  0  0  0
 71 75  1  0  0  0
 71144  1  0  0  0
 72 74  1  0  0  0
 72 76  2  0  0  0
 72145  1  0  0  0
 73 75  2  0  0  0
 73 76  1  0  0  0
 73146  1  0  0  0
 74 77  1  0  0  0
 75 82  1  0  0  0
 76 84  1  0  0  0
 77 79  1  0  0  0
 77 81  2  0  0  0
 78 79  1  0  0  0
 78 80  1  0  0  0
 78 83  2  0  0  0
 79147  1  0  0  0
 79148  1  0  0  0
 80149  1  0  0  0
 80150  1  0  0  0
 81151  1  0  0  0
 82152  1  0  0  0
M  ISO  4   1 100  68 101  80 101  82 100
M  END
> <chiral flag>
0

> <version>
0

> <s_m_source_file>
/data/baiqing/PycharmProjects/Reinvent-master-3.2/result/LINK_invent/BTK/process_docking_weight1_custom_product_contain_oxygen_bond_distance_aromatic_linkinvent_7_9_3/rearranged_h_0162.sdf

> <i_m_source_file_index>
68

> <r_mmod_Potential_Energy-OPLS-2005>
128.537460327148

> <r_mmod_Stretch_Energy-OPLS-2005>
110.951713562012

> <r_mmod_Bend_Energy-OPLS-2005>
143.662811279297

> <r_mmod_Torsional_Energy-OPLS-2005>
259.314147949219

> <r_mmod_Improper_Torsional_Energy-OPLS-2005>
9.24724006652832

> <r_mmod_Van_der_Waal_Energy-OPLS-2005>
138.275375366211

> <r_mmod_Electrostatic_Energy-OPLS-2005>
-357.175537109375

> <r_mmod_Solvation_Energy-OPLS-2005>
-248.875793457031

> <b_mmod_Minimization_Converged-OPLS-2005>
0

> <r_mmod_RMS_Derivative-OPLS-2005>
4.22433185577393

$$$$
68
                    3D
 Structure written by MMmdl.
167176  0  0  1  0            999 V2000
  -30.2410  -13.2739   21.0123 C   0  0  0  0  0  0
  -30.3242  -12.2346   18.9105 C   0  0  0  0  0  0
  -29.4882  -12.3551   17.6528 C   0  0  0  0  0  0
  -27.9754  -12.2009   17.8873 C   0  0  0  0  0  0
  -27.4503  -13.1576   18.9585 C   0  0  2  0  0  0
  -28.6037  -13.9512   19.6769 C   0  0  0  0  0  0
  -25.7311  -14.3684   20.1269 C   0  0  0  0  0  0
  -24.9967  -14.4549   21.3859 C   0  0  0  0  0  0
  -24.8023  -12.4826   22.6201 C   0  0  0  0  0  0
  -23.8354  -10.9184   22.3900 C   0  0  0  0  0  0
  -24.3129   -9.5696   22.6949 C   0  0  0  0  0  0
  -23.7241   -8.3088   22.3475 C   0  0  0  0  0  0
  -22.5469   -8.1809   21.5837 C   0  0  0  0  0  0
  -22.0816   -9.3853   21.0487 C   0  0  0  0  0  0
  -22.6382  -10.6361   21.5062 C   0  0  0  0  0  0
  -21.7304   -6.1189   22.5081 C   0  0  0  0  0  0
  -21.4167   -6.5845   23.8081 C   0  0  0  0  0  0
  -21.3572   -5.6914   24.8984 C   0  0  0  0  0  0
  -21.5927   -4.3186   24.6995 C   0  0  0  0  0  0
  -21.8649   -3.8377   23.4068 C   0  0  0  0  0  0
  -21.9258   -4.7302   22.3175 C   0  0  0  0  0  0
  -23.6832  -14.9238   19.9701 C   0  0  0  0  0  0
  -22.1821   -4.2448   21.0794 F   0  0  0  0  0  0
  -21.5509   -3.4617   25.7480 F   0  0  0  0  0  0
  -29.8162  -13.2125   19.8417 N   0  0  0  0  0  0
  -26.1677  -12.8914   19.7552 N   0  0  0  0  0  0
  -25.5603  -11.3933   21.5978 N   0  0  0  0  0  0
  -22.4960  -14.1717   19.7069 N   0  0  0  0  0  0
  -26.2369  -15.5459   19.6287 N   0  0  0  0  0  0
  -31.2547  -14.0056   21.1860 O   0  0  0  0  0  0
  -21.8465   -6.9868   21.4313 O   0  0  0  0  0  0
  -23.1046  -15.8990   19.6403 O   0  0  0  0  0  0
  -24.6939  -31.7758   23.1491 C   0  0  0  0  0  0
  -25.9520  -32.4267   23.7984 C   0  0  1  0  0  0
  -26.3100  -26.0725   20.6676 C   0  0  0  0  0  0
  -25.6085  -33.8152   24.1807 N   0  0  0  0  0  0
  -23.4999  -30.4100   21.5056 C   0  0  2  0  0  0
  -24.8448  -28.6823   20.1036 C   0  0  0  0  0  0
  -22.7653  -29.4263   22.4577 C   0  0  0  0  0  0
  -18.0316  -28.1409   22.8454 C   0  0  0  0  0  0
  -24.1526  -36.7105   23.2648 C   0  0  0  0  0  0
  -26.0604  -30.2847   21.5155 C   0  0  0  0  0  0
  -25.9585  -28.7930   20.9306 C   0  0  0  0  0  0
  -26.7124  -27.4983   21.1832 C   0  0  0  0  0  0
  -25.5264  -26.3589   19.5322 C   0  0  0  0  0  0
  -24.7473  -27.5274   19.3219 C   0  0  0  0  0  0
  -23.7491  -29.7570   20.1106 C   0  0  0  0  0  0
  -25.4188  -36.2797   24.0234 C   0  0  1  0  0  0
  -20.5936  -28.3779   23.1107 C   0  0  2  0  0  0
  -20.6774  -26.9430   22.5396 C   0  0  0  0  0  0
  -19.5756  -26.6351   21.5210 C   0  0  0  0  0  0
  -18.1938  -26.7941   22.1608 C   0  0  0  0  0  0
  -19.1578  -28.8913   23.2779 C   0  0  0  0  0  0
  -18.9492  -30.1496   23.8827 C   0  0  0  0  0  0
  -17.6485  -30.6597   24.0548 C   0  0  0  0  0  0
  -25.9180  -34.9187   23.4857 C   0  0  0  0  0  0
  -16.5375  -29.9081   23.6344 C   0  0  0  0  0  0
  -16.7300  -28.6500   23.0367 C   0  0  0  0  0  0
  -26.4637  -31.6470   25.0746 C   0  0  0  0  0  0
  -25.3631  -31.3931   26.1316 C   0  0  0  0  0  0
  -27.0614  -30.2752   24.6972 C   0  0  0  0  0  0
  -27.6046  -32.4408   25.7543 C   0  0  0  0  0  0
  -27.5547  -37.1752   24.8472 C   0  0  0  0  0  0
  -21.4306  -29.3027   22.3366 N   0  0  0  0  0  0
  -26.4297  -37.3573   23.9345 N   0  0  0  0  0  0
  -24.7860  -30.8842   22.0985 N   0  0  0  0  0  0
  -23.4066  -28.7829   23.2933 O   0  0  0  0  0  0
  -26.4959  -24.4487   20.9810 O   0  0  0  0  0  0
  -26.5826  -34.8800   22.4481 O   0  0  0  0  0  0
  -23.5967  -32.1156   23.6285 O   0  0  0  0  0  0
  -25.8608  -10.5161   19.4153 C   0  0  0  0  0  0
  -24.3565  -11.3390   19.5210 C   0  0  0  0  0  0
  -27.3796  -10.7799   20.2216 C   0  0  0  0  0  0
  -26.7890  -13.1172   21.8059 C   0  0  0  0  0  0
  -24.1174  -12.6433   20.6026 C   0  0  0  0  0  0
  -27.8850  -11.9932   21.3145 C   0  0  0  0  0  0
  -22.8195  -14.1914   22.2100 C   0  0  0  0  0  0
  -23.8135  -19.4030   22.9581 C   0  0  0  0  0  0
  -25.0307  -18.9125   21.5396 C   0  0  0  0  0  0
  -22.9267  -17.6348   23.0165 C   0  0  0  0  0  0
  -24.1321  -17.2847   21.4868 C   0  0  0  0  0  0
  -24.6074  -20.6541   21.7583 C   0  0  0  0  0  0
  -23.1576  -20.7202   19.7995 C   0  0  0  0  0  0
  -25.6158  -22.7188   21.6796 C   0  0  0  0  0  0
  -23.2371  -16.0304   22.3845 N   0  0  0  0  0  0
  -29.3217  -12.4349   21.7198 N   0  0  0  0  0  0
  -21.8215  -13.7413   22.9610 N   0  3  0  0  0  0
  -23.3655  -21.0263   21.1665 O   0  0  0  0  0  0
  -31.3737  -12.3936   18.6750 H   0  0  0  0  0  0
  -30.2388  -11.2224   19.2938 H   0  0  0  0  0  0
  -29.8193  -11.6184   16.9097 H   0  0  0  0  0  0
  -29.6722  -13.3266   17.1819 H   0  0  0  0  0  0
  -27.7152  -11.1532   17.9122 H   0  0  0  0  0  0
  -27.5032  -12.4746   16.9466 H   0  0  0  0  0  0
  -27.0955  -13.8825   18.2264 H   0  0  0  0  0  0
  -28.3226  -14.5678   20.5422 H   0  0  0  0  0  0
  -28.8828  -14.7432   18.9809 H   0  0  0  0  0  0
  -25.2175   -9.5100   23.2805 H   0  0  0  0  0  0
  -24.1825   -7.4160   22.7463 H   0  0  0  0  0  0
  -21.2101   -9.3813   20.4104 H   0  0  0  0  0  0
  -22.0824  -11.4700   21.1099 H   0  0  0  0  0  0
  -21.2426   -7.6374   23.9770 H   0  0  0  0  0  0
  -21.1353   -6.0614   25.8892 H   0  0  0  0  0  0
  -22.0289   -2.7827   23.2481 H   0  0  0  0  0  0
  -22.4641  -13.1718   19.8806 H   0  0  0  0  0  0
  -21.7601  -14.6071   19.1733 H   0  0  0  0  0  0
  -26.2666  -16.3718   20.2116 H   0  0  0  0  0  0
  -26.9969  -15.5295   18.9595 H   0  0  0  0  0  0
  -26.7536  -32.4513   23.0596 H   0  0  0  0  0  0
  -25.0157  -33.9184   24.9910 H   0  0  0  0  0  0
  -22.8439  -31.2670   21.3448 H   0  0  0  0  0  0
  -23.3761  -35.9465   23.3305 H   0  0  0  0  0  0
  -24.3562  -36.8793   22.2062 H   0  0  0  0  0  0
  -23.7346  -37.6301   23.6756 H   0  0  0  0  0  0
  -26.3431  -30.9376   20.6872 H   0  0  0  0  0  0
  -26.9081  -30.3356   22.1801 H   0  0  0  0  0  0
  -27.4664  -27.5390   21.9572 H   0  0  0  0  0  0
  -25.2564  -25.5148   18.9182 H   0  0  0  0  0  0
  -23.9688  -27.4755   18.5709 H   0  0  0  0  0  0
  -24.0166  -30.5299   19.3873 H   0  0  0  0  0  0
  -22.8205  -29.3199   19.7393 H   0  0  0  0  0  0
  -25.1426  -36.1538   25.0729 H   0  0  0  0  0  0
  -21.0052  -28.3428   24.1222 H   0  0  0  0  0  0
  -20.5630  -26.2405   23.3664 H   0  0  0  0  0  0
  -21.6638  -26.7363   22.1226 H   0  0  0  0  0  0
  -19.6907  -25.6238   21.1300 H   0  0  0  0  0  0
  -19.6702  -27.3108   20.6700 H   0  0  0  0  0  0
  -17.4212  -26.6700   21.4003 H   0  0  0  0  0  0
  -18.0312  -26.0095   22.9011 H   0  0  0  0  0  0
  -19.7972  -30.7328   24.2157 H   0  0  0  0  0  0
  -17.5040  -31.6272   24.5160 H   0  0  0  0  0  0
  -15.5373  -30.2962   23.7706 H   0  0  0  0  0  0
  -15.8700  -28.0795   22.7127 H   0  0  0  0  0  0
  -24.5878  -30.7185   25.7663 H   0  0  0  0  0  0
  -24.8759  -32.3203   26.4344 H   0  0  0  0  0  0
  -25.7753  -30.9393   27.0337 H   0  0  0  0  0  0
  -26.3325  -29.6193   24.2207 H   0  0  0  0  0  0
  -27.4060  -29.7418   25.5839 H   0  0  0  0  0  0
  -27.9350  -30.3762   24.0527 H   0  0  0  0  0  0
  -27.2572  -33.3847   26.1754 H   0  0  0  0  0  0
  -28.4042  -32.6728   25.0494 H   0  0  0  0  0  0
  -28.0498  -31.8784   26.5763 H   0  0  0  0  0  0
  -28.2590  -38.0008   24.7367 H   0  0  0  0  0  0
  -28.1013  -36.2516   24.6508 H   0  0  0  0  0  0
  -27.2220  -37.1633   25.8865 H   0  0  0  0  0  0
  -20.9549  -29.8762   21.6534 H   0  0  0  0  0  0
  -26.0098  -38.2633   24.1240 H   0  0  0  0  0  0
  -25.8426   -9.6639   18.7549 H   0  0  0  0  0  0
  -23.5009  -10.9382   18.9984 H   0  0  0  0  0  0
  -28.1563  -10.0996   19.9136 H   0  0  0  0  0  0
  -27.0552  -13.8748   22.5366 H   0  0  0  0  0  0
  -24.5248  -19.3447   23.7847 H   0  0  0  0  0  0
  -23.0509  -20.0259   23.4117 H   0  0  0  0  0  0
  -25.4516  -18.9270   20.5325 H   0  0  0  0  0  0
  -25.9415  -18.7210   22.1194 H   0  0  0  0  0  0
  -21.9198  -17.8424   22.6486 H   0  0  0  0  0  0
  -22.7573  -17.4568   24.0760 H   0  0  0  0  0  0
  -24.9143  -16.7968   20.9719 H   0  0  0  0  0  0
  -23.3845  -17.6671   20.7902 H   0  0  0  0  0  0
  -22.2291  -21.1971   19.4710 H   0  0  0  0  0  0
  -23.0378  -19.6494   19.6368 H   0  0  0  0  0  0
  -23.9672  -21.0906   19.1755 H   0  0  0  0  0  0
  -26.5947  -22.2971   21.9151 H   0  0  0  0  0  0
  -25.2859  -23.1216   22.6334 H   0  0  0  0  0  0
  -29.4808  -12.4791   22.7115 H   0  0  0  0  0  0
  -21.5161  -12.7795   22.9426 H   0  0  0  0  0  0
  -21.3024  -14.3989   23.5195 H   0  0  0  0  0  0
  1 25  1  0  0  0
  1 30  2  0  0  0
  1 86  1  0  0  0
  2  3  1  0  0  0
  2 25  1  0  0  0
  2 89  1  0  0  0
  2 90  1  0  0  0
  3  4  1  0  0  0
  3 91  1  0  0  0
  3 92  1  0  0  0
  4  5  1  0  0  0
  4 93  1  0  0  0
  4 94  1  0  0  0
  5  6  1  0  0  0
  5 26  1  0  0  0
  5 95  1  0  0  0
  6 25  1  0  0  0
  6 96  1  0  0  0
  6 97  1  0  0  0
  7  8  2  0  0  0
  7 26  1  0  0  0
  7 29  1  0  0  0
  8  9  1  0  0  0
  8 22  1  0  0  0
  9 10  1  0  0  0
  9 27  2  0  0  0
 10 11  2  0  0  0
 10 15  1  0  0  0
 11 12  1  0  0  0
 11 98  1  0  0  0
 12 13  2  0  0  0
 12 99  1  0  0  0
 13 14  1  0  0  0
 13 31  1  0  0  0
 14 15  2  0  0  0
 14100  1  0  0  0
 15101  1  0  0  0
 16 17  2  0  0  0
 16 21  1  0  0  0
 16 31  1  0  0  0
 17 18  1  0  0  0
 17102  1  0  0  0
 18 19  2  0  0  0
 18103  1  0  0  0
 19 20  1  0  0  0
 19 24  1  0  0  0
 20 21  2  0  0  0
 20104  1  0  0  0
 21 23  1  0  0  0
 22 28  1  0  0  0
 22 32  2  0  0  0
 26 27  1  0  0  0
 28105  1  0  0  0
 28106  1  0  0  0
 29107  1  0  0  0
 29108  1  0  0  0
 33 34  1  0  0  0
 33 66  1  0  0  0
 33 70  2  0  0  0
 34 36  1  0  0  0
 34 59  1  0  0  0
 34109  1  0  0  0
 35 44  2  0  0  0
 35 45  1  0  0  0
 35 68  1  0  0  0
 36 56  1  0  0  0
 36110  1  0  0  0
 37 39  1  0  0  0
 37 47  1  0  0  0
 37 66  1  0  0  0
 37111  1  0  0  0
 38 43  2  0  0  0
 38 46  1  0  0  0
 38 47  1  0  0  0
 39 64  1  0  0  0
 39 67  2  0  0  0
 40 52  1  0  0  0
 40 53  2  0  0  0
 40 58  1  0  0  0
 41112  1  0  0  0
 41113  1  0  0  0
 41114  1  0  0  0
 41 48  1  0  0  0
 42 43  1  0  0  0
 42 66  1  0  0  0
 42115  1  0  0  0
 42116  1  0  0  0
 43 44  1  0  0  0
 44117  1  0  0  0
 45 46  2  0  0  0
 45118  1  0  0  0
 46119  1  0  0  0
 47120  1  0  0  0
 47121  1  0  0  0
 48 56  1  0  0  0
 48 65  1  0  0  0
 48122  1  0  0  0
 49 50  1  0  0  0
 49 53  1  0  0  0
 49 64  1  0  0  0
 49123  1  0  0  0
 50 51  1  0  0  0
 50124  1  0  0  0
 50125  1  0  0  0
 51 52  1  0  0  0
 51126  1  0  0  0
 51127  1  0  0  0
 52128  1  0  0  0
 52129  1  0  0  0
 53 54  1  0  0  0
 54 55  2  0  0  0
 54130  1  0  0  0
 55 57  1  0  0  0
 55131  1  0  0  0
 56 69  2  0  0  0
 57 58  2  0  0  0
 57132  1  0  0  0
 58133  1  0  0  0
 59 60  1  0  0  0
 59 61  1  0  0  0
 59 62  1  0  0  0
 60134  1  0  0  0
 60135  1  0  0  0
 60136  1  0  0  0
 61137  1  0  0  0
 61138  1  0  0  0
 61139  1  0  0  0
 62140  1  0  0  0
 62141  1  0  0  0
 62142  1  0  0  0
 63 65  1  0  0  0
 63143  1  0  0  0
 63144  1  0  0  0
 63145  1  0  0  0
 64146  1  0  0  0
 65147  1  0  0  0
 68 84  1  0  0  0
 71 72  2  0  0  0
 71 73  1  0  0  0
 71148  1  0  0  0
 72 75  1  0  0  0
 72149  1  0  0  0
 73 76  2  0  0  0
 73150  1  0  0  0
 74 75  2  0  0  0
 74 76  1  0  0  0
 74151  1  0  0  0
 75 77  1  0  0  0
 76 86  1  0  0  0
 77 85  1  0  0  0
 77 87  2  0  0  0
 78 80  1  0  0  0
 78 82  1  0  0  0
 78152  1  0  0  0
 78153  1  0  0  0
 79 81  1  0  0  0
 79 82  1  0  0  0
 79154  1  0  0  0
 79155  1  0  0  0
 80 85  1  0  0  0
 80156  1  0  0  0
 80157  1  0  0  0
 81 85  1  0  0  0
 81158  1  0  0  0
 81159  1  0  0  0
 82 84  1  0  0  0
 82 88  1  0  0  0
 83 88  1  0  0  0
 83160  1  0  0  0
 83161  1  0  0  0
 83162  1  0  0  0
 84163  1  0  0  0
 84164  1  0  0  0
 86165  1  0  0  0
 87166  1  0  0  0
 87167  1  0  0  0
M  CHG  1  87   1
M  ISO  4   1 100  68 101  84 101  86 100
M  END
> <chiral flag>
0

> <version>
0

> <s_m_source_file>
/data/baiqing/PycharmProjects/Reinvent-master-3.2/result/LINK_invent/BTK/process_docking_weight1_custom_product_contain_oxygen_bond_distance_aromatic_linkinvent_7_9_3/rearranged_h_0162.sdf

> <i_m_source_file_index>
69

> <r_mmod_Potential_Energy-OPLS-2005>
29318.375

> <r_mmod_Stretch_Energy-OPLS-2005>
15318.4482421875

> <r_mmod_Bend_Energy-OPLS-2005>
2735.49243164062

> <r_mmod_Torsional_Energy-OPLS-2005>
690.384643554688

> <r_mmod_Improper_Torsional_Energy-OPLS-2005>
116.354331970215

> <r_mmod_Van_der_Waal_Energy-OPLS-2005>
5619.908203125

> <r_mmod_Electrostatic_Energy-OPLS-2005>
-378.415954589844

> <r_mmod_Solvation_Energy-OPLS-2005>
-401.700561523438

> <b_mmod_Minimization_Converged-OPLS-2005>
0

> <r_mmod_RMS_Derivative-OPLS-2005>
22.9454021453857

$$$$
69
                    3D
 Structure written by MMmdl.
153161  0  0  1  0            999 V2000
  -30.5791  -14.8006   20.4356 C   0  0  0  0  0  0
  -30.4409  -12.4867   19.4764 C   0  0  0  0  0  0
  -29.5128  -12.4969   18.2404 C   0  0  0  0  0  0
  -28.0402  -12.3131   18.6592 C   0  0  0  0  0  0
  -27.6376  -13.2305   19.8445 C   0  0  2  0  0  0
  -28.6836  -13.1891   20.9796 C   0  0  0  0  0  0
  -25.2499  -13.8186   20.5710 C   0  0  0  0  0  0
  -24.1794  -13.0432   20.9225 C   0  0  0  0  0  0
  -24.6388  -11.6910   20.8758 C   0  0  0  0  0  0
  -23.9072  -10.4286   21.0414 C   0  0  0  0  0  0
  -24.3617   -9.4202   21.9194 C   0  0  0  0  0  0
  -23.6292   -8.2236   22.0761 C   0  0  0  0  0  0
  -22.4270   -8.0280   21.3552 C   0  0  0  0  0  0
  -21.9912   -9.0258   20.4656 C   0  0  0  0  0  0
  -22.7243  -10.2132   20.3071 C   0  0  0  0  0  0
  -21.6851   -6.0739   22.5277 C   0  0  0  0  0  0
  -21.4012   -6.5645   23.8214 C   0  0  0  0  0  0
  -21.3656   -5.6798   24.9176 C   0  0  0  0  0  0
  -21.6043   -4.3060   24.7222 C   0  0  0  0  0  0
  -21.8816   -3.8150   23.4344 C   0  0  0  0  0  0
  -21.9190   -4.6968   22.3402 C   0  0  0  0  0  0
  -22.7818  -13.5227   21.1874 C   0  0  0  0  0  0
  -22.1658   -4.2155   21.0980 F   0  0  0  0  0  0
  -21.5629   -3.4545   25.7734 F   0  0  0  0  0  0
  -29.9769  -13.5583   20.3901 N   0  0  0  0  0  0
  -26.2921  -12.9392   20.3275 N   0  0  0  0  0  0
  -25.9311  -11.6532   20.5737 N   0  0  0  0  0  0
  -22.0457  -12.8228   22.0426 N   0  0  0  0  0  0
  -25.4160  -15.1919   20.4130 N   0  0  0  0  0  0
  -31.7787  -14.8922   20.1575 O   0  0  0  0  0  0
  -21.6630   -6.8877   21.4240 O   0  0  0  0  0  0
  -22.3513  -14.5538   20.6723 O   0  0  0  0  0  0
  -24.6347  -31.8525   23.1944 C   0  0  0  0  0  0
  -25.9166  -32.4737   23.8297 C   0  0  1  0  0  0
  -27.2205  -27.2349   20.1375 C   0  0  0  0  0  0
  -25.5945  -33.8538   24.2223 N   0  0  0  0  0  0
  -23.4326  -30.4739   21.5393 C   0  0  2  0  0  0
  -24.8807  -28.9108   20.1136 C   0  0  0  0  0  0
  -22.7514  -29.4590   22.4903 C   0  0  0  0  0  0
  -18.0292  -28.1392   22.8488 C   0  0  0  0  0  0
  -24.1490  -36.7268   23.2643 C   0  0  0  0  0  0
  -25.9805  -30.7575   21.3777 C   0  0  0  0  0  0
  -26.0547  -29.3761   20.7213 C   0  0  0  0  0  0
  -27.2314  -28.5542   20.7132 C   0  0  0  0  0  0
  -26.0232  -26.8359   19.5112 C   0  0  0  0  0  0
  -24.8717  -27.6496   19.4952 C   0  0  0  0  0  0
  -23.6529  -29.8032   20.1571 C   0  0  0  0  0  0
  -25.4123  -36.3055   24.0321 C   0  0  1  0  0  0
  -20.5897  -28.3702   23.1265 C   0  0  2  0  0  0
  -20.6779  -26.9419   22.5412 C   0  0  0  0  0  0
  -19.5752  -26.6384   21.5219 C   0  0  0  0  0  0
  -18.1932  -26.7933   22.1630 C   0  0  0  0  0  0
  -19.1548  -28.8866   23.2867 C   0  0  0  0  0  0
  -18.9468  -30.1466   23.8887 C   0  0  0  0  0  0
  -17.6467  -30.6594   24.0562 C   0  0  0  0  0  0
  -25.9063  -34.9431   23.5072 C   0  0  0  0  0  0
  -16.5357  -29.9090   23.6340 C   0  0  0  0  0  0
  -16.7277  -28.6509   23.0359 C   0  0  0  0  0  0
  -26.4513  -31.6578   25.0708 C   0  0  0  0  0  0
  -25.3710  -31.3761   26.1410 C   0  0  0  0  0  0
  -27.0370  -30.2986   24.6239 C   0  0  0  0  0  0
  -27.6050  -32.4330   25.7488 C   0  0  0  0  0  0
  -27.5570  -37.1795   24.8468 C   0  0  0  0  0  0
  -21.4217  -29.3045   22.3648 N   0  0  0  0  0  0
  -26.4290  -37.3760   23.9401 N   0  0  0  0  0  0
  -24.7017  -31.0466   22.0932 N   0  0  0  0  0  0
  -23.4199  -28.8140   23.3021 O   0  0  0  0  0  0
  -28.3081  -26.3262   20.1240 O   0  0  0  0  0  0
  -26.5647  -34.8912   22.4649 O   0  0  0  0  0  0
  -23.5490  -32.1361   23.7227 O   0  0  0  0  0  0
  -31.2050  -17.9662   20.4521 C   0  0  0  0  0  0
  -30.9806  -19.3926   20.3651 C   0  0  0  0  0  0
  -29.9929  -17.3242   20.4796 C   0  0  0  0  0  0
  -29.6144  -19.6130   20.3392 C   0  0  0  0  0  0
  -32.0234  -20.4250   20.2135 C   0  0  0  0  0  0
  -28.5797  -23.6082   19.9249 C   0  0  0  0  0  0
  -32.4303  -21.1924   21.4639 C   0  0  0  0  0  0
  -29.0951  -22.2609   20.6772 C   0  0  0  0  0  0
  -28.1264  -24.9432   20.7231 C   0  0  0  0  0  0
  -29.7594  -15.9284   20.5681 N   0  0  0  0  0  0
  -28.8540  -20.8520   20.1073 N   0  0  0  0  0  0
  -32.6194  -20.6085   19.1486 O   0  0  0  0  0  0
  -28.5120  -23.5969   18.6911 O   0  0  0  0  0  0
  -28.9988  -18.3353   20.4008 O   0  0  0  0  0  0
  -31.4785  -12.6277   19.1686 H   0  0  0  0  0  0
  -30.4065  -11.5193   19.9796 H   0  0  0  0  0  0
  -29.8023  -11.7067   17.5466 H   0  0  0  0  0  0
  -29.6275  -13.4367   17.6979 H   0  0  0  0  0  0
  -27.9099  -11.2675   18.9422 H   0  0  0  0  0  0
  -27.3787  -12.4768   17.8078 H   0  0  0  0  0  0
  -27.6228  -14.2443   19.4448 H   0  0  0  0  0  0
  -28.7332  -12.1953   21.4266 H   0  0  0  0  0  0
  -28.4124  -13.8725   21.7860 H   0  0  0  0  0  0
  -25.2758   -9.5676   22.4777 H   0  0  0  0  0  0
  -23.9996   -7.4626   22.7488 H   0  0  0  0  0  0
  -21.0844   -8.8794   19.8963 H   0  0  0  0  0  0
  -22.3713  -10.9682   19.6191 H   0  0  0  0  0  0
  -21.2003   -7.6151   23.9725 H   0  0  0  0  0  0
  -21.1484   -6.0522   25.9082 H   0  0  0  0  0  0
  -22.0594   -2.7611   23.2842 H   0  0  0  0  0  0
  -22.4063  -11.9896   22.4829 H   0  0  0  0  0  0
  -21.1083  -13.1274   22.2630 H   0  0  0  0  0  0
  -24.6415  -15.8368   20.5282 H   0  0  0  0  0  0
  -26.2463  -15.6377   20.0452 H   0  0  0  0  0  0
  -26.7230  -32.5380   23.1028 H   0  0  0  0  0  0
  -25.0066  -33.9658   25.0353 H   0  0  0  0  0  0
  -22.7304  -31.2970   21.3908 H   0  0  0  0  0  0
  -23.3744  -35.9605   23.3319 H   0  0  0  0  0  0
  -24.3573  -36.8883   22.2052 H   0  0  0  0  0  0
  -23.7246  -37.6474   23.6665 H   0  0  0  0  0  0
  -26.1250  -31.5178   20.6085 H   0  0  0  0  0  0
  -26.8553  -30.8048   22.0151 H   0  0  0  0  0  0
  -28.1352  -28.9131   21.1858 H   0  0  0  0  0  0
  -25.9736  -25.8673   19.0340 H   0  0  0  0  0  0
  -23.9744  -27.2895   19.0110 H   0  0  0  0  0  0
  -23.7789  -30.5787   19.3999 H   0  0  0  0  0  0
  -22.7686  -29.2399   19.8515 H   0  0  0  0  0  0
  -25.1308  -36.1892   25.0812 H   0  0  0  0  0  0
  -20.9992  -28.3289   24.1383 H   0  0  0  0  0  0
  -20.5684  -26.2317   23.3622 H   0  0  0  0  0  0
  -21.6644  -26.7441   22.1204 H   0  0  0  0  0  0
  -19.6914  -25.6294   21.1251 H   0  0  0  0  0  0
  -19.6684  -27.3192   20.6745 H   0  0  0  0  0  0
  -17.4201  -26.6678   21.4031 H   0  0  0  0  0  0
  -18.0328  -26.0080   22.9030 H   0  0  0  0  0  0
  -19.7944  -30.7286   24.2249 H   0  0  0  0  0  0
  -17.5022  -31.6275   24.5161 H   0  0  0  0  0  0
  -15.5358  -30.2987   23.7673 H   0  0  0  0  0  0
  -15.8673  -28.0822   22.7081 H   0  0  0  0  0  0
  -24.5876  -30.7130   25.7723 H   0  0  0  0  0  0
  -24.8916  -32.2954   26.4790 H   0  0  0  0  0  0
  -25.7997  -30.8949   27.0211 H   0  0  0  0  0  0
  -26.2980  -29.6718   24.1238 H   0  0  0  0  0  0
  -27.4002  -29.7268   25.4788 H   0  0  0  0  0  0
  -27.8872  -30.4234   23.9529 H   0  0  0  0  0  0
  -27.2644  -33.3629   26.2049 H   0  0  0  0  0  0
  -28.3873  -32.6898   25.0333 H   0  0  0  0  0  0
  -28.0711  -31.8474   26.5422 H   0  0  0  0  0  0
  -28.2607  -38.0071   24.7491 H   0  0  0  0  0  0
  -28.1045  -36.2601   24.6331 H   0  0  0  0  0  0
  -27.2286  -37.1490   25.8873 H   0  0  0  0  0  0
  -20.9415  -29.8748   21.6825 H   0  0  0  0  0  0
  -26.0162  -38.2833   24.1391 H   0  0  0  0  0  0
  -32.1705  -17.4788   20.4756 H   0  0  0  0  0  0
  -31.7130  -21.0374   22.2685 H   0  0  0  0  0  0
  -32.4946  -22.2582   21.2493 H   0  0  0  0  0  0
  -33.4079  -20.8532   21.8051 H   0  0  0  0  0  0
  -30.1629  -22.4019   20.8289 H   0  0  0  0  0  0
  -28.6585  -22.2845   21.6764 H   0  0  0  0  0  0
  -28.6566  -24.9381   21.6747 H   0  0  0  0  0  0
  -27.0743  -24.8112   20.9782 H   0  0  0  0  0  0
  -28.7915  -15.6837   20.7005 H   0  0  0  0  0  0
  -27.8711  -20.6900   19.8995 H   0  0  0  0  0  0
  1 25  1  0  0  0
  1 30  2  0  0  0
  1 80  1  0  0  0
  2  3  1  0  0  0
  2 25  1  0  0  0
  2 85  1  0  0  0
  2 86  1  0  0  0
  3  4  1  0  0  0
  3 87  1  0  0  0
  3 88  1  0  0  0
  4  5  1  0  0  0
  4 89  1  0  0  0
  4 90  1  0  0  0
  5  6  1  0  0  0
  5 26  1  0  0  0
  5 91  1  0  0  0
  6 25  1  0  0  0
  6 92  1  0  0  0
  6 93  1  0  0  0
  7  8  2  0  0  0
  7 26  1  0  0  0
  7 29  1  0  0  0
  8  9  1  0  0  0
  8 22  1  0  0  0
  9 10  1  0  0  0
  9 27  2  0  0  0
 10 11  2  0  0  0
 10 15  1  0  0  0
 11 12  1  0  0  0
 11 94  1  0  0  0
 12 13  2  0  0  0
 12 95  1  0  0  0
 13 14  1  0  0  0
 13 31  1  0  0  0
 14 15  2  0  0  0
 14 96  1  0  0  0
 15 97  1  0  0  0
 16 17  2  0  0  0
 16 21  1  0  0  0
 16 31  1  0  0  0
 17 18  1  0  0  0
 17 98  1  0  0  0
 18 19  2  0  0  0
 18 99  1  0  0  0
 19 20  1  0  0  0
 19 24  1  0  0  0
 20 21  2  0  0  0
 20100  1  0  0  0
 21 23  1  0  0  0
 22 28  1  0  0  0
 22 32  2  0  0  0
 26 27  1  0  0  0
 28101  1  0  0  0
 28102  1  0  0  0
 29103  1  0  0  0
 29104  1  0  0  0
 33 34  1  0  0  0
 33 66  1  0  0  0
 33 70  2  0  0  0
 34 36  1  0  0  0
 34 59  1  0  0  0
 34105  1  0  0  0
 35 44  2  0  0  0
 35 45  1  0  0  0
 35 68  1  0  0  0
 36 56  1  0  0  0
 36106  1  0  0  0
 37 39  1  0  0  0
 37 47  1  0  0  0
 37 66  1  0  0  0
 37107  1  0  0  0
 38 43  2  0  0  0
 38 46  1  0  0  0
 38 47  1  0  0  0
 39 64  1  0  0  0
 39 67  2  0  0  0
 40 52  1  0  0  0
 40 53  2  0  0  0
 40 58  1  0  0  0
 41108  1  0  0  0
 41109  1  0  0  0
 41110  1  0  0  0
 41 48  1  0  0  0
 42 43  1  0  0  0
 42 66  1  0  0  0
 42111  1  0  0  0
 42112  1  0  0  0
 43 44  1  0  0  0
 44113  1  0  0  0
 45 46  2  0  0  0
 45114  1  0  0  0
 46115  1  0  0  0
 47116  1  0  0  0
 47117  1  0  0  0
 48 56  1  0  0  0
 48 65  1  0  0  0
 48118  1  0  0  0
 49 50  1  0  0  0
 49 53  1  0  0  0
 49 64  1  0  0  0
 49119  1  0  0  0
 50 51  1  0  0  0
 50120  1  0  0  0
 50121  1  0  0  0
 51 52  1  0  0  0
 51122  1  0  0  0
 51123  1  0  0  0
 52124  1  0  0  0
 52125  1  0  0  0
 53 54  1  0  0  0
 54 55  2  0  0  0
 54126  1  0  0  0
 55 57  1  0  0  0
 55127  1  0  0  0
 56 69  2  0  0  0
 57 58  2  0  0  0
 57128  1  0  0  0
 58129  1  0  0  0
 59 60  1  0  0  0
 59 61  1  0  0  0
 59 62  1  0  0  0
 60130  1  0  0  0
 60131  1  0  0  0
 60132  1  0  0  0
 61133  1  0  0  0
 61134  1  0  0  0
 61135  1  0  0  0
 62136  1  0  0  0
 62137  1  0  0  0
 62138  1  0  0  0
 63 65  1  0  0  0
 63139  1  0  0  0
 63140  1  0  0  0
 63141  1  0  0  0
 64142  1  0  0  0
 65143  1  0  0  0
 68 79  1  0  0  0
 71 72  1  0  0  0
 71 73  2  0  0  0
 71144  1  0  0  0
 72 74  2  0  0  0
 72 75  1  0  0  0
 73 80  1  0  0  0
 73 84  1  0  0  0
 74 81  1  0  0  0
 74 84  1  0  0  0
 75 77  1  0  0  0
 75 82  2  0  0  0
 76 78  1  0  0  0
 76 79  1  0  0  0
 76 83  2  0  0  0
 77145  1  0  0  0
 77146  1  0  0  0
 77147  1  0  0  0
 78 81  1  0  0  0
 78148  1  0  0  0
 78149  1  0  0  0
 79150  1  0  0  0
 79151  1  0  0  0
 80152  1  0  0  0
 81153  1  0  0  0
M  ISO  4   1 100  68 101  79 101  80 100
M  END
> <chiral flag>
0

> <version>
0

> <s_m_source_file>
/data/baiqing/PycharmProjects/Reinvent-master-3.2/result/LINK_invent/BTK/process_docking_weight1_custom_product_contain_oxygen_bond_distance_aromatic_linkinvent_7_9_3/rearranged_h_0162.sdf

> <i_m_source_file_index>
70

> <r_mmod_Potential_Energy-OPLS-2005>
278.448608398438

> <r_mmod_Stretch_Energy-OPLS-2005>
146.208587646484

> <r_mmod_Bend_Energy-OPLS-2005>
201.892517089844

> <r_mmod_Torsional_Energy-OPLS-2005>
289.833801269531

> <r_mmod_Improper_Torsional_Energy-OPLS-2005>
8.71706962585449

> <r_mmod_Van_der_Waal_Energy-OPLS-2005>
109.623435974121

> <r_mmod_Electrostatic_Energy-OPLS-2005>
-320.613647460938

> <r_mmod_Solvation_Energy-OPLS-2005>
-263.498962402344

> <b_mmod_Minimization_Converged-OPLS-2005>
0

> <r_mmod_RMS_Derivative-OPLS-2005>
1.54404389858246

$$$$
70
                    3D
 Structure written by MMmdl.
155163  0  0  1  0            999 V2000
  -30.6809  -14.5051   20.5545 C   0  0  0  0  0  0
  -30.4215  -12.3198   19.4330 C   0  0  0  0  0  0
  -29.4970  -12.5013   18.2111 C   0  0  0  0  0  0
  -28.0160  -12.3579   18.6172 C   0  0  0  0  0  0
  -27.6516  -13.2109   19.8605 C   0  0  2  0  0  0
  -28.6949  -13.0263   20.9862 C   0  0  0  0  0  0
  -25.2519  -13.8110   20.5725 C   0  0  0  0  0  0
  -24.1803  -13.0377   20.9234 C   0  0  0  0  0  0
  -24.6383  -11.6859   20.8752 C   0  0  0  0  0  0
  -23.9055  -10.4250   21.0419 C   0  0  0  0  0  0
  -24.3607   -9.4169   21.9196 C   0  0  0  0  0  0
  -23.6277   -8.2213   22.0761 C   0  0  0  0  0  0
  -22.4263   -8.0261   21.3550 C   0  0  0  0  0  0
  -21.9896   -9.0237   20.4654 C   0  0  0  0  0  0
  -22.7228  -10.2110   20.3070 C   0  0  0  0  0  0
  -21.6844   -6.0718   22.5280 C   0  0  0  0  0  0
  -21.4005   -6.5631   23.8206 C   0  0  0  0  0  0
  -21.3660   -5.6795   24.9174 C   0  0  0  0  0  0
  -21.6049   -4.3055   24.7234 C   0  0  0  0  0  0
  -21.8822   -3.8133   23.4358 C   0  0  0  0  0  0
  -21.9184   -4.6944   22.3407 C   0  0  0  0  0  0
  -22.7827  -13.5184   21.1887 C   0  0  0  0  0  0
  -22.1664   -4.2130   21.0991 F   0  0  0  0  0  0
  -21.5625   -3.4537   25.7745 F   0  0  0  0  0  0
  -30.0260  -13.3179   20.4378 N   0  0  0  0  0  0
  -26.2954  -12.9319   20.3286 N   0  0  0  0  0  0
  -25.9294  -11.6473   20.5712 N   0  0  0  0  0  0
  -22.0460  -12.8181   22.0443 N   0  0  0  0  0  0
  -25.4082  -15.1838   20.4247 N   0  0  0  0  0  0
  -31.8349  -14.6428   20.1393 O   0  0  0  0  0  0
  -21.6625   -6.8861   21.4242 O   0  0  0  0  0  0
  -22.3518  -14.5492   20.6721 O   0  0  0  0  0  0
  -24.6154  -31.8684   23.2127 C   0  0  0  0  0  0
  -25.9050  -32.4822   23.8406 C   0  0  1  0  0  0
  -27.2219  -27.4096   20.0938 C   0  0  0  0  0  0
  -25.5922  -33.8623   24.2342 N   0  0  0  0  0  0
  -23.4029  -30.4958   21.5537 C   0  0  2  0  0  0
  -24.8459  -28.9662   20.1119 C   0  0  0  0  0  0
  -22.7410  -29.4670   22.4986 C   0  0  0  0  0  0
  -18.0272  -28.1377   22.8479 C   0  0  0  0  0  0
  -24.1485  -36.7312   23.2633 C   0  0  0  0  0  0
  -25.9362  -30.8246   21.3729 C   0  0  0  0  0  0
  -26.0085  -29.4586   20.7181 C   0  0  0  0  0  0
  -27.1952  -28.6847   20.7131 C   0  0  0  0  0  0
  -26.0421  -26.9595   19.4499 C   0  0  0  0  0  0
  -24.8600  -27.7173   19.4751 C   0  0  0  0  0  0
  -23.6109  -29.8363   20.1653 C   0  0  0  0  0  0
  -25.4103  -36.3107   24.0343 C   0  0  1  0  0  0
  -20.5860  -28.3671   23.1315 C   0  0  2  0  0  0
  -20.6755  -26.9397   22.5445 C   0  0  0  0  0  0
  -19.5765  -26.6382   21.5207 C   0  0  0  0  0  0
  -18.1922  -26.7937   22.1579 C   0  0  0  0  0  0
  -19.1522  -28.8831   23.2901 C   0  0  0  0  0  0
  -18.9455  -30.1433   23.8922 C   0  0  0  0  0  0
  -17.6459  -30.6583   24.0566 C   0  0  0  0  0  0
  -25.9044  -34.9478   23.5137 C   0  0  0  0  0  0
  -16.5346  -29.9087   23.6321 C   0  0  0  0  0  0
  -16.7264  -28.6500   23.0346 C   0  0  0  0  0  0
  -26.4485  -31.6595   25.0729 C   0  0  0  0  0  0
  -25.3768  -31.3726   26.1498 C   0  0  0  0  0  0
  -27.0275  -30.3015   24.6114 C   0  0  0  0  0  0
  -27.6089  -32.4290   25.7469 C   0  0  0  0  0  0
  -27.5616  -37.1773   24.8434 C   0  0  0  0  0  0
  -21.4135  -29.3035   22.3718 N   0  0  0  0  0  0
  -26.4281  -37.3809   23.9443 N   0  0  0  0  0  0
  -24.6697  -31.0770   22.1043 N   0  0  0  0  0  0
  -23.4178  -28.8199   23.3022 O   0  0  0  0  0  0
  -28.3785  -26.6460   20.1447 O   0  0  0  0  0  0
  -26.5600  -34.8931   22.4693 O   0  0  0  0  0  0
  -23.5343  -32.1455   23.7512 O   0  0  0  0  0  0
  -28.4216  -20.0216   19.7531 C   0  0  0  0  0  0
  -28.7376  -18.6404   19.5985 C   0  0  0  0  0  0
  -29.7739  -18.3586   20.4584 C   0  0  0  0  0  0
  -29.3532  -20.5267   20.6205 C   0  0  0  0  0  0
  -29.0065  -22.8291   20.4033 C   0  0  0  0  0  0
  -28.1213  -17.6447   18.7057 C   0  0  0  0  0  0
  -29.1030  -24.3172   20.7222 C   0  0  0  0  0  0
  -28.8111  -17.3990   17.3740 C   0  0  0  0  0  0
  -30.6329  -17.1325   20.7212 C   0  0  0  0  0  0
  -28.2778  -25.2405   19.8024 C   0  0  0  0  0  0
  -29.9156  -15.7741   21.0318 C   0  0  0  0  0  0
  -29.5389  -21.8402   21.0316 N   0  0  0  0  0  0
  -27.0912  -17.0399   19.0001 O   0  0  0  0  0  0
  -29.7669  -24.7677   21.6668 O   0  0  0  0  0  0
  -30.1634  -19.5240   21.0808 O   0  0  0  0  0  0
  -31.4664  -12.4149   19.1351 H   0  0  0  0  0  0
  -30.3212  -11.3151   19.8485 H   0  0  0  0  0  0
  -29.7419  -11.7709   17.4401 H   0  0  0  0  0  0
  -29.6604  -13.4842   17.7668 H   0  0  0  0  0  0
  -27.8288  -11.3035   18.8233 H   0  0  0  0  0  0
  -27.3687  -12.6215   17.7791 H   0  0  0  0  0  0
  -27.6728  -14.2490   19.5352 H   0  0  0  0  0  0
  -28.6710  -11.9993   21.3547 H   0  0  0  0  0  0
  -28.4566  -13.6538   21.8453 H   0  0  0  0  0  0
  -25.2762   -9.5621   22.4764 H   0  0  0  0  0  0
  -23.9974   -7.4593   22.7487 H   0  0  0  0  0  0
  -21.0821   -8.8763   19.8966 H   0  0  0  0  0  0
  -22.3701  -10.9652   19.6181 H   0  0  0  0  0  0
  -21.2009   -7.6142   23.9696 H   0  0  0  0  0  0
  -21.1486   -6.0532   25.9072 H   0  0  0  0  0  0
  -22.0603   -2.7596   23.2866 H   0  0  0  0  0  0
  -22.4082  -11.9837   22.4822 H   0  0  0  0  0  0
  -21.1080  -13.1214   22.2653 H   0  0  0  0  0  0
  -24.6176  -15.8093   20.5266 H   0  0  0  0  0  0
  -26.2065  -15.6479   19.9944 H   0  0  0  0  0  0
  -26.7114  -32.5522   23.1164 H   0  0  0  0  0  0
  -25.0078  -33.9797   25.0488 H   0  0  0  0  0  0
  -22.6916  -31.3136   21.4183 H   0  0  0  0  0  0
  -23.3783  -35.9603   23.3216 H   0  0  0  0  0  0
  -24.3603  -36.9015   22.2068 H   0  0  0  0  0  0
  -23.7187  -37.6470   23.6700 H   0  0  0  0  0  0
  -26.0550  -31.5909   20.6050 H   0  0  0  0  0  0
  -26.8218  -30.8733   21.9951 H   0  0  0  0  0  0
  -28.0867  -29.0565   21.1998 H   0  0  0  0  0  0
  -25.9972  -26.0308   18.9027 H   0  0  0  0  0  0
  -23.9716  -27.3403   18.9860 H   0  0  0  0  0  0
  -23.7221  -30.6146   19.4091 H   0  0  0  0  0  0
  -22.7324  -29.2608   19.8673 H   0  0  0  0  0  0
  -25.1263  -36.1968   25.0834 H   0  0  0  0  0  0
  -20.9959  -28.3255   24.1436 H   0  0  0  0  0  0
  -20.5589  -26.2296   23.3649 H   0  0  0  0  0  0
  -21.6645  -26.7399   22.1305 H   0  0  0  0  0  0
  -19.6933  -25.6291   21.1244 H   0  0  0  0  0  0
  -19.6737  -27.3182   20.6732 H   0  0  0  0  0  0
  -17.4228  -26.6733   21.3938 H   0  0  0  0  0  0
  -18.0267  -26.0048   22.8931 H   0  0  0  0  0  0
  -19.7932  -30.7224   24.2321 H   0  0  0  0  0  0
  -17.5022  -31.6260   24.5177 H   0  0  0  0  0  0
  -15.5353  -30.3002   23.7623 H   0  0  0  0  0  0
  -15.8665  -28.0818   22.7063 H   0  0  0  0  0  0
  -24.6000  -30.6972   25.7900 H   0  0  0  0  0  0
  -24.8885  -32.2876   26.4855 H   0  0  0  0  0  0
  -25.8163  -30.9027   27.0307 H   0  0  0  0  0  0
  -26.2788  -29.6797   24.1189 H   0  0  0  0  0  0
  -27.4037  -29.7239   25.4567 H   0  0  0  0  0  0
  -27.8646  -30.4292   23.9248 H   0  0  0  0  0  0
  -27.2737  -33.3574   26.2106 H   0  0  0  0  0  0
  -28.3863  -32.6870   25.0266 H   0  0  0  0  0  0
  -28.0800  -31.8374   26.5332 H   0  0  0  0  0  0
  -28.2555  -38.0148   24.7612 H   0  0  0  0  0  0
  -28.1184  -36.2697   24.6055 H   0  0  0  0  0  0
  -27.2380  -37.1202   25.8841 H   0  0  0  0  0  0
  -20.9287  -29.8789   21.6975 H   0  0  0  0  0  0
  -26.0169  -38.2862   24.1552 H   0  0  0  0  0  0
  -27.6396  -20.5605   19.2374 H   0  0  0  0  0  0
  -28.3988  -22.6313   19.5159 H   0  0  0  0  0  0
  -28.3365  -18.0021   16.6001 H   0  0  0  0  0  0
  -28.7368  -16.3479   17.0972 H   0  0  0  0  0  0
  -29.8644  -17.6723   17.4318 H   0  0  0  0  0  0
  -31.3105  -17.3461   21.5477 H   0  0  0  0  0  0
  -31.2795  -17.0234   19.8513 H   0  0  0  0  0  0
  -27.2615  -24.8635   19.8963 H   0  0  0  0  0  0
  -28.5924  -25.0978   18.7678 H   0  0  0  0  0  0
  -28.9510  -15.7656   20.5347 H   0  0  0  0  0  0
  -29.6968  -15.7035   22.0966 H   0  0  0  0  0  0
  1 25  1  0  0  0
  1 30  2  0  0  0
  1 81  1  0  0  0
  2  3  1  0  0  0
  2 25  1  0  0  0
  2 86  1  0  0  0
  2 87  1  0  0  0
  3  4  1  0  0  0
  3 88  1  0  0  0
  3 89  1  0  0  0
  4  5  1  0  0  0
  4 90  1  0  0  0
  4 91  1  0  0  0
  5  6  1  0  0  0
  5 26  1  0  0  0
  5 92  1  0  0  0
  6 25  1  0  0  0
  6 93  1  0  0  0
  6 94  1  0  0  0
  7  8  2  0  0  0
  7 26  1  0  0  0
  7 29  1  0  0  0
  8  9  1  0  0  0
  8 22  1  0  0  0
  9 10  1  0  0  0
  9 27  2  0  0  0
 10 11  2  0  0  0
 10 15  1  0  0  0
 11 12  1  0  0  0
 11 95  1  0  0  0
 12 13  2  0  0  0
 12 96  1  0  0  0
 13 14  1  0  0  0
 13 31  1  0  0  0
 14 15  2  0  0  0
 14 97  1  0  0  0
 15 98  1  0  0  0
 16 17  2  0  0  0
 16 21  1  0  0  0
 16 31  1  0  0  0
 17 18  1  0  0  0
 17 99  1  0  0  0
 18 19  2  0  0  0
 18100  1  0  0  0
 19 20  1  0  0  0
 19 24  1  0  0  0
 20 21  2  0  0  0
 20101  1  0  0  0
 21 23  1  0  0  0
 22 28  1  0  0  0
 22 32  2  0  0  0
 26 27  1  0  0  0
 28102  1  0  0  0
 28103  1  0  0  0
 29104  1  0  0  0
 29105  1  0  0  0
 33 34  1  0  0  0
 33 66  1  0  0  0
 33 70  2  0  0  0
 34 36  1  0  0  0
 34 59  1  0  0  0
 34106  1  0  0  0
 35 44  2  0  0  0
 35 45  1  0  0  0
 35 68  1  0  0  0
 36 56  1  0  0  0
 36107  1  0  0  0
 37 39  1  0  0  0
 37 47  1  0  0  0
 37 66  1  0  0  0
 37108  1  0  0  0
 38 43  2  0  0  0
 38 46  1  0  0  0
 38 47  1  0  0  0
 39 64  1  0  0  0
 39 67  2  0  0  0
 40 52  1  0  0  0
 40 53  2  0  0  0
 40 58  1  0  0  0
 41109  1  0  0  0
 41110  1  0  0  0
 41111  1  0  0  0
 41 48  1  0  0  0
 42 43  1  0  0  0
 42 66  1  0  0  0
 42112  1  0  0  0
 42113  1  0  0  0
 43 44  1  0  0  0
 44114  1  0  0  0
 45 46  2  0  0  0
 45115  1  0  0  0
 46116  1  0  0  0
 47117  1  0  0  0
 47118  1  0  0  0
 48 56  1  0  0  0
 48 65  1  0  0  0
 48119  1  0  0  0
 49 50  1  0  0  0
 49 53  1  0  0  0
 49 64  1  0  0  0
 49120  1  0  0  0
 50 51  1  0  0  0
 50121  1  0  0  0
 50122  1  0  0  0
 51 52  1  0  0  0
 51123  1  0  0  0
 51124  1  0  0  0
 52125  1  0  0  0
 52126  1  0  0  0
 53 54  1  0  0  0
 54 55  2  0  0  0
 54127  1  0  0  0
 55 57  1  0  0  0
 55128  1  0  0  0
 56 69  2  0  0  0
 57 58  2  0  0  0
 57129  1  0  0  0
 58130  1  0  0  0
 59 60  1  0  0  0
 59 61  1  0  0  0
 59 62  1  0  0  0
 60131  1  0  0  0
 60132  1  0  0  0
 60133  1  0  0  0
 61134  1  0  0  0
 61135  1  0  0  0
 61136  1  0  0  0
 62137  1  0  0  0
 62138  1  0  0  0
 62139  1  0  0  0
 63 65  1  0  0  0
 63140  1  0  0  0
 63141  1  0  0  0
 63142  1  0  0  0
 64143  1  0  0  0
 65144  1  0  0  0
 68 80  1  0  0  0
 71 72  1  0  0  0
 71 74  2  0  0  0
 71145  1  0  0  0
 72 73  2  0  0  0
 72 76  1  0  0  0
 73 79  1  0  0  0
 73 85  1  0  0  0
 74 82  1  0  0  0
 74 85  1  0  0  0
 75 77  1  0  0  0
 75 82  2  0  0  0
 75146  1  0  0  0
 76 78  1  0  0  0
 76 83  2  0  0  0
 77 80  1  0  0  0
 77 84  2  0  0  0
 78147  1  0  0  0
 78148  1  0  0  0
 78149  1  0  0  0
 79 81  1  0  0  0
 79150  1  0  0  0
 79151  1  0  0  0
 80152  1  0  0  0
 80153  1  0  0  0
 81154  1  0  0  0
 81155  1  0  0  0
M  ISO  4   1 100  68 101  80 101  81 100
M  END
> <chiral flag>
0

> <version>
0

> <s_m_source_file>
/data/baiqing/PycharmProjects/Reinvent-master-3.2/result/LINK_invent/BTK/process_docking_weight1_custom_product_contain_oxygen_bond_distance_aromatic_linkinvent_7_9_3/rearranged_h_0162.sdf

> <i_m_source_file_index>
71

> <r_mmod_Potential_Energy-OPLS-2005>
-53.2145347595215

> <r_mmod_Stretch_Energy-OPLS-2005>
42.2511367797852

> <r_mmod_Bend_Energy-OPLS-2005>
108.180770874023

> <r_mmod_Torsional_Energy-OPLS-2005>
233.380172729492

> <r_mmod_Improper_Torsional_Energy-OPLS-2005>
5.00355672836304

> <r_mmod_Van_der_Waal_Energy-OPLS-2005>
134.88005065918

> <r_mmod_Electrostatic_Energy-OPLS-2005>
-356.037109375

> <r_mmod_Solvation_Energy-OPLS-2005>
-240.585708618164

> <b_mmod_Minimization_Converged-OPLS-2005>
0

> <r_mmod_RMS_Derivative-OPLS-2005>
1.89151084423065

$$$$
71
                    3D
 Structure written by MMmdl.
158167  0  0  1  0            999 V2000
  -29.6396  -15.4416   20.7519 C   0  0  0  0  0  0
  -30.3446  -13.0491   19.7078 C   0  0  0  0  0  0
  -29.5630  -12.7406   18.3945 C   0  0  0  0  0  0
  -28.1099  -12.3271   18.7017 C   0  0  0  0  0  0
  -27.5343  -13.2187   19.8286 C   0  0  2  0  0  0
  -28.4327  -13.2529   21.0598 C   0  0  0  0  0  0
  -25.1929  -13.8041   20.5496 C   0  0  0  0  0  0
  -24.1395  -13.0270   20.9279 C   0  0  0  0  0  0
  -24.5994  -11.6750   20.8690 C   0  0  0  0  0  0
  -23.8772  -10.4154   21.0376 C   0  0  0  0  0  0
  -24.3467   -9.4116   21.9096 C   0  0  0  0  0  0
  -23.6208   -8.2137   22.0682 C   0  0  0  0  0  0
  -22.4185   -8.0144   21.3506 C   0  0  0  0  0  0
  -21.9749   -9.0059   20.4607 C   0  0  0  0  0  0
  -22.6980  -10.1969   20.2994 C   0  0  0  0  0  0
  -21.6823   -6.0656   22.5276 C   0  0  0  0  0  0
  -21.3981   -6.5576   23.8199 C   0  0  0  0  0  0
  -21.3666   -5.6749   24.9170 C   0  0  0  0  0  0
  -21.6065   -4.3008   24.7237 C   0  0  0  0  0  0
  -21.8815   -3.8089   23.4352 C   0  0  0  0  0  0
  -21.9194   -4.6898   22.3412 C   0  0  0  0  0  0
  -22.7485  -13.5054   21.2114 C   0  0  0  0  0  0
  -22.1650   -4.2093   21.0985 F   0  0  0  0  0  0
  -21.5677   -3.4495   25.7754 F   0  0  0  0  0  0
  -29.5440  -14.0192   20.5831 N   0  0  0  0  0  0
  -26.2055  -12.9103   20.2580 N   0  0  0  0  0  0
  -25.8791  -11.6297   20.5323 N   0  0  0  0  0  0
  -22.0271  -12.7999   22.0739 N   0  0  0  0  0  0
  -25.3692  -15.1813   20.3926 N   0  0  0  0  0  0
  -30.8414  -15.7340   20.5019 O   0  0  0  0  0  0
  -21.6563   -6.8751   21.4224 O   0  0  0  0  0  0
  -22.3198  -14.5386   20.6987 O   0  0  0  0  0  0
  -24.6664  -31.9490   23.2110 C   0  0  0  0  0  0
  -25.9566  -32.5113   23.8539 C   0  0  1  0  0  0
  -26.3372  -27.2084   20.2825 C   0  0  0  0  0  0
  -25.6456  -33.8861   24.2554 N   0  0  0  0  0  0
  -23.4546  -30.5939   21.5897 C   0  0  2  0  0  0
  -24.8109  -29.2640   19.8516 C   0  0  0  0  0  0
  -23.0879  -29.5260   22.6398 C   0  0  0  0  0  0
  -18.4670  -27.6829   22.4827 C   0  0  0  0  0  0
  -24.1527  -36.7389   23.2608 C   0  0  0  0  0  0
  -25.9847  -30.8301   21.4037 C   0  0  0  0  0  0
  -25.9204  -29.5056   20.6660 C   0  0  0  0  0  0
  -26.8343  -28.4438   20.8046 C   0  0  0  0  0  0
  -25.8894  -27.2527   18.9931 C   0  0  0  0  0  0
  -24.8899  -28.2360   18.8751 C   0  0  0  0  0  0
  -23.5783  -30.0848   20.1115 C   0  0  0  0  0  0
  -25.4139  -36.3233   24.0335 C   0  0  1  0  0  0
  -21.5123  -28.1153   23.7636 C   0  0  2  0  0  0
  -22.7514  -26.3224   22.9072 C   0  0  0  0  0  0
  -20.8863  -25.1554   20.7314 C   0  0  0  0  0  0
  -18.7954  -26.1368   21.1718 C   0  0  0  0  0  0
  -19.5790  -28.4634   23.4725 C   0  0  0  0  0  0
  -19.1305  -29.7261   24.0173 C   0  0  0  0  0  0
  -17.8135  -30.2359   23.9689 C   0  0  0  0  0  0
  -25.9175  -34.9651   23.5147 C   0  0  0  0  0  0
  -16.8135  -29.4718   23.3498 C   0  0  0  0  0  0
  -17.1410  -28.2706   22.6393 C   0  0  0  0  0  0
  -26.4651  -31.6687   25.0877 C   0  0  0  0  0  0
  -25.3748  -31.3783   26.1459 C   0  0  0  0  0  0
  -27.0430  -30.3103   24.6310 C   0  0  0  0  0  0
  -27.6213  -32.4254   25.7779 C   0  0  0  0  0  0
  -27.5600  -37.1950   24.8481 C   0  0  0  0  0  0
  -21.8570  -29.3494   23.0190 N   0  0  0  0  0  0
  -26.4296  -37.3926   23.9441 N   0  0  0  0  0  0
  -24.7179  -31.1963   22.0789 N   0  0  0  0  0  0
  -23.9466  -28.8897   23.2300 O   0  0  0  0  0  0
  -25.1990  -26.6910   20.9807 O   0  0  0  0  0  0
  -26.5497  -34.9073   22.4575 O   0  0  0  0  0  0
  -23.5857  -32.2184   23.7611 O   0  0  0  0  0  0
  -20.3629  -26.0943   22.9825 C   0  0  0  0  0  0
  -20.8083  -27.3072   21.6631 C   0  0  0  0  0  0
  -26.2960  -18.7021   21.4946 C   0  0  0  0  0  0
  -26.9372  -20.7883   22.4931 C   0  0  0  0  0  0
  -28.6017  -18.8590   22.1089 C   0  0  0  0  0  0
  -25.7752  -20.1690   21.9666 C   0  0  0  0  0  0
  -27.7264  -17.9309   21.4843 C   0  0  0  0  0  0
  -28.2356  -20.1719   22.5679 C   0  0  0  0  0  0
  -20.9685  -24.8430   23.0331 C   0  0  0  0  0  0
  -21.9712  -27.2696   20.9674 C   0  0  0  0  0  0
  -24.2485  -21.1638   21.9611 C   0  0  0  0  0  0
  -22.0266  -23.3169   22.5720 C   0  0  0  0  0  0
  -28.3857  -16.3822   21.0248 N   0  0  0  0  0  0
  -23.4493  -26.6255   20.4853 N   0  0  0  0  0  0
  -23.6061  -22.5230   22.4900 N   0  0  0  0  0  0
  -23.3755  -20.5092   21.1853 N   0  3  0  0  0  0
  -21.2300  -22.4338   22.2372 O   0  0  0  0  0  0
  -20.8302  -26.5271   22.2455 O   0  0  0  0  0  0
  -29.2154  -20.9215   23.1259 F   0  0  0  0  0  0
  -31.3306  -13.4629   19.4862 H   0  0  0  0  0  0
  -30.5517  -12.1226   20.2484 H   0  0  0  0  0  0
  -30.0854  -11.9985   17.7892 H   0  0  0  0  0  0
  -29.5459  -13.6700   17.8175 H   0  0  0  0  0  0
  -28.0920  -11.2740   18.9891 H   0  0  0  0  0  0
  -27.5079  -12.4151   17.7986 H   0  0  0  0  0  0
  -27.4817  -14.2152   19.3852 H   0  0  0  0  0  0
  -28.6940  -12.2427   21.3917 H   0  0  0  0  0  0
  -27.9479  -13.7490   21.9069 H   0  0  0  0  0  0
  -25.2650   -9.5640   22.4577 H   0  0  0  0  0  0
  -23.9984   -7.4508   22.7328 H   0  0  0  0  0  0
  -21.0689   -8.8447   19.8919 H   0  0  0  0  0  0
  -22.3356  -10.9448   19.6076 H   0  0  0  0  0  0
  -21.1909   -7.6070   23.9677 H   0  0  0  0  0  0
  -21.1533   -6.0484   25.9078 H   0  0  0  0  0  0
  -22.0624   -2.7547   23.2856 H   0  0  0  0  0  0
  -22.3943  -11.9628   22.5009 H   0  0  0  0  0  0
  -21.0928  -13.0979   22.3116 H   0  0  0  0  0  0
  -24.5070  -15.7122   20.4653 H   0  0  0  0  0  0
  -25.8909  -15.4741   19.5744 H   0  0  0  0  0  0
  -26.7691  -32.5641   23.1328 H   0  0  0  0  0  0
  -25.0872  -33.9995   25.0884 H   0  0  0  0  0  0
  -22.6688  -31.3481   21.5912 H   0  0  0  0  0  0
  -23.3808  -35.9705   23.3264 H   0  0  0  0  0  0
  -24.3639  -36.8999   22.2021 H   0  0  0  0  0  0
  -23.7238  -37.6600   23.6587 H   0  0  0  0  0  0
  -26.2345  -31.6130   20.6859 H   0  0  0  0  0  0
  -26.8369  -30.7542   22.0725 H   0  0  0  0  0  0
  -27.5955  -28.4776   21.5723 H   0  0  0  0  0  0
  -25.7871  -26.3553   18.3960 H   0  0  0  0  0  0
  -24.1310  -28.1343   18.1138 H   0  0  0  0  0  0
  -23.6486  -30.9581   19.4568 H   0  0  0  0  0  0
  -22.6812  -29.5570   19.7940 H   0  0  0  0  0  0
  -25.1295  -36.2131   25.0812 H   0  0  0  0  0  0
  -21.7464  -28.2560   24.8184 H   0  0  0  0  0  0
  -22.9688  -25.6840   23.7730 H   0  0  0  0  0  0
  -23.7957  -26.5538   22.7542 H   0  0  0  0  0  0
  -20.7835  -24.0831   20.5678 H   0  0  0  0  0  0
  -21.1856  -25.4219   19.7089 H   0  0  0  0  0  0
  -18.3667  -26.4353   20.2147 H   0  0  0  0  0  0
  -18.1432  -25.3338   21.5132 H   0  0  0  0  0  0
  -19.8588  -30.3157   24.5626 H   0  0  0  0  0  0
  -17.5691  -31.1783   24.4418 H   0  0  0  0  0  0
  -15.7925  -29.8275   23.3551 H   0  0  0  0  0  0
  -16.3275  -27.7921   22.1103 H   0  0  0  0  0  0
  -24.5937  -30.7214   25.7647 H   0  0  0  0  0  0
  -24.8960  -32.2929   26.4945 H   0  0  0  0  0  0
  -25.7965  -30.8850   27.0220 H   0  0  0  0  0  0
  -26.3059  -29.6984   24.1143 H   0  0  0  0  0  0
  -27.3891  -29.7242   25.4823 H   0  0  0  0  0  0
  -27.9035  -30.4359   23.9735 H   0  0  0  0  0  0
  -27.2896  -33.3552   26.2403 H   0  0  0  0  0  0
  -28.4120  -32.6775   25.0697 H   0  0  0  0  0  0
  -28.0754  -31.8273   26.5692 H   0  0  0  0  0  0
  -28.2645  -38.0223   24.7497 H   0  0  0  0  0  0
  -28.1081  -36.2766   24.6349 H   0  0  0  0  0  0
  -27.2335  -37.1660   25.8891 H   0  0  0  0  0  0
  -21.1071  -29.9199   22.6528 H   0  0  0  0  0  0
  -26.0197  -38.3014   24.1456 H   0  0  0  0  0  0
  -19.5849  -26.0963   23.7678 H   0  0  0  0  0  0
  -20.3279  -28.2303   21.2806 H   0  0  0  0  0  0
  -25.5051  -18.0944   21.0843 H   0  0  0  0  0  0
  -26.8440  -21.8061   22.8485 H   0  0  0  0  0  0
  -29.6263  -18.5517   22.2590 H   0  0  0  0  0  0
  -27.5936  -15.7692   20.8995 H   0  0  0  0  0  0
  -23.4841  -26.8999   19.5118 H   0  0  0  0  0  0
  -24.3756  -23.0611   22.8606 H   0  0  0  0  0  0
  -23.6895  -19.7445   20.6055 H   0  0  0  0  0  0
  -22.4287  -20.8459   21.0809 H   0  0  0  0  0  0
  1 25  1  0  0  0
  1 30  2  0  0  0
  1 83  1  0  0  0
  2  3  1  0  0  0
  2 25  1  0  0  0
  2 90  1  0  0  0
  2 91  1  0  0  0
  3  4  1  0  0  0
  3 92  1  0  0  0
  3 93  1  0  0  0
  4  5  1  0  0  0
  4 94  1  0  0  0
  4 95  1  0  0  0
  5  6  1  0  0  0
  5 26  1  0  0  0
  5 96  1  0  0  0
  6 25  1  0  0  0
  6 97  1  0  0  0
  6 98  1  0  0  0
  7  8  2  0  0  0
  7 26  1  0  0  0
  7 29  1  0  0  0
  8  9  1  0  0  0
  8 22  1  0  0  0
  9 10  1  0  0  0
  9 27  2  0  0  0
 10 11  2  0  0  0
 10 15  1  0  0  0
 11 12  1  0  0  0
 11 99  1  0  0  0
 12 13  2  0  0  0
 12100  1  0  0  0
 13 14  1  0  0  0
 13 31  1  0  0  0
 14 15  2  0  0  0
 14101  1  0  0  0
 15102  1  0  0  0
 16 17  2  0  0  0
 16 21  1  0  0  0
 16 31  1  0  0  0
 17 18  1  0  0  0
 17103  1  0  0  0
 18 19  2  0  0  0
 18104  1  0  0  0
 19 20  1  0  0  0
 19 24  1  0  0  0
 20 21  2  0  0  0
 20105  1  0  0  0
 21 23  1  0  0  0
 22 28  1  0  0  0
 22 32  2  0  0  0
 26 27  1  0  0  0
 28106  1  0  0  0
 28107  1  0  0  0
 29108  1  0  0  0
 29109  1  0  0  0
 33 34  1  0  0  0
 33 66  1  0  0  0
 33 70  2  0  0  0
 34 36  1  0  0  0
 34 59  1  0  0  0
 34110  1  0  0  0
 35 44  2  0  0  0
 35 45  1  0  0  0
 35 68  1  0  0  0
 36 56  1  0  0  0
 36111  1  0  0  0
 37 39  1  0  0  0
 37 47  1  0  0  0
 37 66  1  0  0  0
 37112  1  0  0  0
 38 43  2  0  0  0
 38 46  1  0  0  0
 38 47  1  0  0  0
 39 64  1  0  0  0
 39 67  2  0  0  0
 40 52  1  0  0  0
 40 53  2  0  0  0
 40 58  1  0  0  0
 41113  1  0  0  0
 41114  1  0  0  0
 41115  1  0  0  0
 41 48  1  0  0  0
 42 43  1  0  0  0
 42 66  1  0  0  0
 42116  1  0  0  0
 42117  1  0  0  0
 43 44  1  0  0  0
 44118  1  0  0  0
 45 46  2  0  0  0
 45119  1  0  0  0
 46120  1  0  0  0
 47121  1  0  0  0
 47122  1  0  0  0
 48 56  1  0  0  0
 48 65  1  0  0  0
 48123  1  0  0  0
 49 50  1  0  0  0
 49 53  1  0  0  0
 49 64  1  0  0  0
 49124  1  0  0  0
 50 51  1  0  0  0
 50125  1  0  0  0
 50126  1  0  0  0
 51 52  1  0  0  0
 51127  1  0  0  0
 51128  1  0  0  0
 52129  1  0  0  0
 52130  1  0  0  0
 53 54  1  0  0  0
 54 55  2  0  0  0
 54131  1  0  0  0
 55 57  1  0  0  0
 55132  1  0  0  0
 56 69  2  0  0  0
 57 58  2  0  0  0
 57133  1  0  0  0
 58134  1  0  0  0
 59 60  1  0  0  0
 59 61  1  0  0  0
 59 62  1  0  0  0
 60135  1  0  0  0
 60136  1  0  0  0
 60137  1  0  0  0
 61138  1  0  0  0
 61139  1  0  0  0
 61140  1  0  0  0
 62141  1  0  0  0
 62142  1  0  0  0
 62143  1  0  0  0
 63 65  1  0  0  0
 63144  1  0  0  0
 63145  1  0  0  0
 63146  1  0  0  0
 64147  1  0  0  0
 65148  1  0  0  0
 68 84  1  0  0  0
 71 72  1  0  0  0
 71 79  2  0  0  0
 71149  1  0  0  0
 72 80  2  0  0  0
 72150  1  0  0  0
 73 76  2  0  0  0
 73 77  1  0  0  0
 73151  1  0  0  0
 74 76  1  0  0  0
 74 78  2  0  0  0
 74152  1  0  0  0
 75 77  2  0  0  0
 75 78  1  0  0  0
 75153  1  0  0  0
 76 81  1  0  0  0
 77 83  1  0  0  0
 78 89  1  0  0  0
 79 82  1  0  0  0
 79 88  1  0  0  0
 80 84  1  0  0  0
 80 88  1  0  0  0
 81 85  1  0  0  0
 81 86  2  0  0  0
 82 85  1  0  0  0
 82 87  2  0  0  0
 83154  1  0  0  0
 84155  1  0  0  0
 85156  1  0  0  0
 86157  1  0  0  0
 86158  1  0  0  0
M  CHG  1  86   1
M  ISO  4   1 100  68 101  83 100  84 101
M  END
> <chiral flag>
0

> <version>
0

> <s_m_source_file>
/data/baiqing/PycharmProjects/Reinvent-master-3.2/result/LINK_invent/BTK/process_docking_weight1_custom_product_contain_oxygen_bond_distance_aromatic_linkinvent_7_9_3/rearranged_h_0162.sdf

> <i_m_source_file_index>
72

> <r_mmod_Potential_Energy-OPLS-2005>
16507.916015625

> <r_mmod_Stretch_Energy-OPLS-2005>
7898.73095703125

> <r_mmod_Bend_Energy-OPLS-2005>
2509.55151367188

> <r_mmod_Torsional_Energy-OPLS-2005>
515.365356445312

> <r_mmod_Improper_Torsional_Energy-OPLS-2005>
47.540225982666

> <r_mmod_Van_der_Waal_Energy-OPLS-2005>
2895.375

> <r_mmod_Electrostatic_Energy-OPLS-2005>
-558.692687988281

> <r_mmod_Solvation_Energy-OPLS-2005>
-441.741973876953

> <b_mmod_Minimization_Converged-OPLS-2005>
0

> <r_mmod_RMS_Derivative-OPLS-2005>
12.1321487426758

$$$$
72
                    3D
 Structure written by MMmdl.
159167  0  0  1  0            999 V2000
  -30.6870  -14.4598   20.6015 C   0  0  0  0  0  0
  -30.4324  -12.3045   19.4280 C   0  0  0  0  0  0
  -29.5043  -12.5068   18.2101 C   0  0  0  0  0  0
  -28.0226  -12.3733   18.6122 C   0  0  0  0  0  0
  -27.6660  -13.2045   19.8739 C   0  0  2  0  0  0
  -28.6983  -12.9599   20.9973 C   0  0  0  0  0  0
  -25.2608  -13.8149   20.5628 C   0  0  0  0  0  0
  -24.1865  -13.0435   20.9144 C   0  0  0  0  0  0
  -24.6402  -11.6896   20.8678 C   0  0  0  0  0  0
  -23.9070  -10.4285   21.0360 C   0  0  0  0  0  0
  -24.3631   -9.4219   21.9150 C   0  0  0  0  0  0
  -23.6310   -8.2251   22.0740 C   0  0  0  0  0  0
  -22.4289   -8.0281   21.3549 C   0  0  0  0  0  0
  -21.9925   -9.0247   20.4639 C   0  0  0  0  0  0
  -22.7236  -10.2133   20.3037 C   0  0  0  0  0  0
  -21.6852   -6.0738   22.5274 C   0  0  0  0  0  0
  -21.3998   -6.5637   23.8203 C   0  0  0  0  0  0
  -21.3682   -5.6790   24.9173 C   0  0  0  0  0  0
  -21.6060   -4.3054   24.7217 C   0  0  0  0  0  0
  -21.8834   -3.8157   23.4338 C   0  0  0  0  0  0
  -21.9201   -4.6971   22.3394 C   0  0  0  0  0  0
  -22.7906  -13.5250   21.1833 C   0  0  0  0  0  0
  -22.1661   -4.2150   21.0970 F   0  0  0  0  0  0
  -21.5658   -3.4533   25.7735 F   0  0  0  0  0  0
  -30.0408  -13.2685   20.4698 N   0  0  0  0  0  0
  -26.3035  -12.9312   20.3303 N   0  0  0  0  0  0
  -25.9323  -11.6473   20.5702 N   0  0  0  0  0  0
  -22.0566  -12.8227   22.0391 N   0  0  0  0  0  0
  -25.4367  -15.1853   20.4041 N   0  0  0  0  0  0
  -31.7702  -14.7002   20.0497 O   0  0  0  0  0  0
  -21.6664   -6.8870   21.4231 O   0  0  0  0  0  0
  -22.3575  -14.5554   20.6688 O   0  0  0  0  0  0
  -24.6159  -31.8676   23.2080 C   0  0  0  0  0  0
  -25.9040  -32.4820   23.8397 C   0  0  1  0  0  0
  -27.2350  -27.4353   20.1063 C   0  0  0  0  0  0
  -25.5889  -33.8616   24.2324 N   0  0  0  0  0  0
  -23.4053  -30.4904   21.5489 C   0  0  2  0  0  0
  -24.8508  -28.9533   20.1171 C   0  0  0  0  0  0
  -22.7422  -29.4672   22.4995 C   0  0  0  0  0  0
  -18.0309  -28.1366   22.8476 C   0  0  0  0  0  0
  -24.1493  -36.7312   23.2646 C   0  0  0  0  0  0
  -25.9336  -30.8346   21.3601 C   0  0  0  0  0  0
  -26.0108  -29.4682   20.7095 C   0  0  0  0  0  0
  -27.2091  -28.7191   20.6961 C   0  0  0  0  0  0
  -26.0624  -26.9333   19.5066 C   0  0  0  0  0  0
  -24.8712  -27.6830   19.5136 C   0  0  0  0  0  0
  -23.6124  -29.8190   20.1650 C   0  0  0  0  0  0
  -25.4109  -36.3104   24.0343 C   0  0  1  0  0  0
  -20.5893  -28.3652   23.1320 C   0  0  2  0  0  0
  -20.6805  -26.9398   22.5363 C   0  0  0  0  0  0
  -19.5785  -26.6427   21.5153 C   0  0  0  0  0  0
  -18.1970  -26.7935   22.1563 C   0  0  0  0  0  0
  -19.1555  -28.8828   23.2910 C   0  0  0  0  0  0
  -18.9477  -30.1416   23.8932 C   0  0  0  0  0  0
  -17.6480  -30.6567   24.0566 C   0  0  0  0  0  0
  -25.9026  -34.9476   23.5134 C   0  0  0  0  0  0
  -16.5364  -29.9071   23.6325 C   0  0  0  0  0  0
  -16.7296  -28.6495   23.0335 C   0  0  0  0  0  0
  -26.4469  -31.6605   25.0731 C   0  0  0  0  0  0
  -25.3730  -31.3720   26.1473 C   0  0  0  0  0  0
  -27.0306  -30.3050   24.6108 C   0  0  0  0  0  0
  -27.6061  -32.4310   25.7487 C   0  0  0  0  0  0
  -27.5581  -37.1804   24.8468 C   0  0  0  0  0  0
  -21.4145  -29.3035   22.3731 N   0  0  0  0  0  0
  -26.4297  -37.3783   23.9413 N   0  0  0  0  0  0
  -24.6704  -31.0783   22.0977 N   0  0  0  0  0  0
  -23.4189  -28.8222   23.3040 O   0  0  0  0  0  0
  -28.3855  -26.6794   20.1046 O   0  0  0  0  0  0
  -26.5597  -34.8929   22.4693 O   0  0  0  0  0  0
  -23.5337  -32.1407   23.7473 O   0  0  0  0  0  0
  -29.0465  -18.9440   21.6317 C   0  0  0  0  0  0
  -29.5569  -17.6688   21.9594 C   0  0  0  0  0  0
  -28.6279  -19.2182   20.3116 C   0  0  0  0  0  0
  -29.6754  -16.6814   20.9599 C   0  0  0  0  0  0
  -28.7947  -18.1671   19.3725 C   0  0  0  0  0  0
  -28.5218  -24.1942   20.1111 C   0  0  0  0  0  0
  -26.6214  -20.7122   20.8207 C   0  0  0  0  0  0
  -28.6233  -22.8709   20.8961 C   0  0  0  0  0  0
  -28.3155  -25.4923   20.9214 C   0  0  0  0  0  0
  -27.9065  -20.5502   19.9779 C   0  0  1  0  0  0
  -29.3092  -16.9617   19.6862 N   0  0  0  0  0  0
  -28.4159  -18.2598   18.0412 N   0  0  0  0  0  0
  -30.0688  -15.3759   21.3712 N   0  0  0  0  0  0
  -28.7870  -21.7612   19.9156 N   0  3  0  0  0  0
  -28.5765  -24.1973   18.8739 O   0  0  0  0  0  0
  -31.4759  -12.4163   19.1281 H   0  0  0  0  0  0
  -30.3494  -11.2864   19.8122 H   0  0  0  0  0  0
  -29.7465  -11.7802   17.4331 H   0  0  0  0  0  0
  -29.6788  -13.4907   17.7721 H   0  0  0  0  0  0
  -27.8241  -11.3167   18.8009 H   0  0  0  0  0  0
  -27.3844  -12.6565   17.7746 H   0  0  0  0  0  0
  -27.7185  -14.2573   19.5926 H   0  0  0  0  0  0
  -28.6654  -11.9155   21.3116 H   0  0  0  0  0  0
  -28.4404  -13.5368   21.8847 H   0  0  0  0  0  0
  -25.2776   -9.5718   22.4723 H   0  0  0  0  0  0
  -24.0048   -7.4652   22.7470 H   0  0  0  0  0  0
  -21.0859   -8.8766   19.8926 H   0  0  0  0  0  0
  -22.3689  -10.9689   19.6166 H   0  0  0  0  0  0
  -21.1945   -7.6138   23.9694 H   0  0  0  0  0  0
  -21.1497   -6.0517   25.9069 H   0  0  0  0  0  0
  -22.0588   -2.7616   23.2825 H   0  0  0  0  0  0
  -22.4221  -11.9891   22.4762 H   0  0  0  0  0  0
  -21.1189  -13.1234   22.2647 H   0  0  0  0  0  0
  -24.6670  -15.8392   20.4931 H   0  0  0  0  0  0
  -26.2915  -15.6141   20.0702 H   0  0  0  0  0  0
  -26.7123  -32.5535   23.1177 H   0  0  0  0  0  0
  -25.0059  -33.9798   25.0478 H   0  0  0  0  0  0
  -22.6945  -31.3072   21.4071 H   0  0  0  0  0  0
  -23.3751  -35.9651   23.3314 H   0  0  0  0  0  0
  -24.3591  -36.8897   22.2058 H   0  0  0  0  0  0
  -23.7242  -37.6525   23.6633 H   0  0  0  0  0  0
  -26.0448  -31.5994   20.5906 H   0  0  0  0  0  0
  -26.8229  -30.8891   21.9760 H   0  0  0  0  0  0
  -28.1038  -29.1167   21.1528 H   0  0  0  0  0  0
  -26.0705  -25.9623   19.0321 H   0  0  0  0  0  0
  -23.9793  -27.2782   19.0566 H   0  0  0  0  0  0
  -23.7172  -30.5914   19.4031 H   0  0  0  0  0  0
  -22.7373  -29.2344   19.8760 H   0  0  0  0  0  0
  -25.1280  -36.1978   25.0834 H   0  0  0  0  0  0
  -21.0006  -28.3198   24.1427 H   0  0  0  0  0  0
  -20.5722  -26.2227   23.3515 H   0  0  0  0  0  0
  -21.6673  -26.7487   22.1118 H   0  0  0  0  0  0
  -19.6957  -25.6365   21.1118 H   0  0  0  0  0  0
  -19.6747  -27.3300   20.6735 H   0  0  0  0  0  0
  -17.4260  -26.6771   21.3931 H   0  0  0  0  0  0
  -18.0363  -25.9998   22.8889 H   0  0  0  0  0  0
  -19.7931  -30.7232   24.2349 H   0  0  0  0  0  0
  -17.5045  -31.6245   24.5171 H   0  0  0  0  0  0
  -15.5360  -30.2990   23.7639 H   0  0  0  0  0  0
  -15.8715  -28.0804   22.7021 H   0  0  0  0  0  0
  -24.5889  -30.7082   25.7808 H   0  0  0  0  0  0
  -24.8952  -32.2893   26.4927 H   0  0  0  0  0  0
  -25.8068  -30.8874   27.0231 H   0  0  0  0  0  0
  -26.2862  -29.6809   24.1143 H   0  0  0  0  0  0
  -27.4072  -29.7270   25.4563 H   0  0  0  0  0  0
  -27.8697  -30.4400   23.9274 H   0  0  0  0  0  0
  -27.2693  -33.3589   26.2128 H   0  0  0  0  0  0
  -28.3838  -32.6889   25.0285 H   0  0  0  0  0  0
  -28.0776  -31.8390   26.5343 H   0  0  0  0  0  0
  -28.2604  -38.0100   24.7492 H   0  0  0  0  0  0
  -28.1061  -36.2614   24.6300 H   0  0  0  0  0  0
  -27.2300  -37.1473   25.8877 H   0  0  0  0  0  0
  -20.9290  -29.8730   21.6942 H   0  0  0  0  0  0
  -26.0179  -38.2868   24.1382 H   0  0  0  0  0  0
  -28.9356  -19.6898   22.4046 H   0  0  0  0  0  0
  -29.8370  -17.4594   22.9839 H   0  0  0  0  0  0
  -25.9809  -19.8369   20.7092 H   0  0  0  0  0  0
  -26.0346  -21.5721   20.4970 H   0  0  0  0  0  0
  -26.8295  -20.8167   21.8856 H   0  0  0  0  0  0
  -27.7320  -22.7820   21.5108 H   0  0  0  0  0  0
  -29.4806  -22.9000   21.5704 H   0  0  0  0  0  0
  -29.0953  -25.5511   21.6817 H   0  0  0  0  0  0
  -27.3633  -25.4348   21.4523 H   0  0  0  0  0  0
  -27.5523  -20.4609   18.9513 H   0  0  0  0  0  0
  -27.7609  -18.9687   17.7366 H   0  0  0  0  0  0
  -28.3479  -17.4001   17.5081 H   0  0  0  0  0  0
  -29.4753  -14.9857   22.0856 H   0  0  0  0  0  0
  -29.7576  -21.4994   19.8591 H   0  0  0  0  0  0
  -28.5884  -22.2351   19.0421 H   0  0  0  0  0  0
  1 25  1  0  0  0
  1 30  2  0  0  0
  1 83  1  0  0  0
  2  3  1  0  0  0
  2 25  1  0  0  0
  2 86  1  0  0  0
  2 87  1  0  0  0
  3  4  1  0  0  0
  3 88  1  0  0  0
  3 89  1  0  0  0
  4  5  1  0  0  0
  4 90  1  0  0  0
  4 91  1  0  0  0
  5  6  1  0  0  0
  5 26  1  0  0  0
  5 92  1  0  0  0
  6 25  1  0  0  0
  6 93  1  0  0  0
  6 94  1  0  0  0
  7  8  2  0  0  0
  7 26  1  0  0  0
  7 29  1  0  0  0
  8  9  1  0  0  0
  8 22  1  0  0  0
  9 10  1  0  0  0
  9 27  2  0  0  0
 10 11  2  0  0  0
 10 15  1  0  0  0
 11 12  1  0  0  0
 11 95  1  0  0  0
 12 13  2  0  0  0
 12 96  1  0  0  0
 13 14  1  0  0  0
 13 31  1  0  0  0
 14 15  2  0  0  0
 14 97  1  0  0  0
 15 98  1  0  0  0
 16 17  2  0  0  0
 16 21  1  0  0  0
 16 31  1  0  0  0
 17 18  1  0  0  0
 17 99  1  0  0  0
 18 19  2  0  0  0
 18100  1  0  0  0
 19 20  1  0  0  0
 19 24  1  0  0  0
 20 21  2  0  0  0
 20101  1  0  0  0
 21 23  1  0  0  0
 22 28  1  0  0  0
 22 32  2  0  0  0
 26 27  1  0  0  0
 28102  1  0  0  0
 28103  1  0  0  0
 29104  1  0  0  0
 29105  1  0  0  0
 33 34  1  0  0  0
 33 66  1  0  0  0
 33 70  2  0  0  0
 34 36  1  0  0  0
 34 59  1  0  0  0
 34106  1  0  0  0
 35 44  2  0  0  0
 35 45  1  0  0  0
 35 68  1  0  0  0
 36 56  1  0  0  0
 36107  1  0  0  0
 37 39  1  0  0  0
 37 47  1  0  0  0
 37 66  1  0  0  0
 37108  1  0  0  0
 38 43  2  0  0  0
 38 46  1  0  0  0
 38 47  1  0  0  0
 39 64  1  0  0  0
 39 67  2  0  0  0
 40 52  1  0  0  0
 40 53  2  0  0  0
 40 58  1  0  0  0
 41109  1  0  0  0
 41110  1  0  0  0
 41111  1  0  0  0
 41 48  1  0  0  0
 42 43  1  0  0  0
 42 66  1  0  0  0
 42112  1  0  0  0
 42113  1  0  0  0
 43 44  1  0  0  0
 44114  1  0  0  0
 45 46  2  0  0  0
 45115  1  0  0  0
 46116  1  0  0  0
 47117  1  0  0  0
 47118  1  0  0  0
 48 56  1  0  0  0
 48 65  1  0  0  0
 48119  1  0  0  0
 49 50  1  0  0  0
 49 53  1  0  0  0
 49 64  1  0  0  0
 49120  1  0  0  0
 50 51  1  0  0  0
 50121  1  0  0  0
 50122  1  0  0  0
 51 52  1  0  0  0
 51123  1  0  0  0
 51124  1  0  0  0
 52125  1  0  0  0
 52126  1  0  0  0
 53 54  1  0  0  0
 54 55  2  0  0  0
 54127  1  0  0  0
 55 57  1  0  0  0
 55128  1  0  0  0
 56 69  2  0  0  0
 57 58  2  0  0  0
 57129  1  0  0  0
 58130  1  0  0  0
 59 60  1  0  0  0
 59 61  1  0  0  0
 59 62  1  0  0  0
 60131  1  0  0  0
 60132  1  0  0  0
 60133  1  0  0  0
 61134  1  0  0  0
 61135  1  0  0  0
 61136  1  0  0  0
 62137  1  0  0  0
 62138  1  0  0  0
 62139  1  0  0  0
 63 65  1  0  0  0
 63140  1  0  0  0
 63141  1  0  0  0
 63142  1  0  0  0
 64143  1  0  0  0
 65144  1  0  0  0
 68 79  1  0  0  0
 71 72  2  0  0  0
 71 73  1  0  0  0
 71145  1  0  0  0
 72 74  1  0  0  0
 72146  1  0  0  0
 73 75  2  0  0  0
 73 80  1  0  0  0
 74 81  2  0  0  0
 74 83  1  0  0  0
 75 81  1  0  0  0
 75 82  1  0  0  0
 76 78  1  0  0  0
 76 79  1  0  0  0
 76 85  2  0  0  0
 77147  1  0  0  0
 77148  1  0  0  0
 77149  1  0  0  0
 77 80  1  0  0  0
 78 84  1  0  0  0
 78150  1  0  0  0
 78151  1  0  0  0
 79152  1  0  0  0
 79153  1  0  0  0
 80 84  1  0  0  0
 80154  1  0  0  0
 82155  1  0  0  0
 82156  1  0  0  0
 83157  1  0  0  0
 84158  1  0  0  0
 84159  1  0  0  0
M  CHG  1  84   1
M  ISO  4   1 100  68 101  79 101  83 100
M  END
> <chiral flag>
0

> <version>
0

> <s_m_source_file>
/data/baiqing/PycharmProjects/Reinvent-master-3.2/result/LINK_invent/BTK/process_docking_weight1_custom_product_contain_oxygen_bond_distance_aromatic_linkinvent_7_9_3/rearranged_h_0162.sdf

> <i_m_source_file_index>
73

> <r_mmod_Potential_Energy-OPLS-2005>
-451.996429443359

> <r_mmod_Stretch_Energy-OPLS-2005>
40.0689659118652

> <r_mmod_Bend_Energy-OPLS-2005>
114.145217895508

> <r_mmod_Torsional_Energy-OPLS-2005>
270.88818359375

> <r_mmod_Improper_Torsional_Energy-OPLS-2005>
7.74358940124512

> <r_mmod_Van_der_Waal_Energy-OPLS-2005>
151.791687011719

> <r_mmod_Electrostatic_Energy-OPLS-2005>
-542.152648925781

> <r_mmod_Solvation_Energy-OPLS-2005>
-505.820922851562

> <b_mmod_Minimization_Converged-OPLS-2005>
0

> <r_mmod_RMS_Derivative-OPLS-2005>
3.79361486434937

$$$$
73
                    3D
 Structure written by MMmdl.
154162  0  0  1  0            999 V2000
  -30.6782  -14.5280   20.5218 C   0  0  0  0  0  0
  -30.4263  -12.3238   19.4394 C   0  0  0  0  0  0
  -29.4998  -12.4902   18.2158 C   0  0  0  0  0  0
  -28.0221  -12.3442   18.6297 C   0  0  0  0  0  0
  -27.6578  -13.2073   19.8668 C   0  0  2  0  0  0
  -28.7006  -13.0303   20.9944 C   0  0  0  0  0  0
  -25.2566  -13.8163   20.5666 C   0  0  0  0  0  0
  -24.1824  -13.0441   20.9175 C   0  0  0  0  0  0
  -24.6384  -11.6905   20.8729 C   0  0  0  0  0  0
  -23.9051  -10.4291   21.0395 C   0  0  0  0  0  0
  -24.3600   -9.4207   21.9174 C   0  0  0  0  0  0
  -23.6276   -8.2244   22.0753 C   0  0  0  0  0  0
  -22.4261   -8.0275   21.3540 C   0  0  0  0  0  0
  -21.9894   -9.0248   20.4646 C   0  0  0  0  0  0
  -22.7221  -10.2127   20.3051 C   0  0  0  0  0  0
  -21.6847   -6.0718   22.5268 C   0  0  0  0  0  0
  -21.4016   -6.5625   23.8200 C   0  0  0  0  0  0
  -21.3659   -5.6781   24.9164 C   0  0  0  0  0  0
  -21.6049   -4.3046   24.7223 C   0  0  0  0  0  0
  -21.8820   -3.8131   23.4347 C   0  0  0  0  0  0
  -21.9195   -4.6946   22.3399 C   0  0  0  0  0  0
  -22.7848  -13.5233   21.1848 C   0  0  0  0  0  0
  -22.1656   -4.2127   21.0978 F   0  0  0  0  0  0
  -21.5636   -3.4536   25.7740 F   0  0  0  0  0  0
  -30.0267  -13.3338   20.4348 N   0  0  0  0  0  0
  -26.3003  -12.9335   20.3328 N   0  0  0  0  0  0
  -25.9314  -11.6498   20.5766 N   0  0  0  0  0  0
  -22.0498  -12.8219   22.0415 N   0  0  0  0  0  0
  -25.4294  -15.1885   20.4045 N   0  0  0  0  0  0
  -31.8351  -14.6639   20.1155 O   0  0  0  0  0  0
  -21.6634   -6.8863   21.4232 O   0  0  0  0  0  0
  -22.3530  -14.5531   20.6685 O   0  0  0  0  0  0
  -24.6146  -31.8662   23.2097 C   0  0  0  0  0  0
  -25.9050  -32.4810   23.8387 C   0  0  1  0  0  0
  -27.2340  -27.4247   20.1074 C   0  0  0  0  0  0
  -25.5914  -33.8613   24.2320 N   0  0  0  0  0  0
  -23.4056  -30.4888   21.5482 C   0  0  2  0  0  0
  -24.8565  -28.9605   20.1089 C   0  0  0  0  0  0
  -22.7416  -29.4625   22.4951 C   0  0  0  0  0  0
  -18.0272  -28.1369   22.8465 C   0  0  0  0  0  0
  -24.1490  -36.7324   23.2634 C   0  0  0  0  0  0
  -25.9342  -30.8341   21.3624 C   0  0  0  0  0  0
  -26.0166  -29.4676   20.7085 C   0  0  0  0  0  0
  -27.2120  -28.7087   20.7027 C   0  0  0  0  0  0
  -26.0603  -26.9400   19.4916 C   0  0  0  0  0  0
  -24.8734  -27.6964   19.4939 C   0  0  0  0  0  0
  -23.6175  -29.8272   20.1603 C   0  0  0  0  0  0
  -25.4113  -36.3107   24.0331 C   0  0  1  0  0  0
  -20.5855  -28.3654   23.1290 C   0  0  2  0  0  0
  -20.6758  -26.9384   22.5407 C   0  0  0  0  0  0
  -19.5752  -26.6371   21.5191 C   0  0  0  0  0  0
  -18.1920  -26.7904   22.1599 C   0  0  0  0  0  0
  -19.1518  -28.8828   23.2866 C   0  0  0  0  0  0
  -18.9463  -30.1427   23.8888 C   0  0  0  0  0  0
  -17.6469  -30.6573   24.0558 C   0  0  0  0  0  0
  -25.9041  -34.9470   23.5119 C   0  0  0  0  0  0
  -16.5355  -29.9081   23.6323 C   0  0  0  0  0  0
  -16.7259  -28.6502   23.0326 C   0  0  0  0  0  0
  -26.4482  -31.6598   25.0711 C   0  0  0  0  0  0
  -25.3746  -31.3725   26.1465 C   0  0  0  0  0  0
  -27.0308  -30.3041   24.6069 C   0  0  0  0  0  0
  -27.6051  -32.4319   25.7482 C   0  0  0  0  0  0
  -27.5591  -37.1807   24.8456 C   0  0  0  0  0  0
  -21.4143  -29.3018   22.3706 N   0  0  0  0  0  0
  -26.4299  -37.3798   23.9407 N   0  0  0  0  0  0
  -24.6695  -31.0765   22.0992 N   0  0  0  0  0  0
  -23.4179  -28.8148   23.2987 O   0  0  0  0  0  0
  -28.3579  -26.6255   20.1477 O   0  0  0  0  0  0
  -26.5598  -34.8924   22.4672 O   0  0  0  0  0  0
  -23.5337  -32.1403   23.7485 O   0  0  0  0  0  0
  -31.2539  -17.5745   20.3046 C   0  0  0  0  0  0
  -30.9634  -18.9751   20.3268 C   0  0  0  0  0  0
  -30.1322  -16.9318   20.7770 C   0  0  0  0  0  0
  -29.6860  -19.0802   20.7983 C   0  0  0  0  0  0
  -28.3563  -22.7338   20.8779 C   0  0  0  0  0  0
  -28.7601  -24.1393   20.3215 C   0  0  0  0  0  0
  -26.1387  -23.1698   21.7362 C   0  0  0  0  0  0
  -29.4086  -21.6109   20.6415 C   0  0  0  0  0  0
  -28.1590  -25.4296   20.9441 C   0  0  0  0  0  0
  -27.2998  -22.3364   21.5027 N   0  0  0  0  0  0
  -29.9212  -15.5811   20.9260 N   0  0  0  0  0  0
  -28.9336  -20.2502   20.9884 N   0  0  0  0  0  0
  -29.6023  -24.2565   19.4233 O   0  0  0  0  0  0
  -29.1564  -17.8495   21.0922 O   0  0  0  0  0  0
  -31.4717  -12.4192   19.1392 H   0  0  0  0  0  0
  -30.3281  -11.3219   19.8620 H   0  0  0  0  0  0
  -29.7490  -11.7487   17.4556 H   0  0  0  0  0  0
  -29.6615  -13.4675   17.7571 H   0  0  0  0  0  0
  -27.8486  -11.2912   18.8536 H   0  0  0  0  0  0
  -27.3672  -12.5866   17.7925 H   0  0  0  0  0  0
  -27.6897  -14.2467   19.5403 H   0  0  0  0  0  0
  -28.6875  -12.0058   21.3677 H   0  0  0  0  0  0
  -28.4611  -13.6589   21.8535 H   0  0  0  0  0  0
  -25.2746   -9.5675   22.4744 H   0  0  0  0  0  0
  -23.9978   -7.4636   22.7475 H   0  0  0  0  0  0
  -21.0824   -8.8759   19.8955 H   0  0  0  0  0  0
  -22.3672  -10.9656   19.6157 H   0  0  0  0  0  0
  -21.2004   -7.6134   23.9694 H   0  0  0  0  0  0
  -21.1484   -6.0517   25.9065 H   0  0  0  0  0  0
  -22.0605   -2.7596   23.2855 H   0  0  0  0  0  0
  -22.4098  -11.9865   22.4782 H   0  0  0  0  0  0
  -21.1130  -13.1245   22.2651 H   0  0  0  0  0  0
  -24.6622  -15.8444   20.5058 H   0  0  0  0  0  0
  -26.2801  -15.6251   20.0716 H   0  0  0  0  0  0
  -26.7114  -32.5533   23.1154 H   0  0  0  0  0  0
  -25.0105  -33.9772   25.0489 H   0  0  0  0  0  0
  -22.6935  -31.3052   21.4100 H   0  0  0  0  0  0
  -23.3745  -35.9665   23.3292 H   0  0  0  0  0  0
  -24.3602  -36.8946   22.2053 H   0  0  0  0  0  0
  -23.7240  -37.6520   23.6661 H   0  0  0  0  0  0
  -26.0403  -31.6022   20.5950 H   0  0  0  0  0  0
  -26.8219  -30.8895   21.9804 H   0  0  0  0  0  0
  -28.1042  -29.0909   21.1790 H   0  0  0  0  0  0
  -26.0607  -25.9675   19.0200 H   0  0  0  0  0  0
  -23.9834  -27.3022   19.0237 H   0  0  0  0  0  0
  -23.7251  -30.6052   19.4029 H   0  0  0  0  0  0
  -22.7421  -29.2473   19.8611 H   0  0  0  0  0  0
  -25.1271  -36.1976   25.0822 H   0  0  0  0  0  0
  -20.9944  -28.3237   24.1415 H   0  0  0  0  0  0
  -20.5657  -26.2258   23.3590 H   0  0  0  0  0  0
  -21.6634  -26.7418   22.1216 H   0  0  0  0  0  0
  -19.6930  -25.6282   21.1220 H   0  0  0  0  0  0
  -19.6728  -27.3176   20.6711 H   0  0  0  0  0  0
  -17.4188  -26.6622   21.3997 H   0  0  0  0  0  0
  -18.0349  -26.0045   22.9000 H   0  0  0  0  0  0
  -19.7946  -30.7216   24.2273 H   0  0  0  0  0  0
  -17.5037  -31.6263   24.5146 H   0  0  0  0  0  0
  -15.5355  -30.2990   23.7665 H   0  0  0  0  0  0
  -15.8645  -28.0848   22.7028 H   0  0  0  0  0  0
  -24.5910  -30.7067   25.7834 H   0  0  0  0  0  0
  -24.8950  -32.2884   26.4913 H   0  0  0  0  0  0
  -25.8098  -30.8912   27.0231 H   0  0  0  0  0  0
  -26.2840  -29.6807   24.1131 H   0  0  0  0  0  0
  -27.4087  -29.7265   25.4519 H   0  0  0  0  0  0
  -27.8675  -30.4360   23.9205 H   0  0  0  0  0  0
  -27.2657  -33.3610   26.2081 H   0  0  0  0  0  0
  -28.3867  -32.6897   25.0319 H   0  0  0  0  0  0
  -28.0713  -31.8429   26.5392 H   0  0  0  0  0  0
  -28.2570  -38.0139   24.7533 H   0  0  0  0  0  0
  -28.1110  -36.2662   24.6227 H   0  0  0  0  0  0
  -27.2312  -37.1395   25.8857 H   0  0  0  0  0  0
  -20.9287  -29.8816   21.7004 H   0  0  0  0  0  0
  -26.0178  -38.2860   24.1455 H   0  0  0  0  0  0
  -32.1765  -17.1192   19.9757 H   0  0  0  0  0  0
  -31.6110  -19.7872   20.0287 H   0  0  0  0  0  0
  -26.3128  -23.8971   22.5329 H   0  0  0  0  0  0
  -25.2993  -22.5551   22.0634 H   0  0  0  0  0  0
  -25.8050  -23.6791   20.8297 H   0  0  0  0  0  0
  -30.2960  -21.8413   21.2342 H   0  0  0  0  0  0
  -29.7197  -21.6274   19.5957 H   0  0  0  0  0  0
  -28.6242  -25.5840   21.9173 H   0  0  0  0  0  0
  -27.0995  -25.3042   21.1297 H   0  0  0  0  0  0
  -29.0024  -15.3262   21.2536 H   0  0  0  0  0  0
  -27.9871  -20.2631   21.3682 H   0  0  0  0  0  0
  1 25  1  0  0  0
  1 30  2  0  0  0
  1 81  1  0  0  0
  2  3  1  0  0  0
  2 25  1  0  0  0
  2 85  1  0  0  0
  2 86  1  0  0  0
  3  4  1  0  0  0
  3 87  1  0  0  0
  3 88  1  0  0  0
  4  5  1  0  0  0
  4 89  1  0  0  0
  4 90  1  0  0  0
  5  6  1  0  0  0
  5 26  1  0  0  0
  5 91  1  0  0  0
  6 25  1  0  0  0
  6 92  1  0  0  0
  6 93  1  0  0  0
  7  8  2  0  0  0
  7 26  1  0  0  0
  7 29  1  0  0  0
  8  9  1  0  0  0
  8 22  1  0  0  0
  9 10  1  0  0  0
  9 27  2  0  0  0
 10 11  2  0  0  0
 10 15  1  0  0  0
 11 12  1  0  0  0
 11 94  1  0  0  0
 12 13  2  0  0  0
 12 95  1  0  0  0
 13 14  1  0  0  0
 13 31  1  0  0  0
 14 15  2  0  0  0
 14 96  1  0  0  0
 15 97  1  0  0  0
 16 17  2  0  0  0
 16 21  1  0  0  0
 16 31  1  0  0  0
 17 18  1  0  0  0
 17 98  1  0  0  0
 18 19  2  0  0  0
 18 99  1  0  0  0
 19 20  1  0  0  0
 19 24  1  0  0  0
 20 21  2  0  0  0
 20100  1  0  0  0
 21 23  1  0  0  0
 22 28  1  0  0  0
 22 32  2  0  0  0
 26 27  1  0  0  0
 28101  1  0  0  0
 28102  1  0  0  0
 29103  1  0  0  0
 29104  1  0  0  0
 33 34  1  0  0  0
 33 66  1  0  0  0
 33 70  2  0  0  0
 34 36  1  0  0  0
 34 59  1  0  0  0
 34105  1  0  0  0
 35 44  2  0  0  0
 35 45  1  0  0  0
 35 68  1  0  0  0
 36 56  1  0  0  0
 36106  1  0  0  0
 37 39  1  0  0  0
 37 47  1  0  0  0
 37 66  1  0  0  0
 37107  1  0  0  0
 38 43  2  0  0  0
 38 46  1  0  0  0
 38 47  1  0  0  0
 39 64  1  0  0  0
 39 67  2  0  0  0
 40 52  1  0  0  0
 40 53  2  0  0  0
 40 58  1  0  0  0
 41108  1  0  0  0
 41109  1  0  0  0
 41110  1  0  0  0
 41 48  1  0  0  0
 42 43  1  0  0  0
 42 66  1  0  0  0
 42111  1  0  0  0
 42112  1  0  0  0
 43 44  1  0  0  0
 44113  1  0  0  0
 45 46  2  0  0  0
 45114  1  0  0  0
 46115  1  0  0  0
 47116  1  0  0  0
 47117  1  0  0  0
 48 56  1  0  0  0
 48 65  1  0  0  0
 48118  1  0  0  0
 49 50  1  0  0  0
 49 53  1  0  0  0
 49 64  1  0  0  0
 49119  1  0  0  0
 50 51  1  0  0  0
 50120  1  0  0  0
 50121  1  0  0  0
 51 52  1  0  0  0
 51122  1  0  0  0
 51123  1  0  0  0
 52124  1  0  0  0
 52125  1  0  0  0
 53 54  1  0  0  0
 54 55  2  0  0  0
 54126  1  0  0  0
 55 57  1  0  0  0
 55127  1  0  0  0
 56 69  2  0  0  0
 57 58  2  0  0  0
 57128  1  0  0  0
 58129  1  0  0  0
 59 60  1  0  0  0
 59 61  1  0  0  0
 59 62  1  0  0  0
 60130  1  0  0  0
 60131  1  0  0  0
 60132  1  0  0  0
 61133  1  0  0  0
 61134  1  0  0  0
 61135  1  0  0  0
 62136  1  0  0  0
 62137  1  0  0  0
 62138  1  0  0  0
 63 65  1  0  0  0
 63139  1  0  0  0
 63140  1  0  0  0
 63141  1  0  0  0
 64142  1  0  0  0
 65143  1  0  0  0
 68 79  1  0  0  0
 71 72  1  0  0  0
 71 73  2  0  0  0
 71144  1  0  0  0
 72 74  2  0  0  0
 72145  1  0  0  0
 73 81  1  0  0  0
 73 84  1  0  0  0
 74 82  1  0  0  0
 74 84  1  0  0  0
 75 76  1  0  0  0
 75 78  1  0  0  0
 75 80  2  0  0  0
 76 79  1  0  0  0
 76 83  2  0  0  0
 77 80  1  0  0  0
 77146  1  0  0  0
 77147  1  0  0  0
 77148  1  0  0  0
 78 82  1  0  0  0
 78149  1  0  0  0
 78150  1  0  0  0
 79151  1  0  0  0
 79152  1  0  0  0
 81153  1  0  0  0
 82154  1  0  0  0
M  ISO  4   1 100  68 101  79 101  81 100
M  END
> <chiral flag>
0

> <version>
0

> <s_m_source_file>
/data/baiqing/PycharmProjects/Reinvent-master-3.2/result/LINK_invent/BTK/process_docking_weight1_custom_product_contain_oxygen_bond_distance_aromatic_linkinvent_7_9_3/rearranged_h_0162.sdf

> <i_m_source_file_index>
74

> <r_mmod_Potential_Energy-OPLS-2005>
58.7006950378418

> <r_mmod_Stretch_Energy-OPLS-2005>
50.8410224914551

> <r_mmod_Bend_Energy-OPLS-2005>
135.806747436523

> <r_mmod_Torsional_Energy-OPLS-2005>
235.450302124023

> <r_mmod_Improper_Torsional_Energy-OPLS-2005>
4.21761178970337

> <r_mmod_Van_der_Waal_Energy-OPLS-2005>
147.576904296875

> <r_mmod_Electrostatic_Energy-OPLS-2005>
-300.491455078125

> <r_mmod_Solvation_Energy-OPLS-2005>
-235.281631469727

> <b_mmod_Minimization_Converged-OPLS-2005>
0

> <r_mmod_RMS_Derivative-OPLS-2005>
2.1564826965332

$$$$
74
                    3D
 Structure written by MMmdl.
155163  0  0  1  0            999 V2000
  -30.7105  -14.5102   20.5827 C   0  0  0  0  0  0
  -30.4162  -12.3287   19.4543 C   0  0  0  0  0  0
  -29.5075  -12.5328   18.2242 C   0  0  0  0  0  0
  -28.0212  -12.4035   18.6140 C   0  0  0  0  0  0
  -27.6606  -13.2251   19.8832 C   0  0  2  0  0  0
  -28.6952  -13.0107   21.0087 C   0  0  0  0  0  0
  -25.2571  -13.8210   20.5724 C   0  0  0  0  0  0
  -24.1833  -13.0457   20.9175 C   0  0  0  0  0  0
  -24.6403  -11.6934   20.8717 C   0  0  0  0  0  0
  -23.9086  -10.4313   21.0385 C   0  0  0  0  0  0
  -24.3650   -9.4235   21.9164 C   0  0  0  0  0  0
  -23.6336   -8.2259   22.0748 C   0  0  0  0  0  0
  -22.4314   -8.0284   21.3542 C   0  0  0  0  0  0
  -21.9938   -9.0272   20.4665 C   0  0  0  0  0  0
  -22.7249  -10.2161   20.3052 C   0  0  0  0  0  0
  -21.6863   -6.0756   22.5281 C   0  0  0  0  0  0
  -21.4019   -6.5652   23.8220 C   0  0  0  0  0  0
  -21.3677   -5.6792   24.9176 C   0  0  0  0  0  0
  -21.6058   -4.3054   24.7204 C   0  0  0  0  0  0
  -21.8815   -3.8149   23.4313 C   0  0  0  0  0  0
  -21.9202   -4.6982   22.3383 C   0  0  0  0  0  0
  -22.7856  -13.5255   21.1810 C   0  0  0  0  0  0
  -22.1654   -4.2167   21.0962 F   0  0  0  0  0  0
  -21.5637   -3.4537   25.7703 F   0  0  0  0  0  0
  -30.0283  -13.3283   20.4692 N   0  0  0  0  0  0
  -26.3019  -12.9410   20.3390 N   0  0  0  0  0  0
  -25.9333  -11.6541   20.5745 N   0  0  0  0  0  0
  -22.0471  -12.8307   22.0398 N   0  0  0  0  0  0
  -25.4287  -15.1952   20.4249 N   0  0  0  0  0  0
  -31.8210  -14.6500   20.0618 O   0  0  0  0  0  0
  -21.6676   -6.8888   21.4231 O   0  0  0  0  0  0
  -22.3551  -14.5539   20.6606 O   0  0  0  0  0  0
  -24.6192  -31.8666   23.2109 C   0  0  0  0  0  0
  -25.9083  -32.4817   23.8386 C   0  0  1  0  0  0
  -27.2121  -27.4038   20.0856 C   0  0  0  0  0  0
  -25.5934  -33.8610   24.2303 N   0  0  0  0  0  0
  -23.4041  -30.4995   21.5534 C   0  0  2  0  0  0
  -24.8437  -28.9734   20.1053 C   0  0  0  0  0  0
  -22.7438  -29.4677   22.4966 C   0  0  0  0  0  0
  -18.0292  -28.1375   22.8476 C   0  0  0  0  0  0
  -24.1496  -36.7330   23.2638 C   0  0  0  0  0  0
  -25.9418  -30.8201   21.3738 C   0  0  0  0  0  0
  -26.0113  -29.4602   20.7073 C   0  0  0  0  0  0
  -27.2014  -28.6854   20.6912 C   0  0  0  0  0  0
  -26.0277  -26.9605   19.4476 C   0  0  0  0  0  0
  -24.8502  -27.7265   19.4680 C   0  0  0  0  0  0
  -23.6074  -29.8444   20.1648 C   0  0  0  0  0  0
  -25.4122  -36.3109   24.0314 C   0  0  1  0  0  0
  -20.5883  -28.3675   23.1276 C   0  0  2  0  0  0
  -20.6785  -26.9397   22.5418 C   0  0  0  0  0  0
  -19.5771  -26.6358   21.5218 C   0  0  0  0  0  0
  -18.1942  -26.7924   22.1606 C   0  0  0  0  0  0
  -19.1537  -28.8842   23.2870 C   0  0  0  0  0  0
  -18.9463  -30.1449   23.8877 C   0  0  0  0  0  0
  -17.6463  -30.6579   24.0555 C   0  0  0  0  0  0
  -25.9040  -34.9473   23.5094 C   0  0  0  0  0  0
  -16.5355  -29.9076   23.6324 C   0  0  0  0  0  0
  -16.7279  -28.6491   23.0344 C   0  0  0  0  0  0
  -26.4474  -31.6624   25.0747 C   0  0  0  0  0  0
  -25.3723  -31.3775   26.1499 C   0  0  0  0  0  0
  -27.0318  -30.3054   24.6182 C   0  0  0  0  0  0
  -27.6021  -32.4377   25.7518 C   0  0  0  0  0  0
  -27.5589  -37.1831   24.8449 C   0  0  0  0  0  0
  -21.4164  -29.3026   22.3680 N   0  0  0  0  0  0
  -26.4305  -37.3794   23.9385 N   0  0  0  0  0  0
  -24.6731  -31.0772   22.1027 N   0  0  0  0  0  0
  -23.4197  -28.8204   23.3000 O   0  0  0  0  0  0
  -28.3371  -26.5885   20.1356 O   0  0  0  0  0  0
  -26.5602  -34.8916   22.4654 O   0  0  0  0  0  0
  -23.5378  -32.1436   23.7506 O   0  0  0  0  0  0
  -29.6322  -18.6698   22.7503 C   0  0  0  0  0  0
  -29.9746  -18.2105   21.4856 C   0  0  0  0  0  0
  -29.6151  -20.3624   21.3955 C   0  0  0  0  0  0
  -30.3426  -16.9190   20.9301 C   0  0  0  0  0  0
  -30.0579  -15.6336   21.2777 C   0  0  0  0  0  0
  -29.6451  -17.9105   24.0081 C   0  0  0  0  0  0
  -29.3743  -18.7028   25.2818 C   0  0  0  0  0  0
  -29.1975  -24.1724   20.5701 C   0  0  0  0  0  0
  -28.6388  -22.7551   20.9363 C   0  0  0  0  0  0
  -28.0376  -25.2055   20.4717 C   0  0  0  0  0  0
  -29.3572  -20.0449   22.6573 N   0  0  0  0  0  0
  -29.5389  -21.6041   20.7573 N   0  0  0  0  0  0
  -29.9006  -16.7102   24.1322 O   0  0  0  0  0  0
  -29.9710  -19.2972   20.6236 O   0  0  0  0  0  0
  -31.4654  -12.4089   19.1645 H   0  0  0  0  0  0
  -30.2942  -11.3190   19.8517 H   0  0  0  0  0  0
  -29.7592  -11.8136   17.4432 H   0  0  0  0  0  0
  -29.6843  -13.5226   17.8010 H   0  0  0  0  0  0
  -27.8132  -11.3466   18.7741 H   0  0  0  0  0  0
  -27.3903  -12.7165   17.7793 H   0  0  0  0  0  0
  -27.7055  -14.2789   19.6058 H   0  0  0  0  0  0
  -28.6743  -11.9748   21.3482 H   0  0  0  0  0  0
  -28.4321  -13.5970   21.8893 H   0  0  0  0  0  0
  -25.2794   -9.5733   22.4758 H   0  0  0  0  0  0
  -24.0064   -7.4660   22.7469 H   0  0  0  0  0  0
  -21.0863   -8.8778   19.9021 H   0  0  0  0  0  0
  -22.3666  -10.9698   19.6179 H   0  0  0  0  0  0
  -21.2000   -7.6154   23.9713 H   0  0  0  0  0  0
  -21.1518   -6.0532   25.9093 H   0  0  0  0  0  0
  -22.0588   -2.7607   23.2800 H   0  0  0  0  0  0
  -22.4089  -12.0022   22.4882 H   0  0  0  0  0  0
  -21.1077  -13.1354   22.2519 H   0  0  0  0  0  0
  -24.6661  -15.8501   20.5674 H   0  0  0  0  0  0
  -26.2985  -15.6471   20.1678 H   0  0  0  0  0  0
  -26.7158  -32.5504   23.1141 H   0  0  0  0  0  0
  -25.0132  -33.9751   25.0486 H   0  0  0  0  0  0
  -22.6932  -31.3202   21.4260 H   0  0  0  0  0  0
  -23.3740  -35.9681   23.3306 H   0  0  0  0  0  0
  -24.3591  -36.8951   22.2054 H   0  0  0  0  0  0
  -23.7262  -37.6535   23.6663 H   0  0  0  0  0  0
  -26.0750  -31.5902   20.6136 H   0  0  0  0  0  0
  -26.8223  -30.8547   22.0041 H   0  0  0  0  0  0
  -28.0994  -29.0532   21.1665 H   0  0  0  0  0  0
  -25.9823  -26.0259   18.9104 H   0  0  0  0  0  0
  -23.9570  -27.3572   18.9800 H   0  0  0  0  0  0
  -23.7148  -30.6266   19.4127 H   0  0  0  0  0  0
  -22.7261  -29.2724   19.8684 H   0  0  0  0  0  0
  -25.1308  -36.1968   25.0805 H   0  0  0  0  0  0
  -20.9986  -28.3271   24.1387 H   0  0  0  0  0  0
  -20.5698  -26.2288   23.3623 H   0  0  0  0  0  0
  -21.6649  -26.7440   22.1199 H   0  0  0  0  0  0
  -19.6925  -25.6259   21.1269 H   0  0  0  0  0  0
  -19.6721  -27.3137   20.6725 H   0  0  0  0  0  0
  -17.4223  -26.6678   21.3992 H   0  0  0  0  0  0
  -18.0322  -26.0061   22.8990 H   0  0  0  0  0  0
  -19.7945  -30.7274   24.2216 H   0  0  0  0  0  0
  -17.5020  -31.6261   24.5163 H   0  0  0  0  0  0
  -15.5349  -30.2971   23.7652 H   0  0  0  0  0  0
  -15.8689  -28.0812   22.7052 H   0  0  0  0  0  0
  -24.5784  -30.7266   25.7821 H   0  0  0  0  0  0
  -24.9069  -32.2974   26.5051 H   0  0  0  0  0  0
  -25.8032  -30.8817   27.0207 H   0  0  0  0  0  0
  -26.2892  -29.6836   24.1172 H   0  0  0  0  0  0
  -27.3992  -29.7279   25.4677 H   0  0  0  0  0  0
  -27.8767  -30.4355   23.9415 H   0  0  0  0  0  0
  -27.2567  -33.3602   26.2195 H   0  0  0  0  0  0
  -28.3769  -32.7084   25.0335 H   0  0  0  0  0  0
  -28.0776  -31.8490   26.5370 H   0  0  0  0  0  0
  -28.2610  -38.0129   24.7487 H   0  0  0  0  0  0
  -28.1083  -36.2655   24.6282 H   0  0  0  0  0  0
  -27.2310  -37.1493   25.8856 H   0  0  0  0  0  0
  -20.9344  -29.8735   21.6893 H   0  0  0  0  0  0
  -26.0194  -38.2867   24.1387 H   0  0  0  0  0  0
  -31.0118  -17.0313   20.0884 H   0  0  0  0  0  0
  -29.3777  -15.4490   22.0920 H   0  0  0  0  0  0
  -30.1434  -19.4629   25.4210 H   0  0  0  0  0  0
  -29.3968  -18.0368   26.1438 H   0  0  0  0  0  0
  -28.3992  -19.1875   25.2412 H   0  0  0  0  0  0
  -29.7285  -24.1430   19.6180 H   0  0  0  0  0  0
  -29.9159  -24.4950   21.3232 H   0  0  0  0  0  0
  -27.7746  -22.5570   20.3003 H   0  0  0  0  0  0
  -28.2557  -22.7612   21.9577 H   0  0  0  0  0  0
  -27.4964  -25.2130   21.4196 H   0  0  0  0  0  0
  -27.3663  -24.7763   19.7319 H   0  0  0  0  0  0
  -29.9285  -21.5498   19.8217 H   0  0  0  0  0  0
  1 25  1  0  0  0
  1 30  2  0  0  0
  1 75  1  0  0  0
  2  3  1  0  0  0
  2 25  1  0  0  0
  2 85  1  0  0  0
  2 86  1  0  0  0
  3  4  1  0  0  0
  3 87  1  0  0  0
  3 88  1  0  0  0
  4  5  1  0  0  0
  4 89  1  0  0  0
  4 90  1  0  0  0
  5  6  1  0  0  0
  5 26  1  0  0  0
  5 91  1  0  0  0
  6 25  1  0  0  0
  6 92  1  0  0  0
  6 93  1  0  0  0
  7  8  2  0  0  0
  7 26  1  0  0  0
  7 29  1  0  0  0
  8  9  1  0  0  0
  8 22  1  0  0  0
  9 10  1  0  0  0
  9 27  2  0  0  0
 10 11  2  0  0  0
 10 15  1  0  0  0
 11 12  1  0  0  0
 11 94  1  0  0  0
 12 13  2  0  0  0
 12 95  1  0  0  0
 13 14  1  0  0  0
 13 31  1  0  0  0
 14 15  2  0  0  0
 14 96  1  0  0  0
 15 97  1  0  0  0
 16 17  2  0  0  0
 16 21  1  0  0  0
 16 31  1  0  0  0
 17 18  1  0  0  0
 17 98  1  0  0  0
 18 19  2  0  0  0
 18 99  1  0  0  0
 19 20  1  0  0  0
 19 24  1  0  0  0
 20 21  2  0  0  0
 20100  1  0  0  0
 21 23  1  0  0  0
 22 28  1  0  0  0
 22 32  2  0  0  0
 26 27  1  0  0  0
 28101  1  0  0  0
 28102  1  0  0  0
 29103  1  0  0  0
 29104  1  0  0  0
 33 34  1  0  0  0
 33 66  1  0  0  0
 33 70  2  0  0  0
 34 36  1  0  0  0
 34 59  1  0  0  0
 34105  1  0  0  0
 35 44  2  0  0  0
 35 45  1  0  0  0
 35 68  1  0  0  0
 36 56  1  0  0  0
 36106  1  0  0  0
 37 39  1  0  0  0
 37 47  1  0  0  0
 37 66  1  0  0  0
 37107  1  0  0  0
 38 43  2  0  0  0
 38 46  1  0  0  0
 38 47  1  0  0  0
 39 64  1  0  0  0
 39 67  2  0  0  0
 40 52  1  0  0  0
 40 53  2  0  0  0
 40 58  1  0  0  0
 41108  1  0  0  0
 41109  1  0  0  0
 41110  1  0  0  0
 41 48  1  0  0  0
 42 43  1  0  0  0
 42 66  1  0  0  0
 42111  1  0  0  0
 42112  1  0  0  0
 43 44  1  0  0  0
 44113  1  0  0  0
 45 46  2  0  0  0
 45114  1  0  0  0
 46115  1  0  0  0
 47116  1  0  0  0
 47117  1  0  0  0
 48 56  1  0  0  0
 48 65  1  0  0  0
 48118  1  0  0  0
 49 50  1  0  0  0
 49 53  1  0  0  0
 49 64  1  0  0  0
 49119  1  0  0  0
 50 51  1  0  0  0
 50120  1  0  0  0
 50121  1  0  0  0
 51 52  1  0  0  0
 51122  1  0  0  0
 51123  1  0  0  0
 52124  1  0  0  0
 52125  1  0  0  0
 53 54  1  0  0  0
 54 55  2  0  0  0
 54126  1  0  0  0
 55 57  1  0  0  0
 55127  1  0  0  0
 56 69  2  0  0  0
 57 58  2  0  0  0
 57128  1  0  0  0
 58129  1  0  0  0
 59 60  1  0  0  0
 59 61  1  0  0  0
 59 62  1  0  0  0
 60130  1  0  0  0
 60131  1  0  0  0
 60132  1  0  0  0
 61133  1  0  0  0
 61134  1  0  0  0
 61135  1  0  0  0
 62136  1  0  0  0
 62137  1  0  0  0
 62138  1  0  0  0
 63 65  1  0  0  0
 63139  1  0  0  0
 63140  1  0  0  0
 63141  1  0  0  0
 64142  1  0  0  0
 65143  1  0  0  0
 68 80  1  0  0  0
 71 72  2  0  0  0
 71 76  1  0  0  0
 71 81  1  0  0  0
 72 74  1  0  0  0
 72 84  1  0  0  0
 73 81  2  0  0  0
 73 82  1  0  0  0
 73 84  1  0  0  0
 74 75  2  0  0  0
 74144  1  0  0  0
 75145  1  0  0  0
 76 77  1  0  0  0
 76 83  2  0  0  0
 77146  1  0  0  0
 77147  1  0  0  0
 77148  1  0  0  0
 78 79  1  0  0  0
 78 80  1  0  0  0
 78149  1  0  0  0
 78150  1  0  0  0
 79 82  1  0  0  0
 79151  1  0  0  0
 79152  1  0  0  0
 80153  1  0  0  0
 80154  1  0  0  0
 82155  1  0  0  0
M  ISO  4   1 100  68 101  75 100  80 101
M  END
> <chiral flag>
0

> <version>
0

> <s_m_source_file>
/data/baiqing/PycharmProjects/Reinvent-master-3.2/result/LINK_invent/BTK/process_docking_weight1_custom_product_contain_oxygen_bond_distance_aromatic_linkinvent_7_9_3/rearranged_h_0162.sdf

> <i_m_source_file_index>
75

> <r_mmod_Potential_Energy-OPLS-2005>
-96.6294631958008

> <r_mmod_Stretch_Energy-OPLS-2005>
46.0855484008789

> <r_mmod_Bend_Energy-OPLS-2005>
118.742179870605

> <r_mmod_Torsional_Energy-OPLS-2005>
193.035232543945

> <r_mmod_Improper_Torsional_Energy-OPLS-2005>
4.41605997085571

> <r_mmod_Van_der_Waal_Energy-OPLS-2005>
138.932754516602

> <r_mmod_Electrostatic_Energy-OPLS-2005>
-400.294677734375

> <r_mmod_Solvation_Energy-OPLS-2005>
-218.263046264648

> <b_mmod_Minimization_Converged-OPLS-2005>
0

> <r_mmod_RMS_Derivative-OPLS-2005>
3.74571299552917

$$$$
75
                    3D
 Structure written by MMmdl.
168178  0  0  1  0            999 V2000
  -30.6200  -14.5572   20.3292 C   0  0  0  0  0  0
  -30.4398  -12.2454   19.4838 C   0  0  0  0  0  0
  -29.5220  -12.2474   18.2443 C   0  0  0  0  0  0
  -28.0203  -12.2900   18.6191 C   0  0  0  0  0  0
  -27.6537  -13.1891   19.8398 C   0  0  2  0  0  0
  -28.7051  -13.0710   20.9700 C   0  0  0  0  0  0
  -25.2565  -13.8103   20.5639 C   0  0  0  0  0  0
  -24.1827  -13.0399   20.9220 C   0  0  0  0  0  0
  -24.6372  -11.6867   20.8755 C   0  0  0  0  0  0
  -23.8995  -10.4262   21.0437 C   0  0  0  0  0  0
  -24.3556   -9.4167   21.9209 C   0  0  0  0  0  0
  -23.6245   -8.2209   22.0805 C   0  0  0  0  0  0
  -22.4234   -8.0245   21.3584 C   0  0  0  0  0  0
  -21.9840   -9.0190   20.4661 C   0  0  0  0  0  0
  -22.7174  -10.2074   20.3037 C   0  0  0  0  0  0
  -21.6799   -6.0663   22.5290 C   0  0  0  0  0  0
  -21.3934   -6.5578   23.8213 C   0  0  0  0  0  0
  -21.3700   -5.6749   24.9207 C   0  0  0  0  0  0
  -21.6113   -4.3018   24.7236 C   0  0  0  0  0  0
  -21.8792   -3.8082   23.4350 C   0  0  0  0  0  0
  -21.9129   -4.6881   22.3406 C   0  0  0  0  0  0
  -22.7846  -13.5205   21.1903 C   0  0  0  0  0  0
  -22.1565   -4.2064   21.0973 F   0  0  0  0  0  0
  -21.5761   -3.4482   25.7748 F   0  0  0  0  0  0
  -30.0249  -13.3323   20.3798 N   0  0  0  0  0  0
  -26.2992  -12.9240   20.3234 N   0  0  0  0  0  0
  -25.9291  -11.6439   20.5775 N   0  0  0  0  0  0
  -22.0409  -12.8196   22.0438 N   0  0  0  0  0  0
  -25.4243  -15.1798   20.3923 N   0  0  0  0  0  0
  -31.8200  -14.7174   20.1050 O   0  0  0  0  0  0
  -21.6636   -6.8828   21.4269 O   0  0  0  0  0  0
  -22.3598  -14.5516   20.6702 O   0  0  0  0  0  0
  -24.6223  -31.8653   23.2060 C   0  0  0  0  0  0
  -25.9099  -32.4811   23.8347 C   0  0  1  0  0  0
  -27.2238  -27.3973   20.1067 C   0  0  0  0  0  0
  -25.5955  -33.8615   24.2317 N   0  0  0  0  0  0
  -23.4150  -30.4952   21.5452 C   0  0  2  0  0  0
  -24.8566  -28.9646   20.1062 C   0  0  0  0  0  0
  -22.7456  -29.4672   22.4889 C   0  0  0  0  0  0
  -18.0315  -28.1402   22.8525 C   0  0  0  0  0  0
  -24.1487  -36.7306   23.2625 C   0  0  0  0  0  0
  -25.9468  -30.8252   21.3627 C   0  0  0  0  0  0
  -26.0229  -29.4601   20.7009 C   0  0  0  0  0  0
  -27.2101  -28.6896   20.6920 C   0  0  0  0  0  0
  -26.0340  -26.9333   19.4884 C   0  0  0  0  0  0
  -24.8585  -27.7002   19.4933 C   0  0  0  0  0  0
  -23.6298  -29.8430   20.1552 C   0  0  0  0  0  0
  -25.4109  -36.3124   24.0344 C   0  0  1  0  0  0
  -20.5920  -28.3709   23.1314 C   0  0  2  0  0  0
  -20.6852  -26.9439   22.5439 C   0  0  0  0  0  0
  -19.5823  -26.6394   21.5257 C   0  0  0  0  0  0
  -18.1982  -26.7975   22.1632 C   0  0  0  0  0  0
  -19.1568  -28.8857   23.2940 C   0  0  0  0  0  0
  -18.9488  -30.1446   23.8963 C   0  0  0  0  0  0
  -17.6498  -30.6629   24.0568 C   0  0  0  0  0  0
  -25.9052  -34.9475   23.5119 C   0  0  0  0  0  0
  -16.5370  -29.9146   23.6324 C   0  0  0  0  0  0
  -16.7304  -28.6545   23.0372 C   0  0  0  0  0  0
  -26.4506  -31.6602   25.0686 C   0  0  0  0  0  0
  -25.3788  -31.3739   26.1443 C   0  0  0  0  0  0
  -27.0275  -30.3022   24.6067 C   0  0  0  0  0  0
  -27.6059  -32.4294   25.7537 C   0  0  0  0  0  0
  -27.5586  -37.1829   24.8459 C   0  0  0  0  0  0
  -21.4167  -29.3059   22.3662 N   0  0  0  0  0  0
  -26.4290  -37.3820   23.9423 N   0  0  0  0  0  0
  -24.6810  -31.0710   22.0979 N   0  0  0  0  0  0
  -23.4206  -28.8198   23.2930 O   0  0  0  0  0  0
  -28.3609  -26.6038   20.1725 O   0  0  0  0  0  0
  -26.5556  -34.8940   22.4655 O   0  0  0  0  0  0
  -23.5403  -32.1419   23.7424 O   0  0  0  0  0  0
  -29.4151  -19.3503   18.3404 C   0  0  0  0  0  0
  -29.9272  -18.0203   20.3208 C   0  0  0  0  0  0
  -29.3505  -18.1962   17.5646 C   0  0  0  0  0  0
  -29.4448  -16.9262   18.1817 C   0  0  0  0  0  0
  -29.6865  -19.2862   19.7242 C   0  0  0  0  0  0
  -29.7813  -16.8241   19.5700 C   0  0  0  0  0  0
  -29.5748  -21.7562   20.0896 C   0  0  0  0  0  0
  -29.1447  -18.3759   16.0702 C   0  0  0  0  0  0
  -29.0705  -15.7038   17.3653 C   0  0  0  0  0  0
  -28.3752  -17.2198   15.4515 C   0  0  0  0  0  0
  -29.0329  -15.8926   15.8376 C   0  0  0  0  0  0
  -29.8814  -22.9336   22.3201 C   0  0  0  0  0  0
  -29.6173  -24.4387   22.2628 C   0  0  0  0  0  0
  -29.0123  -22.7903   21.0727 C   0  0  1  0  0  0
  -29.2600  -24.3070   20.7746 C   0  0  1  0  0  0
  -28.1261  -25.1730   20.1793 C   0  0  0  0  0  0
  -29.6012  -20.4703   20.5142 N   0  0  0  0  0  0
  -29.7196  -15.5685   20.2681 N   0  0  0  0  0  0
  -30.0209  -22.1373   19.0037 O   0  0  0  0  0  0
  -31.4831  -12.3337   19.1791 H   0  0  0  0  0  0
  -30.3594  -11.2829   19.9966 H   0  0  0  0  0  0
  -29.7048  -11.3209   17.6975 H   0  0  0  0  0  0
  -29.8181  -12.9956   17.5273 H   0  0  0  0  0  0
  -27.7603  -11.2585   18.8549 H   0  0  0  0  0  0
  -27.4102  -12.5477   17.7501 H   0  0  0  0  0  0
  -27.6556  -14.2131   19.4810 H   0  0  0  0  0  0
  -28.6959  -12.0862   21.4361 H   0  0  0  0  0  0
  -28.4964  -13.7843   21.7702 H   0  0  0  0  0  0
  -25.2717   -9.5587   22.4761 H   0  0  0  0  0  0
  -23.9921   -7.4564   22.7503 H   0  0  0  0  0  0
  -21.0775   -8.8627   19.8964 H   0  0  0  0  0  0
  -22.3646  -10.9535   19.6056 H   0  0  0  0  0  0
  -21.1841   -7.6069   23.9638 H   0  0  0  0  0  0
  -21.1634   -6.0540   25.9119 H   0  0  0  0  0  0
  -22.0553   -2.7514   23.2870 H   0  0  0  0  0  0
  -22.3963  -11.9841   22.4833 H   0  0  0  0  0  0
  -21.1022  -13.1226   22.2680 H   0  0  0  0  0  0
  -24.6370  -15.8218   20.4401 H   0  0  0  0  0  0
  -26.2431  -15.5881   19.9606 H   0  0  0  0  0  0
  -26.7162  -32.5539   23.1098 H   0  0  0  0  0  0
  -25.0209  -33.9757   25.0539 H   0  0  0  0  0  0
  -22.7141  -31.3198   21.4053 H   0  0  0  0  0  0
  -23.3771  -35.9621   23.3289 H   0  0  0  0  0  0
  -24.3585  -36.8910   22.2036 H   0  0  0  0  0  0
  -23.7205  -37.6504   23.6623 H   0  0  0  0  0  0
  -26.0591  -31.5980   20.6000 H   0  0  0  0  0  0
  -26.8333  -30.8679   21.9856 H   0  0  0  0  0  0
  -28.1089  -29.0665   21.1644 H   0  0  0  0  0  0
  -25.9846  -25.9663   19.0080 H   0  0  0  0  0  0
  -23.9580  -27.3203   19.0286 H   0  0  0  0  0  0
  -23.7690  -30.6285   19.4108 H   0  0  0  0  0  0
  -22.7496  -29.2862   19.8315 H   0  0  0  0  0  0
  -25.1296  -36.1970   25.0841 H   0  0  0  0  0  0
  -21.0028  -28.3254   24.1418 H   0  0  0  0  0  0
  -20.5854  -26.2254   23.3601 H   0  0  0  0  0  0
  -21.6713  -26.7566   22.1136 H   0  0  0  0  0  0
  -19.7001  -25.6295   21.1295 H   0  0  0  0  0  0
  -19.6812  -27.3199   20.6789 H   0  0  0  0  0  0
  -17.4294  -26.6741   21.3980 H   0  0  0  0  0  0
  -18.0336  -26.0105   22.8996 H   0  0  0  0  0  0
  -19.7947  -30.7238   24.2383 H   0  0  0  0  0  0
  -17.5061  -31.6335   24.5129 H   0  0  0  0  0  0
  -15.5375  -30.3084   23.7633 H   0  0  0  0  0  0
  -15.8693  -28.0883   22.7080 H   0  0  0  0  0  0
  -24.6008  -30.6999   25.7841 H   0  0  0  0  0  0
  -24.8921  -32.2887   26.4828 H   0  0  0  0  0  0
  -25.8186  -30.9013   27.0238 H   0  0  0  0  0  0
  -26.2783  -29.6848   24.1081 H   0  0  0  0  0  0
  -27.3952  -29.7196   25.4522 H   0  0  0  0  0  0
  -27.8687  -30.4281   23.9249 H   0  0  0  0  0  0
  -27.2674  -33.3619   26.2090 H   0  0  0  0  0  0
  -28.3983  -32.6806   25.0468 H   0  0  0  0  0  0
  -28.0593  -31.8398   26.5523 H   0  0  0  0  0  0
  -28.2606  -38.0131   24.7536 H   0  0  0  0  0  0
  -28.1086  -36.2663   24.6268 H   0  0  0  0  0  0
  -27.2292  -37.1446   25.8856 H   0  0  0  0  0  0
  -20.9287  -29.8759   21.6899 H   0  0  0  0  0  0
  -26.0171  -38.2892   24.1474 H   0  0  0  0  0  0
  -29.1995  -20.2765   17.8353 H   0  0  0  0  0  0
  -30.1396  -17.9403   21.3805 H   0  0  0  0  0  0
  -30.1346  -18.4596   15.6185 H   0  0  0  0  0  0
  -28.6369  -19.3181   15.8466 H   0  0  0  0  0  0
  -28.0827  -15.3817   17.7013 H   0  0  0  0  0  0
  -29.8045  -14.9561   17.6135 H   0  0  0  0  0  0
  -28.3260  -17.3483   14.3712 H   0  0  0  0  0  0
  -27.3510  -17.2479   15.8251 H   0  0  0  0  0  0
  -28.5090  -15.0560   15.3753 H   0  0  0  0  0  0
  -30.0458  -15.8732   15.4356 H   0  0  0  0  0  0
  -29.4832  -22.4300   23.1993 H   0  0  0  0  0  0
  -30.9244  -22.6603   22.1451 H   0  0  0  0  0  0
  -30.5028  -25.0417   22.4644 H   0  0  0  0  0  0
  -28.7645  -24.7374   22.8781 H   0  0  0  0  0  0
  -27.9694  -22.5793   21.3198 H   0  0  0  0  0  0
  -30.1863  -24.4305   20.2071 H   0  0  0  0  0  0
  -27.2095  -24.9605   20.7344 H   0  0  0  0  0  0
  -27.9313  -24.8551   19.1568 H   0  0  0  0  0  0
  -29.4278  -20.3278   21.5016 H   0  0  0  0  0  0
  -28.7829  -15.2197   20.3920 H   0  0  0  0  0  0
  1 25  1  0  0  0
  1 30  2  0  0  0
  1 88  1  0  0  0
  2  3  1  0  0  0
  2 25  1  0  0  0
  2 90  1  0  0  0
  2 91  1  0  0  0
  3  4  1  0  0  0
  3 92  1  0  0  0
  3 93  1  0  0  0
  4  5  1  0  0  0
  4 94  1  0  0  0
  4 95  1  0  0  0
  5  6  1  0  0  0
  5 26  1  0  0  0
  5 96  1  0  0  0
  6 25  1  0  0  0
  6 97  1  0  0  0
  6 98  1  0  0  0
  7  8  2  0  0  0
  7 26  1  0  0  0
  7 29  1  0  0  0
  8  9  1  0  0  0
  8 22  1  0  0  0
  9 10  1  0  0  0
  9 27  2  0  0  0
 10 11  2  0  0  0
 10 15  1  0  0  0
 11 12  1  0  0  0
 11 99  1  0  0  0
 12 13  2  0  0  0
 12100  1  0  0  0
 13 14  1  0  0  0
 13 31  1  0  0  0
 14 15  2  0  0  0
 14101  1  0  0  0
 15102  1  0  0  0
 16 17  2  0  0  0
 16 21  1  0  0  0
 16 31  1  0  0  0
 17 18  1  0  0  0
 17103  1  0  0  0
 18 19  2  0  0  0
 18104  1  0  0  0
 19 20  1  0  0  0
 19 24  1  0  0  0
 20 21  2  0  0  0
 20105  1  0  0  0
 21 23  1  0  0  0
 22 28  1  0  0  0
 22 32  2  0  0  0
 26 27  1  0  0  0
 28106  1  0  0  0
 28107  1  0  0  0
 29108  1  0  0  0
 29109  1  0  0  0
 33 34  1  0  0  0
 33 66  1  0  0  0
 33 70  2  0  0  0
 34 36  1  0  0  0
 34 59  1  0  0  0
 34110  1  0  0  0
 35 44  2  0  0  0
 35 45  1  0  0  0
 35 68  1  0  0  0
 36 56  1  0  0  0
 36111  1  0  0  0
 37 39  1  0  0  0
 37 47  1  0  0  0
 37 66  1  0  0  0
 37112  1  0  0  0
 38 43  2  0  0  0
 38 46  1  0  0  0
 38 47  1  0  0  0
 39 64  1  0  0  0
 39 67  2  0  0  0
 40 52  1  0  0  0
 40 53  2  0  0  0
 40 58  1  0  0  0
 41113  1  0  0  0
 41114  1  0  0  0
 41115  1  0  0  0
 41 48  1  0  0  0
 42 43  1  0  0  0
 42 66  1  0  0  0
 42116  1  0  0  0
 42117  1  0  0  0
 43 44  1  0  0  0
 44118  1  0  0  0
 45 46  2  0  0  0
 45119  1  0  0  0
 46120  1  0  0  0
 47121  1  0  0  0
 47122  1  0  0  0
 48 56  1  0  0  0
 48 65  1  0  0  0
 48123  1  0  0  0
 49 50  1  0  0  0
 49 53  1  0  0  0
 49 64  1  0  0  0
 49124  1  0  0  0
 50 51  1  0  0  0
 50125  1  0  0  0
 50126  1  0  0  0
 51 52  1  0  0  0
 51127  1  0  0  0
 51128  1  0  0  0
 52129  1  0  0  0
 52130  1  0  0  0
 53 54  1  0  0  0
 54 55  2  0  0  0
 54131  1  0  0  0
 55 57  1  0  0  0
 55132  1  0  0  0
 56 69  2  0  0  0
 57 58  2  0  0  0
 57133  1  0  0  0
 58134  1  0  0  0
 59 60  1  0  0  0
 59 61  1  0  0  0
 59 62  1  0  0  0
 60135  1  0  0  0
 60136  1  0  0  0
 60137  1  0  0  0
 61138  1  0  0  0
 61139  1  0  0  0
 61140  1  0  0  0
 62141  1  0  0  0
 62142  1  0  0  0
 62143  1  0  0  0
 63 65  1  0  0  0
 63144  1  0  0  0
 63145  1  0  0  0
 63146  1  0  0  0
 64147  1  0  0  0
 65148  1  0  0  0
 68 86  1  0  0  0
 71 73  2  0  0  0
 71 75  1  0  0  0
 71149  1  0  0  0
 72 75  2  0  0  0
 72 76  1  0  0  0
 72150  1  0  0  0
 73 74  1  0  0  0
 73 78  1  0  0  0
 74 76  2  0  0  0
 74 79  1  0  0  0
 75 87  1  0  0  0
 76 88  1  0  0  0
 77 87  1  0  0  0
 77 89  2  0  0  0
 77 84  1  0  0  0
 78 80  1  0  0  0
 78151  1  0  0  0
 78152  1  0  0  0
 79 81  1  0  0  0
 79153  1  0  0  0
 79154  1  0  0  0
 80 81  1  0  0  0
 80155  1  0  0  0
 80156  1  0  0  0
 81157  1  0  0  0
 81158  1  0  0  0
 82 83  1  0  0  0
 82 84  1  0  0  0
 82159  1  0  0  0
 82160  1  0  0  0
 83 85  1  0  0  0
 83161  1  0  0  0
 83162  1  0  0  0
 84 85  1  0  0  0
 84163  1  0  0  0
 85 86  1  0  0  0
 85164  1  0  0  0
 86165  1  0  0  0
 86166  1  0  0  0
 87167  1  0  0  0
 88168  1  0  0  0
M  ISO  4   1 100  68 101  86 101  88 100
M  END
> <chiral flag>
0

> <version>
0

> <s_m_source_file>
/data/baiqing/PycharmProjects/Reinvent-master-3.2/result/LINK_invent/BTK/process_docking_weight1_custom_product_contain_oxygen_bond_distance_aromatic_linkinvent_7_9_3/rearranged_h_0162.sdf

> <i_m_source_file_index>
76

> <r_mmod_Potential_Energy-OPLS-2005>
84.9231338500977

> <r_mmod_Stretch_Energy-OPLS-2005>
46.280647277832

> <r_mmod_Bend_Energy-OPLS-2005>
123.150047302246

> <r_mmod_Torsional_Energy-OPLS-2005>
312.304962158203

> <r_mmod_Improper_Torsional_Energy-OPLS-2005>
11.8170309066772

> <r_mmod_Van_der_Waal_Energy-OPLS-2005>
170.430435180664

> <r_mmod_Electrostatic_Energy-OPLS-2005>
-394.014465332031

> <r_mmod_Solvation_Energy-OPLS-2005>
-231.936721801758

> <b_mmod_Minimization_Converged-OPLS-2005>
0

> <r_mmod_RMS_Derivative-OPLS-2005>
7.74125385284424

$$$$
76
                    3D
 Structure written by MMmdl.
155163  0  0  1  0            999 V2000
  -30.5979  -14.7376   20.4797 C   0  0  0  0  0  0
  -30.4370  -12.4468   19.4802 C   0  0  0  0  0  0
  -29.5164  -12.5175   18.2406 C   0  0  0  0  0  0
  -28.0399  -12.3406   18.6464 C   0  0  0  0  0  0
  -27.6468  -13.2295   19.8565 C   0  0  2  0  0  0
  -28.6873  -13.1368   20.9925 C   0  0  0  0  0  0
  -25.2538  -13.8191   20.5702 C   0  0  0  0  0  0
  -24.1814  -13.0442   20.9188 C   0  0  0  0  0  0
  -24.6401  -11.6917   20.8729 C   0  0  0  0  0  0
  -23.9072  -10.4296   21.0395 C   0  0  0  0  0  0
  -24.3622   -9.4212   21.9177 C   0  0  0  0  0  0
  -23.6295   -8.2248   22.0752 C   0  0  0  0  0  0
  -22.4278   -8.0283   21.3542 C   0  0  0  0  0  0
  -21.9912   -9.0256   20.4645 C   0  0  0  0  0  0
  -22.7241  -10.2135   20.3049 C   0  0  0  0  0  0
  -21.6855   -6.0738   22.5279 C   0  0  0  0  0  0
  -21.4016   -6.5641   23.8213 C   0  0  0  0  0  0
  -21.3661   -5.6792   24.9174 C   0  0  0  0  0  0
  -21.6043   -4.3054   24.7223 C   0  0  0  0  0  0
  -21.8819   -3.8148   23.4344 C   0  0  0  0  0  0
  -21.9194   -4.6965   22.3402 C   0  0  0  0  0  0
  -22.7839  -13.5228   21.1853 C   0  0  0  0  0  0
  -22.1661   -4.2152   21.0978 F   0  0  0  0  0  0
  -21.5630   -3.4537   25.7735 F   0  0  0  0  0  0
  -29.9960  -13.4964   20.4292 N   0  0  0  0  0  0
  -26.2963  -12.9394   20.3292 N   0  0  0  0  0  0
  -25.9331  -11.6536   20.5736 N   0  0  0  0  0  0
  -22.0482  -12.8223   22.0411 N   0  0  0  0  0  0
  -25.4254  -15.1915   20.4163 N   0  0  0  0  0  0
  -31.7743  -14.8346   20.0993 O   0  0  0  0  0  0
  -21.6641   -6.8881   21.4240 O   0  0  0  0  0  0
  -22.3522  -14.5534   20.6700 O   0  0  0  0  0  0
  -24.6299  -31.8553   23.1985 C   0  0  0  0  0  0
  -25.9127  -32.4756   23.8332 C   0  0  1  0  0  0
  -27.2197  -27.2662   20.1422 C   0  0  0  0  0  0
  -25.5922  -33.8559   24.2251 N   0  0  0  0  0  0
  -23.4273  -30.4763   21.5417 C   0  0  2  0  0  0
  -24.8767  -28.9215   20.1120 C   0  0  0  0  0  0
  -22.7497  -29.4596   22.4918 C   0  0  0  0  0  0
  -18.0291  -28.1386   22.8485 C   0  0  0  0  0  0
  -24.1489  -36.7289   23.2640 C   0  0  0  0  0  0
  -25.9718  -30.7692   21.3792 C   0  0  0  0  0  0
  -26.0457  -29.3903   20.7262 C   0  0  0  0  0  0
  -27.2219  -28.5745   20.7310 C   0  0  0  0  0  0
  -26.0407  -26.8738   19.4761 C   0  0  0  0  0  0
  -24.8783  -27.6699   19.4755 C   0  0  0  0  0  0
  -23.6461  -29.8070   20.1589 C   0  0  0  0  0  0
  -25.4118  -36.3072   24.0322 C   0  0  1  0  0  0
  -20.5895  -28.3693   23.1272 C   0  0  2  0  0  0
  -20.6779  -26.9410   22.5409 C   0  0  0  0  0  0
  -19.5753  -26.6380   21.5212 C   0  0  0  0  0  0
  -18.1934  -26.7929   22.1624 C   0  0  0  0  0  0
  -19.1545  -28.8857   23.2874 C   0  0  0  0  0  0
  -18.9464  -30.1459   23.8890 C   0  0  0  0  0  0
  -17.6464  -30.6588   24.0561 C   0  0  0  0  0  0
  -25.9055  -34.9441   23.5092 C   0  0  0  0  0  0
  -16.5355  -29.9085   23.6332 C   0  0  0  0  0  0
  -16.7277  -28.6503   23.0352 C   0  0  0  0  0  0
  -26.4494  -31.6584   25.0725 C   0  0  0  0  0  0
  -25.3706  -31.3738   26.1437 C   0  0  0  0  0  0
  -27.0346  -30.2999   24.6221 C   0  0  0  0  0  0
  -27.6044  -32.4328   25.7501 C   0  0  0  0  0  0
  -27.5580  -37.1801   24.8463 C   0  0  0  0  0  0
  -21.4206  -29.3039   22.3660 N   0  0  0  0  0  0
  -26.4295  -37.3768   23.9401 N   0  0  0  0  0  0
  -24.6952  -31.0519   22.0961 N   0  0  0  0  0  0
  -23.4196  -28.8141   23.3022 O   0  0  0  0  0  0
  -28.3128  -26.3722   20.1588 O   0  0  0  0  0  0
  -26.5634  -34.8915   22.4666 O   0  0  0  0  0  0
  -23.5450  -32.1376   23.7279 O   0  0  0  0  0  0
  -30.7726  -18.7216   19.3908 C   0  0  0  0  0  0
  -29.1423  -19.8892   20.7598 C   0  0  0  0  0  0
  -30.4702  -21.1604   19.1817 C   0  0  0  0  0  0
  -29.7774  -18.6284   20.3889 C   0  0  0  0  0  0
  -31.1142  -19.9599   18.8028 C   0  0  0  0  0  0
  -29.4574  -21.1835   20.1709 C   0  0  0  0  0  0
  -29.4114  -17.2618   21.0295 C   0  0  0  0  0  0
  -29.7475  -15.9046   20.9462 C   0  0  0  0  0  0
  -28.8177  -23.7490   20.0272 C   0  0  0  0  0  0
  -26.8530  -24.6657   21.4534 C   0  0  0  0  0  0
  -28.2198  -25.0124   20.8226 C   0  0  2  0  0  0
  -32.1159  -19.9972   17.8325 N   0  0  0  0  0  0
  -28.8373  -22.4740   20.5954 N   0  0  0  0  0  0
  -29.2494  -23.9519   18.8897 O   0  0  0  0  0  0
  -31.4796  -12.5665   19.1822 H   0  0  0  0  0  0
  -30.3753  -11.4634   19.9490 H   0  0  0  0  0  0
  -29.8002  -11.7534   17.5159 H   0  0  0  0  0  0
  -29.6471  -13.4785   17.7406 H   0  0  0  0  0  0
  -27.8927  -11.2898   18.8977 H   0  0  0  0  0  0
  -27.3859  -12.5440   17.7978 H   0  0  0  0  0  0
  -27.6508  -14.2576   19.4936 H   0  0  0  0  0  0
  -28.7176  -12.1285   21.4080 H   0  0  0  0  0  0
  -28.4145  -13.7933   21.8200 H   0  0  0  0  0  0
  -25.2766   -9.5694   22.4752 H   0  0  0  0  0  0
  -24.0007   -7.4643   22.7474 H   0  0  0  0  0  0
  -21.0843   -8.8774   19.8952 H   0  0  0  0  0  0
  -22.3696  -10.9673   19.6159 H   0  0  0  0  0  0
  -21.2007   -7.6150   23.9719 H   0  0  0  0  0  0
  -21.1484   -6.0521   25.9078 H   0  0  0  0  0  0
  -22.0596   -2.7611   23.2841 H   0  0  0  0  0  0
  -22.4100  -11.9889   22.4806 H   0  0  0  0  0  0
  -21.1098  -13.1249   22.2608 H   0  0  0  0  0  0
  -24.6657  -15.8515   20.5410 H   0  0  0  0  0  0
  -26.2925  -15.6325   20.1344 H   0  0  0  0  0  0
  -26.7198  -32.5411   23.1079 H   0  0  0  0  0  0
  -25.0047  -33.9696   25.0381 H   0  0  0  0  0  0
  -22.7235  -31.2980   21.3940 H   0  0  0  0  0  0
  -23.3749  -35.9625   23.3305 H   0  0  0  0  0  0
  -24.3573  -36.8912   22.2054 H   0  0  0  0  0  0
  -23.7248  -37.6492   23.6667 H   0  0  0  0  0  0
  -26.1088  -31.5269   20.6064 H   0  0  0  0  0  0
  -26.8499  -30.8208   22.0112 H   0  0  0  0  0  0
  -28.1179  -28.9278   21.2216 H   0  0  0  0  0  0
  -26.0111  -25.9198   18.9696 H   0  0  0  0  0  0
  -23.9876  -27.3088   18.9802 H   0  0  0  0  0  0
  -23.7688  -30.5810   19.4002 H   0  0  0  0  0  0
  -22.7653  -29.2378   19.8566 H   0  0  0  0  0  0
  -25.1304  -36.1920   25.0816 H   0  0  0  0  0  0
  -20.9990  -28.3271   24.1391 H   0  0  0  0  0  0
  -20.5672  -26.2304   23.3614 H   0  0  0  0  0  0
  -21.6646  -26.7430   22.1205 H   0  0  0  0  0  0
  -19.6912  -25.6288   21.1245 H   0  0  0  0  0  0
  -19.6693  -27.3187   20.6739 H   0  0  0  0  0  0
  -17.4204  -26.6673   21.4027 H   0  0  0  0  0  0
  -18.0334  -26.0075   22.9024 H   0  0  0  0  0  0
  -19.7940  -30.7278   24.2255 H   0  0  0  0  0  0
  -17.5017  -31.6266   24.5163 H   0  0  0  0  0  0
  -15.5355  -30.2983   23.7658 H   0  0  0  0  0  0
  -15.8677  -28.0818   22.7070 H   0  0  0  0  0  0
  -24.5884  -30.7091   25.7754 H   0  0  0  0  0  0
  -24.8893  -32.2909   26.4843 H   0  0  0  0  0  0
  -25.8006  -30.8918   27.0226 H   0  0  0  0  0  0
  -26.2936  -29.6740   24.1236 H   0  0  0  0  0  0
  -27.4015  -29.7272   25.4749 H   0  0  0  0  0  0
  -27.8817  -30.4272   23.9476 H   0  0  0  0  0  0
  -27.2649  -33.3629   26.2071 H   0  0  0  0  0  0
  -28.3860  -32.6887   25.0337 H   0  0  0  0  0  0
  -28.0711  -31.8459   26.5421 H   0  0  0  0  0  0
  -28.2600  -38.0096   24.7504 H   0  0  0  0  0  0
  -28.1074  -36.2625   24.6300 H   0  0  0  0  0  0
  -27.2293  -37.1463   25.8865 H   0  0  0  0  0  0
  -20.9393  -29.8759   21.6861 H   0  0  0  0  0  0
  -26.0175  -38.2845   24.1395 H   0  0  0  0  0  0
  -31.2955  -17.8319   19.0705 H   0  0  0  0  0  0
  -28.3844  -19.8585   21.5300 H   0  0  0  0  0  0
  -30.7856  -22.0788   18.7109 H   0  0  0  0  0  0
  -28.6525  -17.4100   21.7846 H   0  0  0  0  0  0
  -30.2319  -16.3112   20.0824 H   0  0  0  0  0  0
  -26.4866  -25.4759   22.0834 H   0  0  0  0  0  0
  -26.9257  -23.7866   22.0934 H   0  0  0  0  0  0
  -26.0976  -24.4453   20.6999 H   0  0  0  0  0  0
  -28.9007  -25.1184   21.6679 H   0  0  0  0  0  0
  -32.7550  -19.2113   17.7559 H   0  0  0  0  0  0
  -32.5571  -20.8861   17.6145 H   0  0  0  0  0  0
  -28.3546  -22.4323   21.4827 H   0  0  0  0  0  0
  1 25  1  0  0  0
  1 30  2  0  0  0
  1 78  1  0  0  0
  2  3  1  0  0  0
  2 25  1  0  0  0
  2 85  1  0  0  0
  2 86  1  0  0  0
  3  4  1  0  0  0
  3 87  1  0  0  0
  3 88  1  0  0  0
  4  5  1  0  0  0
  4 89  1  0  0  0
  4 90  1  0  0  0
  5  6  1  0  0  0
  5 26  1  0  0  0
  5 91  1  0  0  0
  6 25  1  0  0  0
  6 92  1  0  0  0
  6 93  1  0  0  0
  7  8  2  0  0  0
  7 26  1  0  0  0
  7 29  1  0  0  0
  8  9  1  0  0  0
  8 22  1  0  0  0
  9 10  1  0  0  0
  9 27  2  0  0  0
 10 11  2  0  0  0
 10 15  1  0  0  0
 11 12  1  0  0  0
 11 94  1  0  0  0
 12 13  2  0  0  0
 12 95  1  0  0  0
 13 14  1  0  0  0
 13 31  1  0  0  0
 14 15  2  0  0  0
 14 96  1  0  0  0
 15 97  1  0  0  0
 16 17  2  0  0  0
 16 21  1  0  0  0
 16 31  1  0  0  0
 17 18  1  0  0  0
 17 98  1  0  0  0
 18 19  2  0  0  0
 18 99  1  0  0  0
 19 20  1  0  0  0
 19 24  1  0  0  0
 20 21  2  0  0  0
 20100  1  0  0  0
 21 23  1  0  0  0
 22 28  1  0  0  0
 22 32  2  0  0  0
 26 27  1  0  0  0
 28101  1  0  0  0
 28102  1  0  0  0
 29103  1  0  0  0
 29104  1  0  0  0
 33 34  1  0  0  0
 33 66  1  0  0  0
 33 70  2  0  0  0
 34 36  1  0  0  0
 34 59  1  0  0  0
 34105  1  0  0  0
 35 44  2  0  0  0
 35 45  1  0  0  0
 35 68  1  0  0  0
 36 56  1  0  0  0
 36106  1  0  0  0
 37 39  1  0  0  0
 37 47  1  0  0  0
 37 66  1  0  0  0
 37107  1  0  0  0
 38 43  2  0  0  0
 38 46  1  0  0  0
 38 47  1  0  0  0
 39 64  1  0  0  0
 39 67  2  0  0  0
 40 52  1  0  0  0
 40 53  2  0  0  0
 40 58  1  0  0  0
 41108  1  0  0  0
 41109  1  0  0  0
 41110  1  0  0  0
 41 48  1  0  0  0
 42 43  1  0  0  0
 42 66  1  0  0  0
 42111  1  0  0  0
 42112  1  0  0  0
 43 44  1  0  0  0
 44113  1  0  0  0
 45 46  2  0  0  0
 45114  1  0  0  0
 46115  1  0  0  0
 47116  1  0  0  0
 47117  1  0  0  0
 48 56  1  0  0  0
 48 65  1  0  0  0
 48118  1  0  0  0
 49 50  1  0  0  0
 49 53  1  0  0  0
 49 64  1  0  0  0
 49119  1  0  0  0
 50 51  1  0  0  0
 50120  1  0  0  0
 50121  1  0  0  0
 51 52  1  0  0  0
 51122  1  0  0  0
 51123  1  0  0  0
 52124  1  0  0  0
 52125  1  0  0  0
 53 54  1  0  0  0
 54 55  2  0  0  0
 54126  1  0  0  0
 55 57  1  0  0  0
 55127  1  0  0  0
 56 69  2  0  0  0
 57 58  2  0  0  0
 57128  1  0  0  0
 58129  1  0  0  0
 59 60  1  0  0  0
 59 61  1  0  0  0
 59 62  1  0  0  0
 60130  1  0  0  0
 60131  1  0  0  0
 60132  1  0  0  0
 61133  1  0  0  0
 61134  1  0  0  0
 61135  1  0  0  0
 62136  1  0  0  0
 62137  1  0  0  0
 62138  1  0  0  0
 63 65  1  0  0  0
 63139  1  0  0  0
 63140  1  0  0  0
 63141  1  0  0  0
 64142  1  0  0  0
 65143  1  0  0  0
 68 81  1  0  0  0
 71 74  2  0  0  0
 71 75  1  0  0  0
 71144  1  0  0  0
 72 74  1  0  0  0
 72 76  2  0  0  0
 72145  1  0  0  0
 73 75  2  0  0  0
 73 76  1  0  0  0
 73146  1  0  0  0
 74 77  1  0  0  0
 75 82  1  0  0  0
 76 83  1  0  0  0
 77 78  2  0  0  0
 77147  1  0  0  0
 78148  1  0  0  0
 79 81  1  0  0  0
 79 83  1  0  0  0
 79 84  2  0  0  0
 80149  1  0  0  0
 80150  1  0  0  0
 80151  1  0  0  0
 80 81  1  0  0  0
 81152  1  0  0  0
 82153  1  0  0  0
 82154  1  0  0  0
 83155  1  0  0  0
M  ISO  4   1 100  68 101  78 100  81 101
M  END
> <chiral flag>
0

> <version>
0

> <s_m_source_file>
/data/baiqing/PycharmProjects/Reinvent-master-3.2/result/LINK_invent/BTK/process_docking_weight1_custom_product_contain_oxygen_bond_distance_aromatic_linkinvent_7_9_3/rearranged_h_0162.sdf

> <i_m_source_file_index>
77

> <r_mmod_Potential_Energy-OPLS-2005>
482.333282470703

> <r_mmod_Stretch_Energy-OPLS-2005>
131.78205871582

> <r_mmod_Bend_Energy-OPLS-2005>
442.752807617188

> <r_mmod_Torsional_Energy-OPLS-2005>
233.412063598633

> <r_mmod_Improper_Torsional_Energy-OPLS-2005>
8.50427341461182

> <r_mmod_Van_der_Waal_Energy-OPLS-2005>
153.025100708008

> <r_mmod_Electrostatic_Energy-OPLS-2005>
-330.82470703125

> <r_mmod_Solvation_Energy-OPLS-2005>
-235.050231933594

> <b_mmod_Minimization_Converged-OPLS-2005>
0

> <r_mmod_RMS_Derivative-OPLS-2005>
0.46831813454628

$$$$
77
                    3D
 Structure written by MMmdl.
163172  0  0  1  0            999 V2000
  -30.6750  -14.5037   20.5250 C   0  0  0  0  0  0
  -30.4081  -12.3053   19.4354 C   0  0  0  0  0  0
  -29.4867  -12.5166   18.2149 C   0  0  0  0  0  0
  -28.0069  -12.3695   18.6185 C   0  0  0  0  0  0
  -27.6527  -13.2170   19.8679 C   0  0  2  0  0  0
  -28.6910  -13.0179   20.9938 C   0  0  0  0  0  0
  -25.2522  -13.8168   20.5642 C   0  0  0  0  0  0
  -24.1788  -13.0440   20.9137 C   0  0  0  0  0  0
  -24.6366  -11.6913   20.8750 C   0  0  0  0  0  0
  -23.9059  -10.4267   21.0405 C   0  0  0  0  0  0
  -24.3621   -9.4172   21.9170 C   0  0  0  0  0  0
  -23.6281   -8.2224   22.0743 C   0  0  0  0  0  0
  -22.4267   -8.0261   21.3525 C   0  0  0  0  0  0
  -21.9902   -9.0243   20.4639 C   0  0  0  0  0  0
  -22.7243  -10.2108   20.3047 C   0  0  0  0  0  0
  -21.6841   -6.0726   22.5274 C   0  0  0  0  0  0
  -21.4027   -6.5639   23.8209 C   0  0  0  0  0  0
  -21.3658   -5.6794   24.9170 C   0  0  0  0  0  0
  -21.6044   -4.3055   24.7230 C   0  0  0  0  0  0
  -21.8819   -3.8135   23.4355 C   0  0  0  0  0  0
  -21.9182   -4.6950   22.3409 C   0  0  0  0  0  0
  -22.7805  -13.5202   21.1842 C   0  0  0  0  0  0
  -22.1620   -4.2142   21.0979 F   0  0  0  0  0  0
  -21.5644   -3.4544   25.7758 F   0  0  0  0  0  0
  -30.0288  -13.3048   20.4477 N   0  0  0  0  0  0
  -26.2953  -12.9369   20.3327 N   0  0  0  0  0  0
  -25.9288  -11.6509   20.5782 N   0  0  0  0  0  0
  -22.0496  -12.8179   22.0428 N   0  0  0  0  0  0
  -25.4288  -15.1885   20.4127 N   0  0  0  0  0  0
  -31.8506  -14.6116   20.1643 O   0  0  0  0  0  0
  -21.6613   -6.8870   21.4233 O   0  0  0  0  0  0
  -22.3469  -14.5508   20.6703 O   0  0  0  0  0  0
  -24.6122  -31.8643   23.2088 C   0  0  0  0  0  0
  -25.9012  -32.4815   23.8407 C   0  0  1  0  0  0
  -27.2442  -27.4360   20.1142 C   0  0  0  0  0  0
  -25.5854  -33.8626   24.2320 N   0  0  0  0  0  0
  -23.4027  -30.4882   21.5470 C   0  0  2  0  0  0
  -24.8550  -28.9530   20.1180 C   0  0  0  0  0  0
  -22.7386  -29.4649   22.4971 C   0  0  0  0  0  0
  -18.0237  -28.1388   22.8503 C   0  0  0  0  0  0
  -24.1479  -36.7309   23.2632 C   0  0  0  0  0  0
  -25.9330  -30.8338   21.3629 C   0  0  0  0  0  0
  -26.0148  -29.4685   20.7139 C   0  0  0  0  0  0
  -27.2127  -28.7176   20.7086 C   0  0  0  0  0  0
  -26.0688  -26.9324   19.5160 C   0  0  0  0  0  0
  -24.8770  -27.6825   19.5183 C   0  0  0  0  0  0
  -23.6131  -29.8149   20.1649 C   0  0  0  0  0  0
  -25.4101  -36.3120   24.0341 C   0  0  1  0  0  0
  -20.5830  -28.3691   23.1316 C   0  0  2  0  0  0
  -20.6755  -26.9419   22.5446 C   0  0  0  0  0  0
  -19.5767  -26.6394   21.5213 C   0  0  0  0  0  0
  -18.1898  -26.7960   22.1558 C   0  0  0  0  0  0
  -19.1486  -28.8844   23.2913 C   0  0  0  0  0  0
  -18.9429  -30.1441   23.8958 C   0  0  0  0  0  0
  -17.6443  -30.6622   24.0567 C   0  0  0  0  0  0
  -25.9031  -34.9475   23.5138 C   0  0  0  0  0  0
  -16.5331  -29.9130   23.6342 C   0  0  0  0  0  0
  -16.7224  -28.6520   23.0402 C   0  0  0  0  0  0
  -26.4467  -31.6602   25.0747 C   0  0  0  0  0  0
  -25.3731  -31.3717   26.1476 C   0  0  0  0  0  0
  -27.0269  -30.3025   24.6171 C   0  0  0  0  0  0
  -27.6076  -32.4311   25.7460 C   0  0  0  0  0  0
  -27.5588  -37.1775   24.8451 C   0  0  0  0  0  0
  -21.4105  -29.3039   22.3683 N   0  0  0  0  0  0
  -26.4289  -37.3818   23.9430 N   0  0  0  0  0  0
  -24.6693  -31.0763   22.0981 N   0  0  0  0  0  0
  -23.4163  -28.8210   23.3026 O   0  0  0  0  0  0
  -28.3949  -26.6774   20.1222 O   0  0  0  0  0  0
  -26.5559  -34.8908   22.4688 O   0  0  0  0  0  0
  -23.5314  -32.1350   23.7498 O   0  0  0  0  0  0
  -27.7271  -18.8848   19.0266 C   0  0  0  0  0  0
  -28.4349  -17.8100   19.5795 C   0  0  0  0  0  0
  -28.1426  -20.1960   19.2957 C   0  0  0  0  0  0
  -29.5336  -18.0092   20.4518 C   0  0  0  0  0  0
  -29.8797  -19.3517   20.8353 C   0  0  0  0  0  0
  -29.2131  -20.4472   20.1818 C   0  0  0  0  0  0
  -30.3131  -16.7717   20.7998 C   0  0  0  0  0  0
  -29.1798  -24.3207   20.4305 C   0  0  0  0  0  0
  -28.7125  -22.8425   20.5823 C   0  0  0  0  0  0
  -31.3845  -19.9164   24.0384 C   0  0  0  0  0  0
  -30.7982  -20.7994   22.9335 C   0  0  0  0  0  0
  -30.8419  -18.7311   23.2465 C   0  0  0  0  0  0
  -30.9009  -19.5954   21.9642 C   0  0  0  0  0  0
  -28.2757  -25.4786   20.9188 C   0  0  0  0  0  0
  -29.8238  -15.5809   20.8008 N   0  0  0  0  0  0
  -27.4345  -22.5964   20.9905 N   0  0  0  0  0  0
  -29.6059  -21.8511   20.3118 N   0  3  0  0  0  0
  -30.2839  -24.5511   19.9239 O   0  0  0  0  0  0
  -31.4555  -12.3778   19.1411 H   0  0  0  0  0  0
  -30.2777  -11.2983   19.8379 H   0  0  0  0  0  0
  -29.7309  -11.8047   17.4232 H   0  0  0  0  0  0
  -29.6488  -13.5125   17.7996 H   0  0  0  0  0  0
  -27.8150  -11.3133   18.8129 H   0  0  0  0  0  0
  -27.3589  -12.6398   17.7843 H   0  0  0  0  0  0
  -27.6876  -14.2639   19.5597 H   0  0  0  0  0  0
  -28.6570  -11.9923   21.3641 H   0  0  0  0  0  0
  -28.4578  -13.6518   21.8528 H   0  0  0  0  0  0
  -25.2774   -9.5622   22.4729 H   0  0  0  0  0  0
  -23.9970   -7.4603   22.7470 H   0  0  0  0  0  0
  -21.0830   -8.8798   19.8933 H   0  0  0  0  0  0
  -22.3731  -10.9658   19.6155 H   0  0  0  0  0  0
  -21.2013   -7.6145   23.9726 H   0  0  0  0  0  0
  -21.1488   -6.0511   25.9074 H   0  0  0  0  0  0
  -22.0597   -2.7595   23.2877 H   0  0  0  0  0  0
  -22.4144  -11.9803   22.4736 H   0  0  0  0  0  0
  -21.1123  -13.1154   22.2756 H   0  0  0  0  0  0
  -24.6822  -15.8598   20.5549 H   0  0  0  0  0  0
  -26.3181  -15.6160   20.1853 H   0  0  0  0  0  0
  -26.7088  -32.5573   23.1188 H   0  0  0  0  0  0
  -25.0076  -33.9812   25.0515 H   0  0  0  0  0  0
  -22.6928  -31.3069   21.4059 H   0  0  0  0  0  0
  -23.3759  -35.9607   23.3273 H   0  0  0  0  0  0
  -24.3599  -36.8987   22.2061 H   0  0  0  0  0  0
  -23.7196  -37.6489   23.6673 H   0  0  0  0  0  0
  -26.0366  -31.6040   20.5977 H   0  0  0  0  0  0
  -26.8205  -30.8906   21.9836 H   0  0  0  0  0  0
  -28.1070  -29.1113   21.1735 H   0  0  0  0  0  0
  -26.0736  -25.9547   19.0573 H   0  0  0  0  0  0
  -23.9821  -27.2752   19.0659 H   0  0  0  0  0  0
  -23.7079  -30.5856   19.3983 H   0  0  0  0  0  0
  -22.7449  -29.2180   19.8836 H   0  0  0  0  0  0
  -25.1276  -36.1975   25.0827 H   0  0  0  0  0  0
  -20.9894  -28.3296   24.1449 H   0  0  0  0  0  0
  -20.5595  -26.2319   23.3650 H   0  0  0  0  0  0
  -21.6650  -26.7436   22.1294 H   0  0  0  0  0  0
  -19.6949  -25.6291   21.1290 H   0  0  0  0  0  0
  -19.6789  -27.3181   20.6732 H   0  0  0  0  0  0
  -17.4212  -26.6759   21.3904 H   0  0  0  0  0  0
  -18.0232  -26.0053   22.8892 H   0  0  0  0  0  0
  -19.7902  -30.7203   24.2407 H   0  0  0  0  0  0
  -17.5015  -31.6319   24.5130 H   0  0  0  0  0  0
  -15.5337  -30.3057   23.7680 H   0  0  0  0  0  0
  -15.8604  -28.0848   22.7172 H   0  0  0  0  0  0
  -24.6182  -30.6680   25.7958 H   0  0  0  0  0  0
  -24.8542  -32.2782   26.4584 H   0  0  0  0  0  0
  -25.8133  -30.9340   27.0435 H   0  0  0  0  0  0
  -26.2825  -29.6803   24.1186 H   0  0  0  0  0  0
  -27.3941  -29.7280   25.4686 H   0  0  0  0  0  0
  -27.8710  -30.4320   23.9403 H   0  0  0  0  0  0
  -27.2789  -33.3672   26.1978 H   0  0  0  0  0  0
  -28.3884  -32.6737   25.0247 H   0  0  0  0  0  0
  -28.0697  -31.8441   26.5407 H   0  0  0  0  0  0
  -28.2570  -38.0097   24.7543 H   0  0  0  0  0  0
  -28.1129  -36.2651   24.6210 H   0  0  0  0  0  0
  -27.2332  -37.1363   25.8856 H   0  0  0  0  0  0
  -20.9224  -29.8733   21.6905 H   0  0  0  0  0  0
  -26.0179  -38.2880   24.1503 H   0  0  0  0  0  0
  -26.8959  -18.6979   18.3592 H   0  0  0  0  0  0
  -28.1494  -16.8112   19.2801 H   0  0  0  0  0  0
  -27.6273  -21.0120   18.8049 H   0  0  0  0  0  0
  -31.3785  -16.9413   20.9868 H   0  0  0  0  0  0
  -30.9454  -20.0483   25.0297 H   0  0  0  0  0  0
  -32.4765  -19.9350   24.0778 H   0  0  0  0  0  0
  -31.4097  -21.6691   22.6876 H   0  0  0  0  0  0
  -29.7683  -21.0850   23.1654 H   0  0  0  0  0  0
  -29.8197  -18.4842   23.5449 H   0  0  0  0  0  0
  -31.4755  -17.8457   23.2609 H   0  0  0  0  0  0
  -31.9063  -19.5648   21.5365 H   0  0  0  0  0  0
  -28.5649  -25.7241   21.9433 H   0  0  0  0  0  0
  -27.2428  -25.1353   20.9596 H   0  0  0  0  0  0
  -26.7999  -23.3512   21.2106 H   0  0  0  0  0  0
  -27.0973  -21.6465   21.0923 H   0  0  0  0  0  0
  -30.5764  -22.1254   20.3127 H   0  0  0  0  0  0
  1 25  1  0  0  0
  1 30  2  0  0  0
  1 85  1  0  0  0
  2  3  1  0  0  0
  2 25  1  0  0  0
  2 89  1  0  0  0
  2 90  1  0  0  0
  3  4  1  0  0  0
  3 91  1  0  0  0
  3 92  1  0  0  0
  4  5  1  0  0  0
  4 93  1  0  0  0
  4 94  1  0  0  0
  5  6  1  0  0  0
  5 26  1  0  0  0
  5 95  1  0  0  0
  6 25  1  0  0  0
  6 96  1  0  0  0
  6 97  1  0  0  0
  7  8  2  0  0  0
  7 26  1  0  0  0
  7 29  1  0  0  0
  8  9  1  0  0  0
  8 22  1  0  0  0
  9 10  1  0  0  0
  9 27  2  0  0  0
 10 11  2  0  0  0
 10 15  1  0  0  0
 11 12  1  0  0  0
 11 98  1  0  0  0
 12 13  2  0  0  0
 12 99  1  0  0  0
 13 14  1  0  0  0
 13 31  1  0  0  0
 14 15  2  0  0  0
 14100  1  0  0  0
 15101  1  0  0  0
 16 17  2  0  0  0
 16 21  1  0  0  0
 16 31  1  0  0  0
 17 18  1  0  0  0
 17102  1  0  0  0
 18 19  2  0  0  0
 18103  1  0  0  0
 19 20  1  0  0  0
 19 24  1  0  0  0
 20 21  2  0  0  0
 20104  1  0  0  0
 21 23  1  0  0  0
 22 28  1  0  0  0
 22 32  2  0  0  0
 26 27  1  0  0  0
 28105  1  0  0  0
 28106  1  0  0  0
 29107  1  0  0  0
 29108  1  0  0  0
 33 34  1  0  0  0
 33 66  1  0  0  0
 33 70  2  0  0  0
 34 36  1  0  0  0
 34 59  1  0  0  0
 34109  1  0  0  0
 35 44  2  0  0  0
 35 45  1  0  0  0
 35 68  1  0  0  0
 36 56  1  0  0  0
 36110  1  0  0  0
 37 39  1  0  0  0
 37 47  1  0  0  0
 37 66  1  0  0  0
 37111  1  0  0  0
 38 43  2  0  0  0
 38 46  1  0  0  0
 38 47  1  0  0  0
 39 64  1  0  0  0
 39 67  2  0  0  0
 40 52  1  0  0  0
 40 53  2  0  0  0
 40 58  1  0  0  0
 41112  1  0  0  0
 41113  1  0  0  0
 41114  1  0  0  0
 41 48  1  0  0  0
 42 43  1  0  0  0
 42 66  1  0  0  0
 42115  1  0  0  0
 42116  1  0  0  0
 43 44  1  0  0  0
 44117  1  0  0  0
 45 46  2  0  0  0
 45118  1  0  0  0
 46119  1  0  0  0
 47120  1  0  0  0
 47121  1  0  0  0
 48 56  1  0  0  0
 48 65  1  0  0  0
 48122  1  0  0  0
 49 50  1  0  0  0
 49 53  1  0  0  0
 49 64  1  0  0  0
 49123  1  0  0  0
 50 51  1  0  0  0
 50124  1  0  0  0
 50125  1  0  0  0
 51 52  1  0  0  0
 51126  1  0  0  0
 51127  1  0  0  0
 52128  1  0  0  0
 52129  1  0  0  0
 53 54  1  0  0  0
 54 55  2  0  0  0
 54130  1  0  0  0
 55 57  1  0  0  0
 55131  1  0  0  0
 56 69  2  0  0  0
 57 58  2  0  0  0
 57132  1  0  0  0
 58133  1  0  0  0
 59 60  1  0  0  0
 59 61  1  0  0  0
 59 62  1  0  0  0
 60134  1  0  0  0
 60135  1  0  0  0
 60136  1  0  0  0
 61137  1  0  0  0
 61138  1  0  0  0
 61139  1  0  0  0
 62140  1  0  0  0
 62141  1  0  0  0
 62142  1  0  0  0
 63 65  1  0  0  0
 63143  1  0  0  0
 63144  1  0  0  0
 63145  1  0  0  0
 64146  1  0  0  0
 65147  1  0  0  0
 68 84  1  0  0  0
 71 72  2  0  0  0
 71 73  1  0  0  0
 71148  1  0  0  0
 72 74  1  0  0  0
 72149  1  0  0  0
 73 76  2  0  0  0
 73150  1  0  0  0
 74 75  2  0  0  0
 74 77  1  0  0  0
 75 76  1  0  0  0
 75 83  1  0  0  0
 76 87  1  0  0  0
 77 85  2  0  0  0
 77151  1  0  0  0
 78 79  1  0  0  0
 78 84  1  0  0  0
 78 88  2  0  0  0
 79 86  1  0  0  0
 79 87  2  0  0  0
 80 81  1  0  0  0
 80 82  1  0  0  0
 80152  1  0  0  0
 80153  1  0  0  0
 81 83  1  0  0  0
 81154  1  0  0  0
 81155  1  0  0  0
 82 83  1  0  0  0
 82156  1  0  0  0
 82157  1  0  0  0
 83158  1  0  0  0
 84159  1  0  0  0
 84160  1  0  0  0
 86161  1  0  0  0
 86162  1  0  0  0
 87163  1  0  0  0
M  CHG  1  87   1
M  ISO  4   1 100  68 101  84 101  85 100
M  END
> <chiral flag>
0

> <version>
0

> <s_m_source_file>
/data/baiqing/PycharmProjects/Reinvent-master-3.2/result/LINK_invent/BTK/process_docking_weight1_custom_product_contain_oxygen_bond_distance_aromatic_linkinvent_7_9_3/rearranged_h_0162.sdf

> <i_m_source_file_index>
78

> <r_mmod_Potential_Energy-OPLS-2005>
8.3006067276001

> <r_mmod_Stretch_Energy-OPLS-2005>
53.3491172790527

> <r_mmod_Bend_Energy-OPLS-2005>
116.616149902344

> <r_mmod_Torsional_Energy-OPLS-2005>
253.323028564453

> <r_mmod_Improper_Torsional_Energy-OPLS-2005>
6.69642639160156

> <r_mmod_Van_der_Waal_Energy-OPLS-2005>
166.922958374023

> <r_mmod_Electrostatic_Energy-OPLS-2005>
-139.839569091797

> <r_mmod_Solvation_Energy-OPLS-2005>
-466.167785644531

> <b_mmod_Minimization_Converged-OPLS-2005>
0

> <r_mmod_RMS_Derivative-OPLS-2005>
5.17658853530884

$$$$
78
                    3D
 Structure written by MMmdl.
160169  0  0  1  0            999 V2000
  -30.7364  -14.5110   20.5643 C   0  0  0  0  0  0
  -30.4127  -12.3351   19.4356 C   0  0  0  0  0  0
  -29.4886  -12.5016   18.2135 C   0  0  0  0  0  0
  -28.0134  -12.3585   18.6321 C   0  0  0  0  0  0
  -27.6536  -13.2214   19.8723 C   0  0  2  0  0  0
  -28.7012  -13.0604   20.9971 C   0  0  0  0  0  0
  -25.2473  -13.8125   20.5615 C   0  0  0  0  0  0
  -24.1761  -13.0387   20.9108 C   0  0  0  0  0  0
  -24.6382  -11.6881   20.8730 C   0  0  0  0  0  0
  -23.9063  -10.4267   21.0396 C   0  0  0  0  0  0
  -24.3615   -9.4193   21.9182 C   0  0  0  0  0  0
  -23.6288   -8.2231   22.0756 C   0  0  0  0  0  0
  -22.4270   -8.0269   21.3543 C   0  0  0  0  0  0
  -21.9903   -9.0238   20.4644 C   0  0  0  0  0  0
  -22.7235  -10.2113   20.3048 C   0  0  0  0  0  0
  -21.6851   -6.0728   22.5279 C   0  0  0  0  0  0
  -21.4010   -6.5636   23.8211 C   0  0  0  0  0  0
  -21.3658   -5.6790   24.9176 C   0  0  0  0  0  0
  -21.6044   -4.3053   24.7226 C   0  0  0  0  0  0
  -21.8822   -3.8142   23.4349 C   0  0  0  0  0  0
  -21.9194   -4.6957   22.3404 C   0  0  0  0  0  0
  -22.7797  -13.5187   21.1812 C   0  0  0  0  0  0
  -22.1662   -4.2144   21.0981 F   0  0  0  0  0  0
  -21.5631   -3.4537   25.7739 F   0  0  0  0  0  0
  -30.0257  -13.3541   20.4281 N   0  0  0  0  0  0
  -26.2992  -12.9375   20.3428 N   0  0  0  0  0  0
  -25.9337  -11.6518   20.5844 N   0  0  0  0  0  0
  -22.0472  -12.8181   22.0396 N   0  0  0  0  0  0
  -25.4072  -15.1812   20.3983 N   0  0  0  0  0  0
  -31.8719  -14.6330   20.1010 O   0  0  0  0  0  0
  -21.6636   -6.8867   21.4240 O   0  0  0  0  0  0
  -22.3486  -14.5521   20.6714 O   0  0  0  0  0  0
  -24.6192  -31.8664   23.2097 C   0  0  0  0  0  0
  -25.9072  -32.4814   23.8393 C   0  0  1  0  0  0
  -27.2226  -27.3924   20.0944 C   0  0  0  0  0  0
  -25.5917  -33.8613   24.2317 N   0  0  0  0  0  0
  -23.4080  -30.4939   21.5519 C   0  0  2  0  0  0
  -24.8511  -28.9639   20.1116 C   0  0  0  0  0  0
  -22.7436  -29.4657   22.4972 C   0  0  0  0  0  0
  -18.0280  -28.1377   22.8492 C   0  0  0  0  0  0
  -24.1487  -36.7307   23.2638 C   0  0  0  0  0  0
  -25.9437  -30.8193   21.3705 C   0  0  0  0  0  0
  -26.0179  -29.4538   20.7115 C   0  0  0  0  0  0
  -27.2068  -28.6777   20.6987 C   0  0  0  0  0  0
  -26.0306  -26.9423   19.4730 C   0  0  0  0  0  0
  -24.8549  -27.7090   19.4882 C   0  0  0  0  0  0
  -23.6167  -29.8349   20.1645 C   0  0  0  0  0  0
  -25.4108  -36.3103   24.0335 C   0  0  1  0  0  0
  -20.5874  -28.3667   23.1306 C   0  0  2  0  0  0
  -20.6768  -26.9401   22.5411 C   0  0  0  0  0  0
  -19.5744  -26.6381   21.5211 C   0  0  0  0  0  0
  -18.1924  -26.7923   22.1626 C   0  0  0  0  0  0
  -19.1532  -28.8839   23.2896 C   0  0  0  0  0  0
  -18.9459  -30.1448   23.8903 C   0  0  0  0  0  0
  -17.6460  -30.6584   24.0569 C   0  0  0  0  0  0
  -25.9040  -34.9471   23.5120 C   0  0  0  0  0  0
  -16.5349  -29.9086   23.6331 C   0  0  0  0  0  0
  -16.7269  -28.6504   23.0351 C   0  0  0  0  0  0
  -26.4480  -31.6605   25.0736 C   0  0  0  0  0  0
  -25.3736  -31.3733   26.1482 C   0  0  0  0  0  0
  -27.0312  -30.3042   24.6137 C   0  0  0  0  0  0
  -27.6046  -32.4335   25.7502 C   0  0  0  0  0  0
  -27.5580  -37.1808   24.8466 C   0  0  0  0  0  0
  -21.4159  -29.3036   22.3714 N   0  0  0  0  0  0
  -26.4292  -37.3791   23.9415 N   0  0  0  0  0  0
  -24.6756  -31.0742   22.1013 N   0  0  0  0  0  0
  -23.4200  -28.8185   23.3011 O   0  0  0  0  0  0
  -28.3609  -26.5915   20.1357 O   0  0  0  0  0  0
  -26.5600  -34.8927   22.4678 O   0  0  0  0  0  0
  -23.5374  -32.1428   23.7471 O   0  0  0  0  0  0
  -30.7540  -19.4250   20.9170 C   0  0  0  0  0  0
  -30.0703  -18.1913   21.1965 C   0  0  0  0  0  0
  -28.7317  -18.5428   21.2273 C   0  0  0  0  0  0
  -29.8022  -20.3985   20.8049 C   0  0  0  0  0  0
  -27.5289  -17.7630   21.5227 C   0  0  0  0  0  0
  -29.2515  -24.2134   20.3503 C   0  0  0  0  0  0
  -25.2442  -18.2016   22.6500 C   0  0  0  0  0  0
  -25.9261  -19.5421   22.5388 C   0  0  0  0  0  0
  -26.1979  -18.4700   21.5020 C   0  0  0  0  0  0
  -30.7781  -16.8518   21.4832 C   0  0  0  0  0  0
  -28.8795  -22.7058   20.4388 C   0  0  0  0  0  0
  -28.1231  -25.1746   19.9038 C   0  0  0  0  0  0
  -30.0097  -21.7710   20.5921 N   0  0  0  0  0  0
  -30.1192  -15.5699   21.1348 N   0  0  0  0  0  0
  -27.5773  -16.5520   21.7557 O   0  0  0  0  0  0
  -30.3948  -24.6082   20.6091 O   0  0  0  0  0  0
  -28.5651  -19.8848   20.9648 O   0  0  0  0  0  0
  -31.4577  -12.4156   19.1305 H   0  0  0  0  0  0
  -30.3072  -11.3372   19.8641 H   0  0  0  0  0  0
  -29.7334  -11.7605   17.4515 H   0  0  0  0  0  0
  -29.6496  -13.4787   17.7554 H   0  0  0  0  0  0
  -27.8357  -11.3049   18.8510 H   0  0  0  0  0  0
  -27.3575  -12.6078   17.7974 H   0  0  0  0  0  0
  -27.6779  -14.2621   19.5473 H   0  0  0  0  0  0
  -28.6874  -12.0435   21.3911 H   0  0  0  0  0  0
  -28.4635  -13.7090   21.8413 H   0  0  0  0  0  0
  -25.2760   -9.5675   22.4756 H   0  0  0  0  0  0
  -23.9999   -7.4623   22.7476 H   0  0  0  0  0  0
  -21.0835   -8.8753   19.8947 H   0  0  0  0  0  0
  -22.3693  -10.9649   19.6152 H   0  0  0  0  0  0
  -21.1998   -7.6145   23.9713 H   0  0  0  0  0  0
  -21.1477   -6.0521   25.9078 H   0  0  0  0  0  0
  -22.0603   -2.7604   23.2850 H   0  0  0  0  0  0
  -22.4095  -11.9824   22.4744 H   0  0  0  0  0  0
  -21.1105  -13.1217   22.2652 H   0  0  0  0  0  0
  -24.6506  -15.8050   20.6526 H   0  0  0  0  0  0
  -26.3225  -15.5944   20.5482 H   0  0  0  0  0  0
  -26.7143  -32.5507   23.1152 H   0  0  0  0  0  0
  -25.0097  -33.9773   25.0481 H   0  0  0  0  0  0
  -22.6983  -31.3125   21.4158 H   0  0  0  0  0  0
  -23.3749  -35.9641   23.3309 H   0  0  0  0  0  0
  -24.3583  -36.8907   22.2050 H   0  0  0  0  0  0
  -23.7235  -37.6513   23.6647 H   0  0  0  0  0  0
  -26.0671  -31.5869   20.6052 H   0  0  0  0  0  0
  -26.8279  -30.8650   21.9945 H   0  0  0  0  0  0
  -28.1036  -29.0495   21.1744 H   0  0  0  0  0  0
  -25.9700  -25.9900   18.9671 H   0  0  0  0  0  0
  -23.9599  -27.3288   19.0148 H   0  0  0  0  0  0
  -23.7292  -30.6138   19.4093 H   0  0  0  0  0  0
  -22.7381  -29.2604   19.8645 H   0  0  0  0  0  0
  -25.1282  -36.1963   25.0827 H   0  0  0  0  0  0
  -20.9969  -28.3225   24.1424 H   0  0  0  0  0  0
  -20.5674  -26.2271   23.3597 H   0  0  0  0  0  0
  -21.6638  -26.7439   22.1199 H   0  0  0  0  0  0
  -19.6908  -25.6297   21.1230 H   0  0  0  0  0  0
  -19.6686  -27.3202   20.6752 H   0  0  0  0  0  0
  -17.4196  -26.6677   21.4027 H   0  0  0  0  0  0
  -18.0327  -26.0058   22.9014 H   0  0  0  0  0  0
  -19.7936  -30.7264   24.2267 H   0  0  0  0  0  0
  -17.5018  -31.6266   24.5165 H   0  0  0  0  0  0
  -15.5352  -30.2994   23.7655 H   0  0  0  0  0  0
  -15.8666  -28.0831   22.7058 H   0  0  0  0  0  0
  -24.5903  -30.7081   25.7829 H   0  0  0  0  0  0
  -24.8941  -32.2898   26.4928 H   0  0  0  0  0  0
  -25.8080  -30.8907   27.0244 H   0  0  0  0  0  0
  -26.2867  -29.6809   24.1167 H   0  0  0  0  0  0
  -27.4044  -29.7273   25.4610 H   0  0  0  0  0  0
  -27.8722  -30.4354   23.9323 H   0  0  0  0  0  0
  -27.2654  -33.3627   26.2093 H   0  0  0  0  0  0
  -28.3851  -32.6904   25.0328 H   0  0  0  0  0  0
  -28.0720  -31.8453   26.5409 H   0  0  0  0  0  0
  -28.2596  -38.0108   24.7518 H   0  0  0  0  0  0
  -28.1072  -36.2638   24.6275 H   0  0  0  0  0  0
  -27.2303  -37.1436   25.8870 H   0  0  0  0  0  0
  -20.9317  -29.8777   21.6955 H   0  0  0  0  0  0
  -26.0174  -38.2864   24.1424 H   0  0  0  0  0  0
  -31.8217  -19.5750   20.8389 H   0  0  0  0  0  0
  -24.1825  -18.1549   22.4156 H   0  0  0  0  0  0
  -25.5711  -17.5383   23.4494 H   0  0  0  0  0  0
  -26.7111  -19.7690   23.2587 H   0  0  0  0  0  0
  -25.3219  -20.3920   22.2281 H   0  0  0  0  0  0
  -25.7374  -18.5809   20.5228 H   0  0  0  0  0  0
  -30.9755  -16.8212   22.5552 H   0  0  0  0  0  0
  -31.7620  -16.9151   21.0156 H   0  0  0  0  0  0
  -28.3205  -22.4405   19.5407 H   0  0  0  0  0  0
  -28.1945  -22.5805   21.2785 H   0  0  0  0  0  0
  -27.2259  -24.8593   20.4378 H   0  0  0  0  0  0
  -27.9487  -25.0097   18.8402 H   0  0  0  0  0  0
  -30.9332  -22.1928   20.5243 H   0  0  0  0  0  0
  -29.1575  -15.4585   21.4320 H   0  0  0  0  0  0
  1 25  1  0  0  0
  1 30  2  0  0  0
  1 84  1  0  0  0
  2  3  1  0  0  0
  2 25  1  0  0  0
  2 88  1  0  0  0
  2 89  1  0  0  0
  3  4  1  0  0  0
  3 90  1  0  0  0
  3 91  1  0  0  0
  4  5  1  0  0  0
  4 92  1  0  0  0
  4 93  1  0  0  0
  5  6  1  0  0  0
  5 26  1  0  0  0
  5 94  1  0  0  0
  6 25  1  0  0  0
  6 95  1  0  0  0
  6 96  1  0  0  0
  7  8  2  0  0  0
  7 26  1  0  0  0
  7 29  1  0  0  0
  8  9  1  0  0  0
  8 22  1  0  0  0
  9 10  1  0  0  0
  9 27  2  0  0  0
 10 11  2  0  0  0
 10 15  1  0  0  0
 11 12  1  0  0  0
 11 97  1  0  0  0
 12 13  2  0  0  0
 12 98  1  0  0  0
 13 14  1  0  0  0
 13 31  1  0  0  0
 14 15  2  0  0  0
 14 99  1  0  0  0
 15100  1  0  0  0
 16 17  2  0  0  0
 16 21  1  0  0  0
 16 31  1  0  0  0
 17 18  1  0  0  0
 17101  1  0  0  0
 18 19  2  0  0  0
 18102  1  0  0  0
 19 20  1  0  0  0
 19 24  1  0  0  0
 20 21  2  0  0  0
 20103  1  0  0  0
 21 23  1  0  0  0
 22 28  1  0  0  0
 22 32  2  0  0  0
 26 27  1  0  0  0
 28104  1  0  0  0
 28105  1  0  0  0
 29106  1  0  0  0
 29107  1  0  0  0
 33 34  1  0  0  0
 33 66  1  0  0  0
 33 70  2  0  0  0
 34 36  1  0  0  0
 34 59  1  0  0  0
 34108  1  0  0  0
 35 44  2  0  0  0
 35 45  1  0  0  0
 35 68  1  0  0  0
 36 56  1  0  0  0
 36109  1  0  0  0
 37 39  1  0  0  0
 37 47  1  0  0  0
 37 66  1  0  0  0
 37110  1  0  0  0
 38 43  2  0  0  0
 38 46  1  0  0  0
 38 47  1  0  0  0
 39 64  1  0  0  0
 39 67  2  0  0  0
 40 52  1  0  0  0
 40 53  2  0  0  0
 40 58  1  0  0  0
 41111  1  0  0  0
 41112  1  0  0  0
 41113  1  0  0  0
 41 48  1  0  0  0
 42 43  1  0  0  0
 42 66  1  0  0  0
 42114  1  0  0  0
 42115  1  0  0  0
 43 44  1  0  0  0
 44116  1  0  0  0
 45 46  2  0  0  0
 45117  1  0  0  0
 46118  1  0  0  0
 47119  1  0  0  0
 47120  1  0  0  0
 48 56  1  0  0  0
 48 65  1  0  0  0
 48121  1  0  0  0
 49 50  1  0  0  0
 49 53  1  0  0  0
 49 64  1  0  0  0
 49122  1  0  0  0
 50 51  1  0  0  0
 50123  1  0  0  0
 50124  1  0  0  0
 51 52  1  0  0  0
 51125  1  0  0  0
 51126  1  0  0  0
 52127  1  0  0  0
 52128  1  0  0  0
 53 54  1  0  0  0
 54 55  2  0  0  0
 54129  1  0  0  0
 55 57  1  0  0  0
 55130  1  0  0  0
 56 69  2  0  0  0
 57 58  2  0  0  0
 57131  1  0  0  0
 58132  1  0  0  0
 59 60  1  0  0  0
 59 61  1  0  0  0
 59 62  1  0  0  0
 60133  1  0  0  0
 60134  1  0  0  0
 60135  1  0  0  0
 61136  1  0  0  0
 61137  1  0  0  0
 61138  1  0  0  0
 62139  1  0  0  0
 62140  1  0  0  0
 62141  1  0  0  0
 63 65  1  0  0  0
 63142  1  0  0  0
 63143  1  0  0  0
 63144  1  0  0  0
 64145  1  0  0  0
 65146  1  0  0  0
 68 82  1  0  0  0
 71 72  1  0  0  0
 71 74  2  0  0  0
 71147  1  0  0  0
 72 73  2  0  0  0
 72 80  1  0  0  0
 73 75  1  0  0  0
 73 87  1  0  0  0
 74 83  1  0  0  0
 74 87  1  0  0  0
 75 85  2  0  0  0
 75 79  1  0  0  0
 76 81  1  0  0  0
 76 82  1  0  0  0
 76 86  2  0  0  0
 77 78  1  0  0  0
 77 79  1  0  0  0
 77148  1  0  0  0
 77149  1  0  0  0
 78 79  1  0  0  0
 78150  1  0  0  0
 78151  1  0  0  0
 79152  1  0  0  0
 80 84  1  0  0  0
 80153  1  0  0  0
 80154  1  0  0  0
 81 83  1  0  0  0
 81155  1  0  0  0
 81156  1  0  0  0
 82157  1  0  0  0
 82158  1  0  0  0
 83159  1  0  0  0
 84160  1  0  0  0
M  ISO  4   1 100  68 101  82 101  84 100
M  END
> <chiral flag>
0

> <version>
0

> <s_m_source_file>
/data/baiqing/PycharmProjects/Reinvent-master-3.2/result/LINK_invent/BTK/process_docking_weight1_custom_product_contain_oxygen_bond_distance_aromatic_linkinvent_7_9_3/rearranged_h_0162.sdf

> <i_m_source_file_index>
79

> <r_mmod_Potential_Energy-OPLS-2005>
-105.807472229004

> <r_mmod_Stretch_Energy-OPLS-2005>
45.688117980957

> <r_mmod_Bend_Energy-OPLS-2005>
116.643241882324

> <r_mmod_Torsional_Energy-OPLS-2005>
216.272018432617

> <r_mmod_Improper_Torsional_Energy-OPLS-2005>
5.38657808303833

> <r_mmod_Van_der_Waal_Energy-OPLS-2005>
130.404907226562

> <r_mmod_Electrostatic_Energy-OPLS-2005>
-407.91162109375

> <r_mmod_Solvation_Energy-OPLS-2005>
-235.040740966797

> <b_mmod_Minimization_Converged-OPLS-2005>
0

> <r_mmod_RMS_Derivative-OPLS-2005>
0.684399664402008

$$$$
79
                    3D
 Structure written by MMmdl.
163171  0  0  1  0            999 V2000
  -30.5239  -14.8270   20.4715 C   0  0  0  0  0  0
  -30.4647  -12.5035   19.4810 C   0  0  0  0  0  0
  -29.5298  -12.5177   18.2461 C   0  0  0  0  0  0
  -28.0581  -12.2872   18.6568 C   0  0  0  0  0  0
  -27.6418  -13.1905   19.8384 C   0  0  2  0  0  0
  -28.6882  -13.1275   20.9800 C   0  0  0  0  0  0
  -25.2575  -13.8073   20.5639 C   0  0  0  0  0  0
  -24.1840  -13.0384   20.9197 C   0  0  0  0  0  0
  -24.6366  -11.6846   20.8748 C   0  0  0  0  0  0
  -23.9045  -10.4255   21.0417 C   0  0  0  0  0  0
  -24.3606   -9.4179   21.9200 C   0  0  0  0  0  0
  -23.6276   -8.2221   22.0767 C   0  0  0  0  0  0
  -22.4264   -8.0262   21.3554 C   0  0  0  0  0  0
  -21.9897   -9.0245   20.4663 C   0  0  0  0  0  0
  -22.7229  -10.2119   20.3068 C   0  0  0  0  0  0
  -21.6843   -6.0733   22.5280 C   0  0  0  0  0  0
  -21.4010   -6.5639   23.8213 C   0  0  0  0  0  0
  -21.3654   -5.6792   24.9178 C   0  0  0  0  0  0
  -21.6031   -4.3053   24.7225 C   0  0  0  0  0  0
  -21.8817   -3.8152   23.4345 C   0  0  0  0  0  0
  -21.9189   -4.6966   22.3406 C   0  0  0  0  0  0
  -22.7866  -13.5216   21.1884 C   0  0  0  0  0  0
  -22.1661   -4.2139   21.0984 F   0  0  0  0  0  0
  -21.5627   -3.4546   25.7748 F   0  0  0  0  0  0
  -29.9897  -13.5450   20.4261 N   0  0  0  0  0  0
  -26.2917  -12.9166   20.3166 N   0  0  0  0  0  0
  -25.9270  -11.6362   20.5715 N   0  0  0  0  0  0
  -22.0487  -12.8233   22.0424 N   0  0  0  0  0  0
  -25.4311  -15.1801   20.4040 N   0  0  0  0  0  0
  -31.7170  -14.9805   20.1864 O   0  0  0  0  0  0
  -21.6623   -6.8877   21.4243 O   0  0  0  0  0  0
  -22.3581  -14.5529   20.6726 O   0  0  0  0  0  0
  -24.6322  -31.8545   23.1970 C   0  0  0  0  0  0
  -25.9136  -32.4748   23.8312 C   0  0  1  0  0  0
  -27.2409  -27.2634   20.1177 C   0  0  0  0  0  0
  -25.5934  -33.8549   24.2248 N   0  0  0  0  0  0
  -23.4261  -30.4767   21.5419 C   0  0  2  0  0  0
  -24.8737  -28.9191   20.1148 C   0  0  0  0  0  0
  -22.7471  -29.4607   22.4925 C   0  0  0  0  0  0
  -18.0276  -28.1384   22.8487 C   0  0  0  0  0  0
  -24.1496  -36.7291   23.2644 C   0  0  0  0  0  0
  -25.9709  -30.7691   21.3736 C   0  0  0  0  0  0
  -26.0457  -29.3904   20.7175 C   0  0  0  0  0  0
  -27.2230  -28.5750   20.7067 C   0  0  0  0  0  0
  -26.0270  -26.8454   19.5244 C   0  0  0  0  0  0
  -24.8695  -27.6508   19.5148 C   0  0  0  0  0  0
  -23.6427  -29.8052   20.1594 C   0  0  0  0  0  0
  -25.4119  -36.3073   24.0332 C   0  0  1  0  0  0
  -20.5879  -28.3700   23.1277 C   0  0  2  0  0  0
  -20.6777  -26.9420   22.5416 C   0  0  0  0  0  0
  -19.5759  -26.6386   21.5212 C   0  0  0  0  0  0
  -18.1931  -26.7928   22.1623 C   0  0  0  0  0  0
  -19.1528  -28.8857   23.2885 C   0  0  0  0  0  0
  -18.9457  -30.1455   23.8906 C   0  0  0  0  0  0
  -17.6464  -30.6595   24.0558 C   0  0  0  0  0  0
  -25.9054  -34.9441   23.5097 C   0  0  0  0  0  0
  -16.5351  -29.9090   23.6341 C   0  0  0  0  0  0
  -16.7268  -28.6508   23.0364 C   0  0  0  0  0  0
  -26.4488  -31.6573   25.0700 C   0  0  0  0  0  0
  -25.3717  -31.3728   26.1428 C   0  0  0  0  0  0
  -27.0344  -30.3000   24.6183 C   0  0  0  0  0  0
  -27.6043  -32.4303   25.7485 C   0  0  0  0  0  0
  -27.5581  -37.1804   24.8466 C   0  0  0  0  0  0
  -21.4173  -29.3052   22.3657 N   0  0  0  0  0  0
  -26.4298  -37.3766   23.9404 N   0  0  0  0  0  0
  -24.6952  -31.0508   22.0947 N   0  0  0  0  0  0
  -23.4179  -28.8152   23.3019 O   0  0  0  0  0  0
  -28.3974  -26.4407   20.1855 O   0  0  0  0  0  0
  -26.5628  -34.8922   22.4665 O   0  0  0  0  0  0
  -23.5471  -32.1370   23.7275 O   0  0  0  0  0  0
  -29.3304  -19.9269   20.3553 C   0  0  0  0  0  0
  -30.8868  -21.4339   21.4198 C   0  0  0  0  0  0
  -30.0030  -18.7351   20.8736 C   0  0  0  0  0  0
  -31.1513  -18.9723   21.6839 C   0  0  0  0  0  0
  -29.7252  -21.2978   20.6293 C   0  0  0  0  0  0
  -31.5944  -20.3138   21.9239 C   0  0  0  0  0  0
  -29.3487  -17.3442   20.6857 C   0  0  0  0  0  0
  -29.4958  -15.9503   20.5941 C   0  0  0  0  0  0
  -31.8439  -17.8293   22.3490 C   0  0  0  0  0  0
  -28.9980  -23.8295   20.5399 C   0  0  0  0  0  0
  -30.5603  -18.1458   24.5576 C   0  0  0  0  0  0
  -27.9157  -24.6688   18.2799 C   0  0  0  0  0  0
  -31.1201  -17.1538   23.5229 C   0  0  0  0  0  0
  -28.6431  -25.0725   19.5744 C   0  0  2  0  0  0
  -32.7200  -20.6045   22.7068 N   0  0  0  0  0  0
  -29.0649  -22.5162   20.0728 N   0  0  0  0  0  0
  -32.9781  -17.4537   22.0379 O   0  0  0  0  0  0
  -29.2332  -24.0828   21.7250 O   0  0  0  0  0  0
  -31.4952  -12.6821   19.1718 H   0  0  0  0  0  0
  -30.4590  -11.5200   19.9523 H   0  0  0  0  0  0
  -29.8438  -11.7609   17.5267 H   0  0  0  0  0  0
  -29.6253  -13.4762   17.7342 H   0  0  0  0  0  0
  -27.9485  -11.2406   18.9438 H   0  0  0  0  0  0
  -27.3925  -12.4431   17.8070 H   0  0  0  0  0  0
  -27.6113  -14.1830   19.3979 H   0  0  0  0  0  0
  -28.7533  -12.1166   21.3861 H   0  0  0  0  0  0
  -28.3909  -13.7570   21.8198 H   0  0  0  0  0  0
  -25.2753   -9.5637   22.4791 H   0  0  0  0  0  0
  -23.9968   -7.4600   22.7477 H   0  0  0  0  0  0
  -21.0828   -8.8779   19.8964 H   0  0  0  0  0  0
  -22.3706  -10.9666   19.6190 H   0  0  0  0  0  0
  -21.2013   -7.6148   23.9713 H   0  0  0  0  0  0
  -21.1473   -6.0529   25.9077 H   0  0  0  0  0  0
  -22.0605   -2.7603   23.2856 H   0  0  0  0  0  0
  -22.4089  -11.9894   22.4811 H   0  0  0  0  0  0
  -21.1109  -13.1285   22.2620 H   0  0  0  0  0  0
  -24.6657  -15.8346   20.5277 H   0  0  0  0  0  0
  -26.2717  -15.6179   20.0495 H   0  0  0  0  0  0
  -26.7194  -32.5399   23.1047 H   0  0  0  0  0  0
  -25.0059  -33.9665   25.0380 H   0  0  0  0  0  0
  -22.7240  -31.2994   21.3931 H   0  0  0  0  0  0
  -23.3756  -35.9629   23.3309 H   0  0  0  0  0  0
  -24.3583  -36.8907   22.2060 H   0  0  0  0  0  0
  -23.7251  -37.6496   23.6654 H   0  0  0  0  0  0
  -26.1035  -31.5281   20.6015 H   0  0  0  0  0  0
  -26.8510  -30.8211   22.0025 H   0  0  0  0  0  0
  -28.1198  -28.9383   21.1898 H   0  0  0  0  0  0
  -25.9175  -25.8682   19.0933 H   0  0  0  0  0  0
  -23.9649  -27.2663   19.0644 H   0  0  0  0  0  0
  -23.7631  -30.5800   19.4011 H   0  0  0  0  0  0
  -22.7605  -29.2356   19.8593 H   0  0  0  0  0  0
  -25.1301  -36.1926   25.0825 H   0  0  0  0  0  0
  -20.9973  -28.3291   24.1399 H   0  0  0  0  0  0
  -20.5674  -26.2306   23.3619 H   0  0  0  0  0  0
  -21.6645  -26.7449   22.1210 H   0  0  0  0  0  0
  -19.6928  -25.6295   21.1248 H   0  0  0  0  0  0
  -19.6706  -27.3192   20.6737 H   0  0  0  0  0  0
  -17.4199  -26.6667   21.4026 H   0  0  0  0  0  0
  -18.0346  -26.0062   22.9015 H   0  0  0  0  0  0
  -19.7931  -30.7255   24.2296 H   0  0  0  0  0  0
  -17.5020  -31.6281   24.5141 H   0  0  0  0  0  0
  -15.5352  -30.3002   23.7664 H   0  0  0  0  0  0
  -15.8659  -28.0825   22.7099 H   0  0  0  0  0  0
  -24.5890  -30.7075   25.7753 H   0  0  0  0  0  0
  -24.8921  -32.2913   26.4836 H   0  0  0  0  0  0
  -25.8049  -30.8915   27.0209 H   0  0  0  0  0  0
  -26.2941  -29.6747   24.1188 H   0  0  0  0  0  0
  -27.4005  -29.7254   25.4696 H   0  0  0  0  0  0
  -27.8811  -30.4278   23.9440 H   0  0  0  0  0  0
  -27.2633  -33.3582   26.2092 H   0  0  0  0  0  0
  -28.3848  -32.6898   25.0317 H   0  0  0  0  0  0
  -28.0717  -31.8409   26.5387 H   0  0  0  0  0  0
  -28.2603  -38.0093   24.7489 H   0  0  0  0  0  0
  -28.1068  -36.2623   24.6317 H   0  0  0  0  0  0
  -27.2293  -37.1480   25.8866 H   0  0  0  0  0  0
  -20.9353  -29.8757   21.6856 H   0  0  0  0  0  0
  -26.0188  -38.2849   24.1381 H   0  0  0  0  0  0
  -28.4455  -19.7807   19.7528 H   0  0  0  0  0  0
  -31.2607  -22.4255   21.6380 H   0  0  0  0  0  0
  -28.2865  -17.5475   20.6905 H   0  0  0  0  0  0
  -28.4933  -15.5749   20.5747 H   0  0  0  0  0  0
  -30.2601  -17.6276   25.4683 H   0  0  0  0  0  0
  -29.6831  -18.6691   24.1777 H   0  0  0  0  0  0
  -31.3074  -18.8880   24.8423 H   0  0  0  0  0  0
  -26.9639  -24.1792   18.4805 H   0  0  0  0  0  0
  -28.5168  -23.9593   17.7106 H   0  0  0  0  0  0
  -27.7537  -25.5288   17.6284 H   0  0  0  0  0  0
  -31.8411  -16.5071   24.0226 H   0  0  0  0  0  0
  -30.3271  -16.5047   23.1535 H   0  0  0  0  0  0
  -29.6424  -25.2815   19.1940 H   0  0  0  0  0  0
  -33.1011  -21.5462   22.7093 H   0  0  0  0  0  0
  -33.4317  -19.8913   22.8357 H   0  0  0  0  0  0
  -28.6594  -22.3946   19.1546 H   0  0  0  0  0  0
  1 25  1  0  0  0
  1 30  2  0  0  0
  1 78  1  0  0  0
  2  3  1  0  0  0
  2 25  1  0  0  0
  2 89  1  0  0  0
  2 90  1  0  0  0
  3  4  1  0  0  0
  3 91  1  0  0  0
  3 92  1  0  0  0
  4  5  1  0  0  0
  4 93  1  0  0  0
  4 94  1  0  0  0
  5  6  1  0  0  0
  5 26  1  0  0  0
  5 95  1  0  0  0
  6 25  1  0  0  0
  6 96  1  0  0  0
  6 97  1  0  0  0
  7  8  2  0  0  0
  7 26  1  0  0  0
  7 29  1  0  0  0
  8  9  1  0  0  0
  8 22  1  0  0  0
  9 10  1  0  0  0
  9 27  2  0  0  0
 10 11  2  0  0  0
 10 15  1  0  0  0
 11 12  1  0  0  0
 11 98  1  0  0  0
 12 13  2  0  0  0
 12 99  1  0  0  0
 13 14  1  0  0  0
 13 31  1  0  0  0
 14 15  2  0  0  0
 14100  1  0  0  0
 15101  1  0  0  0
 16 17  2  0  0  0
 16 21  1  0  0  0
 16 31  1  0  0  0
 17 18  1  0  0  0
 17102  1  0  0  0
 18 19  2  0  0  0
 18103  1  0  0  0
 19 20  1  0  0  0
 19 24  1  0  0  0
 20 21  2  0  0  0
 20104  1  0  0  0
 21 23  1  0  0  0
 22 28  1  0  0  0
 22 32  2  0  0  0
 26 27  1  0  0  0
 28105  1  0  0  0
 28106  1  0  0  0
 29107  1  0  0  0
 29108  1  0  0  0
 33 34  1  0  0  0
 33 66  1  0  0  0
 33 70  2  0  0  0
 34 36  1  0  0  0
 34 59  1  0  0  0
 34109  1  0  0  0
 35 44  2  0  0  0
 35 45  1  0  0  0
 35 68  1  0  0  0
 36 56  1  0  0  0
 36110  1  0  0  0
 37 39  1  0  0  0
 37 47  1  0  0  0
 37 66  1  0  0  0
 37111  1  0  0  0
 38 43  2  0  0  0
 38 46  1  0  0  0
 38 47  1  0  0  0
 39 64  1  0  0  0
 39 67  2  0  0  0
 40 52  1  0  0  0
 40 53  2  0  0  0
 40 58  1  0  0  0
 41112  1  0  0  0
 41113  1  0  0  0
 41114  1  0  0  0
 41 48  1  0  0  0
 42 43  1  0  0  0
 42 66  1  0  0  0
 42115  1  0  0  0
 42116  1  0  0  0
 43 44  1  0  0  0
 44117  1  0  0  0
 45 46  2  0  0  0
 45118  1  0  0  0
 46119  1  0  0  0
 47120  1  0  0  0
 47121  1  0  0  0
 48 56  1  0  0  0
 48 65  1  0  0  0
 48122  1  0  0  0
 49 50  1  0  0  0
 49 53  1  0  0  0
 49 64  1  0  0  0
 49123  1  0  0  0
 50 51  1  0  0  0
 50124  1  0  0  0
 50125  1  0  0  0
 51 52  1  0  0  0
 51126  1  0  0  0
 51127  1  0  0  0
 52128  1  0  0  0
 52129  1  0  0  0
 53 54  1  0  0  0
 54 55  2  0  0  0
 54130  1  0  0  0
 55 57  1  0  0  0
 55131  1  0  0  0
 56 69  2  0  0  0
 57 58  2  0  0  0
 57132  1  0  0  0
 58133  1  0  0  0
 59 60  1  0  0  0
 59 61  1  0  0  0
 59 62  1  0  0  0
 60134  1  0  0  0
 60135  1  0  0  0
 60136  1  0  0  0
 61137  1  0  0  0
 61138  1  0  0  0
 61139  1  0  0  0
 62140  1  0  0  0
 62141  1  0  0  0
 62142  1  0  0  0
 63 65  1  0  0  0
 63143  1  0  0  0
 63144  1  0  0  0
 63145  1  0  0  0
 64146  1  0  0  0
 65147  1  0  0  0
 68 84  1  0  0  0
 71 73  2  0  0  0
 71 75  1  0  0  0
 71148  1  0  0  0
 72 75  2  0  0  0
 72 76  1  0  0  0
 72149  1  0  0  0
 73 74  1  0  0  0
 73 77  1  0  0  0
 74 76  2  0  0  0
 74 79  1  0  0  0
 75 86  1  0  0  0
 76 85  1  0  0  0
 77 78  2  0  0  0
 77150  1  0  0  0
 78151  1  0  0  0
 79 83  1  0  0  0
 79 87  2  0  0  0
 80 84  1  0  0  0
 80 86  1  0  0  0
 80 88  2  0  0  0
 81 83  1  0  0  0
 81152  1  0  0  0
 81153  1  0  0  0
 81154  1  0  0  0
 82155  1  0  0  0
 82156  1  0  0  0
 82157  1  0  0  0
 82 84  1  0  0  0
 83158  1  0  0  0
 83159  1  0  0  0
 84160  1  0  0  0
 85161  1  0  0  0
 85162  1  0  0  0
 86163  1  0  0  0
M  ISO  4   1 100  68 101  78 100  84 101
M  END
> <chiral flag>
0

> <version>
0

> <s_m_source_file>
/data/baiqing/PycharmProjects/Reinvent-master-3.2/result/LINK_invent/BTK/process_docking_weight1_custom_product_contain_oxygen_bond_distance_aromatic_linkinvent_7_9_3/rearranged_h_0162.sdf

> <i_m_source_file_index>
80

> <r_mmod_Potential_Energy-OPLS-2005>
541.258666992188

> <r_mmod_Stretch_Energy-OPLS-2005>
145.20231628418

> <r_mmod_Bend_Energy-OPLS-2005>
326.204437255859

> <r_mmod_Torsional_Energy-OPLS-2005>
278.461822509766

> <r_mmod_Improper_Torsional_Energy-OPLS-2005>
11.4254064559937

> <r_mmod_Van_der_Waal_Energy-OPLS-2005>
148.194259643555

> <r_mmod_Electrostatic_Energy-OPLS-2005>
-212.164123535156

> <r_mmod_Solvation_Energy-OPLS-2005>
-258.091705322266

> <b_mmod_Minimization_Converged-OPLS-2005>
0

> <r_mmod_RMS_Derivative-OPLS-2005>
3.27753090858459

$$$$
80
                    3D
 Structure written by MMmdl.
152160  0  0  1  0            999 V2000
  -30.5828  -14.7825   20.4683 C   0  0  0  0  0  0
  -30.4383  -12.4755   19.4974 C   0  0  0  0  0  0
  -29.5251  -12.5371   18.2510 C   0  0  0  0  0  0
  -28.0510  -12.3454   18.6553 C   0  0  0  0  0  0
  -27.6484  -13.2341   19.8638 C   0  0  2  0  0  0
  -28.6867  -13.1571   21.0058 C   0  0  0  0  0  0
  -25.2535  -13.8194   20.5702 C   0  0  0  0  0  0
  -24.1819  -13.0422   20.9177 C   0  0  0  0  0  0
  -24.6417  -11.6906   20.8712 C   0  0  0  0  0  0
  -23.9091  -10.4277   21.0384 C   0  0  0  0  0  0
  -24.3640   -9.4195   21.9170 C   0  0  0  0  0  0
  -23.6298   -8.2242   22.0752 C   0  0  0  0  0  0
  -22.4281   -8.0274   21.3542 C   0  0  0  0  0  0
  -21.9926   -9.0243   20.4645 C   0  0  0  0  0  0
  -22.7259  -10.2117   20.3037 C   0  0  0  0  0  0
  -21.6857   -6.0731   22.5272 C   0  0  0  0  0  0
  -21.4021   -6.5635   23.8210 C   0  0  0  0  0  0
  -21.3661   -5.6784   24.9177 C   0  0  0  0  0  0
  -21.6060   -4.3044   24.7224 C   0  0  0  0  0  0
  -21.8814   -3.8137   23.4337 C   0  0  0  0  0  0
  -21.9196   -4.6958   22.3402 C   0  0  0  0  0  0
  -22.7843  -13.5206   21.1843 C   0  0  0  0  0  0
  -22.1654   -4.2141   21.0976 F   0  0  0  0  0  0
  -21.5639   -3.4528   25.7741 F   0  0  0  0  0  0
  -29.9926  -13.5317   20.4443 N   0  0  0  0  0  0
  -26.2967  -12.9408   20.3303 N   0  0  0  0  0  0
  -25.9349  -11.6533   20.5722 N   0  0  0  0  0  0
  -22.0506  -12.8186   22.0404 N   0  0  0  0  0  0
  -25.4248  -15.1930   20.4163 N   0  0  0  0  0  0
  -31.7363  -14.9056   20.0414 O   0  0  0  0  0  0
  -21.6635   -6.8877   21.4237 O   0  0  0  0  0  0
  -22.3522  -14.5503   20.6689 O   0  0  0  0  0  0
  -24.6377  -31.8513   23.1952 C   0  0  0  0  0  0
  -25.9179  -32.4723   23.8323 C   0  0  1  0  0  0
  -27.2204  -27.2045   20.1433 C   0  0  0  0  0  0
  -25.5952  -33.8528   24.2231 N   0  0  0  0  0  0
  -23.4364  -30.4743   21.5383 C   0  0  2  0  0  0
  -24.8861  -28.9114   20.1103 C   0  0  0  0  0  0
  -22.7533  -29.4594   22.4885 C   0  0  0  0  0  0
  -18.0302  -28.1381   22.8483 C   0  0  0  0  0  0
  -24.1487  -36.7271   23.2646 C   0  0  0  0  0  0
  -25.9887  -30.7418   21.3894 C   0  0  0  0  0  0
  -26.0576  -29.3594   20.7335 C   0  0  0  0  0  0
  -27.2228  -28.5169   20.7440 C   0  0  0  0  0  0
  -26.0351  -26.8579   19.4540 C   0  0  0  0  0  0
  -24.8816  -27.6690   19.4592 C   0  0  0  0  0  0
  -23.6589  -29.8057   20.1564 C   0  0  0  0  0  0
  -25.4116  -36.3051   24.0324 C   0  0  1  0  0  0
  -20.5913  -28.3715   23.1229 C   0  0  2  0  0  0
  -20.6784  -26.9420   22.5391 C   0  0  0  0  0  0
  -19.5748  -26.6378   21.5206 C   0  0  0  0  0  0
  -18.1938  -26.7923   22.1626 C   0  0  0  0  0  0
  -19.1556  -28.8860   23.2857 C   0  0  0  0  0  0
  -18.9476  -30.1467   23.8872 C   0  0  0  0  0  0
  -17.6468  -30.6575   24.0566 C   0  0  0  0  0  0
  -25.9061  -34.9417   23.5076 C   0  0  0  0  0  0
  -16.5361  -29.9069   23.6339 C   0  0  0  0  0  0
  -16.7289  -28.6488   23.0353 C   0  0  0  0  0  0
  -26.4514  -31.6570   25.0742 C   0  0  0  0  0  0
  -25.3711  -31.3760   26.1446 C   0  0  0  0  0  0
  -27.0393  -30.2967   24.6321 C   0  0  0  0  0  0
  -27.6050  -32.4337   25.7522 C   0  0  0  0  0  0
  -27.5573  -37.1794   24.8464 C   0  0  0  0  0  0
  -21.4234  -29.3051   22.3604 N   0  0  0  0  0  0
  -26.4284  -37.3756   23.9401 N   0  0  0  0  0  0
  -24.7065  -31.0436   22.0955 N   0  0  0  0  0  0
  -23.4193  -28.8147   23.3024 O   0  0  0  0  0  0
  -28.2961  -26.2650   20.2103 O   0  0  0  0  0  0
  -26.5646  -34.8903   22.4650 O   0  0  0  0  0  0
  -23.5506  -32.1358   23.7207 O   0  0  0  0  0  0
  -29.4538  -17.5481   19.1064 C   0  0  0  0  0  0
  -29.2327  -18.9737   19.0684 C   0  0  0  0  0  0
  -29.3981  -19.5496   20.3149 C   0  0  0  0  0  0
  -29.7524  -17.2141   20.4024 C   0  0  0  0  0  0
  -28.0845  -24.8282   20.2055 C   0  0  0  0  0  0
  -29.4337  -20.9840   20.9142 C   0  0  0  0  0  0
  -28.9970  -23.7771   20.3813 C   0  0  0  0  0  0
  -28.6433  -22.2391   20.2349 C   0  0  0  0  0  0
  -30.4572  -24.0803   20.6728 C   0  0  0  0  0  0
  -30.0927  -21.1397   21.9894 N   0  0  0  0  0  0
  -28.9261  -19.6555   17.8874 N   0  0  0  0  0  0
  -29.8449  -15.8888   20.8965 N   0  0  0  0  0  0
  -27.6645  -21.9555   19.5371 O   0  0  0  0  0  0
  -29.6990  -18.4235   21.1541 O   0  0  0  0  0  0
  -31.4840  -12.5966   19.2097 H   0  0  0  0  0  0
  -30.3744  -11.4911   19.9623 H   0  0  0  0  0  0
  -29.8188  -11.7774   17.5256 H   0  0  0  0  0  0
  -29.6499  -13.4987   17.7503 H   0  0  0  0  0  0
  -27.9162  -11.2945   18.9100 H   0  0  0  0  0  0
  -27.3920  -12.5376   17.8075 H   0  0  0  0  0  0
  -27.6466  -14.2621   19.5000 H   0  0  0  0  0  0
  -28.7246  -12.1479   21.4190 H   0  0  0  0  0  0
  -28.4037  -13.8076   21.8335 H   0  0  0  0  0  0
  -25.2795   -9.5665   22.4731 H   0  0  0  0  0  0
  -24.0006   -7.4644   22.7472 H   0  0  0  0  0  0
  -21.0859   -8.8758   19.8950 H   0  0  0  0  0  0
  -22.3719  -10.9652   19.6130 H   0  0  0  0  0  0
  -21.1997   -7.6139   23.9710 H   0  0  0  0  0  0
  -21.1503   -6.0515   25.9082 H   0  0  0  0  0  0
  -22.0592   -2.7597   23.2841 H   0  0  0  0  0  0
  -22.4126  -11.9847   22.4794 H   0  0  0  0  0  0
  -21.1114  -13.1191   22.2598 H   0  0  0  0  0  0
  -24.6627  -15.8503   20.5382 H   0  0  0  0  0  0
  -26.2752  -15.6311   20.0865 H   0  0  0  0  0  0
  -26.7256  -32.5352   23.1078 H   0  0  0  0  0  0
  -25.0122  -33.9659   25.0390 H   0  0  0  0  0  0
  -22.7373  -31.2999   21.3876 H   0  0  0  0  0  0
  -23.3743  -35.9611   23.3308 H   0  0  0  0  0  0
  -24.3591  -36.8894   22.2062 H   0  0  0  0  0  0
  -23.7239  -37.6469   23.6671 H   0  0  0  0  0  0
  -26.1435  -31.4963   20.6168 H   0  0  0  0  0  0
  -26.8599  -30.7885   22.0314 H   0  0  0  0  0  0
  -28.1139  -28.8532   21.2539 H   0  0  0  0  0  0
  -25.9698  -25.9290   18.9094 H   0  0  0  0  0  0
  -23.9918  -27.3236   18.9518 H   0  0  0  0  0  0
  -23.7883  -30.5786   19.3980 H   0  0  0  0  0  0
  -22.7752  -29.2426   19.8522 H   0  0  0  0  0  0
  -25.1299  -36.1907   25.0820 H   0  0  0  0  0  0
  -21.0033  -28.3311   24.1342 H   0  0  0  0  0  0
  -20.5669  -26.2350   23.3625 H   0  0  0  0  0  0
  -21.6651  -26.7415   22.1197 H   0  0  0  0  0  0
  -19.6904  -25.6286   21.1246 H   0  0  0  0  0  0
  -19.6664  -27.3190   20.6734 H   0  0  0  0  0  0
  -17.4211  -26.6689   21.4028 H   0  0  0  0  0  0
  -18.0322  -26.0059   22.9010 H   0  0  0  0  0  0
  -19.7951  -30.7297   24.2220 H   0  0  0  0  0  0
  -17.5013  -31.6252   24.5175 H   0  0  0  0  0  0
  -15.5356  -30.2950   23.7659 H   0  0  0  0  0  0
  -15.8705  -28.0793   22.7063 H   0  0  0  0  0  0
  -24.5886  -30.7112   25.7776 H   0  0  0  0  0  0
  -24.8909  -32.2944   26.4825 H   0  0  0  0  0  0
  -25.7999  -30.8966   27.0255 H   0  0  0  0  0  0
  -26.3025  -29.6682   24.1305 H   0  0  0  0  0  0
  -27.3980  -29.7278   25.4912 H   0  0  0  0  0  0
  -27.8939  -30.4207   23.9667 H   0  0  0  0  0  0
  -27.2635  -33.3648   26.2062 H   0  0  0  0  0  0
  -28.3873  -32.6881   25.0360 H   0  0  0  0  0  0
  -28.0703  -31.8493   26.5472 H   0  0  0  0  0  0
  -28.2587  -38.0094   24.7504 H   0  0  0  0  0  0
  -28.1068  -36.2617   24.6293 H   0  0  0  0  0  0
  -27.2297  -37.1449   25.8872 H   0  0  0  0  0  0
  -20.9436  -29.8780   21.6804 H   0  0  0  0  0  0
  -26.0157  -38.2837   24.1381 H   0  0  0  0  0  0
  -29.3746  -16.8463   18.2861 H   0  0  0  0  0  0
  -27.0527  -24.5701   20.0287 H   0  0  0  0  0  0
  -30.6719  -25.1376   20.5217 H   0  0  0  0  0  0
  -31.1138  -23.5184   20.0077 H   0  0  0  0  0  0
  -30.7101  -23.8288   21.7023 H   0  0  0  0  0  0
  -30.5130  -20.2628   22.2773 H   0  0  0  0  0  0
  -28.6704  -19.1251   17.0579 H   0  0  0  0  0  0
  -28.4430  -20.5499   17.9519 H   0  0  0  0  0  0
  -29.0887  -15.6314   21.5115 H   0  0  0  0  0  0
  1 25  1  0  0  0
  1 30  2  0  0  0
  1 82  1  0  0  0
  2  3  1  0  0  0
  2 25  1  0  0  0
  2 85  1  0  0  0
  2 86  1  0  0  0
  3  4  1  0  0  0
  3 87  1  0  0  0
  3 88  1  0  0  0
  4  5  1  0  0  0
  4 89  1  0  0  0
  4 90  1  0  0  0
  5  6  1  0  0  0
  5 26  1  0  0  0
  5 91  1  0  0  0
  6 25  1  0  0  0
  6 92  1  0  0  0
  6 93  1  0  0  0
  7  8  2  0  0  0
  7 26  1  0  0  0
  7 29  1  0  0  0
  8  9  1  0  0  0
  8 22  1  0  0  0
  9 10  1  0  0  0
  9 27  2  0  0  0
 10 11  2  0  0  0
 10 15  1  0  0  0
 11 12  1  0  0  0
 11 94  1  0  0  0
 12 13  2  0  0  0
 12 95  1  0  0  0
 13 14  1  0  0  0
 13 31  1  0  0  0
 14 15  2  0  0  0
 14 96  1  0  0  0
 15 97  1  0  0  0
 16 17  2  0  0  0
 16 21  1  0  0  0
 16 31  1  0  0  0
 17 18  1  0  0  0
 17 98  1  0  0  0
 18 19  2  0  0  0
 18 99  1  0  0  0
 19 20  1  0  0  0
 19 24  1  0  0  0
 20 21  2  0  0  0
 20100  1  0  0  0
 21 23  1  0  0  0
 22 28  1  0  0  0
 22 32  2  0  0  0
 26 27  1  0  0  0
 28101  1  0  0  0
 28102  1  0  0  0
 29103  1  0  0  0
 29104  1  0  0  0
 33 34  1  0  0  0
 33 66  1  0  0  0
 33 70  2  0  0  0
 34 36  1  0  0  0
 34 59  1  0  0  0
 34105  1  0  0  0
 35 44  2  0  0  0
 35 45  1  0  0  0
 35 68  1  0  0  0
 36 56  1  0  0  0
 36106  1  0  0  0
 37 39  1  0  0  0
 37 47  1  0  0  0
 37 66  1  0  0  0
 37107  1  0  0  0
 38 43  2  0  0  0
 38 46  1  0  0  0
 38 47  1  0  0  0
 39 64  1  0  0  0
 39 67  2  0  0  0
 40 52  1  0  0  0
 40 53  2  0  0  0
 40 58  1  0  0  0
 41108  1  0  0  0
 41109  1  0  0  0
 41110  1  0  0  0
 41 48  1  0  0  0
 42 43  1  0  0  0
 42 66  1  0  0  0
 42111  1  0  0  0
 42112  1  0  0  0
 43 44  1  0  0  0
 44113  1  0  0  0
 45 46  2  0  0  0
 45114  1  0  0  0
 46115  1  0  0  0
 47116  1  0  0  0
 47117  1  0  0  0
 48 56  1  0  0  0
 48 65  1  0  0  0
 48118  1  0  0  0
 49 50  1  0  0  0
 49 53  1  0  0  0
 49 64  1  0  0  0
 49119  1  0  0  0
 50 51  1  0  0  0
 50120  1  0  0  0
 50121  1  0  0  0
 51 52  1  0  0  0
 51122  1  0  0  0
 51123  1  0  0  0
 52124  1  0  0  0
 52125  1  0  0  0
 53 54  1  0  0  0
 54 55  2  0  0  0
 54126  1  0  0  0
 55 57  1  0  0  0
 55127  1  0  0  0
 56 69  2  0  0  0
 57 58  2  0  0  0
 57128  1  0  0  0
 58129  1  0  0  0
 59 60  1  0  0  0
 59 61  1  0  0  0
 59 62  1  0  0  0
 60130  1  0  0  0
 60131  1  0  0  0
 60132  1  0  0  0
 61133  1  0  0  0
 61134  1  0  0  0
 61135  1  0  0  0
 62136  1  0  0  0
 62137  1  0  0  0
 62138  1  0  0  0
 63 65  1  0  0  0
 63139  1  0  0  0
 63140  1  0  0  0
 63141  1  0  0  0
 64142  1  0  0  0
 65143  1  0  0  0
 68 75  1  0  0  0
 71 72  1  0  0  0
 71 74  2  0  0  0
 71144  1  0  0  0
 72 73  2  0  0  0
 72 81  1  0  0  0
 73 76  1  0  0  0
 73 84  1  0  0  0
 74 82  1  0  0  0
 74 84  1  0  0  0
 75 77  2  0  0  0
 75145  1  0  0  0
 76 78  1  0  0  0
 76 80  2  0  0  0
 77 78  1  0  0  0
 77 79  1  0  0  0
 78 83  2  0  0  0
 79146  1  0  0  0
 79147  1  0  0  0
 79148  1  0  0  0
 80149  1  0  0  0
 81150  1  0  0  0
 81151  1  0  0  0
 82152  1  0  0  0
M  ISO  4   1 100  68 101  75 101  82 100
M  END
> <chiral flag>
0

> <version>
0

> <s_m_source_file>
/data/baiqing/PycharmProjects/Reinvent-master-3.2/result/LINK_invent/BTK/process_docking_weight1_custom_product_contain_oxygen_bond_distance_aromatic_linkinvent_7_9_3/rearranged_h_0162.sdf

> <i_m_source_file_index>
81

> <r_mmod_Potential_Energy-OPLS-2005>
406.433898925781

> <r_mmod_Stretch_Energy-OPLS-2005>
169.358383178711

> <r_mmod_Bend_Energy-OPLS-2005>
190.649017333984

> <r_mmod_Torsional_Energy-OPLS-2005>
258.724975585938

> <r_mmod_Improper_Torsional_Energy-OPLS-2005>
7.60288143157959

> <r_mmod_Van_der_Waal_Energy-OPLS-2005>
118.168884277344

> <r_mmod_Electrostatic_Energy-OPLS-2005>
-221.92594909668

> <r_mmod_Solvation_Energy-OPLS-2005>
-227.687637329102

> <b_mmod_Minimization_Converged-OPLS-2005>
0

> <r_mmod_RMS_Derivative-OPLS-2005>
2.65501046180725

$$$$
81
                    3D
 Structure written by MMmdl.
162170  0  0  1  0            999 V2000
  -30.6942  -14.5497   20.4977 C   0  0  0  0  0  0
  -30.4135  -12.3305   19.4598 C   0  0  0  0  0  0
  -29.5014  -12.4871   18.2251 C   0  0  0  0  0  0
  -28.0193  -12.3580   18.6302 C   0  0  0  0  0  0
  -27.6524  -13.2235   19.8674 C   0  0  2  0  0  0
  -28.6946  -13.0797   20.9995 C   0  0  0  0  0  0
  -25.2534  -13.8197   20.5688 C   0  0  0  0  0  0
  -24.1811  -13.0447   20.9180 C   0  0  0  0  0  0
  -24.6399  -11.6925   20.8746 C   0  0  0  0  0  0
  -23.9076  -10.4303   21.0417 C   0  0  0  0  0  0
  -24.3626   -9.4218   21.9195 C   0  0  0  0  0  0
  -23.6300   -8.2255   22.0756 C   0  0  0  0  0  0
  -22.4283   -8.0288   21.3547 C   0  0  0  0  0  0
  -21.9925   -9.0264   20.4647 C   0  0  0  0  0  0
  -22.7256  -10.2140   20.3061 C   0  0  0  0  0  0
  -21.6860   -6.0737   22.5282 C   0  0  0  0  0  0
  -21.4013   -6.5637   23.8215 C   0  0  0  0  0  0
  -21.3662   -5.6790   24.9181 C   0  0  0  0  0  0
  -21.6047   -4.3054   24.7234 C   0  0  0  0  0  0
  -21.8818   -3.8144   23.4356 C   0  0  0  0  0  0
  -21.9191   -4.6962   22.3408 C   0  0  0  0  0  0
  -22.7839  -13.5230   21.1856 C   0  0  0  0  0  0
  -22.1662   -4.2147   21.0987 F   0  0  0  0  0  0
  -21.5633   -3.4537   25.7746 F   0  0  0  0  0  0
  -30.0189  -13.3661   20.4311 N   0  0  0  0  0  0
  -26.2983  -12.9401   20.3363 N   0  0  0  0  0  0
  -25.9332  -11.6544   20.5794 N   0  0  0  0  0  0
  -22.0486  -12.8207   22.0407 N   0  0  0  0  0  0
  -25.4203  -15.1914   20.4090 N   0  0  0  0  0  0
  -31.8615  -14.6518   20.1166 O   0  0  0  0  0  0
  -21.6645   -6.8886   21.4247 O   0  0  0  0  0  0
  -22.3509  -14.5544   20.6724 O   0  0  0  0  0  0
  -24.6187  -31.8638   23.2071 C   0  0  0  0  0  0
  -25.9057  -32.4797   23.8376 C   0  0  1  0  0  0
  -27.2254  -27.3676   20.1031 C   0  0  0  0  0  0
  -25.5910  -33.8598   24.2315 N   0  0  0  0  0  0
  -23.4106  -30.4893   21.5479 C   0  0  2  0  0  0
  -24.8554  -28.9522   20.1114 C   0  0  0  0  0  0
  -22.7436  -29.4629   22.4938 C   0  0  0  0  0  0
  -18.0288  -28.1381   22.8489 C   0  0  0  0  0  0
  -24.1489  -36.7286   23.2642 C   0  0  0  0  0  0
  -25.9477  -30.8073   21.3731 C   0  0  0  0  0  0
  -26.0200  -29.4384   20.7162 C   0  0  0  0  0  0
  -27.2041  -28.6545   20.7107 C   0  0  0  0  0  0
  -26.0412  -26.9318   19.4595 C   0  0  0  0  0  0
  -24.8645  -27.7021   19.4774 C   0  0  0  0  0  0
  -23.6224  -29.8274   20.1606 C   0  0  0  0  0  0
  -25.4114  -36.3081   24.0339 C   0  0  1  0  0  0
  -20.5884  -28.3664   23.1296 C   0  0  2  0  0  0
  -20.6764  -26.9395   22.5404 C   0  0  0  0  0  0
  -19.5736  -26.6390   21.5199 C   0  0  0  0  0  0
  -18.1928  -26.7923   22.1628 C   0  0  0  0  0  0
  -19.1545  -28.8840   23.2892 C   0  0  0  0  0  0
  -18.9473  -30.1453   23.8892 C   0  0  0  0  0  0
  -17.6469  -30.6582   24.0580 C   0  0  0  0  0  0
  -25.9039  -34.9452   23.5118 C   0  0  0  0  0  0
  -16.5361  -29.9081   23.6341 C   0  0  0  0  0  0
  -16.7280  -28.6504   23.0352 C   0  0  0  0  0  0
  -26.4467  -31.6583   25.0717 C   0  0  0  0  0  0
  -25.3734  -31.3726   26.1473 C   0  0  0  0  0  0
  -27.0305  -30.3016   24.6123 C   0  0  0  0  0  0
  -27.6025  -32.4311   25.7485 C   0  0  0  0  0  0
  -27.5578  -37.1808   24.8472 C   0  0  0  0  0  0
  -21.4155  -29.3034   22.3684 N   0  0  0  0  0  0
  -26.4290  -37.3780   23.9412 N   0  0  0  0  0  0
  -24.6776  -31.0703   22.0990 N   0  0  0  0  0  0
  -23.4188  -28.8161   23.2992 O   0  0  0  0  0  0
  -28.3710  -26.5748   20.1656 O   0  0  0  0  0  0
  -26.5604  -34.8902   22.4685 O   0  0  0  0  0  0
  -23.5367  -32.1412   23.7431 O   0  0  0  0  0  0
  -29.3777  -19.7129   22.7173 C   0  0  0  0  0  0
  -29.4357  -20.4083   21.5387 C   0  0  0  0  0  0
  -29.9055  -18.2534   21.0914 C   0  0  0  0  0  0
  -29.0411  -24.1891   20.7541 C   0  0  0  0  0  0
  -29.1230  -22.6511   20.3691 C   0  0  0  0  0  0
  -28.5312  -16.4232   23.5549 C   0  0  0  0  0  0
  -26.9838  -15.3342   25.2666 C   0  0  0  0  0  0
  -30.4108  -17.0280   20.3136 C   0  0  0  0  0  0
  -28.2930  -25.1569   19.7888 C   0  0  0  0  0  0
  -28.4349  -15.5452   24.8021 C   0  0  0  0  0  0
  -29.7685  -17.3090   23.4017 C   0  0  0  0  0  0
  -29.6750  -18.3989   22.4169 N   0  0  0  0  0  0
  -29.7404  -19.4900   20.5562 N   0  3  0  0  0  0
  -29.2665  -21.8393   21.4434 N   0  0  0  0  0  0
  -29.9703  -15.6694   20.7524 N   0  0  0  0  0  0
  -29.5344  -24.6076   21.8097 O   0  0  0  0  0  0
  -29.0620  -22.2434   19.2032 O   0  0  0  0  0  0
  -27.6695  -16.3758   22.6712 O   0  0  0  0  0  0
  -31.4635  -12.4021   19.1688 H   0  0  0  0  0  0
  -30.2948  -11.3392   19.9000 H   0  0  0  0  0  0
  -29.7492  -11.7330   17.4760 H   0  0  0  0  0  0
  -29.6760  -13.4560   17.7532 H   0  0  0  0  0  0
  -27.8281  -11.3058   18.8429 H   0  0  0  0  0  0
  -27.3761  -12.6178   17.7887 H   0  0  0  0  0  0
  -27.6730  -14.2612   19.5335 H   0  0  0  0  0  0
  -28.6755  -12.0709   21.4140 H   0  0  0  0  0  0
  -28.4594  -13.7475   21.8292 H   0  0  0  0  0  0
  -25.2777   -9.5693   22.4765 H   0  0  0  0  0  0
  -24.0010   -7.4645   22.7474 H   0  0  0  0  0  0
  -21.0859   -8.8793   19.8949 H   0  0  0  0  0  0
  -22.3732  -10.9679   19.6161 H   0  0  0  0  0  0
  -21.2003   -7.6143   23.9721 H   0  0  0  0  0  0
  -21.1485   -6.0519   25.9082 H   0  0  0  0  0  0
  -22.0591   -2.7606   23.2859 H   0  0  0  0  0  0
  -22.4094  -11.9848   22.4765 H   0  0  0  0  0  0
  -21.1104  -13.1228   22.2625 H   0  0  0  0  0  0
  -24.6679  -15.8502   20.5754 H   0  0  0  0  0  0
  -26.3020  -15.6447   20.2069 H   0  0  0  0  0  0
  -26.7113  -32.5488   23.1124 H   0  0  0  0  0  0
  -25.0091  -33.9765   25.0477 H   0  0  0  0  0  0
  -22.7012  -31.3078   21.4094 H   0  0  0  0  0  0
  -23.3739  -35.9631   23.3318 H   0  0  0  0  0  0
  -24.3580  -36.8885   22.2052 H   0  0  0  0  0  0
  -23.7236  -37.6497   23.6642 H   0  0  0  0  0  0
  -26.0788  -31.5712   20.6052 H   0  0  0  0  0  0
  -26.8279  -30.8532   22.0022 H   0  0  0  0  0  0
  -28.0970  -29.0246   21.1951 H   0  0  0  0  0  0
  -25.9854  -25.9979   18.9231 H   0  0  0  0  0  0
  -23.9743  -27.3304   18.9884 H   0  0  0  0  0  0
  -23.7399  -30.6037   19.4035 H   0  0  0  0  0  0
  -22.7431  -29.2529   19.8609 H   0  0  0  0  0  0
  -25.1292  -36.1947   25.0834 H   0  0  0  0  0  0
  -21.0018  -28.3224   24.1399 H   0  0  0  0  0  0
  -20.5641  -26.2273   23.3599 H   0  0  0  0  0  0
  -21.6641  -26.7404   22.1223 H   0  0  0  0  0  0
  -19.6889  -25.6304   21.1218 H   0  0  0  0  0  0
  -19.6677  -27.3201   20.6729 H   0  0  0  0  0  0
  -17.4203  -26.6683   21.4027 H   0  0  0  0  0  0
  -18.0339  -26.0058   22.9023 H   0  0  0  0  0  0
  -19.7952  -30.7286   24.2235 H   0  0  0  0  0  0
  -17.5029  -31.6255   24.5190 H   0  0  0  0  0  0
  -15.5363  -30.2996   23.7642 H   0  0  0  0  0  0
  -15.8688  -28.0829   22.7048 H   0  0  0  0  0  0
  -24.5899  -30.7068   25.7844 H   0  0  0  0  0  0
  -24.8942  -32.2901   26.4892 H   0  0  0  0  0  0
  -25.8100  -30.8934   27.0244 H   0  0  0  0  0  0
  -26.2870  -29.6778   24.1144 H   0  0  0  0  0  0
  -27.4031  -29.7246   25.4595 H   0  0  0  0  0  0
  -27.8726  -30.4333   23.9320 H   0  0  0  0  0  0
  -27.2624  -33.3610   26.2061 H   0  0  0  0  0  0
  -28.3838  -32.6874   25.0314 H   0  0  0  0  0  0
  -28.0677  -31.8432   26.5408 H   0  0  0  0  0  0
  -28.2614  -38.0089   24.7513 H   0  0  0  0  0  0
  -28.1061  -36.2622   24.6317 H   0  0  0  0  0  0
  -27.2303  -37.1487   25.8879 H   0  0  0  0  0  0
  -20.9291  -29.8790   21.6953 H   0  0  0  0  0  0
  -26.0166  -38.2860   24.1406 H   0  0  0  0  0  0
  -29.1758  -20.0467   23.7262 H   0  0  0  0  0  0
  -26.9499  -14.7210   26.1668 H   0  0  0  0  0  0
  -26.3876  -14.8324   24.5031 H   0  0  0  0  0  0
  -26.5012  -16.2852   25.4966 H   0  0  0  0  0  0
  -31.4992  -17.1143   20.3325 H   0  0  0  0  0  0
  -30.1019  -17.1693   19.2775 H   0  0  0  0  0  0
  -27.2737  -24.7811   19.7748 H   0  0  0  0  0  0
  -28.6952  -25.0387   18.7823 H   0  0  0  0  0  0
  -29.0234  -15.9972   25.6011 H   0  0  0  0  0  0
  -28.8937  -14.5817   24.5777 H   0  0  0  0  0  0
  -30.6247  -16.6881   23.1403 H   0  0  0  0  0  0
  -29.9998  -17.7584   24.3667 H   0  0  0  0  0  0
  -29.8814  -19.7168   19.5793 H   0  0  0  0  0  0
  -29.2692  -22.3477   22.3186 H   0  0  0  0  0  0
  -29.0009  -15.5531   21.0131 H   0  0  0  0  0  0
  1 25  1  0  0  0
  1 30  2  0  0  0
  1 85  1  0  0  0
  2  3  1  0  0  0
  2 25  1  0  0  0
  2 89  1  0  0  0
  2 90  1  0  0  0
  3  4  1  0  0  0
  3 91  1  0  0  0
  3 92  1  0  0  0
  4  5  1  0  0  0
  4 93  1  0  0  0
  4 94  1  0  0  0
  5  6  1  0  0  0
  5 26  1  0  0  0
  5 95  1  0  0  0
  6 25  1  0  0  0
  6 96  1  0  0  0
  6 97  1  0  0  0
  7  8  2  0  0  0
  7 26  1  0  0  0
  7 29  1  0  0  0
  8  9  1  0  0  0
  8 22  1  0  0  0
  9 10  1  0  0  0
  9 27  2  0  0  0
 10 11  2  0  0  0
 10 15  1  0  0  0
 11 12  1  0  0  0
 11 98  1  0  0  0
 12 13  2  0  0  0
 12 99  1  0  0  0
 13 14  1  0  0  0
 13 31  1  0  0  0
 14 15  2  0  0  0
 14100  1  0  0  0
 15101  1  0  0  0
 16 17  2  0  0  0
 16 21  1  0  0  0
 16 31  1  0  0  0
 17 18  1  0  0  0
 17102  1  0  0  0
 18 19  2  0  0  0
 18103  1  0  0  0
 19 20  1  0  0  0
 19 24  1  0  0  0
 20 21  2  0  0  0
 20104  1  0  0  0
 21 23  1  0  0  0
 22 28  1  0  0  0
 22 32  2  0  0  0
 26 27  1  0  0  0
 28105  1  0  0  0
 28106  1  0  0  0
 29107  1  0  0  0
 29108  1  0  0  0
 33 34  1  0  0  0
 33 66  1  0  0  0
 33 70  2  0  0  0
 34 36  1  0  0  0
 34 59  1  0  0  0
 34109  1  0  0  0
 35 44  2  0  0  0
 35 45  1  0  0  0
 35 68  1  0  0  0
 36 56  1  0  0  0
 36110  1  0  0  0
 37 39  1  0  0  0
 37 47  1  0  0  0
 37 66  1  0  0  0
 37111  1  0  0  0
 38 43  2  0  0  0
 38 46  1  0  0  0
 38 47  1  0  0  0
 39 64  1  0  0  0
 39 67  2  0  0  0
 40 52  1  0  0  0
 40 53  2  0  0  0
 40 58  1  0  0  0
 41112  1  0  0  0
 41113  1  0  0  0
 41114  1  0  0  0
 41 48  1  0  0  0
 42 43  1  0  0  0
 42 66  1  0  0  0
 42115  1  0  0  0
 42116  1  0  0  0
 43 44  1  0  0  0
 44117  1  0  0  0
 45 46  2  0  0  0
 45118  1  0  0  0
 46119  1  0  0  0
 47120  1  0  0  0
 47121  1  0  0  0
 48 56  1  0  0  0
 48 65  1  0  0  0
 48122  1  0  0  0
 49 50  1  0  0  0
 49 53  1  0  0  0
 49 64  1  0  0  0
 49123  1  0  0  0
 50 51  1  0  0  0
 50124  1  0  0  0
 50125  1  0  0  0
 51 52  1  0  0  0
 51126  1  0  0  0
 51127  1  0  0  0
 52128  1  0  0  0
 52129  1  0  0  0
 53 54  1  0  0  0
 54 55  2  0  0  0
 54130  1  0  0  0
 55 57  1  0  0  0
 55131  1  0  0  0
 56 69  2  0  0  0
 57 58  2  0  0  0
 57132  1  0  0  0
 58133  1  0  0  0
 59 60  1  0  0  0
 59 61  1  0  0  0
 59 62  1  0  0  0
 60134  1  0  0  0
 60135  1  0  0  0
 60136  1  0  0  0
 61137  1  0  0  0
 61138  1  0  0  0
 61139  1  0  0  0
 62140  1  0  0  0
 62141  1  0  0  0
 62142  1  0  0  0
 63 65  1  0  0  0
 63143  1  0  0  0
 63144  1  0  0  0
 63145  1  0  0  0
 64146  1  0  0  0
 65147  1  0  0  0
 68 79  1  0  0  0
 71 72  2  0  0  0
 71 82  1  0  0  0
 71148  1  0  0  0
 72 83  1  0  0  0
 72 84  1  0  0  0
 73 78  1  0  0  0
 73 82  1  0  0  0
 73 83  2  0  0  0
 74 75  1  0  0  0
 74 79  1  0  0  0
 74 86  2  0  0  0
 75 84  1  0  0  0
 75 87  2  0  0  0
 76 80  1  0  0  0
 76 81  1  0  0  0
 76 88  2  0  0  0
 77 80  1  0  0  0
 77149  1  0  0  0
 77150  1  0  0  0
 77151  1  0  0  0
 78 85  1  0  0  0
 78152  1  0  0  0
 78153  1  0  0  0
 79154  1  0  0  0
 79155  1  0  0  0
 80156  1  0  0  0
 80157  1  0  0  0
 81 82  1  0  0  0
 81158  1  0  0  0
 81159  1  0  0  0
 83160  1  0  0  0
 84161  1  0  0  0
 85162  1  0  0  0
M  CHG  1  83   1
M  ISO  4   1 100  68 101  79 101  85 100
M  END
> <chiral flag>
0

> <version>
0

> <s_m_source_file>
/data/baiqing/PycharmProjects/Reinvent-master-3.2/result/LINK_invent/BTK/process_docking_weight1_custom_product_contain_oxygen_bond_distance_aromatic_linkinvent_7_9_3/rearranged_h_0162.sdf

> <i_m_source_file_index>
82

> <r_mmod_Potential_Energy-OPLS-2005>
-251.633941650391

> <r_mmod_Stretch_Energy-OPLS-2005>
56.4938354492188

> <r_mmod_Bend_Energy-OPLS-2005>
138.527801513672

> <r_mmod_Torsional_Energy-OPLS-2005>
215.520172119141

> <r_mmod_Improper_Torsional_Energy-OPLS-2005>
7.41070508956909

> <r_mmod_Van_der_Waal_Energy-OPLS-2005>
120.045639038086

> <r_mmod_Electrostatic_Energy-OPLS-2005>
-343.507690429688

> <r_mmod_Solvation_Energy-OPLS-2005>
-476.268371582031

> <b_mmod_Minimization_Converged-OPLS-2005>
0

> <r_mmod_RMS_Derivative-OPLS-2005>
1.95156717300415

$$$$
82
                    3D
 Structure written by MMmdl.
151159  0  0  1  0            999 V2000
  -30.6678  -14.5474   20.5528 C   0  0  0  0  0  0
  -30.4270  -12.3514   19.4333 C   0  0  0  0  0  0
  -29.4986  -12.5068   18.2118 C   0  0  0  0  0  0
  -28.0223  -12.3450   18.6255 C   0  0  0  0  0  0
  -27.6535  -13.2074   19.8620 C   0  0  2  0  0  0
  -28.6948  -13.0304   20.9884 C   0  0  0  0  0  0
  -25.2562  -13.8158   20.5630 C   0  0  0  0  0  0
  -24.1816  -13.0444   20.9154 C   0  0  0  0  0  0
  -24.6360  -11.6906   20.8718 C   0  0  0  0  0  0
  -23.9038  -10.4294   21.0387 C   0  0  0  0  0  0
  -24.3595   -9.4215   21.9169 C   0  0  0  0  0  0
  -23.6276   -8.2257   22.0761 C   0  0  0  0  0  0
  -22.4266   -8.0273   21.3546 C   0  0  0  0  0  0
  -21.9891   -9.0243   20.4648 C   0  0  0  0  0  0
  -22.7210  -10.2123   20.3041 C   0  0  0  0  0  0
  -21.6852   -6.0718   22.5276 C   0  0  0  0  0  0
  -21.4013   -6.5630   23.8204 C   0  0  0  0  0  0
  -21.3661   -5.6783   24.9167 C   0  0  0  0  0  0
  -21.6054   -4.3052   24.7219 C   0  0  0  0  0  0
  -21.8822   -3.8137   23.4348 C   0  0  0  0  0  0
  -21.9197   -4.6952   22.3398 C   0  0  0  0  0  0
  -22.7846  -13.5255   21.1831 C   0  0  0  0  0  0
  -22.1662   -4.2136   21.0978 F   0  0  0  0  0  0
  -21.5639   -3.4537   25.7738 F   0  0  0  0  0  0
  -30.0170  -13.3551   20.4297 N   0  0  0  0  0  0
  -26.2971  -12.9319   20.3281 N   0  0  0  0  0  0
  -25.9283  -11.6481   20.5732 N   0  0  0  0  0  0
  -22.0476  -12.8239   22.0373 N   0  0  0  0  0  0
  -25.4327  -15.1874   20.4015 N   0  0  0  0  0  0
  -31.8122  -14.7176   20.1226 O   0  0  0  0  0  0
  -21.6640   -6.8863   21.4238 O   0  0  0  0  0  0
  -22.3539  -14.5563   20.6679 O   0  0  0  0  0  0
  -24.6196  -31.8635   23.2031 C   0  0  0  0  0  0
  -25.9068  -32.4793   23.8342 C   0  0  1  0  0  0
  -27.2377  -27.3810   20.0864 C   0  0  0  0  0  0
  -25.5913  -33.8601   24.2272 N   0  0  0  0  0  0
  -23.4104  -30.4859   21.5424 C   0  0  2  0  0  0
  -24.8558  -28.9416   20.1132 C   0  0  0  0  0  0
  -22.7433  -29.4651   22.4937 C   0  0  0  0  0  0
  -18.0273  -28.1395   22.8459 C   0  0  0  0  0  0
  -24.1498  -36.7294   23.2636 C   0  0  0  0  0  0
  -25.9469  -30.8125   21.3619 C   0  0  0  0  0  0
  -26.0209  -29.4429   20.7040 C   0  0  0  0  0  0
  -27.2120  -28.6718   20.6830 C   0  0  0  0  0  0
  -26.0428  -26.8991   19.5052 C   0  0  0  0  0  0
  -24.8645  -27.6701   19.5124 C   0  0  0  0  0  0
  -23.6198  -29.8135   20.1603 C   0  0  0  0  0  0
  -25.4129  -36.3089   24.0321 C   0  0  1  0  0  0
  -20.5879  -28.3684   23.1293 C   0  0  2  0  0  0
  -20.6778  -26.9412   22.5409 C   0  0  0  0  0  0
  -19.5761  -26.6402   21.5203 C   0  0  0  0  0  0
  -18.1927  -26.7933   22.1602 C   0  0  0  0  0  0
  -19.1531  -28.8839   23.2868 C   0  0  0  0  0  0
  -18.9470  -30.1437   23.8888 C   0  0  0  0  0  0
  -17.6479  -30.6598   24.0555 C   0  0  0  0  0  0
  -25.9056  -34.9460   23.5100 C   0  0  0  0  0  0
  -16.5352  -29.9100   23.6340 C   0  0  0  0  0  0
  -16.7264  -28.6520   23.0343 C   0  0  0  0  0  0
  -26.4466  -31.6602   25.0711 C   0  0  0  0  0  0
  -25.3694  -31.3780   26.1437 C   0  0  0  0  0  0
  -27.0305  -30.3024   24.6162 C   0  0  0  0  0  0
  -27.6028  -32.4345   25.7481 C   0  0  0  0  0  0
  -27.5581  -37.1803   24.8468 C   0  0  0  0  0  0
  -21.4158  -29.3039   22.3675 N   0  0  0  0  0  0
  -26.4302  -37.3780   23.9406 N   0  0  0  0  0  0
  -24.6775  -31.0691   22.0933 N   0  0  0  0  0  0
  -23.4180  -28.8191   23.3012 O   0  0  0  0  0  0
  -28.4127  -26.6372   20.1111 O   0  0  0  0  0  0
  -26.5628  -34.8917   22.4669 O   0  0  0  0  0  0
  -23.5379  -32.1416   23.7387 O   0  0  0  0  0  0
  -28.9188  -19.6294   19.0910 C   0  0  0  0  0  0
  -29.3167  -18.2719   19.2926 C   0  0  0  0  0  0
  -29.7848  -18.1058   20.5695 C   0  0  0  0  0  0
  -29.1536  -20.2332   20.2953 C   0  0  0  0  0  0
  -28.4742  -24.0982   20.3085 C   0  0  0  0  0  0
  -30.4117  -16.9552   21.3564 C   0  0  0  0  0  0
  -28.7360  -22.6859   19.6822 C   0  0  0  0  0  0
  -28.5431  -25.3685   19.3985 C   0  0  0  0  0  0
  -28.9034  -21.5801   20.6601 N   0  0  0  0  0  0
  -29.9452  -15.5749   21.0612 N   0  0  0  0  0  0
  -28.2321  -24.1922   21.5179 O   0  0  0  0  0  0
  -29.6690  -19.3335   21.2066 O   0  0  0  0  0  0
  -29.2599  -17.2995   18.3496 F   0  0  0  0  0  0
  -31.4688  -12.4660   19.1312 H   0  0  0  0  0  0
  -30.3491  -11.3496   19.8571 H   0  0  0  0  0  0
  -29.7562  -11.7702   17.4494 H   0  0  0  0  0  0
  -29.6461  -13.4876   17.7560 H   0  0  0  0  0  0
  -27.8566  -11.2900   18.8497 H   0  0  0  0  0  0
  -27.3670  -12.5852   17.7872 H   0  0  0  0  0  0
  -27.6851  -14.2471   19.5356 H   0  0  0  0  0  0
  -28.6911  -12.0024   21.3541 H   0  0  0  0  0  0
  -28.4434  -13.6500   21.8508 H   0  0  0  0  0  0
  -25.2738   -9.5709   22.4726 H   0  0  0  0  0  0
  -23.9996   -7.4657   22.7482 H   0  0  0  0  0  0
  -21.0830   -8.8738   19.8944 H   0  0  0  0  0  0
  -22.3659  -10.9648   19.6139 H   0  0  0  0  0  0
  -21.1993   -7.6134   23.9704 H   0  0  0  0  0  0
  -21.1485   -6.0511   25.9066 H   0  0  0  0  0  0
  -22.0601   -2.7599   23.2846 H   0  0  0  0  0  0
  -22.4085  -11.9893   22.4749 H   0  0  0  0  0  0
  -21.1091  -13.1262   22.2570 H   0  0  0  0  0  0
  -24.6707  -15.8490   20.5006 H   0  0  0  0  0  0
  -26.2800  -15.6118   20.0463 H   0  0  0  0  0  0
  -26.7125  -32.5465   23.1074 H   0  0  0  0  0  0
  -25.0063  -33.9747   25.0413 H   0  0  0  0  0  0
  -22.7023  -31.3030   21.3965 H   0  0  0  0  0  0
  -23.3753  -35.9639   23.3335 H   0  0  0  0  0  0
  -24.3576  -36.8891   22.2045 H   0  0  0  0  0  0
  -23.7271  -37.6514   23.6635 H   0  0  0  0  0  0
  -26.0758  -31.5793   20.5955 H   0  0  0  0  0  0
  -26.8292  -30.8583   21.9894 H   0  0  0  0  0  0
  -28.1159  -29.0627   21.1283 H   0  0  0  0  0  0
  -25.9853  -25.9182   19.0599 H   0  0  0  0  0  0
  -23.9645  -27.2720   19.0649 H   0  0  0  0  0  0
  -23.7252  -30.5850   19.3983 H   0  0  0  0  0  0
  -22.7436  -29.2333   19.8663 H   0  0  0  0  0  0
  -25.1305  -36.1939   25.0819 H   0  0  0  0  0  0
  -20.9953  -28.3255   24.1423 H   0  0  0  0  0  0
  -20.5718  -26.2261   23.3588 H   0  0  0  0  0  0
  -21.6636  -26.7483   22.1161 H   0  0  0  0  0  0
  -19.6938  -25.6326   21.1203 H   0  0  0  0  0  0
  -19.6717  -27.3223   20.6749 H   0  0  0  0  0  0
  -17.4206  -26.6665   21.4005 H   0  0  0  0  0  0
  -18.0316  -26.0100   22.9023 H   0  0  0  0  0  0
  -19.7949  -30.7251   24.2244 H   0  0  0  0  0  0
  -17.5045  -31.6259   24.5168 H   0  0  0  0  0  0
  -15.5354  -30.3000   23.7690 H   0  0  0  0  0  0
  -15.8658  -28.0848   22.7066 H   0  0  0  0  0  0
  -24.5874  -30.7106   25.7790 H   0  0  0  0  0  0
  -24.8851  -32.2958   26.4785 H   0  0  0  0  0  0
  -25.8000  -30.9029   27.0259 H   0  0  0  0  0  0
  -26.2873  -29.6777   24.1192 H   0  0  0  0  0  0
  -27.4010  -29.7285   25.4666 H   0  0  0  0  0  0
  -27.8725  -30.4304   23.9364 H   0  0  0  0  0  0
  -27.2635  -33.3667   26.2019 H   0  0  0  0  0  0
  -28.3852  -32.6896   25.0319 H   0  0  0  0  0  0
  -28.0666  -31.8494   26.5438 H   0  0  0  0  0  0
  -28.2604  -38.0082   24.7501 H   0  0  0  0  0  0
  -28.1063  -36.2624   24.6312 H   0  0  0  0  0  0
  -27.2284  -37.1467   25.8860 H   0  0  0  0  0  0
  -20.9315  -29.8753   21.6890 H   0  0  0  0  0  0
  -26.0187  -38.2862   24.1412 H   0  0  0  0  0  0
  -28.5167  -20.0786   18.1963 H   0  0  0  0  0  0
  -30.2417  -17.1237   22.4208 H   0  0  0  0  0  0
  -31.4946  -17.0098   21.2359 H   0  0  0  0  0  0
  -29.6276  -22.7416   19.0565 H   0  0  0  0  0  0
  -27.9031  -22.4559   19.0167 H   0  0  0  0  0  0
  -27.8618  -25.2794   18.5550 H   0  0  0  0  0  0
  -29.5389  -25.3764   18.9538 H   0  0  0  0  0  0
  -28.9557  -21.8905   21.6270 H   0  0  0  0  0  0
  -29.0042  -15.3535   21.3476 H   0  0  0  0  0  0
  1 25  1  0  0  0
  1 30  2  0  0  0
  1 80  1  0  0  0
  2  3  1  0  0  0
  2 25  1  0  0  0
  2 84  1  0  0  0
  2 85  1  0  0  0
  3  4  1  0  0  0
  3 86  1  0  0  0
  3 87  1  0  0  0
  4  5  1  0  0  0
  4 88  1  0  0  0
  4 89  1  0  0  0
  5  6  1  0  0  0
  5 26  1  0  0  0
  5 90  1  0  0  0
  6 25  1  0  0  0
  6 91  1  0  0  0
  6 92  1  0  0  0
  7  8  2  0  0  0
  7 26  1  0  0  0
  7 29  1  0  0  0
  8  9  1  0  0  0
  8 22  1  0  0  0
  9 10  1  0  0  0
  9 27  2  0  0  0
 10 11  2  0  0  0
 10 15  1  0  0  0
 11 12  1  0  0  0
 11 93  1  0  0  0
 12 13  2  0  0  0
 12 94  1  0  0  0
 13 14  1  0  0  0
 13 31  1  0  0  0
 14 15  2  0  0  0
 14 95  1  0  0  0
 15 96  1  0  0  0
 16 17  2  0  0  0
 16 21  1  0  0  0
 16 31  1  0  0  0
 17 18  1  0  0  0
 17 97  1  0  0  0
 18 19  2  0  0  0
 18 98  1  0  0  0
 19 20  1  0  0  0
 19 24  1  0  0  0
 20 21  2  0  0  0
 20 99  1  0  0  0
 21 23  1  0  0  0
 22 28  1  0  0  0
 22 32  2  0  0  0
 26 27  1  0  0  0
 28100  1  0  0  0
 28101  1  0  0  0
 29102  1  0  0  0
 29103  1  0  0  0
 33 34  1  0  0  0
 33 66  1  0  0  0
 33 70  2  0  0  0
 34 36  1  0  0  0
 34 59  1  0  0  0
 34104  1  0  0  0
 35 44  2  0  0  0
 35 45  1  0  0  0
 35 68  1  0  0  0
 36 56  1  0  0  0
 36105  1  0  0  0
 37 39  1  0  0  0
 37 47  1  0  0  0
 37 66  1  0  0  0
 37106  1  0  0  0
 38 43  2  0  0  0
 38 46  1  0  0  0
 38 47  1  0  0  0
 39 64  1  0  0  0
 39 67  2  0  0  0
 40 52  1  0  0  0
 40 53  2  0  0  0
 40 58  1  0  0  0
 41107  1  0  0  0
 41108  1  0  0  0
 41109  1  0  0  0
 41 48  1  0  0  0
 42 43  1  0  0  0
 42 66  1  0  0  0
 42110  1  0  0  0
 42111  1  0  0  0
 43 44  1  0  0  0
 44112  1  0  0  0
 45 46  2  0  0  0
 45113  1  0  0  0
 46114  1  0  0  0
 47115  1  0  0  0
 47116  1  0  0  0
 48 56  1  0  0  0
 48 65  1  0  0  0
 48117  1  0  0  0
 49 50  1  0  0  0
 49 53  1  0  0  0
 49 64  1  0  0  0
 49118  1  0  0  0
 50 51  1  0  0  0
 50119  1  0  0  0
 50120  1  0  0  0
 51 52  1  0  0  0
 51121  1  0  0  0
 51122  1  0  0  0
 52123  1  0  0  0
 52124  1  0  0  0
 53 54  1  0  0  0
 54 55  2  0  0  0
 54125  1  0  0  0
 55 57  1  0  0  0
 55126  1  0  0  0
 56 69  2  0  0  0
 57 58  2  0  0  0
 57127  1  0  0  0
 58128  1  0  0  0
 59 60  1  0  0  0
 59 61  1  0  0  0
 59 62  1  0  0  0
 60129  1  0  0  0
 60130  1  0  0  0
 60131  1  0  0  0
 61132  1  0  0  0
 61133  1  0  0  0
 61134  1  0  0  0
 62135  1  0  0  0
 62136  1  0  0  0
 62137  1  0  0  0
 63 65  1  0  0  0
 63138  1  0  0  0
 63139  1  0  0  0
 63140  1  0  0  0
 64141  1  0  0  0
 65142  1  0  0  0
 68 78  1  0  0  0
 71 72  1  0  0  0
 71 74  2  0  0  0
 71143  1  0  0  0
 72 73  2  0  0  0
 72 83  1  0  0  0
 73 76  1  0  0  0
 73 82  1  0  0  0
 74 79  1  0  0  0
 74 82  1  0  0  0
 75 77  1  0  0  0
 75 78  1  0  0  0
 75 81  2  0  0  0
 76 80  1  0  0  0
 76144  1  0  0  0
 76145  1  0  0  0
 77 79  1  0  0  0
 77146  1  0  0  0
 77147  1  0  0  0
 78148  1  0  0  0
 78149  1  0  0  0
 79150  1  0  0  0
 80151  1  0  0  0
M  ISO  4   1 100  68 101  78 101  80 100
M  END
> <chiral flag>
0

> <version>
0

> <s_m_source_file>
/data/baiqing/PycharmProjects/Reinvent-master-3.2/result/LINK_invent/BTK/process_docking_weight1_custom_product_contain_oxygen_bond_distance_aromatic_linkinvent_7_9_3/rearranged_h_0162.sdf

> <i_m_source_file_index>
83

> <r_mmod_Potential_Energy-OPLS-2005>
-103.460380554199

> <r_mmod_Stretch_Energy-OPLS-2005>
52.0419654846191

> <r_mmod_Bend_Energy-OPLS-2005>
131.776763916016

> <r_mmod_Torsional_Energy-OPLS-2005>
186.508346557617

> <r_mmod_Improper_Torsional_Energy-OPLS-2005>
3.22416925430298

> <r_mmod_Van_der_Waal_Energy-OPLS-2005>
123.275024414062

> <r_mmod_Electrostatic_Energy-OPLS-2005>
-378.614898681641

> <r_mmod_Solvation_Energy-OPLS-2005>
-245.464645385742

> <b_mmod_Minimization_Converged-OPLS-2005>
0

> <r_mmod_RMS_Derivative-OPLS-2005>
3.09305214881897

$$$$
83
                    3D
 Structure written by MMmdl.
151159  0  0  1  0            999 V2000
  -30.6745  -14.6424   20.4882 C   0  0  0  0  0  0
  -30.4171  -12.3880   19.4732 C   0  0  0  0  0  0
  -29.5034  -12.4977   18.2347 C   0  0  0  0  0  0
  -28.0281  -12.3368   18.6449 C   0  0  0  0  0  0
  -27.6450  -13.2311   19.8546 C   0  0  2  0  0  0
  -28.6858  -13.1429   20.9897 C   0  0  0  0  0  0
  -25.2521  -13.8214   20.5703 C   0  0  0  0  0  0
  -24.1800  -13.0445   20.9169 C   0  0  0  0  0  0
  -24.6395  -11.6925   20.8722 C   0  0  0  0  0  0
  -23.9079  -10.4304   21.0398 C   0  0  0  0  0  0
  -24.3631   -9.4226   21.9183 C   0  0  0  0  0  0
  -23.6304   -8.2259   22.0764 C   0  0  0  0  0  0
  -22.4289   -8.0292   21.3546 C   0  0  0  0  0  0
  -21.9922   -9.0265   20.4652 C   0  0  0  0  0  0
  -22.7252  -10.2140   20.3053 C   0  0  0  0  0  0
  -21.6860   -6.0744   22.5279 C   0  0  0  0  0  0
  -21.4014   -6.5640   23.8212 C   0  0  0  0  0  0
  -21.3658   -5.6794   24.9173 C   0  0  0  0  0  0
  -21.6038   -4.3061   24.7220 C   0  0  0  0  0  0
  -21.8821   -3.8155   23.4344 C   0  0  0  0  0  0
  -21.9196   -4.6973   22.3401 C   0  0  0  0  0  0
  -22.7826  -13.5225   21.1856 C   0  0  0  0  0  0
  -22.1664   -4.2161   21.0977 F   0  0  0  0  0  0
  -21.5633   -3.4549   25.7730 F   0  0  0  0  0  0
  -30.0065  -13.4451   20.4239 N   0  0  0  0  0  0
  -26.2952  -12.9421   20.3307 N   0  0  0  0  0  0
  -25.9326  -11.6556   20.5749 N   0  0  0  0  0  0
  -22.0479  -12.8200   22.0410 N   0  0  0  0  0  0
  -25.4229  -15.1939   20.4210 N   0  0  0  0  0  0
  -31.8464  -14.6841   20.1041 O   0  0  0  0  0  0
  -21.6644   -6.8893   21.4247 O   0  0  0  0  0  0
  -22.3503  -14.5534   20.6726 O   0  0  0  0  0  0
  -24.6246  -31.8591   23.2030 C   0  0  0  0  0  0
  -25.9096  -32.4776   23.8360 C   0  0  1  0  0  0
  -27.2197  -27.3325   20.1211 C   0  0  0  0  0  0
  -25.5904  -33.8581   24.2272 N   0  0  0  0  0  0
  -23.4182  -30.4824   21.5446 C   0  0  2  0  0  0
  -24.8668  -28.9407   20.1074 C   0  0  0  0  0  0
  -22.7462  -29.4616   22.4934 C   0  0  0  0  0  0
  -18.0263  -28.1405   22.8506 C   0  0  0  0  0  0
  -24.1487  -36.7287   23.2644 C   0  0  0  0  0  0
  -25.9556  -30.7972   21.3697 C   0  0  0  0  0  0
  -26.0355  -29.4249   20.7133 C   0  0  0  0  0  0
  -27.2193  -28.6298   20.7157 C   0  0  0  0  0  0
  -26.0375  -26.8949   19.4917 C   0  0  0  0  0  0
  -24.8685  -27.6807   19.4874 C   0  0  0  0  0  0
  -23.6325  -29.8178   20.1589 C   0  0  0  0  0  0
  -25.4114  -36.3084   24.0331 C   0  0  1  0  0  0
  -20.5863  -28.3692   23.1294 C   0  0  2  0  0  0
  -20.6746  -26.9413   22.5426 C   0  0  0  0  0  0
  -19.5720  -26.6408   21.5221 C   0  0  0  0  0  0
  -18.1896  -26.7953   22.1630 C   0  0  0  0  0  0
  -19.1520  -28.8865   23.2896 C   0  0  0  0  0  0
  -18.9451  -30.1473   23.8912 C   0  0  0  0  0  0
  -17.6453  -30.6605   24.0592 C   0  0  0  0  0  0
  -25.9056  -34.9453   23.5106 C   0  0  0  0  0  0
  -16.5343  -29.9111   23.6350 C   0  0  0  0  0  0
  -16.7258  -28.6530   23.0373 C   0  0  0  0  0  0
  -26.4483  -31.6595   25.0733 C   0  0  0  0  0  0
  -25.3725  -31.3700   26.1457 C   0  0  0  0  0  0
  -27.0325  -30.3028   24.6188 C   0  0  0  0  0  0
  -27.6063  -32.4323   25.7484 C   0  0  0  0  0  0
  -27.5576  -37.1791   24.8464 C   0  0  0  0  0  0
  -21.4169  -29.3046   22.3686 N   0  0  0  0  0  0
  -26.4277  -37.3788   23.9432 N   0  0  0  0  0  0
  -24.6852  -31.0620   22.0972 N   0  0  0  0  0  0
  -23.4189  -28.8166   23.3017 O   0  0  0  0  0  0
  -28.2673  -26.4135   20.1991 O   0  0  0  0  0  0
  -26.5650  -34.8923   22.4686 O   0  0  0  0  0  0
  -23.5410  -32.1373   23.7370 O   0  0  0  0  0  0
  -29.7170  -20.3100   19.1253 C   0  0  0  0  0  0
  -29.2888  -19.2494   21.0691 C   0  0  0  0  0  0
  -29.2673  -20.5439   20.3915 C   0  0  0  0  0  0
  -29.7748  -18.3177   20.1551 C   0  0  0  0  0  0
  -30.1613  -16.8630   20.0656 C   0  0  0  0  0  0
  -28.1217  -25.4881   21.2408 C   0  0  0  0  0  0
  -28.3379  -24.1304   21.3822 C   0  0  0  0  0  0
  -28.8439  -23.1234   20.4016 C   0  0  0  0  0  0
  -28.9085  -18.9250   22.4966 C   0  0  0  0  0  0
  -29.9353  -15.8188   20.8182 N   0  0  0  0  0  0
  -28.8683  -21.8490   20.9269 N   0  0  0  0  0  0
  -29.2060  -23.3761   19.2513 O   0  0  0  0  0  0
  -30.0244  -18.9845   18.9771 O   0  0  0  0  0  0
  -28.0334  -23.6366   22.5975 O   0  0  0  0  0  0
  -28.5340  -20.0286   23.1452 F   0  0  0  0  0  0
  -27.8991  -18.0554   22.5132 F   0  0  0  0  0  0
  -29.9517  -18.3925   23.1329 F   0  0  0  0  0  0
  -31.4635  -12.4626   19.1728 H   0  0  0  0  0  0
  -30.3146  -11.4060   19.9387 H   0  0  0  0  0  0
  -29.7723  -11.7382   17.4993 H   0  0  0  0  0  0
  -29.6486  -13.4638   17.7490 H   0  0  0  0  0  0
  -27.8727  -11.2873   18.8989 H   0  0  0  0  0  0
  -27.3737  -12.5462   17.7994 H   0  0  0  0  0  0
  -27.6530  -14.2586   19.4901 H   0  0  0  0  0  0
  -28.6884  -12.1482   21.4366 H   0  0  0  0  0  0
  -28.4342  -13.8386   21.7920 H   0  0  0  0  0  0
  -25.2785   -9.5695   22.4753 H   0  0  0  0  0  0
  -24.0023   -7.4651   22.7484 H   0  0  0  0  0  0
  -21.0863   -8.8785   19.8948 H   0  0  0  0  0  0
  -22.3730  -10.9681   19.6155 H   0  0  0  0  0  0
  -21.2002   -7.6147   23.9716 H   0  0  0  0  0  0
  -21.1475   -6.0523   25.9072 H   0  0  0  0  0  0
  -22.0600   -2.7620   23.2835 H   0  0  0  0  0  0
  -22.4130  -11.9845   22.4745 H   0  0  0  0  0  0
  -21.1098  -13.1212   22.2651 H   0  0  0  0  0  0
  -24.6654  -15.8526   20.5674 H   0  0  0  0  0  0
  -26.3013  -15.6400   20.1869 H   0  0  0  0  0  0
  -26.7169  -32.5465   23.1121 H   0  0  0  0  0  0
  -25.0008  -33.9742   25.0384 H   0  0  0  0  0  0
  -22.7134  -31.3027   21.4018 H   0  0  0  0  0  0
  -23.3761  -35.9596   23.3281 H   0  0  0  0  0  0
  -24.3570  -36.8951   22.2061 H   0  0  0  0  0  0
  -23.7232  -37.6477   23.6691 H   0  0  0  0  0  0
  -26.0771  -31.5587   20.5977 H   0  0  0  0  0  0
  -26.8390  -30.8531   21.9942 H   0  0  0  0  0  0
  -28.1113  -28.9866   21.2123 H   0  0  0  0  0  0
  -26.0117  -25.9114   19.0431 H   0  0  0  0  0  0
  -23.9702  -27.2986   19.0226 H   0  0  0  0  0  0
  -23.7509  -30.5951   19.4028 H   0  0  0  0  0  0
  -22.7522  -29.2465   19.8561 H   0  0  0  0  0  0
  -25.1293  -36.1927   25.0819 H   0  0  0  0  0  0
  -20.9943  -28.3277   24.1422 H   0  0  0  0  0  0
  -20.5620  -26.2313   23.3635 H   0  0  0  0  0  0
  -21.6620  -26.7445   22.1238 H   0  0  0  0  0  0
  -19.6883  -25.6322   21.1242 H   0  0  0  0  0  0
  -19.6664  -27.3230   20.6757 H   0  0  0  0  0  0
  -17.4176  -26.6731   21.4027 H   0  0  0  0  0  0
  -18.0277  -26.0079   22.9002 H   0  0  0  0  0  0
  -19.7922  -30.7285   24.2285 H   0  0  0  0  0  0
  -17.5006  -31.6275   24.5203 H   0  0  0  0  0  0
  -15.5346  -30.3030   23.7650 H   0  0  0  0  0  0
  -15.8654  -28.0856   22.7097 H   0  0  0  0  0  0
  -24.5971  -30.6952   25.7805 H   0  0  0  0  0  0
  -24.8803  -32.2820   26.4840 H   0  0  0  0  0  0
  -25.8055  -30.8954   27.0270 H   0  0  0  0  0  0
  -26.2892  -29.6782   24.1213 H   0  0  0  0  0  0
  -27.4026  -29.7290   25.4701 H   0  0  0  0  0  0
  -27.8751  -30.4339   23.9391 H   0  0  0  0  0  0
  -27.2735  -33.3680   26.1985 H   0  0  0  0  0  0
  -28.3886  -32.6781   25.0294 H   0  0  0  0  0  0
  -28.0690  -31.8477   26.5451 H   0  0  0  0  0  0
  -28.2571  -38.0110   24.7552 H   0  0  0  0  0  0
  -28.1089  -36.2648   24.6223 H   0  0  0  0  0  0
  -27.2289  -37.1377   25.8862 H   0  0  0  0  0  0
  -20.9329  -29.8810   21.6938 H   0  0  0  0  0  0
  -26.0145  -38.2839   24.1492 H   0  0  0  0  0  0
  -29.8846  -20.9298   18.2538 H   0  0  0  0  0  0
  -30.7684  -16.7146   19.1651 H   0  0  0  0  0  0
  -27.7435  -26.0208   22.1051 H   0  0  0  0  0  0
  -28.5422  -21.8580   21.8874 H   0  0  0  0  0  0
  -27.7010  -24.3495   23.1263 H   0  0  0  0  0  0
  1 25  1  0  0  0
  1 30  2  0  0  0
  1 80  1  0  0  0
  2  3  1  0  0  0
  2 25  1  0  0  0
  2 88  1  0  0  0
  2 89  1  0  0  0
  3  4  1  0  0  0
  3 90  1  0  0  0
  3 91  1  0  0  0
  4  5  1  0  0  0
  4 92  1  0  0  0
  4 93  1  0  0  0
  5  6  1  0  0  0
  5 26  1  0  0  0
  5 94  1  0  0  0
  6 25  1  0  0  0
  6 95  1  0  0  0
  6 96  1  0  0  0
  7  8  2  0  0  0
  7 26  1  0  0  0
  7 29  1  0  0  0
  8  9  1  0  0  0
  8 22  1  0  0  0
  9 10  1  0  0  0
  9 27  2  0  0  0
 10 11  2  0  0  0
 10 15  1  0  0  0
 11 12  1  0  0  0
 11 97  1  0  0  0
 12 13  2  0  0  0
 12 98  1  0  0  0
 13 14  1  0  0  0
 13 31  1  0  0  0
 14 15  2  0  0  0
 14 99  1  0  0  0
 15100  1  0  0  0
 16 17  2  0  0  0
 16 21  1  0  0  0
 16 31  1  0  0  0
 17 18  1  0  0  0
 17101  1  0  0  0
 18 19  2  0  0  0
 18102  1  0  0  0
 19 20  1  0  0  0
 19 24  1  0  0  0
 20 21  2  0  0  0
 20103  1  0  0  0
 21 23  1  0  0  0
 22 28  1  0  0  0
 22 32  2  0  0  0
 26 27  1  0  0  0
 28104  1  0  0  0
 28105  1  0  0  0
 29106  1  0  0  0
 29107  1  0  0  0
 33 34  1  0  0  0
 33 66  1  0  0  0
 33 70  2  0  0  0
 34 36  1  0  0  0
 34 59  1  0  0  0
 34108  1  0  0  0
 35 44  2  0  0  0
 35 45  1  0  0  0
 35 68  1  0  0  0
 36 56  1  0  0  0
 36109  1  0  0  0
 37 39  1  0  0  0
 37 47  1  0  0  0
 37 66  1  0  0  0
 37110  1  0  0  0
 38 43  2  0  0  0
 38 46  1  0  0  0
 38 47  1  0  0  0
 39 64  1  0  0  0
 39 67  2  0  0  0
 40 52  1  0  0  0
 40 53  2  0  0  0
 40 58  1  0  0  0
 41111  1  0  0  0
 41112  1  0  0  0
 41113  1  0  0  0
 41 48  1  0  0  0
 42 43  1  0  0  0
 42 66  1  0  0  0
 42114  1  0  0  0
 42115  1  0  0  0
 43 44  1  0  0  0
 44116  1  0  0  0
 45 46  2  0  0  0
 45117  1  0  0  0
 46118  1  0  0  0
 47119  1  0  0  0
 47120  1  0  0  0
 48 56  1  0  0  0
 48 65  1  0  0  0
 48121  1  0  0  0
 49 50  1  0  0  0
 49 53  1  0  0  0
 49 64  1  0  0  0
 49122  1  0  0  0
 50 51  1  0  0  0
 50123  1  0  0  0
 50124  1  0  0  0
 51 52  1  0  0  0
 51125  1  0  0  0
 51126  1  0  0  0
 52127  1  0  0  0
 52128  1  0  0  0
 53 54  1  0  0  0
 54 55  2  0  0  0
 54129  1  0  0  0
 55 57  1  0  0  0
 55130  1  0  0  0
 56 69  2  0  0  0
 57 58  2  0  0  0
 57131  1  0  0  0
 58132  1  0  0  0
 59 60  1  0  0  0
 59 61  1  0  0  0
 59 62  1  0  0  0
 60133  1  0  0  0
 60134  1  0  0  0
 60135  1  0  0  0
 61136  1  0  0  0
 61137  1  0  0  0
 61138  1  0  0  0
 62139  1  0  0  0
 62140  1  0  0  0
 62141  1  0  0  0
 63 65  1  0  0  0
 63142  1  0  0  0
 63143  1  0  0  0
 63144  1  0  0  0
 64145  1  0  0  0
 65146  1  0  0  0
 68 76  1  0  0  0
 71 73  2  0  0  0
 71 83  1  0  0  0
 71147  1  0  0  0
 72 73  1  0  0  0
 72 74  2  0  0  0
 72 79  1  0  0  0
 73 81  1  0  0  0
 74 75  1  0  0  0
 74 83  1  0  0  0
 75 80  2  0  0  0
 75148  1  0  0  0
 76 77  2  0  0  0
 76149  1  0  0  0
 77 78  1  0  0  0
 77 84  1  0  0  0
 78 81  1  0  0  0
 78 82  2  0  0  0
 79 85  1  0  0  0
 79 86  1  0  0  0
 79 87  1  0  0  0
 81150  1  0  0  0
 84151  1  0  0  0
M  ISO  4   1 100  68 101  76 101  80 100
M  END
> <chiral flag>
0

> <version>
0

> <s_m_source_file>
/data/baiqing/PycharmProjects/Reinvent-master-3.2/result/LINK_invent/BTK/process_docking_weight1_custom_product_contain_oxygen_bond_distance_aromatic_linkinvent_7_9_3/rearranged_h_0162.sdf

> <i_m_source_file_index>
84

> <r_mmod_Potential_Energy-OPLS-2005>
60.5087623596191

> <r_mmod_Stretch_Energy-OPLS-2005>
77.9952392578125

> <r_mmod_Bend_Energy-OPLS-2005>
178.743881225586

> <r_mmod_Torsional_Energy-OPLS-2005>
184.476257324219

> <r_mmod_Improper_Torsional_Energy-OPLS-2005>
4.17761373519897

> <r_mmod_Van_der_Waal_Energy-OPLS-2005>
135.897033691406

> <r_mmod_Electrostatic_Energy-OPLS-2005>
-377.063385009766

> <r_mmod_Solvation_Energy-OPLS-2005>
-199.076431274414

> <b_mmod_Minimization_Converged-OPLS-2005>
0

> <r_mmod_RMS_Derivative-OPLS-2005>
2.25117301940918

$$$$
84
                    3D
 Structure written by MMmdl.
161170  0  0  1  0            999 V2000
  -30.5856  -14.7389   20.4412 C   0  0  0  0  0  0
  -30.4381  -12.4523   19.4483 C   0  0  0  0  0  0
  -29.5045  -12.4815   18.2184 C   0  0  0  0  0  0
  -28.0338  -12.3045   18.6477 C   0  0  0  0  0  0
  -27.6382  -13.2171   19.8391 C   0  0  2  0  0  0
  -28.6883  -13.1561   20.9677 C   0  0  0  0  0  0
  -25.2527  -13.8161   20.5672 C   0  0  0  0  0  0
  -24.1802  -13.0425   20.9187 C   0  0  0  0  0  0
  -24.6377  -11.6898   20.8739 C   0  0  0  0  0  0
  -23.9053  -10.4279   21.0416 C   0  0  0  0  0  0
  -24.3609   -9.4192   21.9188 C   0  0  0  0  0  0
  -23.6271   -8.2237   22.0765 C   0  0  0  0  0  0
  -22.4253   -8.0269   21.3554 C   0  0  0  0  0  0
  -21.9892   -9.0240   20.4654 C   0  0  0  0  0  0
  -22.7230  -10.2120   20.3058 C   0  0  0  0  0  0
  -21.6851   -6.0716   22.5269 C   0  0  0  0  0  0
  -21.4007   -6.5624   23.8200 C   0  0  0  0  0  0
  -21.3652   -5.6783   24.9165 C   0  0  0  0  0  0
  -21.6051   -4.3046   24.7226 C   0  0  0  0  0  0
  -21.8822   -3.8130   23.4346 C   0  0  0  0  0  0
  -21.9192   -4.6943   22.3396 C   0  0  0  0  0  0
  -22.7836  -13.5225   21.1827 C   0  0  0  0  0  0
  -22.1664   -4.2118   21.0980 F   0  0  0  0  0  0
  -21.5629   -3.4537   25.7750 F   0  0  0  0  0  0
  -29.9768  -13.5120   20.3651 N   0  0  0  0  0  0
  -26.2920  -12.9328   20.3241 N   0  0  0  0  0  0
  -25.9305  -11.6489   20.5761 N   0  0  0  0  0  0
  -22.0493  -12.8228   22.0403 N   0  0  0  0  0  0
  -25.4231  -15.1883   20.4093 N   0  0  0  0  0  0
  -31.7971  -14.8448   20.2237 O   0  0  0  0  0  0
  -21.6634   -6.8854   21.4228 O   0  0  0  0  0  0
  -22.3521  -14.5524   20.6672 O   0  0  0  0  0  0
  -24.6289  -31.8580   23.2014 C   0  0  0  0  0  0
  -25.9108  -32.4770   23.8333 C   0  0  1  0  0  0
  -27.2088  -27.2686   20.1362 C   0  0  0  0  0  0
  -25.5906  -33.8579   24.2241 N   0  0  0  0  0  0
  -23.4228  -30.4815   21.5461 C   0  0  2  0  0  0
  -24.8683  -28.9310   20.1100 C   0  0  0  0  0  0
  -22.7470  -29.4610   22.4934 C   0  0  0  0  0  0
  -18.0288  -28.1380   22.8469 C   0  0  0  0  0  0
  -24.1486  -36.7291   23.2640 C   0  0  0  0  0  0
  -25.9690  -30.7733   21.3804 C   0  0  0  0  0  0
  -26.0421  -29.3982   20.7175 C   0  0  0  0  0  0
  -27.2198  -28.5815   20.7160 C   0  0  0  0  0  0
  -26.0157  -26.8691   19.4934 C   0  0  0  0  0  0
  -24.8602  -27.6746   19.4847 C   0  0  0  0  0  0
  -23.6369  -29.8175   20.1605 C   0  0  0  0  0  0
  -25.4107  -36.3080   24.0324 C   0  0  1  0  0  0
  -20.5880  -28.3676   23.1255 C   0  0  2  0  0  0
  -20.6769  -26.9390   22.5401 C   0  0  0  0  0  0
  -19.5753  -26.6356   21.5202 C   0  0  0  0  0  0
  -18.1917  -26.7920   22.1607 C   0  0  0  0  0  0
  -19.1552  -28.8844   23.2853 C   0  0  0  0  0  0
  -18.9476  -30.1441   23.8861 C   0  0  0  0  0  0
  -17.6479  -30.6572   24.0545 C   0  0  0  0  0  0
  -25.9051  -34.9454   23.5088 C   0  0  0  0  0  0
  -16.5365  -29.9051   23.6358 C   0  0  0  0  0  0
  -16.7276  -28.6481   23.0356 C   0  0  0  0  0  0
  -26.4478  -31.6623   25.0744 C   0  0  0  0  0  0
  -25.3682  -31.3806   26.1453 C   0  0  0  0  0  0
  -27.0338  -30.3028   24.6266 C   0  0  0  0  0  0
  -27.6015  -32.4399   25.7512 C   0  0  0  0  0  0
  -27.5580  -37.1777   24.8448 C   0  0  0  0  0  0
  -21.4189  -29.3032   22.3656 N   0  0  0  0  0  0
  -26.4282  -37.3776   23.9413 N   0  0  0  0  0  0
  -24.6928  -31.0531   22.0996 N   0  0  0  0  0  0
  -23.4182  -28.8151   23.3025 O   0  0  0  0  0  0
  -28.2837  -26.3520   20.1773 O   0  0  0  0  0  0
  -26.5645  -34.8931   22.4668 O   0  0  0  0  0  0
  -23.5437  -32.1409   23.7305 O   0  0  0  0  0  0
  -29.5345  -18.4739   20.3179 C   0  0  0  0  0  0
  -30.6580  -17.3568   22.1535 C   0  0  0  0  0  0
  -30.4627  -19.8217   22.1391 C   0  0  0  0  0  0
  -30.0058  -17.2331   20.9178 C   0  0  0  0  0  0
  -29.7422  -19.7994   20.8964 C   0  0  0  0  0  0
  -30.8638  -18.6062   22.7566 C   0  0  0  0  0  0
  -28.8006  -23.7048   20.1153 C   0  0  0  0  0  0
  -32.3387  -22.6272   23.3188 C   0  0  0  0  0  0
  -31.9613  -21.2724   23.9157 C   0  0  0  0  0  0
  -31.8250  -22.0752   21.9902 C   0  0  0  0  0  0
  -30.9054  -21.1368   22.7903 C   0  0  0  0  0  0
  -28.5982  -22.2405   20.7521 C   0  0  0  0  0  0
  -27.9696  -24.9607   20.6693 C   0  0  0  0  0  0
  -29.7642  -15.8578   20.4284 N   0  0  0  0  0  0
  -29.3484  -21.0247   20.2073 N   0  0  0  0  0  0
  -29.5862  -23.8456   19.1710 O   0  0  0  0  0  0
  -31.4856  -18.6014   23.9598 F   0  0  0  0  0  0
  -31.4750  -12.5979   19.1438 H   0  0  0  0  0  0
  -30.4018  -11.4813   19.9434 H   0  0  0  0  0  0
  -29.7859  -11.6946   17.5170 H   0  0  0  0  0  0
  -29.6213  -13.4240   17.6822 H   0  0  0  0  0  0
  -27.9056  -11.2593   18.9320 H   0  0  0  0  0  0
  -27.3666  -12.4715   17.8009 H   0  0  0  0  0  0
  -27.6275  -14.2330   19.4448 H   0  0  0  0  0  0
  -28.7350  -12.1596   21.4102 H   0  0  0  0  0  0
  -28.4323  -13.8445   21.7752 H   0  0  0  0  0  0
  -25.2760   -9.5660   22.4761 H   0  0  0  0  0  0
  -23.9967   -7.4632   22.7510 H   0  0  0  0  0  0
  -21.0813   -8.8764   19.8972 H   0  0  0  0  0  0
  -22.3687  -10.9656   19.6161 H   0  0  0  0  0  0
  -21.2001   -7.6133   23.9683 H   0  0  0  0  0  0
  -21.1472   -6.0527   25.9065 H   0  0  0  0  0  0
  -22.0613   -2.7589   23.2868 H   0  0  0  0  0  0
  -22.4111  -11.9874   22.4762 H   0  0  0  0  0  0
  -21.1115  -13.1271   22.2644 H   0  0  0  0  0  0
  -24.6526  -15.8411   20.5073 H   0  0  0  0  0  0
  -26.2711  -15.6321   20.0820 H   0  0  0  0  0  0
  -26.7177  -32.5434   23.1074 H   0  0  0  0  0  0
  -24.9988  -33.9723   25.0338 H   0  0  0  0  0  0
  -22.7205  -31.3055   21.4068 H   0  0  0  0  0  0
  -23.3767  -35.9610   23.3284 H   0  0  0  0  0  0
  -24.3564  -36.8951   22.2065 H   0  0  0  0  0  0
  -23.7229  -37.6465   23.6697 H   0  0  0  0  0  0
  -26.1067  -31.5439   20.6210 H   0  0  0  0  0  0
  -26.8455  -30.8153   22.0146 H   0  0  0  0  0  0
  -28.1157  -28.9289   21.2092 H   0  0  0  0  0  0
  -25.9538  -25.9064   19.0049 H   0  0  0  0  0  0
  -23.9641  -27.3104   19.0009 H   0  0  0  0  0  0
  -23.7487  -30.5966   19.4060 H   0  0  0  0  0  0
  -22.7545  -29.2478   19.8642 H   0  0  0  0  0  0
  -25.1291  -36.1924   25.0818 H   0  0  0  0  0  0
  -20.9972  -28.3280   24.1374 H   0  0  0  0  0  0
  -20.5653  -26.2289   23.3611 H   0  0  0  0  0  0
  -21.6626  -26.7398   22.1196 H   0  0  0  0  0  0
  -19.6909  -25.6266   21.1236 H   0  0  0  0  0  0
  -19.6705  -27.3175   20.6743 H   0  0  0  0  0  0
  -17.4184  -26.6680   21.3999 H   0  0  0  0  0  0
  -18.0287  -26.0063   22.9016 H   0  0  0  0  0  0
  -19.7976  -30.7238   24.2204 H   0  0  0  0  0  0
  -17.5060  -31.6271   24.5131 H   0  0  0  0  0  0
  -15.5364  -30.2933   23.7719 H   0  0  0  0  0  0
  -15.8678  -28.0784   22.7077 H   0  0  0  0  0  0
  -24.5860  -30.7148   25.7781 H   0  0  0  0  0  0
  -24.8860  -32.2994   26.4809 H   0  0  0  0  0  0
  -25.7963  -30.9032   27.0280 H   0  0  0  0  0  0
  -26.2958  -29.6764   24.1237 H   0  0  0  0  0  0
  -27.3932  -29.7304   25.4829 H   0  0  0  0  0  0
  -27.8869  -30.4269   23.9587 H   0  0  0  0  0  0
  -27.2590  -33.3706   26.2040 H   0  0  0  0  0  0
  -28.3820  -32.6965   25.0343 H   0  0  0  0  0  0
  -28.0682  -31.8580   26.5462 H   0  0  0  0  0  0
  -28.2548  -38.0118   24.7537 H   0  0  0  0  0  0
  -28.1121  -36.2646   24.6214 H   0  0  0  0  0  0
  -27.2297  -37.1343   25.8846 H   0  0  0  0  0  0
  -20.9355  -29.8774   21.6898 H   0  0  0  0  0  0
  -26.0169  -38.2841   24.1477 H   0  0  0  0  0  0
  -29.0098  -18.4098   19.3750 H   0  0  0  0  0  0
  -31.0030  -16.4790   22.6750 H   0  0  0  0  0  0
  -33.4039  -22.8568   23.3355 H   0  0  0  0  0  0
  -31.7329  -23.4510   23.6990 H   0  0  0  0  0  0
  -31.5658  -21.3049   24.9316 H   0  0  0  0  0  0
  -32.7967  -20.5740   23.8368 H   0  0  0  0  0  0
  -32.5979  -21.5251   21.4469 H   0  0  0  0  0  0
  -31.3251  -22.7884   21.3396 H   0  0  0  0  0  0
  -30.0141  -21.6406   23.1555 H   0  0  0  0  0  0
  -27.5366  -22.0182   20.6411 H   0  0  0  0  0  0
  -28.7243  -22.3468   21.8230 H   0  0  0  0  0  0
  -28.0915  -24.9698   21.7521 H   0  0  0  0  0  0
  -26.9179  -24.7266   20.5116 H   0  0  0  0  0  0
  -28.8023  -15.6578   20.1991 H   0  0  0  0  0  0
  -29.2784  -20.9542   19.1959 H   0  0  0  0  0  0
  1 25  1  0  0  0
  1 30  2  0  0  0
  1 84  1  0  0  0
  2  3  1  0  0  0
  2 25  1  0  0  0
  2 88  1  0  0  0
  2 89  1  0  0  0
  3  4  1  0  0  0
  3 90  1  0  0  0
  3 91  1  0  0  0
  4  5  1  0  0  0
  4 92  1  0  0  0
  4 93  1  0  0  0
  5  6  1  0  0  0
  5 26  1  0  0  0
  5 94  1  0  0  0
  6 25  1  0  0  0
  6 95  1  0  0  0
  6 96  1  0  0  0
  7  8  2  0  0  0
  7 26  1  0  0  0
  7 29  1  0  0  0
  8  9  1  0  0  0
  8 22  1  0  0  0
  9 10  1  0  0  0
  9 27  2  0  0  0
 10 11  2  0  0  0
 10 15  1  0  0  0
 11 12  1  0  0  0
 11 97  1  0  0  0
 12 13  2  0  0  0
 12 98  1  0  0  0
 13 14  1  0  0  0
 13 31  1  0  0  0
 14 15  2  0  0  0
 14 99  1  0  0  0
 15100  1  0  0  0
 16 17  2  0  0  0
 16 21  1  0  0  0
 16 31  1  0  0  0
 17 18  1  0  0  0
 17101  1  0  0  0
 18 19  2  0  0  0
 18102  1  0  0  0
 19 20  1  0  0  0
 19 24  1  0  0  0
 20 21  2  0  0  0
 20103  1  0  0  0
 21 23  1  0  0  0
 22 28  1  0  0  0
 22 32  2  0  0  0
 26 27  1  0  0  0
 28104  1  0  0  0
 28105  1  0  0  0
 29106  1  0  0  0
 29107  1  0  0  0
 33 34  1  0  0  0
 33 66  1  0  0  0
 33 70  2  0  0  0
 34 36  1  0  0  0
 34 59  1  0  0  0
 34108  1  0  0  0
 35 44  2  0  0  0
 35 45  1  0  0  0
 35 68  1  0  0  0
 36 56  1  0  0  0
 36109  1  0  0  0
 37 39  1  0  0  0
 37 47  1  0  0  0
 37 66  1  0  0  0
 37110  1  0  0  0
 38 43  2  0  0  0
 38 46  1  0  0  0
 38 47  1  0  0  0
 39 64  1  0  0  0
 39 67  2  0  0  0
 40 52  1  0  0  0
 40 53  2  0  0  0
 40 58  1  0  0  0
 41111  1  0  0  0
 41112  1  0  0  0
 41113  1  0  0  0
 41 48  1  0  0  0
 42 43  1  0  0  0
 42 66  1  0  0  0
 42114  1  0  0  0
 42115  1  0  0  0
 43 44  1  0  0  0
 44116  1  0  0  0
 45 46  2  0  0  0
 45117  1  0  0  0
 46118  1  0  0  0
 47119  1  0  0  0
 47120  1  0  0  0
 48 56  1  0  0  0
 48 65  1  0  0  0
 48121  1  0  0  0
 49 50  1  0  0  0
 49 53  1  0  0  0
 49 64  1  0  0  0
 49122  1  0  0  0
 50 51  1  0  0  0
 50123  1  0  0  0
 50124  1  0  0  0
 51 52  1  0  0  0
 51125  1  0  0  0
 51126  1  0  0  0
 52127  1  0  0  0
 52128  1  0  0  0
 53 54  1  0  0  0
 54 55  2  0  0  0
 54129  1  0  0  0
 55 57  1  0  0  0
 55130  1  0  0  0
 56 69  2  0  0  0
 57 58  2  0  0  0
 57131  1  0  0  0
 58132  1  0  0  0
 59 60  1  0  0  0
 59 61  1  0  0  0
 59 62  1  0  0  0
 60133  1  0  0  0
 60134  1  0  0  0
 60135  1  0  0  0
 61136  1  0  0  0
 61137  1  0  0  0
 61138  1  0  0  0
 62139  1  0  0  0
 62140  1  0  0  0
 62141  1  0  0  0
 63 65  1  0  0  0
 63142  1  0  0  0
 63143  1  0  0  0
 63144  1  0  0  0
 64145  1  0  0  0
 65146  1  0  0  0
 68 83  1  0  0  0
 71 74  2  0  0  0
 71 75  1  0  0  0
 71147  1  0  0  0
 72 74  1  0  0  0
 72 76  2  0  0  0
 72148  1  0  0  0
 73 75  2  0  0  0
 73 76  1  0  0  0
 73 81  1  0  0  0
 74 84  1  0  0  0
 75 85  1  0  0  0
 76 87  1  0  0  0
 77 82  1  0  0  0
 77 83  1  0  0  0
 77 86  2  0  0  0
 78 79  1  0  0  0
 78 80  1  0  0  0
 78149  1  0  0  0
 78150  1  0  0  0
 79 81  1  0  0  0
 79151  1  0  0  0
 79152  1  0  0  0
 80 81  1  0  0  0
 80153  1  0  0  0
 80154  1  0  0  0
 81155  1  0  0  0
 82 85  1  0  0  0
 82156  1  0  0  0
 82157  1  0  0  0
 83158  1  0  0  0
 83159  1  0  0  0
 84160  1  0  0  0
 85161  1  0  0  0
M  ISO  4   1 100  68 101  83 101  84 100
M  END
> <chiral flag>
0

> <version>
0

> <s_m_source_file>
/data/baiqing/PycharmProjects/Reinvent-master-3.2/result/LINK_invent/BTK/process_docking_weight1_custom_product_contain_oxygen_bond_distance_aromatic_linkinvent_7_9_3/rearranged_h_0162.sdf

> <i_m_source_file_index>
85

> <r_mmod_Potential_Energy-OPLS-2005>
351.358581542969

> <r_mmod_Stretch_Energy-OPLS-2005>
125.258010864258

> <r_mmod_Bend_Energy-OPLS-2005>
187.712295532227

> <r_mmod_Torsional_Energy-OPLS-2005>
276.936614990234

> <r_mmod_Improper_Torsional_Energy-OPLS-2005>
10.8198671340942

> <r_mmod_Van_der_Waal_Energy-OPLS-2005>
143.293930053711

> <r_mmod_Electrostatic_Energy-OPLS-2005>
-240.295776367188

> <r_mmod_Solvation_Energy-OPLS-2005>
-241.621887207031

> <b_mmod_Minimization_Converged-OPLS-2005>
0

> <r_mmod_RMS_Derivative-OPLS-2005>
3.68619179725647

$$$$
85
                    3D
 Structure written by MMmdl.
159168  0  0  1  0            999 V2000
  -30.6837  -14.4422   20.6177 C   0  0  0  0  0  0
  -30.4363  -12.3048   19.4070 C   0  0  0  0  0  0
  -29.4960  -12.5172   18.2010 C   0  0  0  0  0  0
  -28.0156  -12.3780   18.6121 C   0  0  0  0  0  0
  -27.6689  -13.1965   19.8835 C   0  0  2  0  0  0
  -28.7078  -12.9259   20.9952 C   0  0  0  0  0  0
  -25.2619  -13.8136   20.5674 C   0  0  0  0  0  0
  -24.1863  -13.0433   20.9192 C   0  0  0  0  0  0
  -24.6404  -11.6897   20.8742 C   0  0  0  0  0  0
  -23.9065  -10.4291   21.0412 C   0  0  0  0  0  0
  -24.3608   -9.4213   21.9196 C   0  0  0  0  0  0
  -23.6286   -8.2246   22.0761 C   0  0  0  0  0  0
  -22.4263   -8.0288   21.3548 C   0  0  0  0  0  0
  -21.9912   -9.0260   20.4638 C   0  0  0  0  0  0
  -22.7248  -10.2135   20.3053 C   0  0  0  0  0  0
  -21.6845   -6.0747   22.5288 C   0  0  0  0  0  0
  -21.4012   -6.5648   23.8224 C   0  0  0  0  0  0
  -21.3660   -5.6802   24.9186 C   0  0  0  0  0  0
  -21.6043   -4.3068   24.7238 C   0  0  0  0  0  0
  -21.8812   -3.8161   23.4356 C   0  0  0  0  0  0
  -21.9184   -4.6977   22.3408 C   0  0  0  0  0  0
  -22.7883  -13.5239   21.1836 C   0  0  0  0  0  0
  -22.1644   -4.2159   21.0986 F   0  0  0  0  0  0
  -21.5634   -3.4552   25.7752 F   0  0  0  0  0  0
  -30.0456  -13.2518   20.4616 N   0  0  0  0  0  0
  -26.3055  -12.9287   20.3386 N   0  0  0  0  0  0
  -25.9322  -11.6455   20.5763 N   0  0  0  0  0  0
  -22.0500  -12.8215   22.0364 N   0  0  0  0  0  0
  -25.4362  -15.1843   20.4011 N   0  0  0  0  0  0
  -31.7615  -14.7184   20.0843 O   0  0  0  0  0  0
  -21.6623   -6.8890   21.4250 O   0  0  0  0  0  0
  -22.3582  -14.5553   20.6694 O   0  0  0  0  0  0
  -24.6135  -31.8679   23.2093 C   0  0  0  0  0  0
  -25.9037  -32.4817   23.8383 C   0  0  1  0  0  0
  -27.2378  -27.4428   20.1018 C   0  0  0  0  0  0
  -25.5905  -33.8615   24.2326 N   0  0  0  0  0  0
  -23.4005  -30.4887   21.5500 C   0  0  2  0  0  0
  -24.8500  -28.9492   20.1201 C   0  0  0  0  0  0
  -22.7390  -29.4656   22.5012 C   0  0  0  0  0  0
  -18.0266  -28.1365   22.8490 C   0  0  0  0  0  0
  -24.1482  -36.7309   23.2639 C   0  0  0  0  0  0
  -25.9258  -30.8354   21.3594 C   0  0  0  0  0  0
  -26.0066  -29.4652   20.7192 C   0  0  0  0  0  0
  -27.2052  -28.7160   20.7141 C   0  0  0  0  0  0
  -26.0714  -26.9386   19.4942 C   0  0  0  0  0  0
  -24.8754  -27.6831   19.5073 C   0  0  0  0  0  0
  -23.6096  -29.8136   20.1672 C   0  0  0  0  0  0
  -25.4106  -36.3108   24.0336 C   0  0  1  0  0  0
  -20.5849  -28.3648   23.1329 C   0  0  2  0  0  0
  -20.6761  -26.9389   22.5417 C   0  0  0  0  0  0
  -19.5745  -26.6382   21.5205 C   0  0  0  0  0  0
  -18.1917  -26.7921   22.1604 C   0  0  0  0  0  0
  -19.1512  -28.8824   23.2909 C   0  0  0  0  0  0
  -18.9448  -30.1433   23.8918 C   0  0  0  0  0  0
  -17.6453  -30.6579   24.0562 C   0  0  0  0  0  0
  -25.9034  -34.9472   23.5127 C   0  0  0  0  0  0
  -16.5342  -29.9080   23.6328 C   0  0  0  0  0  0
  -16.7257  -28.6493   23.0355 C   0  0  0  0  0  0
  -26.4476  -31.6579   25.0697 C   0  0  0  0  0  0
  -25.3745  -31.3628   26.1432 C   0  0  0  0  0  0
  -27.0345  -30.3055   24.6024 C   0  0  0  0  0  0
  -27.6028  -32.4302   25.7499 C   0  0  0  0  0  0
  -27.5573  -37.1822   24.8468 C   0  0  0  0  0  0
  -21.4120  -29.3029   22.3754 N   0  0  0  0  0  0
  -26.4293  -37.3789   23.9400 N   0  0  0  0  0  0
  -24.6648  -31.0780   22.0991 N   0  0  0  0  0  0
  -23.4164  -28.8212   23.3065 O   0  0  0  0  0  0
  -28.3920  -26.6992   20.0489 O   0  0  0  0  0  0
  -26.5591  -34.8923   22.4686 O   0  0  0  0  0  0
  -23.5338  -32.1437   23.7501 O   0  0  0  0  0  0
  -30.9588  -17.5750   20.7200 C   0  0  0  0  0  0
  -28.6576  -17.3686   21.2735 C   0  0  0  0  0  0
  -29.8985  -16.7370   21.1136 C   0  0  0  0  0  0
  -29.5455  -19.3784   20.6614 C   0  0  0  0  0  0
  -28.2846  -24.4407   21.0332 C   0  0  0  0  0  0
  -28.0535  -22.5501   19.2704 C   0  0  0  0  0  0
  -30.3198  -23.0409   20.2537 C   0  0  0  0  0  0
  -28.0091  -21.2494   20.1044 C   0  0  0  0  0  0
  -30.2233  -21.7201   21.0528 C   0  0  0  0  0  0
  -28.9489  -23.6562   19.8796 C   0  0  0  0  0  0
  -28.6574  -25.9251   21.2244 C   0  0  0  0  0  0
  -30.7731  -18.8973   20.5088 N   0  0  0  0  0  0
  -28.4837  -18.6795   21.0315 N   0  0  0  0  0  0
  -29.3542  -20.7383   20.3959 N   0  0  0  0  0  0
  -30.0023  -15.3342   21.3560 N   0  0  0  0  0  0
  -27.4749  -23.8992   21.7909 O   0  0  0  0  0  0
  -31.4771  -12.4314   19.1033 H   0  0  0  0  0  0
  -30.3592  -11.2820   19.7782 H   0  0  0  0  0  0
  -29.7305  -11.8031   17.4107 H   0  0  0  0  0  0
  -29.6643  -13.5076   17.7750 H   0  0  0  0  0  0
  -27.8177  -11.3199   18.7891 H   0  0  0  0  0  0
  -27.3663  -12.6738   17.7868 H   0  0  0  0  0  0
  -27.7288  -14.2518   19.6161 H   0  0  0  0  0  0
  -28.6816  -11.8731   21.2813 H   0  0  0  0  0  0
  -28.4560  -13.4674   21.9077 H   0  0  0  0  0  0
  -25.2744   -9.5684   22.4786 H   0  0  0  0  0  0
  -23.9991   -7.4629   22.7475 H   0  0  0  0  0  0
  -21.0853   -8.8783   19.8927 H   0  0  0  0  0  0
  -22.3726  -10.9674   19.6154 H   0  0  0  0  0  0
  -21.2005   -7.6155   23.9738 H   0  0  0  0  0  0
  -21.1479   -6.0530   25.9088 H   0  0  0  0  0  0
  -22.0587   -2.7625   23.2858 H   0  0  0  0  0  0
  -22.4081  -11.9836   22.4703 H   0  0  0  0  0  0
  -21.1108  -13.1225   22.2539 H   0  0  0  0  0  0
  -24.6577  -15.8305   20.4705 H   0  0  0  0  0  0
  -26.2537  -15.5966   19.9729 H   0  0  0  0  0  0
  -26.7109  -32.5546   23.1153 H   0  0  0  0  0  0
  -25.0086  -33.9778   25.0493 H   0  0  0  0  0  0
  -22.6889  -31.3044   21.4068 H   0  0  0  0  0  0
  -23.3747  -35.9638   23.3294 H   0  0  0  0  0  0
  -24.3580  -36.8933   22.2055 H   0  0  0  0  0  0
  -23.7220  -37.6506   23.6657 H   0  0  0  0  0  0
  -26.0254  -31.5928   20.5807 H   0  0  0  0  0  0
  -26.8190  -30.9027   21.9686 H   0  0  0  0  0  0
  -28.1013  -29.1133   21.1703 H   0  0  0  0  0  0
  -26.0893  -25.9707   19.0131 H   0  0  0  0  0  0
  -23.9867  -27.2800   19.0411 H   0  0  0  0  0  0
  -23.7119  -30.5834   19.4018 H   0  0  0  0  0  0
  -22.7352  -29.2278   19.8768 H   0  0  0  0  0  0
  -25.1289  -36.1976   25.0829 H   0  0  0  0  0  0
  -20.9932  -28.3201   24.1453 H   0  0  0  0  0  0
  -20.5663  -26.2248   23.3595 H   0  0  0  0  0  0
  -21.6635  -26.7444   22.1201 H   0  0  0  0  0  0
  -19.6909  -25.6296   21.1222 H   0  0  0  0  0  0
  -19.6697  -27.3208   20.6747 H   0  0  0  0  0  0
  -17.4195  -26.6687   21.3996 H   0  0  0  0  0  0
  -18.0307  -26.0035   22.8975 H   0  0  0  0  0  0
  -19.7924  -30.7241   24.2289 H   0  0  0  0  0  0
  -17.5011  -31.6269   24.5145 H   0  0  0  0  0  0
  -15.5343  -30.2997   23.7646 H   0  0  0  0  0  0
  -15.8652  -28.0830   22.7065 H   0  0  0  0  0  0
  -24.5956  -30.6942   25.7749 H   0  0  0  0  0  0
  -24.8893  -32.2755   26.4902 H   0  0  0  0  0  0
  -25.8112  -30.8788   27.0177 H   0  0  0  0  0  0
  -26.2896  -29.6789   24.1107 H   0  0  0  0  0  0
  -27.4212  -29.7294   25.4440 H   0  0  0  0  0  0
  -27.8664  -30.4435   23.9111 H   0  0  0  0  0  0
  -27.2636  -33.3613   26.2055 H   0  0  0  0  0  0
  -28.3877  -32.6837   25.0359 H   0  0  0  0  0  0
  -28.0642  -31.8426   26.5447 H   0  0  0  0  0  0
  -28.2582  -38.0126   24.7513 H   0  0  0  0  0  0
  -28.1075  -36.2652   24.6307 H   0  0  0  0  0  0
  -27.2282  -37.1487   25.8869 H   0  0  0  0  0  0
  -20.9277  -29.8762   21.6990 H   0  0  0  0  0  0
  -26.0180  -38.2870   24.1387 H   0  0  0  0  0  0
  -31.9659  -17.2066   20.5897 H   0  0  0  0  0  0
  -27.7821  -16.8124   21.5755 H   0  0  0  0  0  0
  -27.0394  -22.9260   19.1230 H   0  0  0  0  0  0
  -28.4238  -22.3159   18.2716 H   0  0  0  0  0  0
  -30.8760  -22.8534   19.3342 H   0  0  0  0  0  0
  -30.9181  -23.7613   20.8143 H   0  0  0  0  0  0
  -27.4382  -20.5010   19.5515 H   0  0  0  0  0  0
  -27.4762  -21.4072   21.0427 H   0  0  0  0  0  0
  -29.8324  -21.9139   22.0526 H   0  0  0  0  0  0
  -31.2259  -21.3132   21.1919 H   0  0  0  0  0  0
  -29.1243  -24.4008   19.1034 H   0  0  0  0  0  0
  -29.7218  -25.9877   21.4493 H   0  0  0  0  0  0
  -28.1278  -26.3271   22.0892 H   0  0  0  0  0  0
  -29.2095  -14.9158   21.8222 H   0  0  0  0  0  0
  1 25  1  0  0  0
  1 30  2  0  0  0
  1 85  1  0  0  0
  2  3  1  0  0  0
  2 25  1  0  0  0
  2 87  1  0  0  0
  2 88  1  0  0  0
  3  4  1  0  0  0
  3 89  1  0  0  0
  3 90  1  0  0  0
  4  5  1  0  0  0
  4 91  1  0  0  0
  4 92  1  0  0  0
  5  6  1  0  0  0
  5 26  1  0  0  0
  5 93  1  0  0  0
  6 25  1  0  0  0
  6 94  1  0  0  0
  6 95  1  0  0  0
  7  8  2  0  0  0
  7 26  1  0  0  0
  7 29  1  0  0  0
  8  9  1  0  0  0
  8 22  1  0  0  0
  9 10  1  0  0  0
  9 27  2  0  0  0
 10 11  2  0  0  0
 10 15  1  0  0  0
 11 12  1  0  0  0
 11 96  1  0  0  0
 12 13  2  0  0  0
 12 97  1  0  0  0
 13 14  1  0  0  0
 13 31  1  0  0  0
 14 15  2  0  0  0
 14 98  1  0  0  0
 15 99  1  0  0  0
 16 17  2  0  0  0
 16 21  1  0  0  0
 16 31  1  0  0  0
 17 18  1  0  0  0
 17100  1  0  0  0
 18 19  2  0  0  0
 18101  1  0  0  0
 19 20  1  0  0  0
 19 24  1  0  0  0
 20 21  2  0  0  0
 20102  1  0  0  0
 21 23  1  0  0  0
 22 28  1  0  0  0
 22 32  2  0  0  0
 26 27  1  0  0  0
 28103  1  0  0  0
 28104  1  0  0  0
 29105  1  0  0  0
 29106  1  0  0  0
 33 34  1  0  0  0
 33 66  1  0  0  0
 33 70  2  0  0  0
 34 36  1  0  0  0
 34 59  1  0  0  0
 34107  1  0  0  0
 35 44  2  0  0  0
 35 45  1  0  0  0
 35 68  1  0  0  0
 36 56  1  0  0  0
 36108  1  0  0  0
 37 39  1  0  0  0
 37 47  1  0  0  0
 37 66  1  0  0  0
 37109  1  0  0  0
 38 43  2  0  0  0
 38 46  1  0  0  0
 38 47  1  0  0  0
 39 64  1  0  0  0
 39 67  2  0  0  0
 40 52  1  0  0  0
 40 53  2  0  0  0
 40 58  1  0  0  0
 41110  1  0  0  0
 41111  1  0  0  0
 41112  1  0  0  0
 41 48  1  0  0  0
 42 43  1  0  0  0
 42 66  1  0  0  0
 42113  1  0  0  0
 42114  1  0  0  0
 43 44  1  0  0  0
 44115  1  0  0  0
 45 46  2  0  0  0
 45116  1  0  0  0
 46117  1  0  0  0
 47118  1  0  0  0
 47119  1  0  0  0
 48 56  1  0  0  0
 48 65  1  0  0  0
 48120  1  0  0  0
 49 50  1  0  0  0
 49 53  1  0  0  0
 49 64  1  0  0  0
 49121  1  0  0  0
 50 51  1  0  0  0
 50122  1  0  0  0
 50123  1  0  0  0
 51 52  1  0  0  0
 51124  1  0  0  0
 51125  1  0  0  0
 52126  1  0  0  0
 52127  1  0  0  0
 53 54  1  0  0  0
 54 55  2  0  0  0
 54128  1  0  0  0
 55 57  1  0  0  0
 55129  1  0  0  0
 56 69  2  0  0  0
 57 58  2  0  0  0
 57130  1  0  0  0
 58131  1  0  0  0
 59 60  1  0  0  0
 59 61  1  0  0  0
 59 62  1  0  0  0
 60132  1  0  0  0
 60133  1  0  0  0
 60134  1  0  0  0
 61135  1  0  0  0
 61136  1  0  0  0
 61137  1  0  0  0
 62138  1  0  0  0
 62139  1  0  0  0
 62140  1  0  0  0
 63 65  1  0  0  0
 63141  1  0  0  0
 63142  1  0  0  0
 63143  1  0  0  0
 64144  1  0  0  0
 65145  1  0  0  0
 68 81  1  0  0  0
 71 73  2  0  0  0
 71 82  1  0  0  0
 71146  1  0  0  0
 72 73  1  0  0  0
 72 83  2  0  0  0
 72147  1  0  0  0
 73 85  1  0  0  0
 74 82  2  0  0  0
 74 83  1  0  0  0
 74 84  1  0  0  0
 75 81  1  0  0  0
 75 86  2  0  0  0
 75 80  1  0  0  0
 76 78  1  0  0  0
 76 80  1  0  0  0
 76148  1  0  0  0
 76149  1  0  0  0
 77 79  1  0  0  0
 77 80  1  0  0  0
 77150  1  0  0  0
 77151  1  0  0  0
 78 84  1  0  0  0
 78152  1  0  0  0
 78153  1  0  0  0
 79 84  1  0  0  0
 79154  1  0  0  0
 79155  1  0  0  0
 80156  1  0  0  0
 81157  1  0  0  0
 81158  1  0  0  0
 85159  1  0  0  0
M  ISO  4   1 100  68 101  81 101  85 100
M  END
> <chiral flag>
0

> <version>
0

> <s_m_source_file>
/data/baiqing/PycharmProjects/Reinvent-master-3.2/result/LINK_invent/BTK/process_docking_weight1_custom_product_contain_oxygen_bond_distance_aromatic_linkinvent_7_9_3/rearranged_h_0162.sdf

> <i_m_source_file_index>
86

> <r_mmod_Potential_Energy-OPLS-2005>
-581.822143554688

> <r_mmod_Stretch_Energy-OPLS-2005>
36.4254951477051

> <r_mmod_Bend_Energy-OPLS-2005>
99.8169555664062

> <r_mmod_Torsional_Energy-OPLS-2005>
281.995330810547

> <r_mmod_Improper_Torsional_Energy-OPLS-2005>
7.28909683227539

> <r_mmod_Van_der_Waal_Energy-OPLS-2005>
166.665084838867

> <r_mmod_Electrostatic_Energy-OPLS-2005>
-934.428161621094

> <r_mmod_Solvation_Energy-OPLS-2005>
-248.740646362305

> <b_mmod_Minimization_Converged-OPLS-2005>
0

> <r_mmod_RMS_Derivative-OPLS-2005>
1.16888499259949

$$$$
86
                    3D
 Structure written by MMmdl.
170178  0  0  1  0            999 V2000
  -30.5482  -14.7672   20.3939 C   0  0  0  0  0  0
  -30.4301  -12.4726   19.4723 C   0  0  0  0  0  0
  -29.5093  -12.5281   18.2312 C   0  0  0  0  0  0
  -28.0252  -12.3646   18.6229 C   0  0  0  0  0  0
  -27.6286  -13.2398   19.8459 C   0  0  2  0  0  0
  -28.6744  -13.1528   20.9805 C   0  0  0  0  0  0
  -25.2433  -13.8237   20.5658 C   0  0  0  0  0  0
  -24.1779  -13.0453   20.9253 C   0  0  0  0  0  0
  -24.6364  -11.6936   20.8734 C   0  0  0  0  0  0
  -23.9039  -10.4303   21.0365 C   0  0  0  0  0  0
  -24.3633   -9.4217   21.9106 C   0  0  0  0  0  0
  -23.6336   -8.2244   22.0697 C   0  0  0  0  0  0
  -22.4321   -8.0261   21.3489 C   0  0  0  0  0  0
  -21.9924   -9.0236   20.4614 C   0  0  0  0  0  0
  -22.7227  -10.2127   20.2995 C   0  0  0  0  0  0
  -21.6873   -6.0735   22.5269 C   0  0  0  0  0  0
  -21.4014   -6.5632   23.8206 C   0  0  0  0  0  0
  -21.3672   -5.6786   24.9170 C   0  0  0  0  0  0
  -21.6040   -4.3054   24.7206 C   0  0  0  0  0  0
  -21.8828   -3.8139   23.4335 C   0  0  0  0  0  0
  -21.9216   -4.6961   22.3389 C   0  0  0  0  0  0
  -22.7784  -13.5162   21.1954 C   0  0  0  0  0  0
  -22.1651   -4.2136   21.0961 F   0  0  0  0  0  0
  -21.5658   -3.4530   25.7709 F   0  0  0  0  0  0
  -29.9719  -13.5199   20.4053 N   0  0  0  0  0  0
  -26.2856  -12.9446   20.3240 N   0  0  0  0  0  0
  -25.9302  -11.6582   20.5746 N   0  0  0  0  0  0
  -22.0499  -12.8102   22.0532 N   0  0  0  0  0  0
  -25.4156  -15.1977   20.4049 N   0  0  0  0  0  0
  -31.7343  -14.8912   20.0768 O   0  0  0  0  0  0
  -21.6663   -6.8875   21.4222 O   0  0  0  0  0  0
  -22.3425  -14.5467   20.6848 O   0  0  0  0  0  0
  -24.6298  -31.8508   23.2040 C   0  0  0  0  0  0
  -25.9076  -32.4737   23.8383 C   0  0  1  0  0  0
  -27.1799  -27.2495   20.1095 C   0  0  0  0  0  0
  -25.5890  -33.8572   24.2287 N   0  0  0  0  0  0
  -23.4276  -30.4821   21.5380 C   0  0  2  0  0  0
  -24.8633  -28.9336   20.0873 C   0  0  0  0  0  0
  -22.7500  -29.4605   22.4854 C   0  0  0  0  0  0
  -18.0264  -28.1384   22.8479 C   0  0  0  0  0  0
  -24.1437  -36.7354   23.2656 C   0  0  0  0  0  0
  -25.9716  -30.7582   21.3814 C   0  0  0  0  0  0
  -26.0321  -29.3815   20.7163 C   0  0  0  0  0  0
  -27.1941  -28.5517   20.7141 C   0  0  0  0  0  0
  -25.9974  -26.8688   19.4425 C   0  0  0  0  0  0
  -24.8598  -27.6988   19.4199 C   0  0  0  0  0  0
  -23.6430  -29.8340   20.1430 C   0  0  0  0  0  0
  -25.4065  -36.3132   24.0354 C   0  0  1  0  0  0
  -20.5894  -28.3730   23.1250 C   0  0  2  0  0  0
  -20.6763  -26.9449   22.5411 C   0  0  0  0  0  0
  -19.5752  -26.6376   21.5215 C   0  0  0  0  0  0
  -18.1929  -26.7934   22.1604 C   0  0  0  0  0  0
  -19.1532  -28.8862   23.2870 C   0  0  0  0  0  0
  -18.9445  -30.1458   23.8901 C   0  0  0  0  0  0
  -17.6447  -30.6594   24.0566 C   0  0  0  0  0  0
  -25.9000  -34.9464   23.5133 C   0  0  0  0  0  0
  -16.5333  -29.9113   23.6303 C   0  0  0  0  0  0
  -16.7258  -28.6525   23.0341 C   0  0  0  0  0  0
  -26.4444  -31.6636   25.0811 C   0  0  0  0  0  0
  -25.3739  -31.3788   26.1613 C   0  0  0  0  0  0
  -27.0267  -30.3044   24.6323 C   0  0  0  0  0  0
  -27.5965  -32.4446   25.7594 C   0  0  0  0  0  0
  -27.5574  -37.1845   24.8460 C   0  0  0  0  0  0
  -21.4203  -29.3093   22.3634 N   0  0  0  0  0  0
  -26.4247  -37.3823   23.9438 N   0  0  0  0  0  0
  -24.6951  -31.0499   22.0994 N   0  0  0  0  0  0
  -23.4229  -28.8095   23.2897 O   0  0  0  0  0  0
  -28.2717  -26.3693   20.2071 O   0  0  0  0  0  0
  -26.5569  -34.8917   22.4697 O   0  0  0  0  0  0
  -23.5428  -32.1281   23.7344 O   0  0  0  0  0  0
  -29.8103  -19.6950   18.4362 C   0  0  0  0  0  0
  -30.3391  -17.2991   18.6041 C   0  0  0  0  0  0
  -29.1829  -18.4405   20.4254 C   0  0  0  0  0  0
  -30.3569  -18.5140   17.8775 C   0  0  0  0  0  0
  -29.2132  -19.7193   19.7220 C   0  0  0  0  0  0
  -29.7657  -17.2098   19.8923 C   0  0  0  0  0  0
  -30.9169  -17.7969   14.2859 C   0  0  0  0  0  0
  -30.9364  -18.5792   16.5283 C   0  0  0  0  0  0
  -28.8661  -22.3115   19.8232 C   0  0  0  0  0  0
  -26.0598  -22.7801   18.6695 C   0  0  0  0  0  0
  -28.2136  -23.7066   21.8209 C   0  0  0  0  0  0
  -26.4527  -23.2349   20.0946 C   0  0  0  0  0  0
  -28.3278  -25.0037   19.5885 C   0  0  0  0  0  0
  -27.9680  -23.5665   20.3049 C   0  0  2  0  0  0
  -31.8294  -19.5492   16.2701 N   0  3  0  0  0  0
  -28.6038  -20.9998   20.1989 N   0  0  0  0  0  0
  -29.7137  -15.8732   20.5449 N   0  0  0  0  0  0
  -30.5900  -16.9111   13.3176 N   0  3  0  0  0  0
  -30.5577  -17.6957   15.5804 N   0  0  0  0  0  0
  -29.8426  -22.5668   19.1144 O   0  0  0  0  0  0
  -31.4665  -12.6207   19.1689 H   0  0  0  0  0  0
  -30.4011  -11.4983   19.9650 H   0  0  0  0  0  0
  -29.8070  -11.7550   17.5205 H   0  0  0  0  0  0
  -29.6380  -13.4851   17.7201 H   0  0  0  0  0  0
  -27.8620  -11.3139   18.8559 H   0  0  0  0  0  0
  -27.3812  -12.5853   17.7714 H   0  0  0  0  0  0
  -27.6189  -14.2712   19.4900 H   0  0  0  0  0  0
  -28.7262  -12.1424   21.3947 H   0  0  0  0  0  0
  -28.4086  -13.8165   21.8077 H   0  0  0  0  0  0
  -25.2779   -9.5721   22.4666 H   0  0  0  0  0  0
  -24.0098   -7.4610   22.7395 H   0  0  0  0  0  0
  -21.0851   -8.8717   19.8905 H   0  0  0  0  0  0
  -22.3651  -10.9655   19.6113 H   0  0  0  0  0  0
  -21.1963   -7.6132   23.9709 H   0  0  0  0  0  0
  -21.1496   -6.0491   25.9072 H   0  0  0  0  0  0
  -22.0613   -2.7597   23.2820 H   0  0  0  0  0  0
  -22.4179  -11.9762   22.4849 H   0  0  0  0  0  0
  -21.1078  -13.1009   22.2797 H   0  0  0  0  0  0
  -24.6549  -15.8592   20.5091 H   0  0  0  0  0  0
  -26.2618  -15.6256   20.0490 H   0  0  0  0  0  0
  -26.7153  -32.5288   23.1126 H   0  0  0  0  0  0
  -25.0183  -33.9724   25.0536 H   0  0  0  0  0  0
  -22.7266  -31.3075   21.4033 H   0  0  0  0  0  0
  -23.3689  -35.9695   23.3286 H   0  0  0  0  0  0
  -24.3578  -36.8983   22.2085 H   0  0  0  0  0  0
  -23.7129  -37.6532   23.6671 H   0  0  0  0  0  0
  -26.1068  -31.5117   20.6037 H   0  0  0  0  0  0
  -26.8546  -30.8107   22.0082 H   0  0  0  0  0  0
  -28.0960  -28.8857   21.2097 H   0  0  0  0  0  0
  -25.9247  -25.9142   18.9456 H   0  0  0  0  0  0
  -23.9825  -27.3872   18.8704 H   0  0  0  0  0  0
  -23.7724  -30.6195   19.3975 H   0  0  0  0  0  0
  -22.7520  -29.2863   19.8253 H   0  0  0  0  0  0
  -25.1211  -36.2043   25.0839 H   0  0  0  0  0  0
  -20.9982  -28.3284   24.1385 H   0  0  0  0  0  0
  -20.5636  -26.2371   23.3651 H   0  0  0  0  0  0
  -21.6641  -26.7480   22.1238 H   0  0  0  0  0  0
  -19.6929  -25.6275   21.1305 H   0  0  0  0  0  0
  -19.6660  -27.3144   20.6720 H   0  0  0  0  0  0
  -17.4228  -26.6687   21.3982 H   0  0  0  0  0  0
  -18.0305  -26.0061   22.8970 H   0  0  0  0  0  0
  -19.7915  -30.7263   24.2314 H   0  0  0  0  0  0
  -17.4992  -31.6277   24.5179 H   0  0  0  0  0  0
  -15.5336  -30.3013   23.7631 H   0  0  0  0  0  0
  -15.8656  -28.0844   22.7057 H   0  0  0  0  0  0
  -24.5905  -30.7088   25.8077 H   0  0  0  0  0  0
  -24.8943  -32.2935   26.5107 H   0  0  0  0  0  0
  -25.8168  -30.9018   27.0374 H   0  0  0  0  0  0
  -26.2842  -29.6847   24.1286 H   0  0  0  0  0  0
  -27.3824  -29.7279   25.4876 H   0  0  0  0  0  0
  -27.8785  -30.4296   23.9639 H   0  0  0  0  0  0
  -27.2500  -33.3725   26.2183 H   0  0  0  0  0  0
  -28.3777  -32.7081   25.0457 H   0  0  0  0  0  0
  -28.0651  -31.8616   26.5526 H   0  0  0  0  0  0
  -28.2595  -38.0143   24.7528 H   0  0  0  0  0  0
  -28.1046  -36.2684   24.6217 H   0  0  0  0  0  0
  -27.2364  -37.1466   25.8881 H   0  0  0  0  0  0
  -20.9387  -29.8894   21.6922 H   0  0  0  0  0  0
  -26.0141  -38.2903   24.1427 H   0  0  0  0  0  0
  -29.8209  -20.5820   17.8200 H   0  0  0  0  0  0
  -30.7792  -16.4140   18.1619 H   0  0  0  0  0  0
  -28.7122  -18.3841   21.3977 H   0  0  0  0  0  0
  -31.5032  -18.6549   13.9795 H   0  0  0  0  0  0
  -25.0145  -22.9980   18.4480 H   0  0  0  0  0  0
  -26.1839  -21.7015   18.5309 H   0  0  0  0  0  0
  -26.6649  -23.2801   17.9143 H   0  0  0  0  0  0
  -28.0611  -22.7542   22.3350 H   0  0  0  0  0  0
  -27.5305  -24.4296   22.2751 H   0  0  0  0  0  0
  -29.2299  -24.0397   22.0370 H   0  0  0  0  0  0
  -26.1331  -22.4461   20.7736 H   0  0  0  0  0  0
  -25.8519  -24.0970   20.3933 H   0  0  0  0  0  0
  -27.9043  -25.0425   18.5805 H   0  0  0  0  0  0
  -29.3940  -24.9684   19.3828 H   0  0  0  0  0  0
  -32.0564  -20.1903   17.0121 H   0  0  0  0  0  0
  -32.4236  -19.5656   15.4568 H   0  0  0  0  0  0
  -27.8619  -20.9165   20.8811 H   0  0  0  0  0  0
  -28.8373  -15.6609   20.9913 H   0  0  0  0  0  0
  -30.1394  -16.0236   13.4929 H   0  0  0  0  0  0
  -30.8573  -17.1090   12.3614 H   0  0  0  0  0  0
  -29.8926  -17.0041   15.8772 H   0  0  0  0  0  0
  1 25  1  0  0  0
  1 30  2  0  0  0
  1 87  1  0  0  0
  2  3  1  0  0  0
  2 25  1  0  0  0
  2 91  1  0  0  0
  2 92  1  0  0  0
  3  4  1  0  0  0
  3 93  1  0  0  0
  3 94  1  0  0  0
  4  5  1  0  0  0
  4 95  1  0  0  0
  4 96  1  0  0  0
  5  6  1  0  0  0
  5 26  1  0  0  0
  5 97  1  0  0  0
  6 25  1  0  0  0
  6 98  1  0  0  0
  6 99  1  0  0  0
  7  8  2  0  0  0
  7 26  1  0  0  0
  7 29  1  0  0  0
  8  9  1  0  0  0
  8 22  1  0  0  0
  9 10  1  0  0  0
  9 27  2  0  0  0
 10 11  2  0  0  0
 10 15  1  0  0  0
 11 12  1  0  0  0
 11100  1  0  0  0
 12 13  2  0  0  0
 12101  1  0  0  0
 13 14  1  0  0  0
 13 31  1  0  0  0
 14 15  2  0  0  0
 14102  1  0  0  0
 15103  1  0  0  0
 16 17  2  0  0  0
 16 21  1  0  0  0
 16 31  1  0  0  0
 17 18  1  0  0  0
 17104  1  0  0  0
 18 19  2  0  0  0
 18105  1  0  0  0
 19 20  1  0  0  0
 19 24  1  0  0  0
 20 21  2  0  0  0
 20106  1  0  0  0
 21 23  1  0  0  0
 22 28  1  0  0  0
 22 32  2  0  0  0
 26 27  1  0  0  0
 28107  1  0  0  0
 28108  1  0  0  0
 29109  1  0  0  0
 29110  1  0  0  0
 33 34  1  0  0  0
 33 66  1  0  0  0
 33 70  2  0  0  0
 34 36  1  0  0  0
 34 59  1  0  0  0
 34111  1  0  0  0
 35 44  2  0  0  0
 35 45  1  0  0  0
 35 68  1  0  0  0
 36 56  1  0  0  0
 36112  1  0  0  0
 37 39  1  0  0  0
 37 47  1  0  0  0
 37 66  1  0  0  0
 37113  1  0  0  0
 38 43  2  0  0  0
 38 46  1  0  0  0
 38 47  1  0  0  0
 39 64  1  0  0  0
 39 67  2  0  0  0
 40 52  1  0  0  0
 40 53  2  0  0  0
 40 58  1  0  0  0
 41114  1  0  0  0
 41115  1  0  0  0
 41116  1  0  0  0
 41 48  1  0  0  0
 42 43  1  0  0  0
 42 66  1  0  0  0
 42117  1  0  0  0
 42118  1  0  0  0
 43 44  1  0  0  0
 44119  1  0  0  0
 45 46  2  0  0  0
 45120  1  0  0  0
 46121  1  0  0  0
 47122  1  0  0  0
 47123  1  0  0  0
 48 56  1  0  0  0
 48 65  1  0  0  0
 48124  1  0  0  0
 49 50  1  0  0  0
 49 53  1  0  0  0
 49 64  1  0  0  0
 49125  1  0  0  0
 50 51  1  0  0  0
 50126  1  0  0  0
 50127  1  0  0  0
 51 52  1  0  0  0
 51128  1  0  0  0
 51129  1  0  0  0
 52130  1  0  0  0
 52131  1  0  0  0
 53 54  1  0  0  0
 54 55  2  0  0  0
 54132  1  0  0  0
 55 57  1  0  0  0
 55133  1  0  0  0
 56 69  2  0  0  0
 57 58  2  0  0  0
 57134  1  0  0  0
 58135  1  0  0  0
 59 60  1  0  0  0
 59 61  1  0  0  0
 59 62  1  0  0  0
 60136  1  0  0  0
 60137  1  0  0  0
 60138  1  0  0  0
 61139  1  0  0  0
 61140  1  0  0  0
 61141  1  0  0  0
 62142  1  0  0  0
 62143  1  0  0  0
 62144  1  0  0  0
 63 65  1  0  0  0
 63145  1  0  0  0
 63146  1  0  0  0
 63147  1  0  0  0
 64148  1  0  0  0
 65149  1  0  0  0
 68 83  1  0  0  0
 71 74  2  0  0  0
 71 75  1  0  0  0
 71150  1  0  0  0
 72 74  1  0  0  0
 72 76  2  0  0  0
 72151  1  0  0  0
 73 75  2  0  0  0
 73 76  1  0  0  0
 73152  1  0  0  0
 74 78  1  0  0  0
 75 86  1  0  0  0
 76 87  1  0  0  0
 77 88  2  0  0  0
 77 89  1  0  0  0
 77153  1  0  0  0
 78 85  2  0  0  0
 78 89  1  0  0  0
 79 86  1  0  0  0
 79 90  2  0  0  0
 79 84  1  0  0  0
 80 82  1  0  0  0
 80154  1  0  0  0
 80155  1  0  0  0
 80156  1  0  0  0
 81157  1  0  0  0
 81158  1  0  0  0
 81159  1  0  0  0
 81 84  1  0  0  0
 82 84  1  0  0  0
 82160  1  0  0  0
 82161  1  0  0  0
 83 84  1  0  0  0
 83162  1  0  0  0
 83163  1  0  0  0
 85164  1  0  0  0
 85165  1  0  0  0
 86166  1  0  0  0
 87167  1  0  0  0
 88168  1  0  0  0
 88169  1  0  0  0
 89170  1  0  0  0
M  CHG  2  85   1  88   1
M  ISO  4   1 100  68 101  83 101  87 100
M  END
> <chiral flag>
0

> <version>
0

> <s_m_source_file>
/data/baiqing/PycharmProjects/Reinvent-master-3.2/result/LINK_invent/BTK/process_docking_weight1_custom_product_contain_oxygen_bond_distance_aromatic_linkinvent_7_9_3/rearranged_h_0162.sdf

> <i_m_source_file_index>
87

> <r_mmod_Potential_Energy-OPLS-2005>
-168.861923217773

> <r_mmod_Stretch_Energy-OPLS-2005>
134.870895385742

> <r_mmod_Bend_Energy-OPLS-2005>
185.626098632812

> <r_mmod_Torsional_Energy-OPLS-2005>
272.164428710938

> <r_mmod_Improper_Torsional_Energy-OPLS-2005>
6.599449634552

> <r_mmod_Van_der_Waal_Energy-OPLS-2005>
146.908874511719

> <r_mmod_Electrostatic_Energy-OPLS-2005>
62.8384170532227

> <r_mmod_Solvation_Energy-OPLS-2005>
-1078.05334472656

> <b_mmod_Minimization_Converged-OPLS-2005>
0

> <r_mmod_RMS_Derivative-OPLS-2005>
8.37956237792969

$$$$
87
                    3D
 Structure written by MMmdl.
153161  0  0  1  0            999 V2000
  -30.5972  -14.6504   20.5177 C   0  0  0  0  0  0
  -30.4500  -12.4034   19.4493 C   0  0  0  0  0  0
  -29.5124  -12.5135   18.2243 C   0  0  0  0  0  0
  -28.0345  -12.3459   18.6351 C   0  0  0  0  0  0
  -27.6575  -13.2101   19.8673 C   0  0  2  0  0  0
  -28.7020  -13.0447   20.9949 C   0  0  0  0  0  0
  -25.2589  -13.8161   20.5676 C   0  0  0  0  0  0
  -24.1846  -13.0438   20.9190 C   0  0  0  0  0  0
  -24.6402  -11.6904   20.8739 C   0  0  0  0  0  0
  -23.9062  -10.4291   21.0406 C   0  0  0  0  0  0
  -24.3614   -9.4205   21.9181 C   0  0  0  0  0  0
  -23.6291   -8.2242   22.0750 C   0  0  0  0  0  0
  -22.4271   -8.0282   21.3543 C   0  0  0  0  0  0
  -21.9907   -9.0256   20.4643 C   0  0  0  0  0  0
  -22.7236  -10.2135   20.3052 C   0  0  0  0  0  0
  -21.6853   -6.0733   22.5279 C   0  0  0  0  0  0
  -21.4012   -6.5636   23.8213 C   0  0  0  0  0  0
  -21.3659   -5.6789   24.9175 C   0  0  0  0  0  0
  -21.6044   -4.3053   24.7225 C   0  0  0  0  0  0
  -21.8821   -3.8143   23.4348 C   0  0  0  0  0  0
  -21.9192   -4.6960   22.3402 C   0  0  0  0  0  0
  -22.7867  -13.5235   21.1849 C   0  0  0  0  0  0
  -22.1663   -4.2146   21.0981 F   0  0  0  0  0  0
  -21.5628   -3.4537   25.7738 F   0  0  0  0  0  0
  -30.0180  -13.4088   20.4404 N   0  0  0  0  0  0
  -26.3009  -12.9322   20.3321 N   0  0  0  0  0  0
  -25.9327  -11.6486   20.5756 N   0  0  0  0  0  0
  -22.0503  -12.8232   22.0407 N   0  0  0  0  0  0
  -25.4325  -15.1877   20.4063 N   0  0  0  0  0  0
  -31.7406  -14.8568   20.0963 O   0  0  0  0  0  0
  -21.6639   -6.8877   21.4241 O   0  0  0  0  0  0
  -22.3556  -14.5542   20.6694 O   0  0  0  0  0  0
  -24.6259  -31.8593   23.2025 C   0  0  0  0  0  0
  -25.9106  -32.4781   23.8355 C   0  0  1  0  0  0
  -27.2280  -27.3218   20.1164 C   0  0  0  0  0  0
  -25.5916  -33.8581   24.2278 N   0  0  0  0  0  0
  -23.4197  -30.4835   21.5442 C   0  0  2  0  0  0
  -24.8668  -28.9383   20.1108 C   0  0  0  0  0  0
  -22.7474  -29.4621   22.4923 C   0  0  0  0  0  0
  -18.0288  -28.1392   22.8488 C   0  0  0  0  0  0
  -24.1488  -36.7296   23.2641 C   0  0  0  0  0  0
  -25.9604  -30.7919   21.3718 C   0  0  0  0  0  0
  -26.0354  -29.4190   20.7145 C   0  0  0  0  0  0
  -27.2186  -28.6229   20.7070 C   0  0  0  0  0  0
  -26.0348  -26.8918   19.4905 C   0  0  0  0  0  0
  -24.8680  -27.6794   19.4909 C   0  0  0  0  0  0
  -23.6349  -29.8188   20.1592 C   0  0  0  0  0  0
  -25.4112  -36.3086   24.0330 C   0  0  1  0  0  0
  -20.5888  -28.3688   23.1285 C   0  0  2  0  0  0
  -20.6778  -26.9413   22.5413 C   0  0  0  0  0  0
  -19.5755  -26.6389   21.5216 C   0  0  0  0  0  0
  -18.1933  -26.7934   22.1626 C   0  0  0  0  0  0
  -19.1541  -28.8857   23.2883 C   0  0  0  0  0  0
  -18.9462  -30.1457   23.8899 C   0  0  0  0  0  0
  -17.6466  -30.6592   24.0567 C   0  0  0  0  0  0
  -25.9047  -34.9455   23.5108 C   0  0  0  0  0  0
  -16.5355  -29.9094   23.6334 C   0  0  0  0  0  0
  -16.7274  -28.6513   23.0350 C   0  0  0  0  0  0
  -26.4492  -31.6592   25.0727 C   0  0  0  0  0  0
  -25.3732  -31.3726   26.1458 C   0  0  0  0  0  0
  -27.0338  -30.3021   24.6178 C   0  0  0  0  0  0
  -27.6053  -32.4324   25.7497 C   0  0  0  0  0  0
  -27.5576  -37.1804   24.8465 C   0  0  0  0  0  0
  -21.4187  -29.3042   22.3674 N   0  0  0  0  0  0
  -26.4287  -37.3778   23.9409 N   0  0  0  0  0  0
  -24.6876  -31.0616   22.0965 N   0  0  0  0  0  0
  -23.4199  -28.8151   23.2996 O   0  0  0  0  0  0
  -28.3535  -26.4836   20.1675 O   0  0  0  0  0  0
  -26.5626  -34.8923   22.4679 O   0  0  0  0  0  0
  -23.5423  -32.1386   23.7353 O   0  0  0  0  0  0
  -30.4644  -19.3861   20.1732 C   0  0  0  0  0  0
  -30.6023  -17.9550   20.1507 C   0  0  0  0  0  0
  -28.7407  -17.7747   21.6575 C   0  0  0  0  0  0
  -29.4835  -20.0475   20.9696 C   0  0  0  0  0  0
  -29.7475  -17.1069   20.9131 C   0  0  0  0  0  0
  -28.6139  -19.1913   21.6986 C   0  0  0  0  0  0
  -29.4636  -21.5494   21.2082 C   0  0  0  0  0  0
  -29.3544  -24.0709   20.4823 C   0  0  0  0  0  0
  -28.1656  -25.0198   20.0219 C   0  0  0  0  0  0
  -29.7419  -21.9504   22.4485 N   0  0  0  0  0  0
  -29.7699  -15.6412   20.9758 N   0  0  0  0  0  0
  -29.2071  -22.5555   20.3061 N   0  3  0  0  0  0
  -27.6452  -19.7244   22.4830 F   0  0  0  0  0  0
  -31.4876  -12.5492   19.1444 H   0  0  0  0  0  0
  -30.4045  -11.4030   19.8825 H   0  0  0  0  0  0
  -29.7802  -11.7656   17.4768 H   0  0  0  0  0  0
  -29.6489  -13.4841   17.7452 H   0  0  0  0  0  0
  -27.8714  -11.2916   18.8612 H   0  0  0  0  0  0
  -27.3794  -12.5800   17.7950 H   0  0  0  0  0  0
  -27.6815  -14.2483   19.5353 H   0  0  0  0  0  0
  -28.7197  -12.0127   21.3496 H   0  0  0  0  0  0
  -28.4381  -13.6459   21.8659 H   0  0  0  0  0  0
  -25.2764   -9.5680   22.4748 H   0  0  0  0  0  0
  -24.0001   -7.4633   22.7469 H   0  0  0  0  0  0
  -21.0837   -8.8774   19.8950 H   0  0  0  0  0  0
  -22.3699  -10.9670   19.6157 H   0  0  0  0  0  0
  -21.2005   -7.6144   23.9716 H   0  0  0  0  0  0
  -21.1478   -6.0518   25.9078 H   0  0  0  0  0  0
  -22.0601   -2.7605   23.2849 H   0  0  0  0  0  0
  -22.4114  -11.9889   22.4787 H   0  0  0  0  0  0
  -21.1120  -13.1256   22.2605 H   0  0  0  0  0  0
  -24.6599  -15.8386   20.4972 H   0  0  0  0  0  0
  -26.2666  -15.6166   20.0270 H   0  0  0  0  0  0
  -26.7175  -32.5449   23.1104 H   0  0  0  0  0  0
  -25.0055  -33.9722   25.0420 H   0  0  0  0  0  0
  -22.7133  -31.3038   21.4015 H   0  0  0  0  0  0
  -23.3749  -35.9633   23.3311 H   0  0  0  0  0  0
  -24.3578  -36.8911   22.2055 H   0  0  0  0  0  0
  -23.7244  -37.6503   23.6660 H   0  0  0  0  0  0
  -26.0921  -31.5555   20.6036 H   0  0  0  0  0  0
  -26.8399  -30.8406   22.0020 H   0  0  0  0  0  0
  -28.1154  -28.9878   21.1878 H   0  0  0  0  0  0
  -25.9768  -25.9305   19.0020 H   0  0  0  0  0  0
  -23.9713  -27.3053   19.0160 H   0  0  0  0  0  0
  -23.7559  -30.5963   19.4038 H   0  0  0  0  0  0
  -22.7541  -29.2503   19.8553 H   0  0  0  0  0  0
  -25.1295  -36.1939   25.0823 H   0  0  0  0  0  0
  -20.9989  -28.3268   24.1403 H   0  0  0  0  0  0
  -20.5690  -26.2296   23.3610 H   0  0  0  0  0  0
  -21.6645  -26.7451   22.1199 H   0  0  0  0  0  0
  -19.6920  -25.6302   21.1243 H   0  0  0  0  0  0
  -19.6697  -27.3202   20.6749 H   0  0  0  0  0  0
  -17.4203  -26.6681   21.4028 H   0  0  0  0  0  0
  -18.0328  -26.0078   22.9025 H   0  0  0  0  0  0
  -19.7938  -30.7276   24.2264 H   0  0  0  0  0  0
  -17.5022  -31.6272   24.5168 H   0  0  0  0  0  0
  -15.5358  -30.3000   23.7656 H   0  0  0  0  0  0
  -15.8673  -28.0839   22.7056 H   0  0  0  0  0  0
  -24.5904  -30.7071   25.7795 H   0  0  0  0  0  0
  -24.8923  -32.2888   26.4896 H   0  0  0  0  0  0
  -25.8060  -30.8900   27.0228 H   0  0  0  0  0  0
  -26.2911  -29.6776   24.1200 H   0  0  0  0  0  0
  -27.4037  -29.7273   25.4681 H   0  0  0  0  0  0
  -27.8782  -30.4320   23.9402 H   0  0  0  0  0  0
  -27.2663  -33.3617   26.2087 H   0  0  0  0  0  0
  -28.3859  -32.6894   25.0323 H   0  0  0  0  0  0
  -28.0736  -31.8446   26.5404 H   0  0  0  0  0  0
  -28.2596  -38.0098   24.7509 H   0  0  0  0  0  0
  -28.1063  -36.2628   24.6293 H   0  0  0  0  0  0
  -27.2292  -37.1462   25.8868 H   0  0  0  0  0  0
  -20.9358  -29.8771   21.6897 H   0  0  0  0  0  0
  -26.0172  -38.2857   24.1411 H   0  0  0  0  0  0
  -31.1681  -19.9856   19.6130 H   0  0  0  0  0  0
  -31.3849  -17.5174   19.5472 H   0  0  0  0  0  0
  -28.0448  -17.1956   22.2461 H   0  0  0  0  0  0
  -29.5723  -24.3044   21.5240 H   0  0  0  0  0  0
  -30.2503  -24.3684   19.9363 H   0  0  0  0  0  0
  -27.9481  -24.8061   18.9754 H   0  0  0  0  0  0
  -27.2819  -24.7242   20.5898 H   0  0  0  0  0  0
  -29.9485  -21.2597   23.1549 H   0  0  0  0  0  0
  -29.7192  -22.9161   22.7243 H   0  0  0  0  0  0
  -28.9356  -15.2457   21.3797 H   0  0  0  0  0  0
  -29.0022  -22.2492   19.3617 H   0  0  0  0  0  0
  1 25  1  0  0  0
  1 30  2  0  0  0
  1 81  1  0  0  0
  2  3  1  0  0  0
  2 25  1  0  0  0
  2 84  1  0  0  0
  2 85  1  0  0  0
  3  4  1  0  0  0
  3 86  1  0  0  0
  3 87  1  0  0  0
  4  5  1  0  0  0
  4 88  1  0  0  0
  4 89  1  0  0  0
  5  6  1  0  0  0
  5 26  1  0  0  0
  5 90  1  0  0  0
  6 25  1  0  0  0
  6 91  1  0  0  0
  6 92  1  0  0  0
  7  8  2  0  0  0
  7 26  1  0  0  0
  7 29  1  0  0  0
  8  9  1  0  0  0
  8 22  1  0  0  0
  9 10  1  0  0  0
  9 27  2  0  0  0
 10 11  2  0  0  0
 10 15  1  0  0  0
 11 12  1  0  0  0
 11 93  1  0  0  0
 12 13  2  0  0  0
 12 94  1  0  0  0
 13 14  1  0  0  0
 13 31  1  0  0  0
 14 15  2  0  0  0
 14 95  1  0  0  0
 15 96  1  0  0  0
 16 17  2  0  0  0
 16 21  1  0  0  0
 16 31  1  0  0  0
 17 18  1  0  0  0
 17 97  1  0  0  0
 18 19  2  0  0  0
 18 98  1  0  0  0
 19 20  1  0  0  0
 19 24  1  0  0  0
 20 21  2  0  0  0
 20 99  1  0  0  0
 21 23  1  0  0  0
 22 28  1  0  0  0
 22 32  2  0  0  0
 26 27  1  0  0  0
 28100  1  0  0  0
 28101  1  0  0  0
 29102  1  0  0  0
 29103  1  0  0  0
 33 34  1  0  0  0
 33 66  1  0  0  0
 33 70  2  0  0  0
 34 36  1  0  0  0
 34 59  1  0  0  0
 34104  1  0  0  0
 35 44  2  0  0  0
 35 45  1  0  0  0
 35 68  1  0  0  0
 36 56  1  0  0  0
 36105  1  0  0  0
 37 39  1  0  0  0
 37 47  1  0  0  0
 37 66  1  0  0  0
 37106  1  0  0  0
 38 43  2  0  0  0
 38 46  1  0  0  0
 38 47  1  0  0  0
 39 64  1  0  0  0
 39 67  2  0  0  0
 40 52  1  0  0  0
 40 53  2  0  0  0
 40 58  1  0  0  0
 41107  1  0  0  0
 41108  1  0  0  0
 41109  1  0  0  0
 41 48  1  0  0  0
 42 43  1  0  0  0
 42 66  1  0  0  0
 42110  1  0  0  0
 42111  1  0  0  0
 43 44  1  0  0  0
 44112  1  0  0  0
 45 46  2  0  0  0
 45113  1  0  0  0
 46114  1  0  0  0
 47115  1  0  0  0
 47116  1  0  0  0
 48 56  1  0  0  0
 48 65  1  0  0  0
 48117  1  0  0  0
 49 50  1  0  0  0
 49 53  1  0  0  0
 49 64  1  0  0  0
 49118  1  0  0  0
 50 51  1  0  0  0
 50119  1  0  0  0
 50120  1  0  0  0
 51 52  1  0  0  0
 51121  1  0  0  0
 51122  1  0  0  0
 52123  1  0  0  0
 52124  1  0  0  0
 53 54  1  0  0  0
 54 55  2  0  0  0
 54125  1  0  0  0
 55 57  1  0  0  0
 55126  1  0  0  0
 56 69  2  0  0  0
 57 58  2  0  0  0
 57127  1  0  0  0
 58128  1  0  0  0
 59 60  1  0  0  0
 59 61  1  0  0  0
 59 62  1  0  0  0
 60129  1  0  0  0
 60130  1  0  0  0
 60131  1  0  0  0
 61132  1  0  0  0
 61133  1  0  0  0
 61134  1  0  0  0
 62135  1  0  0  0
 62136  1  0  0  0
 62137  1  0  0  0
 63 65  1  0  0  0
 63138  1  0  0  0
 63139  1  0  0  0
 63140  1  0  0  0
 64141  1  0  0  0
 65142  1  0  0  0
 68 79  1  0  0  0
 71 72  2  0  0  0
 71 74  1  0  0  0
 71143  1  0  0  0
 72 75  1  0  0  0
 72144  1  0  0  0
 73 75  2  0  0  0
 73 76  1  0  0  0
 73145  1  0  0  0
 74 76  2  0  0  0
 74 77  1  0  0  0
 75 81  1  0  0  0
 76 83  1  0  0  0
 77 80  1  0  0  0
 77 82  2  0  0  0
 78 79  1  0  0  0
 78 82  1  0  0  0
 78146  1  0  0  0
 78147  1  0  0  0
 79148  1  0  0  0
 79149  1  0  0  0
 80150  1  0  0  0
 80151  1  0  0  0
 81152  1  0  0  0
 82153  1  0  0  0
M  CHG  1  82   1
M  ISO  4   1 100  68 101  79 101  81 100
M  END
> <chiral flag>
0

> <version>
0

> <s_m_source_file>
/data/baiqing/PycharmProjects/Reinvent-master-3.2/result/LINK_invent/BTK/process_docking_weight1_custom_product_contain_oxygen_bond_distance_aromatic_linkinvent_7_9_3/rearranged_h_0162.sdf

> <i_m_source_file_index>
88

> <r_mmod_Potential_Energy-OPLS-2005>
-115.205070495605

> <r_mmod_Stretch_Energy-OPLS-2005>
81.7860870361328

> <r_mmod_Bend_Energy-OPLS-2005>
145.963592529297

> <r_mmod_Torsional_Energy-OPLS-2005>
222.431106567383

> <r_mmod_Improper_Torsional_Energy-OPLS-2005>
4.4931321144104

> <r_mmod_Van_der_Waal_Energy-OPLS-2005>
145.859436035156

> <r_mmod_Electrostatic_Energy-OPLS-2005>
-343.29931640625

> <r_mmod_Solvation_Energy-OPLS-2005>
-422.086303710938

> <b_mmod_Minimization_Converged-OPLS-2005>
0

> <r_mmod_RMS_Derivative-OPLS-2005>
0.86594831943512

$$$$
88
                    3D
 Structure written by MMmdl.
156165  0  0  1  0            999 V2000
  -30.6457  -14.5710   20.5228 C   0  0  0  0  0  0
  -30.4353  -12.3535   19.4411 C   0  0  0  0  0  0
  -29.5042  -12.5049   18.2181 C   0  0  0  0  0  0
  -28.0256  -12.3529   18.6290 C   0  0  0  0  0  0
  -27.6584  -13.2099   19.8698 C   0  0  2  0  0  0
  -28.7018  -13.0284   20.9961 C   0  0  0  0  0  0
  -25.2582  -13.8162   20.5683 C   0  0  0  0  0  0
  -24.1837  -13.0437   20.9181 C   0  0  0  0  0  0
  -24.6395  -11.6905   20.8736 C   0  0  0  0  0  0
  -23.9061  -10.4291   21.0403 C   0  0  0  0  0  0
  -24.3614   -9.4207   21.9181 C   0  0  0  0  0  0
  -23.6290   -8.2243   22.0753 C   0  0  0  0  0  0
  -22.4272   -8.0279   21.3545 C   0  0  0  0  0  0
  -21.9905   -9.0254   20.4648 C   0  0  0  0  0  0
  -22.7233  -10.2133   20.3055 C   0  0  0  0  0  0
  -21.6853   -6.0733   22.5280 C   0  0  0  0  0  0
  -21.4013   -6.5637   23.8213 C   0  0  0  0  0  0
  -21.3659   -5.6790   24.9175 C   0  0  0  0  0  0
  -21.6044   -4.3054   24.7226 C   0  0  0  0  0  0
  -21.8819   -3.8145   23.4348 C   0  0  0  0  0  0
  -21.9193   -4.6962   22.3403 C   0  0  0  0  0  0
  -22.7859  -13.5236   21.1846 C   0  0  0  0  0  0
  -22.1661   -4.2148   21.0981 F   0  0  0  0  0  0
  -21.5630   -3.4538   25.7738 F   0  0  0  0  0  0
  -30.0251  -13.3567   20.4398 N   0  0  0  0  0  0
  -26.3011  -12.9333   20.3341 N   0  0  0  0  0  0
  -25.9322  -11.6493   20.5759 N   0  0  0  0  0  0
  -22.0499  -12.8232   22.0403 N   0  0  0  0  0  0
  -25.4309  -15.1882   20.4098 N   0  0  0  0  0  0
  -31.7947  -14.7486   20.1070 O   0  0  0  0  0  0
  -21.6637   -6.8876   21.4241 O   0  0  0  0  0  0
  -22.3547  -14.5545   20.6696 O   0  0  0  0  0  0
  -24.6203  -31.8637   23.2056 C   0  0  0  0  0  0
  -25.9073  -32.4800   23.8371 C   0  0  1  0  0  0
  -27.2297  -27.3795   20.1131 C   0  0  0  0  0  0
  -25.5910  -33.8599   24.2305 N   0  0  0  0  0  0
  -23.4122  -30.4861   21.5468 C   0  0  2  0  0  0
  -24.8613  -28.9466   20.1119 C   0  0  0  0  0  0
  -22.7448  -29.4637   22.4959 C   0  0  0  0  0  0
  -18.0282  -28.1378   22.8488 C   0  0  0  0  0  0
  -24.1489  -36.7304   23.2636 C   0  0  0  0  0  0
  -25.9468  -30.8136   21.3672 C   0  0  0  0  0  0
  -26.0255  -29.4443   20.7127 C   0  0  0  0  0  0
  -27.2171  -28.6705   20.7061 C   0  0  0  0  0  0
  -26.0511  -26.9144   19.4944 C   0  0  0  0  0  0
  -24.8720  -27.6836   19.4954 C   0  0  0  0  0  0
  -23.6249  -29.8190   20.1617 C   0  0  0  0  0  0
  -25.4109  -36.3098   24.0335 C   0  0  1  0  0  0
  -20.5877  -28.3675   23.1299 C   0  0  2  0  0  0
  -20.6771  -26.9404   22.5414 C   0  0  0  0  0  0
  -19.5750  -26.6386   21.5210 C   0  0  0  0  0  0
  -18.1929  -26.7923   22.1622 C   0  0  0  0  0  0
  -19.1533  -28.8843   23.2890 C   0  0  0  0  0  0
  -18.9457  -30.1447   23.8903 C   0  0  0  0  0  0
  -17.6458  -30.6582   24.0564 C   0  0  0  0  0  0
  -25.9041  -34.9464   23.5120 C   0  0  0  0  0  0
  -16.5350  -29.9083   23.6325 C   0  0  0  0  0  0
  -16.7270  -28.6501   23.0346 C   0  0  0  0  0  0
  -26.4480  -31.6587   25.0714 C   0  0  0  0  0  0
  -25.3735  -31.3709   26.1457 C   0  0  0  0  0  0
  -27.0307  -30.3018   24.6117 C   0  0  0  0  0  0
  -27.6054  -32.4305   25.7480 C   0  0  0  0  0  0
  -27.5582  -37.1804   24.8462 C   0  0  0  0  0  0
  -21.4167  -29.3034   22.3700 N   0  0  0  0  0  0
  -26.4291  -37.3787   23.9411 N   0  0  0  0  0  0
  -24.6782  -31.0696   22.0979 N   0  0  0  0  0  0
  -23.4193  -28.8180   23.3023 O   0  0  0  0  0  0
  -28.3419  -26.5488   20.1305 O   0  0  0  0  0  0
  -26.5608  -34.8923   22.4684 O   0  0  0  0  0  0
  -23.5381  -32.1409   23.7420 O   0  0  0  0  0  0
  -31.0169  -17.7081   20.2249 C   0  0  0  0  0  0
  -29.9857  -16.9587   20.7605 C   0  0  0  0  0  0
  -29.5958  -19.4771   20.6592 C   0  0  0  0  0  0
  -28.9091  -21.7015   19.4329 C   0  0  0  0  0  0
  -29.8815  -21.8250   21.7342 C   0  0  0  0  0  0
  -28.2539  -23.1119   19.6217 C   0  0  0  0  0  0
  -29.2144  -23.2153   21.9403 C   0  0  0  0  0  0
  -29.0863  -20.9254   20.7644 C   0  0  2  0  0  0
  -28.9750  -24.0421   20.6422 C   0  0  2  0  0  0
  -28.1898  -25.3738   20.9793 C   0  0  0  0  0  0
  -30.7885  -19.1022   20.1752 N   0  0  0  0  0  0
  -29.8592  -15.5972   20.9467 N   0  0  0  0  0  0
  -28.6804  -18.0578   21.2162 S   0  0  0  0  0  0
  -31.4778  -12.4706   19.1395 H   0  0  0  0  0  0
  -30.3579  -11.3501   19.8623 H   0  0  0  0  0  0
  -29.7581  -11.7653   17.4574 H   0  0  0  0  0  0
  -29.6578  -13.4817   17.7566 H   0  0  0  0  0  0
  -27.8504  -11.2983   18.8448 H   0  0  0  0  0  0
  -27.3736  -12.6034   17.7914 H   0  0  0  0  0  0
  -27.6889  -14.2511   19.5482 H   0  0  0  0  0  0
  -28.6977  -11.9990   21.3573 H   0  0  0  0  0  0
  -28.4540  -13.6430   21.8629 H   0  0  0  0  0  0
  -25.2761   -9.5682   22.4753 H   0  0  0  0  0  0
  -24.0002   -7.4633   22.7469 H   0  0  0  0  0  0
  -21.0837   -8.8774   19.8953 H   0  0  0  0  0  0
  -22.3694  -10.9672   19.6163 H   0  0  0  0  0  0
  -21.2005   -7.6144   23.9714 H   0  0  0  0  0  0
  -21.1481   -6.0521   25.9077 H   0  0  0  0  0  0
  -22.0599   -2.7608   23.2849 H   0  0  0  0  0  0
  -22.4106  -11.9889   22.4792 H   0  0  0  0  0  0
  -21.1119  -13.1264   22.2608 H   0  0  0  0  0  0
  -24.6644  -15.8436   20.5179 H   0  0  0  0  0  0
  -26.2809  -15.6269   20.0792 H   0  0  0  0  0  0
  -26.7143  -32.5499   23.1131 H   0  0  0  0  0  0
  -25.0063  -33.9751   25.0452 H   0  0  0  0  0  0
  -22.7031  -31.3045   21.4053 H   0  0  0  0  0  0
  -23.3744  -35.9646   23.3318 H   0  0  0  0  0  0
  -24.3582  -36.8897   22.2047 H   0  0  0  0  0  0
  -23.7253  -37.6519   23.6637 H   0  0  0  0  0  0
  -26.0670  -31.5783   20.5984 H   0  0  0  0  0  0
  -26.8313  -30.8665   21.9902 H   0  0  0  0  0  0
  -28.1133  -29.0463   21.1795 H   0  0  0  0  0  0
  -26.0422  -25.9405   19.0249 H   0  0  0  0  0  0
  -23.9793  -27.2953   19.0249 H   0  0  0  0  0  0
  -23.7376  -30.5946   19.4034 H   0  0  0  0  0  0
  -22.7473  -29.2426   19.8632 H   0  0  0  0  0  0
  -25.1285  -36.1959   25.0828 H   0  0  0  0  0  0
  -20.9971  -28.3245   24.1419 H   0  0  0  0  0  0
  -20.5670  -26.2282   23.3606 H   0  0  0  0  0  0
  -21.6641  -26.7440   22.1210 H   0  0  0  0  0  0
  -19.6913  -25.6300   21.1231 H   0  0  0  0  0  0
  -19.6687  -27.3203   20.6745 H   0  0  0  0  0  0
  -17.4198  -26.6668   21.4025 H   0  0  0  0  0  0
  -18.0333  -26.0063   22.9018 H   0  0  0  0  0  0
  -19.7935  -30.7261   24.2274 H   0  0  0  0  0  0
  -17.5014  -31.6261   24.5168 H   0  0  0  0  0  0
  -15.5350  -30.2987   23.7643 H   0  0  0  0  0  0
  -15.8671  -28.0823   22.7054 H   0  0  0  0  0  0
  -24.5908  -30.7056   25.7795 H   0  0  0  0  0  0
  -24.8929  -32.2871   26.4897 H   0  0  0  0  0  0
  -25.8080  -30.8882   27.0220 H   0  0  0  0  0  0
  -26.2858  -29.6787   24.1153 H   0  0  0  0  0  0
  -27.4042  -29.7248   25.4587 H   0  0  0  0  0  0
  -27.8713  -30.4320   23.9296 H   0  0  0  0  0  0
  -27.2674  -33.3594   26.2086 H   0  0  0  0  0  0
  -28.3850  -32.6880   25.0298 H   0  0  0  0  0  0
  -28.0738  -31.8411   26.5373 H   0  0  0  0  0  0
  -28.2596  -38.0104   24.7516 H   0  0  0  0  0  0
  -28.1080  -36.2637   24.6271 H   0  0  0  0  0  0
  -27.2306  -37.1440   25.8866 H   0  0  0  0  0  0
  -20.9336  -29.8754   21.6914 H   0  0  0  0  0  0
  -26.0178  -38.2864   24.1414 H   0  0  0  0  0  0
  -31.9592  -17.3366   19.8463 H   0  0  0  0  0  0
  -29.8802  -21.8122   18.9487 H   0  0  0  0  0  0
  -28.2966  -21.1114   18.7501 H   0  0  0  0  0  0
  -29.9706  -21.3254   22.6997 H   0  0  0  0  0  0
  -30.8991  -21.9534   21.3630 H   0  0  0  0  0  0
  -27.2219  -22.9678   19.9450 H   0  0  0  0  0  0
  -28.1920  -23.6166   18.6568 H   0  0  0  0  0  0
  -29.8249  -23.7982   22.6314 H   0  0  0  0  0  0
  -28.2588  -23.0671   22.4459 H   0  0  0  0  0  0
  -28.0859  -20.8314   21.1899 H   0  0  0  0  0  0
  -29.9518  -24.3137   20.2397 H   0  0  0  0  0  0
  -28.5175  -25.7140   21.9627 H   0  0  0  0  0  0
  -27.1383  -25.1177   21.1202 H   0  0  0  0  0  0
  -28.9700  -15.2961   21.3158 H   0  0  0  0  0  0
  1 25  1  0  0  0
  1 30  2  0  0  0
  1 82  1  0  0  0
  2  3  1  0  0  0
  2 25  1  0  0  0
  2 84  1  0  0  0
  2 85  1  0  0  0
  3  4  1  0  0  0
  3 86  1  0  0  0
  3 87  1  0  0  0
  4  5  1  0  0  0
  4 88  1  0  0  0
  4 89  1  0  0  0
  5  6  1  0  0  0
  5 26  1  0  0  0
  5 90  1  0  0  0
  6 25  1  0  0  0
  6 91  1  0  0  0
  6 92  1  0  0  0
  7  8  2  0  0  0
  7 26  1  0  0  0
  7 29  1  0  0  0
  8  9  1  0  0  0
  8 22  1  0  0  0
  9 10  1  0  0  0
  9 27  2  0  0  0
 10 11  2  0  0  0
 10 15  1  0  0  0
 11 12  1  0  0  0
 11 93  1  0  0  0
 12 13  2  0  0  0
 12 94  1  0  0  0
 13 14  1  0  0  0
 13 31  1  0  0  0
 14 15  2  0  0  0
 14 95  1  0  0  0
 15 96  1  0  0  0
 16 17  2  0  0  0
 16 21  1  0  0  0
 16 31  1  0  0  0
 17 18  1  0  0  0
 17 97  1  0  0  0
 18 19  2  0  0  0
 18 98  1  0  0  0
 19 20  1  0  0  0
 19 24  1  0  0  0
 20 21  2  0  0  0
 20 99  1  0  0  0
 21 23  1  0  0  0
 22 28  1  0  0  0
 22 32  2  0  0  0
 26 27  1  0  0  0
 28100  1  0  0  0
 28101  1  0  0  0
 29102  1  0  0  0
 29103  1  0  0  0
 33 34  1  0  0  0
 33 66  1  0  0  0
 33 70  2  0  0  0
 34 36  1  0  0  0
 34 59  1  0  0  0
 34104  1  0  0  0
 35 44  2  0  0  0
 35 45  1  0  0  0
 35 68  1  0  0  0
 36 56  1  0  0  0
 36105  1  0  0  0
 37 39  1  0  0  0
 37 47  1  0  0  0
 37 66  1  0  0  0
 37106  1  0  0  0
 38 43  2  0  0  0
 38 46  1  0  0  0
 38 47  1  0  0  0
 39 64  1  0  0  0
 39 67  2  0  0  0
 40 52  1  0  0  0
 40 53  2  0  0  0
 40 58  1  0  0  0
 41107  1  0  0  0
 41108  1  0  0  0
 41109  1  0  0  0
 41 48  1  0  0  0
 42 43  1  0  0  0
 42 66  1  0  0  0
 42110  1  0  0  0
 42111  1  0  0  0
 43 44  1  0  0  0
 44112  1  0  0  0
 45 46  2  0  0  0
 45113  1  0  0  0
 46114  1  0  0  0
 47115  1  0  0  0
 47116  1  0  0  0
 48 56  1  0  0  0
 48 65  1  0  0  0
 48117  1  0  0  0
 49 50  1  0  0  0
 49 53  1  0  0  0
 49 64  1  0  0  0
 49118  1  0  0  0
 50 51  1  0  0  0
 50119  1  0  0  0
 50120  1  0  0  0
 51 52  1  0  0  0
 51121  1  0  0  0
 51122  1  0  0  0
 52123  1  0  0  0
 52124  1  0  0  0
 53 54  1  0  0  0
 54 55  2  0  0  0
 54125  1  0  0  0
 55 57  1  0  0  0
 55126  1  0  0  0
 56 69  2  0  0  0
 57 58  2  0  0  0
 57127  1  0  0  0
 58128  1  0  0  0
 59 60  1  0  0  0
 59 61  1  0  0  0
 59 62  1  0  0  0
 60129  1  0  0  0
 60130  1  0  0  0
 60131  1  0  0  0
 61132  1  0  0  0
 61133  1  0  0  0
 61134  1  0  0  0
 62135  1  0  0  0
 62136  1  0  0  0
 62137  1  0  0  0
 63 65  1  0  0  0
 63138  1  0  0  0
 63139  1  0  0  0
 63140  1  0  0  0
 64141  1  0  0  0
 65142  1  0  0  0
 68 80  1  0  0  0
 71 72  2  0  0  0
 71 81  1  0  0  0
 71143  1  0  0  0
 72 82  1  0  0  0
 72 83  1  0  0  0
 73 81  2  0  0  0
 73 83  1  0  0  0
 73 78  1  0  0  0
 74 76  1  0  0  0
 74 78  1  0  0  0
 74144  1  0  0  0
 74145  1  0  0  0
 75 77  1  0  0  0
 75 78  1  0  0  0
 75146  1  0  0  0
 75147  1  0  0  0
 76 79  1  0  0  0
 76148  1  0  0  0
 76149  1  0  0  0
 77 79  1  0  0  0
 77150  1  0  0  0
 77151  1  0  0  0
 78152  1  0  0  0
 79 80  1  0  0  0
 79153  1  0  0  0
 80154  1  0  0  0
 80155  1  0  0  0
 82156  1  0  0  0
M  ISO  4   1 100  68 101  80 101  82 100
M  END
> <chiral flag>
0

> <version>
0

> <s_m_source_file>
/data/baiqing/PycharmProjects/Reinvent-master-3.2/result/LINK_invent/BTK/process_docking_weight1_custom_product_contain_oxygen_bond_distance_aromatic_linkinvent_7_9_3/rearranged_h_0162.sdf

> <i_m_source_file_index>
89

> <r_mmod_Potential_Energy-OPLS-2005>
-10.1645841598511

> <r_mmod_Stretch_Energy-OPLS-2005>
52.5195121765137

> <r_mmod_Bend_Energy-OPLS-2005>
120.034507751465

> <r_mmod_Torsional_Energy-OPLS-2005>
228.221588134766

> <r_mmod_Improper_Torsional_Energy-OPLS-2005>
3.92369270324707

> <r_mmod_Van_der_Waal_Energy-OPLS-2005>
122.930488586426

> <r_mmod_Electrostatic_Energy-OPLS-2005>
-360.649810791016

> <r_mmod_Solvation_Energy-OPLS-2005>
-205.834014892578

> <b_mmod_Minimization_Converged-OPLS-2005>
0

> <r_mmod_RMS_Derivative-OPLS-2005>
0.296288222074509

$$$$
89
                    3D
 Structure written by MMmdl.
158166  0  0  1  0            999 V2000
  -30.7366  -14.4523   20.6020 C   0  0  0  0  0  0
  -30.4151  -12.3115   19.4128 C   0  0  0  0  0  0
  -29.4859  -12.5073   18.1994 C   0  0  0  0  0  0
  -28.0104  -12.3658   18.6194 C   0  0  0  0  0  0
  -27.6596  -13.2106   19.8734 C   0  0  2  0  0  0
  -28.7030  -13.0019   20.9935 C   0  0  0  0  0  0
  -25.2581  -13.8174   20.5691 C   0  0  0  0  0  0
  -24.1837  -13.0443   20.9178 C   0  0  0  0  0  0
  -24.6396  -11.6908   20.8746 C   0  0  0  0  0  0
  -23.9067  -10.4295   21.0409 C   0  0  0  0  0  0
  -24.3616   -9.4216   21.9196 C   0  0  0  0  0  0
  -23.6288   -8.2252   22.0766 C   0  0  0  0  0  0
  -22.4275   -8.0287   21.3547 C   0  0  0  0  0  0
  -21.9917   -9.0260   20.4646 C   0  0  0  0  0  0
  -22.7245  -10.2138   20.3053 C   0  0  0  0  0  0
  -21.6849   -6.0740   22.5286 C   0  0  0  0  0  0
  -21.4008   -6.5644   23.8220 C   0  0  0  0  0  0
  -21.3654   -5.6794   24.9181 C   0  0  0  0  0  0
  -21.6043   -4.3057   24.7229 C   0  0  0  0  0  0
  -21.8818   -3.8151   23.4348 C   0  0  0  0  0  0
  -21.9189   -4.6968   22.3406 C   0  0  0  0  0  0
  -22.7854  -13.5233   21.1835 C   0  0  0  0  0  0
  -22.1660   -4.2155   21.0982 F   0  0  0  0  0  0
  -21.5628   -3.4539   25.7740 F   0  0  0  0  0  0
  -30.0330  -13.2991   20.4359 N   0  0  0  0  0  0
  -26.3019  -12.9352   20.3381 N   0  0  0  0  0  0
  -25.9326  -11.6507   20.5779 N   0  0  0  0  0  0
  -22.0491  -12.8218   22.0383 N   0  0  0  0  0  0
  -25.4290  -15.1897   20.4088 N   0  0  0  0  0  0
  -31.8421  -14.6323   20.0867 O   0  0  0  0  0  0
  -21.6636   -6.8885   21.4245 O   0  0  0  0  0  0
  -22.3539  -14.5545   20.6692 O   0  0  0  0  0  0
  -24.6138  -31.8688   23.2095 C   0  0  0  0  0  0
  -25.9035  -32.4826   23.8399 C   0  0  1  0  0  0
  -27.2351  -27.4375   20.0985 C   0  0  0  0  0  0
  -25.5889  -33.8622   24.2329 N   0  0  0  0  0  0
  -23.4027  -30.4905   21.5509 C   0  0  2  0  0  0
  -24.8503  -28.9554   20.1154 C   0  0  0  0  0  0
  -22.7407  -29.4661   22.4999 C   0  0  0  0  0  0
  -18.0269  -28.1369   22.8499 C   0  0  0  0  0  0
  -24.1468  -36.7302   23.2645 C   0  0  0  0  0  0
  -25.9304  -30.8354   21.3612 C   0  0  0  0  0  0
  -26.0104  -29.4705   20.7082 C   0  0  0  0  0  0
  -27.2096  -28.7207   20.6920 C   0  0  0  0  0  0
  -26.0612  -26.9387   19.4946 C   0  0  0  0  0  0
  -24.8704  -27.6892   19.5042 C   0  0  0  0  0  0
  -23.6104  -29.8199   20.1664 C   0  0  0  0  0  0
  -25.4100  -36.3112   24.0337 C   0  0  1  0  0  0
  -20.5857  -28.3662   23.1316 C   0  0  2  0  0  0
  -20.6752  -26.9407   22.5402 C   0  0  0  0  0  0
  -19.5728  -26.6389   21.5200 C   0  0  0  0  0  0
  -18.1906  -26.7918   22.1627 C   0  0  0  0  0  0
  -19.1518  -28.8831   23.2902 C   0  0  0  0  0  0
  -18.9454  -30.1435   23.8912 C   0  0  0  0  0  0
  -17.6461  -30.6586   24.0565 C   0  0  0  0  0  0
  -25.9035  -34.9476   23.5135 C   0  0  0  0  0  0
  -16.5349  -29.9087   23.6330 C   0  0  0  0  0  0
  -16.7261  -28.6496   23.0364 C   0  0  0  0  0  0
  -26.4467  -31.6604   25.0725 C   0  0  0  0  0  0
  -25.3735  -31.3634   26.1452 C   0  0  0  0  0  0
  -27.0363  -30.3083   24.6077 C   0  0  0  0  0  0
  -27.6000  -32.4353   25.7532 C   0  0  0  0  0  0
  -27.5564  -37.1824   24.8476 C   0  0  0  0  0  0
  -21.4134  -29.3038   22.3737 N   0  0  0  0  0  0
  -26.4285  -37.3799   23.9405 N   0  0  0  0  0  0
  -24.6674  -31.0784   22.0994 N   0  0  0  0  0  0
  -23.4174  -28.8206   23.3048 O   0  0  0  0  0  0
  -28.3872  -26.6838   20.0987 O   0  0  0  0  0  0
  -26.5606  -34.8928   22.4703 O   0  0  0  0  0  0
  -23.5328  -32.1441   23.7482 O   0  0  0  0  0  0
  -30.9203  -19.8488   19.6640 C   0  0  0  0  0  0
  -30.3606  -18.0006   21.1570 C   0  0  0  0  0  0
  -31.1904  -18.5665   20.1667 C   0  0  0  0  0  0
  -29.2496  -18.7857   21.5943 C   0  0  0  0  0  0
  -29.8348  -20.5652   20.1762 C   0  0  0  0  0  0
  -28.2562  -18.2784   22.6015 C   0  0  0  0  0  0
  -28.9708  -24.2748   19.9596 C   0  0  0  0  0  0
  -27.3375  -19.3129   23.2452 C   0  0  0  0  0  0
  -30.7893  -16.6598   21.7965 C   0  0  0  0  0  0
  -28.8711  -22.8427   20.5259 C   0  0  0  0  0  0
  -28.2525  -25.3970   20.7354 C   0  0  0  0  0  0
  -29.0210  -20.0418   21.1099 N   0  0  0  0  0  0
  -29.5707  -21.8557   19.6983 N   0  0  0  0  0  0
  -30.1398  -15.4244   21.3182 N   0  0  0  0  0  0
  -28.1275  -17.0951   22.9325 O   0  0  0  0  0  0
  -29.6158  -24.5040   18.9282 O   0  0  0  0  0  0
  -32.2746  -17.8963   19.7093 F   0  0  0  0  0  0
  -31.4585  -12.4023   19.1058 H   0  0  0  0  0  0
  -30.3144  -11.3014   19.8131 H   0  0  0  0  0  0
  -29.7235  -11.7808   17.4213 H   0  0  0  0  0  0
  -29.6516  -13.4920   17.7600 H   0  0  0  0  0  0
  -27.8257  -11.3106   18.8229 H   0  0  0  0  0  0
  -27.3552  -12.6330   17.7897 H   0  0  0  0  0  0
  -27.7017  -14.2579   19.5726 H   0  0  0  0  0  0
  -28.6814  -11.9704   21.3482 H   0  0  0  0  0  0
  -28.4615  -13.6126   21.8644 H   0  0  0  0  0  0
  -25.2753   -9.5697   22.4782 H   0  0  0  0  0  0
  -23.9997   -7.4650   22.7495 H   0  0  0  0  0  0
  -21.0850   -8.8776   19.8946 H   0  0  0  0  0  0
  -22.3709  -10.9675   19.6160 H   0  0  0  0  0  0
  -21.2004   -7.6153   23.9726 H   0  0  0  0  0  0
  -21.1473   -6.0521   25.9085 H   0  0  0  0  0  0
  -22.0599   -2.7613   23.2847 H   0  0  0  0  0  0
  -22.4074  -11.9850   22.4742 H   0  0  0  0  0  0
  -21.1112  -13.1252   22.2586 H   0  0  0  0  0  0
  -24.6638  -15.8458   20.5206 H   0  0  0  0  0  0
  -26.2893  -15.6308   20.1098 H   0  0  0  0  0  0
  -26.7107  -32.5546   23.1165 H   0  0  0  0  0  0
  -25.0022  -33.9783   25.0463 H   0  0  0  0  0  0
  -22.6909  -31.3061   21.4107 H   0  0  0  0  0  0
  -23.3735  -35.9632   23.3317 H   0  0  0  0  0  0
  -24.3553  -36.8915   22.2062 H   0  0  0  0  0  0
  -23.7210  -37.6500   23.6664 H   0  0  0  0  0  0
  -26.0399  -31.6006   20.5913 H   0  0  0  0  0  0
  -26.8193  -30.8922   21.9777 H   0  0  0  0  0  0
  -28.1068  -29.1148   21.1481 H   0  0  0  0  0  0
  -26.0659  -25.9700   19.0146 H   0  0  0  0  0  0
  -23.9797  -27.2883   19.0402 H   0  0  0  0  0  0
  -23.7153  -30.5927   19.4043 H   0  0  0  0  0  0
  -22.7350  -29.2368   19.8752 H   0  0  0  0  0  0
  -25.1275  -36.1992   25.0831 H   0  0  0  0  0  0
  -20.9950  -28.3225   24.1434 H   0  0  0  0  0  0
  -20.5669  -26.2269   23.3581 H   0  0  0  0  0  0
  -21.6625  -26.7462   22.1193 H   0  0  0  0  0  0
  -19.6887  -25.6306   21.1227 H   0  0  0  0  0  0
  -19.6648  -27.3200   20.6730 H   0  0  0  0  0  0
  -17.4178  -26.6659   21.4027 H   0  0  0  0  0  0
  -18.0312  -26.0049   22.9012 H   0  0  0  0  0  0
  -19.7935  -30.7239   24.2287 H   0  0  0  0  0  0
  -17.5026  -31.6271   24.5162 H   0  0  0  0  0  0
  -15.5352  -30.3005   23.7638 H   0  0  0  0  0  0
  -15.8647  -28.0826   22.7088 H   0  0  0  0  0  0
  -24.5902  -30.7018   25.7732 H   0  0  0  0  0  0
  -24.8934  -32.2760   26.4992 H   0  0  0  0  0  0
  -25.8085  -30.8710   27.0159 H   0  0  0  0  0  0
  -26.2939  -29.6800   24.1142 H   0  0  0  0  0  0
  -27.4206  -29.7339   25.4517 H   0  0  0  0  0  0
  -27.8711  -30.4471   23.9202 H   0  0  0  0  0  0
  -27.2594  -33.3658   26.2089 H   0  0  0  0  0  0
  -28.3833  -32.6914   25.0390 H   0  0  0  0  0  0
  -28.0634  -31.8500   26.5484 H   0  0  0  0  0  0
  -28.2586  -38.0120   24.7540 H   0  0  0  0  0  0
  -28.1058  -36.2649   24.6313 H   0  0  0  0  0  0
  -27.2264  -37.1484   25.8874 H   0  0  0  0  0  0
  -20.9290  -29.8783   21.6978 H   0  0  0  0  0  0
  -26.0170  -38.2879   24.1394 H   0  0  0  0  0  0
  -31.5705  -20.2707   18.9114 H   0  0  0  0  0  0
  -27.9324  -20.0833   23.7346 H   0  0  0  0  0  0
  -26.6939  -18.8439   23.9885 H   0  0  0  0  0  0
  -26.7114  -19.7837   22.4885 H   0  0  0  0  0  0
  -30.6470  -16.7161   22.8758 H   0  0  0  0  0  0
  -31.8728  -16.5664   21.7013 H   0  0  0  0  0  0
  -27.8194  -22.5670   20.6099 H   0  0  0  0  0  0
  -29.2886  -22.8368   21.5333 H   0  0  0  0  0  0
  -28.6898  -25.4603   21.7312 H   0  0  0  0  0  0
  -27.2096  -25.1079   20.8721 H   0  0  0  0  0  0
  -30.2118  -22.2630   19.0233 H   0  0  0  0  0  0
  -29.2238  -15.2168   21.6898 H   0  0  0  0  0  0
  1 25  1  0  0  0
  1 30  2  0  0  0
  1 84  1  0  0  0
  2  3  1  0  0  0
  2 25  1  0  0  0
  2 88  1  0  0  0
  2 89  1  0  0  0
  3  4  1  0  0  0
  3 90  1  0  0  0
  3 91  1  0  0  0
  4  5  1  0  0  0
  4 92  1  0  0  0
  4 93  1  0  0  0
  5  6  1  0  0  0
  5 26  1  0  0  0
  5 94  1  0  0  0
  6 25  1  0  0  0
  6 95  1  0  0  0
  6 96  1  0  0  0
  7  8  2  0  0  0
  7 26  1  0  0  0
  7 29  1  0  0  0
  8  9  1  0  0  0
  8 22  1  0  0  0
  9 10  1  0  0  0
  9 27  2  0  0  0
 10 11  2  0  0  0
 10 15  1  0  0  0
 11 12  1  0  0  0
 11 97  1  0  0  0
 12 13  2  0  0  0
 12 98  1  0  0  0
 13 14  1  0  0  0
 13 31  1  0  0  0
 14 15  2  0  0  0
 14 99  1  0  0  0
 15100  1  0  0  0
 16 17  2  0  0  0
 16 21  1  0  0  0
 16 31  1  0  0  0
 17 18  1  0  0  0
 17101  1  0  0  0
 18 19  2  0  0  0
 18102  1  0  0  0
 19 20  1  0  0  0
 19 24  1  0  0  0
 20 21  2  0  0  0
 20103  1  0  0  0
 21 23  1  0  0  0
 22 28  1  0  0  0
 22 32  2  0  0  0
 26 27  1  0  0  0
 28104  1  0  0  0
 28105  1  0  0  0
 29106  1  0  0  0
 29107  1  0  0  0
 33 34  1  0  0  0
 33 66  1  0  0  0
 33 70  2  0  0  0
 34 36  1  0  0  0
 34 59  1  0  0  0
 34108  1  0  0  0
 35 44  2  0  0  0
 35 45  1  0  0  0
 35 68  1  0  0  0
 36 56  1  0  0  0
 36109  1  0  0  0
 37 39  1  0  0  0
 37 47  1  0  0  0
 37 66  1  0  0  0
 37110  1  0  0  0
 38 43  2  0  0  0
 38 46  1  0  0  0
 38 47  1  0  0  0
 39 64  1  0  0  0
 39 67  2  0  0  0
 40 52  1  0  0  0
 40 53  2  0  0  0
 40 58  1  0  0  0
 41111  1  0  0  0
 41112  1  0  0  0
 41113  1  0  0  0
 41 48  1  0  0  0
 42 43  1  0  0  0
 42 66  1  0  0  0
 42114  1  0  0  0
 42115  1  0  0  0
 43 44  1  0  0  0
 44116  1  0  0  0
 45 46  2  0  0  0
 45117  1  0  0  0
 46118  1  0  0  0
 47119  1  0  0  0
 47120  1  0  0  0
 48 56  1  0  0  0
 48 65  1  0  0  0
 48121  1  0  0  0
 49 50  1  0  0  0
 49 53  1  0  0  0
 49 64  1  0  0  0
 49122  1  0  0  0
 50 51  1  0  0  0
 50123  1  0  0  0
 50124  1  0  0  0
 51 52  1  0  0  0
 51125  1  0  0  0
 51126  1  0  0  0
 52127  1  0  0  0
 52128  1  0  0  0
 53 54  1  0  0  0
 54 55  2  0  0  0
 54129  1  0  0  0
 55 57  1  0  0  0
 55130  1  0  0  0
 56 69  2  0  0  0
 57 58  2  0  0  0
 57131  1  0  0  0
 58132  1  0  0  0
 59 60  1  0  0  0
 59 61  1  0  0  0
 59 62  1  0  0  0
 60133  1  0  0  0
 60134  1  0  0  0
 60135  1  0  0  0
 61136  1  0  0  0
 61137  1  0  0  0
 61138  1  0  0  0
 62139  1  0  0  0
 62140  1  0  0  0
 62141  1  0  0  0
 63 65  1  0  0  0
 63142  1  0  0  0
 63143  1  0  0  0
 63144  1  0  0  0
 64145  1  0  0  0
 65146  1  0  0  0
 68 81  1  0  0  0
 71 73  2  0  0  0
 71 75  1  0  0  0
 71147  1  0  0  0
 72 73  1  0  0  0
 72 74  2  0  0  0
 72 79  1  0  0  0
 73 87  1  0  0  0
 74 76  1  0  0  0
 74 82  1  0  0  0
 75 82  2  0  0  0
 75 83  1  0  0  0
 76 78  1  0  0  0
 76 85  2  0  0  0
 77 80  1  0  0  0
 77 81  1  0  0  0
 77 86  2  0  0  0
 78148  1  0  0  0
 78149  1  0  0  0
 78150  1  0  0  0
 79 84  1  0  0  0
 79151  1  0  0  0
 79152  1  0  0  0
 80 83  1  0  0  0
 80153  1  0  0  0
 80154  1  0  0  0
 81155  1  0  0  0
 81156  1  0  0  0
 83157  1  0  0  0
 84158  1  0  0  0
M  ISO  4   1 100  68 101  81 101  84 100
M  END
> <chiral flag>
0

> <version>
0

> <s_m_source_file>
/data/baiqing/PycharmProjects/Reinvent-master-3.2/result/LINK_invent/BTK/process_docking_weight1_custom_product_contain_oxygen_bond_distance_aromatic_linkinvent_7_9_3/rearranged_h_0162.sdf

> <i_m_source_file_index>
90

> <r_mmod_Potential_Energy-OPLS-2005>
-325.251892089844

> <r_mmod_Stretch_Energy-OPLS-2005>
40.6871070861816

> <r_mmod_Bend_Energy-OPLS-2005>
103.694236755371

> <r_mmod_Torsional_Energy-OPLS-2005>
213.832122802734

> <r_mmod_Improper_Torsional_Energy-OPLS-2005>
4.70634794235229

> <r_mmod_Van_der_Waal_Energy-OPLS-2005>
159.998443603516

> <r_mmod_Electrostatic_Energy-OPLS-2005>
-618.074035644531

> <r_mmod_Solvation_Energy-OPLS-2005>
-241.427459716797

> <b_mmod_Minimization_Converged-OPLS-2005>
0

> <r_mmod_RMS_Derivative-OPLS-2005>
1.23876142501831

$$$$
90
                    3D
 Structure written by MMmdl.
150158  0  0  1  0            999 V2000
  -30.6739  -14.8076   20.5226 C   0  0  0  0  0  0
  -30.4224  -12.5193   19.4999 C   0  0  0  0  0  0
  -29.5082  -12.4989   18.2561 C   0  0  0  0  0  0
  -28.0503  -12.2737   18.6866 C   0  0  0  0  0  0
  -27.6304  -13.2233   19.8338 C   0  0  2  0  0  0
  -28.6681  -13.2721   20.9820 C   0  0  0  0  0  0
  -25.2326  -13.7998   20.5552 C   0  0  0  0  0  0
  -24.1705  -13.0276   20.9244 C   0  0  0  0  0  0
  -24.6350  -11.6798   20.8766 C   0  0  0  0  0  0
  -23.9037  -10.4189   21.0405 C   0  0  0  0  0  0
  -24.3594   -9.4116   21.9196 C   0  0  0  0  0  0
  -23.6285   -8.2141   22.0765 C   0  0  0  0  0  0
  -22.4257   -8.0209   21.3541 C   0  0  0  0  0  0
  -21.9886   -9.0155   20.4618 C   0  0  0  0  0  0
  -22.7214  -10.2032   20.3050 C   0  0  0  0  0  0
  -21.6860   -6.0682   22.5291 C   0  0  0  0  0  0
  -21.3995   -6.5613   23.8203 C   0  0  0  0  0  0
  -21.3653   -5.6791   24.9191 C   0  0  0  0  0  0
  -21.6056   -4.3049   24.7265 C   0  0  0  0  0  0
  -21.8834   -3.8114   23.4398 C   0  0  0  0  0  0
  -21.9204   -4.6910   22.3442 C   0  0  0  0  0  0
  -22.7748  -13.5104   21.1922 C   0  0  0  0  0  0
  -22.1661   -4.2085   21.1012 F   0  0  0  0  0  0
  -21.5656   -3.4542   25.7779 F   0  0  0  0  0  0
  -29.9742  -13.6151   20.4067 N   0  0  0  0  0  0
  -26.2850  -12.9300   20.3215 N   0  0  0  0  0  0
  -25.9299  -11.6453   20.5804 N   0  0  0  0  0  0
  -22.0458  -12.8129   22.0551 N   0  0  0  0  0  0
  -25.3606  -15.1656   20.3590 N   0  0  0  0  0  0
  -31.8264  -14.8386   20.0805 O   0  0  0  0  0  0
  -21.6621   -6.8817   21.4247 O   0  0  0  0  0  0
  -22.3425  -14.5401   20.6739 O   0  0  0  0  0  0
  -24.6333  -31.8544   23.1948 C   0  0  0  0  0  0
  -25.9149  -32.4739   23.8302 C   0  0  1  0  0  0
  -27.2355  -27.2523   20.1516 C   0  0  0  0  0  0
  -25.5934  -33.8529   24.2219 N   0  0  0  0  0  0
  -23.4344  -30.4695   21.5407 C   0  0  2  0  0  0
  -24.8846  -28.9169   20.1141 C   0  0  0  0  0  0
  -22.7556  -29.4574   22.4939 C   0  0  0  0  0  0
  -18.0337  -28.1395   22.8496 C   0  0  0  0  0  0
  -24.1500  -36.7294   23.2642 C   0  0  0  0  0  0
  -25.9777  -30.7708   21.3740 C   0  0  0  0  0  0
  -26.0550  -29.3919   20.7172 C   0  0  0  0  0  0
  -27.2369  -28.5768   20.7094 C   0  0  0  0  0  0
  -26.0362  -26.8524   19.5158 C   0  0  0  0  0  0
  -24.8813  -27.6578   19.4984 C   0  0  0  0  0  0
  -23.6518  -29.7994   20.1582 C   0  0  0  0  0  0
  -25.4124  -36.3065   24.0322 C   0  0  1  0  0  0
  -20.5950  -28.3699   23.1289 C   0  0  2  0  0  0
  -20.6837  -26.9426   22.5447 C   0  0  0  0  0  0
  -19.5801  -26.6368   21.5240 C   0  0  0  0  0  0
  -18.1971  -26.7940   22.1613 C   0  0  0  0  0  0
  -19.1590  -28.8864   23.2848 C   0  0  0  0  0  0
  -18.9498  -30.1480   23.8856 C   0  0  0  0  0  0
  -17.6484  -30.6615   24.0536 C   0  0  0  0  0  0
  -25.9072  -34.9433   23.5081 C   0  0  0  0  0  0
  -16.5363  -29.9057   23.6367 C   0  0  0  0  0  0
  -16.7315  -28.6492   23.0394 C   0  0  0  0  0  0
  -26.4514  -31.6575   25.0704 C   0  0  0  0  0  0
  -25.3744  -31.3713   26.1425 C   0  0  0  0  0  0
  -27.0354  -30.2983   24.6207 C   0  0  0  0  0  0
  -27.6026  -32.4349   25.7501 C   0  0  0  0  0  0
  -27.5584  -37.1795   24.8461 C   0  0  0  0  0  0
  -21.4260  -29.3034   22.3679 N   0  0  0  0  0  0
  -26.4307  -37.3762   23.9408 N   0  0  0  0  0  0
  -24.6993  -31.0492   22.0950 N   0  0  0  0  0  0
  -23.4250  -28.8185   23.3102 O   0  0  0  0  0  0
  -28.3181  -26.3385   20.2463 O   0  0  0  0  0  0
  -26.5660  -34.8882   22.4659 O   0  0  0  0  0  0
  -23.5484  -32.1371   23.7251 O   0  0  0  0  0  0
  -28.1122  -17.0078   20.3987 C   0  0  0  0  0  0
  -27.7905  -19.4028   20.1281 C   0  0  0  0  0  0
  -27.2834  -18.0989   20.0861 C   0  0  0  0  0  0
  -29.4685  -17.1838   20.7181 C   0  0  0  0  0  0
  -29.1192  -19.6247   20.5179 C   0  0  0  0  0  0
  -29.0400  -23.7255   20.5400 C   0  0  0  0  0  0
  -28.6539  -22.1881   20.2719 C   0  0  0  0  0  0
  -28.0116  -24.8690   20.0585 C   0  0  0  0  0  0
  -29.9307  -18.5172   20.8012 N   0  0  0  0  0  0
  -30.1865  -15.9501   21.1662 N   0  0  0  0  0  0
  -29.5620  -21.0051   20.6327 N   0  0  0  0  0  0
  -30.0933  -24.0062   21.1220 O   0  0  0  0  0  0
  -25.9805  -17.9071   19.7696 F   0  0  0  0  0  0
  -31.4583  -12.6368   19.1806 H   0  0  0  0  0  0
  -30.3868  -11.5625   20.0228 H   0  0  0  0  0  0
  -29.8215  -11.7051   17.5755 H   0  0  0  0  0  0
  -29.6020  -13.4356   17.7046 H   0  0  0  0  0  0
  -27.9618  -11.2407   19.0247 H   0  0  0  0  0  0
  -27.3759  -12.3698   17.8340 H   0  0  0  0  0  0
  -27.5895  -14.2045   19.3676 H   0  0  0  0  0  0
  -28.7179  -12.3199   21.5088 H   0  0  0  0  0  0
  -28.3747  -14.0167   21.7242 H   0  0  0  0  0  0
  -25.2693   -9.5632   22.4827 H   0  0  0  0  0  0
  -24.0016   -7.4541   22.7513 H   0  0  0  0  0  0
  -21.0806   -8.8635   19.8923 H   0  0  0  0  0  0
  -22.3641  -10.9574   19.6189 H   0  0  0  0  0  0
  -21.1961   -7.6117   23.9682 H   0  0  0  0  0  0
  -21.1468   -6.0526   25.9087 H   0  0  0  0  0  0
  -22.0625   -2.7567   23.2931 H   0  0  0  0  0  0
  -22.4092  -11.9730   22.4799 H   0  0  0  0  0  0
  -21.1057  -13.1074   22.2767 H   0  0  0  0  0  0
  -24.5545  -15.7829   20.3824 H   0  0  0  0  0  0
  -26.1360  -15.5663   19.8511 H   0  0  0  0  0  0
  -26.7236  -32.5401   23.1061 H   0  0  0  0  0  0
  -25.0006  -33.9638   25.0313 H   0  0  0  0  0  0
  -22.7361  -31.2939   21.3920 H   0  0  0  0  0  0
  -23.3743  -35.9653   23.3318 H   0  0  0  0  0  0
  -24.3573  -36.8914   22.2051 H   0  0  0  0  0  0
  -23.7267  -37.6497   23.6673 H   0  0  0  0  0  0
  -26.1184  -31.5335   20.6053 H   0  0  0  0  0  0
  -26.8567  -30.8197   22.0049 H   0  0  0  0  0  0
  -28.1383  -28.9398   21.1817 H   0  0  0  0  0  0
  -25.9434  -25.8761   19.0638 H   0  0  0  0  0  0
  -23.9808  -27.2826   19.0296 H   0  0  0  0  0  0
  -23.7710  -30.5707   19.3984 H   0  0  0  0  0  0
  -22.7741  -29.2262   19.8564 H   0  0  0  0  0  0
  -25.1309  -36.1923   25.0821 H   0  0  0  0  0  0
  -20.9990  -28.3298   24.1443 H   0  0  0  0  0  0
  -20.5796  -26.2409   23.3739 H   0  0  0  0  0  0
  -21.6700  -26.7374   22.1205 H   0  0  0  0  0  0
  -19.6965  -25.6261   21.1349 H   0  0  0  0  0  0
  -19.6714  -27.3177   20.6769 H   0  0  0  0  0  0
  -17.4277  -26.6761   21.3973 H   0  0  0  0  0  0
  -18.0310  -26.0037   22.8930 H   0  0  0  0  0  0
  -19.8030  -30.7299   24.2122 H   0  0  0  0  0  0
  -17.4975  -31.6332   24.5075 H   0  0  0  0  0  0
  -15.5333  -30.2903   23.7629 H   0  0  0  0  0  0
  -15.8717  -28.0802   22.7142 H   0  0  0  0  0  0
  -24.5920  -30.7065   25.7761 H   0  0  0  0  0  0
  -24.8918  -32.2862   26.4859 H   0  0  0  0  0  0
  -25.8062  -30.8876   27.0196 H   0  0  0  0  0  0
  -26.2914  -29.6729   24.1249 H   0  0  0  0  0  0
  -27.4048  -29.7254   25.4728 H   0  0  0  0  0  0
  -27.8813  -30.4224   23.9440 H   0  0  0  0  0  0
  -27.2577  -33.3637   26.2048 H   0  0  0  0  0  0
  -28.3850  -32.6937   25.0367 H   0  0  0  0  0  0
  -28.0700  -31.8512   26.5435 H   0  0  0  0  0  0
  -28.2602  -38.0090   24.7498 H   0  0  0  0  0  0
  -28.1084  -36.2607   24.6333 H   0  0  0  0  0  0
  -27.2293  -37.1515   25.8863 H   0  0  0  0  0  0
  -20.9444  -29.8692   21.6823 H   0  0  0  0  0  0
  -26.0192  -38.2852   24.1385 H   0  0  0  0  0  0
  -27.6815  -16.0293   20.4527 H   0  0  0  0  0  0
  -27.1086  -20.2026   19.8842 H   0  0  0  0  0  0
  -28.4258  -22.1181   19.2039 H   0  0  0  0  0  0
  -27.7028  -22.0465   20.7918 H   0  0  0  0  0  0
  -27.0693  -24.6518   20.5722 H   0  0  0  0  0  0
  -27.8327  -24.6912   18.9945 H   0  0  0  0  0  0
  -30.9627  -16.2535   21.7327 H   0  0  0  0  0  0
  -30.5190  -21.2180   20.9048 H   0  0  0  0  0  0
  1 25  1  0  0  0
  1 30  2  0  0  0
  1 80  1  0  0  0
  2  3  1  0  0  0
  2 25  1  0  0  0
  2 84  1  0  0  0
  2 85  1  0  0  0
  3  4  1  0  0  0
  3 86  1  0  0  0
  3 87  1  0  0  0
  4  5  1  0  0  0
  4 88  1  0  0  0
  4 89  1  0  0  0
  5  6  1  0  0  0
  5 26  1  0  0  0
  5 90  1  0  0  0
  6 25  1  0  0  0
  6 91  1  0  0  0
  6 92  1  0  0  0
  7  8  2  0  0  0
  7 26  1  0  0  0
  7 29  1  0  0  0
  8  9  1  0  0  0
  8 22  1  0  0  0
  9 10  1  0  0  0
  9 27  2  0  0  0
 10 11  2  0  0  0
 10 15  1  0  0  0
 11 12  1  0  0  0
 11 93  1  0  0  0
 12 13  2  0  0  0
 12 94  1  0  0  0
 13 14  1  0  0  0
 13 31  1  0  0  0
 14 15  2  0  0  0
 14 95  1  0  0  0
 15 96  1  0  0  0
 16 17  2  0  0  0
 16 21  1  0  0  0
 16 31  1  0  0  0
 17 18  1  0  0  0
 17 97  1  0  0  0
 18 19  2  0  0  0
 18 98  1  0  0  0
 19 20  1  0  0  0
 19 24  1  0  0  0
 20 21  2  0  0  0
 20 99  1  0  0  0
 21 23  1  0  0  0
 22 28  1  0  0  0
 22 32  2  0  0  0
 26 27  1  0  0  0
 28100  1  0  0  0
 28101  1  0  0  0
 29102  1  0  0  0
 29103  1  0  0  0
 33 34  1  0  0  0
 33 66  1  0  0  0
 33 70  2  0  0  0
 34 36  1  0  0  0
 34 59  1  0  0  0
 34104  1  0  0  0
 35 44  2  0  0  0
 35 45  1  0  0  0
 35 68  1  0  0  0
 36 56  1  0  0  0
 36105  1  0  0  0
 37 39  1  0  0  0
 37 47  1  0  0  0
 37 66  1  0  0  0
 37106  1  0  0  0
 38 43  2  0  0  0
 38 46  1  0  0  0
 38 47  1  0  0  0
 39 64  1  0  0  0
 39 67  2  0  0  0
 40 52  1  0  0  0
 40 53  2  0  0  0
 40 58  1  0  0  0
 41107  1  0  0  0
 41108  1  0  0  0
 41109  1  0  0  0
 41 48  1  0  0  0
 42 43  1  0  0  0
 42 66  1  0  0  0
 42110  1  0  0  0
 42111  1  0  0  0
 43 44  1  0  0  0
 44112  1  0  0  0
 45 46  2  0  0  0
 45113  1  0  0  0
 46114  1  0  0  0
 47115  1  0  0  0
 47116  1  0  0  0
 48 56  1  0  0  0
 48 65  1  0  0  0
 48117  1  0  0  0
 49 50  1  0  0  0
 49 53  1  0  0  0
 49 64  1  0  0  0
 49118  1  0  0  0
 50 51  1  0  0  0
 50119  1  0  0  0
 50120  1  0  0  0
 51 52  1  0  0  0
 51121  1  0  0  0
 51122  1  0  0  0
 52123  1  0  0  0
 52124  1  0  0  0
 53 54  1  0  0  0
 54 55  2  0  0  0
 54125  1  0  0  0
 55 57  1  0  0  0
 55126  1  0  0  0
 56 69  2  0  0  0
 57 58  2  0  0  0
 57127  1  0  0  0
 58128  1  0  0  0
 59 60  1  0  0  0
 59 61  1  0  0  0
 59 62  1  0  0  0
 60129  1  0  0  0
 60130  1  0  0  0
 60131  1  0  0  0
 61132  1  0  0  0
 61133  1  0  0  0
 61134  1  0  0  0
 62135  1  0  0  0
 62136  1  0  0  0
 62137  1  0  0  0
 63 65  1  0  0  0
 63138  1  0  0  0
 63139  1  0  0  0
 63140  1  0  0  0
 64141  1  0  0  0
 65142  1  0  0  0
 68 78  1  0  0  0
 71 73  2  0  0  0
 71 74  1  0  0  0
 71143  1  0  0  0
 72 73  1  0  0  0
 72 75  2  0  0  0
 72144  1  0  0  0
 73 83  1  0  0  0
 74 79  2  0  0  0
 74 80  1  0  0  0
 75 79  1  0  0  0
 75 81  1  0  0  0
 76 77  1  0  0  0
 76 78  1  0  0  0
 76 82  2  0  0  0
 77 81  1  0  0  0
 77145  1  0  0  0
 77146  1  0  0  0
 78147  1  0  0  0
 78148  1  0  0  0
 80149  1  0  0  0
 81150  1  0  0  0
M  ISO  4   1 100  68 101  78 101  80 100
M  END
> <chiral flag>
0

> <version>
0

> <s_m_source_file>
/data/baiqing/PycharmProjects/Reinvent-master-3.2/result/LINK_invent/BTK/process_docking_weight1_custom_product_contain_oxygen_bond_distance_aromatic_linkinvent_7_9_3/rearranged_h_0162.sdf

> <i_m_source_file_index>
91

> <r_mmod_Potential_Energy-OPLS-2005>
24.7155323028564

> <r_mmod_Stretch_Energy-OPLS-2005>
142.141677856445

> <r_mmod_Bend_Energy-OPLS-2005>
211.178009033203

> <r_mmod_Torsional_Energy-OPLS-2005>
246.445663452148

> <r_mmod_Improper_Torsional_Energy-OPLS-2005>
9.57799434661865

> <r_mmod_Van_der_Waal_Energy-OPLS-2005>
146.384857177734

> <r_mmod_Electrostatic_Energy-OPLS-2005>
-598.700561523438

> <r_mmod_Solvation_Energy-OPLS-2005>
-243.876861572266

> <b_mmod_Minimization_Converged-OPLS-2005>
0

> <r_mmod_RMS_Derivative-OPLS-2005>
7.89260149002075

$$$$
91
                    3D
 Structure written by MMmdl.
169177  0  0  1  0            999 V2000
  -30.6123  -14.7940   20.4436 C   0  0  0  0  0  0
  -30.4371  -12.4941   19.4630 C   0  0  0  0  0  0
  -29.5077  -12.5024   18.2305 C   0  0  0  0  0  0
  -28.0367  -12.3176   18.6508 C   0  0  0  0  0  0
  -27.6343  -13.2341   19.8371 C   0  0  2  0  0  0
  -28.6868  -13.2073   20.9664 C   0  0  0  0  0  0
  -25.2508  -13.8192   20.5766 C   0  0  0  0  0  0
  -24.1792  -13.0432   20.9247 C   0  0  0  0  0  0
  -24.6372  -11.6909   20.8745 C   0  0  0  0  0  0
  -23.9041  -10.4289   21.0397 C   0  0  0  0  0  0
  -24.3600   -9.4209   21.9173 C   0  0  0  0  0  0
  -23.6286   -8.2240   22.0743 C   0  0  0  0  0  0
  -22.4272   -8.0264   21.3534 C   0  0  0  0  0  0
  -21.9897   -9.0230   20.4640 C   0  0  0  0  0  0
  -22.7210  -10.2119   20.3050 C   0  0  0  0  0  0
  -21.6855   -6.0712   22.5267 C   0  0  0  0  0  0
  -21.4011   -6.5618   23.8195 C   0  0  0  0  0  0
  -21.3671   -5.6781   24.9167 C   0  0  0  0  0  0
  -21.6057   -4.3042   24.7222 C   0  0  0  0  0  0
  -21.8820   -3.8125   23.4343 C   0  0  0  0  0  0
  -21.9194   -4.6940   22.3397 C   0  0  0  0  0  0
  -22.7808  -13.5221   21.1888 C   0  0  0  0  0  0
  -22.1662   -4.2120   21.0975 F   0  0  0  0  0  0
  -21.5643   -3.4531   25.7738 F   0  0  0  0  0  0
  -29.9727  -13.5735   20.3637 N   0  0  0  0  0  0
  -26.2908  -12.9398   20.3250 N   0  0  0  0  0  0
  -25.9301  -11.6537   20.5723 N   0  0  0  0  0  0
  -22.0437  -12.8216   22.0438 N   0  0  0  0  0  0
  -25.4206  -15.1920   20.4281 N   0  0  0  0  0  0
  -31.8289  -14.8286   20.2416 O   0  0  0  0  0  0
  -21.6647   -6.8855   21.4226 O   0  0  0  0  0  0
  -22.3496  -14.5516   20.6720 O   0  0  0  0  0  0
  -24.6336  -31.8533   23.1957 C   0  0  0  0  0  0
  -25.9161  -32.4743   23.8310 C   0  0  1  0  0  0
  -27.2129  -27.2340   20.1451 C   0  0  0  0  0  0
  -25.5957  -33.8542   24.2246 N   0  0  0  0  0  0
  -23.4304  -30.4733   21.5405 C   0  0  2  0  0  0
  -24.8760  -28.9083   20.1128 C   0  0  0  0  0  0
  -22.7513  -29.4592   22.4924 C   0  0  0  0  0  0
  -18.0299  -28.1391   22.8491 C   0  0  0  0  0  0
  -24.1474  -36.7259   23.2639 C   0  0  0  0  0  0
  -25.9769  -30.7562   21.3771 C   0  0  0  0  0  0
  -26.0481  -29.3738   20.7244 C   0  0  0  0  0  0
  -27.2216  -28.5509   20.7243 C   0  0  0  0  0  0
  -26.0253  -26.8404   19.4974 C   0  0  0  0  0  0
  -24.8714  -27.6514   19.4854 C   0  0  0  0  0  0
  -23.6485  -29.8010   20.1583 C   0  0  0  0  0  0
  -25.4104  -36.3061   24.0333 C   0  0  1  0  0  0
  -20.5901  -28.3700   23.1271 C   0  0  2  0  0  0
  -20.6783  -26.9418   22.5404 C   0  0  0  0  0  0
  -19.5755  -26.6388   21.5214 C   0  0  0  0  0  0
  -18.1939  -26.7939   22.1626 C   0  0  0  0  0  0
  -19.1551  -28.8866   23.2876 C   0  0  0  0  0  0
  -18.9469  -30.1470   23.8891 C   0  0  0  0  0  0
  -17.6462  -30.6592   24.0561 C   0  0  0  0  0  0
  -25.9055  -34.9438   23.5086 C   0  0  0  0  0  0
  -16.5356  -29.9082   23.6338 C   0  0  0  0  0  0
  -16.7285  -28.6499   23.0369 C   0  0  0  0  0  0
  -26.4513  -31.6586   25.0719 C   0  0  0  0  0  0
  -25.3730  -31.3750   26.1439 C   0  0  0  0  0  0
  -27.0369  -30.3005   24.6221 C   0  0  0  0  0  0
  -27.6058  -32.4337   25.7498 C   0  0  0  0  0  0
  -27.5575  -37.1784   24.8472 C   0  0  0  0  0  0
  -21.4221  -29.3042   22.3659 N   0  0  0  0  0  0
  -26.4275  -37.3772   23.9430 N   0  0  0  0  0  0
  -24.6998  -31.0469   22.0936 N   0  0  0  0  0  0
  -23.4201  -28.8157   23.3052 O   0  0  0  0  0  0
  -28.3086  -26.3376   20.1460 O   0  0  0  0  0  0
  -26.5611  -34.8928   22.4648 O   0  0  0  0  0  0
  -23.5490  -32.1365   23.7243 O   0  0  0  0  0  0
  -29.4072  -19.8261   20.4992 C   0  0  0  0  0  0
  -28.0078  -20.6858   18.7458 C   0  0  0  0  0  0
  -29.4251  -18.4881   19.9101 C   0  0  0  0  0  0
  -28.7997  -18.3617   18.6250 C   0  0  0  0  0  0
  -28.7551  -20.9832   19.9028 C   0  0  0  0  0  0
  -27.9449  -19.4063   18.1175 C   0  0  0  0  0  0
  -30.2487  -17.2969   20.5331 C   0  0  0  0  0  0
  -26.1375  -16.9270   16.5803 C   0  0  0  0  0  0
  -28.3936  -23.6259   19.9039 C   0  0  0  0  0  0
  -29.1805  -17.1589   17.7544 C   0  0  0  0  0  0
  -26.2396  -15.6620   15.7409 C   0  0  0  0  0  0
  -27.0960  -24.8153   21.8064 C   0  0  0  0  0  0
  -25.8851  -20.2182   16.9637 C   0  0  0  0  0  0
  -26.8960  -18.1648   16.0705 C   0  0  0  0  0  0
  -28.2581  -24.9633   20.8043 C   0  0  2  0  0  0
  -28.7489  -22.3831   20.4569 N   0  0  0  0  0  0
  -29.8418  -15.9615   20.4521 N   0  0  0  0  0  0
  -27.0235  -19.2864   17.0214 N   0  0  0  0  0  0
  -31.2962  -17.6056   21.1094 O   0  0  0  0  0  0
  -25.4845  -16.9404   17.6260 O   0  0  0  0  0  0
  -28.1929  -23.7504   18.6938 O   0  0  0  0  0  0
  -31.4708  -12.6378   19.1454 H   0  0  0  0  0  0
  -30.4109  -11.5300   19.9735 H   0  0  0  0  0  0
  -29.8019  -11.7179   17.5318 H   0  0  0  0  0  0
  -29.6176  -13.4483   17.6973 H   0  0  0  0  0  0
  -27.9085  -11.2727   18.9363 H   0  0  0  0  0  0
  -27.3750  -12.4811   17.7992 H   0  0  0  0  0  0
  -27.6137  -14.2460   19.4327 H   0  0  0  0  0  0
  -28.7448  -12.2205   21.4290 H   0  0  0  0  0  0
  -28.4215  -13.9072   21.7609 H   0  0  0  0  0  0
  -25.2739   -9.5702   22.4752 H   0  0  0  0  0  0
  -23.9993   -7.4646   22.7470 H   0  0  0  0  0  0
  -21.0824   -8.8734   19.8960 H   0  0  0  0  0  0
  -22.3640  -10.9649   19.6164 H   0  0  0  0  0  0
  -21.1986   -7.6127   23.9683 H   0  0  0  0  0  0
  -21.1510   -6.0518   25.9069 H   0  0  0  0  0  0
  -22.0595   -2.7585   23.2851 H   0  0  0  0  0  0
  -22.4036  -11.9890   22.4872 H   0  0  0  0  0  0
  -21.1039  -13.1232   22.2600 H   0  0  0  0  0  0
  -24.6352  -15.8285   20.5088 H   0  0  0  0  0  0
  -26.2185  -15.6243   19.9836 H   0  0  0  0  0  0
  -26.7229  -32.5383   23.1050 H   0  0  0  0  0  0
  -25.0171  -33.9666   25.0438 H   0  0  0  0  0  0
  -22.7283  -31.2962   21.3917 H   0  0  0  0  0  0
  -23.3754  -35.9573   23.3298 H   0  0  0  0  0  0
  -24.3564  -36.8876   22.2052 H   0  0  0  0  0  0
  -23.7201  -37.6453   23.6652 H   0  0  0  0  0  0
  -26.1175  -31.5099   20.6006 H   0  0  0  0  0  0
  -26.8538  -30.8079   22.0113 H   0  0  0  0  0  0
  -28.1221  -28.9034   21.2076 H   0  0  0  0  0  0
  -25.9848  -25.8749   19.0127 H   0  0  0  0  0  0
  -23.9770  -27.2914   18.9951 H   0  0  0  0  0  0
  -23.7750  -30.5733   19.3982 H   0  0  0  0  0  0
  -22.7643  -29.2353   19.8566 H   0  0  0  0  0  0
  -25.1280  -36.1902   25.0825 H   0  0  0  0  0  0
  -20.9999  -28.3273   24.1388 H   0  0  0  0  0  0
  -20.5689  -26.2309   23.3606 H   0  0  0  0  0  0
  -21.6650  -26.7442   22.1194 H   0  0  0  0  0  0
  -19.6901  -25.6294   21.1255 H   0  0  0  0  0  0
  -19.6693  -27.3183   20.6733 H   0  0  0  0  0  0
  -17.4210  -26.6712   21.4023 H   0  0  0  0  0  0
  -18.0327  -26.0072   22.9012 H   0  0  0  0  0  0
  -19.7941  -30.7300   24.2257 H   0  0  0  0  0  0
  -17.5014  -31.6278   24.5152 H   0  0  0  0  0  0
  -15.5356  -30.2980   23.7667 H   0  0  0  0  0  0
  -15.8692  -28.0811   22.7098 H   0  0  0  0  0  0
  -24.5911  -30.7087   25.7780 H   0  0  0  0  0  0
  -24.8913  -32.2919   26.4841 H   0  0  0  0  0  0
  -25.8046  -30.8957   27.0232 H   0  0  0  0  0  0
  -26.2960  -29.6747   24.1231 H   0  0  0  0  0  0
  -27.4033  -29.7285   25.4754 H   0  0  0  0  0  0
  -27.8844  -30.4289   23.9485 H   0  0  0  0  0  0
  -27.2662  -33.3646   26.2052 H   0  0  0  0  0  0
  -28.3879  -32.6882   25.0334 H   0  0  0  0  0  0
  -28.0711  -31.8481   26.5436 H   0  0  0  0  0  0
  -28.2586  -38.0091   24.7544 H   0  0  0  0  0  0
  -28.1081  -36.2625   24.6261 H   0  0  0  0  0  0
  -27.2308  -37.1392   25.8881 H   0  0  0  0  0  0
  -20.9427  -29.8744   21.6834 H   0  0  0  0  0  0
  -26.0151  -38.2841   24.1460 H   0  0  0  0  0  0
  -29.9526  -19.9688   21.4213 H   0  0  0  0  0  0
  -27.4538  -21.5025   18.3191 H   0  0  0  0  0  0
  -30.1523  -16.7382   18.0003 H   0  0  0  0  0  0
  -29.3521  -17.4654   16.7281 H   0  0  0  0  0  0
  -28.4528  -16.3524   17.8110 H   0  0  0  0  0  0
  -26.9085  -15.8186   14.8946 H   0  0  0  0  0  0
  -25.2600  -15.3779   15.3575 H   0  0  0  0  0  0
  -26.6319  -14.8422   16.3419 H   0  0  0  0  0  0
  -27.1733  -23.8822   22.3656 H   0  0  0  0  0  0
  -26.1270  -24.8064   21.3086 H   0  0  0  0  0  0
  -27.0961  -25.6260   22.5345 H   0  0  0  0  0  0
  -25.4832  -20.4473   17.9527 H   0  0  0  0  0  0
  -25.0446  -19.8140   16.3966 H   0  0  0  0  0  0
  -26.1707  -21.1517   16.4762 H   0  0  0  0  0  0
  -26.3168  -18.5193   15.2174 H   0  0  0  0  0  0
  -27.8355  -17.8912   15.6040 H   0  0  0  0  0  0
  -29.1660  -24.9553   21.4074 H   0  0  0  0  0  0
  -29.0251  -22.4508   21.4276 H   0  0  0  0  0  0
  -28.8635  -15.8293   20.2675 H   0  0  0  0  0  0
  1 25  1  0  0  0
  1 30  2  0  0  0
  1 87  1  0  0  0
  2  3  1  0  0  0
  2 25  1  0  0  0
  2 92  1  0  0  0
  2 93  1  0  0  0
  3  4  1  0  0  0
  3 94  1  0  0  0
  3 95  1  0  0  0
  4  5  1  0  0  0
  4 96  1  0  0  0
  4 97  1  0  0  0
  5  6  1  0  0  0
  5 26  1  0  0  0
  5 98  1  0  0  0
  6 25  1  0  0  0
  6 99  1  0  0  0
  6100  1  0  0  0
  7  8  2  0  0  0
  7 26  1  0  0  0
  7 29  1  0  0  0
  8  9  1  0  0  0
  8 22  1  0  0  0
  9 10  1  0  0  0
  9 27  2  0  0  0
 10 11  2  0  0  0
 10 15  1  0  0  0
 11 12  1  0  0  0
 11101  1  0  0  0
 12 13  2  0  0  0
 12102  1  0  0  0
 13 14  1  0  0  0
 13 31  1  0  0  0
 14 15  2  0  0  0
 14103  1  0  0  0
 15104  1  0  0  0
 16 17  2  0  0  0
 16 21  1  0  0  0
 16 31  1  0  0  0
 17 18  1  0  0  0
 17105  1  0  0  0
 18 19  2  0  0  0
 18106  1  0  0  0
 19 20  1  0  0  0
 19 24  1  0  0  0
 20 21  2  0  0  0
 20107  1  0  0  0
 21 23  1  0  0  0
 22 28  1  0  0  0
 22 32  2  0  0  0
 26 27  1  0  0  0
 28108  1  0  0  0
 28109  1  0  0  0
 29110  1  0  0  0
 29111  1  0  0  0
 33 34  1  0  0  0
 33 66  1  0  0  0
 33 70  2  0  0  0
 34 36  1  0  0  0
 34 59  1  0  0  0
 34112  1  0  0  0
 35 44  2  0  0  0
 35 45  1  0  0  0
 35 68  1  0  0  0
 36 56  1  0  0  0
 36113  1  0  0  0
 37 39  1  0  0  0
 37 47  1  0  0  0
 37 66  1  0  0  0
 37114  1  0  0  0
 38 43  2  0  0  0
 38 46  1  0  0  0
 38 47  1  0  0  0
 39 64  1  0  0  0
 39 67  2  0  0  0
 40 52  1  0  0  0
 40 53  2  0  0  0
 40 58  1  0  0  0
 41115  1  0  0  0
 41116  1  0  0  0
 41117  1  0  0  0
 41 48  1  0  0  0
 42 43  1  0  0  0
 42 66  1  0  0  0
 42118  1  0  0  0
 42119  1  0  0  0
 43 44  1  0  0  0
 44120  1  0  0  0
 45 46  2  0  0  0
 45121  1  0  0  0
 46122  1  0  0  0
 47123  1  0  0  0
 47124  1  0  0  0
 48 56  1  0  0  0
 48 65  1  0  0  0
 48125  1  0  0  0
 49 50  1  0  0  0
 49 53  1  0  0  0
 49 64  1  0  0  0
 49126  1  0  0  0
 50 51  1  0  0  0
 50127  1  0  0  0
 50128  1  0  0  0
 51 52  1  0  0  0
 51129  1  0  0  0
 51130  1  0  0  0
 52131  1  0  0  0
 52132  1  0  0  0
 53 54  1  0  0  0
 54 55  2  0  0  0
 54133  1  0  0  0
 55 57  1  0  0  0
 55134  1  0  0  0
 56 69  2  0  0  0
 57 58  2  0  0  0
 57135  1  0  0  0
 58136  1  0  0  0
 59 60  1  0  0  0
 59 61  1  0  0  0
 59 62  1  0  0  0
 60137  1  0  0  0
 60138  1  0  0  0
 60139  1  0  0  0
 61140  1  0  0  0
 61141  1  0  0  0
 61142  1  0  0  0
 62143  1  0  0  0
 62144  1  0  0  0
 62145  1  0  0  0
 63 65  1  0  0  0
 63146  1  0  0  0
 63147  1  0  0  0
 63148  1  0  0  0
 64149  1  0  0  0
 65150  1  0  0  0
 68 85  1  0  0  0
 71 73  2  0  0  0
 71 75  1  0  0  0
 71151  1  0  0  0
 72 75  2  0  0  0
 72 76  1  0  0  0
 72152  1  0  0  0
 73 74  1  0  0  0
 73 77  1  0  0  0
 74 76  2  0  0  0
 74 80  1  0  0  0
 75 86  1  0  0  0
 76 88  1  0  0  0
 77 87  1  0  0  0
 77 89  2  0  0  0
 78 81  1  0  0  0
 78 84  1  0  0  0
 78 90  2  0  0  0
 79 85  1  0  0  0
 79 86  1  0  0  0
 79 91  2  0  0  0
 80153  1  0  0  0
 80154  1  0  0  0
 80155  1  0  0  0
 81156  1  0  0  0
 81157  1  0  0  0
 81158  1  0  0  0
 82159  1  0  0  0
 82160  1  0  0  0
 82161  1  0  0  0
 82 85  1  0  0  0
 83 88  1  0  0  0
 83162  1  0  0  0
 83163  1  0  0  0
 83164  1  0  0  0
 84 88  1  0  0  0
 84165  1  0  0  0
 84166  1  0  0  0
 85167  1  0  0  0
 86168  1  0  0  0
 87169  1  0  0  0
M  ISO  4   1 100  68 101  85 101  87 100
M  END
> <chiral flag>
0

> <version>
0

> <s_m_source_file>
/data/baiqing/PycharmProjects/Reinvent-master-3.2/result/LINK_invent/BTK/process_docking_weight1_custom_product_contain_oxygen_bond_distance_aromatic_linkinvent_7_9_3/rearranged_h_0162.sdf

> <i_m_source_file_index>
92

> <r_mmod_Potential_Energy-OPLS-2005>
181.606185913086

> <r_mmod_Stretch_Energy-OPLS-2005>
157.677032470703

> <r_mmod_Bend_Energy-OPLS-2005>
215.856262207031

> <r_mmod_Torsional_Energy-OPLS-2005>
284.127685546875

> <r_mmod_Improper_Torsional_Energy-OPLS-2005>
9.75002288818359

> <r_mmod_Van_der_Waal_Energy-OPLS-2005>
156.911499023438

> <r_mmod_Electrostatic_Energy-OPLS-2005>
-473.221984863281

> <r_mmod_Solvation_Energy-OPLS-2005>
-276.108001708984

> <b_mmod_Minimization_Converged-OPLS-2005>
0

> <r_mmod_RMS_Derivative-OPLS-2005>
1.75670838356018

$$$$
92
                    3D
 Structure written by MMmdl.
158166  0  0  1  0            999 V2000
  -30.6476  -14.5683   20.5090 C   0  0  0  0  0  0
  -30.4241  -12.3426   19.4596 C   0  0  0  0  0  0
  -29.5081  -12.5182   18.2299 C   0  0  0  0  0  0
  -28.0286  -12.3639   18.6301 C   0  0  0  0  0  0
  -27.6580  -13.2183   19.8729 C   0  0  2  0  0  0
  -28.6969  -13.0394   21.0058 C   0  0  0  0  0  0
  -25.2562  -13.8195   20.5687 C   0  0  0  0  0  0
  -24.1833  -13.0454   20.9180 C   0  0  0  0  0  0
  -24.6407  -11.6933   20.8734 C   0  0  0  0  0  0
  -23.9086  -10.4306   21.0391 C   0  0  0  0  0  0
  -24.3636   -9.4211   21.9161 C   0  0  0  0  0  0
  -23.6307   -8.2255   22.0735 C   0  0  0  0  0  0
  -22.4278   -8.0288   21.3532 C   0  0  0  0  0  0
  -21.9926   -9.0256   20.4630 C   0  0  0  0  0  0
  -22.7272  -10.2134   20.3038 C   0  0  0  0  0  0
  -21.6851   -6.0743   22.5276 C   0  0  0  0  0  0
  -21.4031   -6.5638   23.8209 C   0  0  0  0  0  0
  -21.3682   -5.6770   24.9167 C   0  0  0  0  0  0
  -21.6047   -4.3040   24.7211 C   0  0  0  0  0  0
  -21.8827   -3.8140   23.4325 C   0  0  0  0  0  0
  -21.9204   -4.6963   22.3394 C   0  0  0  0  0  0
  -22.7853  -13.5235   21.1826 C   0  0  0  0  0  0
  -22.1659   -4.2151   21.0970 F   0  0  0  0  0  0
  -21.5634   -3.4522   25.7720 F   0  0  0  0  0  0
  -30.0276  -13.3506   20.4603 N   0  0  0  0  0  0
  -26.3006  -12.9385   20.3322 N   0  0  0  0  0  0
  -25.9330  -11.6541   20.5750 N   0  0  0  0  0  0
  -22.0489  -12.8233   22.0388 N   0  0  0  0  0  0
  -25.4239  -15.1918   20.4133 N   0  0  0  0  0  0
  -31.7830  -14.7436   20.0622 O   0  0  0  0  0  0
  -21.6658   -6.8876   21.4233 O   0  0  0  0  0  0
  -22.3533  -14.5527   20.6640 O   0  0  0  0  0  0
  -24.6185  -31.8639   23.2000 C   0  0  0  0  0  0
  -25.9054  -32.4792   23.8327 C   0  0  1  0  0  0
  -27.2563  -27.3810   20.1531 C   0  0  0  0  0  0
  -25.5902  -33.8591   24.2278 N   0  0  0  0  0  0
  -23.4097  -30.4820   21.5407 C   0  0  2  0  0  0
  -24.8635  -28.9336   20.1194 C   0  0  0  0  0  0
  -22.7452  -29.4634   22.4969 C   0  0  0  0  0  0
  -18.0302  -28.1345   22.8558 C   0  0  0  0  0  0
  -24.1488  -36.7295   23.2643 C   0  0  0  0  0  0
  -25.9416  -30.8211   21.3542 C   0  0  0  0  0  0
  -26.0206  -29.4459   20.7149 C   0  0  0  0  0  0
  -27.2123  -28.6786   20.7260 C   0  0  0  0  0  0
  -26.0735  -26.8915   19.5499 C   0  0  0  0  0  0
  -24.8850  -27.6550   19.5343 C   0  0  0  0  0  0
  -23.6233  -29.8020   20.1586 C   0  0  0  0  0  0
  -25.4107  -36.3092   24.0339 C   0  0  1  0  0  0
  -20.5896  -28.3624   23.1340 C   0  0  2  0  0  0
  -20.6792  -26.9348   22.5443 C   0  0  0  0  0  0
  -19.5738  -26.6359   21.5262 C   0  0  0  0  0  0
  -18.1917  -26.7914   22.1657 C   0  0  0  0  0  0
  -19.1551  -28.8808   23.2946 C   0  0  0  0  0  0
  -18.9475  -30.1438   23.8920 C   0  0  0  0  0  0
  -17.6466  -30.6572   24.0559 C   0  0  0  0  0  0
  -25.9023  -34.9465   23.5100 C   0  0  0  0  0  0
  -16.5361  -29.9066   23.6311 C   0  0  0  0  0  0
  -16.7290  -28.6461   23.0384 C   0  0  0  0  0  0
  -26.4468  -31.6581   25.0679 C   0  0  0  0  0  0
  -25.3741  -31.3736   26.1448 C   0  0  0  0  0  0
  -27.0302  -30.3026   24.6039 C   0  0  0  0  0  0
  -27.6013  -32.4324   25.7475 C   0  0  0  0  0  0
  -27.5573  -37.1803   24.8468 C   0  0  0  0  0  0
  -21.4161  -29.2995   22.3737 N   0  0  0  0  0  0
  -26.4284  -37.3789   23.9403 N   0  0  0  0  0  0
  -24.6748  -31.0728   22.0890 N   0  0  0  0  0  0
  -23.4233  -28.8217   23.3039 O   0  0  0  0  0  0
  -28.4495  -26.6621   20.2340 O   0  0  0  0  0  0
  -26.5613  -34.8948   22.4673 O   0  0  0  0  0  0
  -23.5366  -32.1398   23.7362 O   0  0  0  0  0  0
  -31.2189  -18.8090   20.9664 C   0  0  0  0  0  0
  -30.9661  -20.2020   21.1833 C   0  0  0  0  0  0
  -30.0455  -18.2258   20.5692 C   0  0  0  0  0  0
  -29.6365  -20.3805   20.9375 C   0  0  0  0  0  0
  -27.2980  -24.0374   21.6099 C   0  0  0  0  0  0
  -29.7245  -24.5334   22.0197 C   0  0  0  0  0  0
  -29.7071  -16.8499   19.9940 C   0  0  0  0  0  0
  -29.1138  -22.7724   20.2898 C   0  0  0  0  0  0
  -28.6015  -25.2735   19.8206 C   0  0  0  0  0  0
  -28.6830  -24.1535   20.9387 C   0  0  0  0  0  0
  -28.8888  -21.5668   21.1195 N   0  0  0  0  0  0
  -29.8518  -15.6223   20.8245 N   0  0  0  0  0  0
  -29.0464  -19.1912   20.5786 O   0  0  0  0  0  0
  -31.4714  -12.4345   19.1723 H   0  0  0  0  0  0
  -30.3160  -11.3380   19.8750 H   0  0  0  0  0  0
  -29.7675  -11.7907   17.4619 H   0  0  0  0  0  0
  -29.6685  -13.5035   17.7889 H   0  0  0  0  0  0
  -27.8595  -11.3076   18.8396 H   0  0  0  0  0  0
  -27.3812  -12.6131   17.7897 H   0  0  0  0  0  0
  -27.6863  -14.2609   19.5533 H   0  0  0  0  0  0
  -28.6795  -12.0136   21.3744 H   0  0  0  0  0  0
  -28.4497  -13.6676   21.8626 H   0  0  0  0  0  0
  -25.2790   -9.5709   22.4713 H   0  0  0  0  0  0
  -24.0028   -7.4674   22.7460 H   0  0  0  0  0  0
  -21.0845   -8.8781   19.8947 H   0  0  0  0  0  0
  -22.3721  -10.9658   19.6134 H   0  0  0  0  0  0
  -21.2010   -7.6140   23.9727 H   0  0  0  0  0  0
  -21.1505   -6.0490   25.9067 H   0  0  0  0  0  0
  -22.0585   -2.7605   23.2822 H   0  0  0  0  0  0
  -22.4110  -11.9930   22.4843 H   0  0  0  0  0  0
  -21.1082  -13.1219   22.2539 H   0  0  0  0  0  0
  -24.6515  -15.8378   20.5272 H   0  0  0  0  0  0
  -26.2742  -15.6424   20.1016 H   0  0  0  0  0  0
  -26.7144  -32.5514   23.1116 H   0  0  0  0  0  0
  -25.0112  -33.9724   25.0470 H   0  0  0  0  0  0
  -22.6972  -31.2979   21.3906 H   0  0  0  0  0  0
  -23.3737  -35.9637   23.3332 H   0  0  0  0  0  0
  -24.3610  -36.8870   22.2055 H   0  0  0  0  0  0
  -23.7264  -37.6520   23.6643 H   0  0  0  0  0  0
  -26.0599  -31.5773   20.5763 H   0  0  0  0  0  0
  -26.8301  -30.8864   21.9719 H   0  0  0  0  0  0
  -28.0992  -29.0782   21.1961 H   0  0  0  0  0  0
  -26.0351  -25.9099   19.1073 H   0  0  0  0  0  0
  -23.9903  -27.2370   19.0947 H   0  0  0  0  0  0
  -23.7416  -30.5746   19.3976 H   0  0  0  0  0  0
  -22.7463  -29.2239   19.8570 H   0  0  0  0  0  0
  -25.1294  -36.1929   25.0835 H   0  0  0  0  0  0
  -21.0022  -28.3189   24.1446 H   0  0  0  0  0  0
  -20.5733  -26.2219   23.3637 H   0  0  0  0  0  0
  -21.6653  -26.7414   22.1180 H   0  0  0  0  0  0
  -19.6873  -25.6288   21.1242 H   0  0  0  0  0  0
  -19.6653  -27.3228   20.6836 H   0  0  0  0  0  0
  -17.4211  -26.6748   21.4025 H   0  0  0  0  0  0
  -18.0225  -26.0041   22.9007 H   0  0  0  0  0  0
  -19.7951  -30.7261   24.2269 H   0  0  0  0  0  0
  -17.5017  -31.6259   24.5154 H   0  0  0  0  0  0
  -15.5354  -30.2965   23.7612 H   0  0  0  0  0  0
  -15.8699  -28.0759   22.7091 H   0  0  0  0  0  0
  -24.5902  -30.7061   25.7847 H   0  0  0  0  0  0
  -24.8956  -32.2930   26.4838 H   0  0  0  0  0  0
  -25.8139  -30.8987   27.0229 H   0  0  0  0  0  0
  -26.2845  -29.6803   24.1087 H   0  0  0  0  0  0
  -27.4109  -29.7228   25.4450 H   0  0  0  0  0  0
  -27.8656  -30.4362   23.9169 H   0  0  0  0  0  0
  -27.2575  -33.3616   26.2034 H   0  0  0  0  0  0
  -28.3871  -32.6886   25.0357 H   0  0  0  0  0  0
  -28.0636  -31.8467   26.5432 H   0  0  0  0  0  0
  -28.2592  -38.0090   24.7521 H   0  0  0  0  0  0
  -28.1076  -36.2642   24.6297 H   0  0  0  0  0  0
  -27.2322  -37.1456   25.8877 H   0  0  0  0  0  0
  -20.9312  -29.8693   21.6944 H   0  0  0  0  0  0
  -26.0159  -38.2856   24.1404 H   0  0  0  0  0  0
  -32.1659  -18.2938   21.0391 H   0  0  0  0  0  0
  -31.6732  -20.9596   21.4938 H   0  0  0  0  0  0
  -27.3172  -23.3925   22.4917 H   0  0  0  0  0  0
  -26.5542  -23.6402   20.9192 H   0  0  0  0  0  0
  -26.9439  -25.0130   21.9468 H   0  0  0  0  0  0
  -29.8253  -23.7492   22.7750 H   0  0  0  0  0  0
  -29.4430  -25.4471   22.5473 H   0  0  0  0  0  0
  -30.7187  -24.6846   21.5965 H   0  0  0  0  0  0
  -30.2776  -16.7233   19.0709 H   0  0  0  0  0  0
  -28.6694  -16.8677   19.6651 H   0  0  0  0  0  0
  -30.1569  -22.8188   19.9704 H   0  0  0  0  0  0
  -28.5432  -22.6362   19.3692 H   0  0  0  0  0  0
  -27.8776  -24.9824   19.0629 H   0  0  0  0  0  0
  -29.5490  -25.2557   19.2827 H   0  0  0  0  0  0
  -27.8995  -21.4029   21.2793 H   0  0  0  0  0  0
  -29.0158  -15.3658   21.3275 H   0  0  0  0  0  0
  1 25  1  0  0  0
  1 30  2  0  0  0
  1 82  1  0  0  0
  2  3  1  0  0  0
  2 25  1  0  0  0
  2 84  1  0  0  0
  2 85  1  0  0  0
  3  4  1  0  0  0
  3 86  1  0  0  0
  3 87  1  0  0  0
  4  5  1  0  0  0
  4 88  1  0  0  0
  4 89  1  0  0  0
  5  6  1  0  0  0
  5 26  1  0  0  0
  5 90  1  0  0  0
  6 25  1  0  0  0
  6 91  1  0  0  0
  6 92  1  0  0  0
  7  8  2  0  0  0
  7 26  1  0  0  0
  7 29  1  0  0  0
  8  9  1  0  0  0
  8 22  1  0  0  0
  9 10  1  0  0  0
  9 27  2  0  0  0
 10 11  2  0  0  0
 10 15  1  0  0  0
 11 12  1  0  0  0
 11 93  1  0  0  0
 12 13  2  0  0  0
 12 94  1  0  0  0
 13 14  1  0  0  0
 13 31  1  0  0  0
 14 15  2  0  0  0
 14 95  1  0  0  0
 15 96  1  0  0  0
 16 17  2  0  0  0
 16 21  1  0  0  0
 16 31  1  0  0  0
 17 18  1  0  0  0
 17 97  1  0  0  0
 18 19  2  0  0  0
 18 98  1  0  0  0
 19 20  1  0  0  0
 19 24  1  0  0  0
 20 21  2  0  0  0
 20 99  1  0  0  0
 21 23  1  0  0  0
 22 28  1  0  0  0
 22 32  2  0  0  0
 26 27  1  0  0  0
 28100  1  0  0  0
 28101  1  0  0  0
 29102  1  0  0  0
 29103  1  0  0  0
 33 34  1  0  0  0
 33 66  1  0  0  0
 33 70  2  0  0  0
 34 36  1  0  0  0
 34 59  1  0  0  0
 34104  1  0  0  0
 35 44  2  0  0  0
 35 45  1  0  0  0
 35 68  1  0  0  0
 36 56  1  0  0  0
 36105  1  0  0  0
 37 39  1  0  0  0
 37 47  1  0  0  0
 37 66  1  0  0  0
 37106  1  0  0  0
 38 43  2  0  0  0
 38 46  1  0  0  0
 38 47  1  0  0  0
 39 64  1  0  0  0
 39 67  2  0  0  0
 40 52  1  0  0  0
 40 53  2  0  0  0
 40 58  1  0  0  0
 41107  1  0  0  0
 41108  1  0  0  0
 41109  1  0  0  0
 41 48  1  0  0  0
 42 43  1  0  0  0
 42 66  1  0  0  0
 42110  1  0  0  0
 42111  1  0  0  0
 43 44  1  0  0  0
 44112  1  0  0  0
 45 46  2  0  0  0
 45113  1  0  0  0
 46114  1  0  0  0
 47115  1  0  0  0
 47116  1  0  0  0
 48 56  1  0  0  0
 48 65  1  0  0  0
 48117  1  0  0  0
 49 50  1  0  0  0
 49 53  1  0  0  0
 49 64  1  0  0  0
 49118  1  0  0  0
 50 51  1  0  0  0
 50119  1  0  0  0
 50120  1  0  0  0
 51 52  1  0  0  0
 51121  1  0  0  0
 51122  1  0  0  0
 52123  1  0  0  0
 52124  1  0  0  0
 53 54  1  0  0  0
 54 55  2  0  0  0
 54125  1  0  0  0
 55 57  1  0  0  0
 55126  1  0  0  0
 56 69  2  0  0  0
 57 58  2  0  0  0
 57127  1  0  0  0
 58128  1  0  0  0
 59 60  1  0  0  0
 59 61  1  0  0  0
 59 62  1  0  0  0
 60129  1  0  0  0
 60130  1  0  0  0
 60131  1  0  0  0
 61132  1  0  0  0
 61133  1  0  0  0
 61134  1  0  0  0
 62135  1  0  0  0
 62136  1  0  0  0
 62137  1  0  0  0
 63 65  1  0  0  0
 63138  1  0  0  0
 63139  1  0  0  0
 63140  1  0  0  0
 64141  1  0  0  0
 65142  1  0  0  0
 68 79  1  0  0  0
 71 72  1  0  0  0
 71 73  2  0  0  0
 71143  1  0  0  0
 72 74  2  0  0  0
 72144  1  0  0  0
 73 77  1  0  0  0
 73 83  1  0  0  0
 74 81  1  0  0  0
 74 83  1  0  0  0
 75145  1  0  0  0
 75146  1  0  0  0
 75147  1  0  0  0
 75 80  1  0  0  0
 76 80  1  0  0  0
 76148  1  0  0  0
 76149  1  0  0  0
 76150  1  0  0  0
 77 82  1  0  0  0
 77151  1  0  0  0
 77152  1  0  0  0
 78 80  1  0  0  0
 78 81  1  0  0  0
 78153  1  0  0  0
 78154  1  0  0  0
 79 80  1  0  0  0
 79155  1  0  0  0
 79156  1  0  0  0
 81157  1  0  0  0
 82158  1  0  0  0
M  ISO  4   1 100  68 101  79 101  82 100
M  END
> <chiral flag>
0

> <version>
0

> <s_m_source_file>
/data/baiqing/PycharmProjects/Reinvent-master-3.2/result/LINK_invent/BTK/process_docking_weight1_custom_product_contain_oxygen_bond_distance_aromatic_linkinvent_7_9_3/rearranged_h_0162.sdf

> <i_m_source_file_index>
93

> <r_mmod_Potential_Energy-OPLS-2005>
-87.6079559326172

> <r_mmod_Stretch_Energy-OPLS-2005>
55.0501747131348

> <r_mmod_Bend_Energy-OPLS-2005>
139.994903564453

> <r_mmod_Torsional_Energy-OPLS-2005>
254.797973632812

> <r_mmod_Improper_Torsional_Energy-OPLS-2005>
13.4171752929688

> <r_mmod_Van_der_Waal_Energy-OPLS-2005>
119.054595947266

> <r_mmod_Electrostatic_Energy-OPLS-2005>
-483.014709472656

> <r_mmod_Solvation_Energy-OPLS-2005>
-215.911239624023

> <b_mmod_Minimization_Converged-OPLS-2005>
0

> <r_mmod_RMS_Derivative-OPLS-2005>
4.49805498123169

$$$$
93
                    3D
 Structure written by MMmdl.
153161  0  0  1  0            999 V2000
  -30.6550  -14.7658   20.4292 C   0  0  0  0  0  0
  -30.4178  -12.4591   19.5004 C   0  0  0  0  0  0
  -29.5146  -12.5041   18.2500 C   0  0  0  0  0  0
  -28.0407  -12.3304   18.6550 C   0  0  0  0  0  0
  -27.6408  -13.2420   19.8459 C   0  0  2  0  0  0
  -28.6815  -13.2214   20.9883 C   0  0  0  0  0  0
  -25.2502  -13.8228   20.5684 C   0  0  0  0  0  0
  -24.1801  -13.0454   20.9189 C   0  0  0  0  0  0
  -24.6395  -11.6923   20.8728 C   0  0  0  0  0  0
  -23.9074  -10.4290   21.0381 C   0  0  0  0  0  0
  -24.3635   -9.4212   21.9154 C   0  0  0  0  0  0
  -23.6310   -8.2252   22.0730 C   0  0  0  0  0  0
  -22.4284   -8.0277   21.3531 C   0  0  0  0  0  0
  -21.9920   -9.0246   20.4634 C   0  0  0  0  0  0
  -22.7244  -10.2127   20.3030 C   0  0  0  0  0  0
  -21.6868   -6.0733   22.5260 C   0  0  0  0  0  0
  -21.4031   -6.5632   23.8201 C   0  0  0  0  0  0
  -21.3665   -5.6780   24.9165 C   0  0  0  0  0  0
  -21.6042   -4.3040   24.7220 C   0  0  0  0  0  0
  -21.8826   -3.8140   23.4341 C   0  0  0  0  0  0
  -21.9202   -4.6956   22.3396 C   0  0  0  0  0  0
  -22.7815  -13.5214   21.1834 C   0  0  0  0  0  0
  -22.1663   -4.2138   21.0976 F   0  0  0  0  0  0
  -21.5640   -3.4518   25.7745 F   0  0  0  0  0  0
  -29.9878  -13.5548   20.4087 N   0  0  0  0  0  0
  -26.2934  -12.9447   20.3259 N   0  0  0  0  0  0
  -25.9337  -11.6577   20.5768 N   0  0  0  0  0  0
  -22.0483  -12.8222   22.0422 N   0  0  0  0  0  0
  -25.4197  -15.1959   20.4097 N   0  0  0  0  0  0
  -31.8463  -14.7567   20.1040 O   0  0  0  0  0  0
  -21.6646   -6.8878   21.4223 O   0  0  0  0  0  0
  -22.3494  -14.5504   20.6669 O   0  0  0  0  0  0
  -24.6323  -31.8519   23.1975 C   0  0  0  0  0  0
  -25.9150  -32.4745   23.8332 C   0  0  1  0  0  0
  -27.1950  -27.2214   20.1328 C   0  0  0  0  0  0
  -25.5953  -33.8556   24.2246 N   0  0  0  0  0  0
  -23.4323  -30.4774   21.5408 C   0  0  2  0  0  0
  -24.8800  -28.9300   20.0992 C   0  0  0  0  0  0
  -22.7532  -29.4585   22.4881 C   0  0  0  0  0  0
  -18.0294  -28.1383   22.8482 C   0  0  0  0  0  0
  -24.1490  -36.7275   23.2639 C   0  0  0  0  0  0
  -25.9840  -30.7487   21.3916 C   0  0  0  0  0  0
  -26.0497  -29.3724   20.7288 C   0  0  0  0  0  0
  -27.2086  -28.5242   20.7452 C   0  0  0  0  0  0
  -26.0261  -26.8961   19.4117 C   0  0  0  0  0  0
  -24.8746  -27.7012   19.4281 C   0  0  0  0  0  0
  -23.6526  -29.8192   20.1535 C   0  0  0  0  0  0
  -25.4115  -36.3072   24.0322 C   0  0  1  0  0  0
  -20.5907  -28.3693   23.1259 C   0  0  2  0  0  0
  -20.6780  -26.9404   22.5412 C   0  0  0  0  0  0
  -19.5754  -26.6369   21.5212 C   0  0  0  0  0  0
  -18.1929  -26.7927   22.1617 C   0  0  0  0  0  0
  -19.1554  -28.8847   23.2870 C   0  0  0  0  0  0
  -18.9474  -30.1457   23.8876 C   0  0  0  0  0  0
  -17.6479  -30.6578   24.0551 C   0  0  0  0  0  0
  -25.9060  -34.9439   23.5081 C   0  0  0  0  0  0
  -16.5365  -29.9076   23.6344 C   0  0  0  0  0  0
  -16.7281  -28.6497   23.0347 C   0  0  0  0  0  0
  -26.4504  -31.6593   25.0737 C   0  0  0  0  0  0
  -25.3717  -31.3770   26.1454 C   0  0  0  0  0  0
  -27.0346  -30.2994   24.6268 C   0  0  0  0  0  0
  -27.6057  -32.4347   25.7482 C   0  0  0  0  0  0
  -27.5587  -37.1789   24.8470 C   0  0  0  0  0  0
  -21.4232  -29.3031   22.3638 N   0  0  0  0  0  0
  -26.4291  -37.3776   23.9426 N   0  0  0  0  0  0
  -24.7022  -31.0469   22.0966 N   0  0  0  0  0  0
  -23.4214  -28.8101   23.2964 O   0  0  0  0  0  0
  -28.2297  -26.2513   20.2588 O   0  0  0  0  0  0
  -26.5628  -34.8907   22.4655 O   0  0  0  0  0  0
  -23.5469  -32.1359   23.7254 O   0  0  0  0  0  0
  -29.7013  -18.6119   20.5709 C   0  0  0  0  0  0
  -29.6115  -19.1830   21.8312 C   0  0  0  0  0  0
  -29.1887  -20.8339   20.4292 C   0  0  0  0  0  0
  -30.3396  -17.2313   20.1433 C   0  0  0  0  0  0
  -29.9105  -18.6409   23.1918 C   0  0  0  0  0  0
  -26.7182  -24.3439   21.0171 C   0  0  0  0  0  0
  -29.0701  -23.6365   20.4815 C   0  0  0  0  0  0
  -27.9318  -24.7531   20.1452 C   0  0  2  0  0  0
  -29.4042  -19.7122   19.6971 N   0  0  0  0  0  0
  -28.8736  -22.1891   20.0328 N   0  0  0  0  0  0
  -29.9704  -15.9717   20.6289 N   0  0  0  0  0  0
  -31.2093  -17.3256   19.2687 O   0  0  0  0  0  0
  -29.3028  -20.5522   21.7561 O   0  0  0  0  0  0
  -31.4646  -12.5380   19.2038 H   0  0  0  0  0  0
  -30.3329  -11.4944   20.0016 H   0  0  0  0  0  0
  -29.8011  -11.7191   17.5477 H   0  0  0  0  0  0
  -29.6479  -13.4503   17.7264 H   0  0  0  0  0  0
  -27.8991  -11.2842   18.9264 H   0  0  0  0  0  0
  -27.3869  -12.5112   17.8002 H   0  0  0  0  0  0
  -27.6270  -14.2562   19.4471 H   0  0  0  0  0  0
  -28.7138  -12.2407   21.4661 H   0  0  0  0  0  0
  -28.4120  -13.9342   21.7685 H   0  0  0  0  0  0
  -25.2785   -9.5705   22.4716 H   0  0  0  0  0  0
  -24.0023   -7.4666   22.7447 H   0  0  0  0  0  0
  -21.0853   -8.8743   19.8965 H   0  0  0  0  0  0
  -22.3663  -10.9654   19.6149 H   0  0  0  0  0  0
  -21.1999   -7.6132   23.9707 H   0  0  0  0  0  0
  -21.1495   -6.0503   25.9073 H   0  0  0  0  0  0
  -22.0603   -2.7590   23.2835 H   0  0  0  0  0  0
  -22.4131  -11.9925   22.4845 H   0  0  0  0  0  0
  -21.1088  -13.1206   22.2594 H   0  0  0  0  0  0
  -24.6500  -15.8481   20.5157 H   0  0  0  0  0  0
  -26.2611  -15.6324   20.0567 H   0  0  0  0  0  0
  -26.7213  -32.5356   23.1072 H   0  0  0  0  0  0
  -25.0152  -33.9699   25.0423 H   0  0  0  0  0  0
  -22.7319  -31.3018   21.3974 H   0  0  0  0  0  0
  -23.3759  -35.9608   23.3294 H   0  0  0  0  0  0
  -24.3594  -36.8887   22.2062 H   0  0  0  0  0  0
  -23.7210  -37.6459   23.6658 H   0  0  0  0  0  0
  -26.1417  -31.5075   20.6240 H   0  0  0  0  0  0
  -26.8558  -30.7921   22.0329 H   0  0  0  0  0  0
  -28.0891  -28.8382   21.2866 H   0  0  0  0  0  0
  -25.9594  -25.9704   18.8601 H   0  0  0  0  0  0
  -23.9866  -27.3646   18.9102 H   0  0  0  0  0  0
  -23.7841  -30.5991   19.4032 H   0  0  0  0  0  0
  -22.7693  -29.2592   19.8404 H   0  0  0  0  0  0
  -25.1298  -36.1937   25.0814 H   0  0  0  0  0  0
  -21.0008  -28.3257   24.1375 H   0  0  0  0  0  0
  -20.5674  -26.2290   23.3617 H   0  0  0  0  0  0
  -21.6640  -26.7411   22.1200 H   0  0  0  0  0  0
  -19.6910  -25.6274   21.1233 H   0  0  0  0  0  0
  -19.6683  -27.3183   20.6741 H   0  0  0  0  0  0
  -17.4209  -26.6680   21.4019 H   0  0  0  0  0  0
  -18.0324  -26.0073   22.9010 H   0  0  0  0  0  0
  -19.7943  -30.7280   24.2223 H   0  0  0  0  0  0
  -17.5017  -31.6252   24.5161 H   0  0  0  0  0  0
  -15.5355  -30.2958   23.7670 H   0  0  0  0  0  0
  -15.8684  -28.0800   22.7069 H   0  0  0  0  0  0
  -24.5899  -30.7114   25.7786 H   0  0  0  0  0  0
  -24.8902  -32.2946   26.4848 H   0  0  0  0  0  0
  -25.8017  -30.8966   27.0252 H   0  0  0  0  0  0
  -26.2934  -29.6741   24.1273 H   0  0  0  0  0  0
  -27.3980  -29.7280   25.4820 H   0  0  0  0  0  0
  -27.8851  -30.4247   23.9559 H   0  0  0  0  0  0
  -27.2673  -33.3661   26.2037 H   0  0  0  0  0  0
  -28.3848  -32.6880   25.0282 H   0  0  0  0  0  0
  -28.0758  -31.8494   26.5395 H   0  0  0  0  0  0
  -28.2598  -38.0095   24.7528 H   0  0  0  0  0  0
  -28.1072  -36.2619   24.6269 H   0  0  0  0  0  0
  -27.2309  -37.1411   25.8871 H   0  0  0  0  0  0
  -20.9424  -29.8784   21.6869 H   0  0  0  0  0  0
  -26.0166  -38.2849   24.1425 H   0  0  0  0  0  0
  -29.1912  -17.8725   23.4784 H   0  0  0  0  0  0
  -29.8817  -19.4290   23.9456 H   0  0  0  0  0  0
  -30.9057  -18.1955   23.2166 H   0  0  0  0  0  0
  -26.5666  -23.2641   20.9934 H   0  0  0  0  0  0
  -25.7669  -24.7569   20.6922 H   0  0  0  0  0  0
  -26.8643  -24.6303   22.0579 H   0  0  0  0  0  0
  -29.2676  -23.6374   21.5546 H   0  0  0  0  0  0
  -29.9975  -23.9758   20.0180 H   0  0  0  0  0  0
  -27.6756  -24.5880   19.0978 H   0  0  0  0  0  0
  -28.6476  -22.1741   19.0448 H   0  0  0  0  0  0
  -29.0999  -15.9324   21.1313 H   0  0  0  0  0  0
  1 25  1  0  0  0
  1 30  2  0  0  0
  1 81  1  0  0  0
  2  3  1  0  0  0
  2 25  1  0  0  0
  2 84  1  0  0  0
  2 85  1  0  0  0
  3  4  1  0  0  0
  3 86  1  0  0  0
  3 87  1  0  0  0
  4  5  1  0  0  0
  4 88  1  0  0  0
  4 89  1  0  0  0
  5  6  1  0  0  0
  5 26  1  0  0  0
  5 90  1  0  0  0
  6 25  1  0  0  0
  6 91  1  0  0  0
  6 92  1  0  0  0
  7  8  2  0  0  0
  7 26  1  0  0  0
  7 29  1  0  0  0
  8  9  1  0  0  0
  8 22  1  0  0  0
  9 10  1  0  0  0
  9 27  2  0  0  0
 10 11  2  0  0  0
 10 15  1  0  0  0
 11 12  1  0  0  0
 11 93  1  0  0  0
 12 13  2  0  0  0
 12 94  1  0  0  0
 13 14  1  0  0  0
 13 31  1  0  0  0
 14 15  2  0  0  0
 14 95  1  0  0  0
 15 96  1  0  0  0
 16 17  2  0  0  0
 16 21  1  0  0  0
 16 31  1  0  0  0
 17 18  1  0  0  0
 17 97  1  0  0  0
 18 19  2  0  0  0
 18 98  1  0  0  0
 19 20  1  0  0  0
 19 24  1  0  0  0
 20 21  2  0  0  0
 20 99  1  0  0  0
 21 23  1  0  0  0
 22 28  1  0  0  0
 22 32  2  0  0  0
 26 27  1  0  0  0
 28100  1  0  0  0
 28101  1  0  0  0
 29102  1  0  0  0
 29103  1  0  0  0
 33 34  1  0  0  0
 33 66  1  0  0  0
 33 70  2  0  0  0
 34 36  1  0  0  0
 34 59  1  0  0  0
 34104  1  0  0  0
 35 44  2  0  0  0
 35 45  1  0  0  0
 35 68  1  0  0  0
 36 56  1  0  0  0
 36105  1  0  0  0
 37 39  1  0  0  0
 37 47  1  0  0  0
 37 66  1  0  0  0
 37106  1  0  0  0
 38 43  2  0  0  0
 38 46  1  0  0  0
 38 47  1  0  0  0
 39 64  1  0  0  0
 39 67  2  0  0  0
 40 52  1  0  0  0
 40 53  2  0  0  0
 40 58  1  0  0  0
 41107  1  0  0  0
 41108  1  0  0  0
 41109  1  0  0  0
 41 48  1  0  0  0
 42 43  1  0  0  0
 42 66  1  0  0  0
 42110  1  0  0  0
 42111  1  0  0  0
 43 44  1  0  0  0
 44112  1  0  0  0
 45 46  2  0  0  0
 45113  1  0  0  0
 46114  1  0  0  0
 47115  1  0  0  0
 47116  1  0  0  0
 48 56  1  0  0  0
 48 65  1  0  0  0
 48117  1  0  0  0
 49 50  1  0  0  0
 49 53  1  0  0  0
 49 64  1  0  0  0
 49118  1  0  0  0
 50 51  1  0  0  0
 50119  1  0  0  0
 50120  1  0  0  0
 51 52  1  0  0  0
 51121  1  0  0  0
 51122  1  0  0  0
 52123  1  0  0  0
 52124  1  0  0  0
 53 54  1  0  0  0
 54 55  2  0  0  0
 54125  1  0  0  0
 55 57  1  0  0  0
 55126  1  0  0  0
 56 69  2  0  0  0
 57 58  2  0  0  0
 57127  1  0  0  0
 58128  1  0  0  0
 59 60  1  0  0  0
 59 61  1  0  0  0
 59 62  1  0  0  0
 60129  1  0  0  0
 60130  1  0  0  0
 60131  1  0  0  0
 61132  1  0  0  0
 61133  1  0  0  0
 61134  1  0  0  0
 62135  1  0  0  0
 62136  1  0  0  0
 62137  1  0  0  0
 63 65  1  0  0  0
 63138  1  0  0  0
 63139  1  0  0  0
 63140  1  0  0  0
 64141  1  0  0  0
 65142  1  0  0  0
 68 78  1  0  0  0
 71 72  2  0  0  0
 71 74  1  0  0  0
 71 79  1  0  0  0
 72 75  1  0  0  0
 72 83  1  0  0  0
 73 79  2  0  0  0
 73 80  1  0  0  0
 73 83  1  0  0  0
 74 81  1  0  0  0
 74 82  2  0  0  0
 75143  1  0  0  0
 75144  1  0  0  0
 75145  1  0  0  0
 76146  1  0  0  0
 76147  1  0  0  0
 76148  1  0  0  0
 76 78  1  0  0  0
 77 78  1  0  0  0
 77 80  1  0  0  0
 77149  1  0  0  0
 77150  1  0  0  0
 78151  1  0  0  0
 80152  1  0  0  0
 81153  1  0  0  0
M  ISO  4   1 100  68 101  78 101  81 100
M  END
> <chiral flag>
0

> <version>
0

> <s_m_source_file>
/data/baiqing/PycharmProjects/Reinvent-master-3.2/result/LINK_invent/BTK/process_docking_weight1_custom_product_contain_oxygen_bond_distance_aromatic_linkinvent_7_9_3/rearranged_h_0162.sdf

> <i_m_source_file_index>
94

> <r_mmod_Potential_Energy-OPLS-2005>
37.6346054077148

> <r_mmod_Stretch_Energy-OPLS-2005>
135.018417358398

> <r_mmod_Bend_Energy-OPLS-2005>
191.162231445312

> <r_mmod_Torsional_Energy-OPLS-2005>
246.358428955078

> <r_mmod_Improper_Torsional_Energy-OPLS-2005>
7.54806566238403

> <r_mmod_Van_der_Waal_Energy-OPLS-2005>
130.031372070312

> <r_mmod_Electrostatic_Energy-OPLS-2005>
-537.983642578125

> <r_mmod_Solvation_Energy-OPLS-2005>
-247.881530761719

> <b_mmod_Minimization_Converged-OPLS-2005>
0

> <r_mmod_RMS_Derivative-OPLS-2005>
3.29871153831482

$$$$
94
                    3D
 Structure written by MMmdl.
166175  0  0  1  0            999 V2000
  -30.6180  -14.7420   20.4869 C   0  0  0  0  0  0
  -30.4355  -12.4554   19.4905 C   0  0  0  0  0  0
  -29.5139  -12.5302   18.2504 C   0  0  0  0  0  0
  -28.0382  -12.3590   18.6569 C   0  0  0  0  0  0
  -27.6498  -13.2409   19.8739 C   0  0  2  0  0  0
  -28.6929  -13.1468   21.0120 C   0  0  0  0  0  0
  -25.2504  -13.8209   20.5709 C   0  0  0  0  0  0
  -24.1810  -13.0440   20.9193 C   0  0  0  0  0  0
  -24.6412  -11.6923   20.8734 C   0  0  0  0  0  0
  -23.9084  -10.4298   21.0391 C   0  0  0  0  0  0
  -24.3635   -9.4204   21.9162 C   0  0  0  0  0  0
  -23.6311   -8.2242   22.0740 C   0  0  0  0  0  0
  -22.4294   -8.0273   21.3525 C   0  0  0  0  0  0
  -21.9922   -9.0245   20.4628 C   0  0  0  0  0  0
  -22.7254  -10.2124   20.3042 C   0  0  0  0  0  0
  -21.6856   -6.0730   22.5261 C   0  0  0  0  0  0
  -21.4026   -6.5639   23.8188 C   0  0  0  0  0  0
  -21.3669   -5.6798   24.9153 C   0  0  0  0  0  0
  -21.6049   -4.3060   24.7207 C   0  0  0  0  0  0
  -21.8832   -3.8139   23.4329 C   0  0  0  0  0  0
  -21.9199   -4.6956   22.3381 C   0  0  0  0  0  0
  -22.7813  -13.5171   21.1850 C   0  0  0  0  0  0
  -22.1665   -4.2140   21.0954 F   0  0  0  0  0  0
  -21.5631   -3.4545   25.7719 F   0  0  0  0  0  0
  -30.0041  -13.5047   20.4492 N   0  0  0  0  0  0
  -26.2987  -12.9453   20.3406 N   0  0  0  0  0  0
  -25.9359  -11.6582   20.5799 N   0  0  0  0  0  0
  -22.0505  -12.8145   22.0421 N   0  0  0  0  0  0
  -25.4166  -15.1941   20.4061 N   0  0  0  0  0  0
  -31.7701  -14.8580   20.0534 O   0  0  0  0  0  0
  -21.6655   -6.8874   21.4224 O   0  0  0  0  0  0
  -22.3468  -14.5457   20.6674 O   0  0  0  0  0  0
  -24.6360  -31.8538   23.2053 C   0  0  0  0  0  0
  -25.9169  -32.4744   23.8381 C   0  0  1  0  0  0
  -27.1943  -27.2078   20.1244 C   0  0  0  0  0  0
  -25.5973  -33.8556   24.2286 N   0  0  0  0  0  0
  -23.4357  -30.4815   21.5521 C   0  0  2  0  0  0
  -24.8805  -28.9405   20.1154 C   0  0  0  0  0  0
  -22.7523  -29.4572   22.4922 C   0  0  0  0  0  0
  -18.0290  -28.1395   22.8472 C   0  0  0  0  0  0
  -24.1491  -36.7270   23.2635 C   0  0  0  0  0  0
  -25.9904  -30.7417   21.4070 C   0  0  0  0  0  0
  -26.0568  -29.3633   20.7484 C   0  0  0  0  0  0
  -27.2123  -28.5030   20.7642 C   0  0  0  0  0  0
  -26.0226  -26.9387   19.3824 C   0  0  0  0  0  0
  -24.8686  -27.7305   19.4264 C   0  0  0  0  0  0
  -23.6591  -29.8335   20.1645 C   0  0  0  0  0  0
  -25.4115  -36.3050   24.0326 C   0  0  1  0  0  0
  -20.5896  -28.3688   23.1255 C   0  0  2  0  0  0
  -20.6780  -26.9396   22.5413 C   0  0  0  0  0  0
  -19.5757  -26.6377   21.5220 C   0  0  0  0  0  0
  -18.1932  -26.7940   22.1621 C   0  0  0  0  0  0
  -19.1542  -28.8868   23.2856 C   0  0  0  0  0  0
  -18.9461  -30.1478   23.8852 C   0  0  0  0  0  0
  -17.6451  -30.6580   24.0568 C   0  0  0  0  0  0
  -25.9062  -34.9420   23.5104 C   0  0  0  0  0  0
  -16.5350  -29.9068   23.6333 C   0  0  0  0  0  0
  -16.7277  -28.6507   23.0333 C   0  0  0  0  0  0
  -26.4514  -31.6577   25.0788 C   0  0  0  0  0  0
  -25.3726  -31.3720   26.1498 C   0  0  0  0  0  0
  -27.0383  -30.2981   24.6333 C   0  0  0  0  0  0
  -27.6073  -32.4325   25.7539 C   0  0  0  0  0  0
  -27.5575  -37.1786   24.8455 C   0  0  0  0  0  0
  -21.4223  -29.3043   22.3655 N   0  0  0  0  0  0
  -26.4269  -37.3765   23.9423 N   0  0  0  0  0  0
  -24.7058  -31.0445   22.1092 N   0  0  0  0  0  0
  -23.4194  -28.8059   23.3005 O   0  0  0  0  0  0
  -28.2036  -26.1895   20.2241 O   0  0  0  0  0  0
  -26.5612  -34.8883   22.4656 O   0  0  0  0  0  0
  -23.5498  -32.1398   23.7308 O   0  0  0  0  0  0
  -28.9658  -18.4511   18.3941 C   0  0  0  0  0  0
  -29.0620  -19.6594   19.1054 C   0  0  0  0  0  0
  -29.3233  -17.2361   19.0088 C   0  0  0  0  0  0
  -29.5340  -19.6564   20.4267 C   0  0  0  0  0  0
  -29.7696  -17.2031   20.3457 C   0  0  0  0  0  0
  -28.9799  -23.5996   20.7728 C   0  0  0  0  0  0
  -28.8440  -20.5489   23.4464 C   0  0  0  0  0  0
  -27.6865  -21.5165   23.1424 C   0  0  0  0  0  0
  -30.1036  -20.9124   22.6374 C   0  0  0  0  0  0
  -27.4965  -21.6915   21.6162 C   0  0  0  0  0  0
  -29.7833  -21.0817   21.1331 C   0  0  2  0  0  0
  -27.0519  -24.9549   21.9065 C   0  0  0  0  0  0
  -26.9374  -24.0901   19.4433 C   0  0  0  0  0  0
  -27.8080  -24.7253   20.5673 C   0  0  0  0  0  0
  -29.8677  -18.4273   21.0173 N   0  0  0  0  0  0
  -28.7472  -22.2230   21.0327 N   0  0  0  0  0  0
  -29.9069  -15.8477   20.9319 N   0  0  0  0  0  0
  -30.1395  -23.9908   20.6175 O   0  0  0  0  0  0
  -31.4769  -12.5742   19.1874 H   0  0  0  0  0  0
  -30.3738  -11.4697   19.9554 H   0  0  0  0  0  0
  -29.7868  -11.7644   17.5248 H   0  0  0  0  0  0
  -29.6517  -13.4891   17.7458 H   0  0  0  0  0  0
  -27.8815  -11.3055   18.8935 H   0  0  0  0  0  0
  -27.3861  -12.5807   17.8110 H   0  0  0  0  0  0
  -27.6530  -14.2720   19.5204 H   0  0  0  0  0  0
  -28.7190  -12.1369   21.4267 H   0  0  0  0  0  0
  -28.4240  -13.8031   21.8418 H   0  0  0  0  0  0
  -25.2791   -9.5665   22.4720 H   0  0  0  0  0  0
  -24.0019   -7.4623   22.7449 H   0  0  0  0  0  0
  -21.0864   -8.8752   19.8911 H   0  0  0  0  0  0
  -22.3716  -10.9651   19.6145 H   0  0  0  0  0  0
  -21.2028   -7.6146   23.9684 H   0  0  0  0  0  0
  -21.1481   -6.0526   25.9052 H   0  0  0  0  0  0
  -22.0603   -2.7593   23.2831 H   0  0  0  0  0  0
  -22.4216  -11.9845   22.4813 H   0  0  0  0  0  0
  -21.1089  -13.1063   22.2611 H   0  0  0  0  0  0
  -24.6433  -15.8441   20.4916 H   0  0  0  0  0  0
  -26.2574  -15.6267   20.0462 H   0  0  0  0  0  0
  -26.7225  -32.5357   23.1103 H   0  0  0  0  0  0
  -25.0153  -33.9700   25.0456 H   0  0  0  0  0  0
  -22.7358  -31.3073   21.4095 H   0  0  0  0  0  0
  -23.3768  -35.9588   23.3258 H   0  0  0  0  0  0
  -24.3577  -36.8943   22.2057 H   0  0  0  0  0  0
  -23.7225  -37.6449   23.6689 H   0  0  0  0  0  0
  -26.1445  -31.4978   20.6360 H   0  0  0  0  0  0
  -26.8620  -30.7829   22.0476 H   0  0  0  0  0  0
  -28.0891  -28.7996   21.3230 H   0  0  0  0  0  0
  -25.9349  -26.1032   18.7204 H   0  0  0  0  0  0
  -23.9838  -27.4157   18.8910 H   0  0  0  0  0  0
  -23.7992  -30.6183   19.4198 H   0  0  0  0  0  0
  -22.7740  -29.2798   19.8438 H   0  0  0  0  0  0
  -25.1288  -36.1887   25.0818 H   0  0  0  0  0  0
  -20.9969  -28.3278   24.1385 H   0  0  0  0  0  0
  -20.5683  -26.2295   23.3624 H   0  0  0  0  0  0
  -21.6643  -26.7427   22.1208 H   0  0  0  0  0  0
  -19.6899  -25.6285   21.1251 H   0  0  0  0  0  0
  -19.6697  -27.3181   20.6746 H   0  0  0  0  0  0
  -17.4204  -26.6692   21.4019 H   0  0  0  0  0  0
  -18.0309  -26.0090   22.9021 H   0  0  0  0  0  0
  -19.7940  -30.7332   24.2170 H   0  0  0  0  0  0
  -17.5003  -31.6236   24.5212 H   0  0  0  0  0  0
  -15.5347  -30.2955   23.7692 H   0  0  0  0  0  0
  -15.8689  -28.0835   22.7026 H   0  0  0  0  0  0
  -24.5965  -30.6982   25.7837 H   0  0  0  0  0  0
  -24.8838  -32.2873   26.4849 H   0  0  0  0  0  0
  -25.8056  -30.8979   27.0319 H   0  0  0  0  0  0
  -26.3005  -29.6720   24.1304 H   0  0  0  0  0  0
  -27.3964  -29.7247   25.4894 H   0  0  0  0  0  0
  -27.8923  -30.4235   23.9676 H   0  0  0  0  0  0
  -27.2704  -33.3668   26.2036 H   0  0  0  0  0  0
  -28.3903  -32.6811   25.0363 H   0  0  0  0  0  0
  -28.0705  -31.8497   26.5511 H   0  0  0  0  0  0
  -28.2543  -38.0132   24.7559 H   0  0  0  0  0  0
  -28.1120  -36.2665   24.6206 H   0  0  0  0  0  0
  -27.2286  -37.1333   25.8850 H   0  0  0  0  0  0
  -20.9402  -29.8828   21.6912 H   0  0  0  0  0  0
  -26.0134  -38.2815   24.1506 H   0  0  0  0  0  0
  -28.6148  -18.4530   17.3727 H   0  0  0  0  0  0
  -28.8049  -20.5906   18.6205 H   0  0  0  0  0  0
  -29.2162  -16.3218   18.4396 H   0  0  0  0  0  0
  -28.5362  -19.5312   23.2028 H   0  0  0  0  0  0
  -29.0706  -20.5470   24.5133 H   0  0  0  0  0  0
  -27.9034  -22.4789   23.6083 H   0  0  0  0  0  0
  -26.7649  -21.1557   23.6047 H   0  0  0  0  0  0
  -30.8871  -20.1680   22.7848 H   0  0  0  0  0  0
  -30.5127  -21.8477   23.0226 H   0  0  0  0  0  0
  -26.6109  -22.2810   21.3982 H   0  0  0  0  0  0
  -27.2646  -20.7213   21.1748 H   0  0  0  0  0  0
  -30.6918  -21.4487   20.6541 H   0  0  0  0  0  0
  -27.6695  -25.5419   22.5894 H   0  0  0  0  0  0
  -26.7563  -24.0659   22.4480 H   0  0  0  0  0  0
  -26.1266  -25.5117   21.7546 H   0  0  0  0  0  0
  -27.0234  -23.0107   19.3248 H   0  0  0  0  0  0
  -27.2369  -24.4760   18.4680 H   0  0  0  0  0  0
  -25.8728  -24.2478   19.6109 H   0  0  0  0  0  0
  -29.1338  -15.6009   21.5292 H   0  0  0  0  0  0
  1 25  1  0  0  0
  1 30  2  0  0  0
  1 87  1  0  0  0
  2  3  1  0  0  0
  2 25  1  0  0  0
  2 89  1  0  0  0
  2 90  1  0  0  0
  3  4  1  0  0  0
  3 91  1  0  0  0
  3 92  1  0  0  0
  4  5  1  0  0  0
  4 93  1  0  0  0
  4 94  1  0  0  0
  5  6  1  0  0  0
  5 26  1  0  0  0
  5 95  1  0  0  0
  6 25  1  0  0  0
  6 96  1  0  0  0
  6 97  1  0  0  0
  7  8  2  0  0  0
  7 26  1  0  0  0
  7 29  1  0  0  0
  8  9  1  0  0  0
  8 22  1  0  0  0
  9 10  1  0  0  0
  9 27  2  0  0  0
 10 11  2  0  0  0
 10 15  1  0  0  0
 11 12  1  0  0  0
 11 98  1  0  0  0
 12 13  2  0  0  0
 12 99  1  0  0  0
 13 14  1  0  0  0
 13 31  1  0  0  0
 14 15  2  0  0  0
 14100  1  0  0  0
 15101  1  0  0  0
 16 17  2  0  0  0
 16 21  1  0  0  0
 16 31  1  0  0  0
 17 18  1  0  0  0
 17102  1  0  0  0
 18 19  2  0  0  0
 18103  1  0  0  0
 19 20  1  0  0  0
 19 24  1  0  0  0
 20 21  2  0  0  0
 20104  1  0  0  0
 21 23  1  0  0  0
 22 28  1  0  0  0
 22 32  2  0  0  0
 26 27  1  0  0  0
 28105  1  0  0  0
 28106  1  0  0  0
 29107  1  0  0  0
 29108  1  0  0  0
 33 34  1  0  0  0
 33 66  1  0  0  0
 33 70  2  0  0  0
 34 36  1  0  0  0
 34 59  1  0  0  0
 34109  1  0  0  0
 35 44  2  0  0  0
 35 45  1  0  0  0
 35 68  1  0  0  0
 36 56  1  0  0  0
 36110  1  0  0  0
 37 39  1  0  0  0
 37 47  1  0  0  0
 37 66  1  0  0  0
 37111  1  0  0  0
 38 43  2  0  0  0
 38 46  1  0  0  0
 38 47  1  0  0  0
 39 64  1  0  0  0
 39 67  2  0  0  0
 40 52  1  0  0  0
 40 53  2  0  0  0
 40 58  1  0  0  0
 41112  1  0  0  0
 41113  1  0  0  0
 41114  1  0  0  0
 41 48  1  0  0  0
 42 43  1  0  0  0
 42 66  1  0  0  0
 42115  1  0  0  0
 42116  1  0  0  0
 43 44  1  0  0  0
 44117  1  0  0  0
 45 46  2  0  0  0
 45118  1  0  0  0
 46119  1  0  0  0
 47120  1  0  0  0
 47121  1  0  0  0
 48 56  1  0  0  0
 48 65  1  0  0  0
 48122  1  0  0  0
 49 50  1  0  0  0
 49 53  1  0  0  0
 49 64  1  0  0  0
 49123  1  0  0  0
 50 51  1  0  0  0
 50124  1  0  0  0
 50125  1  0  0  0
 51 52  1  0  0  0
 51126  1  0  0  0
 51127  1  0  0  0
 52128  1  0  0  0
 52129  1  0  0  0
 53 54  1  0  0  0
 54 55  2  0  0  0
 54130  1  0  0  0
 55 57  1  0  0  0
 55131  1  0  0  0
 56 69  2  0  0  0
 57 58  2  0  0  0
 57132  1  0  0  0
 58133  1  0  0  0
 59 60  1  0  0  0
 59 61  1  0  0  0
 59 62  1  0  0  0
 60134  1  0  0  0
 60135  1  0  0  0
 60136  1  0  0  0
 61137  1  0  0  0
 61138  1  0  0  0
 61139  1  0  0  0
 62140  1  0  0  0
 62141  1  0  0  0
 62142  1  0  0  0
 63 65  1  0  0  0
 63143  1  0  0  0
 63144  1  0  0  0
 63145  1  0  0  0
 64146  1  0  0  0
 65147  1  0  0  0
 68 84  1  0  0  0
 71 72  2  0  0  0
 71 73  1  0  0  0
 71148  1  0  0  0
 72 74  1  0  0  0
 72149  1  0  0  0
 73 75  2  0  0  0
 73150  1  0  0  0
 74 85  2  0  0  0
 74 81  1  0  0  0
 75 85  1  0  0  0
 75 87  1  0  0  0
 76 84  1  0  0  0
 76 86  1  0  0  0
 76 88  2  0  0  0
 77 78  1  0  0  0
 77 79  1  0  0  0
 77151  1  0  0  0
 77152  1  0  0  0
 78 80  1  0  0  0
 78153  1  0  0  0
 78154  1  0  0  0
 79 81  1  0  0  0
 79155  1  0  0  0
 79156  1  0  0  0
 80 86  1  0  0  0
 80157  1  0  0  0
 80158  1  0  0  0
 81 86  1  0  0  0
 81159  1  0  0  0
 82160  1  0  0  0
 82161  1  0  0  0
 82162  1  0  0  0
 82 84  1  0  0  0
 83 84  1  0  0  0
 83163  1  0  0  0
 83164  1  0  0  0
 83165  1  0  0  0
 87166  1  0  0  0
M  ISO  4   1 100  68 101  84 101  87 100
M  END
> <chiral flag>
0

> <version>
0

> <s_m_source_file>
/data/baiqing/PycharmProjects/Reinvent-master-3.2/result/LINK_invent/BTK/process_docking_weight1_custom_product_contain_oxygen_bond_distance_aromatic_linkinvent_7_9_3/rearranged_h_0162.sdf

> <i_m_source_file_index>
95

> <r_mmod_Potential_Energy-OPLS-2005>
275.969085693359

> <r_mmod_Stretch_Energy-OPLS-2005>
174.677627563477

> <r_mmod_Bend_Energy-OPLS-2005>
204.481185913086

> <r_mmod_Torsional_Energy-OPLS-2005>
346.237823486328

> <r_mmod_Improper_Torsional_Energy-OPLS-2005>
6.4182333946228

> <r_mmod_Van_der_Waal_Energy-OPLS-2005>
172.180557250977

> <r_mmod_Electrostatic_Energy-OPLS-2005>
-504.565246582031

> <r_mmod_Solvation_Energy-OPLS-2005>
-236.515243530273

> <b_mmod_Minimization_Converged-OPLS-2005>
0

> <r_mmod_RMS_Derivative-OPLS-2005>
3.18765234947205

$$$$
95
                    3D
 Structure written by MMmdl.
157165  0  0  1  0            999 V2000
  -30.6506  -14.7551   20.4928 C   0  0  0  0  0  0
  -30.4283  -12.4691   19.4888 C   0  0  0  0  0  0
  -29.5198  -12.5138   18.2440 C   0  0  0  0  0  0
  -28.0407  -12.3534   18.6431 C   0  0  0  0  0  0
  -27.6427  -13.2473   19.8489 C   0  0  2  0  0  0
  -28.6855  -13.2012   20.9872 C   0  0  0  0  0  0
  -25.2523  -13.8250   20.5719 C   0  0  0  0  0  0
  -24.1828  -13.0469   20.9219 C   0  0  0  0  0  0
  -24.6445  -11.6955   20.8746 C   0  0  0  0  0  0
  -23.9128  -10.4318   21.0387 C   0  0  0  0  0  0
  -24.3663   -9.4221   21.9171 C   0  0  0  0  0  0
  -23.6314   -8.2270   22.0760 C   0  0  0  0  0  0
  -22.4288   -8.0316   21.3565 C   0  0  0  0  0  0
  -21.9942   -9.0291   20.4662 C   0  0  0  0  0  0
  -22.7292  -10.2156   20.3051 C   0  0  0  0  0  0
  -21.6866   -6.0752   22.5282 C   0  0  0  0  0  0
  -21.4022   -6.5649   23.8225 C   0  0  0  0  0  0
  -21.3654   -5.6783   24.9175 C   0  0  0  0  0  0
  -21.6046   -4.3048   24.7201 C   0  0  0  0  0  0
  -21.8823   -3.8161   23.4323 C   0  0  0  0  0  0
  -21.9204   -4.6983   22.3393 C   0  0  0  0  0  0
  -22.7845  -13.5246   21.1829 C   0  0  0  0  0  0
  -22.1669   -4.2176   21.0955 F   0  0  0  0  0  0
  -21.5619   -3.4523   25.7707 F   0  0  0  0  0  0
  -29.9889  -13.5473   20.4102 N   0  0  0  0  0  0
  -26.2967  -12.9485   20.3262 N   0  0  0  0  0  0
  -25.9377  -11.6621   20.5737 N   0  0  0  0  0  0
  -22.0439  -12.8277   22.0374 N   0  0  0  0  0  0
  -25.4170  -15.1986   20.4169 N   0  0  0  0  0  0
  -31.8262  -14.8102   20.1209 O   0  0  0  0  0  0
  -21.6659   -6.8904   21.4257 O   0  0  0  0  0  0
  -22.3521  -14.5525   20.6610 O   0  0  0  0  0  0
  -24.6297  -31.8518   23.1997 C   0  0  0  0  0  0
  -25.9125  -32.4725   23.8366 C   0  0  1  0  0  0
  -27.2107  -27.2315   20.1260 C   0  0  0  0  0  0
  -25.5928  -33.8539   24.2268 N   0  0  0  0  0  0
  -23.4316  -30.4753   21.5398 C   0  0  2  0  0  0
  -24.8782  -28.9256   20.1089 C   0  0  0  0  0  0
  -22.7500  -29.4564   22.4855 C   0  0  0  0  0  0
  -18.0290  -28.1376   22.8468 C   0  0  0  0  0  0
  -24.1506  -36.7289   23.2633 C   0  0  0  0  0  0
  -25.9817  -30.7515   21.3934 C   0  0  0  0  0  0
  -26.0497  -29.3763   20.7277 C   0  0  0  0  0  0
  -27.2128  -28.5366   20.7338 C   0  0  0  0  0  0
  -26.0202  -26.8751   19.4497 C   0  0  0  0  0  0
  -24.8693  -27.6848   19.4582 C   0  0  0  0  0  0
  -23.6519  -29.8139   20.1546 C   0  0  0  0  0  0
  -25.4121  -36.3061   24.0331 C   0  0  1  0  0  0
  -20.5896  -28.3674   23.1235 C   0  0  2  0  0  0
  -20.6758  -26.9389   22.5377 C   0  0  0  0  0  0
  -19.5747  -26.6348   21.5172 C   0  0  0  0  0  0
  -18.1924  -26.7907   22.1593 C   0  0  0  0  0  0
  -19.1550  -28.8838   23.2861 C   0  0  0  0  0  0
  -18.9469  -30.1431   23.8875 C   0  0  0  0  0  0
  -17.6467  -30.6571   24.0538 C   0  0  0  0  0  0
  -25.9068  -34.9418   23.5116 C   0  0  0  0  0  0
  -16.5356  -29.9072   23.6315 C   0  0  0  0  0  0
  -16.7269  -28.6492   23.0331 C   0  0  0  0  0  0
  -26.4477  -31.6562   25.0761 C   0  0  0  0  0  0
  -25.3705  -31.3717   26.1476 C   0  0  0  0  0  0
  -27.0303  -30.2952   24.6290 C   0  0  0  0  0  0
  -27.6026  -32.4291   25.7528 C   0  0  0  0  0  0
  -27.5622  -37.1772   24.8435 C   0  0  0  0  0  0
  -21.4198  -29.3046   22.3638 N   0  0  0  0  0  0
  -26.4281  -37.3781   23.9455 N   0  0  0  0  0  0
  -24.7002  -31.0467   22.0991 N   0  0  0  0  0  0
  -23.4191  -28.8080   23.2942 O   0  0  0  0  0  0
  -28.2926  -26.3122   20.2284 O   0  0  0  0  0  0
  -26.5649  -34.8881   22.4682 O   0  0  0  0  0  0
  -23.5434  -32.1345   23.7262 O   0  0  0  0  0  0
  -29.7375  -19.7878   19.8697 C   0  0  0  0  0  0
  -28.8739  -20.5261   21.7777 C   0  0  0  0  0  0
  -29.2011  -20.9703   20.5272 C   0  0  0  0  0  0
  -29.7977  -18.7163   20.7693 C   0  0  0  0  0  0
  -31.6704  -17.4285   21.9275 C   0  0  0  0  0  0
  -31.2083  -17.5381   23.3792 C   0  0  0  0  0  0
  -28.6379  -24.7933   18.3587 C   0  0  0  0  0  0
  -28.8183  -23.6294   20.6764 C   0  0  0  0  0  0
  -30.6018  -17.3382   20.8081 C   0  0  1  0  0  0
  -28.1648  -24.8568   19.8208 C   0  0  1  0  0  0
  -29.0538  -22.3018   19.9688 N   0  0  0  0  0  0
  -29.9813  -15.9299   20.8271 N   0  0  0  0  0  0
  -32.8823  -17.3901   21.6992 O   0  0  0  0  0  0
  -29.2258  -19.1895   21.9344 O   0  0  0  0  0  0
  -31.4740  -12.5719   19.1911 H   0  0  0  0  0  0
  -30.3569  -11.4975   19.9776 H   0  0  0  0  0  0
  -29.8007  -11.7263   17.5440 H   0  0  0  0  0  0
  -29.6629  -13.4590   17.7160 H   0  0  0  0  0  0
  -27.8776  -11.3034   18.8858 H   0  0  0  0  0  0
  -27.3995  -12.5701   17.7858 H   0  0  0  0  0  0
  -27.6298  -14.2694   19.4699 H   0  0  0  0  0  0
  -28.7246  -12.2120   21.4414 H   0  0  0  0  0  0
  -28.4148  -13.8922   21.7869 H   0  0  0  0  0  0
  -25.2800   -9.5694   22.4751 H   0  0  0  0  0  0
  -24.0026   -7.4663   22.7475 H   0  0  0  0  0  0
  -21.0885   -8.8817   19.8960 H   0  0  0  0  0  0
  -22.3756  -10.9699   19.6168 H   0  0  0  0  0  0
  -21.2011   -7.6149   23.9743 H   0  0  0  0  0  0
  -21.1474   -6.0492   25.9076 H   0  0  0  0  0  0
  -22.0606   -2.7620   23.2802 H   0  0  0  0  0  0
  -22.4019  -11.9984   22.4883 H   0  0  0  0  0  0
  -21.1041  -13.1342   22.2444 H   0  0  0  0  0  0
  -24.6457  -15.8457   20.5390 H   0  0  0  0  0  0
  -26.2609  -15.6494   20.0847 H   0  0  0  0  0  0
  -26.7172  -32.5347   23.1093 H   0  0  0  0  0  0
  -25.0017  -33.9686   25.0378 H   0  0  0  0  0  0
  -22.7331  -31.3018   21.3925 H   0  0  0  0  0  0
  -23.3791  -35.9593   23.3156 H   0  0  0  0  0  0
  -24.3646  -36.9036   22.2076 H   0  0  0  0  0  0
  -23.7183  -37.6420   23.6730 H   0  0  0  0  0  0
  -26.1419  -31.5166   20.6331 H   0  0  0  0  0  0
  -26.8507  -30.7850   22.0400 H   0  0  0  0  0  0
  -28.1031  -28.8616   21.2538 H   0  0  0  0  0  0
  -25.9317  -25.9448   18.9120 H   0  0  0  0  0  0
  -23.9737  -27.3415   18.9592 H   0  0  0  0  0  0
  -23.7877  -30.5884   19.4013 H   0  0  0  0  0  0
  -22.7690  -29.2516   19.8428 H   0  0  0  0  0  0
  -25.1281  -36.1886   25.0822 H   0  0  0  0  0  0
  -21.0009  -28.3210   24.1356 H   0  0  0  0  0  0
  -20.5578  -26.2285   23.3591 H   0  0  0  0  0  0
  -21.6626  -26.7342   22.1230 H   0  0  0  0  0  0
  -19.6896  -25.6246   21.1234 H   0  0  0  0  0  0
  -19.6691  -27.3120   20.6690 H   0  0  0  0  0  0
  -17.4195  -26.6623   21.4009 H   0  0  0  0  0  0
  -18.0365  -26.0050   22.9007 H   0  0  0  0  0  0
  -19.7942  -30.7258   24.2225 H   0  0  0  0  0  0
  -17.5021  -31.6260   24.5140 H   0  0  0  0  0  0
  -15.5353  -30.2978   23.7645 H   0  0  0  0  0  0
  -15.8661  -28.0806   22.7053 H   0  0  0  0  0  0
  -24.5894  -30.7046   25.7811 H   0  0  0  0  0  0
  -24.8898  -32.2887   26.4891 H   0  0  0  0  0  0
  -25.8044  -30.8901   27.0252 H   0  0  0  0  0  0
  -26.2888  -29.6688   24.1300 H   0  0  0  0  0  0
  -27.3904  -29.7218   25.4849 H   0  0  0  0  0  0
  -27.8827  -30.4171   23.9597 H   0  0  0  0  0  0
  -27.2631  -33.3586   26.2105 H   0  0  0  0  0  0
  -28.3848  -32.6831   25.0369 H   0  0  0  0  0  0
  -28.0674  -31.8406   26.5441 H   0  0  0  0  0  0
  -28.2484  -38.0218   24.7673 H   0  0  0  0  0  0
  -28.1268  -36.2756   24.6003 H   0  0  0  0  0  0
  -27.2387  -37.1103   25.8837 H   0  0  0  0  0  0
  -20.9353  -29.8886   21.6950 H   0  0  0  0  0  0
  -26.0128  -38.2817   24.1579 H   0  0  0  0  0  0
  -30.1282  -19.7408   18.8612 H   0  0  0  0  0  0
  -28.4392  -21.0007   22.6469 H   0  0  0  0  0  0
  -30.1467  -17.3148   23.4754 H   0  0  0  0  0  0
  -31.3804  -18.5490   23.7513 H   0  0  0  0  0  0
  -31.7631  -16.8434   24.0063 H   0  0  0  0  0  0
  -28.2446  -25.6176   17.7659 H   0  0  0  0  0  0
  -28.3067  -23.8738   17.8773 H   0  0  0  0  0  0
  -29.7235  -24.8249   18.2951 H   0  0  0  0  0  0
  -28.1795  -23.4419   21.5410 H   0  0  0  0  0  0
  -29.7749  -23.9616   21.0789 H   0  0  0  0  0  0
  -31.1558  -17.3432   19.8678 H   0  0  0  0  0  0
  -27.1143  -24.5844   19.8335 H   0  0  0  0  0  0
  -29.4455  -22.4145   19.0391 H   0  0  0  0  0  0
  -29.0101  -15.8581   21.0866 H   0  0  0  0  0  0
  1 25  1  0  0  0
  1 30  2  0  0  0
  1 82  1  0  0  0
  2  3  1  0  0  0
  2 25  1  0  0  0
  2 85  1  0  0  0
  2 86  1  0  0  0
  3  4  1  0  0  0
  3 87  1  0  0  0
  3 88  1  0  0  0
  4  5  1  0  0  0
  4 89  1  0  0  0
  4 90  1  0  0  0
  5  6  1  0  0  0
  5 26  1  0  0  0
  5 91  1  0  0  0
  6 25  1  0  0  0
  6 92  1  0  0  0
  6 93  1  0  0  0
  7  8  2  0  0  0
  7 26  1  0  0  0
  7 29  1  0  0  0
  8  9  1  0  0  0
  8 22  1  0  0  0
  9 10  1  0  0  0
  9 27  2  0  0  0
 10 11  2  0  0  0
 10 15  1  0  0  0
 11 12  1  0  0  0
 11 94  1  0  0  0
 12 13  2  0  0  0
 12 95  1  0  0  0
 13 14  1  0  0  0
 13 31  1  0  0  0
 14 15  2  0  0  0
 14 96  1  0  0  0
 15 97  1  0  0  0
 16 17  2  0  0  0
 16 21  1  0  0  0
 16 31  1  0  0  0
 17 18  1  0  0  0
 17 98  1  0  0  0
 18 19  2  0  0  0
 18 99  1  0  0  0
 19 20  1  0  0  0
 19 24  1  0  0  0
 20 21  2  0  0  0
 20100  1  0  0  0
 21 23  1  0  0  0
 22 28  1  0  0  0
 22 32  2  0  0  0
 26 27  1  0  0  0
 28101  1  0  0  0
 28102  1  0  0  0
 29103  1  0  0  0
 29104  1  0  0  0
 33 34  1  0  0  0
 33 66  1  0  0  0
 33 70  2  0  0  0
 34 36  1  0  0  0
 34 59  1  0  0  0
 34105  1  0  0  0
 35 44  2  0  0  0
 35 45  1  0  0  0
 35 68  1  0  0  0
 36 56  1  0  0  0
 36106  1  0  0  0
 37 39  1  0  0  0
 37 47  1  0  0  0
 37 66  1  0  0  0
 37107  1  0  0  0
 38 43  2  0  0  0
 38 46  1  0  0  0
 38 47  1  0  0  0
 39 64  1  0  0  0
 39 67  2  0  0  0
 40 52  1  0  0  0
 40 53  2  0  0  0
 40 58  1  0  0  0
 41108  1  0  0  0
 41109  1  0  0  0
 41110  1  0  0  0
 41 48  1  0  0  0
 42 43  1  0  0  0
 42 66  1  0  0  0
 42111  1  0  0  0
 42112  1  0  0  0
 43 44  1  0  0  0
 44113  1  0  0  0
 45 46  2  0  0  0
 45114  1  0  0  0
 46115  1  0  0  0
 47116  1  0  0  0
 47117  1  0  0  0
 48 56  1  0  0  0
 48 65  1  0  0  0
 48118  1  0  0  0
 49 50  1  0  0  0
 49 53  1  0  0  0
 49 64  1  0  0  0
 49119  1  0  0  0
 50 51  1  0  0  0
 50120  1  0  0  0
 50121  1  0  0  0
 51 52  1  0  0  0
 51122  1  0  0  0
 51123  1  0  0  0
 52124  1  0  0  0
 52125  1  0  0  0
 53 54  1  0  0  0
 54 55  2  0  0  0
 54126  1  0  0  0
 55 57  1  0  0  0
 55127  1  0  0  0
 56 69  2  0  0  0
 57 58  2  0  0  0
 57128  1  0  0  0
 58129  1  0  0  0
 59 60  1  0  0  0
 59 61  1  0  0  0
 59 62  1  0  0  0
 60130  1  0  0  0
 60131  1  0  0  0
 60132  1  0  0  0
 61133  1  0  0  0
 61134  1  0  0  0
 61135  1  0  0  0
 62136  1  0  0  0
 62137  1  0  0  0
 62138  1  0  0  0
 63 65  1  0  0  0
 63139  1  0  0  0
 63140  1  0  0  0
 63141  1  0  0  0
 64142  1  0  0  0
 65143  1  0  0  0
 68 80  1  0  0  0
 71 73  1  0  0  0
 71 74  2  0  0  0
 71144  1  0  0  0
 72 73  2  0  0  0
 72 84  1  0  0  0
 72145  1  0  0  0
 73 81  1  0  0  0
 74 79  1  0  0  0
 74 84  1  0  0  0
 75 76  1  0  0  0
 75 79  1  0  0  0
 75 83  2  0  0  0
 76146  1  0  0  0
 76147  1  0  0  0
 76148  1  0  0  0
 77149  1  0  0  0
 77150  1  0  0  0
 77151  1  0  0  0
 77 80  1  0  0  0
 78 80  1  0  0  0
 78 81  1  0  0  0
 78152  1  0  0  0
 78153  1  0  0  0
 79 82  1  0  0  0
 79154  1  0  0  0
 80155  1  0  0  0
 81156  1  0  0  0
 82157  1  0  0  0
M  ISO  4   1 100  68 101  80 101  82 100
M  END
> <chiral flag>
0

> <version>
0

> <s_m_source_file>
/data/baiqing/PycharmProjects/Reinvent-master-3.2/result/LINK_invent/BTK/process_docking_weight1_custom_product_contain_oxygen_bond_distance_aromatic_linkinvent_7_9_3/rearranged_h_0162.sdf

> <i_m_source_file_index>
96

> <r_mmod_Potential_Energy-OPLS-2005>
67.4003753662109

> <r_mmod_Stretch_Energy-OPLS-2005>
129.499603271484

> <r_mmod_Bend_Energy-OPLS-2005>
204.978317260742

> <r_mmod_Torsional_Energy-OPLS-2005>
226.602462768555

> <r_mmod_Improper_Torsional_Energy-OPLS-2005>
6.20732879638672

> <r_mmod_Van_der_Waal_Energy-OPLS-2005>
124.929817199707

> <r_mmod_Electrostatic_Energy-OPLS-2005>
-485.528015136719

> <r_mmod_Solvation_Energy-OPLS-2005>
-237.665298461914

> <b_mmod_Minimization_Converged-OPLS-2005>
0

> <r_mmod_RMS_Derivative-OPLS-2005>
4.12946939468384

$$$$
96
                    3D
 Structure written by MMmdl.
163172  0  0  1  0            999 V2000
  -30.9028  -14.3148   20.5318 C   0  0  0  0  0  0
  -30.4354  -12.3102   19.2663 C   0  0  0  0  0  0
  -29.3788  -12.4989   18.1652 C   0  0  0  0  0  0
  -28.0218  -12.1433   18.7563 C   0  0  0  0  0  0
  -27.6901  -13.1025   19.9185 C   0  0  2  0  0  0
  -28.7846  -12.9747   21.0054 C   0  0  0  0  0  0
  -25.3004  -13.7880   20.5865 C   0  0  0  0  0  0
  -24.2112  -13.0424   20.9181 C   0  0  0  0  0  0
  -24.6523  -11.6746   20.8908 C   0  0  0  0  0  0
  -23.9219  -10.4223   21.0632 C   0  0  0  0  0  0
  -24.3680   -9.4035   21.9365 C   0  0  0  0  0  0
  -23.6277   -8.2147   22.0949 C   0  0  0  0  0  0
  -22.4247   -8.0360   21.3727 C   0  0  0  0  0  0
  -22.0088   -9.0315   20.4704 C   0  0  0  0  0  0
  -22.7538  -10.2134   20.3111 C   0  0  0  0  0  0
  -21.6825   -6.0771   22.5374 C   0  0  0  0  0  0
  -21.3963   -6.5599   23.8310 C   0  0  0  0  0  0
  -21.3663   -5.6728   24.9261 C   0  0  0  0  0  0
  -21.6086   -4.3017   24.7226 C   0  0  0  0  0  0
  -21.8803   -3.8163   23.4304 C   0  0  0  0  0  0
  -21.9200   -4.7027   22.3414 C   0  0  0  0  0  0
  -22.8178  -13.5256   21.1981 C   0  0  0  0  0  0
  -22.1579   -4.2185   21.1001 F   0  0  0  0  0  0
  -21.5730   -3.4515   25.7730 F   0  0  0  0  0  0
  -30.0975  -13.2402   20.3600 N   0  0  0  0  0  0
  -26.3327  -12.8854   20.3812 N   0  0  0  0  0  0
  -25.9338  -11.6097   20.5937 N   0  0  0  0  0  0
  -22.0944  -12.7959   22.0313 N   0  0  0  0  0  0
  -25.5124  -15.1653   20.4241 N   0  0  0  0  0  0
  -32.1233  -14.3010   20.3761 O   0  0  0  0  0  0
  -21.6655   -6.8943   21.4343 O   0  0  0  0  0  0
  -22.3844  -14.5650   20.6993 O   0  0  0  0  0  0
  -24.6157  -31.8702   23.2075 C   0  0  0  0  0  0
  -25.9054  -32.4847   23.8398 C   0  0  1  0  0  0
  -27.2648  -27.4749   20.0806 C   0  0  0  0  0  0
  -25.5902  -33.8623   24.2344 N   0  0  0  0  0  0
  -23.4002  -30.4889   21.5502 C   0  0  2  0  0  0
  -24.8521  -28.9509   20.1155 C   0  0  0  0  0  0
  -22.7416  -29.4664   22.5019 C   0  0  0  0  0  0
  -18.0278  -28.1383   22.8500 C   0  0  0  0  0  0
  -24.1467  -36.7312   23.2623 C   0  0  0  0  0  0
  -25.9234  -30.8456   21.3540 C   0  0  0  0  0  0
  -26.0043  -29.4794   20.7075 C   0  0  0  0  0  0
  -27.2065  -28.7477   20.6821 C   0  0  0  0  0  0
  -26.0949  -26.9469   19.4912 C   0  0  0  0  0  0
  -24.8939  -27.6865   19.5001 C   0  0  0  0  0  0
  -23.6078  -29.8082   20.1678 C   0  0  0  0  0  0
  -25.4079  -36.3130   24.0375 C   0  0  1  0  0  0
  -20.5860  -28.3667   23.1329 C   0  0  2  0  0  0
  -20.6740  -26.9391   22.5420 C   0  0  0  0  0  0
  -19.5728  -26.6393   21.5199 C   0  0  0  0  0  0
  -18.1923  -26.7937   22.1626 C   0  0  0  0  0  0
  -19.1525  -28.8842   23.2916 C   0  0  0  0  0  0
  -18.9448  -30.1447   23.8919 C   0  0  0  0  0  0
  -17.6452  -30.6583   24.0560 C   0  0  0  0  0  0
  -25.9028  -34.9491   23.5160 C   0  0  0  0  0  0
  -16.5346  -29.9090   23.6301 C   0  0  0  0  0  0
  -16.7266  -28.6506   23.0329 C   0  0  0  0  0  0
  -26.4467  -31.6613   25.0708 C   0  0  0  0  0  0
  -25.3724  -31.3722   26.1462 C   0  0  0  0  0  0
  -27.0252  -30.3072   24.6027 C   0  0  0  0  0  0
  -27.6079  -32.4281   25.7408 C   0  0  0  0  0  0
  -27.5598  -37.1794   24.8470 C   0  0  0  0  0  0
  -21.4154  -29.3049   22.3740 N   0  0  0  0  0  0
  -26.4281  -37.3817   23.9453 N   0  0  0  0  0  0
  -24.6635  -31.0834   22.0954 N   0  0  0  0  0  0
  -23.4178  -28.8180   23.3050 O   0  0  0  0  0  0
  -28.4904  -26.8511   20.0865 O   0  0  0  0  0  0
  -26.5550  -34.8938   22.4699 O   0  0  0  0  0  0
  -23.5358  -32.1410   23.7493 O   0  0  0  0  0  0
  -30.5578  -19.3046   18.3937 C   0  0  0  0  0  0
  -29.5722  -19.1992   17.4125 C   0  0  0  0  0  0
  -30.2153  -21.4979   17.8897 C   0  0  0  0  0  0
  -29.2042  -23.6675   18.2906 C   0  0  0  0  0  0
  -30.3937  -17.9863   20.6139 C   0  0  0  0  0  0
  -31.5925  -16.9613   18.6552 C   0  0  0  0  0  0
  -30.4865  -16.5583   21.2300 C   0  0  0  0  0  0
  -30.4962  -15.9030   18.8435 C   0  0  0  0  0  0
  -31.2055  -18.2728   19.3256 C   0  0  0  0  0  0
  -28.7942  -18.0549   16.8528 C   0  0  0  0  0  0
  -29.4341  -25.1116   18.7182 C   0  0  0  0  0  0
  -28.5881  -25.4428   19.9559 C   0  0  0  0  0  0
  -30.9557  -20.6339   18.5798 N   0  0  0  0  0  0
  -30.3169  -15.4844   20.2465 N   0  0  0  0  0  0
  -30.2780  -22.8726   18.1669 N   0  0  0  0  0  0
  -28.0450  -23.2886   18.1027 O   0  0  0  0  0  0
  -29.0973  -20.7515   16.7830 S   0  0  0  0  0  0
  -31.4032  -12.5248   18.8024 H   0  0  0  0  0  0
  -30.5124  -11.2767   19.5994 H   0  0  0  0  0  0
  -29.5739  -11.8567   17.3069 H   0  0  0  0  0  0
  -29.3578  -13.5305   17.7953 H   0  0  0  0  0  0
  -28.1236  -11.1021   19.1003 H   0  0  0  0  0  0
  -27.2128  -12.1038   18.0286 H   0  0  0  0  0  0
  -27.7124  -14.1049   19.5066 H   0  0  0  0  0  0
  -28.8144  -11.9461   21.3902 H   0  0  0  0  0  0
  -28.5544  -13.6460   21.8402 H   0  0  0  0  0  0
  -25.2896   -9.5181   22.4866 H   0  0  0  0  0  0
  -24.0018   -7.4343   22.7496 H   0  0  0  0  0  0
  -21.1282   -8.8834   19.8599 H   0  0  0  0  0  0
  -22.4435  -10.9674   19.6019 H   0  0  0  0  0  0
  -21.1844   -7.6117   23.9770 H   0  0  0  0  0  0
  -21.1576   -6.0486   25.9166 H   0  0  0  0  0  0
  -22.0627   -2.7612   23.2829 H   0  0  0  0  0  0
  -22.4665  -11.9171   22.3628 H   0  0  0  0  0  0
  -21.1403  -13.0435   22.2520 H   0  0  0  0  0  0
  -24.7833  -15.8576   20.5408 H   0  0  0  0  0  0
  -26.4060  -15.5696   20.1596 H   0  0  0  0  0  0
  -26.7093  -32.5596   23.1131 H   0  0  0  0  0  0
  -25.0117  -33.9755   25.0544 H   0  0  0  0  0  0
  -22.6909  -31.3045   21.4058 H   0  0  0  0  0  0
  -23.3771  -35.9607   23.3263 H   0  0  0  0  0  0
  -24.3558  -36.8948   22.2041 H   0  0  0  0  0  0
  -23.7176  -37.6502   23.6617 H   0  0  0  0  0  0
  -26.0229  -31.6011   20.5737 H   0  0  0  0  0  0
  -26.8174  -30.9073   21.9612 H   0  0  0  0  0  0
  -28.1032  -29.1641   21.1159 H   0  0  0  0  0  0
  -26.0903  -25.9866   18.9955 H   0  0  0  0  0  0
  -24.0143  -27.2786   19.0180 H   0  0  0  0  0  0
  -23.7027  -30.5718   19.4008 H   0  0  0  0  0  0
  -22.7361  -29.2197   19.8778 H   0  0  0  0  0  0
  -25.1234  -36.1997   25.0879 H   0  0  0  0  0  0
  -20.9979  -28.3240   24.1440 H   0  0  0  0  0  0
  -20.5622  -26.2271   23.3626 H   0  0  0  0  0  0
  -21.6626  -26.7424   22.1224 H   0  0  0  0  0  0
  -19.6881  -25.6302   21.1234 H   0  0  0  0  0  0
  -19.6671  -27.3200   20.6729 H   0  0  0  0  0  0
  -17.4190  -26.6703   21.4037 H   0  0  0  0  0  0
  -18.0325  -26.0062   22.8999 H   0  0  0  0  0  0
  -19.7911  -30.7253   24.2337 H   0  0  0  0  0  0
  -17.4990  -31.6263   24.5150 H   0  0  0  0  0  0
  -15.5345  -30.2983   23.7612 H   0  0  0  0  0  0
  -15.8668  -28.0822   22.7030 H   0  0  0  0  0  0
  -24.5902  -30.7064   25.7803 H   0  0  0  0  0  0
  -24.8883  -32.2870   26.4900 H   0  0  0  0  0  0
  -25.8091  -30.8904   27.0229 H   0  0  0  0  0  0
  -26.2770  -29.6858   24.1094 H   0  0  0  0  0  0
  -27.4077  -29.7291   25.4453 H   0  0  0  0  0  0
  -27.8568  -30.4424   23.9096 H   0  0  0  0  0  0
  -27.2790  -33.3585   26.2043 H   0  0  0  0  0  0
  -28.3828  -32.6865   25.0167 H   0  0  0  0  0  0
  -28.0806  -31.8361   26.5264 H   0  0  0  0  0  0
  -28.2610  -38.0088   24.7567 H   0  0  0  0  0  0
  -28.1117  -36.2667   24.6224 H   0  0  0  0  0  0
  -27.2338  -37.1343   25.8868 H   0  0  0  0  0  0
  -20.9330  -29.8773   21.6935 H   0  0  0  0  0  0
  -26.0214  -38.2915   24.1461 H   0  0  0  0  0  0
  -30.6770  -18.6956   21.3810 H   0  0  0  0  0  0
  -29.3597  -18.2203   20.3792 H   0  0  0  0  0  0
  -31.8960  -17.1008   17.6164 H   0  0  0  0  0  0
  -32.4974  -16.6071   19.1467 H   0  0  0  0  0  0
  -29.7195  -16.4277   22.0000 H   0  0  0  0  0  0
  -31.4433  -16.4351   21.7543 H   0  0  0  0  0  0
  -30.7605  -15.0702   18.1887 H   0  0  0  0  0  0
  -29.5447  -16.3084   18.5170 H   0  0  0  0  0  0
  -32.1556  -18.6886   19.6661 H   0  0  0  0  0  0
  -27.9775  -17.7644   17.5221 H   0  0  0  0  0  0
  -29.4301  -17.1998   16.6155 H   0  0  0  0  0  0
  -28.3294  -18.3854   15.9230 H   0  0  0  0  0  0
  -29.1612  -25.7559   17.8836 H   0  0  0  0  0  0
  -30.4874  -25.2839   18.9294 H   0  0  0  0  0  0
  -29.1079  -25.0792   20.8398 H   0  0  0  0  0  0
  -27.6280  -24.9350   19.9755 H   0  0  0  0  0  0
  -31.1715  -23.2504   18.4416 H   0  0  0  0  0  0
  1 25  1  0  0  0
  1 30  2  0  0  0
  1 84  1  0  0  0
  2  3  1  0  0  0
  2 25  1  0  0  0
  2 88  1  0  0  0
  2 89  1  0  0  0
  3  4  1  0  0  0
  3 90  1  0  0  0
  3 91  1  0  0  0
  4  5  1  0  0  0
  4 92  1  0  0  0
  4 93  1  0  0  0
  5  6  1  0  0  0
  5 26  1  0  0  0
  5 94  1  0  0  0
  6 25  1  0  0  0
  6 95  1  0  0  0
  6 96  1  0  0  0
  7  8  2  0  0  0
  7 26  1  0  0  0
  7 29  1  0  0  0
  8  9  1  0  0  0
  8 22  1  0  0  0
  9 10  1  0  0  0
  9 27  2  0  0  0
 10 11  2  0  0  0
 10 15  1  0  0  0
 11 12  1  0  0  0
 11 97  1  0  0  0
 12 13  2  0  0  0
 12 98  1  0  0  0
 13 14  1  0  0  0
 13 31  1  0  0  0
 14 15  2  0  0  0
 14 99  1  0  0  0
 15100  1  0  0  0
 16 17  2  0  0  0
 16 21  1  0  0  0
 16 31  1  0  0  0
 17 18  1  0  0  0
 17101  1  0  0  0
 18 19  2  0  0  0
 18102  1  0  0  0
 19 20  1  0  0  0
 19 24  1  0  0  0
 20 21  2  0  0  0
 20103  1  0  0  0
 21 23  1  0  0  0
 22 28  1  0  0  0
 22 32  2  0  0  0
 26 27  1  0  0  0
 28104  1  0  0  0
 28105  1  0  0  0
 29106  1  0  0  0
 29107  1  0  0  0
 33 34  1  0  0  0
 33 66  1  0  0  0
 33 70  2  0  0  0
 34 36  1  0  0  0
 34 59  1  0  0  0
 34108  1  0  0  0
 35 44  2  0  0  0
 35 45  1  0  0  0
 35 68  1  0  0  0
 36 56  1  0  0  0
 36109  1  0  0  0
 37 39  1  0  0  0
 37 47  1  0  0  0
 37 66  1  0  0  0
 37110  1  0  0  0
 38 43  2  0  0  0
 38 46  1  0  0  0
 38 47  1  0  0  0
 39 64  1  0  0  0
 39 67  2  0  0  0
 40 52  1  0  0  0
 40 53  2  0  0  0
 40 58  1  0  0  0
 41111  1  0  0  0
 41112  1  0  0  0
 41113  1  0  0  0
 41 48  1  0  0  0
 42 43  1  0  0  0
 42 66  1  0  0  0
 42114  1  0  0  0
 42115  1  0  0  0
 43 44  1  0  0  0
 44116  1  0  0  0
 45 46  2  0  0  0
 45117  1  0  0  0
 46118  1  0  0  0
 47119  1  0  0  0
 47120  1  0  0  0
 48 56  1  0  0  0
 48 65  1  0  0  0
 48121  1  0  0  0
 49 50  1  0  0  0
 49 53  1  0  0  0
 49 64  1  0  0  0
 49122  1  0  0  0
 50 51  1  0  0  0
 50123  1  0  0  0
 50124  1  0  0  0
 51 52  1  0  0  0
 51125  1  0  0  0
 51126  1  0  0  0
 52127  1  0  0  0
 52128  1  0  0  0
 53 54  1  0  0  0
 54 55  2  0  0  0
 54129  1  0  0  0
 55 57  1  0  0  0
 55130  1  0  0  0
 56 69  2  0  0  0
 57 58  2  0  0  0
 57131  1  0  0  0
 58132  1  0  0  0
 59 60  1  0  0  0
 59 61  1  0  0  0
 59 62  1  0  0  0
 60133  1  0  0  0
 60134  1  0  0  0
 60135  1  0  0  0
 61136  1  0  0  0
 61137  1  0  0  0
 61138  1  0  0  0
 62139  1  0  0  0
 62140  1  0  0  0
 62141  1  0  0  0
 63 65  1  0  0  0
 63142  1  0  0  0
 63143  1  0  0  0
 63144  1  0  0  0
 64145  1  0  0  0
 65146  1  0  0  0
 68 82  1  0  0  0
 71 72  2  0  0  0
 71 83  1  0  0  0
 71 79  1  0  0  0
 72 80  1  0  0  0
 72 87  1  0  0  0
 73 83  2  0  0  0
 73 85  1  0  0  0
 73 87  1  0  0  0
 74 81  1  0  0  0
 74 85  1  0  0  0
 74 86  2  0  0  0
 75 77  1  0  0  0
 75 79  1  0  0  0
 75147  1  0  0  0
 75148  1  0  0  0
 76 78  1  0  0  0
 76 79  1  0  0  0
 76149  1  0  0  0
 76150  1  0  0  0
 77 84  1  0  0  0
 77151  1  0  0  0
 77152  1  0  0  0
 78 84  1  0  0  0
 78153  1  0  0  0
 78154  1  0  0  0
 79155  1  0  0  0
 80156  1  0  0  0
 80157  1  0  0  0
 80158  1  0  0  0
 81 82  1  0  0  0
 81159  1  0  0  0
 81160  1  0  0  0
 82161  1  0  0  0
 82162  1  0  0  0
 85163  1  0  0  0
M  ISO  4   1 100  68 101  82 101  84 100
M  END
> <chiral flag>
0

> <version>
0

> <s_m_source_file>
/data/baiqing/PycharmProjects/Reinvent-master-3.2/result/LINK_invent/BTK/process_docking_weight1_custom_product_contain_oxygen_bond_distance_aromatic_linkinvent_7_9_3/rearranged_h_0162.sdf

> <i_m_source_file_index>
97

> <r_mmod_Potential_Energy-OPLS-2005>
232.054672241211

> <r_mmod_Stretch_Energy-OPLS-2005>
37.2737274169922

> <r_mmod_Bend_Energy-OPLS-2005>
146.237838745117

> <r_mmod_Torsional_Energy-OPLS-2005>
369.651580810547

> <r_mmod_Improper_Torsional_Energy-OPLS-2005>
25.6855907440186

> <r_mmod_Van_der_Waal_Energy-OPLS-2005>
161.236618041992

> <r_mmod_Electrostatic_Energy-OPLS-2005>
-359.10595703125

> <r_mmod_Solvation_Energy-OPLS-2005>
-214.512466430664

> <b_mmod_Minimization_Converged-OPLS-2005>
0

> <r_mmod_RMS_Derivative-OPLS-2005>
15.9223575592041

$$$$
