0
                    3D
 Structure written by MMmdl.
153161  0  0  1  0            999 V2000
  -30.6761  -14.5391   20.6087 C   0  0  0  0  0  0
  -30.4258  -12.3726   19.4228 C   0  0  0  0  0  0
  -29.4896  -12.5453   18.2053 C   0  0  0  0  0  0
  -28.0092  -12.3958   18.6104 C   0  0  0  0  0  0
  -27.6574  -13.2130   19.8806 C   0  0  2  0  0  0
  -28.6964  -12.9673   20.9925 C   0  0  0  0  0  0
  -25.2568  -13.8166   20.5697 C   0  0  0  0  0  0
  -24.1821  -13.0432   20.9191 C   0  0  0  0  0  0
  -24.6388  -11.6905   20.8735 C   0  0  0  0  0  0
  -23.9060  -10.4295   21.0397 C   0  0  0  0  0  0
  -24.3614   -9.4205   21.9170 C   0  0  0  0  0  0
  -23.6295   -8.2242   22.0745 C   0  0  0  0  0  0
  -22.4275   -8.0275   21.3535 C   0  0  0  0  0  0
  -21.9900   -9.0253   20.4641 C   0  0  0  0  0  0
  -22.7232  -10.2135   20.3053 C   0  0  0  0  0  0
  -21.6846   -6.0732   22.5277 C   0  0  0  0  0  0
  -21.4006   -6.5637   23.8205 C   0  0  0  0  0  0
  -21.3654   -5.6789   24.9172 C   0  0  0  0  0  0
  -21.6048   -4.3060   24.7220 C   0  0  0  0  0  0
  -21.8819   -3.8149   23.4350 C   0  0  0  0  0  0
  -21.9192   -4.6967   22.3398 C   0  0  0  0  0  0
  -22.7860  -13.5226   21.1873 C   0  0  0  0  0  0
  -22.1662   -4.2149   21.0982 F   0  0  0  0  0  0
  -21.5632   -3.4541   25.7737 F   0  0  0  0  0  0
  -30.0208  -13.3402   20.4635 N   0  0  0  0  0  0
  -26.2999  -12.9339   20.3390 N   0  0  0  0  0  0
  -25.9310  -11.6494   20.5749 N   0  0  0  0  0  0
  -22.0525  -12.8197   22.0444 N   0  0  0  0  0  0
  -25.4292  -15.1889   20.4104 N   0  0  0  0  0  0
  -31.7578  -14.7570   20.0481 O   0  0  0  0  0  0
  -21.6636   -6.8883   21.4235 O   0  0  0  0  0  0
  -22.3528  -14.5532   20.6737 O   0  0  0  0  0  0
  -24.6181  -31.8659   23.2082 C   0  0  0  0  0  0
  -25.9082  -32.4813   23.8380 C   0  0  1  0  0  0
  -27.2378  -27.4077   20.0902 C   0  0  0  0  0  0
  -25.5948  -33.8613   24.2304 N   0  0  0  0  0  0
  -23.4076  -30.4853   21.5482 C   0  0  2  0  0  0
  -24.8572  -28.9471   20.1118 C   0  0  0  0  0  0
  -22.7433  -29.4651   22.5007 C   0  0  0  0  0  0
  -18.0268  -28.1383   22.8477 C   0  0  0  0  0  0
  -24.1473  -36.7266   23.2639 C   0  0  0  0  0  0
  -25.9406  -30.8191   21.3699 C   0  0  0  0  0  0
  -26.0199  -29.4537   20.7072 C   0  0  0  0  0  0
  -27.2170  -28.6932   20.6891 C   0  0  0  0  0  0
  -26.0592  -26.9259   19.4850 C   0  0  0  0  0  0
  -24.8734  -27.6829   19.4945 C   0  0  0  0  0  0
  -23.6171  -29.8104   20.1662 C   0  0  0  0  0  0
  -25.4104  -36.3082   24.0327 C   0  0  1  0  0  0
  -20.5865  -28.3679   23.1312 C   0  0  2  0  0  0
  -20.6748  -26.9409   22.5439 C   0  0  0  0  0  0
  -19.5742  -26.6356   21.5225 C   0  0  0  0  0  0
  -18.1894  -26.7945   22.1565 C   0  0  0  0  0  0
  -19.1520  -28.8848   23.2874 C   0  0  0  0  0  0
  -18.9455  -30.1459   23.8885 C   0  0  0  0  0  0
  -17.6462  -30.6593   24.0576 C   0  0  0  0  0  0
  -25.9046  -34.9470   23.5094 C   0  0  0  0  0  0
  -16.5344  -29.9085   23.6378 C   0  0  0  0  0  0
  -16.7264  -28.6501   23.0391 C   0  0  0  0  0  0
  -26.4513  -31.6648   25.0744 C   0  0  0  0  0  0
  -25.3758  -31.3768   26.1477 C   0  0  0  0  0  0
  -27.0424  -30.3106   24.6182 C   0  0  0  0  0  0
  -27.6043  -32.4446   25.7488 C   0  0  0  0  0  0
  -27.5594  -37.1741   24.8442 C   0  0  0  0  0  0
  -21.4167  -29.3027   22.3730 N   0  0  0  0  0  0
  -26.4268  -37.3794   23.9437 N   0  0  0  0  0  0
  -24.6723  -31.0727   22.0994 N   0  0  0  0  0  0
  -23.4196  -28.8208   23.3078 O   0  0  0  0  0  0
  -28.3702  -26.6120   20.0908 O   0  0  0  0  0  0
  -26.5600  -34.8934   22.4651 O   0  0  0  0  0  0
  -23.5371  -32.1444   23.7450 O   0  0  0  0  0  0
  -29.1630  -18.1227   21.4380 C   0  0  0  0  0  0
  -29.2705  -19.1804   20.4779 C   0  0  0  0  0  0
  -29.7935  -16.9960   20.9577 C   0  0  0  0  0  0
  -29.9443  -18.6023   19.4227 C   0  0  0  0  0  0
  -28.4134  -24.0676   20.0163 C   0  0  0  0  0  0
  -28.9558  -22.9216   20.5108 C   0  0  0  0  0  0
  -30.0448  -15.6337   21.5161 C   0  0  0  0  0  0
  -30.3898  -19.0289   18.0628 C   0  0  0  0  0  0
  -28.2321  -25.3686   20.8251 C   0  0  0  0  0  0
  -29.1217  -21.5606   19.8070 C   0  0  0  0  0  0
  -29.7789  -15.4010   22.7369 N   0  0  0  0  0  0
  -30.2651  -17.2948   19.7121 O   0  0  0  0  0  0
  -28.7461  -20.4619   20.6599 O   0  0  0  0  0  0
  -31.4654  -12.5003   19.1160 H   0  0  0  0  0  0
  -30.3593  -11.3557   19.8118 H   0  0  0  0  0  0
  -29.7368  -11.8150   17.4337 H   0  0  0  0  0  0
  -29.6432  -13.5287   17.7560 H   0  0  0  0  0  0
  -27.8095  -11.3369   18.7792 H   0  0  0  0  0  0
  -27.3617  -12.6984   17.7857 H   0  0  0  0  0  0
  -27.7070  -14.2678   19.6101 H   0  0  0  0  0  0
  -28.7029  -11.9120   21.2687 H   0  0  0  0  0  0
  -28.4123  -13.4859   21.9042 H   0  0  0  0  0  0
  -25.2763   -9.5679   22.4737 H   0  0  0  0  0  0
  -24.0014   -7.4624   22.7445 H   0  0  0  0  0  0
  -21.0843   -8.8771   19.8936 H   0  0  0  0  0  0
  -22.3689  -10.9679   19.6169 H   0  0  0  0  0  0
  -21.1988   -7.6141   23.9706 H   0  0  0  0  0  0
  -21.1469   -6.0524   25.9072 H   0  0  0  0  0  0
  -22.0600   -2.7611   23.2846 H   0  0  0  0  0  0
  -22.4161  -11.9854   22.4801 H   0  0  0  0  0  0
  -21.1165  -13.1222   22.2713 H   0  0  0  0  0  0
  -24.6625  -15.8458   20.5084 H   0  0  0  0  0  0
  -26.2873  -15.6276   20.0988 H   0  0  0  0  0  0
  -26.7155  -32.5503   23.1141 H   0  0  0  0  0  0
  -25.0284  -33.9794   25.0570 H   0  0  0  0  0  0
  -22.6952  -31.3007   21.4039 H   0  0  0  0  0  0
  -23.3789  -35.9542   23.3245 H   0  0  0  0  0  0
  -24.3557  -36.8935   22.2064 H   0  0  0  0  0  0
  -23.7151  -37.6402   23.6721 H   0  0  0  0  0  0
  -26.0715  -31.5930   20.6121 H   0  0  0  0  0  0
  -26.8206  -30.8587   22.0000 H   0  0  0  0  0  0
  -28.1144  -29.0791   21.1539 H   0  0  0  0  0  0
  -26.0647  -25.9574   19.0046 H   0  0  0  0  0  0
  -23.9809  -27.2893   19.0260 H   0  0  0  0  0  0
  -23.7123  -30.5802   19.3998 H   0  0  0  0  0  0
  -22.7449  -29.2193   19.8797 H   0  0  0  0  0  0
  -25.1274  -36.1905   25.0818 H   0  0  0  0  0  0
  -20.9921  -28.3264   24.1454 H   0  0  0  0  0  0
  -20.5632  -26.2316   23.3653 H   0  0  0  0  0  0
  -21.6619  -26.7445   22.1249 H   0  0  0  0  0  0
  -19.6907  -25.6246   21.1310 H   0  0  0  0  0  0
  -19.6711  -27.3123   20.6727 H   0  0  0  0  0  0
  -17.4214  -26.6806   21.3904 H   0  0  0  0  0  0
  -18.0169  -26.0049   22.8894 H   0  0  0  0  0  0
  -19.7946  -30.7255   24.2239 H   0  0  0  0  0  0
  -17.5046  -31.6282   24.5166 H   0  0  0  0  0  0
  -15.5353  -30.2987   23.7732 H   0  0  0  0  0  0
  -15.8655  -28.0818   22.7148 H   0  0  0  0  0  0
  -24.6062  -30.6938   25.7879 H   0  0  0  0  0  0
  -24.8806  -32.2916   26.4757 H   0  0  0  0  0  0
  -25.8139  -30.9167   27.0344 H   0  0  0  0  0  0
  -26.3025  -29.6770   24.1297 H   0  0  0  0  0  0
  -27.4276  -29.7440   25.4668 H   0  0  0  0  0  0
  -27.8802  -30.4462   23.9330 H   0  0  0  0  0  0
  -27.2628  -33.3750   26.2054 H   0  0  0  0  0  0
  -28.3839  -32.7027   25.0304 H   0  0  0  0  0  0
  -28.0772  -31.8631   26.5409 H   0  0  0  0  0  0
  -28.2541  -38.0120   24.7636 H   0  0  0  0  0  0
  -28.1151  -36.2647   24.6069 H   0  0  0  0  0  0
  -27.2345  -37.1161   25.8850 H   0  0  0  0  0  0
  -20.9369  -29.8749   21.6928 H   0  0  0  0  0  0
  -26.0137  -38.2836   24.1555 H   0  0  0  0  0  0
  -28.6742  -18.1875   22.3998 H   0  0  0  0  0  0
  -28.0435  -24.0908   19.0005 H   0  0  0  0  0  0
  -29.3265  -22.9297   21.5249 H   0  0  0  0  0  0
  -30.1040  -20.0475   17.8141 H   0  0  0  0  0  0
  -29.9488  -18.3781   17.3085 H   0  0  0  0  0  0
  -31.4739  -18.9516   17.9758 H   0  0  0  0  0  0
  -28.9580  -25.3843   21.6375 H   0  0  0  0  0  0
  -27.2558  -25.3107   21.3106 H   0  0  0  0  0  0
  -30.1676  -21.4678   19.5175 H   0  0  0  0  0  0
  -28.5103  -21.5369   18.9034 H   0  0  0  0  0  0
  -29.4037  -16.2190   23.2017 H   0  0  0  0  0  0
  1 25  1  0  0  0
  1 30  2  0  0  0
  1 77  1  0  0  0
  2  3  1  0  0  0
  2 25  1  0  0  0
  2 84  1  0  0  0
  2 85  1  0  0  0
  3  4  1  0  0  0
  3 86  1  0  0  0
  3 87  1  0  0  0
  4  5  1  0  0  0
  4 88  1  0  0  0
  4 89  1  0  0  0
  5  6  1  0  0  0
  5 26  1  0  0  0
  5 90  1  0  0  0
  6 25  1  0  0  0
  6 91  1  0  0  0
  6 92  1  0  0  0
  7  8  2  0  0  0
  7 26  1  0  0  0
  7 29  1  0  0  0
  8  9  1  0  0  0
  8 22  1  0  0  0
  9 10  1  0  0  0
  9 27  2  0  0  0
 10 11  2  0  0  0
 10 15  1  0  0  0
 11 12  1  0  0  0
 11 93  1  0  0  0
 12 13  2  0  0  0
 12 94  1  0  0  0
 13 14  1  0  0  0
 13 31  1  0  0  0
 14 15  2  0  0  0
 14 95  1  0  0  0
 15 96  1  0  0  0
 16 17  2  0  0  0
 16 21  1  0  0  0
 16 31  1  0  0  0
 17 18  1  0  0  0
 17 97  1  0  0  0
 18 19  2  0  0  0
 18 98  1  0  0  0
 19 20  1  0  0  0
 19 24  1  0  0  0
 20 21  2  0  0  0
 20 99  1  0  0  0
 21 23  1  0  0  0
 22 28  1  0  0  0
 22 32  2  0  0  0
 26 27  1  0  0  0
 28100  1  0  0  0
 28101  1  0  0  0
 29102  1  0  0  0
 29103  1  0  0  0
 33 34  1  0  0  0
 33 66  1  0  0  0
 33 70  2  0  0  0
 34 36  1  0  0  0
 34 59  1  0  0  0
 34104  1  0  0  0
 35 44  2  0  0  0
 35 45  1  0  0  0
 35 68  1  0  0  0
 36 56  1  0  0  0
 36105  1  0  0  0
 37 39  1  0  0  0
 37 47  1  0  0  0
 37 66  1  0  0  0
 37106  1  0  0  0
 38 43  2  0  0  0
 38 46  1  0  0  0
 38 47  1  0  0  0
 39 64  1  0  0  0
 39 67  2  0  0  0
 40 52  1  0  0  0
 40 53  2  0  0  0
 40 58  1  0  0  0
 41107  1  0  0  0
 41108  1  0  0  0
 41109  1  0  0  0
 41 48  1  0  0  0
 42 43  1  0  0  0
 42 66  1  0  0  0
 42110  1  0  0  0
 42111  1  0  0  0
 43 44  1  0  0  0
 44112  1  0  0  0
 45 46  2  0  0  0
 45113  1  0  0  0
 46114  1  0  0  0
 47115  1  0  0  0
 47116  1  0  0  0
 48 56  1  0  0  0
 48 65  1  0  0  0
 48117  1  0  0  0
 49 50  1  0  0  0
 49 53  1  0  0  0
 49 64  1  0  0  0
 49118  1  0  0  0
 50 51  1  0  0  0
 50119  1  0  0  0
 50120  1  0  0  0
 51 52  1  0  0  0
 51121  1  0  0  0
 51122  1  0  0  0
 52123  1  0  0  0
 52124  1  0  0  0
 53 54  1  0  0  0
 54 55  2  0  0  0
 54125  1  0  0  0
 55 57  1  0  0  0
 55126  1  0  0  0
 56 69  2  0  0  0
 57 58  2  0  0  0
 57127  1  0  0  0
 58128  1  0  0  0
 59 60  1  0  0  0
 59 61  1  0  0  0
 59 62  1  0  0  0
 60129  1  0  0  0
 60130  1  0  0  0
 60131  1  0  0  0
 61132  1  0  0  0
 61133  1  0  0  0
 61134  1  0  0  0
 62135  1  0  0  0
 62136  1  0  0  0
 62137  1  0  0  0
 63 65  1  0  0  0
 63138  1  0  0  0
 63139  1  0  0  0
 63140  1  0  0  0
 64141  1  0  0  0
 65142  1  0  0  0
 68 79  1  0  0  0
 71 72  1  0  0  0
 71 73  2  0  0  0
 71143  1  0  0  0
 72 74  2  0  0  0
 72 83  1  0  0  0
 73 77  1  0  0  0
 73 82  1  0  0  0
 74 78  1  0  0  0
 74 82  1  0  0  0
 75 76  2  0  0  0
 75 79  1  0  0  0
 75144  1  0  0  0
 76 80  1  0  0  0
 76145  1  0  0  0
 77 81  2  0  0  0
 78146  1  0  0  0
 78147  1  0  0  0
 78148  1  0  0  0
 79149  1  0  0  0
 79150  1  0  0  0
 80 83  1  0  0  0
 80151  1  0  0  0
 80152  1  0  0  0
 81153  1  0  0  0
M  ISO  4   1 100  68 101  77 100  79 101
M  END
> <chiral flag>
0

> <version>
0

> <s_m_source_file>
/data/baiqing/PycharmProjects/Reinvent-master-3.2/result/LINK_invent/BTK/process_docking_weight1_custom_product_contain_oxygen_bond_distance_aromatic_linkinvent_7_9_3/rearranged_h_0111.sdf

> <i_m_source_file_index>
1

> <r_mmod_Potential_Energy-OPLS-2005>
107.953308105469

> <r_mmod_Stretch_Energy-OPLS-2005>
52.3408966064453

> <r_mmod_Bend_Energy-OPLS-2005>
121.143585205078

> <r_mmod_Torsional_Energy-OPLS-2005>
216.432357788086

> <r_mmod_Improper_Torsional_Energy-OPLS-2005>
2.21948862075806

> <r_mmod_Van_der_Waal_Energy-OPLS-2005>
127.317047119141

> <r_mmod_Electrostatic_Energy-OPLS-2005>
-230.193923950195

> <r_mmod_Solvation_Energy-OPLS-2005>
-201.062713623047

> <b_mmod_Minimization_Converged-OPLS-2005>
0

> <r_mmod_RMS_Derivative-OPLS-2005>
3.42500758171082

$$$$
1
                    3D
 Structure written by MMmdl.
162170  0  0  1  0            999 V2000
  -30.5743  -14.8762   20.3582 C   0  0  0  0  0  0
  -30.4453  -12.5272   19.4701 C   0  0  0  0  0  0
  -29.5106  -12.4767   18.2406 C   0  0  0  0  0  0
  -28.0475  -12.2541   18.6744 C   0  0  0  0  0  0
  -27.6192  -13.1961   19.8269 C   0  0  2  0  0  0
  -28.6781  -13.2616   20.9476 C   0  0  0  0  0  0
  -25.2520  -13.8067   20.5755 C   0  0  0  0  0  0
  -24.1769  -13.0372   20.9252 C   0  0  0  0  0  0
  -24.6320  -11.6835   20.8800 C   0  0  0  0  0  0
  -23.8999  -10.4242   21.0440 C   0  0  0  0  0  0
  -24.3568   -9.4167   21.9208 C   0  0  0  0  0  0
  -23.6263   -8.2198   22.0761 C   0  0  0  0  0  0
  -22.4249   -8.0244   21.3543 C   0  0  0  0  0  0
  -21.9870   -9.0217   20.4647 C   0  0  0  0  0  0
  -22.7187  -10.2102   20.3072 C   0  0  0  0  0  0
  -21.6841   -6.0719   22.5283 C   0  0  0  0  0  0
  -21.4002   -6.5630   23.8215 C   0  0  0  0  0  0
  -21.3651   -5.6788   24.9178 C   0  0  0  0  0  0
  -21.6046   -4.3053   24.7230 C   0  0  0  0  0  0
  -21.8824   -3.8141   23.4355 C   0  0  0  0  0  0
  -21.9185   -4.6950   22.3406 C   0  0  0  0  0  0
  -22.7806  -13.5216   21.1883 C   0  0  0  0  0  0
  -22.1654   -4.2136   21.0985 F   0  0  0  0  0  0
  -21.5630   -3.4541   25.7748 F   0  0  0  0  0  0
  -29.9690  -13.6258   20.3430 N   0  0  0  0  0  0
  -26.2852  -12.9155   20.3292 N   0  0  0  0  0  0
  -25.9229  -11.6354   20.5812 N   0  0  0  0  0  0
  -22.0424  -12.8224   22.0434 N   0  0  0  0  0  0
  -25.4294  -15.1780   20.4191 N   0  0  0  0  0  0
  -31.8053  -14.9394   20.2911 O   0  0  0  0  0  0
  -21.6620   -6.8846   21.4240 O   0  0  0  0  0  0
  -22.3506  -14.5516   20.6703 O   0  0  0  0  0  0
  -24.6410  -31.8514   23.1977 C   0  0  0  0  0  0
  -25.9210  -32.4725   23.8335 C   0  0  1  0  0  0
  -27.2012  -27.1830   20.1223 C   0  0  0  0  0  0
  -25.5991  -33.8535   24.2249 N   0  0  0  0  0  0
  -23.4386  -30.4807   21.5443 C   0  0  2  0  0  0
  -24.8824  -28.9349   20.1050 C   0  0  0  0  0  0
  -22.7552  -29.4596   22.4887 C   0  0  0  0  0  0
  -18.0302  -28.1396   22.8476 C   0  0  0  0  0  0
  -24.1496  -36.7265   23.2635 C   0  0  0  0  0  0
  -25.9966  -30.7428   21.3902 C   0  0  0  0  0  0
  -26.0651  -29.3645   20.7200 C   0  0  0  0  0  0
  -27.2256  -28.5065   20.7133 C   0  0  0  0  0  0
  -25.9829  -26.8660   19.4703 C   0  0  0  0  0  0
  -24.8513  -27.6939   19.4682 C   0  0  0  0  0  0
  -23.6586  -29.8283   20.1580 C   0  0  0  0  0  0
  -25.4120  -36.3048   24.0319 C   0  0  1  0  0  0
  -20.5912  -28.3719   23.1243 C   0  0  2  0  0  0
  -20.6792  -26.9429   22.5396 C   0  0  0  0  0  0
  -19.5766  -26.6382   21.5205 C   0  0  0  0  0  0
  -18.1943  -26.7932   22.1614 C   0  0  0  0  0  0
  -19.1557  -28.8875   23.2851 C   0  0  0  0  0  0
  -18.9472  -30.1473   23.8871 C   0  0  0  0  0  0
  -17.6469  -30.6592   24.0558 C   0  0  0  0  0  0
  -25.9076  -34.9424   23.5080 C   0  0  0  0  0  0
  -16.5360  -29.9082   23.6344 C   0  0  0  0  0  0
  -16.7285  -28.6506   23.0359 C   0  0  0  0  0  0
  -26.4544  -31.6564   25.0753 C   0  0  0  0  0  0
  -25.3736  -31.3743   26.1455 C   0  0  0  0  0  0
  -27.0385  -30.2959   24.6300 C   0  0  0  0  0  0
  -27.6090  -32.4309   25.7518 C   0  0  0  0  0  0
  -27.5566  -37.1786   24.8462 C   0  0  0  0  0  0
  -21.4249  -29.3059   22.3629 N   0  0  0  0  0  0
  -26.4279  -37.3755   23.9410 N   0  0  0  0  0  0
  -24.7124  -31.0426   22.0991 N   0  0  0  0  0  0
  -23.4222  -28.8118   23.2995 O   0  0  0  0  0  0
  -28.2551  -26.1980   20.2146 O   0  0  0  0  0  0
  -26.5629  -34.8900   22.4635 O   0  0  0  0  0  0
  -23.5542  -32.1371   23.7223 O   0  0  0  0  0  0
  -30.2741  -20.1440   19.8260 C   0  0  0  0  0  0
  -28.2948  -19.6260   21.0120 C   0  0  0  0  0  0
  -29.7309  -17.6822   20.2688 C   0  0  0  0  0  0
  -30.5812  -18.7224   19.7314 C   0  0  0  0  0  0
  -29.0841  -20.6606   20.4269 C   0  0  0  0  0  0
  -28.5968  -18.2208   20.9511 C   0  0  0  0  0  0
  -29.7090  -16.1574   19.8248 C   0  0  0  0  0  0
  -31.5732  -17.9856   17.4949 C   0  0  0  0  0  0
  -27.8717  -24.4762   18.4705 C   0  0  0  0  0  0
  -26.7874  -24.2445   20.8514 C   0  0  0  0  0  0
  -31.8396  -18.3363   18.9653 C   0  0  0  0  0  0
  -29.1135  -23.4698   20.3706 C   0  0  0  0  0  0
  -28.0237  -24.6753   20.0023 C   0  0  0  0  0  0
  -28.9606  -15.9684   18.8205 N   0  0  0  0  0  0
  -28.5636  -22.0337   20.4229 N   0  0  0  0  0  0
  -27.6984  -17.3629   21.4954 F   0  0  0  0  0  0
  -31.4761  -12.6868   19.1491 H   0  0  0  0  0  0
  -30.4363  -11.5783   20.0089 H   0  0  0  0  0  0
  -29.8241  -11.6810   17.5644 H   0  0  0  0  0  0
  -29.5913  -13.4071   17.6772 H   0  0  0  0  0  0
  -27.9594  -11.2179   19.0042 H   0  0  0  0  0  0
  -27.3739  -12.3600   17.8227 H   0  0  0  0  0  0
  -27.5251  -14.1654   19.3645 H   0  0  0  0  0  0
  -28.7549  -12.3063   21.4678 H   0  0  0  0  0  0
  -28.3911  -14.0031   21.6946 H   0  0  0  0  0  0
  -25.2705   -9.5662   22.4787 H   0  0  0  0  0  0
  -23.9976   -7.4591   22.7473 H   0  0  0  0  0  0
  -21.0807   -8.8735   19.8948 H   0  0  0  0  0  0
  -22.3648  -10.9650   19.6189 H   0  0  0  0  0  0
  -21.1989   -7.6135   23.9718 H   0  0  0  0  0  0
  -21.1467   -6.0516   25.9086 H   0  0  0  0  0  0
  -22.0609   -2.7604   23.2863 H   0  0  0  0  0  0
  -22.4022  -11.9889   22.4839 H   0  0  0  0  0  0
  -21.1038  -13.1260   22.2618 H   0  0  0  0  0  0
  -24.6810  -15.8457   20.5633 H   0  0  0  0  0  0
  -26.3077  -15.6138   20.1636 H   0  0  0  0  0  0
  -26.7276  -32.5340   23.1064 H   0  0  0  0  0  0
  -25.0182  -33.9678   25.0426 H   0  0  0  0  0  0
  -22.7390  -31.3068   21.4011 H   0  0  0  0  0  0
  -23.3761  -35.9595   23.3288 H   0  0  0  0  0  0
  -24.3595  -36.8893   22.2052 H   0  0  0  0  0  0
  -23.7239  -37.6458   23.6669 H   0  0  0  0  0  0
  -26.1524  -31.5069   20.6268 H   0  0  0  0  0  0
  -26.8689  -30.7805   22.0316 H   0  0  0  0  0  0
  -28.1244  -28.8305   21.2192 H   0  0  0  0  0  0
  -25.8077  -25.9084   19.0159 H   0  0  0  0  0  0
  -23.9436  -27.3492   18.9925 H   0  0  0  0  0  0
  -23.7889  -30.6117   19.4100 H   0  0  0  0  0  0
  -22.7735  -29.2711   19.8452 H   0  0  0  0  0  0
  -25.1293  -36.1895   25.0808 H   0  0  0  0  0  0
  -20.9995  -28.3299   24.1368 H   0  0  0  0  0  0
  -20.5694  -26.2328   23.3610 H   0  0  0  0  0  0
  -21.6658  -26.7449   22.1181 H   0  0  0  0  0  0
  -19.6930  -25.6286   21.1251 H   0  0  0  0  0  0
  -19.6700  -27.3184   20.6730 H   0  0  0  0  0  0
  -17.4205  -26.6676   21.4024 H   0  0  0  0  0  0
  -18.0351  -26.0079   22.9018 H   0  0  0  0  0  0
  -19.7950  -30.7305   24.2216 H   0  0  0  0  0  0
  -17.5021  -31.6270   24.5167 H   0  0  0  0  0  0
  -15.5357  -30.2970   23.7698 H   0  0  0  0  0  0
  -15.8682  -28.0818   22.7085 H   0  0  0  0  0  0
  -24.5948  -30.7044   25.7788 H   0  0  0  0  0  0
  -24.8891  -32.2920   26.4805 H   0  0  0  0  0  0
  -25.8037  -30.8982   27.0276 H   0  0  0  0  0  0
  -26.2995  -29.6701   24.1284 H   0  0  0  0  0  0
  -27.3976  -29.7233   25.4860 H   0  0  0  0  0  0
  -27.8918  -30.4193   23.9625 H   0  0  0  0  0  0
  -27.2716  -33.3637   26.2048 H   0  0  0  0  0  0
  -28.3925  -32.6817   25.0353 H   0  0  0  0  0  0
  -28.0740  -31.8461   26.5468 H   0  0  0  0  0  0
  -28.2575  -38.0091   24.7509 H   0  0  0  0  0  0
  -28.1060  -36.2613   24.6281 H   0  0  0  0  0  0
  -27.2285  -37.1426   25.8866 H   0  0  0  0  0  0
  -20.9441  -29.8785   21.6836 H   0  0  0  0  0  0
  -26.0146  -38.2814   24.1431 H   0  0  0  0  0  0
  -30.9417  -20.8482   19.3493 H   0  0  0  0  0  0
  -27.3712  -19.8996   21.5011 H   0  0  0  0  0  0
  -32.5066  -17.7508   16.9829 H   0  0  0  0  0  0
  -31.1022  -18.8141   16.9659 H   0  0  0  0  0  0
  -30.9265  -17.1155   17.3903 H   0  0  0  0  0  0
  -27.3894  -23.5276   18.2356 H   0  0  0  0  0  0
  -28.8540  -24.4525   17.9990 H   0  0  0  0  0  0
  -27.3469  -25.2569   17.9316 H   0  0  0  0  0  0
  -27.1031  -23.9261   21.8463 H   0  0  0  0  0  0
  -26.2647  -23.4036   20.3938 H   0  0  0  0  0  0
  -26.0345  -24.9999   21.0489 H   0  0  0  0  0  0
  -32.3316  -17.5028   19.4666 H   0  0  0  0  0  0
  -32.5508  -19.1623   19.0104 H   0  0  0  0  0  0
  -29.5229  -23.6791   21.3597 H   0  0  0  0  0  0
  -29.9708  -23.5041   19.6974 H   0  0  0  0  0  0
  -28.5134  -16.8269   18.5262 H   0  0  0  0  0  0
  -27.5826  -22.0680   20.6839 H   0  0  0  0  0  0
  1 25  1  0  0  0
  1 30  2  0  0  0
  1 77  1  0  0  0
  2  3  1  0  0  0
  2 25  1  0  0  0
  2 87  1  0  0  0
  2 88  1  0  0  0
  3  4  1  0  0  0
  3 89  1  0  0  0
  3 90  1  0  0  0
  4  5  1  0  0  0
  4 91  1  0  0  0
  4 92  1  0  0  0
  5  6  1  0  0  0
  5 26  1  0  0  0
  5 93  1  0  0  0
  6 25  1  0  0  0
  6 94  1  0  0  0
  6 95  1  0  0  0
  7  8  2  0  0  0
  7 26  1  0  0  0
  7 29  1  0  0  0
  8  9  1  0  0  0
  8 22  1  0  0  0
  9 10  1  0  0  0
  9 27  2  0  0  0
 10 11  2  0  0  0
 10 15  1  0  0  0
 11 12  1  0  0  0
 11 96  1  0  0  0
 12 13  2  0  0  0
 12 97  1  0  0  0
 13 14  1  0  0  0
 13 31  1  0  0  0
 14 15  2  0  0  0
 14 98  1  0  0  0
 15 99  1  0  0  0
 16 17  2  0  0  0
 16 21  1  0  0  0
 16 31  1  0  0  0
 17 18  1  0  0  0
 17100  1  0  0  0
 18 19  2  0  0  0
 18101  1  0  0  0
 19 20  1  0  0  0
 19 24  1  0  0  0
 20 21  2  0  0  0
 20102  1  0  0  0
 21 23  1  0  0  0
 22 28  1  0  0  0
 22 32  2  0  0  0
 26 27  1  0  0  0
 28103  1  0  0  0
 28104  1  0  0  0
 29105  1  0  0  0
 29106  1  0  0  0
 33 34  1  0  0  0
 33 66  1  0  0  0
 33 70  2  0  0  0
 34 36  1  0  0  0
 34 59  1  0  0  0
 34107  1  0  0  0
 35 44  2  0  0  0
 35 45  1  0  0  0
 35 68  1  0  0  0
 36 56  1  0  0  0
 36108  1  0  0  0
 37 39  1  0  0  0
 37 47  1  0  0  0
 37 66  1  0  0  0
 37109  1  0  0  0
 38 43  2  0  0  0
 38 46  1  0  0  0
 38 47  1  0  0  0
 39 64  1  0  0  0
 39 67  2  0  0  0
 40 52  1  0  0  0
 40 53  2  0  0  0
 40 58  1  0  0  0
 41110  1  0  0  0
 41111  1  0  0  0
 41112  1  0  0  0
 41 48  1  0  0  0
 42 43  1  0  0  0
 42 66  1  0  0  0
 42113  1  0  0  0
 42114  1  0  0  0
 43 44  1  0  0  0
 44115  1  0  0  0
 45 46  2  0  0  0
 45116  1  0  0  0
 46117  1  0  0  0
 47118  1  0  0  0
 47119  1  0  0  0
 48 56  1  0  0  0
 48 65  1  0  0  0
 48120  1  0  0  0
 49 50  1  0  0  0
 49 53  1  0  0  0
 49 64  1  0  0  0
 49121  1  0  0  0
 50 51  1  0  0  0
 50122  1  0  0  0
 50123  1  0  0  0
 51 52  1  0  0  0
 51124  1  0  0  0
 51125  1  0  0  0
 52126  1  0  0  0
 52127  1  0  0  0
 53 54  1  0  0  0
 54 55  2  0  0  0
 54128  1  0  0  0
 55 57  1  0  0  0
 55129  1  0  0  0
 56 69  2  0  0  0
 57 58  2  0  0  0
 57130  1  0  0  0
 58131  1  0  0  0
 59 60  1  0  0  0
 59 61  1  0  0  0
 59 62  1  0  0  0
 60132  1  0  0  0
 60133  1  0  0  0
 60134  1  0  0  0
 61135  1  0  0  0
 61136  1  0  0  0
 61137  1  0  0  0
 62138  1  0  0  0
 62139  1  0  0  0
 62140  1  0  0  0
 63 65  1  0  0  0
 63141  1  0  0  0
 63142  1  0  0  0
 63143  1  0  0  0
 64144  1  0  0  0
 65145  1  0  0  0
 68 83  1  0  0  0
 71 74  2  0  0  0
 71 75  1  0  0  0
 71146  1  0  0  0
 72 75  2  0  0  0
 72 76  1  0  0  0
 72147  1  0  0  0
 73 74  1  0  0  0
 73 76  2  0  0  0
 73 77  1  0  0  0
 74 81  1  0  0  0
 75 85  1  0  0  0
 76 86  1  0  0  0
 77 84  2  0  0  0
 78 81  1  0  0  0
 78148  1  0  0  0
 78149  1  0  0  0
 78150  1  0  0  0
 79151  1  0  0  0
 79152  1  0  0  0
 79153  1  0  0  0
 79 83  1  0  0  0
 80 83  1  0  0  0
 80154  1  0  0  0
 80155  1  0  0  0
 80156  1  0  0  0
 81157  1  0  0  0
 81158  1  0  0  0
 82 83  1  0  0  0
 82 85  1  0  0  0
 82159  1  0  0  0
 82160  1  0  0  0
 84161  1  0  0  0
 85162  1  0  0  0
M  ISO  4   1 100  68 101  77 100  83 101
M  END
> <chiral flag>
0

> <version>
0

> <s_m_source_file>
/data/baiqing/PycharmProjects/Reinvent-master-3.2/result/LINK_invent/BTK/process_docking_weight1_custom_product_contain_oxygen_bond_distance_aromatic_linkinvent_7_9_3/rearranged_h_0111.sdf

> <i_m_source_file_index>
2

> <r_mmod_Potential_Energy-OPLS-2005>
650.560119628906

> <r_mmod_Stretch_Energy-OPLS-2005>
196.342056274414

> <r_mmod_Bend_Energy-OPLS-2005>
283.185668945312

> <r_mmod_Torsional_Energy-OPLS-2005>
275.230316162109

> <r_mmod_Improper_Torsional_Energy-OPLS-2005>
24.3951282501221

> <r_mmod_Van_der_Waal_Energy-OPLS-2005>
160.088241577148

> <r_mmod_Electrostatic_Energy-OPLS-2005>
-268.665496826172

> <r_mmod_Solvation_Energy-OPLS-2005>
-183.127151489258

> <b_mmod_Minimization_Converged-OPLS-2005>
0

> <r_mmod_RMS_Derivative-OPLS-2005>
1.8118007183075

$$$$
2
                    3D
 Structure written by MMmdl.
158166  0  0  1  0            999 V2000
  -30.6961  -14.6129   20.5766 C   0  0  0  0  0  0
  -30.4255  -12.3983   19.4640 C   0  0  0  0  0  0
  -29.5033  -12.5319   18.2330 C   0  0  0  0  0  0
  -28.0278  -12.3630   18.6407 C   0  0  0  0  0  0
  -27.6545  -13.2263   19.8754 C   0  0  2  0  0  0
  -28.6939  -13.0682   21.0068 C   0  0  0  0  0  0
  -25.2470  -13.8143   20.5584 C   0  0  0  0  0  0
  -24.1762  -13.0392   20.9091 C   0  0  0  0  0  0
  -24.6384  -11.6887   20.8709 C   0  0  0  0  0  0
  -23.9063  -10.4267   21.0390 C   0  0  0  0  0  0
  -24.3610   -9.4193   21.9178 C   0  0  0  0  0  0
  -23.6284   -8.2229   22.0754 C   0  0  0  0  0  0
  -22.4267   -8.0260   21.3539 C   0  0  0  0  0  0
  -21.9900   -9.0232   20.4639 C   0  0  0  0  0  0
  -22.7232  -10.2110   20.3044 C   0  0  0  0  0  0
  -21.6846   -6.0727   22.5277 C   0  0  0  0  0  0
  -21.4007   -6.5633   23.8211 C   0  0  0  0  0  0
  -21.3660   -5.6789   24.9174 C   0  0  0  0  0  0
  -21.6047   -4.3054   24.7224 C   0  0  0  0  0  0
  -21.8821   -3.8142   23.4347 C   0  0  0  0  0  0
  -21.9192   -4.6956   22.3400 C   0  0  0  0  0  0
  -22.7797  -13.5180   21.1810 C   0  0  0  0  0  0
  -22.1664   -4.2142   21.0979 F   0  0  0  0  0  0
  -21.5631   -3.4536   25.7740 F   0  0  0  0  0  0
  -30.0215  -13.4141   20.4656 N   0  0  0  0  0  0
  -26.2993  -12.9392   20.3399 N   0  0  0  0  0  0
  -25.9339  -11.6529   20.5811 N   0  0  0  0  0  0
  -22.0476  -12.8172   22.0399 N   0  0  0  0  0  0
  -25.4064  -15.1844   20.3921 N   0  0  0  0  0  0
  -31.7619  -14.7921   19.9791 O   0  0  0  0  0  0
  -21.6629   -6.8863   21.4238 O   0  0  0  0  0  0
  -22.3469  -14.5504   20.6710 O   0  0  0  0  0  0
  -24.6274  -31.8594   23.2048 C   0  0  0  0  0  0
  -25.9121  -32.4769   23.8383 C   0  0  1  0  0  0
  -27.2244  -27.3199   20.1263 C   0  0  0  0  0  0
  -25.5932  -33.8567   24.2304 N   0  0  0  0  0  0
  -23.4191  -30.4848   21.5473 C   0  0  2  0  0  0
  -24.8678  -28.9410   20.1141 C   0  0  0  0  0  0
  -22.7478  -29.4628   22.4951 C   0  0  0  0  0  0
  -18.0278  -28.1352   22.8490 C   0  0  0  0  0  0
  -24.1486  -36.7285   23.2646 C   0  0  0  0  0  0
  -25.9616  -30.7924   21.3759 C   0  0  0  0  0  0
  -26.0376  -29.4210   20.7177 C   0  0  0  0  0  0
  -27.2204  -28.6224   20.7147 C   0  0  0  0  0  0
  -26.0348  -26.9005   19.4875 C   0  0  0  0  0  0
  -24.8681  -27.6852   19.4905 C   0  0  0  0  0  0
  -23.6350  -29.8204   20.1623 C   0  0  0  0  0  0
  -25.4103  -36.3066   24.0334 C   0  0  1  0  0  0
  -20.5884  -28.3668   23.1273 C   0  0  2  0  0  0
  -20.6767  -26.9400   22.5396 C   0  0  0  0  0  0
  -19.5748  -26.6369   21.5196 C   0  0  0  0  0  0
  -18.1919  -26.7906   22.1611 C   0  0  0  0  0  0
  -19.1536  -28.8830   23.2877 C   0  0  0  0  0  0
  -18.9465  -30.1435   23.8890 C   0  0  0  0  0  0
  -17.6475  -30.6578   24.0546 C   0  0  0  0  0  0
  -25.9046  -34.9438   23.5119 C   0  0  0  0  0  0
  -16.5350  -29.9068   23.6336 C   0  0  0  0  0  0
  -16.7266  -28.6467   23.0375 C   0  0  0  0  0  0
  -26.4517  -31.6565   25.0748 C   0  0  0  0  0  0
  -25.3758  -31.3643   26.1475 C   0  0  0  0  0  0
  -27.0402  -30.3008   24.6188 C   0  0  0  0  0  0
  -27.6084  -32.4305   25.7503 C   0  0  0  0  0  0
  -27.5569  -37.1786   24.8469 C   0  0  0  0  0  0
  -21.4193  -29.3032   22.3677 N   0  0  0  0  0  0
  -26.4280  -37.3758   23.9417 N   0  0  0  0  0  0
  -24.6879  -31.0622   22.0989 N   0  0  0  0  0  0
  -23.4199  -28.8162   23.3027 O   0  0  0  0  0  0
  -28.3272  -26.4541   20.1658 O   0  0  0  0  0  0
  -26.5611  -34.8910   22.4682 O   0  0  0  0  0  0
  -23.5439  -32.1399   23.7389 O   0  0  0  0  0  0
  -30.8613  -17.8604   20.2076 C   0  0  0  0  0  0
  -28.8783  -19.4798   21.3263 C   0  0  0  0  0  0
  -29.9601  -17.2094   21.0967 C   0  0  0  0  0  0
  -28.9414  -18.0803   21.6408 C   0  0  0  0  0  0
  -30.7907  -19.2537   19.9070 C   0  0  0  0  0  0
  -29.8101  -20.1131   20.4691 C   0  0  0  0  0  0
  -30.1790  -15.7316   21.5524 C   0  0  0  0  0  0
  -27.8481  -17.5679   22.5150 C   0  0  0  0  0  0
  -29.1217  -23.9545   20.2339 C   0  0  0  0  0  0
  -27.5525  -18.3521   23.7881 C   0  0  0  0  0  0
  -28.0299  -25.0479   20.5495 C   0  0  0  0  0  0
  -28.8648  -22.4528   20.6786 C   0  0  0  0  0  0
  -30.0311  -15.4252   22.7756 N   0  0  0  0  0  0
  -31.7284  -19.8104   19.0399 N   0  0  0  0  0  0
  -27.2148  -16.5390   22.2769 O   0  0  0  0  0  0
  -30.1662  -24.2676   19.6481 O   0  0  0  0  0  0
  -29.8296  -21.4884   20.1392 O   0  0  0  0  0  0
  -31.4692  -12.4981   19.1629 H   0  0  0  0  0  0
  -30.3439  -11.3978   19.8927 H   0  0  0  0  0  0
  -29.7697  -11.7903   17.4792 H   0  0  0  0  0  0
  -29.6486  -13.5086   17.7689 H   0  0  0  0  0  0
  -27.8668  -11.3079   18.8664 H   0  0  0  0  0  0
  -27.3724  -12.6000   17.8013 H   0  0  0  0  0  0
  -27.6765  -14.2674   19.5511 H   0  0  0  0  0  0
  -28.7002  -12.0414   21.3758 H   0  0  0  0  0  0
  -28.4024  -13.6791   21.8592 H   0  0  0  0  0  0
  -25.2754   -9.5674   22.4757 H   0  0  0  0  0  0
  -23.9990   -7.4621   22.7480 H   0  0  0  0  0  0
  -21.0828   -8.8741   19.8944 H   0  0  0  0  0  0
  -22.3680  -10.9643   19.6143 H   0  0  0  0  0  0
  -21.1994   -7.6141   23.9708 H   0  0  0  0  0  0
  -21.1483   -6.0522   25.9077 H   0  0  0  0  0  0
  -22.0600   -2.7600   23.2848 H   0  0  0  0  0  0
  -22.4106  -11.9825   22.4761 H   0  0  0  0  0  0
  -21.1106  -13.1203   22.2662 H   0  0  0  0  0  0
  -24.6464  -15.8026   20.6535 H   0  0  0  0  0  0
  -26.3131  -15.6086   20.5622 H   0  0  0  0  0  0
  -26.7187  -32.5439   23.1136 H   0  0  0  0  0  0
  -25.0105  -33.9722   25.0465 H   0  0  0  0  0  0
  -22.7134  -31.3052   21.4038 H   0  0  0  0  0  0
  -23.3748  -35.9615   23.3301 H   0  0  0  0  0  0
  -24.3595  -36.8920   22.2066 H   0  0  0  0  0  0
  -23.7259  -37.6485   23.6688 H   0  0  0  0  0  0
  -26.0947  -31.5555   20.6072 H   0  0  0  0  0  0
  -26.8406  -30.8416   22.0055 H   0  0  0  0  0  0
  -28.1162  -28.9833   21.2012 H   0  0  0  0  0  0
  -25.9850  -25.9506   18.9779 H   0  0  0  0  0  0
  -23.9740  -27.3148   19.0090 H   0  0  0  0  0  0
  -23.7517  -30.5973   19.4061 H   0  0  0  0  0  0
  -22.7546  -29.2486   19.8630 H   0  0  0  0  0  0
  -25.1286  -36.1906   25.0822 H   0  0  0  0  0  0
  -20.9967  -28.3240   24.1395 H   0  0  0  0  0  0
  -20.5658  -26.2282   23.3600 H   0  0  0  0  0  0
  -21.6633  -26.7421   22.1197 H   0  0  0  0  0  0
  -19.6913  -25.6281   21.1223 H   0  0  0  0  0  0
  -19.6678  -27.3180   20.6730 H   0  0  0  0  0  0
  -17.4195  -26.6666   21.4004 H   0  0  0  0  0  0
  -18.0317  -26.0035   22.8990 H   0  0  0  0  0  0
  -19.7954  -30.7236   24.2267 H   0  0  0  0  0  0
  -17.5032  -31.6269   24.5135 H   0  0  0  0  0  0
  -15.5355  -30.2961   23.7676 H   0  0  0  0  0  0
  -15.8662  -28.0773   22.7122 H   0  0  0  0  0  0
  -24.5966  -30.6957   25.7802 H   0  0  0  0  0  0
  -24.8904  -32.2773   26.4944 H   0  0  0  0  0  0
  -25.8108  -30.8814   27.0236 H   0  0  0  0  0  0
  -26.2989  -29.6675   24.1304 H   0  0  0  0  0  0
  -27.4245  -29.7335   25.4676 H   0  0  0  0  0  0
  -27.8781  -30.4340   23.9333 H   0  0  0  0  0  0
  -27.2733  -33.3641   26.2032 H   0  0  0  0  0  0
  -28.3910  -32.6791   25.0317 H   0  0  0  0  0  0
  -28.0726  -31.8444   26.5448 H   0  0  0  0  0  0
  -28.2562  -38.0102   24.7544 H   0  0  0  0  0  0
  -28.1089  -36.2640   24.6259 H   0  0  0  0  0  0
  -27.2300  -37.1389   25.8872 H   0  0  0  0  0  0
  -20.9371  -29.8774   21.6902 H   0  0  0  0  0  0
  -26.0155  -38.2823   24.1426 H   0  0  0  0  0  0
  -31.6647  -17.2864   19.7696 H   0  0  0  0  0  0
  -28.0888  -20.0804   21.7544 H   0  0  0  0  0  0
  -28.4840  -18.6398   24.2766 H   0  0  0  0  0  0
  -26.9747  -17.7437   24.4844 H   0  0  0  0  0  0
  -26.9804  -19.2518   23.5655 H   0  0  0  0  0  0
  -27.8324  -25.0281   21.6211 H   0  0  0  0  0  0
  -27.1198  -24.6881   20.0760 H   0  0  0  0  0  0
  -27.8589  -22.1652   20.3694 H   0  0  0  0  0  0
  -28.8921  -22.4094   21.7672 H   0  0  0  0  0  0
  -29.7598  -16.2212   23.3357 H   0  0  0  0  0  0
  -32.1683  -19.2101   18.3503 H   0  0  0  0  0  0
  -31.4993  -20.7294   18.6716 H   0  0  0  0  0  0
  1 25  1  0  0  0
  1 30  2  0  0  0
  1 77  1  0  0  0
  2  3  1  0  0  0
  2 25  1  0  0  0
  2 88  1  0  0  0
  2 89  1  0  0  0
  3  4  1  0  0  0
  3 90  1  0  0  0
  3 91  1  0  0  0
  4  5  1  0  0  0
  4 92  1  0  0  0
  4 93  1  0  0  0
  5  6  1  0  0  0
  5 26  1  0  0  0
  5 94  1  0  0  0
  6 25  1  0  0  0
  6 95  1  0  0  0
  6 96  1  0  0  0
  7  8  2  0  0  0
  7 26  1  0  0  0
  7 29  1  0  0  0
  8  9  1  0  0  0
  8 22  1  0  0  0
  9 10  1  0  0  0
  9 27  2  0  0  0
 10 11  2  0  0  0
 10 15  1  0  0  0
 11 12  1  0  0  0
 11 97  1  0  0  0
 12 13  2  0  0  0
 12 98  1  0  0  0
 13 14  1  0  0  0
 13 31  1  0  0  0
 14 15  2  0  0  0
 14 99  1  0  0  0
 15100  1  0  0  0
 16 17  2  0  0  0
 16 21  1  0  0  0
 16 31  1  0  0  0
 17 18  1  0  0  0
 17101  1  0  0  0
 18 19  2  0  0  0
 18102  1  0  0  0
 19 20  1  0  0  0
 19 24  1  0  0  0
 20 21  2  0  0  0
 20103  1  0  0  0
 21 23  1  0  0  0
 22 28  1  0  0  0
 22 32  2  0  0  0
 26 27  1  0  0  0
 28104  1  0  0  0
 28105  1  0  0  0
 29106  1  0  0  0
 29107  1  0  0  0
 33 34  1  0  0  0
 33 66  1  0  0  0
 33 70  2  0  0  0
 34 36  1  0  0  0
 34 59  1  0  0  0
 34108  1  0  0  0
 35 44  2  0  0  0
 35 45  1  0  0  0
 35 68  1  0  0  0
 36 56  1  0  0  0
 36109  1  0  0  0
 37 39  1  0  0  0
 37 47  1  0  0  0
 37 66  1  0  0  0
 37110  1  0  0  0
 38 43  2  0  0  0
 38 46  1  0  0  0
 38 47  1  0  0  0
 39 64  1  0  0  0
 39 67  2  0  0  0
 40 52  1  0  0  0
 40 53  2  0  0  0
 40 58  1  0  0  0
 41111  1  0  0  0
 41112  1  0  0  0
 41113  1  0  0  0
 41 48  1  0  0  0
 42 43  1  0  0  0
 42 66  1  0  0  0
 42114  1  0  0  0
 42115  1  0  0  0
 43 44  1  0  0  0
 44116  1  0  0  0
 45 46  2  0  0  0
 45117  1  0  0  0
 46118  1  0  0  0
 47119  1  0  0  0
 47120  1  0  0  0
 48 56  1  0  0  0
 48 65  1  0  0  0
 48121  1  0  0  0
 49 50  1  0  0  0
 49 53  1  0  0  0
 49 64  1  0  0  0
 49122  1  0  0  0
 50 51  1  0  0  0
 50123  1  0  0  0
 50124  1  0  0  0
 51 52  1  0  0  0
 51125  1  0  0  0
 51126  1  0  0  0
 52127  1  0  0  0
 52128  1  0  0  0
 53 54  1  0  0  0
 54 55  2  0  0  0
 54129  1  0  0  0
 55 57  1  0  0  0
 55130  1  0  0  0
 56 69  2  0  0  0
 57 58  2  0  0  0
 57131  1  0  0  0
 58132  1  0  0  0
 59 60  1  0  0  0
 59 61  1  0  0  0
 59 62  1  0  0  0
 60133  1  0  0  0
 60134  1  0  0  0
 60135  1  0  0  0
 61136  1  0  0  0
 61137  1  0  0  0
 61138  1  0  0  0
 62139  1  0  0  0
 62140  1  0  0  0
 62141  1  0  0  0
 63 65  1  0  0  0
 63142  1  0  0  0
 63143  1  0  0  0
 63144  1  0  0  0
 64145  1  0  0  0
 65146  1  0  0  0
 68 81  1  0  0  0
 71 73  2  0  0  0
 71 75  1  0  0  0
 71147  1  0  0  0
 72 74  2  0  0  0
 72 76  1  0  0  0
 72148  1  0  0  0
 73 74  1  0  0  0
 73 77  1  0  0  0
 74 78  1  0  0  0
 75 76  2  0  0  0
 75 84  1  0  0  0
 76 87  1  0  0  0
 77 83  2  0  0  0
 78 80  1  0  0  0
 78 85  2  0  0  0
 79 81  1  0  0  0
 79 82  1  0  0  0
 79 86  2  0  0  0
 80149  1  0  0  0
 80150  1  0  0  0
 80151  1  0  0  0
 81152  1  0  0  0
 81153  1  0  0  0
 82 87  1  0  0  0
 82154  1  0  0  0
 82155  1  0  0  0
 83156  1  0  0  0
 84157  1  0  0  0
 84158  1  0  0  0
M  ISO  4   1 100  68 101  77 100  81 101
M  END
> <chiral flag>
0

> <version>
0

> <s_m_source_file>
/data/baiqing/PycharmProjects/Reinvent-master-3.2/result/LINK_invent/BTK/process_docking_weight1_custom_product_contain_oxygen_bond_distance_aromatic_linkinvent_7_9_3/rearranged_h_0111.sdf

> <i_m_source_file_index>
3

> <r_mmod_Potential_Energy-OPLS-2005>
167.98112487793

> <r_mmod_Stretch_Energy-OPLS-2005>
98.0048141479492

> <r_mmod_Bend_Energy-OPLS-2005>
147.341842651367

> <r_mmod_Torsional_Energy-OPLS-2005>
262.878295898438

> <r_mmod_Improper_Torsional_Energy-OPLS-2005>
10.3977975845337

> <r_mmod_Van_der_Waal_Energy-OPLS-2005>
154.586166381836

> <r_mmod_Electrostatic_Energy-OPLS-2005>
-299.344879150391

> <r_mmod_Solvation_Energy-OPLS-2005>
-250.271118164062

> <b_mmod_Minimization_Converged-OPLS-2005>
0

> <r_mmod_RMS_Derivative-OPLS-2005>
2.01899290084839

$$$$
3
                    3D
 Structure written by MMmdl.
165173  0  0  1  0            999 V2000
  -30.7020  -14.5146   20.5383 C   0  0  0  0  0  0
  -30.4162  -12.3325   19.4168 C   0  0  0  0  0  0
  -29.4864  -12.4889   18.1982 C   0  0  0  0  0  0
  -28.0086  -12.3489   18.6154 C   0  0  0  0  0  0
  -27.6474  -13.2102   19.8565 C   0  0  2  0  0  0
  -28.6970  -13.0483   20.9777 C   0  0  0  0  0  0
  -25.2509  -13.8144   20.5629 C   0  0  0  0  0  0
  -24.1781  -13.0406   20.9182 C   0  0  0  0  0  0
  -24.6346  -11.6893   20.8727 C   0  0  0  0  0  0
  -23.9008  -10.4277   21.0371 C   0  0  0  0  0  0
  -24.3580   -9.4215   21.9146 C   0  0  0  0  0  0
  -23.6284   -8.2235   22.0733 C   0  0  0  0  0  0
  -22.4269   -8.0252   21.3517 C   0  0  0  0  0  0
  -21.9882   -9.0214   20.4618 C   0  0  0  0  0  0
  -22.7179  -10.2110   20.3024 C   0  0  0  0  0  0
  -21.6866   -6.0710   22.5262 C   0  0  0  0  0  0
  -21.4019   -6.5618   23.8191 C   0  0  0  0  0  0
  -21.3667   -5.6766   24.9151 C   0  0  0  0  0  0
  -21.6066   -4.3038   24.7197 C   0  0  0  0  0  0
  -21.8825   -3.8117   23.4318 C   0  0  0  0  0  0
  -21.9202   -4.6934   22.3380 C   0  0  0  0  0  0
  -22.7819  -13.5211   21.1856 C   0  0  0  0  0  0
  -22.1655   -4.2121   21.0955 F   0  0  0  0  0  0
  -21.5662   -3.4535   25.7717 F   0  0  0  0  0  0
  -30.0106  -13.3510   20.3949 N   0  0  0  0  0  0
  -26.2951  -12.9316   20.3296 N   0  0  0  0  0  0
  -25.9282  -11.6473   20.5730 N   0  0  0  0  0  0
  -22.0475  -12.8215   22.0440 N   0  0  0  0  0  0
  -25.4167  -15.1857   20.3983 N   0  0  0  0  0  0
  -31.8898  -14.5972   20.2144 O   0  0  0  0  0  0
  -21.6637   -6.8849   21.4221 O   0  0  0  0  0  0
  -22.3503  -14.5507   20.6694 O   0  0  0  0  0  0
  -24.6155  -31.8675   23.2072 C   0  0  0  0  0  0
  -25.9034  -32.4824   23.8394 C   0  0  1  0  0  0
  -27.2388  -27.4143   20.0842 C   0  0  0  0  0  0
  -25.5887  -33.8619   24.2326 N   0  0  0  0  0  0
  -23.4054  -30.4887   21.5472 C   0  0  2  0  0  0
  -24.8515  -28.9503   20.1131 C   0  0  0  0  0  0
  -22.7419  -29.4645   22.4967 C   0  0  0  0  0  0
  -18.0276  -28.1367   22.8470 C   0  0  0  0  0  0
  -24.1492  -36.7309   23.2638 C   0  0  0  0  0  0
  -25.9347  -30.8254   21.3625 C   0  0  0  0  0  0
  -26.0121  -29.4561   20.7092 C   0  0  0  0  0  0
  -27.2030  -28.6926   20.6952 C   0  0  0  0  0  0
  -26.0529  -26.9223   19.4939 C   0  0  0  0  0  0
  -24.8663  -27.6812   19.5086 C   0  0  0  0  0  0
  -23.6146  -29.8210   20.1621 C   0  0  0  0  0  0
  -25.4111  -36.3120   24.0344 C   0  0  1  0  0  0
  -20.5865  -28.3656   23.1293 C   0  0  2  0  0  0
  -20.6766  -26.9386   22.5410 C   0  0  0  0  0  0
  -19.5755  -26.6365   21.5201 C   0  0  0  0  0  0
  -18.1930  -26.7913   22.1605 C   0  0  0  0  0  0
  -19.1524  -28.8829   23.2881 C   0  0  0  0  0  0
  -18.9462  -30.1434   23.8899 C   0  0  0  0  0  0
  -17.6465  -30.6571   24.0558 C   0  0  0  0  0  0
  -25.9034  -34.9478   23.5136 C   0  0  0  0  0  0
  -16.5352  -29.9075   23.6318 C   0  0  0  0  0  0
  -16.7270  -28.6490   23.0338 C   0  0  0  0  0  0
  -26.4463  -31.6607   25.0726 C   0  0  0  0  0  0
  -25.3735  -31.3685   26.1478 C   0  0  0  0  0  0
  -27.0290  -30.3064   24.6078 C   0  0  0  0  0  0
  -27.6064  -32.4306   25.7468 C   0  0  0  0  0  0
  -27.5584  -37.1807   24.8465 C   0  0  0  0  0  0
  -21.4148  -29.3027   22.3720 N   0  0  0  0  0  0
  -26.4300  -37.3803   23.9403 N   0  0  0  0  0  0
  -24.6706  -31.0758   22.0973 N   0  0  0  0  0  0
  -23.4196  -28.8193   23.3007 O   0  0  0  0  0  0
  -28.4275  -26.7047   20.0995 O   0  0  0  0  0  0
  -26.5601  -34.8926   22.4705 O   0  0  0  0  0  0
  -23.5335  -32.1436   23.7446 O   0  0  0  0  0  0
  -29.2062  -18.9673   21.8040 C   0  0  0  0  0  0
  -29.4893  -18.4089   19.4558 C   0  0  0  0  0  0
  -29.6513  -18.0579   20.8145 C   0  0  0  0  0  0
  -28.5870  -20.1947   21.4528 C   0  0  0  0  0  0
  -28.9308  -19.6566   19.0961 C   0  0  0  0  0  0
  -28.4787  -20.5625   20.0875 C   0  0  0  0  0  0
  -28.0977  -21.0867   22.5181 C   0  0  0  0  0  0
  -30.4358  -16.8219   21.1910 C   0  0  0  0  0  0
  -26.8694  -21.6394   22.6280 C   0  0  0  0  0  0
  -26.5503  -22.6354   23.7221 C   0  0  0  0  0  0
  -25.7008  -21.3486   21.6996 C   0  0  0  0  0  0
  -28.1581  -24.1841   20.1047 C   0  0  0  0  0  0
  -28.5862  -25.4776   19.3579 C   0  0  0  0  0  0
  -28.7179  -22.8789   19.4622 C   0  0  0  0  0  0
  -28.8319  -19.9984   17.7488 N   0  0  0  0  0  0
  -29.9605  -15.6200   20.7957 N   0  0  0  0  0  0
  -31.4735  -16.9702   21.8469 O   0  0  0  0  0  0
  -27.8724  -21.7550   19.7328 O   0  0  0  0  0  0
  -31.4608  -12.4308   19.1130 H   0  0  0  0  0  0
  -30.3192  -11.3367   19.8525 H   0  0  0  0  0  0
  -29.7296  -11.7459   17.4385 H   0  0  0  0  0  0
  -29.6382  -13.4668   17.7374 H   0  0  0  0  0  0
  -27.8268  -11.2962   18.8294 H   0  0  0  0  0  0
  -27.3577  -12.6052   17.7777 H   0  0  0  0  0  0
  -27.6665  -14.2470   19.5204 H   0  0  0  0  0  0
  -28.6914  -12.0268   21.3643 H   0  0  0  0  0  0
  -28.4713  -13.6984   21.8260 H   0  0  0  0  0  0
  -25.2716   -9.5740   22.4711 H   0  0  0  0  0  0
  -24.0025   -7.4647   22.7461 H   0  0  0  0  0  0
  -21.0816   -8.8690   19.8945 H   0  0  0  0  0  0
  -22.3576  -10.9640   19.6155 H   0  0  0  0  0  0
  -21.1986   -7.6119   23.9676 H   0  0  0  0  0  0
  -21.1517   -6.0496   25.9055 H   0  0  0  0  0  0
  -22.0603   -2.7586   23.2810 H   0  0  0  0  0  0
  -22.4087  -11.9912   22.4888 H   0  0  0  0  0  0
  -21.1083  -13.1237   22.2595 H   0  0  0  0  0  0
  -24.6404  -15.8302   20.4969 H   0  0  0  0  0  0
  -26.2491  -15.6310   20.0333 H   0  0  0  0  0  0
  -26.7095  -32.5544   23.1150 H   0  0  0  0  0  0
  -25.0076  -33.9773   25.0500 H   0  0  0  0  0  0
  -22.6948  -31.3062   21.4063 H   0  0  0  0  0  0
  -23.3765  -35.9635   23.3321 H   0  0  0  0  0  0
  -24.3596  -36.8912   22.2053 H   0  0  0  0  0  0
  -23.7229  -37.6507   23.6643 H   0  0  0  0  0  0
  -26.0496  -31.5913   20.5938 H   0  0  0  0  0  0
  -26.8219  -30.8804   21.9814 H   0  0  0  0  0  0
  -28.1031  -29.0808   21.1504 H   0  0  0  0  0  0
  -26.0183  -25.9504   19.0246 H   0  0  0  0  0  0
  -23.9712  -27.2826   19.0518 H   0  0  0  0  0  0
  -23.7230  -30.5965   19.4012 H   0  0  0  0  0  0
  -22.7399  -29.2397   19.8651 H   0  0  0  0  0  0
  -25.1292  -36.2003   25.0838 H   0  0  0  0  0  0
  -20.9966  -28.3222   24.1408 H   0  0  0  0  0  0
  -20.5636  -26.2272   23.3606 H   0  0  0  0  0  0
  -21.6643  -26.7400   22.1235 H   0  0  0  0  0  0
  -19.6912  -25.6274   21.1227 H   0  0  0  0  0  0
  -19.6697  -27.3180   20.6738 H   0  0  0  0  0  0
  -17.4199  -26.6653   21.4011 H   0  0  0  0  0  0
  -18.0331  -26.0060   22.9008 H   0  0  0  0  0  0
  -19.7946  -30.7236   24.2285 H   0  0  0  0  0  0
  -17.5021  -31.6256   24.5162 H   0  0  0  0  0  0
  -15.5355  -30.2980   23.7619 H   0  0  0  0  0  0
  -15.8673  -28.0805   22.7044 H   0  0  0  0  0  0
  -24.5927  -30.7016   25.7803 H   0  0  0  0  0  0
  -24.8893  -32.2818   26.4942 H   0  0  0  0  0  0
  -25.8097  -30.8845   27.0231 H   0  0  0  0  0  0
  -26.2817  -29.6821   24.1160 H   0  0  0  0  0  0
  -27.4118  -29.7299   25.4509 H   0  0  0  0  0  0
  -27.8635  -30.4411   23.9191 H   0  0  0  0  0  0
  -27.2730  -33.3614   26.2068 H   0  0  0  0  0  0
  -28.3847  -32.6847   25.0259 H   0  0  0  0  0  0
  -28.0766  -31.8412   26.5344 H   0  0  0  0  0  0
  -28.2614  -38.0093   24.7525 H   0  0  0  0  0  0
  -28.1068  -36.2627   24.6291 H   0  0  0  0  0  0
  -27.2303  -37.1470   25.8870 H   0  0  0  0  0  0
  -20.9311  -29.8785   21.6975 H   0  0  0  0  0  0
  -26.0204  -38.2888   24.1405 H   0  0  0  0  0  0
  -29.3390  -18.7182   22.8488 H   0  0  0  0  0  0
  -29.8504  -17.7380   18.6901 H   0  0  0  0  0  0
  -28.8377  -21.3460   23.2606 H   0  0  0  0  0  0
  -25.7615  -22.2511   24.3701 H   0  0  0  0  0  0
  -26.2097  -23.5740   23.2849 H   0  0  0  0  0  0
  -27.4237  -22.8528   24.3405 H   0  0  0  0  0  0
  -25.8878  -20.4988   21.0423 H   0  0  0  0  0  0
  -25.4807  -22.2237   21.0859 H   0  0  0  0  0  0
  -24.8062  -21.1174   22.2781 H   0  0  0  0  0  0
  -27.0702  -24.1411   20.1387 H   0  0  0  0  0  0
  -28.4893  -24.2296   21.1439 H   0  0  0  0  0  0
  -28.1030  -25.5342   18.3819 H   0  0  0  0  0  0
  -29.6523  -25.3999   19.1394 H   0  0  0  0  0  0
  -29.7427  -22.7035   19.7941 H   0  0  0  0  0  0
  -28.7674  -22.9986   18.3797 H   0  0  0  0  0  0
  -28.8253  -19.2538   17.0597 H   0  0  0  0  0  0
  -28.1875  -20.7504   17.5249 H   0  0  0  0  0  0
  -28.9760  -15.5700   20.6028 H   0  0  0  0  0  0
  1 25  1  0  0  0
  1 30  2  0  0  0
  1 86  1  0  0  0
  2  3  1  0  0  0
  2 25  1  0  0  0
  2 89  1  0  0  0
  2 90  1  0  0  0
  3  4  1  0  0  0
  3 91  1  0  0  0
  3 92  1  0  0  0
  4  5  1  0  0  0
  4 93  1  0  0  0
  4 94  1  0  0  0
  5  6  1  0  0  0
  5 26  1  0  0  0
  5 95  1  0  0  0
  6 25  1  0  0  0
  6 96  1  0  0  0
  6 97  1  0  0  0
  7  8  2  0  0  0
  7 26  1  0  0  0
  7 29  1  0  0  0
  8  9  1  0  0  0
  8 22  1  0  0  0
  9 10  1  0  0  0
  9 27  2  0  0  0
 10 11  2  0  0  0
 10 15  1  0  0  0
 11 12  1  0  0  0
 11 98  1  0  0  0
 12 13  2  0  0  0
 12 99  1  0  0  0
 13 14  1  0  0  0
 13 31  1  0  0  0
 14 15  2  0  0  0
 14100  1  0  0  0
 15101  1  0  0  0
 16 17  2  0  0  0
 16 21  1  0  0  0
 16 31  1  0  0  0
 17 18  1  0  0  0
 17102  1  0  0  0
 18 19  2  0  0  0
 18103  1  0  0  0
 19 20  1  0  0  0
 19 24  1  0  0  0
 20 21  2  0  0  0
 20104  1  0  0  0
 21 23  1  0  0  0
 22 28  1  0  0  0
 22 32  2  0  0  0
 26 27  1  0  0  0
 28105  1  0  0  0
 28106  1  0  0  0
 29107  1  0  0  0
 29108  1  0  0  0
 33 34  1  0  0  0
 33 66  1  0  0  0
 33 70  2  0  0  0
 34 36  1  0  0  0
 34 59  1  0  0  0
 34109  1  0  0  0
 35 44  2  0  0  0
 35 45  1  0  0  0
 35 68  1  0  0  0
 36 56  1  0  0  0
 36110  1  0  0  0
 37 39  1  0  0  0
 37 47  1  0  0  0
 37 66  1  0  0  0
 37111  1  0  0  0
 38 43  2  0  0  0
 38 46  1  0  0  0
 38 47  1  0  0  0
 39 64  1  0  0  0
 39 67  2  0  0  0
 40 52  1  0  0  0
 40 53  2  0  0  0
 40 58  1  0  0  0
 41112  1  0  0  0
 41113  1  0  0  0
 41114  1  0  0  0
 41 48  1  0  0  0
 42 43  1  0  0  0
 42 66  1  0  0  0
 42115  1  0  0  0
 42116  1  0  0  0
 43 44  1  0  0  0
 44117  1  0  0  0
 45 46  2  0  0  0
 45118  1  0  0  0
 46119  1  0  0  0
 47120  1  0  0  0
 47121  1  0  0  0
 48 56  1  0  0  0
 48 65  1  0  0  0
 48122  1  0  0  0
 49 50  1  0  0  0
 49 53  1  0  0  0
 49 64  1  0  0  0
 49123  1  0  0  0
 50 51  1  0  0  0
 50124  1  0  0  0
 50125  1  0  0  0
 51 52  1  0  0  0
 51126  1  0  0  0
 51127  1  0  0  0
 52128  1  0  0  0
 52129  1  0  0  0
 53 54  1  0  0  0
 54 55  2  0  0  0
 54130  1  0  0  0
 55 57  1  0  0  0
 55131  1  0  0  0
 56 69  2  0  0  0
 57 58  2  0  0  0
 57132  1  0  0  0
 58133  1  0  0  0
 59 60  1  0  0  0
 59 61  1  0  0  0
 59 62  1  0  0  0
 60134  1  0  0  0
 60135  1  0  0  0
 60136  1  0  0  0
 61137  1  0  0  0
 61138  1  0  0  0
 61139  1  0  0  0
 62140  1  0  0  0
 62141  1  0  0  0
 62142  1  0  0  0
 63 65  1  0  0  0
 63143  1  0  0  0
 63144  1  0  0  0
 63145  1  0  0  0
 64146  1  0  0  0
 65147  1  0  0  0
 68 83  1  0  0  0
 71 73  2  0  0  0
 71 74  1  0  0  0
 71148  1  0  0  0
 72 73  1  0  0  0
 72 75  2  0  0  0
 72149  1  0  0  0
 73 78  1  0  0  0
 74 76  2  0  0  0
 74 77  1  0  0  0
 75 76  1  0  0  0
 75 85  1  0  0  0
 76 88  1  0  0  0
 77 79  2  0  0  0
 77150  1  0  0  0
 78 86  1  0  0  0
 78 87  2  0  0  0
 79 80  1  0  0  0
 79 81  1  0  0  0
 80151  1  0  0  0
 80152  1  0  0  0
 80153  1  0  0  0
 81154  1  0  0  0
 81155  1  0  0  0
 81156  1  0  0  0
 82 83  1  0  0  0
 82 84  1  0  0  0
 82157  1  0  0  0
 82158  1  0  0  0
 83159  1  0  0  0
 83160  1  0  0  0
 84 88  1  0  0  0
 84161  1  0  0  0
 84162  1  0  0  0
 85163  1  0  0  0
 85164  1  0  0  0
 86165  1  0  0  0
M  ISO  4   1 100  68 101  83 101  86 100
M  END
> <chiral flag>
0

> <version>
0

> <s_m_source_file>
/data/baiqing/PycharmProjects/Reinvent-master-3.2/result/LINK_invent/BTK/process_docking_weight1_custom_product_contain_oxygen_bond_distance_aromatic_linkinvent_7_9_3/rearranged_h_0111.sdf

> <i_m_source_file_index>
4

> <r_mmod_Potential_Energy-OPLS-2005>
-95.4016418457031

> <r_mmod_Stretch_Energy-OPLS-2005>
40.8547286987305

> <r_mmod_Bend_Energy-OPLS-2005>
112.41039276123

> <r_mmod_Torsional_Energy-OPLS-2005>
307.079620361328

> <r_mmod_Improper_Torsional_Energy-OPLS-2005>
10.5877494812012

> <r_mmod_Van_der_Waal_Energy-OPLS-2005>
146.41535949707

> <r_mmod_Electrostatic_Energy-OPLS-2005>
-512.048217773438

> <r_mmod_Solvation_Energy-OPLS-2005>
-223.360443115234

> <b_mmod_Minimization_Converged-OPLS-2005>
0

> <r_mmod_RMS_Derivative-OPLS-2005>
2.99959397315979

$$$$
4
                    3D
 Structure written by MMmdl.
160169  0  0  1  0            999 V2000
  -30.5974  -14.6883   20.4845 C   0  0  0  0  0  0
  -30.4426  -12.4187   19.4660 C   0  0  0  0  0  0
  -29.5160  -12.5099   18.2320 C   0  0  0  0  0  0
  -28.0376  -12.3459   18.6382 C   0  0  0  0  0  0
  -27.6512  -13.2213   19.8610 C   0  0  2  0  0  0
  -28.6943  -13.0961   20.9936 C   0  0  0  0  0  0
  -25.2549  -13.8182   20.5666 C   0  0  0  0  0  0
  -24.1820  -13.0443   20.9166 C   0  0  0  0  0  0
  -24.6394  -11.6918   20.8728 C   0  0  0  0  0  0
  -23.9064  -10.4300   21.0396 C   0  0  0  0  0  0
  -24.3620   -9.4220   21.9176 C   0  0  0  0  0  0
  -23.6294   -8.2258   22.0754 C   0  0  0  0  0  0
  -22.4275   -8.0289   21.3547 C   0  0  0  0  0  0
  -21.9903   -9.0262   20.4648 C   0  0  0  0  0  0
  -22.7234  -10.2139   20.3054 C   0  0  0  0  0  0
  -21.6857   -6.0736   22.5274 C   0  0  0  0  0  0
  -21.4022   -6.5640   23.8211 C   0  0  0  0  0  0
  -21.3660   -5.6787   24.9168 C   0  0  0  0  0  0
  -21.6041   -4.3050   24.7219 C   0  0  0  0  0  0
  -21.8823   -3.8142   23.4342 C   0  0  0  0  0  0
  -21.9197   -4.6962   22.3398 C   0  0  0  0  0  0
  -22.7845  -13.5243   21.1832 C   0  0  0  0  0  0
  -22.1662   -4.2151   21.0973 F   0  0  0  0  0  0
  -21.5622   -3.4531   25.7730 F   0  0  0  0  0  0
  -30.0060  -13.4499   20.4297 N   0  0  0  0  0  0
  -26.2977  -12.9368   20.3299 N   0  0  0  0  0  0
  -25.9329  -11.6523   20.5747 N   0  0  0  0  0  0
  -22.0482  -12.8258   22.0396 N   0  0  0  0  0  0
  -25.4246  -15.1905   20.4114 N   0  0  0  0  0  0
  -31.7647  -14.8471   20.1109 O   0  0  0  0  0  0
  -21.6645   -6.8882   21.4238 O   0  0  0  0  0  0
  -22.3544  -14.5553   20.6680 O   0  0  0  0  0  0
  -24.6264  -31.8584   23.2018 C   0  0  0  0  0  0
  -25.9109  -32.4769   23.8345 C   0  0  1  0  0  0
  -27.2215  -27.2989   20.1334 C   0  0  0  0  0  0
  -25.5916  -33.8574   24.2266 N   0  0  0  0  0  0
  -23.4217  -30.4813   21.5433 C   0  0  2  0  0  0
  -24.8702  -28.9343   20.1092 C   0  0  0  0  0  0
  -22.7480  -29.4613   22.4922 C   0  0  0  0  0  0
  -18.0288  -28.1385   22.8485 C   0  0  0  0  0  0
  -24.1490  -36.7299   23.2629 C   0  0  0  0  0  0
  -25.9635  -30.7818   21.3787 C   0  0  0  0  0  0
  -26.0366  -29.4060   20.7257 C   0  0  0  0  0  0
  -27.2127  -28.5975   20.7347 C   0  0  0  0  0  0
  -26.0411  -26.8950   19.4691 C   0  0  0  0  0  0
  -24.8751  -27.6847   19.4711 C   0  0  0  0  0  0
  -23.6385  -29.8163   20.1577 C   0  0  0  0  0  0
  -25.4105  -36.3080   24.0331 C   0  0  1  0  0  0
  -20.5888  -28.3688   23.1279 C   0  0  2  0  0  0
  -20.6776  -26.9411   22.5406 C   0  0  0  0  0  0
  -19.5749  -26.6383   21.5212 C   0  0  0  0  0  0
  -18.1934  -26.7926   22.1630 C   0  0  0  0  0  0
  -19.1539  -28.8854   23.2878 C   0  0  0  0  0  0
  -18.9461  -30.1456   23.8901 C   0  0  0  0  0  0
  -17.6460  -30.6586   24.0563 C   0  0  0  0  0  0
  -25.9051  -34.9450   23.5104 C   0  0  0  0  0  0
  -16.5352  -29.9088   23.6323 C   0  0  0  0  0  0
  -16.7276  -28.6502   23.0349 C   0  0  0  0  0  0
  -26.4480  -31.6586   25.0726 C   0  0  0  0  0  0
  -25.3707  -31.3743   26.1452 C   0  0  0  0  0  0
  -27.0305  -30.2998   24.6195 C   0  0  0  0  0  0
  -27.6047  -32.4315   25.7481 C   0  0  0  0  0  0
  -27.5602  -37.1771   24.8434 C   0  0  0  0  0  0
  -21.4189  -29.3045   22.3673 N   0  0  0  0  0  0
  -26.4266  -37.3792   23.9444 N   0  0  0  0  0  0
  -24.6892  -31.0580   22.0981 N   0  0  0  0  0  0
  -23.4193  -28.8152   23.3013 O   0  0  0  0  0  0
  -28.3319  -26.4357   20.1779 O   0  0  0  0  0  0
  -26.5629  -34.8923   22.4677 O   0  0  0  0  0  0
  -23.5430  -32.1395   23.7336 O   0  0  0  0  0  0
  -30.8438  -19.3579   19.9456 C   0  0  0  0  0  0
  -30.8683  -17.9316   20.0314 C   0  0  0  0  0  0
  -28.7673  -19.4253   21.1300 C   0  0  0  0  0  0
  -29.8085  -20.1734   20.5059 C   0  0  0  0  0  0
  -29.8416  -17.2036   20.6825 C   0  0  0  0  0  0
  -28.7728  -17.9852   21.2150 C   0  0  0  0  0  0
  -29.1538  -24.0747   20.3468 C   0  0  0  0  0  0
  -28.8474  -22.5867   20.4113 C   0  0  0  0  0  0
  -28.1575  -25.0280   20.2893 C   0  0  0  0  0  0
  -30.5967  -24.5415   20.3556 C   0  0  0  0  0  0
  -31.4877  -23.5560   21.0919 C   0  0  0  0  0  0
  -31.2986  -22.1634   20.4904 C   0  0  0  0  0  0
  -26.6845  -17.9660   22.4215 C   0  0  0  0  0  0
  -29.9050  -21.6685   20.4936 N   0  0  0  0  0  0
  -29.7717  -15.7377   20.8181 N   0  0  0  0  0  0
  -27.6801  -22.1818   20.3796 O   0  0  0  0  0  0
  -27.7621  -17.2608   21.8167 O   0  0  0  0  0  0
  -31.4833  -12.5517   19.1668 H   0  0  0  0  0  0
  -30.3863  -11.4290   19.9221 H   0  0  0  0  0  0
  -29.7899  -11.7493   17.5000 H   0  0  0  0  0  0
  -29.6575  -13.4741   17.7390 H   0  0  0  0  0  0
  -27.8751  -11.2931   18.8722 H   0  0  0  0  0  0
  -27.3890  -12.5714   17.7908 H   0  0  0  0  0  0
  -27.6615  -14.2539   19.5120 H   0  0  0  0  0  0
  -28.7142  -12.0787   21.3872 H   0  0  0  0  0  0
  -28.4316  -13.7356   21.8374 H   0  0  0  0  0  0
  -25.2770   -9.5695   22.4746 H   0  0  0  0  0  0
  -23.9999   -7.4656   22.7484 H   0  0  0  0  0  0
  -21.0826   -8.8793   19.8960 H   0  0  0  0  0  0
  -22.3697  -10.9684   19.6165 H   0  0  0  0  0  0
  -21.2025   -7.6150   23.9716 H   0  0  0  0  0  0
  -21.1470   -6.0513   25.9070 H   0  0  0  0  0  0
  -22.0602   -2.7603   23.2841 H   0  0  0  0  0  0
  -22.4076  -11.9919   22.4803 H   0  0  0  0  0  0
  -21.1111  -13.1324   22.2598 H   0  0  0  0  0  0
  -24.6568  -15.8432   20.5242 H   0  0  0  0  0  0
  -26.2879  -15.6406   20.1356 H   0  0  0  0  0  0
  -26.7177  -32.5432   23.1094 H   0  0  0  0  0  0
  -25.0022  -33.9706   25.0381 H   0  0  0  0  0  0
  -22.7169  -31.3030   21.3998 H   0  0  0  0  0  0
  -23.3775  -35.9603   23.3208 H   0  0  0  0  0  0
  -24.3609  -36.9007   22.2064 H   0  0  0  0  0  0
  -23.7201  -37.6459   23.6702 H   0  0  0  0  0  0
  -26.0970  -31.5418   20.6077 H   0  0  0  0  0  0
  -26.8437  -30.8321   22.0079 H   0  0  0  0  0  0
  -28.1046  -28.9508   21.2329 H   0  0  0  0  0  0
  -26.0026  -25.9484   18.9507 H   0  0  0  0  0  0
  -23.9861  -27.3234   18.9721 H   0  0  0  0  0  0
  -23.7567  -30.5935   19.4017 H   0  0  0  0  0  0
  -22.7590  -29.2451   19.8548 H   0  0  0  0  0  0
  -25.1269  -36.1916   25.0816 H   0  0  0  0  0  0
  -20.9972  -28.3266   24.1402 H   0  0  0  0  0  0
  -20.5674  -26.2300   23.3606 H   0  0  0  0  0  0
  -21.6648  -26.7438   22.1204 H   0  0  0  0  0  0
  -19.6908  -25.6294   21.1243 H   0  0  0  0  0  0
  -19.6681  -27.3192   20.6741 H   0  0  0  0  0  0
  -17.4195  -26.6663   21.4045 H   0  0  0  0  0  0
  -18.0341  -26.0073   22.9030 H   0  0  0  0  0  0
  -19.7935  -30.7273   24.2275 H   0  0  0  0  0  0
  -17.5010  -31.6268   24.5165 H   0  0  0  0  0  0
  -15.5351  -30.2990   23.7641 H   0  0  0  0  0  0
  -15.8675  -28.0820   22.7061 H   0  0  0  0  0  0
  -24.5848  -30.7136   25.7775 H   0  0  0  0  0  0
  -24.8944  -32.2925   26.4902 H   0  0  0  0  0  0
  -25.8015  -30.8880   27.0211 H   0  0  0  0  0  0
  -26.2876  -29.6766   24.1205 H   0  0  0  0  0  0
  -27.3966  -29.7245   25.4708 H   0  0  0  0  0  0
  -27.8767  -30.4271   23.9440 H   0  0  0  0  0  0
  -27.2661  -33.3609   26.2069 H   0  0  0  0  0  0
  -28.3836  -32.6882   25.0289 H   0  0  0  0  0  0
  -28.0730  -31.8432   26.5380 H   0  0  0  0  0  0
  -28.2507  -38.0183   24.7658 H   0  0  0  0  0  0
  -28.1210  -36.2731   24.6013 H   0  0  0  0  0  0
  -27.2358  -37.1119   25.8835 H   0  0  0  0  0  0
  -20.9368  -29.8770   21.6886 H   0  0  0  0  0  0
  -26.0143  -38.2838   24.1549 H   0  0  0  0  0  0
  -31.6718  -19.8223   19.4296 H   0  0  0  0  0  0
  -31.6975  -17.4048   19.5815 H   0  0  0  0  0  0
  -27.9610  -19.9842   21.5778 H   0  0  0  0  0  0
  -27.1182  -24.7369   20.3283 H   0  0  0  0  0  0
  -30.6720  -25.5251   20.8221 H   0  0  0  0  0  0
  -30.9318  -24.6559   19.3243 H   0  0  0  0  0  0
  -31.2430  -23.5447   22.1560 H   0  0  0  0  0  0
  -32.5323  -23.8610   21.0162 H   0  0  0  0  0  0
  -31.9379  -21.4855   21.0577 H   0  0  0  0  0  0
  -31.6640  -22.1584   19.4622 H   0  0  0  0  0  0
  -26.1438  -18.5776   21.6978 H   0  0  0  0  0  0
  -27.0318  -18.5981   23.2402 H   0  0  0  0  0  0
  -25.9741  -17.2509   22.8381 H   0  0  0  0  0  0
  -28.8765  -15.4281   21.1649 H   0  0  0  0  0  0
  1 25  1  0  0  0
  1 30  2  0  0  0
  1 85  1  0  0  0
  2  3  1  0  0  0
  2 25  1  0  0  0
  2 88  1  0  0  0
  2 89  1  0  0  0
  3  4  1  0  0  0
  3 90  1  0  0  0
  3 91  1  0  0  0
  4  5  1  0  0  0
  4 92  1  0  0  0
  4 93  1  0  0  0
  5  6  1  0  0  0
  5 26  1  0  0  0
  5 94  1  0  0  0
  6 25  1  0  0  0
  6 95  1  0  0  0
  6 96  1  0  0  0
  7  8  2  0  0  0
  7 26  1  0  0  0
  7 29  1  0  0  0
  8  9  1  0  0  0
  8 22  1  0  0  0
  9 10  1  0  0  0
  9 27  2  0  0  0
 10 11  2  0  0  0
 10 15  1  0  0  0
 11 12  1  0  0  0
 11 97  1  0  0  0
 12 13  2  0  0  0
 12 98  1  0  0  0
 13 14  1  0  0  0
 13 31  1  0  0  0
 14 15  2  0  0  0
 14 99  1  0  0  0
 15100  1  0  0  0
 16 17  2  0  0  0
 16 21  1  0  0  0
 16 31  1  0  0  0
 17 18  1  0  0  0
 17101  1  0  0  0
 18 19  2  0  0  0
 18102  1  0  0  0
 19 20  1  0  0  0
 19 24  1  0  0  0
 20 21  2  0  0  0
 20103  1  0  0  0
 21 23  1  0  0  0
 22 28  1  0  0  0
 22 32  2  0  0  0
 26 27  1  0  0  0
 28104  1  0  0  0
 28105  1  0  0  0
 29106  1  0  0  0
 29107  1  0  0  0
 33 34  1  0  0  0
 33 66  1  0  0  0
 33 70  2  0  0  0
 34 36  1  0  0  0
 34 59  1  0  0  0
 34108  1  0  0  0
 35 44  2  0  0  0
 35 45  1  0  0  0
 35 68  1  0  0  0
 36 56  1  0  0  0
 36109  1  0  0  0
 37 39  1  0  0  0
 37 47  1  0  0  0
 37 66  1  0  0  0
 37110  1  0  0  0
 38 43  2  0  0  0
 38 46  1  0  0  0
 38 47  1  0  0  0
 39 64  1  0  0  0
 39 67  2  0  0  0
 40 52  1  0  0  0
 40 53  2  0  0  0
 40 58  1  0  0  0
 41111  1  0  0  0
 41112  1  0  0  0
 41113  1  0  0  0
 41 48  1  0  0  0
 42 43  1  0  0  0
 42 66  1  0  0  0
 42114  1  0  0  0
 42115  1  0  0  0
 43 44  1  0  0  0
 44116  1  0  0  0
 45 46  2  0  0  0
 45117  1  0  0  0
 46118  1  0  0  0
 47119  1  0  0  0
 47120  1  0  0  0
 48 56  1  0  0  0
 48 65  1  0  0  0
 48121  1  0  0  0
 49 50  1  0  0  0
 49 53  1  0  0  0
 49 64  1  0  0  0
 49122  1  0  0  0
 50 51  1  0  0  0
 50123  1  0  0  0
 50124  1  0  0  0
 51 52  1  0  0  0
 51125  1  0  0  0
 51126  1  0  0  0
 52127  1  0  0  0
 52128  1  0  0  0
 53 54  1  0  0  0
 54 55  2  0  0  0
 54129  1  0  0  0
 55 57  1  0  0  0
 55130  1  0  0  0
 56 69  2  0  0  0
 57 58  2  0  0  0
 57131  1  0  0  0
 58132  1  0  0  0
 59 60  1  0  0  0
 59 61  1  0  0  0
 59 62  1  0  0  0
 60133  1  0  0  0
 60134  1  0  0  0
 60135  1  0  0  0
 61136  1  0  0  0
 61137  1  0  0  0
 61138  1  0  0  0
 62139  1  0  0  0
 62140  1  0  0  0
 62141  1  0  0  0
 63 65  1  0  0  0
 63142  1  0  0  0
 63143  1  0  0  0
 63144  1  0  0  0
 64145  1  0  0  0
 65146  1  0  0  0
 68 79  1  0  0  0
 71 72  2  0  0  0
 71 74  1  0  0  0
 71147  1  0  0  0
 72 75  1  0  0  0
 72148  1  0  0  0
 73 74  2  0  0  0
 73 76  1  0  0  0
 73149  1  0  0  0
 74 84  1  0  0  0
 75 76  2  0  0  0
 75 85  1  0  0  0
 76 87  1  0  0  0
 77 78  1  0  0  0
 77 79  2  0  0  0
 77 80  1  0  0  0
 78 84  1  0  0  0
 78 86  2  0  0  0
 79150  1  0  0  0
 80 81  1  0  0  0
 80151  1  0  0  0
 80152  1  0  0  0
 81 82  1  0  0  0
 81153  1  0  0  0
 81154  1  0  0  0
 82 84  1  0  0  0
 82155  1  0  0  0
 82156  1  0  0  0
 83 87  1  0  0  0
 83157  1  0  0  0
 83158  1  0  0  0
 83159  1  0  0  0
 85160  1  0  0  0
M  ISO  4   1 100  68 101  79 101  85 100
M  END
> <chiral flag>
0

> <version>
0

> <s_m_source_file>
/data/baiqing/PycharmProjects/Reinvent-master-3.2/result/LINK_invent/BTK/process_docking_weight1_custom_product_contain_oxygen_bond_distance_aromatic_linkinvent_7_9_3/rearranged_h_0111.sdf

> <i_m_source_file_index>
5

> <r_mmod_Potential_Energy-OPLS-2005>
183.113571166992

> <r_mmod_Stretch_Energy-OPLS-2005>
106.428215026855

> <r_mmod_Bend_Energy-OPLS-2005>
159.885467529297

> <r_mmod_Torsional_Energy-OPLS-2005>
257.837158203125

> <r_mmod_Improper_Torsional_Energy-OPLS-2005>
3.87784576416016

> <r_mmod_Van_der_Waal_Energy-OPLS-2005>
168.259414672852

> <r_mmod_Electrostatic_Energy-OPLS-2005>
-371.457641601562

> <r_mmod_Solvation_Energy-OPLS-2005>
-204.241058349609

> <b_mmod_Minimization_Converged-OPLS-2005>
0

> <r_mmod_RMS_Derivative-OPLS-2005>
1.46153855323792

$$$$
5
                    3D
 Structure written by MMmdl.
164172  0  0  1  0            999 V2000
  -30.6770  -14.4592   20.5492 C   0  0  0  0  0  0
  -30.4338  -12.2951   19.4104 C   0  0  0  0  0  0
  -29.4995  -12.5111   18.2013 C   0  0  0  0  0  0
  -28.0174  -12.3713   18.6098 C   0  0  0  0  0  0
  -27.6668  -13.1910   19.8811 C   0  0  2  0  0  0
  -28.7129  -12.9441   20.9903 C   0  0  0  0  0  0
  -25.2653  -13.8109   20.5682 C   0  0  0  0  0  0
  -24.1891  -13.0422   20.9174 C   0  0  0  0  0  0
  -24.6408  -11.6874   20.8727 C   0  0  0  0  0  0
  -23.9061  -10.4285   21.0406 C   0  0  0  0  0  0
  -24.3615   -9.4199   21.9186 C   0  0  0  0  0  0
  -23.6284   -8.2243   22.0756 C   0  0  0  0  0  0
  -22.4266   -8.0290   21.3551 C   0  0  0  0  0  0
  -21.9900   -9.0257   20.4646 C   0  0  0  0  0  0
  -22.7229  -10.2134   20.3056 C   0  0  0  0  0  0
  -21.6847   -6.0738   22.5276 C   0  0  0  0  0  0
  -21.4005   -6.5641   23.8206 C   0  0  0  0  0  0
  -21.3669   -5.6795   24.9175 C   0  0  0  0  0  0
  -21.6055   -4.3056   24.7227 C   0  0  0  0  0  0
  -21.8814   -3.8152   23.4347 C   0  0  0  0  0  0
  -21.9188   -4.6969   22.3405 C   0  0  0  0  0  0
  -22.7919  -13.5247   21.1822 C   0  0  0  0  0  0
  -22.1656   -4.2157   21.0978 F   0  0  0  0  0  0
  -21.5637   -3.4536   25.7739 F   0  0  0  0  0  0
  -30.0399  -13.2626   20.4425 N   0  0  0  0  0  0
  -26.3071  -12.9241   20.3393 N   0  0  0  0  0  0
  -25.9335  -11.6420   20.5773 N   0  0  0  0  0  0
  -22.0546  -12.8266   22.0370 N   0  0  0  0  0  0
  -25.4401  -15.1832   20.4058 N   0  0  0  0  0  0
  -31.8318  -14.6229   20.1375 O   0  0  0  0  0  0
  -21.6636   -6.8891   21.4242 O   0  0  0  0  0  0
  -22.3623  -14.5563   20.6663 O   0  0  0  0  0  0
  -24.6067  -31.8709   23.2089 C   0  0  0  0  0  0
  -25.8970  -32.4848   23.8373 C   0  0  1  0  0  0
  -27.2414  -27.4601   20.0735 C   0  0  0  0  0  0
  -25.5845  -33.8650   24.2311 N   0  0  0  0  0  0
  -23.3922  -30.4902   21.5540 C   0  0  2  0  0  0
  -24.8353  -28.9519   20.1238 C   0  0  0  0  0  0
  -22.7344  -29.4683   22.5068 C   0  0  0  0  0  0
  -18.0250  -28.1366   22.8514 C   0  0  0  0  0  0
  -24.1482  -36.7321   23.2654 C   0  0  0  0  0  0
  -25.9141  -30.8400   21.3558 C   0  0  0  0  0  0
  -25.9912  -29.4711   20.7143 C   0  0  0  0  0  0
  -27.1901  -28.7286   20.6941 C   0  0  0  0  0  0
  -26.0576  -26.9398   19.4963 C   0  0  0  0  0  0
  -24.8595  -27.6814   19.5237 C   0  0  0  0  0  0
  -23.5934  -29.8123   20.1718 C   0  0  0  0  0  0
  -25.4114  -36.3139   24.0340 C   0  0  1  0  0  0
  -20.5831  -28.3649   23.1384 C   0  0  2  0  0  0
  -20.6744  -26.9401   22.5457 C   0  0  0  0  0  0
  -19.5735  -26.6388   21.5243 C   0  0  0  0  0  0
  -18.1903  -26.7921   22.1637 C   0  0  0  0  0  0
  -19.1493  -28.8832   23.2937 C   0  0  0  0  0  0
  -18.9430  -30.1442   23.8929 C   0  0  0  0  0  0
  -17.6431  -30.6581   24.0572 C   0  0  0  0  0  0
  -25.9030  -34.9506   23.5135 C   0  0  0  0  0  0
  -16.5325  -29.9072   23.6332 C   0  0  0  0  0  0
  -16.7242  -28.6481   23.0376 C   0  0  0  0  0  0
  -26.4422  -31.6628   25.0685 C   0  0  0  0  0  0
  -25.3693  -31.3687   26.1433 C   0  0  0  0  0  0
  -27.0285  -30.3102   24.6014 C   0  0  0  0  0  0
  -27.5990  -32.4360   25.7438 C   0  0  0  0  0  0
  -27.5597  -37.1808   24.8471 C   0  0  0  0  0  0
  -21.4089  -29.3013   22.3783 N   0  0  0  0  0  0
  -26.4306  -37.3815   23.9414 N   0  0  0  0  0  0
  -24.6565  -31.0823   22.0988 N   0  0  0  0  0  0
  -23.4134  -28.8284   23.3152 O   0  0  0  0  0  0
  -28.4695  -26.8295   20.0512 O   0  0  0  0  0  0
  -26.5607  -34.8953   22.4709 O   0  0  0  0  0  0
  -23.5266  -32.1473   23.7500 O   0  0  0  0  0  0
  -28.3147  -18.7440   20.4019 C   0  0  0  0  0  0
  -29.5654  -18.1181   20.2121 C   0  0  0  0  0  0
  -30.7600  -18.8887   20.2945 C   0  0  0  0  0  0
  -30.6724  -20.2785   20.6011 C   0  0  0  0  0  0
  -28.2327  -20.1159   20.6823 C   0  0  0  0  0  0
  -29.4066  -20.8883   20.7840 C   0  0  0  0  0  0
  -32.9629  -18.6535   19.1229 C   0  0  0  0  0  0
  -32.0664  -18.2432   20.0369 C   0  0  0  0  0  0
  -29.5452  -16.6697   19.8940 C   0  0  0  0  0  0
  -31.9284  -21.1256   20.7631 C   0  0  0  0  0  0
  -29.9075  -15.7093   21.0387 C   0  0  0  0  0  0
  -28.7984  -24.4858   20.5335 C   0  0  0  0  0  0
  -28.6653  -25.5542   19.4381 C   0  0  0  0  0  0
  -29.1438  -23.0890   19.9951 C   0  0  0  0  0  0
  -29.1553  -16.2720   18.7540 N   0  0  0  0  0  0
  -26.9880  -20.7146   20.8683 N   0  0  0  0  0  0
  -29.3012  -22.2191   21.1093 O   0  0  0  0  0  0
  -31.4748  -12.4117   19.1016 H   0  0  0  0  0  0
  -30.3471  -11.2772   19.7948 H   0  0  0  0  0  0
  -29.7384  -11.8020   17.4092 H   0  0  0  0  0  0
  -29.6722  -13.5037   17.7811 H   0  0  0  0  0  0
  -27.8195  -11.3135   18.7841 H   0  0  0  0  0  0
  -27.3721  -12.6683   17.7835 H   0  0  0  0  0  0
  -27.7093  -14.2417   19.6080 H   0  0  0  0  0  0
  -28.6970  -11.8960   21.2919 H   0  0  0  0  0  0
  -28.4802  -13.4915   21.9023 H   0  0  0  0  0  0
  -25.2758   -9.5677   22.4764 H   0  0  0  0  0  0
  -23.9988   -7.4642   22.7481 H   0  0  0  0  0  0
  -21.0827   -8.8788   19.8955 H   0  0  0  0  0  0
  -22.3688  -10.9690   19.6183 H   0  0  0  0  0  0
  -21.1985   -7.6143   23.9719 H   0  0  0  0  0  0
  -21.1500   -6.0519   25.9077 H   0  0  0  0  0  0
  -22.0584   -2.7612   23.2840 H   0  0  0  0  0  0
  -22.4103  -11.9904   22.4762 H   0  0  0  0  0  0
  -21.1183  -13.1351   22.2581 H   0  0  0  0  0  0
  -24.6699  -15.8377   20.4904 H   0  0  0  0  0  0
  -26.2897  -15.6067   20.0516 H   0  0  0  0  0  0
  -26.7023  -32.5559   23.1121 H   0  0  0  0  0  0
  -24.9938  -33.9818   25.0416 H   0  0  0  0  0  0
  -22.6775  -31.3044   21.4137 H   0  0  0  0  0  0
  -23.3752  -35.9646   23.3325 H   0  0  0  0  0  0
  -24.3564  -36.8924   22.2068 H   0  0  0  0  0  0
  -23.7218  -37.6527   23.6645 H   0  0  0  0  0  0
  -26.0044  -31.5969   20.5756 H   0  0  0  0  0  0
  -26.8101  -30.9098   21.9599 H   0  0  0  0  0  0
  -28.0876  -29.1380   21.1386 H   0  0  0  0  0  0
  -26.0223  -25.9762   19.0120 H   0  0  0  0  0  0
  -23.9648  -27.2698   19.0771 H   0  0  0  0  0  0
  -23.6822  -30.5782   19.4004 H   0  0  0  0  0  0
  -22.7181  -29.2203   19.8943 H   0  0  0  0  0  0
  -25.1280  -36.2014   25.0824 H   0  0  0  0  0  0
  -20.9913  -28.3198   24.1519 H   0  0  0  0  0  0
  -20.5684  -26.2260   23.3640 H   0  0  0  0  0  0
  -21.6621  -26.7473   22.1256 H   0  0  0  0  0  0
  -19.6907  -25.6306   21.1260 H   0  0  0  0  0  0
  -19.6679  -27.3217   20.6792 H   0  0  0  0  0  0
  -17.4202  -26.6732   21.3992 H   0  0  0  0  0  0
  -18.0248  -26.0024   22.8987 H   0  0  0  0  0  0
  -19.7904  -30.7252   24.2312 H   0  0  0  0  0  0
  -17.4977  -31.6264   24.5165 H   0  0  0  0  0  0
  -15.5325  -30.2986   23.7634 H   0  0  0  0  0  0
  -15.8641  -28.0788   22.7116 H   0  0  0  0  0  0
  -24.5831  -30.7087   25.7740 H   0  0  0  0  0  0
  -24.8914  -32.2833   26.4947 H   0  0  0  0  0  0
  -25.8038  -30.8777   27.0151 H   0  0  0  0  0  0
  -26.2824  -29.6821   24.1122 H   0  0  0  0  0  0
  -27.4185  -29.7353   25.4429 H   0  0  0  0  0  0
  -27.8579  -30.4485   23.9070 H   0  0  0  0  0  0
  -27.2581  -33.3630   26.2057 H   0  0  0  0  0  0
  -28.3751  -32.6977   25.0234 H   0  0  0  0  0  0
  -28.0703  -31.8460   26.5307 H   0  0  0  0  0  0
  -28.2625  -38.0098   24.7519 H   0  0  0  0  0  0
  -28.1077  -36.2622   24.6282 H   0  0  0  0  0  0
  -27.2306  -37.1466   25.8875 H   0  0  0  0  0  0
  -20.9239  -29.8657   21.6940 H   0  0  0  0  0  0
  -26.0200  -38.2903   24.1386 H   0  0  0  0  0  0
  -27.4092  -18.1563   20.3331 H   0  0  0  0  0  0
  -33.9070  -18.1428   18.9978 H   0  0  0  0  0  0
  -32.7693  -19.5000   18.4797 H   0  0  0  0  0  0
  -32.3141  -17.3864   20.6489 H   0  0  0  0  0  0
  -32.7064  -20.5789   21.2950 H   0  0  0  0  0  0
  -31.7370  -22.0312   21.3362 H   0  0  0  0  0  0
  -32.3150  -21.4224   19.7881 H   0  0  0  0  0  0
  -28.9915  -15.4779   21.5733 H   0  0  0  0  0  0
  -30.5346  -16.2283   21.7621 H   0  0  0  0  0  0
  -27.8733  -24.4334   21.1057 H   0  0  0  0  0  0
  -29.5722  -24.7941   21.2376 H   0  0  0  0  0  0
  -27.9248  -25.2776   18.6908 H   0  0  0  0  0  0
  -29.6043  -25.6162   18.8879 H   0  0  0  0  0  0
  -30.0645  -23.1086   19.4091 H   0  0  0  0  0  0
  -28.3511  -22.7381   19.3335 H   0  0  0  0  0  0
  -28.9391  -17.0525   18.1427 H   0  0  0  0  0  0
  -26.2062  -20.3421   20.3390 H   0  0  0  0  0  0
  -26.9899  -21.7280   20.8932 H   0  0  0  0  0  0
  1 25  1  0  0  0
  1 30  2  0  0  0
  1 81  1  0  0  0
  2  3  1  0  0  0
  2 25  1  0  0  0
  2 88  1  0  0  0
  2 89  1  0  0  0
  3  4  1  0  0  0
  3 90  1  0  0  0
  3 91  1  0  0  0
  4  5  1  0  0  0
  4 92  1  0  0  0
  4 93  1  0  0  0
  5  6  1  0  0  0
  5 26  1  0  0  0
  5 94  1  0  0  0
  6 25  1  0  0  0
  6 95  1  0  0  0
  6 96  1  0  0  0
  7  8  2  0  0  0
  7 26  1  0  0  0
  7 29  1  0  0  0
  8  9  1  0  0  0
  8 22  1  0  0  0
  9 10  1  0  0  0
  9 27  2  0  0  0
 10 11  2  0  0  0
 10 15  1  0  0  0
 11 12  1  0  0  0
 11 97  1  0  0  0
 12 13  2  0  0  0
 12 98  1  0  0  0
 13 14  1  0  0  0
 13 31  1  0  0  0
 14 15  2  0  0  0
 14 99  1  0  0  0
 15100  1  0  0  0
 16 17  2  0  0  0
 16 21  1  0  0  0
 16 31  1  0  0  0
 17 18  1  0  0  0
 17101  1  0  0  0
 18 19  2  0  0  0
 18102  1  0  0  0
 19 20  1  0  0  0
 19 24  1  0  0  0
 20 21  2  0  0  0
 20103  1  0  0  0
 21 23  1  0  0  0
 22 28  1  0  0  0
 22 32  2  0  0  0
 26 27  1  0  0  0
 28104  1  0  0  0
 28105  1  0  0  0
 29106  1  0  0  0
 29107  1  0  0  0
 33 34  1  0  0  0
 33 66  1  0  0  0
 33 70  2  0  0  0
 34 36  1  0  0  0
 34 59  1  0  0  0
 34108  1  0  0  0
 35 44  2  0  0  0
 35 45  1  0  0  0
 35 68  1  0  0  0
 36 56  1  0  0  0
 36109  1  0  0  0
 37 39  1  0  0  0
 37 47  1  0  0  0
 37 66  1  0  0  0
 37110  1  0  0  0
 38 43  2  0  0  0
 38 46  1  0  0  0
 38 47  1  0  0  0
 39 64  1  0  0  0
 39 67  2  0  0  0
 40 52  1  0  0  0
 40 53  2  0  0  0
 40 58  1  0  0  0
 41111  1  0  0  0
 41112  1  0  0  0
 41113  1  0  0  0
 41 48  1  0  0  0
 42 43  1  0  0  0
 42 66  1  0  0  0
 42114  1  0  0  0
 42115  1  0  0  0
 43 44  1  0  0  0
 44116  1  0  0  0
 45 46  2  0  0  0
 45117  1  0  0  0
 46118  1  0  0  0
 47119  1  0  0  0
 47120  1  0  0  0
 48 56  1  0  0  0
 48 65  1  0  0  0
 48121  1  0  0  0
 49 50  1  0  0  0
 49 53  1  0  0  0
 49 64  1  0  0  0
 49122  1  0  0  0
 50 51  1  0  0  0
 50123  1  0  0  0
 50124  1  0  0  0
 51 52  1  0  0  0
 51125  1  0  0  0
 51126  1  0  0  0
 52127  1  0  0  0
 52128  1  0  0  0
 53 54  1  0  0  0
 54 55  2  0  0  0
 54129  1  0  0  0
 55 57  1  0  0  0
 55130  1  0  0  0
 56 69  2  0  0  0
 57 58  2  0  0  0
 57131  1  0  0  0
 58132  1  0  0  0
 59 60  1  0  0  0
 59 61  1  0  0  0
 59 62  1  0  0  0
 60133  1  0  0  0
 60134  1  0  0  0
 60135  1  0  0  0
 61136  1  0  0  0
 61137  1  0  0  0
 61138  1  0  0  0
 62139  1  0  0  0
 62140  1  0  0  0
 62141  1  0  0  0
 63 65  1  0  0  0
 63142  1  0  0  0
 63143  1  0  0  0
 63144  1  0  0  0
 64145  1  0  0  0
 65146  1  0  0  0
 68 83  1  0  0  0
 71 72  2  0  0  0
 71 75  1  0  0  0
 71147  1  0  0  0
 72 73  1  0  0  0
 72 79  1  0  0  0
 73 74  2  0  0  0
 73 78  1  0  0  0
 74 76  1  0  0  0
 74 80  1  0  0  0
 75 76  2  0  0  0
 75 86  1  0  0  0
 76 87  1  0  0  0
 77 78  2  0  0  0
 77148  1  0  0  0
 77149  1  0  0  0
 78150  1  0  0  0
 79 81  1  0  0  0
 79 85  2  0  0  0
 80151  1  0  0  0
 80152  1  0  0  0
 80153  1  0  0  0
 81154  1  0  0  0
 81155  1  0  0  0
 82 83  1  0  0  0
 82 84  1  0  0  0
 82156  1  0  0  0
 82157  1  0  0  0
 83158  1  0  0  0
 83159  1  0  0  0
 84 87  1  0  0  0
 84160  1  0  0  0
 84161  1  0  0  0
 85162  1  0  0  0
 86163  1  0  0  0
 86164  1  0  0  0
M  ISO  4   1 100  68 101  81 100  83 101
M  END
> <chiral flag>
0

> <version>
0

> <s_m_source_file>
/data/baiqing/PycharmProjects/Reinvent-master-3.2/result/LINK_invent/BTK/process_docking_weight1_custom_product_contain_oxygen_bond_distance_aromatic_linkinvent_7_9_3/rearranged_h_0111.sdf

> <i_m_source_file_index>
6

> <r_mmod_Potential_Energy-OPLS-2005>
-4.71165227890015

> <r_mmod_Stretch_Energy-OPLS-2005>
36.4919242858887

> <r_mmod_Bend_Energy-OPLS-2005>
107.837203979492

> <r_mmod_Torsional_Energy-OPLS-2005>
249.758651733398

> <r_mmod_Improper_Torsional_Energy-OPLS-2005>
8.46890449523926

> <r_mmod_Van_der_Waal_Energy-OPLS-2005>
156.583251953125

> <r_mmod_Electrostatic_Energy-OPLS-2005>
-369.211456298828

> <r_mmod_Solvation_Energy-OPLS-2005>
-207.723892211914

> <b_mmod_Minimization_Converged-OPLS-2005>
0

> <r_mmod_RMS_Derivative-OPLS-2005>
3.00118565559387

$$$$
6
                    3D
 Structure written by MMmdl.
164173  0  0  1  0            999 V2000
  -30.5999  -14.7661   20.4999 C   0  0  0  0  0  0
  -30.4382  -12.4790   19.4804 C   0  0  0  0  0  0
  -29.5237  -12.5371   18.2371 C   0  0  0  0  0  0
  -28.0482  -12.3457   18.6382 C   0  0  0  0  0  0
  -27.6433  -13.2308   19.8463 C   0  0  2  0  0  0
  -28.6811  -13.1699   20.9846 C   0  0  0  0  0  0
  -25.2533  -13.8173   20.5680 C   0  0  0  0  0  0
  -24.1834  -13.0416   20.9199 C   0  0  0  0  0  0
  -24.6421  -11.6889   20.8745 C   0  0  0  0  0  0
  -23.9110  -10.4266   21.0408 C   0  0  0  0  0  0
  -24.3638   -9.4184   21.9195 C   0  0  0  0  0  0
  -23.6295   -8.2235   22.0770 C   0  0  0  0  0  0
  -22.4279   -8.0280   21.3559 C   0  0  0  0  0  0
  -21.9921   -9.0260   20.4665 C   0  0  0  0  0  0
  -22.7274  -10.2125   20.3065 C   0  0  0  0  0  0
  -21.6848   -6.0717   22.5277 C   0  0  0  0  0  0
  -21.4014   -6.5632   23.8202 C   0  0  0  0  0  0
  -21.3667   -5.6795   24.9173 C   0  0  0  0  0  0
  -21.6047   -4.3054   24.7231 C   0  0  0  0  0  0
  -21.8825   -3.8142   23.4355 C   0  0  0  0  0  0
  -21.9192   -4.6947   22.3404 C   0  0  0  0  0  0
  -22.7864  -13.5208   21.1843 C   0  0  0  0  0  0
  -22.1674   -4.2139   21.0979 F   0  0  0  0  0  0
  -21.5629   -3.4545   25.7747 F   0  0  0  0  0  0
  -29.9809  -13.5363   20.4095 N   0  0  0  0  0  0
  -26.2940  -12.9378   20.3198 N   0  0  0  0  0  0
  -25.9342  -11.6518   20.5688 N   0  0  0  0  0  0
  -22.0488  -12.8207   22.0380 N   0  0  0  0  0  0
  -25.4218  -15.1891   20.4087 N   0  0  0  0  0  0
  -31.7890  -14.8661   20.1773 O   0  0  0  0  0  0
  -21.6628   -6.8884   21.4253 O   0  0  0  0  0  0
  -22.3561  -14.5516   20.6688 O   0  0  0  0  0  0
  -24.6295  -31.8562   23.1967 C   0  0  0  0  0  0
  -25.9118  -32.4766   23.8356 C   0  0  1  0  0  0
  -27.2219  -27.2572   20.1667 C   0  0  0  0  0  0
  -25.5914  -33.8571   24.2279 N   0  0  0  0  0  0
  -23.4283  -30.4728   21.5410 C   0  0  2  0  0  0
  -24.8795  -28.9137   20.1195 C   0  0  0  0  0  0
  -22.7513  -29.4588   22.4951 C   0  0  0  0  0  0
  -18.0266  -28.1426   22.8579 C   0  0  0  0  0  0
  -24.1491  -36.7277   23.2640 C   0  0  0  0  0  0
  -25.9713  -30.7758   21.3724 C   0  0  0  0  0  0
  -26.0488  -29.3927   20.7257 C   0  0  0  0  0  0
  -27.2280  -28.5780   20.7276 C   0  0  0  0  0  0
  -26.0303  -26.8411   19.5386 C   0  0  0  0  0  0
  -24.8755  -27.6482   19.5092 C   0  0  0  0  0  0
  -23.6492  -29.8001   20.1583 C   0  0  0  0  0  0
  -25.4113  -36.3076   24.0335 C   0  0  1  0  0  0
  -20.5897  -28.3691   23.1329 C   0  0  2  0  0  0
  -20.6735  -26.9398   22.5484 C   0  0  0  0  0  0
  -19.5721  -26.6435   21.5280 C   0  0  0  0  0  0
  -18.1953  -26.7937   22.1787 C   0  0  0  0  0  0
  -19.1556  -28.8886   23.2933 C   0  0  0  0  0  0
  -18.9498  -30.1476   23.8937 C   0  0  0  0  0  0
  -17.6516  -30.6649   24.0605 C   0  0  0  0  0  0
  -25.9054  -34.9438   23.5117 C   0  0  0  0  0  0
  -16.5405  -29.9149   23.6411 C   0  0  0  0  0  0
  -16.7263  -28.6532   23.0453 C   0  0  0  0  0  0
  -26.4495  -31.6571   25.0727 C   0  0  0  0  0  0
  -25.3719  -31.3701   26.1445 C   0  0  0  0  0  0
  -27.0359  -30.2997   24.6176 C   0  0  0  0  0  0
  -27.6063  -32.4298   25.7509 C   0  0  0  0  0  0
  -27.5578  -37.1786   24.8464 C   0  0  0  0  0  0
  -21.4209  -29.3100   22.3775 N   0  0  0  0  0  0
  -26.4289  -37.3761   23.9421 N   0  0  0  0  0  0
  -24.6958  -31.0535   22.0938 N   0  0  0  0  0  0
  -23.4263  -28.8047   23.2955 O   0  0  0  0  0  0
  -28.3133  -26.3602   20.1888 O   0  0  0  0  0  0
  -26.5621  -34.8914   22.4688 O   0  0  0  0  0  0
  -23.5444  -32.1365   23.7268 O   0  0  0  0  0  0
  -30.8540  -20.1275   21.2578 C   0  0  0  0  0  0
  -31.3983  -17.7273   21.3615 C   0  0  0  0  0  0
  -29.2024  -18.4588   20.6039 C   0  0  0  0  0  0
  -29.5599  -19.8852   20.7424 C   0  0  0  0  0  0
  -31.7455  -19.0780   21.5774 C   0  0  0  0  0  0
  -30.1313  -17.3510   20.8622 C   0  0  0  0  0  0
  -28.4476  -23.6003   20.2570 C   0  0  0  0  0  0
  -28.6996  -22.3960   20.9195 C   0  0  0  0  0  0
  -28.3376  -23.5168   18.7910 C   0  0  0  0  0  0
  -27.9320  -22.1778   18.1704 C   0  0  0  0  0  0
  -28.3271  -20.8944   18.9438 C   0  0  0  0  0  0
  -27.7739  -18.0818   20.2509 C   0  0  0  0  0  0
  -28.7775  -22.3887   22.4415 C   0  0  0  0  0  0
  -28.1648  -25.0438   20.9133 C   0  0  0  0  0  0
  -28.7891  -21.0675   20.3257 N   0  0  0  0  0  0
  -33.0009  -19.3728   22.1116 N   0  0  0  0  0  0
  -29.8061  -15.8918   20.7268 N   0  0  0  0  0  0
  -28.5400  -24.4722   18.0356 O   0  0  0  0  0  0
  -31.4818  -12.6067   19.1866 H   0  0  0  0  0  0
  -30.3763  -11.5004   19.9603 H   0  0  0  0  0  0
  -29.8214  -11.7813   17.5108 H   0  0  0  0  0  0
  -29.6525  -13.4999   17.7387 H   0  0  0  0  0  0
  -27.9007  -11.2959   18.8919 H   0  0  0  0  0  0
  -27.4038  -12.5515   17.7828 H   0  0  0  0  0  0
  -27.6388  -14.2519   19.4673 H   0  0  0  0  0  0
  -28.7161  -12.1752   21.4301 H   0  0  0  0  0  0
  -28.4054  -13.8533   21.7882 H   0  0  0  0  0  0
  -25.2766   -9.5663   22.4791 H   0  0  0  0  0  0
  -23.9989   -7.4620   22.7490 H   0  0  0  0  0  0
  -21.0847   -8.8800   19.8977 H   0  0  0  0  0  0
  -22.3732  -10.9682   19.6200 H   0  0  0  0  0  0
  -21.2017   -7.6142   23.9699 H   0  0  0  0  0  0
  -21.1480   -6.0529   25.9072 H   0  0  0  0  0  0
  -22.0593   -2.7604   23.2864 H   0  0  0  0  0  0
  -22.4088  -11.9875   22.4802 H   0  0  0  0  0  0
  -21.1147  -13.1334   22.2601 H   0  0  0  0  0  0
  -24.6412  -15.8321   20.4890 H   0  0  0  0  0  0
  -26.2379  -15.6082   19.9855 H   0  0  0  0  0  0
  -26.7195  -32.5435   23.1123 H   0  0  0  0  0  0
  -25.0107  -33.9701   25.0448 H   0  0  0  0  0  0
  -22.7225  -31.2936   21.3910 H   0  0  0  0  0  0
  -23.3761  -35.9597   23.3296 H   0  0  0  0  0  0
  -24.3579  -36.8891   22.2050 H   0  0  0  0  0  0
  -23.7236  -37.6466   23.6672 H   0  0  0  0  0  0
  -26.1010  -31.5330   20.5961 H   0  0  0  0  0  0
  -26.8507  -30.8384   22.0019 H   0  0  0  0  0  0
  -28.1305  -28.9404   21.2004 H   0  0  0  0  0  0
  -25.9875  -25.8643   19.0778 H   0  0  0  0  0  0
  -23.9801  -27.2771   19.0282 H   0  0  0  0  0  0
  -23.7768  -30.5700   19.3964 H   0  0  0  0  0  0
  -22.7687  -29.2325   19.8541 H   0  0  0  0  0  0
  -25.1297  -36.1925   25.0821 H   0  0  0  0  0  0
  -20.9973  -28.3217   24.1453 H   0  0  0  0  0  0
  -20.5533  -26.2323   23.3691 H   0  0  0  0  0  0
  -21.6574  -26.7332   22.1262 H   0  0  0  0  0  0
  -19.6854  -25.6364   21.1241 H   0  0  0  0  0  0
  -19.6641  -27.3306   20.6874 H   0  0  0  0  0  0
  -17.4195  -26.6633   21.4262 H   0  0  0  0  0  0
  -18.0426  -26.0093   22.9242 H   0  0  0  0  0  0
  -19.8018  -30.7250   24.2304 H   0  0  0  0  0  0
  -17.5156  -31.6353   24.5189 H   0  0  0  0  0  0
  -15.5409  -30.3072   23.7827 H   0  0  0  0  0  0
  -15.8608  -28.0883   22.7229 H   0  0  0  0  0  0
  -24.5916  -30.7026   25.7771 H   0  0  0  0  0  0
  -24.8888  -32.2854   26.4861 H   0  0  0  0  0  0
  -25.8032  -30.8890   27.0237 H   0  0  0  0  0  0
  -26.2954  -29.6738   24.1184 H   0  0  0  0  0  0
  -27.4046  -29.7249   25.4688 H   0  0  0  0  0  0
  -27.8824  -30.4292   23.9439 H   0  0  0  0  0  0
  -27.2694  -33.3614   26.2076 H   0  0  0  0  0  0
  -28.3894  -32.6810   25.0344 H   0  0  0  0  0  0
  -28.0724  -31.8420   26.5419 H   0  0  0  0  0  0
  -28.2592  -38.0088   24.7529 H   0  0  0  0  0  0
  -28.1092  -36.2619   24.6302 H   0  0  0  0  0  0
  -27.2303  -37.1447   25.8867 H   0  0  0  0  0  0
  -20.9364  -29.9130   21.7294 H   0  0  0  0  0  0
  -26.0176  -38.2837   24.1419 H   0  0  0  0  0  0
  -31.1692  -21.1528   21.3915 H   0  0  0  0  0  0
  -32.1130  -16.9600   21.6222 H   0  0  0  0  0  0
  -28.3420  -22.1240   17.1633 H   0  0  0  0  0  0
  -26.8508  -22.1964   18.0487 H   0  0  0  0  0  0
  -29.0796  -20.3538   18.3702 H   0  0  0  0  0  0
  -27.4449  -20.2574   18.9573 H   0  0  0  0  0  0
  -27.6423  -17.9961   19.1727 H   0  0  0  0  0  0
  -27.0733  -18.8141   20.6526 H   0  0  0  0  0  0
  -27.4995  -17.1299   20.7046 H   0  0  0  0  0  0
  -28.8121  -21.3827   22.8586 H   0  0  0  0  0  0
  -27.9006  -22.8786   22.8635 H   0  0  0  0  0  0
  -29.6618  -22.9283   22.7853 H   0  0  0  0  0  0
  -28.8317  -25.1241   21.7730 H   0  0  0  0  0  0
  -27.1646  -24.9950   21.3443 H   0  0  0  0  0  0
  -33.3632  -20.3226   22.0978 H   0  0  0  0  0  0
  -33.7229  -18.6598   22.1457 H   0  0  0  0  0  0
  -28.8270  -15.6670   20.8037 H   0  0  0  0  0  0
  1 25  1  0  0  0
  1 30  2  0  0  0
  1 87  1  0  0  0
  2  3  1  0  0  0
  2 25  1  0  0  0
  2 89  1  0  0  0
  2 90  1  0  0  0
  3  4  1  0  0  0
  3 91  1  0  0  0
  3 92  1  0  0  0
  4  5  1  0  0  0
  4 93  1  0  0  0
  4 94  1  0  0  0
  5  6  1  0  0  0
  5 26  1  0  0  0
  5 95  1  0  0  0
  6 25  1  0  0  0
  6 96  1  0  0  0
  6 97  1  0  0  0
  7  8  2  0  0  0
  7 26  1  0  0  0
  7 29  1  0  0  0
  8  9  1  0  0  0
  8 22  1  0  0  0
  9 10  1  0  0  0
  9 27  2  0  0  0
 10 11  2  0  0  0
 10 15  1  0  0  0
 11 12  1  0  0  0
 11 98  1  0  0  0
 12 13  2  0  0  0
 12 99  1  0  0  0
 13 14  1  0  0  0
 13 31  1  0  0  0
 14 15  2  0  0  0
 14100  1  0  0  0
 15101  1  0  0  0
 16 17  2  0  0  0
 16 21  1  0  0  0
 16 31  1  0  0  0
 17 18  1  0  0  0
 17102  1  0  0  0
 18 19  2  0  0  0
 18103  1  0  0  0
 19 20  1  0  0  0
 19 24  1  0  0  0
 20 21  2  0  0  0
 20104  1  0  0  0
 21 23  1  0  0  0
 22 28  1  0  0  0
 22 32  2  0  0  0
 26 27  1  0  0  0
 28105  1  0  0  0
 28106  1  0  0  0
 29107  1  0  0  0
 29108  1  0  0  0
 33 34  1  0  0  0
 33 66  1  0  0  0
 33 70  2  0  0  0
 34 36  1  0  0  0
 34 59  1  0  0  0
 34109  1  0  0  0
 35 44  2  0  0  0
 35 45  1  0  0  0
 35 68  1  0  0  0
 36 56  1  0  0  0
 36110  1  0  0  0
 37 39  1  0  0  0
 37 47  1  0  0  0
 37 66  1  0  0  0
 37111  1  0  0  0
 38 43  2  0  0  0
 38 46  1  0  0  0
 38 47  1  0  0  0
 39 64  1  0  0  0
 39 67  2  0  0  0
 40 52  1  0  0  0
 40 53  2  0  0  0
 40 58  1  0  0  0
 41112  1  0  0  0
 41113  1  0  0  0
 41114  1  0  0  0
 41 48  1  0  0  0
 42 43  1  0  0  0
 42 66  1  0  0  0
 42115  1  0  0  0
 42116  1  0  0  0
 43 44  1  0  0  0
 44117  1  0  0  0
 45 46  2  0  0  0
 45118  1  0  0  0
 46119  1  0  0  0
 47120  1  0  0  0
 47121  1  0  0  0
 48 56  1  0  0  0
 48 65  1  0  0  0
 48122  1  0  0  0
 49 50  1  0  0  0
 49 53  1  0  0  0
 49 64  1  0  0  0
 49123  1  0  0  0
 50 51  1  0  0  0
 50124  1  0  0  0
 50125  1  0  0  0
 51 52  1  0  0  0
 51126  1  0  0  0
 51127  1  0  0  0
 52128  1  0  0  0
 52129  1  0  0  0
 53 54  1  0  0  0
 54 55  2  0  0  0
 54130  1  0  0  0
 55 57  1  0  0  0
 55131  1  0  0  0
 56 69  2  0  0  0
 57 58  2  0  0  0
 57132  1  0  0  0
 58133  1  0  0  0
 59 60  1  0  0  0
 59 61  1  0  0  0
 59 62  1  0  0  0
 60134  1  0  0  0
 60135  1  0  0  0
 60136  1  0  0  0
 61137  1  0  0  0
 61138  1  0  0  0
 61139  1  0  0  0
 62140  1  0  0  0
 62141  1  0  0  0
 62142  1  0  0  0
 63 65  1  0  0  0
 63143  1  0  0  0
 63144  1  0  0  0
 63145  1  0  0  0
 64146  1  0  0  0
 65147  1  0  0  0
 68 84  1  0  0  0
 71 74  2  0  0  0
 71 75  1  0  0  0
 71148  1  0  0  0
 72 75  2  0  0  0
 72 76  1  0  0  0
 72149  1  0  0  0
 73 74  1  0  0  0
 73 76  2  0  0  0
 73 82  1  0  0  0
 74 85  1  0  0  0
 75 86  1  0  0  0
 76 87  1  0  0  0
 77 78  2  0  0  0
 77 79  1  0  0  0
 77 84  1  0  0  0
 78 83  1  0  0  0
 78 85  1  0  0  0
 79 80  1  0  0  0
 79 88  2  0  0  0
 80 81  1  0  0  0
 80150  1  0  0  0
 80151  1  0  0  0
 81 85  1  0  0  0
 81152  1  0  0  0
 81153  1  0  0  0
 82154  1  0  0  0
 82155  1  0  0  0
 82156  1  0  0  0
 83157  1  0  0  0
 83158  1  0  0  0
 83159  1  0  0  0
 84160  1  0  0  0
 84161  1  0  0  0
 86162  1  0  0  0
 86163  1  0  0  0
 87164  1  0  0  0
M  ISO  4   1 100  68 101  84 101  87 100
M  END
> <chiral flag>
0

> <version>
0

> <s_m_source_file>
/data/baiqing/PycharmProjects/Reinvent-master-3.2/result/LINK_invent/BTK/process_docking_weight1_custom_product_contain_oxygen_bond_distance_aromatic_linkinvent_7_9_3/rearranged_h_0111.sdf

> <i_m_source_file_index>
7

> <r_mmod_Potential_Energy-OPLS-2005>
270.650207519531

> <r_mmod_Stretch_Energy-OPLS-2005>
146.913726806641

> <r_mmod_Bend_Energy-OPLS-2005>
174.981414794922

> <r_mmod_Torsional_Energy-OPLS-2005>
249.679458618164

> <r_mmod_Improper_Torsional_Energy-OPLS-2005>
8.69975280761719

> <r_mmod_Van_der_Waal_Energy-OPLS-2005>
145.936538696289

> <r_mmod_Electrostatic_Energy-OPLS-2005>
-312.727874755859

> <r_mmod_Solvation_Energy-OPLS-2005>
-234.004455566406

> <b_mmod_Minimization_Converged-OPLS-2005>
0

> <r_mmod_RMS_Derivative-OPLS-2005>
4.68618726730347

$$$$
7
                    3D
 Structure written by MMmdl.
149157  0  0  1  0            999 V2000
  -30.6047  -14.7354   20.4292 C   0  0  0  0  0  0
  -30.4281  -12.4435   19.4617 C   0  0  0  0  0  0
  -29.5107  -12.5019   18.2198 C   0  0  0  0  0  0
  -28.0294  -12.3488   18.6214 C   0  0  0  0  0  0
  -27.6383  -13.2349   19.8326 C   0  0  2  0  0  0
  -28.6810  -13.1653   20.9674 C   0  0  0  0  0  0
  -25.2514  -13.8203   20.5641 C   0  0  0  0  0  0
  -24.1823  -13.0452   20.9182 C   0  0  0  0  0  0
  -24.6403  -11.6923   20.8727 C   0  0  0  0  0  0
  -23.9091  -10.4294   21.0406 C   0  0  0  0  0  0
  -24.3632   -9.4196   21.9169 C   0  0  0  0  0  0
  -23.6299   -8.2242   22.0737 C   0  0  0  0  0  0
  -22.4282   -8.0273   21.3542 C   0  0  0  0  0  0
  -21.9931   -9.0244   20.4639 C   0  0  0  0  0  0
  -22.7274  -10.2118   20.3036 C   0  0  0  0  0  0
  -21.6854   -6.0729   22.5275 C   0  0  0  0  0  0
  -21.4019   -6.5642   23.8201 C   0  0  0  0  0  0
  -21.3654   -5.6792   24.9159 C   0  0  0  0  0  0
  -21.6056   -4.3051   24.7221 C   0  0  0  0  0  0
  -21.8819   -3.8141   23.4341 C   0  0  0  0  0  0
  -21.9197   -4.6966   22.3395 C   0  0  0  0  0  0
  -22.7832  -13.5215   21.1855 C   0  0  0  0  0  0
  -22.1665   -4.2150   21.0971 F   0  0  0  0  0  0
  -21.5630   -3.4530   25.7736 F   0  0  0  0  0  0
  -29.9827  -13.5099   20.3870 N   0  0  0  0  0  0
  -26.2908  -12.9412   20.3143 N   0  0  0  0  0  0
  -25.9326  -11.6565   20.5646 N   0  0  0  0  0  0
  -22.0497  -12.8171   22.0393 N   0  0  0  0  0  0
  -25.4260  -15.1931   20.4048 N   0  0  0  0  0  0
  -31.8126  -14.8061   20.2004 O   0  0  0  0  0  0
  -21.6640   -6.8876   21.4237 O   0  0  0  0  0  0
  -22.3505  -14.5517   20.6694 O   0  0  0  0  0  0
  -24.6353  -31.8525   23.1951 C   0  0  0  0  0  0
  -25.9189  -32.4730   23.8299 C   0  0  1  0  0  0
  -27.2055  -27.2556   20.1076 C   0  0  0  0  0  0
  -25.5977  -33.8526   24.2233 N   0  0  0  0  0  0
  -23.4286  -30.4777   21.5411 C   0  0  2  0  0  0
  -24.8676  -28.9232   20.1007 C   0  0  0  0  0  0
  -22.7516  -29.4600   22.4896 C   0  0  0  0  0  0
  -18.0302  -28.1403   22.8484 C   0  0  0  0  0  0
  -24.1488  -36.7251   23.2641 C   0  0  0  0  0  0
  -25.9738  -30.7635   21.3715 C   0  0  0  0  0  0
  -26.0403  -29.3864   20.7099 C   0  0  0  0  0  0
  -27.2106  -28.5637   20.7000 C   0  0  0  0  0  0
  -26.0042  -26.8508   19.4853 C   0  0  0  0  0  0
  -24.8565  -27.6657   19.4767 C   0  0  0  0  0  0
  -23.6411  -29.8134   20.1550 C   0  0  0  0  0  0
  -25.4119  -36.3044   24.0327 C   0  0  1  0  0  0
  -20.5921  -28.3701   23.1281 C   0  0  2  0  0  0
  -20.6789  -26.9415   22.5419 C   0  0  0  0  0  0
  -19.5752  -26.6394   21.5226 C   0  0  0  0  0  0
  -18.1932  -26.7949   22.1633 C   0  0  0  0  0  0
  -19.1555  -28.8868   23.2880 C   0  0  0  0  0  0
  -18.9474  -30.1480   23.8887 C   0  0  0  0  0  0
  -17.6463  -30.6589   24.0578 C   0  0  0  0  0  0
  -25.9070  -34.9418   23.5074 C   0  0  0  0  0  0
  -16.5351  -29.9086   23.6341 C   0  0  0  0  0  0
  -16.7293  -28.6514   23.0341 C   0  0  0  0  0  0
  -26.4525  -31.6574   25.0701 C   0  0  0  0  0  0
  -25.3726  -31.3725   26.1400 C   0  0  0  0  0  0
  -27.0375  -30.2998   24.6189 C   0  0  0  0  0  0
  -27.6079  -32.4308   25.7489 C   0  0  0  0  0  0
  -27.5568  -37.1785   24.8461 C   0  0  0  0  0  0
  -21.4220  -29.3028   22.3657 N   0  0  0  0  0  0
  -26.4274  -37.3758   23.9406 N   0  0  0  0  0  0
  -24.7001  -31.0499   22.0928 N   0  0  0  0  0  0
  -23.4204  -28.8140   23.2998 O   0  0  0  0  0  0
  -28.3161  -26.3876   20.1874 O   0  0  0  0  0  0
  -26.5637  -34.8904   22.4638 O   0  0  0  0  0  0
  -23.5517  -32.1345   23.7267 O   0  0  0  0  0  0
  -29.3156  -18.4446   20.6313 C   0  0  0  0  0  0
  -30.5913  -19.8947   19.2130 C   0  0  0  0  0  0
  -29.5562  -19.8048   20.1635 C   0  0  0  0  0  0
  -30.0635  -17.2914   20.1459 C   0  0  0  0  0  0
  -31.0216  -17.6043   19.1487 C   0  0  0  0  0  0
  -28.8225  -21.1160   20.5665 C   0  0  0  0  0  0
  -28.9347  -22.3887   20.0085 C   0  0  0  0  0  0
  -28.2358  -23.7055   20.4170 C   0  0  0  0  0  0
  -28.3748  -25.0352   19.5299 C   0  0  0  0  0  0
  -31.2890  -18.8535   18.7256 N   0  0  0  0  0  0
  -29.8144  -15.8755   20.5571 N   0  0  0  0  0  0
  -27.5161  -23.7521   21.4203 O   0  0  0  0  0  0
  -31.6822  -16.6401   18.4706 F   0  0  0  0  0  0
  -31.4712  -12.5653   19.1662 H   0  0  0  0  0  0
  -30.3619  -11.4669   19.9447 H   0  0  0  0  0  0
  -29.7881  -11.7231   17.5075 H   0  0  0  0  0  0
  -29.6549  -13.4486   17.6967 H   0  0  0  0  0  0
  -27.8549  -11.2982   18.8519 H   0  0  0  0  0  0
  -27.3861  -12.5798   17.7711 H   0  0  0  0  0  0
  -27.6305  -14.2566   19.4519 H   0  0  0  0  0  0
  -28.7109  -12.1692   21.4126 H   0  0  0  0  0  0
  -28.4150  -13.8537   21.7708 H   0  0  0  0  0  0
  -25.2788   -9.5676   22.4712 H   0  0  0  0  0  0
  -24.0019   -7.4638   22.7441 H   0  0  0  0  0  0
  -21.0866   -8.8780   19.8932 H   0  0  0  0  0  0
  -22.3760  -10.9637   19.6112 H   0  0  0  0  0  0
  -21.2010   -7.6153   23.9709 H   0  0  0  0  0  0
  -21.1476   -6.0512   25.9063 H   0  0  0  0  0  0
  -22.0606   -2.7605   23.2833 H   0  0  0  0  0  0
  -22.4127  -11.9831   22.4766 H   0  0  0  0  0  0
  -21.1085  -13.1133   22.2570 H   0  0  0  0  0  0
  -24.6671  -15.8552   20.5267 H   0  0  0  0  0  0
  -26.2585  -15.6169   20.0151 H   0  0  0  0  0  0
  -26.7249  -32.5365   23.1031 H   0  0  0  0  0  0
  -25.0144  -33.9650   25.0399 H   0  0  0  0  0  0
  -22.7268  -31.3028   21.4017 H   0  0  0  0  0  0
  -23.3754  -35.9577   23.3304 H   0  0  0  0  0  0
  -24.3577  -36.8870   22.2051 H   0  0  0  0  0  0
  -23.7227  -37.6449   23.6661 H   0  0  0  0  0  0
  -26.1181  -31.5234   20.6028 H   0  0  0  0  0  0
  -26.8524  -30.8079   22.0036 H   0  0  0  0  0  0
  -28.1145  -28.9104   21.1820 H   0  0  0  0  0  0
  -25.9044  -25.8783   19.0287 H   0  0  0  0  0  0
  -23.9562  -27.3071   18.9956 H   0  0  0  0  0  0
  -23.7605  -30.5893   19.3974 H   0  0  0  0  0  0
  -22.7540  -29.2505   19.8584 H   0  0  0  0  0  0
  -25.1306  -36.1870   25.0819 H   0  0  0  0  0  0
  -21.0040  -28.3278   24.1394 H   0  0  0  0  0  0
  -20.5706  -26.2293   23.3619 H   0  0  0  0  0  0
  -21.6654  -26.7439   22.1202 H   0  0  0  0  0  0
  -19.6899  -25.6302   21.1255 H   0  0  0  0  0  0
  -19.6703  -27.3209   20.6756 H   0  0  0  0  0  0
  -17.4219  -26.6736   21.4016 H   0  0  0  0  0  0
  -18.0304  -26.0099   22.9029 H   0  0  0  0  0  0
  -19.7942  -30.7323   24.2233 H   0  0  0  0  0  0
  -17.5006  -31.6258   24.5201 H   0  0  0  0  0  0
  -15.5351  -30.2968   23.7674 H   0  0  0  0  0  0
  -15.8706  -28.0845   22.7013 H   0  0  0  0  0  0
  -24.5904  -30.7084   25.7698 H   0  0  0  0  0  0
  -24.8904  -32.2889   26.4809 H   0  0  0  0  0  0
  -25.8014  -30.8886   27.0185 H   0  0  0  0  0  0
  -26.2950  -29.6731   24.1224 H   0  0  0  0  0  0
  -27.4077  -29.7274   25.4707 H   0  0  0  0  0  0
  -27.8827  -30.4276   23.9420 H   0  0  0  0  0  0
  -27.2703  -33.3620   26.2056 H   0  0  0  0  0  0
  -28.3912  -32.6847   25.0333 H   0  0  0  0  0  0
  -28.0733  -31.8430   26.5415 H   0  0  0  0  0  0
  -28.2584  -38.0086   24.7521 H   0  0  0  0  0  0
  -28.1067  -36.2615   24.6275 H   0  0  0  0  0  0
  -27.2292  -37.1433   25.8867 H   0  0  0  0  0  0
  -20.9411  -29.8709   21.6836 H   0  0  0  0  0  0
  -26.0144  -38.2824   24.1409 H   0  0  0  0  0  0
  -28.5412  -18.2765   21.3661 H   0  0  0  0  0  0
  -30.8829  -20.8486   18.8009 H   0  0  0  0  0  0
  -28.1477  -21.0127   21.4091 H   0  0  0  0  0  0
  -29.5984  -22.5117   19.1671 H   0  0  0  0  0  0
  -27.6759  -24.9675   18.6982 H   0  0  0  0  0  0
  -29.3541  -24.9741   19.0538 H   0  0  0  0  0  0
  -28.8764  -15.6846   20.8710 H   0  0  0  0  0  0
  1 25  1  0  0  0
  1 30  2  0  0  0
  1 81  1  0  0  0
  2  3  1  0  0  0
  2 25  1  0  0  0
  2 84  1  0  0  0
  2 85  1  0  0  0
  3  4  1  0  0  0
  3 86  1  0  0  0
  3 87  1  0  0  0
  4  5  1  0  0  0
  4 88  1  0  0  0
  4 89  1  0  0  0
  5  6  1  0  0  0
  5 26  1  0  0  0
  5 90  1  0  0  0
  6 25  1  0  0  0
  6 91  1  0  0  0
  6 92  1  0  0  0
  7  8  2  0  0  0
  7 26  1  0  0  0
  7 29  1  0  0  0
  8  9  1  0  0  0
  8 22  1  0  0  0
  9 10  1  0  0  0
  9 27  2  0  0  0
 10 11  2  0  0  0
 10 15  1  0  0  0
 11 12  1  0  0  0
 11 93  1  0  0  0
 12 13  2  0  0  0
 12 94  1  0  0  0
 13 14  1  0  0  0
 13 31  1  0  0  0
 14 15  2  0  0  0
 14 95  1  0  0  0
 15 96  1  0  0  0
 16 17  2  0  0  0
 16 21  1  0  0  0
 16 31  1  0  0  0
 17 18  1  0  0  0
 17 97  1  0  0  0
 18 19  2  0  0  0
 18 98  1  0  0  0
 19 20  1  0  0  0
 19 24  1  0  0  0
 20 21  2  0  0  0
 20 99  1  0  0  0
 21 23  1  0  0  0
 22 28  1  0  0  0
 22 32  2  0  0  0
 26 27  1  0  0  0
 28100  1  0  0  0
 28101  1  0  0  0
 29102  1  0  0  0
 29103  1  0  0  0
 33 34  1  0  0  0
 33 66  1  0  0  0
 33 70  2  0  0  0
 34 36  1  0  0  0
 34 59  1  0  0  0
 34104  1  0  0  0
 35 44  2  0  0  0
 35 45  1  0  0  0
 35 68  1  0  0  0
 36 56  1  0  0  0
 36105  1  0  0  0
 37 39  1  0  0  0
 37 47  1  0  0  0
 37 66  1  0  0  0
 37106  1  0  0  0
 38 43  2  0  0  0
 38 46  1  0  0  0
 38 47  1  0  0  0
 39 64  1  0  0  0
 39 67  2  0  0  0
 40 52  1  0  0  0
 40 53  2  0  0  0
 40 58  1  0  0  0
 41107  1  0  0  0
 41108  1  0  0  0
 41109  1  0  0  0
 41 48  1  0  0  0
 42 43  1  0  0  0
 42 66  1  0  0  0
 42110  1  0  0  0
 42111  1  0  0  0
 43 44  1  0  0  0
 44112  1  0  0  0
 45 46  2  0  0  0
 45113  1  0  0  0
 46114  1  0  0  0
 47115  1  0  0  0
 47116  1  0  0  0
 48 56  1  0  0  0
 48 65  1  0  0  0
 48117  1  0  0  0
 49 50  1  0  0  0
 49 53  1  0  0  0
 49 64  1  0  0  0
 49118  1  0  0  0
 50 51  1  0  0  0
 50119  1  0  0  0
 50120  1  0  0  0
 51 52  1  0  0  0
 51121  1  0  0  0
 51122  1  0  0  0
 52123  1  0  0  0
 52124  1  0  0  0
 53 54  1  0  0  0
 54 55  2  0  0  0
 54125  1  0  0  0
 55 57  1  0  0  0
 55126  1  0  0  0
 56 69  2  0  0  0
 57 58  2  0  0  0
 57127  1  0  0  0
 58128  1  0  0  0
 59 60  1  0  0  0
 59 61  1  0  0  0
 59 62  1  0  0  0
 60129  1  0  0  0
 60130  1  0  0  0
 60131  1  0  0  0
 61132  1  0  0  0
 61133  1  0  0  0
 61134  1  0  0  0
 62135  1  0  0  0
 62136  1  0  0  0
 62137  1  0  0  0
 63 65  1  0  0  0
 63138  1  0  0  0
 63139  1  0  0  0
 63140  1  0  0  0
 64141  1  0  0  0
 65142  1  0  0  0
 68 79  1  0  0  0
 71 73  2  0  0  0
 71 74  1  0  0  0
 71143  1  0  0  0
 72 73  1  0  0  0
 72 80  2  0  0  0
 72144  1  0  0  0
 73 76  1  0  0  0
 74 75  2  0  0  0
 74 81  1  0  0  0
 75 80  1  0  0  0
 75 83  1  0  0  0
 76 77  2  0  0  0
 76145  1  0  0  0
 77 78  1  0  0  0
 77146  1  0  0  0
 78 79  1  0  0  0
 78 82  2  0  0  0
 79147  1  0  0  0
 79148  1  0  0  0
 81149  1  0  0  0
M  ISO  4   1 100  68 101  79 101  81 100
M  END
> <chiral flag>
0

> <version>
0

> <s_m_source_file>
/data/baiqing/PycharmProjects/Reinvent-master-3.2/result/LINK_invent/BTK/process_docking_weight1_custom_product_contain_oxygen_bond_distance_aromatic_linkinvent_7_9_3/rearranged_h_0111.sdf

> <i_m_source_file_index>
8

> <r_mmod_Potential_Energy-OPLS-2005>
-1.44283521175385

> <r_mmod_Stretch_Energy-OPLS-2005>
124.437622070312

> <r_mmod_Bend_Energy-OPLS-2005>
163.536834716797

> <r_mmod_Torsional_Energy-OPLS-2005>
221.201095581055

> <r_mmod_Improper_Torsional_Energy-OPLS-2005>
4.70195913314819

> <r_mmod_Van_der_Waal_Energy-OPLS-2005>
148.554794311523

> <r_mmod_Electrostatic_Energy-OPLS-2005>
-499.592895507812

> <r_mmod_Solvation_Energy-OPLS-2005>
-250.412414550781

> <b_mmod_Minimization_Converged-OPLS-2005>
0

> <r_mmod_RMS_Derivative-OPLS-2005>
3.86439442634583

$$$$
8
                    3D
 Structure written by MMmdl.
160168  0  0  1  0            999 V2000
  -30.6553  -14.6045   20.5961 C   0  0  0  0  0  0
  -30.4387  -12.3979   19.4531 C   0  0  0  0  0  0
  -29.5104  -12.5344   18.2244 C   0  0  0  0  0  0
  -28.0306  -12.3637   18.6228 C   0  0  0  0  0  0
  -27.6568  -13.2080   19.8677 C   0  0  2  0  0  0
  -28.6902  -13.0032   20.9921 C   0  0  0  0  0  0
  -25.2571  -13.8143   20.5662 C   0  0  0  0  0  0
  -24.1827  -13.0424   20.9172 C   0  0  0  0  0  0
  -24.6380  -11.6889   20.8708 C   0  0  0  0  0  0
  -23.9047  -10.4285   21.0393 C   0  0  0  0  0  0
  -24.3603   -9.4201   21.9178 C   0  0  0  0  0  0
  -23.6281   -8.2236   22.0751 C   0  0  0  0  0  0
  -22.4263   -8.0275   21.3543 C   0  0  0  0  0  0
  -21.9894   -9.0247   20.4642 C   0  0  0  0  0  0
  -22.7217  -10.2126   20.3048 C   0  0  0  0  0  0
  -21.6846   -6.0727   22.5284 C   0  0  0  0  0  0
  -21.4006   -6.5632   23.8216 C   0  0  0  0  0  0
  -21.3665   -5.6788   24.9179 C   0  0  0  0  0  0
  -21.6048   -4.3052   24.7232 C   0  0  0  0  0  0
  -21.8813   -3.8143   23.4351 C   0  0  0  0  0  0
  -21.9184   -4.6956   22.3405 C   0  0  0  0  0  0
  -22.7856  -13.5235   21.1858 C   0  0  0  0  0  0
  -22.1654   -4.2140   21.0980 F   0  0  0  0  0  0
  -21.5643   -3.4539   25.7746 F   0  0  0  0  0  0
  -30.0160  -13.3886   20.4697 N   0  0  0  0  0  0
  -26.2990  -12.9305   20.3281 N   0  0  0  0  0  0
  -25.9297  -11.6464   20.5688 N   0  0  0  0  0  0
  -22.0499  -12.8232   22.0422 N   0  0  0  0  0  0
  -25.4317  -15.1864   20.4110 N   0  0  0  0  0  0
  -31.7300  -14.8206   20.0232 O   0  0  0  0  0  0
  -21.6631   -6.8869   21.4245 O   0  0  0  0  0  0
  -22.3553  -14.5551   20.6715 O   0  0  0  0  0  0
  -24.6237  -31.8614   23.2023 C   0  0  0  0  0  0
  -25.9096  -32.4785   23.8347 C   0  0  1  0  0  0
  -27.2299  -27.3427   20.1236 C   0  0  0  0  0  0
  -25.5929  -33.8585   24.2293 N   0  0  0  0  0  0
  -23.4165  -30.4823   21.5444 C   0  0  2  0  0  0
  -24.8648  -28.9326   20.1150 C   0  0  0  0  0  0
  -22.7461  -29.4633   22.4955 C   0  0  0  0  0  0
  -18.0300  -28.1356   22.8485 C   0  0  0  0  0  0
  -24.1488  -36.7293   23.2637 C   0  0  0  0  0  0
  -25.9534  -30.7992   21.3679 C   0  0  0  0  0  0
  -26.0308  -29.4258   20.7153 C   0  0  0  0  0  0
  -27.2199  -28.6431   20.7066 C   0  0  0  0  0  0
  -26.0460  -26.8875   19.5084 C   0  0  0  0  0  0
  -24.8726  -27.6677   19.5022 C   0  0  0  0  0  0
  -23.6309  -29.8101   20.1611 C   0  0  0  0  0  0
  -25.4111  -36.3086   24.0336 C   0  0  1  0  0  0
  -20.5892  -28.3675   23.1300 C   0  0  2  0  0  0
  -20.6808  -26.9410   22.5407 C   0  0  0  0  0  0
  -19.5779  -26.6361   21.5220 C   0  0  0  0  0  0
  -18.1955  -26.7908   22.1618 C   0  0  0  0  0  0
  -19.1544  -28.8833   23.2891 C   0  0  0  0  0  0
  -18.9453  -30.1441   23.8898 C   0  0  0  0  0  0
  -17.6443  -30.6565   24.0539 C   0  0  0  0  0  0
  -25.9040  -34.9456   23.5113 C   0  0  0  0  0  0
  -16.5345  -29.9048   23.6300 C   0  0  0  0  0  0
  -16.7281  -28.6467   23.0332 C   0  0  0  0  0  0
  -26.4487  -31.6582   25.0708 C   0  0  0  0  0  0
  -25.3728  -31.3716   26.1443 C   0  0  0  0  0  0
  -27.0326  -30.3012   24.6135 C   0  0  0  0  0  0
  -27.6059  -32.4305   25.7473 C   0  0  0  0  0  0
  -27.5580  -37.1802   24.8468 C   0  0  0  0  0  0
  -21.4177  -29.3048   22.3704 N   0  0  0  0  0  0
  -26.4290  -37.3776   23.9407 N   0  0  0  0  0  0
  -24.6832  -31.0637   22.0960 N   0  0  0  0  0  0
  -23.4194  -28.8188   23.3039 O   0  0  0  0  0  0
  -28.3572  -26.5217   20.1205 O   0  0  0  0  0  0
  -26.5606  -34.8919   22.4674 O   0  0  0  0  0  0
  -23.5411  -32.1398   23.7371 O   0  0  0  0  0  0
  -29.8481  -18.2206   22.0508 C   0  0  0  0  0  0
  -29.7211  -17.6402   19.7428 C   0  0  0  0  0  0
  -29.9002  -17.1865   21.0726 C   0  0  0  0  0  0
  -29.6133  -19.6026   21.7703 C   0  0  0  0  0  0
  -29.4904  -19.0161   19.4319 C   0  0  0  0  0  0
  -29.4285  -20.0486   20.4201 C   0  0  0  0  0  0
  -30.0312  -15.7134   21.5196 C   0  0  0  0  0  0
  -27.9570  -19.4874   17.7396 C   0  0  0  0  0  0
  -29.6007  -20.5184   22.9908 C   0  0  0  0  0  0
  -28.7154  -23.9101   19.9096 C   0  0  0  0  0  0
  -28.2285  -25.1833   20.7235 C   0  0  0  0  0  0
  -28.8669  -22.5462   20.7160 C   0  0  0  0  0  0
  -29.6859  -15.4217   22.7068 N   0  0  0  0  0  0
  -30.9580  -21.1494   23.2100 N   0  0  0  0  0  0
  -30.8895  -22.2675   23.6756 O   0  0  0  0  0  0
  -29.3214  -19.3446   18.1124 O   0  0  0  0  0  0
  -29.2284  -21.3663   19.9302 O   0  0  0  0  0  0
  -31.4799  -12.5288   19.1542 H   0  0  0  0  0  0
  -30.3823  -11.3898   19.8658 H   0  0  0  0  0  0
  -29.7784  -11.7989   17.4643 H   0  0  0  0  0  0
  -29.6543  -13.5143   17.7673 H   0  0  0  0  0  0
  -27.8640  -11.3060   18.8289 H   0  0  0  0  0  0
  -27.3800  -12.6173   17.7851 H   0  0  0  0  0  0
  -27.6947  -14.2544   19.5655 H   0  0  0  0  0  0
  -28.7074  -11.9563   21.2990 H   0  0  0  0  0  0
  -28.3753  -13.5387   21.8821 H   0  0  0  0  0  0
  -25.2752   -9.5681   22.4745 H   0  0  0  0  0  0
  -23.9988   -7.4625   22.7468 H   0  0  0  0  0  0
  -21.0823   -8.8759   19.8955 H   0  0  0  0  0  0
  -22.3672  -10.9660   19.6153 H   0  0  0  0  0  0
  -21.1992   -7.6140   23.9720 H   0  0  0  0  0  0
  -21.1500   -6.0517   25.9083 H   0  0  0  0  0  0
  -22.0586   -2.7606   23.2851 H   0  0  0  0  0  0
  -22.4100  -11.9876   22.4797 H   0  0  0  0  0  0
  -21.1125  -13.1273   22.2642 H   0  0  0  0  0  0
  -24.6723  -15.8465   20.5386 H   0  0  0  0  0  0
  -26.2918  -15.6253   20.1084 H   0  0  0  0  0  0
  -26.7170  -32.5456   23.1101 H   0  0  0  0  0  0
  -25.0092  -33.9723   25.0451 H   0  0  0  0  0  0
  -22.7087  -31.3010   21.3990 H   0  0  0  0  0  0
  -23.3745  -35.9630   23.3305 H   0  0  0  0  0  0
  -24.3584  -36.8900   22.2050 H   0  0  0  0  0  0
  -23.7244  -37.6503   23.6645 H   0  0  0  0  0  0
  -26.0759  -31.5601   20.5960 H   0  0  0  0  0  0
  -26.8360  -30.8537   21.9931 H   0  0  0  0  0  0
  -28.1191  -29.0197   21.1736 H   0  0  0  0  0  0
  -26.0276  -25.9156   19.0350 H   0  0  0  0  0  0
  -23.9798  -27.2843   19.0262 H   0  0  0  0  0  0
  -23.7460  -30.5815   19.3986 H   0  0  0  0  0  0
  -22.7523  -29.2343   19.8649 H   0  0  0  0  0  0
  -25.1288  -36.1945   25.0829 H   0  0  0  0  0  0
  -20.9984  -28.3245   24.1418 H   0  0  0  0  0  0
  -20.5761  -26.2273   23.3586 H   0  0  0  0  0  0
  -21.6672  -26.7488   22.1171 H   0  0  0  0  0  0
  -19.6954  -25.6266   21.1267 H   0  0  0  0  0  0
  -19.6717  -27.3159   20.6737 H   0  0  0  0  0  0
  -17.4245  -26.6684   21.3997 H   0  0  0  0  0  0
  -18.0334  -26.0036   22.8995 H   0  0  0  0  0  0
  -19.7922  -30.7258   24.2280 H   0  0  0  0  0  0
  -17.4983  -31.6250   24.5131 H   0  0  0  0  0  0
  -15.5337  -30.2947   23.7591 H   0  0  0  0  0  0
  -15.8696  -28.0769   22.7038 H   0  0  0  0  0  0
  -24.5911  -30.7058   25.7773 H   0  0  0  0  0  0
  -24.8906  -32.2877   26.4860 H   0  0  0  0  0  0
  -25.8058  -30.8905   27.0219 H   0  0  0  0  0  0
  -26.2897  -29.6768   24.1160 H   0  0  0  0  0  0
  -27.4042  -29.7262   25.4625 H   0  0  0  0  0  0
  -27.8751  -30.4311   23.9341 H   0  0  0  0  0  0
  -27.2687  -33.3603   26.2058 H   0  0  0  0  0  0
  -28.3855  -32.6860   25.0288 H   0  0  0  0  0  0
  -28.0732  -31.8420   26.5373 H   0  0  0  0  0  0
  -28.2606  -38.0091   24.7501 H   0  0  0  0  0  0
  -28.1069  -36.2623   24.6309 H   0  0  0  0  0  0
  -27.2303  -37.1474   25.8874 H   0  0  0  0  0  0
  -20.9359  -29.8765   21.6910 H   0  0  0  0  0  0
  -26.0180  -38.2858   24.1391 H   0  0  0  0  0  0
  -29.9946  -17.9457   23.0860 H   0  0  0  0  0  0
  -29.7288  -16.9226   18.9349 H   0  0  0  0  0  0
  -27.4271  -18.5379   17.8318 H   0  0  0  0  0  0
  -27.8894  -19.8073   16.7003 H   0  0  0  0  0  0
  -27.4415  -20.2308   18.3493 H   0  0  0  0  0  0
  -29.3902  -19.9373   23.8896 H   0  0  0  0  0  0
  -28.8236  -21.2781   22.9628 H   0  0  0  0  0  0
  -29.6798  -24.1412   19.4557 H   0  0  0  0  0  0
  -28.0280  -23.7530   19.0787 H   0  0  0  0  0  0
  -28.8126  -25.2265   21.6433 H   0  0  0  0  0  0
  -27.2052  -25.0077   21.0594 H   0  0  0  0  0  0
  -27.9280  -22.3415   21.2309 H   0  0  0  0  0  0
  -29.6331  -22.7198   21.4654 H   0  0  0  0  0  0
  -29.3203  -16.2340   23.1870 H   0  0  0  0  0  0
  1 25  1  0  0  0
  1 30  2  0  0  0
  1 77  1  0  0  0
  2  3  1  0  0  0
  2 25  1  0  0  0
  2 88  1  0  0  0
  2 89  1  0  0  0
  3  4  1  0  0  0
  3 90  1  0  0  0
  3 91  1  0  0  0
  4  5  1  0  0  0
  4 92  1  0  0  0
  4 93  1  0  0  0
  5  6  1  0  0  0
  5 26  1  0  0  0
  5 94  1  0  0  0
  6 25  1  0  0  0
  6 95  1  0  0  0
  6 96  1  0  0  0
  7  8  2  0  0  0
  7 26  1  0  0  0
  7 29  1  0  0  0
  8  9  1  0  0  0
  8 22  1  0  0  0
  9 10  1  0  0  0
  9 27  2  0  0  0
 10 11  2  0  0  0
 10 15  1  0  0  0
 11 12  1  0  0  0
 11 97  1  0  0  0
 12 13  2  0  0  0
 12 98  1  0  0  0
 13 14  1  0  0  0
 13 31  1  0  0  0
 14 15  2  0  0  0
 14 99  1  0  0  0
 15100  1  0  0  0
 16 17  2  0  0  0
 16 21  1  0  0  0
 16 31  1  0  0  0
 17 18  1  0  0  0
 17101  1  0  0  0
 18 19  2  0  0  0
 18102  1  0  0  0
 19 20  1  0  0  0
 19 24  1  0  0  0
 20 21  2  0  0  0
 20103  1  0  0  0
 21 23  1  0  0  0
 22 28  1  0  0  0
 22 32  2  0  0  0
 26 27  1  0  0  0
 28104  1  0  0  0
 28105  1  0  0  0
 29106  1  0  0  0
 29107  1  0  0  0
 33 34  1  0  0  0
 33 66  1  0  0  0
 33 70  2  0  0  0
 34 36  1  0  0  0
 34 59  1  0  0  0
 34108  1  0  0  0
 35 44  2  0  0  0
 35 45  1  0  0  0
 35 68  1  0  0  0
 36 56  1  0  0  0
 36109  1  0  0  0
 37 39  1  0  0  0
 37 47  1  0  0  0
 37 66  1  0  0  0
 37110  1  0  0  0
 38 43  2  0  0  0
 38 46  1  0  0  0
 38 47  1  0  0  0
 39 64  1  0  0  0
 39 67  2  0  0  0
 40 52  1  0  0  0
 40 53  2  0  0  0
 40 58  1  0  0  0
 41111  1  0  0  0
 41112  1  0  0  0
 41113  1  0  0  0
 41 48  1  0  0  0
 42 43  1  0  0  0
 42 66  1  0  0  0
 42114  1  0  0  0
 42115  1  0  0  0
 43 44  1  0  0  0
 44116  1  0  0  0
 45 46  2  0  0  0
 45117  1  0  0  0
 46118  1  0  0  0
 47119  1  0  0  0
 47120  1  0  0  0
 48 56  1  0  0  0
 48 65  1  0  0  0
 48121  1  0  0  0
 49 50  1  0  0  0
 49 53  1  0  0  0
 49 64  1  0  0  0
 49122  1  0  0  0
 50 51  1  0  0  0
 50123  1  0  0  0
 50124  1  0  0  0
 51 52  1  0  0  0
 51125  1  0  0  0
 51126  1  0  0  0
 52127  1  0  0  0
 52128  1  0  0  0
 53 54  1  0  0  0
 54 55  2  0  0  0
 54129  1  0  0  0
 55 57  1  0  0  0
 55130  1  0  0  0
 56 69  2  0  0  0
 57 58  2  0  0  0
 57131  1  0  0  0
 58132  1  0  0  0
 59 60  1  0  0  0
 59 61  1  0  0  0
 59 62  1  0  0  0
 60133  1  0  0  0
 60134  1  0  0  0
 60135  1  0  0  0
 61136  1  0  0  0
 61137  1  0  0  0
 61138  1  0  0  0
 62139  1  0  0  0
 62140  1  0  0  0
 62141  1  0  0  0
 63 65  1  0  0  0
 63142  1  0  0  0
 63143  1  0  0  0
 63144  1  0  0  0
 64145  1  0  0  0
 65146  1  0  0  0
 68 81  1  0  0  0
 71 73  2  0  0  0
 71 74  1  0  0  0
 71147  1  0  0  0
 72 73  1  0  0  0
 72 75  2  0  0  0
 72148  1  0  0  0
 73 77  1  0  0  0
 74 76  2  0  0  0
 74 79  1  0  0  0
 75 76  1  0  0  0
 75 86  1  0  0  0
 76 87  1  0  0  0
 77 83  2  0  0  0
 78 86  1  0  0  0
 78149  1  0  0  0
 78150  1  0  0  0
 78151  1  0  0  0
 79 84  1  0  0  0
 79152  1  0  0  0
 79153  1  0  0  0
 80 81  1  0  0  0
 80 82  1  0  0  0
 80154  1  0  0  0
 80155  1  0  0  0
 81156  1  0  0  0
 81157  1  0  0  0
 82 87  1  0  0  0
 82158  1  0  0  0
 82159  1  0  0  0
 83160  1  0  0  0
 84 85  2  0  0  0
M  ISO  4   1 100  68 101  77 100  81 101
M  END
> <chiral flag>
0

> <version>
0

> <s_m_source_file>
/data/baiqing/PycharmProjects/Reinvent-master-3.2/result/LINK_invent/BTK/process_docking_weight1_custom_product_contain_oxygen_bond_distance_aromatic_linkinvent_7_9_3/rearranged_h_0111.sdf

> <i_m_source_file_index>
9

> <r_mmod_Potential_Energy-OPLS-2005>
238.420928955078

> <r_mmod_Stretch_Energy-OPLS-2005>
87.058464050293

> <r_mmod_Bend_Energy-OPLS-2005>
171.761322021484

> <r_mmod_Torsional_Energy-OPLS-2005>
243.770874023438

> <r_mmod_Improper_Torsional_Energy-OPLS-2005>
2.70116448402405

> <r_mmod_Van_der_Waal_Energy-OPLS-2005>
151.005096435547

> <r_mmod_Electrostatic_Energy-OPLS-2005>
-231.507095336914

> <r_mmod_Solvation_Energy-OPLS-2005>
-222.3876953125

> <b_mmod_Minimization_Converged-OPLS-2005>
0

> <r_mmod_RMS_Derivative-OPLS-2005>
1.325892329216

$$$$
9
                    3D
 Structure written by MMmdl.
166174  0  0  1  0            999 V2000
  -30.5848  -14.9289   20.5194 C   0  0  0  0  0  0
  -30.4399  -12.5848   19.5170 C   0  0  0  0  0  0
  -29.5320  -12.5588   18.2667 C   0  0  0  0  0  0
  -28.0644  -12.3388   18.6767 C   0  0  0  0  0  0
  -27.6395  -13.2529   19.8542 C   0  0  2  0  0  0
  -28.6758  -13.2483   20.9970 C   0  0  0  0  0  0
  -25.2502  -13.8219   20.5726 C   0  0  0  0  0  0
  -24.1794  -13.0447   20.9202 C   0  0  0  0  0  0
  -24.6424  -11.6935   20.8725 C   0  0  0  0  0  0
  -23.9102  -10.4302   21.0388 C   0  0  0  0  0  0
  -24.3646   -9.4226   21.9172 C   0  0  0  0  0  0
  -23.6324   -8.2257   22.0747 C   0  0  0  0  0  0
  -22.4297   -8.0288   21.3553 C   0  0  0  0  0  0
  -21.9931   -9.0256   20.4647 C   0  0  0  0  0  0
  -22.7268  -10.2138   20.3057 C   0  0  0  0  0  0
  -21.6860   -6.0734   22.5276 C   0  0  0  0  0  0
  -21.4019   -6.5636   23.8209 C   0  0  0  0  0  0
  -21.3684   -5.6785   24.9166 C   0  0  0  0  0  0
  -21.6051   -4.3048   24.7208 C   0  0  0  0  0  0
  -21.8834   -3.8149   23.4334 C   0  0  0  0  0  0
  -21.9204   -4.6963   22.3401 C   0  0  0  0  0  0
  -22.7823  -13.5212   21.1874 C   0  0  0  0  0  0
  -22.1673   -4.2162   21.0982 F   0  0  0  0  0  0
  -21.5636   -3.4545   25.7724 F   0  0  0  0  0  0
  -29.9677  -13.6708   20.4304 N   0  0  0  0  0  0
  -26.2940  -12.9458   20.3290 N   0  0  0  0  0  0
  -25.9363  -11.6574   20.5724 N   0  0  0  0  0  0
  -22.0488  -12.8176   22.0424 N   0  0  0  0  0  0
  -25.4208  -15.1934   20.4222 N   0  0  0  0  0  0
  -31.6974  -15.0362   19.9912 O   0  0  0  0  0  0
  -21.6655   -6.8886   21.4249 O   0  0  0  0  0  0
  -22.3507  -14.5521   20.6746 O   0  0  0  0  0  0
  -24.6453  -31.8421   23.1858 C   0  0  0  0  0  0
  -25.9227  -32.4675   23.8237 C   0  0  1  0  0  0
  -27.2287  -27.1337   20.1544 C   0  0  0  0  0  0
  -25.5939  -33.8482   24.2180 N   0  0  0  0  0  0
  -23.4483  -30.4585   21.5339 C   0  0  2  0  0  0
  -24.9009  -28.8793   20.1175 C   0  0  0  0  0  0
  -22.7570  -29.4532   22.4884 C   0  0  0  0  0  0
  -18.0299  -28.1369   22.8478 C   0  0  0  0  0  0
  -24.1505  -36.7255   23.2643 C   0  0  0  0  0  0
  -26.0042  -30.7121   21.3857 C   0  0  0  0  0  0
  -26.0788  -29.3221   20.7328 C   0  0  0  0  0  0
  -27.2456  -28.4681   20.7314 C   0  0  0  0  0  0
  -26.0303  -26.8000   19.4879 C   0  0  0  0  0  0
  -24.8885  -27.6295   19.4802 C   0  0  0  0  0  0
  -23.6750  -29.7794   20.1573 C   0  0  0  0  0  0
  -25.4135  -36.3013   24.0305 C   0  0  1  0  0  0
  -20.5917  -28.3707   23.1236 C   0  0  2  0  0  0
  -20.6785  -26.9409   22.5402 C   0  0  0  0  0  0
  -19.5762  -26.6367   21.5198 C   0  0  0  0  0  0
  -18.1944  -26.7916   22.1613 C   0  0  0  0  0  0
  -19.1558  -28.8853   23.2846 C   0  0  0  0  0  0
  -18.9482  -30.1453   23.8874 C   0  0  0  0  0  0
  -17.6481  -30.6579   24.0543 C   0  0  0  0  0  0
  -25.9085  -34.9384   23.5064 C   0  0  0  0  0  0
  -16.5367  -29.9069   23.6340 C   0  0  0  0  0  0
  -16.7284  -28.6481   23.0365 C   0  0  0  0  0  0
  -26.4526  -31.6529   25.0681 C   0  0  0  0  0  0
  -25.3713  -31.3692   26.1378 C   0  0  0  0  0  0
  -27.0385  -30.2929   24.6261 C   0  0  0  0  0  0
  -27.6071  -32.4268   25.7453 C   0  0  0  0  0  0
  -27.5588  -37.1773   24.8470 C   0  0  0  0  0  0
  -21.4265  -29.3044   22.3617 N   0  0  0  0  0  0
  -26.4305  -37.3722   23.9406 N   0  0  0  0  0  0
  -24.7188  -31.0252   22.0902 N   0  0  0  0  0  0
  -23.4193  -28.8122   23.3082 O   0  0  0  0  0  0
  -28.2881  -26.1509   20.1530 O   0  0  0  0  0  0
  -26.5665  -34.8874   22.4641 O   0  0  0  0  0  0
  -23.5572  -32.1303   23.7056 O   0  0  0  0  0  0
  -28.9994  -19.8449   22.0206 C   0  0  0  0  0  0
  -29.6572  -19.7542   19.7951 C   0  0  0  0  0  0
  -29.2344  -18.4229   22.2089 C   0  0  0  0  0  0
  -29.1779  -20.6191   20.8437 C   0  0  0  0  0  0
  -29.7609  -17.5243   21.1592 C   0  0  0  0  0  0
  -29.9184  -18.3108   19.9366 C   0  0  0  0  0  0
  -28.7907  -23.3245   20.1789 C   0  0  0  0  0  0
  -29.2892  -19.6971   25.4044 C   0  0  0  0  0  0
  -31.6777  -16.0908   23.3078 C   0  0  0  0  0  0
  -26.7706  -24.4627   21.3789 C   0  0  0  0  0  0
  -28.8000  -17.9025   23.5986 C   0  0  0  0  0  0
  -28.2207  -18.8584   24.6716 C   0  0  0  0  0  0
  -30.3790  -15.4891   22.7276 C   0  0  0  0  0  0
  -28.1776  -24.7398   20.8228 C   0  0  2  0  0  0
  -28.7948  -22.1136   20.9230 N   0  0  0  0  0  0
  -30.0727  -15.9766   21.3530 N   0  0  0  0  0  0
  -29.2493  -23.3525   19.0348 O   0  0  0  0  0  0
  -30.4316  -17.5209   18.4890 Cl  0  0  0  0  0  0
  -31.4828  -12.7246   19.2265 H   0  0  0  0  0  0
  -30.4062  -11.6187   20.0245 H   0  0  0  0  0  0
  -29.8484  -11.7704   17.5851 H   0  0  0  0  0  0
  -29.6347  -13.4988   17.7204 H   0  0  0  0  0  0
  -27.9594  -11.2942   18.9703 H   0  0  0  0  0  0
  -27.4027  -12.4881   17.8235 H   0  0  0  0  0  0
  -27.6143  -14.2661   19.4531 H   0  0  0  0  0  0
  -28.7518  -12.2594   21.4524 H   0  0  0  0  0  0
  -28.3528  -13.9215   21.7902 H   0  0  0  0  0  0
  -25.2809   -9.5686   22.4728 H   0  0  0  0  0  0
  -24.0047   -7.4640   22.7458 H   0  0  0  0  0  0
  -21.0867   -8.8798   19.8930 H   0  0  0  0  0  0
  -22.3751  -10.9687   19.6162 H   0  0  0  0  0  0
  -21.2008   -7.6137   23.9707 H   0  0  0  0  0  0
  -21.1492   -6.0510   25.9064 H   0  0  0  0  0  0
  -22.0589   -2.7614   23.2828 H   0  0  0  0  0  0
  -22.4160  -11.9872   22.4825 H   0  0  0  0  0  0
  -21.1103  -13.1184   22.2633 H   0  0  0  0  0  0
  -24.6589  -15.8506   20.5457 H   0  0  0  0  0  0
  -26.2820  -15.6368   20.1284 H   0  0  0  0  0  0
  -26.7275  -32.5316   23.0947 H   0  0  0  0  0  0
  -25.0041  -33.9589   25.0292 H   0  0  0  0  0  0
  -22.7525  -31.2862   21.3770 H   0  0  0  0  0  0
  -23.3757  -35.9595   23.3273 H   0  0  0  0  0  0
  -24.3650  -36.8924   22.2074 H   0  0  0  0  0  0
  -23.7238  -37.6430   23.6711 H   0  0  0  0  0  0
  -26.1592  -31.4619   20.6075 H   0  0  0  0  0  0
  -26.8738  -30.7610   22.0290 H   0  0  0  0  0  0
  -28.1482  -28.8088   21.2183 H   0  0  0  0  0  0
  -25.9631  -25.8472   18.9816 H   0  0  0  0  0  0
  -23.9927  -27.2866   18.9829 H   0  0  0  0  0  0
  -23.8049  -30.5501   19.3966 H   0  0  0  0  0  0
  -22.7902  -29.2191   19.8510 H   0  0  0  0  0  0
  -25.1310  -36.1838   25.0786 H   0  0  0  0  0  0
  -20.9984  -28.3275   24.1364 H   0  0  0  0  0  0
  -20.5666  -26.2310   23.3616 H   0  0  0  0  0  0
  -21.6661  -26.7414   22.1210 H   0  0  0  0  0  0
  -19.6937  -25.6276   21.1237 H   0  0  0  0  0  0
  -19.6705  -27.3164   20.6710 H   0  0  0  0  0  0
  -17.4218  -26.6646   21.4015 H   0  0  0  0  0  0
  -18.0369  -26.0055   22.9006 H   0  0  0  0  0  0
  -19.7963  -30.7256   24.2246 H   0  0  0  0  0  0
  -17.5038  -31.6275   24.5124 H   0  0  0  0  0  0
  -15.5373  -30.2943   23.7690 H   0  0  0  0  0  0
  -15.8684  -28.0771   22.7103 H   0  0  0  0  0  0
  -24.5934  -30.6986   25.7702 H   0  0  0  0  0  0
  -24.8852  -32.2848   26.4764 H   0  0  0  0  0  0
  -25.8013  -30.8913   27.0191 H   0  0  0  0  0  0
  -26.2989  -29.6636   24.1306 H   0  0  0  0  0  0
  -27.4018  -29.7244   25.4831 H   0  0  0  0  0  0
  -27.8878  -30.4165   23.9545 H   0  0  0  0  0  0
  -27.2710  -33.3616   26.1943 H   0  0  0  0  0  0
  -28.3909  -32.6731   25.0280 H   0  0  0  0  0  0
  -28.0677  -31.8430   26.5431 H   0  0  0  0  0  0
  -28.2555  -38.0115   24.7547 H   0  0  0  0  0  0
  -28.1111  -36.2637   24.6240 H   0  0  0  0  0  0
  -27.2327  -37.1348   25.8877 H   0  0  0  0  0  0
  -20.9484  -29.8735   21.6775 H   0  0  0  0  0  0
  -26.0160  -38.2784   24.1406 H   0  0  0  0  0  0
  -28.6229  -20.4300   22.8410 H   0  0  0  0  0  0
  -29.8262  -20.1918   18.8213 H   0  0  0  0  0  0
  -28.8676  -20.2207   26.2635 H   0  0  0  0  0  0
  -29.7534  -20.4411   24.7586 H   0  0  0  0  0  0
  -30.0904  -19.0697   25.7950 H   0  0  0  0  0  0
  -31.8299  -15.7340   24.3264 H   0  0  0  0  0  0
  -31.6732  -17.1801   23.3325 H   0  0  0  0  0  0
  -32.5529  -15.7834   22.7317 H   0  0  0  0  0  0
  -26.7719  -23.6021   22.0473 H   0  0  0  0  0  0
  -26.0640  -24.2427   20.5794 H   0  0  0  0  0  0
  -26.3965  -25.3097   21.9543 H   0  0  0  0  0  0
  -29.6411  -17.4597   24.1147 H   0  0  0  0  0  0
  -28.0472  -17.1357   23.4219 H   0  0  0  0  0  0
  -27.4109  -19.4759   24.2800 H   0  0  0  0  0  0
  -27.7421  -18.2327   25.4271 H   0  0  0  0  0  0
  -29.5155  -15.5607   23.3769 H   0  0  0  0  0  0
  -30.5292  -14.4088   22.8040 H   0  0  0  0  0  0
  -28.8103  -24.8797   21.6996 H   0  0  0  0  0  0
  -28.3924  -22.3229   21.8278 H   0  0  0  0  0  0
  1 25  1  0  0  0
  1 30  2  0  0  0
  1 86  1  0  0  0
  2  3  1  0  0  0
  2 25  1  0  0  0
  2 89  1  0  0  0
  2 90  1  0  0  0
  3  4  1  0  0  0
  3 91  1  0  0  0
  3 92  1  0  0  0
  4  5  1  0  0  0
  4 93  1  0  0  0
  4 94  1  0  0  0
  5  6  1  0  0  0
  5 26  1  0  0  0
  5 95  1  0  0  0
  6 25  1  0  0  0
  6 96  1  0  0  0
  6 97  1  0  0  0
  7  8  2  0  0  0
  7 26  1  0  0  0
  7 29  1  0  0  0
  8  9  1  0  0  0
  8 22  1  0  0  0
  9 10  1  0  0  0
  9 27  2  0  0  0
 10 11  2  0  0  0
 10 15  1  0  0  0
 11 12  1  0  0  0
 11 98  1  0  0  0
 12 13  2  0  0  0
 12 99  1  0  0  0
 13 14  1  0  0  0
 13 31  1  0  0  0
 14 15  2  0  0  0
 14100  1  0  0  0
 15101  1  0  0  0
 16 17  2  0  0  0
 16 21  1  0  0  0
 16 31  1  0  0  0
 17 18  1  0  0  0
 17102  1  0  0  0
 18 19  2  0  0  0
 18103  1  0  0  0
 19 20  1  0  0  0
 19 24  1  0  0  0
 20 21  2  0  0  0
 20104  1  0  0  0
 21 23  1  0  0  0
 22 28  1  0  0  0
 22 32  2  0  0  0
 26 27  1  0  0  0
 28105  1  0  0  0
 28106  1  0  0  0
 29107  1  0  0  0
 29108  1  0  0  0
 33 34  1  0  0  0
 33 66  1  0  0  0
 33 70  2  0  0  0
 34 36  1  0  0  0
 34 59  1  0  0  0
 34109  1  0  0  0
 35 44  2  0  0  0
 35 45  1  0  0  0
 35 68  1  0  0  0
 36 56  1  0  0  0
 36110  1  0  0  0
 37 39  1  0  0  0
 37 47  1  0  0  0
 37 66  1  0  0  0
 37111  1  0  0  0
 38 43  2  0  0  0
 38 46  1  0  0  0
 38 47  1  0  0  0
 39 64  1  0  0  0
 39 67  2  0  0  0
 40 52  1  0  0  0
 40 53  2  0  0  0
 40 58  1  0  0  0
 41112  1  0  0  0
 41113  1  0  0  0
 41114  1  0  0  0
 41 48  1  0  0  0
 42 43  1  0  0  0
 42 66  1  0  0  0
 42115  1  0  0  0
 42116  1  0  0  0
 43 44  1  0  0  0
 44117  1  0  0  0
 45 46  2  0  0  0
 45118  1  0  0  0
 46119  1  0  0  0
 47120  1  0  0  0
 47121  1  0  0  0
 48 56  1  0  0  0
 48 65  1  0  0  0
 48122  1  0  0  0
 49 50  1  0  0  0
 49 53  1  0  0  0
 49 64  1  0  0  0
 49123  1  0  0  0
 50 51  1  0  0  0
 50124  1  0  0  0
 50125  1  0  0  0
 51 52  1  0  0  0
 51126  1  0  0  0
 51127  1  0  0  0
 52128  1  0  0  0
 52129  1  0  0  0
 53 54  1  0  0  0
 54 55  2  0  0  0
 54130  1  0  0  0
 55 57  1  0  0  0
 55131  1  0  0  0
 56 69  2  0  0  0
 57 58  2  0  0  0
 57132  1  0  0  0
 58133  1  0  0  0
 59 60  1  0  0  0
 59 61  1  0  0  0
 59 62  1  0  0  0
 60134  1  0  0  0
 60135  1  0  0  0
 60136  1  0  0  0
 61137  1  0  0  0
 61138  1  0  0  0
 61139  1  0  0  0
 62140  1  0  0  0
 62141  1  0  0  0
 62142  1  0  0  0
 63 65  1  0  0  0
 63143  1  0  0  0
 63144  1  0  0  0
 63145  1  0  0  0
 64146  1  0  0  0
 65147  1  0  0  0
 68 84  1  0  0  0
 71 73  2  0  0  0
 71 74  1  0  0  0
 71148  1  0  0  0
 72 74  2  0  0  0
 72 76  1  0  0  0
 72149  1  0  0  0
 73 75  1  0  0  0
 73 81  1  0  0  0
 74 85  1  0  0  0
 75 76  2  0  0  0
 75 86  1  0  0  0
 76 88  1  0  0  0
 77 84  1  0  0  0
 77 85  1  0  0  0
 77 87  2  0  0  0
 78 82  1  0  0  0
 78150  1  0  0  0
 78151  1  0  0  0
 78152  1  0  0  0
 79 83  1  0  0  0
 79153  1  0  0  0
 79154  1  0  0  0
 79155  1  0  0  0
 80156  1  0  0  0
 80157  1  0  0  0
 80158  1  0  0  0
 80 84  1  0  0  0
 81 82  1  0  0  0
 81159  1  0  0  0
 81160  1  0  0  0
 82161  1  0  0  0
 82162  1  0  0  0
 83 86  1  0  0  0
 83163  1  0  0  0
 83164  1  0  0  0
 84165  1  0  0  0
 85166  1  0  0  0
M  ISO  4   1 100  68 101  84 101  86 100
M  END
> <chiral flag>
0

> <version>
0

> <s_m_source_file>
/data/baiqing/PycharmProjects/Reinvent-master-3.2/result/LINK_invent/BTK/process_docking_weight1_custom_product_contain_oxygen_bond_distance_aromatic_linkinvent_7_9_3/rearranged_h_0111.sdf

> <i_m_source_file_index>
10

> <r_mmod_Potential_Energy-OPLS-2005>
799.909545898438

> <r_mmod_Stretch_Energy-OPLS-2005>
290.8525390625

> <r_mmod_Bend_Energy-OPLS-2005>
354.262756347656

> <r_mmod_Torsional_Energy-OPLS-2005>
317.724822998047

> <r_mmod_Improper_Torsional_Energy-OPLS-2005>
5.7308144569397

> <r_mmod_Van_der_Waal_Energy-OPLS-2005>
165.926467895508

> <r_mmod_Electrostatic_Energy-OPLS-2005>
-296.084259033203

> <r_mmod_Solvation_Energy-OPLS-2005>
-219.085983276367

> <b_mmod_Minimization_Converged-OPLS-2005>
0

> <r_mmod_RMS_Derivative-OPLS-2005>
3.85152983665466

$$$$
10
                    3D
 Structure written by MMmdl.
156165  0  0  1  0            999 V2000
  -30.5727  -14.7388   20.4750 C   0  0  0  0  0  0
  -30.4493  -12.4538   19.4598 C   0  0  0  0  0  0
  -29.5130  -12.5112   18.2303 C   0  0  0  0  0  0
  -28.0384  -12.3310   18.6459 C   0  0  0  0  0  0
  -27.6471  -13.2198   19.8557 C   0  0  2  0  0  0
  -28.6949  -13.1182   20.9864 C   0  0  0  0  0  0
  -25.2552  -13.8194   20.5684 C   0  0  0  0  0  0
  -24.1830  -13.0447   20.9201 C   0  0  0  0  0  0
  -24.6397  -11.6918   20.8745 C   0  0  0  0  0  0
  -23.9067  -10.4298   21.0410 C   0  0  0  0  0  0
  -24.3618   -9.4208   21.9185 C   0  0  0  0  0  0
  -23.6292   -8.2243   22.0753 C   0  0  0  0  0  0
  -22.4274   -8.0280   21.3543 C   0  0  0  0  0  0
  -21.9909   -9.0257   20.4647 C   0  0  0  0  0  0
  -22.7239  -10.2138   20.3059 C   0  0  0  0  0  0
  -21.6853   -6.0734   22.5279 C   0  0  0  0  0  0
  -21.4016   -6.5639   23.8212 C   0  0  0  0  0  0
  -21.3661   -5.6792   24.9174 C   0  0  0  0  0  0
  -21.6045   -4.3055   24.7226 C   0  0  0  0  0  0
  -21.8819   -3.8146   23.4347 C   0  0  0  0  0  0
  -21.9192   -4.6962   22.3403 C   0  0  0  0  0  0
  -22.7849  -13.5233   21.1864 C   0  0  0  0  0  0
  -22.1661   -4.2148   21.0980 F   0  0  0  0  0  0
  -21.5628   -3.4539   25.7738 F   0  0  0  0  0  0
  -29.9972  -13.4901   20.4123 N   0  0  0  0  0  0
  -26.2966  -12.9364   20.3292 N   0  0  0  0  0  0
  -25.9323  -11.6518   20.5757 N   0  0  0  0  0  0
  -22.0494  -12.8221   22.0420 N   0  0  0  0  0  0
  -25.4221  -15.1933   20.4103 N   0  0  0  0  0  0
  -31.7570  -14.9054   20.1676 O   0  0  0  0  0  0
  -21.6639   -6.8876   21.4240 O   0  0  0  0  0  0
  -22.3531  -14.5538   20.6714 O   0  0  0  0  0  0
  -24.6309  -31.8551   23.1983 C   0  0  0  0  0  0
  -25.9131  -32.4757   23.8335 C   0  0  1  0  0  0
  -27.2269  -27.2714   20.1348 C   0  0  0  0  0  0
  -25.5928  -33.8559   24.2260 N   0  0  0  0  0  0
  -23.4296  -30.4758   21.5410 C   0  0  2  0  0  0
  -24.8810  -28.9187   20.1169 C   0  0  0  0  0  0
  -22.7507  -29.4599   22.4915 C   0  0  0  0  0  0
  -18.0294  -28.1386   22.8484 C   0  0  0  0  0  0
  -24.1489  -36.7285   23.2640 C   0  0  0  0  0  0
  -25.9748  -30.7695   21.3794 C   0  0  0  0  0  0
  -26.0516  -29.3897   20.7284 C   0  0  0  0  0  0
  -27.2315  -28.5766   20.7305 C   0  0  0  0  0  0
  -26.0373  -26.8607   19.5035 C   0  0  0  0  0  0
  -24.8768  -27.6597   19.4954 C   0  0  0  0  0  0
  -23.6510  -29.8058   20.1593 C   0  0  0  0  0  0
  -25.4115  -36.3071   24.0327 C   0  0  1  0  0  0
  -20.5898  -28.3699   23.1268 C   0  0  2  0  0  0
  -20.6782  -26.9415   22.5408 C   0  0  0  0  0  0
  -19.5757  -26.6382   21.5212 C   0  0  0  0  0  0
  -18.1938  -26.7928   22.1624 C   0  0  0  0  0  0
  -19.1546  -28.8860   23.2870 C   0  0  0  0  0  0
  -18.9468  -30.1460   23.8891 C   0  0  0  0  0  0
  -17.6465  -30.6586   24.0562 C   0  0  0  0  0  0
  -25.9055  -34.9441   23.5096 C   0  0  0  0  0  0
  -16.5358  -29.9083   23.6331 C   0  0  0  0  0  0
  -16.7280  -28.6501   23.0353 C   0  0  0  0  0  0
  -26.4501  -31.6581   25.0722 C   0  0  0  0  0  0
  -25.3724  -31.3732   26.1442 C   0  0  0  0  0  0
  -27.0353  -30.2998   24.6209 C   0  0  0  0  0  0
  -27.6053  -32.4326   25.7496 C   0  0  0  0  0  0
  -27.5579  -37.1799   24.8465 C   0  0  0  0  0  0
  -21.4214  -29.3042   22.3655 N   0  0  0  0  0  0
  -26.4292  -37.3768   23.9407 N   0  0  0  0  0  0
  -24.6971  -31.0518   22.0960 N   0  0  0  0  0  0
  -23.4201  -28.8144   23.3021 O   0  0  0  0  0  0
  -28.2933  -26.3506   20.1067 O   0  0  0  0  0  0
  -26.5628  -34.8914   22.4666 O   0  0  0  0  0  0
  -23.5457  -32.1371   23.7276 O   0  0  0  0  0  0
  -28.6503  -19.4062   19.9062 C   0  0  0  0  0  0
  -30.6713  -18.0990   21.2900 C   0  0  0  0  0  0
  -28.7567  -17.9726   19.8638 C   0  0  0  0  0  0
  -29.7745  -17.2621   20.5701 C   0  0  0  0  0  0
  -29.5331  -20.1983   20.6929 C   0  0  0  0  0  0
  -28.6080  -23.9914   21.1654 C   0  0  0  0  0  0
  -28.3523  -25.3634   21.1146 C   0  0  0  0  0  0
  -28.7071  -23.3150   22.5175 C   0  0  0  0  0  0
  -28.8856  -22.8055   20.1664 C   0  0  0  0  0  0
  -29.5814  -22.0604   22.3301 C   0  0  0  0  0  0
  -30.5082  -19.4695   21.3294 N   0  3  0  0  0  0
  -29.4330  -21.6320   20.9460 N   0  0  0  0  0  0
  -27.8237  -17.2161   19.1438 N   0  0  0  0  0  0
  -29.6982  -15.7873   20.6725 N   0  0  0  0  0  0
  -31.4850  -12.6086   19.1522 H   0  0  0  0  0  0
  -30.4168  -11.4682   19.9268 H   0  0  0  0  0  0
  -29.7925  -11.7441   17.5068 H   0  0  0  0  0  0
  -29.6347  -13.4687   17.7217 H   0  0  0  0  0  0
  -27.8945  -11.2802   18.9003 H   0  0  0  0  0  0
  -27.3789  -12.5308   17.8007 H   0  0  0  0  0  0
  -27.6459  -14.2450   19.4877 H   0  0  0  0  0  0
  -28.7323  -12.1048   21.3893 H   0  0  0  0  0  0
  -28.4290  -13.7650   21.8246 H   0  0  0  0  0  0
  -25.2762   -9.5683   22.4760 H   0  0  0  0  0  0
  -23.9999   -7.4635   22.7473 H   0  0  0  0  0  0
  -21.0837   -8.8781   19.8955 H   0  0  0  0  0  0
  -22.3695  -10.9679   19.6172 H   0  0  0  0  0  0
  -21.2009   -7.6148   23.9717 H   0  0  0  0  0  0
  -21.1483   -6.0522   25.9078 H   0  0  0  0  0  0
  -22.0596   -2.7608   23.2850 H   0  0  0  0  0  0
  -22.4107  -11.9881   22.4806 H   0  0  0  0  0  0
  -21.1115  -13.1250   22.2635 H   0  0  0  0  0  0
  -24.6419  -15.8313   20.5202 H   0  0  0  0  0  0
  -26.2504  -15.6590   20.0515 H   0  0  0  0  0  0
  -26.7199  -32.5419   23.1082 H   0  0  0  0  0  0
  -25.0070  -33.9695   25.0402 H   0  0  0  0  0  0
  -22.7260  -31.2975   21.3919 H   0  0  0  0  0  0
  -23.3750  -35.9620   23.3304 H   0  0  0  0  0  0
  -24.3578  -36.8906   22.2055 H   0  0  0  0  0  0
  -23.7245  -37.6487   23.6664 H   0  0  0  0  0  0
  -26.1115  -31.5274   20.6068 H   0  0  0  0  0  0
  -26.8526  -30.8229   22.0117 H   0  0  0  0  0  0
  -28.1315  -28.9324   21.2124 H   0  0  0  0  0  0
  -26.0045  -25.8896   19.0300 H   0  0  0  0  0  0
  -23.9810  -27.2915   19.0144 H   0  0  0  0  0  0
  -23.7772  -30.5799   19.4016 H   0  0  0  0  0  0
  -22.7703  -29.2382   19.8536 H   0  0  0  0  0  0
  -25.1299  -36.1920   25.0821 H   0  0  0  0  0  0
  -20.9991  -28.3278   24.1388 H   0  0  0  0  0  0
  -20.5679  -26.2310   23.3614 H   0  0  0  0  0  0
  -21.6650  -26.7435   22.1205 H   0  0  0  0  0  0
  -19.6919  -25.6291   21.1245 H   0  0  0  0  0  0
  -19.6695  -27.3189   20.6739 H   0  0  0  0  0  0
  -17.4207  -26.6673   21.4028 H   0  0  0  0  0  0
  -18.0341  -26.0071   22.9022 H   0  0  0  0  0  0
  -19.7943  -30.7277   24.2259 H   0  0  0  0  0  0
  -17.5019  -31.6265   24.5165 H   0  0  0  0  0  0
  -15.5357  -30.2982   23.7656 H   0  0  0  0  0  0
  -15.8682  -28.0815   22.7072 H   0  0  0  0  0  0
  -24.5900  -30.7081   25.7768 H   0  0  0  0  0  0
  -24.8916  -32.2902   26.4858 H   0  0  0  0  0  0
  -25.8040  -30.8913   27.0224 H   0  0  0  0  0  0
  -26.2940  -29.6741   24.1223 H   0  0  0  0  0  0
  -27.4023  -29.7264   25.4732 H   0  0  0  0  0  0
  -27.8822  -30.4272   23.9463 H   0  0  0  0  0  0
  -27.2656  -33.3629   26.2063 H   0  0  0  0  0  0
  -28.3868  -32.6884   25.0329 H   0  0  0  0  0  0
  -28.0716  -31.8460   26.5422 H   0  0  0  0  0  0
  -28.2598  -38.0094   24.7503 H   0  0  0  0  0  0
  -28.1072  -36.2623   24.6303 H   0  0  0  0  0  0
  -27.2295  -37.1462   25.8868 H   0  0  0  0  0  0
  -20.9405  -29.8758   21.6850 H   0  0  0  0  0  0
  -26.0171  -38.2844   24.1401 H   0  0  0  0  0  0
  -27.8474  -19.9010   19.3832 H   0  0  0  0  0  0
  -31.4739  -17.7038   21.8998 H   0  0  0  0  0  0
  -28.2032  -25.8621   22.0631 H   0  0  0  0  0  0
  -27.7018  -23.0157   22.8167 H   0  0  0  0  0  0
  -29.0993  -23.9766   23.2911 H   0  0  0  0  0  0
  -29.5919  -23.1181   19.3974 H   0  0  0  0  0  0
  -27.9568  -22.5179   19.6739 H   0  0  0  0  0  0
  -29.2952  -21.2766   23.0330 H   0  0  0  0  0  0
  -30.6307  -22.2991   22.5073 H   0  0  0  0  0  0
  -31.1725  -19.9927   21.9064 H   0  0  0  0  0  0
  -27.2704  -17.7460   18.4825 H   0  0  0  0  0  0
  -28.2399  -16.4185   18.6820 H   0  0  0  0  0  0
  -28.7461  -15.4658   20.7477 H   0  0  0  0  0  0
  1 25  1  0  0  0
  1 30  2  0  0  0
  1 84  1  0  0  0
  2  3  1  0  0  0
  2 25  1  0  0  0
  2 85  1  0  0  0
  2 86  1  0  0  0
  3  4  1  0  0  0
  3 87  1  0  0  0
  3 88  1  0  0  0
  4  5  1  0  0  0
  4 89  1  0  0  0
  4 90  1  0  0  0
  5  6  1  0  0  0
  5 26  1  0  0  0
  5 91  1  0  0  0
  6 25  1  0  0  0
  6 92  1  0  0  0
  6 93  1  0  0  0
  7  8  2  0  0  0
  7 26  1  0  0  0
  7 29  1  0  0  0
  8  9  1  0  0  0
  8 22  1  0  0  0
  9 10  1  0  0  0
  9 27  2  0  0  0
 10 11  2  0  0  0
 10 15  1  0  0  0
 11 12  1  0  0  0
 11 94  1  0  0  0
 12 13  2  0  0  0
 12 95  1  0  0  0
 13 14  1  0  0  0
 13 31  1  0  0  0
 14 15  2  0  0  0
 14 96  1  0  0  0
 15 97  1  0  0  0
 16 17  2  0  0  0
 16 21  1  0  0  0
 16 31  1  0  0  0
 17 18  1  0  0  0
 17 98  1  0  0  0
 18 19  2  0  0  0
 18 99  1  0  0  0
 19 20  1  0  0  0
 19 24  1  0  0  0
 20 21  2  0  0  0
 20100  1  0  0  0
 21 23  1  0  0  0
 22 28  1  0  0  0
 22 32  2  0  0  0
 26 27  1  0  0  0
 28101  1  0  0  0
 28102  1  0  0  0
 29103  1  0  0  0
 29104  1  0  0  0
 33 34  1  0  0  0
 33 66  1  0  0  0
 33 70  2  0  0  0
 34 36  1  0  0  0
 34 59  1  0  0  0
 34105  1  0  0  0
 35 44  2  0  0  0
 35 45  1  0  0  0
 35 68  1  0  0  0
 36 56  1  0  0  0
 36106  1  0  0  0
 37 39  1  0  0  0
 37 47  1  0  0  0
 37 66  1  0  0  0
 37107  1  0  0  0
 38 43  2  0  0  0
 38 46  1  0  0  0
 38 47  1  0  0  0
 39 64  1  0  0  0
 39 67  2  0  0  0
 40 52  1  0  0  0
 40 53  2  0  0  0
 40 58  1  0  0  0
 41108  1  0  0  0
 41109  1  0  0  0
 41110  1  0  0  0
 41 48  1  0  0  0
 42 43  1  0  0  0
 42 66  1  0  0  0
 42111  1  0  0  0
 42112  1  0  0  0
 43 44  1  0  0  0
 44113  1  0  0  0
 45 46  2  0  0  0
 45114  1  0  0  0
 46115  1  0  0  0
 47116  1  0  0  0
 47117  1  0  0  0
 48 56  1  0  0  0
 48 65  1  0  0  0
 48118  1  0  0  0
 49 50  1  0  0  0
 49 53  1  0  0  0
 49 64  1  0  0  0
 49119  1  0  0  0
 50 51  1  0  0  0
 50120  1  0  0  0
 50121  1  0  0  0
 51 52  1  0  0  0
 51122  1  0  0  0
 51123  1  0  0  0
 52124  1  0  0  0
 52125  1  0  0  0
 53 54  1  0  0  0
 54 55  2  0  0  0
 54126  1  0  0  0
 55 57  1  0  0  0
 55127  1  0  0  0
 56 69  2  0  0  0
 57 58  2  0  0  0
 57128  1  0  0  0
 58129  1  0  0  0
 59 60  1  0  0  0
 59 61  1  0  0  0
 59 62  1  0  0  0
 60130  1  0  0  0
 60131  1  0  0  0
 60132  1  0  0  0
 61133  1  0  0  0
 61134  1  0  0  0
 61135  1  0  0  0
 62136  1  0  0  0
 62137  1  0  0  0
 62138  1  0  0  0
 63 65  1  0  0  0
 63139  1  0  0  0
 63140  1  0  0  0
 63141  1  0  0  0
 64142  1  0  0  0
 65143  1  0  0  0
 68 77  1  0  0  0
 71 73  2  0  0  0
 71 75  1  0  0  0
 71144  1  0  0  0
 72 74  2  0  0  0
 72 81  1  0  0  0
 72145  1  0  0  0
 73 74  1  0  0  0
 73 83  1  0  0  0
 74 84  1  0  0  0
 75 81  2  0  0  0
 75 82  1  0  0  0
 76 77  2  0  0  0
 76 78  1  0  0  0
 76 79  1  0  0  0
 77146  1  0  0  0
 78 80  1  0  0  0
 78147  1  0  0  0
 78148  1  0  0  0
 79 82  1  0  0  0
 79149  1  0  0  0
 79150  1  0  0  0
 80 82  1  0  0  0
 80151  1  0  0  0
 80152  1  0  0  0
 81153  1  0  0  0
 83154  1  0  0  0
 83155  1  0  0  0
 84156  1  0  0  0
M  CHG  1  81   1
M  ISO  4   1 100  68 101  77 101  84 100
M  END
> <chiral flag>
0

> <version>
0

> <s_m_source_file>
/data/baiqing/PycharmProjects/Reinvent-master-3.2/result/LINK_invent/BTK/process_docking_weight1_custom_product_contain_oxygen_bond_distance_aromatic_linkinvent_7_9_3/rearranged_h_0111.sdf

> <i_m_source_file_index>
11

> <r_mmod_Potential_Energy-OPLS-2005>
28.1525764465332

> <r_mmod_Stretch_Energy-OPLS-2005>
99.3509292602539

> <r_mmod_Bend_Energy-OPLS-2005>
243.808898925781

> <r_mmod_Torsional_Energy-OPLS-2005>
274.906066894531

> <r_mmod_Improper_Torsional_Energy-OPLS-2005>
13.171558380127

> <r_mmod_Van_der_Waal_Energy-OPLS-2005>
131.905868530273

> <r_mmod_Electrostatic_Energy-OPLS-2005>
-409.04736328125

> <r_mmod_Solvation_Energy-OPLS-2005>
-409.562561035156

> <b_mmod_Minimization_Converged-OPLS-2005>
0

> <r_mmod_RMS_Derivative-OPLS-2005>
0.453264236450195

$$$$
11
                    3D
 Structure written by MMmdl.
160168  0  0  1  0            999 V2000
  -30.6099  -14.7251   20.3741 C   0  0  0  0  0  0
  -30.4423  -12.4078   19.4764 C   0  0  0  0  0  0
  -29.5118  -12.3764   18.2406 C   0  0  0  0  0  0
  -28.0334  -12.2542   18.6626 C   0  0  0  0  0  0
  -27.6339  -13.2025   19.8248 C   0  0  2  0  0  0
  -28.6833  -13.1821   20.9534 C   0  0  0  0  0  0
  -25.2559  -13.8131   20.5712 C   0  0  0  0  0  0
  -24.1806  -13.0419   20.9209 C   0  0  0  0  0  0
  -24.6352  -11.6892   20.8768 C   0  0  0  0  0  0
  -23.9024  -10.4279   21.0432 C   0  0  0  0  0  0
  -24.3591   -9.4191   21.9192 C   0  0  0  0  0  0
  -23.6272   -8.2220   22.0760 C   0  0  0  0  0  0
  -22.4254   -8.0268   21.3539 C   0  0  0  0  0  0
  -21.9883   -9.0239   20.4644 C   0  0  0  0  0  0
  -22.7211  -10.2122   20.3063 C   0  0  0  0  0  0
  -21.6844   -6.0728   22.5288 C   0  0  0  0  0  0
  -21.4003   -6.5637   23.8217 C   0  0  0  0  0  0
  -21.3662   -5.6789   24.9181 C   0  0  0  0  0  0
  -21.6041   -4.3052   24.7228 C   0  0  0  0  0  0
  -21.8828   -3.8144   23.4350 C   0  0  0  0  0  0
  -21.9186   -4.6955   22.3406 C   0  0  0  0  0  0
  -22.7841  -13.5239   21.1872 C   0  0  0  0  0  0
  -22.1665   -4.2144   21.0983 F   0  0  0  0  0  0
  -21.5627   -3.4541   25.7740 F   0  0  0  0  0  0
  -29.9888  -13.4983   20.3607 N   0  0  0  0  0  0
  -26.2911  -12.9263   20.3209 N   0  0  0  0  0  0
  -25.9263  -11.6449   20.5772 N   0  0  0  0  0  0
  -22.0465  -12.8221   22.0418 N   0  0  0  0  0  0
  -25.4343  -15.1835   20.4234 N   0  0  0  0  0  0
  -31.8414  -14.8012   20.3383 O   0  0  0  0  0  0
  -21.6628   -6.8864   21.4240 O   0  0  0  0  0  0
  -22.3539  -14.5555   20.6733 O   0  0  0  0  0  0
  -24.6212  -31.8603   23.2025 C   0  0  0  0  0  0
  -25.9082  -32.4772   23.8342 C   0  0  1  0  0  0
  -27.2351  -27.3299   20.1434 C   0  0  0  0  0  0
  -25.5919  -33.8567   24.2283 N   0  0  0  0  0  0
  -23.4166  -30.4783   21.5437 C   0  0  2  0  0  0
  -24.8675  -28.9210   20.1238 C   0  0  0  0  0  0
  -22.7451  -29.4630   22.4974 C   0  0  0  0  0  0
  -18.0282  -28.1379   22.8464 C   0  0  0  0  0  0
  -24.1491  -36.7285   23.2646 C   0  0  0  0  0  0
  -25.9546  -30.7951   21.3702 C   0  0  0  0  0  0
  -26.0329  -29.4190   20.7214 C   0  0  0  0  0  0
  -27.2213  -28.6361   20.7158 C   0  0  0  0  0  0
  -26.0502  -26.8641   19.5399 C   0  0  0  0  0  0
  -24.8769  -27.6468   19.5275 C   0  0  0  0  0  0
  -23.6334  -29.8011   20.1632 C   0  0  0  0  0  0
  -25.4113  -36.3064   24.0330 C   0  0  1  0  0  0
  -20.5875  -28.3690   23.1288 C   0  0  2  0  0  0
  -20.6774  -26.9429   22.5406 C   0  0  0  0  0  0
  -19.5766  -26.6396   21.5190 C   0  0  0  0  0  0
  -18.1937  -26.7933   22.1596 C   0  0  0  0  0  0
  -19.1526  -28.8854   23.2866 C   0  0  0  0  0  0
  -18.9470  -30.1457   23.8885 C   0  0  0  0  0  0
  -17.6481  -30.6591   24.0557 C   0  0  0  0  0  0
  -25.9057  -34.9436   23.5110 C   0  0  0  0  0  0
  -16.5364  -29.9075   23.6354 C   0  0  0  0  0  0
  -16.7275  -28.6496   23.0353 C   0  0  0  0  0  0
  -26.4492  -31.6568   25.0694 C   0  0  0  0  0  0
  -25.3758  -31.3670   26.1444 C   0  0  0  0  0  0
  -27.0366  -30.2995   24.6135 C   0  0  0  0  0  0
  -27.6049  -32.4303   25.7448 C   0  0  0  0  0  0
  -27.5575  -37.1774   24.8467 C   0  0  0  0  0  0
  -21.4172  -29.3038   22.3685 N   0  0  0  0  0  0
  -26.4288  -37.3754   23.9418 N   0  0  0  0  0  0
  -24.6825  -31.0622   22.0959 N   0  0  0  0  0  0
  -23.4155  -28.8203   23.3090 O   0  0  0  0  0  0
  -28.3801  -26.5323   20.1176 O   0  0  0  0  0  0
  -26.5646  -34.8896   22.4676 O   0  0  0  0  0  0
  -23.5386  -32.1403   23.7355 O   0  0  0  0  0  0
  -28.3716  -19.5411   19.8038 C   0  0  0  0  0  0
  -30.2496  -17.9962   21.1382 C   0  0  0  0  0  0
  -28.5035  -18.1537   19.4925 C   0  0  0  0  0  0
  -29.5148  -17.3250   20.1175 C   0  0  0  0  0  0
  -30.0563  -19.3713   21.5033 C   0  0  0  0  0  0
  -29.1328  -20.2050   20.7835 C   0  0  0  0  0  0
  -27.0062  -18.3486   17.4648 C   0  0  0  0  0  0
  -27.5491  -17.6458   18.4761 C   0  0  0  0  0  0
  -29.8433  -15.8811   19.6009 C   0  0  0  0  0  0
  -30.4749  -20.9989   23.2495 C   0  0  0  0  0  0
  -28.2999  -23.8885   19.8601 C   0  0  0  0  0  0
  -28.3742  -25.1998   20.7569 C   0  0  0  0  0  0
  -29.2330  -22.6137   20.1354 C   0  0  0  0  0  0
  -29.5872  -15.6358   18.3836 N   0  0  0  0  0  0
  -30.8253  -19.7983   22.5677 O   0  0  0  0  0  0
  -28.8419  -21.5595   21.0736 O   0  0  0  0  0  0
  -31.4820  -12.5376   19.1691 H   0  0  0  0  0  0
  -30.4010  -11.4586   20.0144 H   0  0  0  0  0  0
  -29.7775  -11.5218   17.6176 H   0  0  0  0  0  0
  -29.6623  -13.2461   17.6078 H   0  0  0  0  0  0
  -27.8898  -11.2218   18.9814 H   0  0  0  0  0  0
  -27.3750  -12.3948   17.8056 H   0  0  0  0  0  0
  -27.6032  -14.2009   19.3987 H   0  0  0  0  0  0
  -28.7159  -12.2031   21.4352 H   0  0  0  0  0  0
  -28.4271  -13.9036   21.7307 H   0  0  0  0  0  0
  -25.2740   -9.5673   22.4764 H   0  0  0  0  0  0
  -23.9996   -7.4609   22.7475 H   0  0  0  0  0  0
  -21.0820   -8.8754   19.8940 H   0  0  0  0  0  0
  -22.3675  -10.9663   19.6180 H   0  0  0  0  0  0
  -21.2004   -7.6149   23.9717 H   0  0  0  0  0  0
  -21.1472   -6.0522   25.9079 H   0  0  0  0  0  0
  -22.0601   -2.7608   23.2850 H   0  0  0  0  0  0
  -22.4079  -11.9882   22.4806 H   0  0  0  0  0  0
  -21.1089  -13.1256   22.2646 H   0  0  0  0  0  0
  -24.6773  -15.8441   20.5593 H   0  0  0  0  0  0
  -26.3063  -15.6239   20.1619 H   0  0  0  0  0  0
  -26.7133  -32.5452   23.1078 H   0  0  0  0  0  0
  -25.0012  -33.9696   25.0389 H   0  0  0  0  0  0
  -22.7112  -31.2981   21.3932 H   0  0  0  0  0  0
  -23.3737  -35.9634   23.3309 H   0  0  0  0  0  0
  -24.3590  -36.8919   22.2068 H   0  0  0  0  0  0
  -23.7267  -37.6484   23.6684 H   0  0  0  0  0  0
  -26.0875  -31.5549   20.5992 H   0  0  0  0  0  0
  -26.8350  -30.8493   22.0000 H   0  0  0  0  0  0
  -28.1219  -29.0207   21.1764 H   0  0  0  0  0  0
  -26.0369  -25.8868   19.0802 H   0  0  0  0  0  0
  -23.9812  -27.2542   19.0672 H   0  0  0  0  0  0
  -23.7503  -30.5707   19.3991 H   0  0  0  0  0  0
  -22.7540  -29.2235   19.8683 H   0  0  0  0  0  0
  -25.1283  -36.1912   25.0819 H   0  0  0  0  0  0
  -20.9958  -28.3276   24.1403 H   0  0  0  0  0  0
  -20.5694  -26.2315   23.3598 H   0  0  0  0  0  0
  -21.6651  -26.7475   22.1218 H   0  0  0  0  0  0
  -19.6967  -25.6309   21.1219 H   0  0  0  0  0  0
  -19.6711  -27.3205   20.6722 H   0  0  0  0  0  0
  -17.4225  -26.6675   21.3979 H   0  0  0  0  0  0
  -18.0347  -26.0059   22.8979 H   0  0  0  0  0  0
  -19.7957  -30.7246   24.2256 H   0  0  0  0  0  0
  -17.5047  -31.6279   24.5140 H   0  0  0  0  0  0
  -15.5366  -30.2970   23.7708 H   0  0  0  0  0  0
  -15.8663  -28.0807   22.7084 H   0  0  0  0  0  0
  -24.5984  -30.6940   25.7811 H   0  0  0  0  0  0
  -24.8865  -32.2789   26.4839 H   0  0  0  0  0  0
  -25.8129  -30.8913   27.0233 H   0  0  0  0  0  0
  -26.2943  -29.6687   24.1229 H   0  0  0  0  0  0
  -27.4175  -29.7293   25.4619 H   0  0  0  0  0  0
  -27.8746  -30.4304   23.9297 H   0  0  0  0  0  0
  -27.2688  -33.3624   26.1993 H   0  0  0  0  0  0
  -28.3860  -32.6828   25.0271 H   0  0  0  0  0  0
  -28.0725  -31.8461   26.5379 H   0  0  0  0  0  0
  -28.2576  -38.0093   24.7514 H   0  0  0  0  0  0
  -28.1104  -36.2608   24.6299 H   0  0  0  0  0  0
  -27.2302  -37.1425   25.8880 H   0  0  0  0  0  0
  -20.9401  -29.8706   21.6814 H   0  0  0  0  0  0
  -26.0170  -38.2829   24.1397 H   0  0  0  0  0  0
  -27.6074  -20.1297   19.3177 H   0  0  0  0  0  0
  -31.0073  -17.4400   21.6717 H   0  0  0  0  0  0
  -26.2933  -17.8865   16.7949 H   0  0  0  0  0  0
  -27.2552  -19.3834   17.2776 H   0  0  0  0  0  0
  -27.2310  -16.6184   18.5774 H   0  0  0  0  0  0
  -29.4016  -21.0808   23.4287 H   0  0  0  0  0  0
  -30.8211  -21.8771   22.7034 H   0  0  0  0  0  0
  -30.9577  -21.0117   24.2277 H   0  0  0  0  0  0
  -28.5644  -24.2182   18.8552 H   0  0  0  0  0  0
  -27.2642  -23.5649   19.7692 H   0  0  0  0  0  0
  -29.3089  -25.1589   21.3175 H   0  0  0  0  0  0
  -27.5936  -25.1616   21.5190 H   0  0  0  0  0  0
  -30.2186  -22.9705   20.4353 H   0  0  0  0  0  0
  -29.3914  -22.1310   19.1691 H   0  0  0  0  0  0
  -29.1563  -16.4398   17.9416 H   0  0  0  0  0  0
  1 25  1  0  0  0
  1 30  2  0  0  0
  1 79  1  0  0  0
  2  3  1  0  0  0
  2 25  1  0  0  0
  2 87  1  0  0  0
  2 88  1  0  0  0
  3  4  1  0  0  0
  3 89  1  0  0  0
  3 90  1  0  0  0
  4  5  1  0  0  0
  4 91  1  0  0  0
  4 92  1  0  0  0
  5  6  1  0  0  0
  5 26  1  0  0  0
  5 93  1  0  0  0
  6 25  1  0  0  0
  6 94  1  0  0  0
  6 95  1  0  0  0
  7  8  2  0  0  0
  7 26  1  0  0  0
  7 29  1  0  0  0
  8  9  1  0  0  0
  8 22  1  0  0  0
  9 10  1  0  0  0
  9 27  2  0  0  0
 10 11  2  0  0  0
 10 15  1  0  0  0
 11 12  1  0  0  0
 11 96  1  0  0  0
 12 13  2  0  0  0
 12 97  1  0  0  0
 13 14  1  0  0  0
 13 31  1  0  0  0
 14 15  2  0  0  0
 14 98  1  0  0  0
 15 99  1  0  0  0
 16 17  2  0  0  0
 16 21  1  0  0  0
 16 31  1  0  0  0
 17 18  1  0  0  0
 17100  1  0  0  0
 18 19  2  0  0  0
 18101  1  0  0  0
 19 20  1  0  0  0
 19 24  1  0  0  0
 20 21  2  0  0  0
 20102  1  0  0  0
 21 23  1  0  0  0
 22 28  1  0  0  0
 22 32  2  0  0  0
 26 27  1  0  0  0
 28103  1  0  0  0
 28104  1  0  0  0
 29105  1  0  0  0
 29106  1  0  0  0
 33 34  1  0  0  0
 33 66  1  0  0  0
 33 70  2  0  0  0
 34 36  1  0  0  0
 34 59  1  0  0  0
 34107  1  0  0  0
 35 44  2  0  0  0
 35 45  1  0  0  0
 35 68  1  0  0  0
 36 56  1  0  0  0
 36108  1  0  0  0
 37 39  1  0  0  0
 37 47  1  0  0  0
 37 66  1  0  0  0
 37109  1  0  0  0
 38 43  2  0  0  0
 38 46  1  0  0  0
 38 47  1  0  0  0
 39 64  1  0  0  0
 39 67  2  0  0  0
 40 52  1  0  0  0
 40 53  2  0  0  0
 40 58  1  0  0  0
 41110  1  0  0  0
 41111  1  0  0  0
 41112  1  0  0  0
 41 48  1  0  0  0
 42 43  1  0  0  0
 42 66  1  0  0  0
 42113  1  0  0  0
 42114  1  0  0  0
 43 44  1  0  0  0
 44115  1  0  0  0
 45 46  2  0  0  0
 45116  1  0  0  0
 46117  1  0  0  0
 47118  1  0  0  0
 47119  1  0  0  0
 48 56  1  0  0  0
 48 65  1  0  0  0
 48120  1  0  0  0
 49 50  1  0  0  0
 49 53  1  0  0  0
 49 64  1  0  0  0
 49121  1  0  0  0
 50 51  1  0  0  0
 50122  1  0  0  0
 50123  1  0  0  0
 51 52  1  0  0  0
 51124  1  0  0  0
 51125  1  0  0  0
 52126  1  0  0  0
 52127  1  0  0  0
 53 54  1  0  0  0
 54 55  2  0  0  0
 54128  1  0  0  0
 55 57  1  0  0  0
 55129  1  0  0  0
 56 69  2  0  0  0
 57 58  2  0  0  0
 57130  1  0  0  0
 58131  1  0  0  0
 59 60  1  0  0  0
 59 61  1  0  0  0
 59 62  1  0  0  0
 60132  1  0  0  0
 60133  1  0  0  0
 60134  1  0  0  0
 61135  1  0  0  0
 61136  1  0  0  0
 61137  1  0  0  0
 62138  1  0  0  0
 62139  1  0  0  0
 62140  1  0  0  0
 63 65  1  0  0  0
 63141  1  0  0  0
 63142  1  0  0  0
 63143  1  0  0  0
 64144  1  0  0  0
 65145  1  0  0  0
 68 82  1  0  0  0
 71 73  2  0  0  0
 71 76  1  0  0  0
 71146  1  0  0  0
 72 74  2  0  0  0
 72 75  1  0  0  0
 72147  1  0  0  0
 73 74  1  0  0  0
 73 78  1  0  0  0
 74 79  1  0  0  0
 75 76  2  0  0  0
 75 85  1  0  0  0
 76 86  1  0  0  0
 77 78  2  0  0  0
 77148  1  0  0  0
 77149  1  0  0  0
 78150  1  0  0  0
 79 84  2  0  0  0
 80 85  1  0  0  0
 80151  1  0  0  0
 80152  1  0  0  0
 80153  1  0  0  0
 81 82  1  0  0  0
 81 83  1  0  0  0
 81154  1  0  0  0
 81155  1  0  0  0
 82156  1  0  0  0
 82157  1  0  0  0
 83 86  1  0  0  0
 83158  1  0  0  0
 83159  1  0  0  0
 84160  1  0  0  0
M  ISO  4   1 100  68 101  79 100  82 101
M  END
> <chiral flag>
0

> <version>
0

> <s_m_source_file>
/data/baiqing/PycharmProjects/Reinvent-master-3.2/result/LINK_invent/BTK/process_docking_weight1_custom_product_contain_oxygen_bond_distance_aromatic_linkinvent_7_9_3/rearranged_h_0111.sdf

> <i_m_source_file_index>
12

> <r_mmod_Potential_Energy-OPLS-2005>
435.709594726562

> <r_mmod_Stretch_Energy-OPLS-2005>
101.068023681641

> <r_mmod_Bend_Energy-OPLS-2005>
188.393798828125

> <r_mmod_Torsional_Energy-OPLS-2005>
322.772155761719

> <r_mmod_Improper_Torsional_Energy-OPLS-2005>
30.6386280059814

> <r_mmod_Van_der_Waal_Energy-OPLS-2005>
156.094619750977

> <r_mmod_Electrostatic_Energy-OPLS-2005>
-240.197692871094

> <r_mmod_Solvation_Energy-OPLS-2005>
-201.427764892578

> <b_mmod_Minimization_Converged-OPLS-2005>
0

> <r_mmod_RMS_Derivative-OPLS-2005>
3.04440808296204

$$$$
13
                    3D
 Structure written by MMmdl.
157165  0  0  1  0            999 V2000
  -30.6221  -14.6135   20.4207 C   0  0  0  0  0  0
  -30.4262  -12.3510   19.4697 C   0  0  0  0  0  0
  -29.5118  -12.4847   18.2337 C   0  0  0  0  0  0
  -28.0278  -12.3478   18.6344 C   0  0  0  0  0  0
  -27.6505  -13.2077   19.8708 C   0  0  2  0  0  0
  -28.6961  -13.0756   21.0027 C   0  0  0  0  0  0
  -25.2550  -13.8126   20.5707 C   0  0  0  0  0  0
  -24.1807  -13.0409   20.9192 C   0  0  0  0  0  0
  -24.6370  -11.6881   20.8749 C   0  0  0  0  0  0
  -23.9047  -10.4280   21.0424 C   0  0  0  0  0  0
  -24.3600   -9.4186   21.9196 C   0  0  0  0  0  0
  -23.6271   -8.2223   22.0763 C   0  0  0  0  0  0
  -22.4251   -8.0270   21.3555 C   0  0  0  0  0  0
  -21.9888   -9.0247   20.4652 C   0  0  0  0  0  0
  -22.7222  -10.2126   20.3066 C   0  0  0  0  0  0
  -21.6870   -6.0698   22.5262 C   0  0  0  0  0  0
  -21.4019   -6.5594   23.8188 C   0  0  0  0  0  0
  -21.3674   -5.6760   24.9153 C   0  0  0  0  0  0
  -21.6065   -4.3023   24.7233 C   0  0  0  0  0  0
  -21.8815   -3.8112   23.4344 C   0  0  0  0  0  0
  -21.9203   -4.6928   22.3392 C   0  0  0  0  0  0
  -22.7824  -13.5210   21.1854 C   0  0  0  0  0  0
  -22.1668   -4.2106   21.0974 F   0  0  0  0  0  0
  -21.5661   -3.4513   25.7742 F   0  0  0  0  0  0
  -30.0134  -13.3889   20.4320 N   0  0  0  0  0  0
  -26.2968  -12.9275   20.3373 N   0  0  0  0  0  0
  -25.9310  -11.6446   20.5802 N   0  0  0  0  0  0
  -22.0494  -12.8202   22.0422 N   0  0  0  0  0  0
  -25.4278  -15.1840   20.4118 N   0  0  0  0  0  0
  -31.7976  -14.7462   20.0722 O   0  0  0  0  0  0
  -21.6631   -6.8849   21.4226 O   0  0  0  0  0  0
  -22.3508  -14.5534   20.6719 O   0  0  0  0  0  0
  -24.6246  -31.8628   23.2054 C   0  0  0  0  0  0
  -25.9115  -32.4782   23.8380 C   0  0  1  0  0  0
  -27.2324  -27.3791   20.0988 C   0  0  0  0  0  0
  -25.5942  -33.8583   24.2328 N   0  0  0  0  0  0
  -23.4142  -30.4911   21.5439 C   0  0  2  0  0  0
  -24.8543  -28.9404   20.1169 C   0  0  0  0  0  0
  -22.7449  -29.4681   22.4934 C   0  0  0  0  0  0
  -18.0326  -28.1391   22.8503 C   0  0  0  0  0  0
  -24.1484  -36.7301   23.2635 C   0  0  0  0  0  0
  -25.9487  -30.8127   21.3630 C   0  0  0  0  0  0
  -26.0198  -29.4424   20.7077 C   0  0  0  0  0  0
  -27.2082  -28.6709   20.6899 C   0  0  0  0  0  0
  -26.0393  -26.8933   19.5201 C   0  0  0  0  0  0
  -24.8598  -27.6669   19.5233 C   0  0  0  0  0  0
  -23.6247  -29.8203   20.1600 C   0  0  0  0  0  0
  -25.4098  -36.3086   24.0353 C   0  0  1  0  0  0
  -20.5913  -28.3709   23.1274 C   0  0  2  0  0  0
  -20.6808  -26.9442   22.5392 C   0  0  0  0  0  0
  -19.5758  -26.6402   21.5218 C   0  0  0  0  0  0
  -18.1949  -26.7943   22.1643 C   0  0  0  0  0  0
  -19.1570  -28.8865   23.2897 C   0  0  0  0  0  0
  -18.9481  -30.1469   23.8907 C   0  0  0  0  0  0
  -17.6475  -30.6584   24.0580 C   0  0  0  0  0  0
  -25.9037  -34.9451   23.5135 C   0  0  0  0  0  0
  -16.5377  -29.9084   23.6320 C   0  0  0  0  0  0
  -16.7310  -28.6507   23.0339 C   0  0  0  0  0  0
  -26.4514  -31.6549   25.0726 C   0  0  0  0  0  0
  -25.3773  -31.3680   26.1473 C   0  0  0  0  0  0
  -27.0361  -30.2979   24.6150 C   0  0  0  0  0  0
  -27.6085  -32.4254   25.7508 C   0  0  0  0  0  0
  -27.5586  -37.1806   24.8471 C   0  0  0  0  0  0
  -21.4181  -29.3080   22.3655 N   0  0  0  0  0  0
  -26.4282  -37.3774   23.9434 N   0  0  0  0  0  0
  -24.6814  -31.0711   22.0956 N   0  0  0  0  0  0
  -23.4188  -28.8243   23.3019 O   0  0  0  0  0  0
  -28.4130  -26.6474   20.1211 O   0  0  0  0  0  0
  -26.5589  -34.8917   22.4696 O   0  0  0  0  0  0
  -23.5420  -32.1403   23.7415 O   0  0  0  0  0  0
  -28.7733  -19.1118   20.4355 C   0  0  0  0  0  0
  -30.5959  -20.4020   20.1404 C   0  0  0  0  0  0
  -29.2669  -20.4603   20.4465 C   0  0  0  0  0  0
  -29.7809  -18.2715   19.9934 C   0  0  0  0  0  0
  -28.7654  -22.7508   20.1398 C   0  0  0  0  0  0
  -28.5757  -16.6228   18.5394 C   0  0  0  0  0  0
  -32.2203  -18.6751   19.3548 C   0  0  0  0  0  0
  -28.1176  -24.1175   20.4867 C   0  0  0  0  0  0
  -28.5223  -25.3111   19.5547 C   0  0  0  0  0  0
  -29.7695  -16.8119   19.4952 C   0  0  2  0  0  0
  -28.5211  -21.6332   20.7416 N   0  0  0  0  0  0
  -30.9115  -19.0848   19.8377 N   0  0  0  0  0  0
  -29.7822  -15.6880   20.4828 N   0  0  0  0  0  0
  -31.4746  -12.4479   19.1791 H   0  0  0  0  0  0
  -30.3333  -11.3599   19.9148 H   0  0  0  0  0  0
  -29.7685  -11.7265   17.4938 H   0  0  0  0  0  0
  -29.6812  -13.4489   17.7512 H   0  0  0  0  0  0
  -27.8379  -11.2954   18.8434 H   0  0  0  0  0  0
  -27.3878  -12.6077   17.7906 H   0  0  0  0  0  0
  -27.6536  -14.2391   19.5302 H   0  0  0  0  0  0
  -28.6994  -12.0625   21.4089 H   0  0  0  0  0  0
  -28.4571  -13.7377   21.8367 H   0  0  0  0  0  0
  -25.2776   -9.5638   22.4733 H   0  0  0  0  0  0
  -24.0008   -7.4590   22.7450 H   0  0  0  0  0  0
  -21.0841   -8.8743   19.8922 H   0  0  0  0  0  0
  -22.3715  -10.9649   19.6139 H   0  0  0  0  0  0
  -21.1986   -7.6102   23.9674 H   0  0  0  0  0  0
  -21.1530   -6.0491   25.9049 H   0  0  0  0  0  0
  -22.0600   -2.7574   23.2850 H   0  0  0  0  0  0
  -22.4126  -11.9857   22.4799 H   0  0  0  0  0  0
  -21.1114  -13.1212   22.2653 H   0  0  0  0  0  0
  -24.6659  -15.8430   20.5342 H   0  0  0  0  0  0
  -26.2787  -15.6210   20.0834 H   0  0  0  0  0  0
  -26.7206  -32.5470   23.1151 H   0  0  0  0  0  0
  -25.0130  -33.9709   25.0500 H   0  0  0  0  0  0
  -22.7112  -31.3132   21.3976 H   0  0  0  0  0  0
  -23.3737  -35.9634   23.3264 H   0  0  0  0  0  0
  -24.3593  -36.8938   22.2055 H   0  0  0  0  0  0
  -23.7226  -37.6508   23.6645 H   0  0  0  0  0  0
  -26.0746  -31.5789   20.5966 H   0  0  0  0  0  0
  -26.8309  -30.8578   21.9903 H   0  0  0  0  0  0
  -28.1121  -29.0590   21.1388 H   0  0  0  0  0  0
  -25.9902  -25.9108   19.0746 H   0  0  0  0  0  0
  -23.9588  -27.2666   19.0780 H   0  0  0  0  0  0
  -23.7525  -30.5921   19.4004 H   0  0  0  0  0  0
  -22.7430  -29.2535   19.8564 H   0  0  0  0  0  0
  -25.1264  -36.1945   25.0844 H   0  0  0  0  0  0
  -21.0065  -28.3304   24.1367 H   0  0  0  0  0  0
  -20.5727  -26.2360   23.3618 H   0  0  0  0  0  0
  -21.6683  -26.7477   22.1173 H   0  0  0  0  0  0
  -19.6929  -25.6303   21.1268 H   0  0  0  0  0  0
  -19.6663  -27.3215   20.6740 H   0  0  0  0  0  0
  -17.4235  -26.6738   21.4032 H   0  0  0  0  0  0
  -18.0310  -26.0059   22.9008 H   0  0  0  0  0  0
  -19.7946  -30.7308   24.2267 H   0  0  0  0  0  0
  -17.5013  -31.6263   24.5193 H   0  0  0  0  0  0
  -15.5362  -30.2994   23.7592 H   0  0  0  0  0  0
  -15.8732  -28.0828   22.7003 H   0  0  0  0  0  0
  -24.5951  -30.7010   25.7843 H   0  0  0  0  0  0
  -24.8958  -32.2836   26.4908 H   0  0  0  0  0  0
  -25.8120  -30.8882   27.0248 H   0  0  0  0  0  0
  -26.2940  -29.6715   24.1194 H   0  0  0  0  0  0
  -27.4111  -29.7240   25.4636 H   0  0  0  0  0  0
  -27.8775  -30.4292   23.9342 H   0  0  0  0  0  0
  -27.2714  -33.3543   26.2117 H   0  0  0  0  0  0
  -28.3894  -32.6815   25.0338 H   0  0  0  0  0  0
  -28.0752  -31.8347   26.5403 H   0  0  0  0  0  0
  -28.2592  -38.0115   24.7532 H   0  0  0  0  0  0
  -28.1093  -36.2654   24.6252 H   0  0  0  0  0  0
  -27.2327  -37.1418   25.8879 H   0  0  0  0  0  0
  -20.9354  -29.8784   21.6849 H   0  0  0  0  0  0
  -26.0170  -38.2860   24.1392 H   0  0  0  0  0  0
  -27.7557  -18.8033   20.6351 H   0  0  0  0  0  0
  -31.3432  -21.1807   20.0644 H   0  0  0  0  0  0
  -29.4834  -22.8045   19.3154 H   0  0  0  0  0  0
  -28.5998  -17.3625   17.7387 H   0  0  0  0  0  0
  -27.6215  -16.7399   19.0544 H   0  0  0  0  0  0
  -28.5880  -15.6462   18.0569 H   0  0  0  0  0  0
  -32.9770  -19.4090   19.6406 H   0  0  0  0  0  0
  -32.2007  -18.6124   18.2659 H   0  0  0  0  0  0
  -32.4995  -17.7047   19.7678 H   0  0  0  0  0  0
  -28.4013  -24.3605   21.5096 H   0  0  0  0  0  0
  -27.0345  -24.0078   20.4902 H   0  0  0  0  0  0
  -28.0201  -25.2412   18.5892 H   0  0  0  0  0  0
  -29.5821  -25.2053   19.3192 H   0  0  0  0  0  0
  -30.6391  -16.6763   18.8517 H   0  0  0  0  0  0
  -28.8913  -15.4994   20.9163 H   0  0  0  0  0  0
  1 25  1  0  0  0
  1 30  2  0  0  0
  1 83  1  0  0  0
  2  3  1  0  0  0
  2 25  1  0  0  0
  2 84  1  0  0  0
  2 85  1  0  0  0
  3  4  1  0  0  0
  3 86  1  0  0  0
  3 87  1  0  0  0
  4  5  1  0  0  0
  4 88  1  0  0  0
  4 89  1  0  0  0
  5  6  1  0  0  0
  5 26  1  0  0  0
  5 90  1  0  0  0
  6 25  1  0  0  0
  6 91  1  0  0  0
  6 92  1  0  0  0
  7  8  2  0  0  0
  7 26  1  0  0  0
  7 29  1  0  0  0
  8  9  1  0  0  0
  8 22  1  0  0  0
  9 10  1  0  0  0
  9 27  2  0  0  0
 10 11  2  0  0  0
 10 15  1  0  0  0
 11 12  1  0  0  0
 11 93  1  0  0  0
 12 13  2  0  0  0
 12 94  1  0  0  0
 13 14  1  0  0  0
 13 31  1  0  0  0
 14 15  2  0  0  0
 14 95  1  0  0  0
 15 96  1  0  0  0
 16 17  2  0  0  0
 16 21  1  0  0  0
 16 31  1  0  0  0
 17 18  1  0  0  0
 17 97  1  0  0  0
 18 19  2  0  0  0
 18 98  1  0  0  0
 19 20  1  0  0  0
 19 24  1  0  0  0
 20 21  2  0  0  0
 20 99  1  0  0  0
 21 23  1  0  0  0
 22 28  1  0  0  0
 22 32  2  0  0  0
 26 27  1  0  0  0
 28100  1  0  0  0
 28101  1  0  0  0
 29102  1  0  0  0
 29103  1  0  0  0
 33 34  1  0  0  0
 33 66  1  0  0  0
 33 70  2  0  0  0
 34 36  1  0  0  0
 34 59  1  0  0  0
 34104  1  0  0  0
 35 44  2  0  0  0
 35 45  1  0  0  0
 35 68  1  0  0  0
 36 56  1  0  0  0
 36105  1  0  0  0
 37 39  1  0  0  0
 37 47  1  0  0  0
 37 66  1  0  0  0
 37106  1  0  0  0
 38 43  2  0  0  0
 38 46  1  0  0  0
 38 47  1  0  0  0
 39 64  1  0  0  0
 39 67  2  0  0  0
 40 52  1  0  0  0
 40 53  2  0  0  0
 40 58  1  0  0  0
 41107  1  0  0  0
 41108  1  0  0  0
 41109  1  0  0  0
 41 48  1  0  0  0
 42 43  1  0  0  0
 42 66  1  0  0  0
 42110  1  0  0  0
 42111  1  0  0  0
 43 44  1  0  0  0
 44112  1  0  0  0
 45 46  2  0  0  0
 45113  1  0  0  0
 46114  1  0  0  0
 47115  1  0  0  0
 47116  1  0  0  0
 48 56  1  0  0  0
 48 65  1  0  0  0
 48117  1  0  0  0
 49 50  1  0  0  0
 49 53  1  0  0  0
 49 64  1  0  0  0
 49118  1  0  0  0
 50 51  1  0  0  0
 50119  1  0  0  0
 50120  1  0  0  0
 51 52  1  0  0  0
 51121  1  0  0  0
 51122  1  0  0  0
 52123  1  0  0  0
 52124  1  0  0  0
 53 54  1  0  0  0
 54 55  2  0  0  0
 54125  1  0  0  0
 55 57  1  0  0  0
 55126  1  0  0  0
 56 69  2  0  0  0
 57 58  2  0  0  0
 57127  1  0  0  0
 58128  1  0  0  0
 59 60  1  0  0  0
 59 61  1  0  0  0
 59 62  1  0  0  0
 60129  1  0  0  0
 60130  1  0  0  0
 60131  1  0  0  0
 61132  1  0  0  0
 61133  1  0  0  0
 61134  1  0  0  0
 62135  1  0  0  0
 62136  1  0  0  0
 62137  1  0  0  0
 63 65  1  0  0  0
 63138  1  0  0  0
 63139  1  0  0  0
 63140  1  0  0  0
 64141  1  0  0  0
 65142  1  0  0  0
 68 79  1  0  0  0
 71 73  1  0  0  0
 71 74  2  0  0  0
 71143  1  0  0  0
 72 73  2  0  0  0
 72 82  1  0  0  0
 72144  1  0  0  0
 73 81  1  0  0  0
 74 80  1  0  0  0
 74 82  1  0  0  0
 75 78  1  0  0  0
 75 81  2  0  0  0
 75145  1  0  0  0
 76146  1  0  0  0
 76147  1  0  0  0
 76148  1  0  0  0
 76 80  1  0  0  0
 77 82  1  0  0  0
 77149  1  0  0  0
 77150  1  0  0  0
 77151  1  0  0  0
 78 79  1  0  0  0
 78152  1  0  0  0
 78153  1  0  0  0
 79154  1  0  0  0
 79155  1  0  0  0
 80 83  1  0  0  0
 80156  1  0  0  0
 83157  1  0  0  0
M  ISO  4   1 100  68 101  79 101  83 100
M  END
> <chiral flag>
0

> <version>
0

> <s_m_source_file>
/data/baiqing/PycharmProjects/Reinvent-master-3.2/result/LINK_invent/BTK/process_docking_weight1_custom_product_contain_oxygen_bond_distance_aromatic_linkinvent_7_9_3/rearranged_h_0111.sdf

> <i_m_source_file_index>
13

> <r_mmod_Potential_Energy-OPLS-2005>
-88.9472503662109

> <r_mmod_Stretch_Energy-OPLS-2005>
54.2982368469238

> <r_mmod_Bend_Energy-OPLS-2005>
129.298080444336

> <r_mmod_Torsional_Energy-OPLS-2005>
234.449783325195

> <r_mmod_Improper_Torsional_Energy-OPLS-2005>
12.0331354141235

> <r_mmod_Van_der_Waal_Energy-OPLS-2005>
123.689765930176

> <r_mmod_Electrostatic_Energy-OPLS-2005>
-452.260009765625

> <r_mmod_Solvation_Energy-OPLS-2005>
-225.881271362305

> <b_mmod_Minimization_Converged-OPLS-2005>
0

> <r_mmod_RMS_Derivative-OPLS-2005>
3.42201113700867

$$$$
14
                    3D
 Structure written by MMmdl.
167176  0  0  1  0            999 V2000
  -30.6209  -14.5500   20.5143 C   0  0  0  0  0  0
  -30.4295  -12.3413   19.4278 C   0  0  0  0  0  0
  -29.5070  -12.5240   18.2024 C   0  0  0  0  0  0
  -28.0250  -12.3715   18.6031 C   0  0  0  0  0  0
  -27.6563  -13.2032   19.8594 C   0  0  2  0  0  0
  -28.6944  -12.9972   20.9828 C   0  0  0  0  0  0
  -25.2633  -13.8081   20.5880 C   0  0  0  0  0  0
  -24.1850  -13.0381   20.9233 C   0  0  0  0  0  0
  -24.6378  -11.6854   20.8674 C   0  0  0  0  0  0
  -23.9018  -10.4249   21.0371 C   0  0  0  0  0  0
  -24.3575   -9.4163   21.9161 C   0  0  0  0  0  0
  -23.6249   -8.2212   22.0761 C   0  0  0  0  0  0
  -22.4230   -8.0241   21.3543 C   0  0  0  0  0  0
  -21.9855   -9.0203   20.4637 C   0  0  0  0  0  0
  -22.7185  -10.2079   20.3020 C   0  0  0  0  0  0
  -21.6835   -6.0707   22.5282 C   0  0  0  0  0  0
  -21.4012   -6.5609   23.8217 C   0  0  0  0  0  0
  -21.3670   -5.6763   24.9178 C   0  0  0  0  0  0
  -21.6060   -4.3035   24.7238 C   0  0  0  0  0  0
  -21.8809   -3.8112   23.4358 C   0  0  0  0  0  0
  -21.9175   -4.6930   22.3407 C   0  0  0  0  0  0
  -22.7875  -13.5218   21.1918 C   0  0  0  0  0  0
  -22.1643   -4.2107   21.0995 F   0  0  0  0  0  0
  -21.5629   -3.4532   25.7763 F   0  0  0  0  0  0
  -30.0200  -13.3297   20.4373 N   0  0  0  0  0  0
  -26.3003  -12.9258   20.3253 N   0  0  0  0  0  0
  -25.9273  -11.6417   20.5576 N   0  0  0  0  0  0
  -22.0473  -12.8201   22.0421 N   0  0  0  0  0  0
  -25.4498  -15.1796   20.4782 N   0  0  0  0  0  0
  -31.7846  -14.6969   20.1216 O   0  0  0  0  0  0
  -21.6592   -6.8839   21.4243 O   0  0  0  0  0  0
  -22.3588  -14.5580   20.6832 O   0  0  0  0  0  0
  -24.6057  -31.8771   23.2221 C   0  0  0  0  0  0
  -25.8994  -32.4848   23.8505 C   0  0  1  0  0  0
  -27.2397  -27.4776   20.1110 C   0  0  0  0  0  0
  -25.5883  -33.8661   24.2435 N   0  0  0  0  0  0
  -23.3929  -30.5098   21.5533 C   0  0  2  0  0  0
  -24.8443  -28.9866   20.1179 C   0  0  0  0  0  0
  -22.7378  -29.4743   22.4986 C   0  0  0  0  0  0
  -18.0243  -28.1501   22.8523 C   0  0  0  0  0  0
  -24.1486  -36.7317   23.2644 C   0  0  0  0  0  0
  -25.9210  -30.8616   21.3757 C   0  0  0  0  0  0
  -25.9992  -29.5005   20.7179 C   0  0  0  0  0  0
  -27.1951  -28.7533   20.7130 C   0  0  0  0  0  0
  -26.0658  -26.9822   19.4914 C   0  0  0  0  0  0
  -24.8719  -27.7255   19.5014 C   0  0  0  0  0  0
  -23.6027  -29.8458   20.1661 C   0  0  0  0  0  0
  -25.4094  -36.3143   24.0359 C   0  0  1  0  0  0
  -20.5837  -28.3773   23.1344 C   0  0  2  0  0  0
  -20.6674  -26.9475   22.5554 C   0  0  0  0  0  0
  -19.5679  -26.6435   21.5306 C   0  0  0  0  0  0
  -18.1873  -26.8016   22.1730 C   0  0  0  0  0  0
  -19.1504  -28.8940   23.2917 C   0  0  0  0  0  0
  -18.9462  -30.1529   23.8970 C   0  0  0  0  0  0
  -17.6457  -30.6642   24.0696 C   0  0  0  0  0  0
  -25.9011  -34.9483   23.5179 C   0  0  0  0  0  0
  -16.5360  -29.9139   23.6542 C   0  0  0  0  0  0
  -16.7236  -28.6577   23.0476 C   0  0  0  0  0  0
  -26.4475  -31.6626   25.0839 C   0  0  0  0  0  0
  -25.3785  -31.3689   26.1629 C   0  0  0  0  0  0
  -27.0312  -30.3064   24.6236 C   0  0  0  0  0  0
  -27.6092  -32.4329   25.7597 C   0  0  0  0  0  0
  -27.5575  -37.1838   24.8469 C   0  0  0  0  0  0
  -21.4075  -29.3139   22.3728 N   0  0  0  0  0  0
  -26.4294  -37.3797   23.9407 N   0  0  0  0  0  0
  -24.6559  -31.1000   22.1050 N   0  0  0  0  0  0
  -23.4185  -28.8257   23.2971 O   0  0  0  0  0  0
  -28.4461  -26.8097   20.1331 O   0  0  0  0  0  0
  -26.5552  -34.8890   22.4738 O   0  0  0  0  0  0
  -23.5282  -32.1445   23.7673 O   0  0  0  0  0  0
  -27.4516  -20.1348   20.8096 C   0  0  0  0  0  0
  -29.1234  -17.9798   20.6270 C   0  0  0  0  0  0
  -27.9869  -18.1282   19.7631 C   0  0  0  0  0  0
  -28.6273  -20.0567   21.5943 C   0  0  0  0  0  0
  -30.0446  -16.7926   20.5747 C   0  0  0  0  0  0
  -28.7054  -24.6337   21.2421 C   0  0  0  0  0  0
  -26.9556  -18.8897   16.4858 C   0  0  0  0  0  0
  -26.0981  -17.6511   16.7536 C   0  0  0  0  0  0
  -28.4489  -18.5591   16.6846 C   0  0  0  0  0  0
  -26.3237  -17.1052   18.1887 C   0  0  0  0  0  0
  -28.6801  -17.3168   17.5748 C   0  0  0  0  0  0
  -28.5441  -23.1070   21.1487 C   0  0  0  0  0  0
  -28.4782  -25.3941   19.9265 C   0  0  0  0  0  0
  -28.4191  -22.3242   22.4811 C   0  0  0  0  0  0
  -27.1460  -19.1871   19.8964 N   0  0  0  0  0  0
  -29.4389  -18.9670   21.5225 N   0  0  0  0  0  0
  -29.7309  -15.5779   20.8583 N   0  0  0  0  0  0
  -27.7101  -17.2640   18.6693 N   0  0  0  0  0  0
  -29.0326  -25.2078   22.2872 O   0  0  0  0  0  0
  -29.0837  -21.0492   22.4409 O   0  0  0  0  0  0
  -31.4787  -12.4519   19.1470 H   0  0  0  0  0  0
  -30.3292  -11.3372   19.8399 H   0  0  0  0  0  0
  -29.7602  -11.7968   17.4307 H   0  0  0  0  0  0
  -29.6586  -13.5079   17.7498 H   0  0  0  0  0  0
  -27.8434  -11.3132   18.7937 H   0  0  0  0  0  0
  -27.3776  -12.6454   17.7693 H   0  0  0  0  0  0
  -27.6939  -14.2487   19.5566 H   0  0  0  0  0  0
  -28.6922  -11.9637   21.3360 H   0  0  0  0  0  0
  -28.4454  -13.6054   21.8546 H   0  0  0  0  0  0
  -25.2748   -9.5609   22.4703 H   0  0  0  0  0  0
  -23.9929   -7.4597   22.7500 H   0  0  0  0  0  0
  -21.0776   -8.8695   19.8966 H   0  0  0  0  0  0
  -22.3662  -10.9583   19.6078 H   0  0  0  0  0  0
  -21.2025   -7.6121   23.9721 H   0  0  0  0  0  0
  -21.1514   -6.0502   25.9092 H   0  0  0  0  0  0
  -22.0594   -2.7575   23.2879 H   0  0  0  0  0  0
  -22.4044  -11.9856   22.4840 H   0  0  0  0  0  0
  -21.1102  -13.1229   22.2608 H   0  0  0  0  0  0
  -24.7295  -15.8592   20.6915 H   0  0  0  0  0  0
  -26.3252  -15.5989   20.1848 H   0  0  0  0  0  0
  -26.7098  -32.5587   23.1309 H   0  0  0  0  0  0
  -25.0092  -33.9827   25.0617 H   0  0  0  0  0  0
  -22.6800  -31.3232   21.4144 H   0  0  0  0  0  0
  -23.3733  -35.9660   23.3319 H   0  0  0  0  0  0
  -24.3613  -36.8906   22.2059 H   0  0  0  0  0  0
  -23.7224  -37.6523   23.6643 H   0  0  0  0  0  0
  -26.0487  -31.6470   20.6293 H   0  0  0  0  0  0
  -26.7985  -30.8959   22.0084 H   0  0  0  0  0  0
  -28.0830  -29.1587   21.1805 H   0  0  0  0  0  0
  -26.0390  -26.0438   18.9619 H   0  0  0  0  0  0
  -23.9865  -27.3397   19.0165 H   0  0  0  0  0  0
  -23.6961  -30.6163   19.3986 H   0  0  0  0  0  0
  -22.7298  -29.2556   19.8803 H   0  0  0  0  0  0
  -25.1271  -36.2011   25.0846 H   0  0  0  0  0  0
  -20.9968  -28.3291   24.1451 H   0  0  0  0  0  0
  -20.5409  -26.2425   23.3780 H   0  0  0  0  0  0
  -21.6589  -26.7447   22.1488 H   0  0  0  0  0  0
  -19.6840  -25.6320   21.1394 H   0  0  0  0  0  0
  -19.6630  -27.3233   20.6816 H   0  0  0  0  0  0
  -17.4029  -26.6635   21.4260 H   0  0  0  0  0  0
  -18.0389  -26.0220   22.9267 H   0  0  0  0  0  0
  -19.7914  -30.7348   24.2417 H   0  0  0  0  0  0
  -17.5076  -31.6261   24.5450 H   0  0  0  0  0  0
  -15.5376  -30.2989   23.8069 H   0  0  0  0  0  0
  -15.8572  -28.0892   22.7377 H   0  0  0  0  0  0
  -24.5972  -30.7004   25.8005 H   0  0  0  0  0  0
  -24.8957  -32.2811   26.5163 H   0  0  0  0  0  0
  -25.8205  -30.8847   27.0350 H   0  0  0  0  0  0
  -26.2868  -29.6857   24.1257 H   0  0  0  0  0  0
  -27.3997  -29.7308   25.4743 H   0  0  0  0  0  0
  -27.8749  -30.4369   23.9452 H   0  0  0  0  0  0
  -27.2755  -33.3609   26.2246 H   0  0  0  0  0  0
  -28.3893  -32.6915   25.0429 H   0  0  0  0  0  0
  -28.0785  -31.8411   26.5467 H   0  0  0  0  0  0
  -28.2629  -38.0116   24.7518 H   0  0  0  0  0  0
  -28.1051  -36.2656   24.6299 H   0  0  0  0  0  0
  -27.2323  -37.1478   25.8887 H   0  0  0  0  0  0
  -20.9177  -29.8942   21.7056 H   0  0  0  0  0  0
  -26.0193  -38.2880   24.1380 H   0  0  0  0  0  0
  -26.7552  -20.9587   20.8730 H   0  0  0  0  0  0
  -31.0517  -17.0552   20.2341 H   0  0  0  0  0  0
  -26.6459  -19.6787   17.1752 H   0  0  0  0  0  0
  -26.7816  -19.2878   15.4836 H   0  0  0  0  0  0
  -26.3728  -16.8879   16.0235 H   0  0  0  0  0  0
  -25.0408  -17.8595   16.5728 H   0  0  0  0  0  0
  -28.9467  -19.4282   17.1142 H   0  0  0  0  0  0
  -28.9184  -18.3810   15.7150 H   0  0  0  0  0  0
  -26.1015  -16.0404   18.1849 H   0  0  0  0  0  0
  -25.6068  -17.5555   18.8754 H   0  0  0  0  0  0
  -29.7129  -17.2728   17.9154 H   0  0  0  0  0  0
  -28.5217  -16.4144   16.9771 H   0  0  0  0  0  0
  -29.4067  -22.7443   20.5933 H   0  0  0  0  0  0
  -27.6808  -22.8977   20.5168 H   0  0  0  0  0  0
  -27.5891  -24.9931   19.4570 H   0  0  0  0  0  0
  -29.3014  -25.1794   19.2483 H   0  0  0  0  0  0
  -27.3765  -22.2017   22.7830 H   0  0  0  0  0  0
  -28.8801  -22.8879   23.2962 H   0  0  0  0  0  0
  1 25  1  0  0  0
  1 30  2  0  0  0
  1 87  1  0  0  0
  2  3  1  0  0  0
  2 25  1  0  0  0
  2 91  1  0  0  0
  2 92  1  0  0  0
  3  4  1  0  0  0
  3 93  1  0  0  0
  3 94  1  0  0  0
  4  5  1  0  0  0
  4 95  1  0  0  0
  4 96  1  0  0  0
  5  6  1  0  0  0
  5 26  1  0  0  0
  5 97  1  0  0  0
  6 25  1  0  0  0
  6 98  1  0  0  0
  6 99  1  0  0  0
  7  8  2  0  0  0
  7 26  1  0  0  0
  7 29  1  0  0  0
  8  9  1  0  0  0
  8 22  1  0  0  0
  9 10  1  0  0  0
  9 27  2  0  0  0
 10 11  2  0  0  0
 10 15  1  0  0  0
 11 12  1  0  0  0
 11100  1  0  0  0
 12 13  2  0  0  0
 12101  1  0  0  0
 13 14  1  0  0  0
 13 31  1  0  0  0
 14 15  2  0  0  0
 14102  1  0  0  0
 15103  1  0  0  0
 16 17  2  0  0  0
 16 21  1  0  0  0
 16 31  1  0  0  0
 17 18  1  0  0  0
 17104  1  0  0  0
 18 19  2  0  0  0
 18105  1  0  0  0
 19 20  1  0  0  0
 19 24  1  0  0  0
 20 21  2  0  0  0
 20106  1  0  0  0
 21 23  1  0  0  0
 22 28  1  0  0  0
 22 32  2  0  0  0
 26 27  1  0  0  0
 28107  1  0  0  0
 28108  1  0  0  0
 29109  1  0  0  0
 29110  1  0  0  0
 33 34  1  0  0  0
 33 66  1  0  0  0
 33 70  2  0  0  0
 34 36  1  0  0  0
 34 59  1  0  0  0
 34111  1  0  0  0
 35 44  2  0  0  0
 35 45  1  0  0  0
 35 68  1  0  0  0
 36 56  1  0  0  0
 36112  1  0  0  0
 37 39  1  0  0  0
 37 47  1  0  0  0
 37 66  1  0  0  0
 37113  1  0  0  0
 38 43  2  0  0  0
 38 46  1  0  0  0
 38 47  1  0  0  0
 39 64  1  0  0  0
 39 67  2  0  0  0
 40 52  1  0  0  0
 40 53  2  0  0  0
 40 58  1  0  0  0
 41114  1  0  0  0
 41115  1  0  0  0
 41116  1  0  0  0
 41 48  1  0  0  0
 42 43  1  0  0  0
 42 66  1  0  0  0
 42117  1  0  0  0
 42118  1  0  0  0
 43 44  1  0  0  0
 44119  1  0  0  0
 45 46  2  0  0  0
 45120  1  0  0  0
 46121  1  0  0  0
 47122  1  0  0  0
 47123  1  0  0  0
 48 56  1  0  0  0
 48 65  1  0  0  0
 48124  1  0  0  0
 49 50  1  0  0  0
 49 53  1  0  0  0
 49 64  1  0  0  0
 49125  1  0  0  0
 50 51  1  0  0  0
 50126  1  0  0  0
 50127  1  0  0  0
 51 52  1  0  0  0
 51128  1  0  0  0
 51129  1  0  0  0
 52130  1  0  0  0
 52131  1  0  0  0
 53 54  1  0  0  0
 54 55  2  0  0  0
 54132  1  0  0  0
 55 57  1  0  0  0
 55133  1  0  0  0
 56 69  2  0  0  0
 57 58  2  0  0  0
 57134  1  0  0  0
 58135  1  0  0  0
 59 60  1  0  0  0
 59 61  1  0  0  0
 59 62  1  0  0  0
 60136  1  0  0  0
 60137  1  0  0  0
 60138  1  0  0  0
 61139  1  0  0  0
 61140  1  0  0  0
 61141  1  0  0  0
 62142  1  0  0  0
 62143  1  0  0  0
 62144  1  0  0  0
 63 65  1  0  0  0
 63145  1  0  0  0
 63146  1  0  0  0
 63147  1  0  0  0
 64148  1  0  0  0
 65149  1  0  0  0
 68 83  1  0  0  0
 71 74  2  0  0  0
 71 85  1  0  0  0
 71150  1  0  0  0
 72 73  1  0  0  0
 72 75  1  0  0  0
 72 86  2  0  0  0
 73 85  2  0  0  0
 73 88  1  0  0  0
 74 86  1  0  0  0
 74 90  1  0  0  0
 75 87  2  0  0  0
 75151  1  0  0  0
 76 82  1  0  0  0
 76 83  1  0  0  0
 76 89  2  0  0  0
 77 78  1  0  0  0
 77 79  1  0  0  0
 77152  1  0  0  0
 77153  1  0  0  0
 78 80  1  0  0  0
 78154  1  0  0  0
 78155  1  0  0  0
 79 81  1  0  0  0
 79156  1  0  0  0
 79157  1  0  0  0
 80 88  1  0  0  0
 80158  1  0  0  0
 80159  1  0  0  0
 81 88  1  0  0  0
 81160  1  0  0  0
 81161  1  0  0  0
 82 84  1  0  0  0
 82162  1  0  0  0
 82163  1  0  0  0
 83164  1  0  0  0
 83165  1  0  0  0
 84 90  1  0  0  0
 84166  1  0  0  0
 84167  1  0  0  0
M  ISO  4   1 100  68 101  83 101  87 100
M  END
> <chiral flag>
0

> <version>
0

> <s_m_source_file>
/data/baiqing/PycharmProjects/Reinvent-master-3.2/result/LINK_invent/BTK/process_docking_weight1_custom_product_contain_oxygen_bond_distance_aromatic_linkinvent_7_9_3/rearranged_h_0111.sdf

> <i_m_source_file_index>
14

> <r_mmod_Potential_Energy-OPLS-2005>
195.2548828125

> <r_mmod_Stretch_Energy-OPLS-2005>
49.6114616394043

> <r_mmod_Bend_Energy-OPLS-2005>
133.219665527344

> <r_mmod_Torsional_Energy-OPLS-2005>
247.538986206055

> <r_mmod_Improper_Torsional_Energy-OPLS-2005>
8.89816856384277

> <r_mmod_Van_der_Waal_Energy-OPLS-2005>
185.330551147461

> <r_mmod_Electrostatic_Energy-OPLS-2005>
-238.320648193359

> <r_mmod_Solvation_Energy-OPLS-2005>
-212.086013793945

> <b_mmod_Minimization_Converged-OPLS-2005>
0

> <r_mmod_RMS_Derivative-OPLS-2005>
7.84664678573608

$$$$
15
                    3D
 Structure written by MMmdl.
167175  0  0  1  0            999 V2000
  -30.7315  -14.4022   20.7079 C   0  0  0  0  0  0
  -30.4347  -12.3298   19.3778 C   0  0  0  0  0  0
  -29.4835  -12.5518   18.1850 C   0  0  0  0  0  0
  -28.0075  -12.3989   18.6054 C   0  0  0  0  0  0
  -27.6733  -13.1961   19.8937 C   0  0  2  0  0  0
  -28.7210  -12.8776   20.9827 C   0  0  0  0  0  0
  -25.2626  -13.8147   20.5646 C   0  0  0  0  0  0
  -24.1867  -13.0441   20.9163 C   0  0  0  0  0  0
  -24.6407  -11.6903   20.8746 C   0  0  0  0  0  0
  -23.9060  -10.4297   21.0413 C   0  0  0  0  0  0
  -24.3610   -9.4211   21.9189 C   0  0  0  0  0  0
  -23.6288   -8.2245   22.0756 C   0  0  0  0  0  0
  -22.4271   -8.0283   21.3545 C   0  0  0  0  0  0
  -21.9907   -9.0258   20.4647 C   0  0  0  0  0  0
  -22.7233  -10.2140   20.3060 C   0  0  0  0  0  0
  -21.6851   -6.0735   22.5278 C   0  0  0  0  0  0
  -21.4012   -6.5637   23.8211 C   0  0  0  0  0  0
  -21.3659   -5.6793   24.9174 C   0  0  0  0  0  0
  -21.6045   -4.3055   24.7224 C   0  0  0  0  0  0
  -21.8819   -3.8146   23.4346 C   0  0  0  0  0  0
  -21.9190   -4.6963   22.3402 C   0  0  0  0  0  0
  -22.7890  -13.5249   21.1826 C   0  0  0  0  0  0
  -22.1661   -4.2148   21.0980 F   0  0  0  0  0  0
  -21.5630   -3.4540   25.7738 F   0  0  0  0  0  0
  -30.0466  -13.2460   20.4625 N   0  0  0  0  0  0
  -26.3095  -12.9300   20.3477 N   0  0  0  0  0  0
  -25.9336  -11.6462   20.5798 N   0  0  0  0  0  0
  -22.0526  -12.8248   22.0385 N   0  0  0  0  0  0
  -25.4296  -15.1854   20.3882 N   0  0  0  0  0  0
  -31.7287  -14.7398   20.0567 O   0  0  0  0  0  0
  -21.6638   -6.8879   21.4241 O   0  0  0  0  0  0
  -22.3574  -14.5554   20.6676 O   0  0  0  0  0  0
  -24.6159  -31.8683   23.2100 C   0  0  0  0  0  0
  -25.9050  -32.4822   23.8392 C   0  0  1  0  0  0
  -27.2356  -27.4265   20.0839 C   0  0  0  0  0  0
  -25.5906  -33.8618   24.2325 N   0  0  0  0  0  0
  -23.4036  -30.4930   21.5521 C   0  0  2  0  0  0
  -24.8478  -28.9594   20.1167 C   0  0  0  0  0  0
  -22.7415  -29.4663   22.4994 C   0  0  0  0  0  0
  -18.0275  -28.1375   22.8491 C   0  0  0  0  0  0
  -24.1489  -36.7312   23.2635 C   0  0  0  0  0  0
  -25.9350  -30.8300   21.3651 C   0  0  0  0  0  0
  -26.0112  -29.4652   20.7085 C   0  0  0  0  0  0
  -27.2074  -28.7083   20.6853 C   0  0  0  0  0  0
  -26.0442  -26.9372   19.4952 C   0  0  0  0  0  0
  -24.8594  -27.6943   19.5093 C   0  0  0  0  0  0
  -23.6115  -29.8282   20.1664 C   0  0  0  0  0  0
  -25.4110  -36.3109   24.0336 C   0  0  1  0  0  0
  -20.5866  -28.3663   23.1318 C   0  0  2  0  0  0
  -20.6766  -26.9399   22.5415 C   0  0  0  0  0  0
  -19.5744  -26.6382   21.5211 C   0  0  0  0  0  0
  -18.1923  -26.7922   22.1621 C   0  0  0  0  0  0
  -19.1523  -28.8835   23.2901 C   0  0  0  0  0  0
  -18.9452  -30.1442   23.8910 C   0  0  0  0  0  0
  -17.6455  -30.6582   24.0563 C   0  0  0  0  0  0
  -25.9038  -34.9475   23.5127 C   0  0  0  0  0  0
  -16.5346  -29.9085   23.6322 C   0  0  0  0  0  0
  -16.7264  -28.6502   23.0345 C   0  0  0  0  0  0
  -26.4472  -31.6601   25.0721 C   0  0  0  0  0  0
  -25.3733  -31.3716   26.1466 C   0  0  0  0  0  0
  -27.0301  -30.3041   24.6101 C   0  0  0  0  0  0
  -27.6045  -32.4323   25.7483 C   0  0  0  0  0  0
  -27.5587  -37.1807   24.8461 C   0  0  0  0  0  0
  -21.4143  -29.3036   22.3730 N   0  0  0  0  0  0
  -26.4295  -37.3795   23.9412 N   0  0  0  0  0  0
  -24.6699  -31.0778   22.1007 N   0  0  0  0  0  0
  -23.4182  -28.8195   23.3031 O   0  0  0  0  0  0
  -28.4138  -26.6968   20.0823 O   0  0  0  0  0  0
  -26.5598  -34.8929   22.4687 O   0  0  0  0  0  0
  -23.5351  -32.1442   23.7490 O   0  0  0  0  0  0
  -30.2026  -17.5336   20.9283 C   0  0  0  0  0  0
  -27.8155  -18.1494   22.2487 C   0  0  0  0  0  0
  -29.6116  -16.5298   21.7476 C   0  0  0  0  0  0
  -28.4164  -16.8878   22.4553 C   0  0  0  0  0  0
  -28.4104  -19.1254   21.4234 C   0  0  0  0  0  0
  -29.6396  -18.8286   20.8013 C   0  0  0  0  0  0
  -30.3182  -15.2078   21.9499 C   0  0  0  0  0  0
  -27.6979  -16.0111   23.4244 C   0  0  0  0  0  0
  -27.5087  -16.5792   24.8249 C   0  0  0  0  0  0
  -26.6285  -20.6991   21.8112 C   0  0  0  0  0  0
  -29.5217  -23.0044   20.2448 C   0  0  0  0  0  0
  -29.6584  -24.5460   20.1156 C   0  0  0  0  0  0
  -30.8742  -22.2510   20.2579 C   0  0  0  0  0  0
  -28.3078  -25.2706   19.9252 C   0  0  0  0  0  0
  -30.8579  -20.8436   20.9048 C   0  0  0  0  0  0
  -30.5918  -14.7769   23.1127 N   0  0  0  0  0  0
  -27.2457  -14.8990   23.1657 O   0  0  0  0  0  0
  -27.8677  -20.3727   21.1973 O   0  0  0  0  0  0
  -30.2841  -19.8155   20.0851 O   0  0  0  0  0  0
  -31.4703  -12.4723   19.0641 H   0  0  0  0  0  0
  -30.3756  -11.2968   19.7245 H   0  0  0  0  0  0
  -29.7179  -11.8530   17.3808 H   0  0  0  0  0  0
  -29.6420  -13.5510   17.7764 H   0  0  0  0  0  0
  -27.8130  -11.3379   18.7668 H   0  0  0  0  0  0
  -27.3500  -12.7066   17.7914 H   0  0  0  0  0  0
  -27.7444  -14.2578   19.6563 H   0  0  0  0  0  0
  -28.7059  -11.8097   21.2064 H   0  0  0  0  0  0
  -28.4854  -13.3420   21.9285 H   0  0  0  0  0  0
  -25.2756   -9.5685   22.4762 H   0  0  0  0  0  0
  -23.9998   -7.4636   22.7475 H   0  0  0  0  0  0
  -21.0839   -8.8775   19.8951 H   0  0  0  0  0  0
  -22.3694  -10.9679   19.6167 H   0  0  0  0  0  0
  -21.2006   -7.6146   23.9713 H   0  0  0  0  0  0
  -21.1483   -6.0523   25.9076 H   0  0  0  0  0  0
  -22.0598   -2.7608   23.2847 H   0  0  0  0  0  0
  -22.4140  -11.9908   22.4769 H   0  0  0  0  0  0
  -21.1148  -13.1283   22.2593 H   0  0  0  0  0  0
  -24.6622  -15.8399   20.4885 H   0  0  0  0  0  0
  -26.2905  -15.6237   20.0886 H   0  0  0  0  0  0
  -26.7121  -32.5533   23.1155 H   0  0  0  0  0  0
  -25.0064  -33.9774   25.0475 H   0  0  0  0  0  0
  -22.6927  -31.3103   21.4143 H   0  0  0  0  0  0
  -23.3751  -35.9644   23.3301 H   0  0  0  0  0  0
  -24.3582  -36.8923   22.2048 H   0  0  0  0  0  0
  -23.7244  -37.6518   23.6651 H   0  0  0  0  0  0
  -26.0515  -31.5977   20.5991 H   0  0  0  0  0  0
  -26.8211  -30.8797   21.9860 H   0  0  0  0  0  0
  -28.1076  -29.0996   21.1385 H   0  0  0  0  0  0
  -26.0026  -25.9736   19.0109 H   0  0  0  0  0  0
  -23.9642  -27.2978   19.0505 H   0  0  0  0  0  0
  -23.7230  -30.6046   19.4087 H   0  0  0  0  0  0
  -22.7339  -29.2514   19.8684 H   0  0  0  0  0  0
  -25.1285  -36.1974   25.0828 H   0  0  0  0  0  0
  -20.9954  -28.3231   24.1439 H   0  0  0  0  0  0
  -20.5675  -26.2266   23.3600 H   0  0  0  0  0  0
  -21.6639  -26.7448   22.1206 H   0  0  0  0  0  0
  -19.6905  -25.6298   21.1229 H   0  0  0  0  0  0
  -19.6683  -27.3201   20.6748 H   0  0  0  0  0  0
  -17.4192  -26.6672   21.4022 H   0  0  0  0  0  0
  -18.0323  -26.0061   22.9014 H   0  0  0  0  0  0
  -19.7929  -30.7253   24.2286 H   0  0  0  0  0  0
  -17.5013  -31.6263   24.5161 H   0  0  0  0  0  0
  -15.5349  -30.2992   23.7640 H   0  0  0  0  0  0
  -15.8664  -28.0828   22.7048 H   0  0  0  0  0  0
  -24.5904  -30.7062   25.7808 H   0  0  0  0  0  0
  -24.8921  -32.2874   26.4910 H   0  0  0  0  0  0
  -25.8078  -30.8889   27.0228 H   0  0  0  0  0  0
  -26.2847  -29.6809   24.1144 H   0  0  0  0  0  0
  -27.4063  -29.7272   25.4560 H   0  0  0  0  0  0
  -27.8688  -30.4359   23.9258 H   0  0  0  0  0  0
  -27.2662  -33.3618   26.2079 H   0  0  0  0  0  0
  -28.3843  -32.6895   25.0302 H   0  0  0  0  0  0
  -28.0727  -31.8437   26.5384 H   0  0  0  0  0  0
  -28.2598  -38.0112   24.7531 H   0  0  0  0  0  0
  -28.1095  -36.2647   24.6264 H   0  0  0  0  0  0
  -27.2306  -37.1431   25.8863 H   0  0  0  0  0  0
  -20.9302  -29.8768   21.6961 H   0  0  0  0  0  0
  -26.0185  -38.2872   24.1420 H   0  0  0  0  0  0
  -31.1397  -17.3318   20.4285 H   0  0  0  0  0  0
  -26.8885  -18.3631   22.7607 H   0  0  0  0  0  0
  -28.1610  -17.4364   24.9886 H   0  0  0  0  0  0
  -27.7441  -15.8214   25.5717 H   0  0  0  0  0  0
  -26.4754  -16.8960   24.9630 H   0  0  0  0  0  0
  -26.3389  -21.7080   21.5178 H   0  0  0  0  0  0
  -26.7043  -20.6824   22.8993 H   0  0  0  0  0  0
  -25.8332  -20.0238   21.4927 H   0  0  0  0  0  0
  -28.9041  -22.6098   19.4365 H   0  0  0  0  0  0
  -28.9806  -22.7901   21.1671 H   0  0  0  0  0  0
  -30.3143  -24.7932   19.2800 H   0  0  0  0  0  0
  -30.1472  -24.9321   21.0110 H   0  0  0  0  0  0
  -31.5822  -22.8500   20.8324 H   0  0  0  0  0  0
  -31.2873  -22.1973   19.2501 H   0  0  0  0  0  0
  -27.5895  -24.8854   20.6516 H   0  0  0  0  0  0
  -27.9356  -25.0247   18.9303 H   0  0  0  0  0  0
  -30.3886  -20.9080   21.8883 H   0  0  0  0  0  0
  -31.8882  -20.5424   21.0976 H   0  0  0  0  0  0
  -30.2996  -15.4230   23.8339 H   0  0  0  0  0  0
  1 25  1  0  0  0
  1 30  2  0  0  0
  1 77  1  0  0  0
  2  3  1  0  0  0
  2 25  1  0  0  0
  2 90  1  0  0  0
  2 91  1  0  0  0
  3  4  1  0  0  0
  3 92  1  0  0  0
  3 93  1  0  0  0
  4  5  1  0  0  0
  4 94  1  0  0  0
  4 95  1  0  0  0
  5  6  1  0  0  0
  5 26  1  0  0  0
  5 96  1  0  0  0
  6 25  1  0  0  0
  6 97  1  0  0  0
  6 98  1  0  0  0
  7  8  2  0  0  0
  7 26  1  0  0  0
  7 29  1  0  0  0
  8  9  1  0  0  0
  8 22  1  0  0  0
  9 10  1  0  0  0
  9 27  2  0  0  0
 10 11  2  0  0  0
 10 15  1  0  0  0
 11 12  1  0  0  0
 11 99  1  0  0  0
 12 13  2  0  0  0
 12100  1  0  0  0
 13 14  1  0  0  0
 13 31  1  0  0  0
 14 15  2  0  0  0
 14101  1  0  0  0
 15102  1  0  0  0
 16 17  2  0  0  0
 16 21  1  0  0  0
 16 31  1  0  0  0
 17 18  1  0  0  0
 17103  1  0  0  0
 18 19  2  0  0  0
 18104  1  0  0  0
 19 20  1  0  0  0
 19 24  1  0  0  0
 20 21  2  0  0  0
 20105  1  0  0  0
 21 23  1  0  0  0
 22 28  1  0  0  0
 22 32  2  0  0  0
 26 27  1  0  0  0
 28106  1  0  0  0
 28107  1  0  0  0
 29108  1  0  0  0
 29109  1  0  0  0
 33 34  1  0  0  0
 33 66  1  0  0  0
 33 70  2  0  0  0
 34 36  1  0  0  0
 34 59  1  0  0  0
 34110  1  0  0  0
 35 44  2  0  0  0
 35 45  1  0  0  0
 35 68  1  0  0  0
 36 56  1  0  0  0
 36111  1  0  0  0
 37 39  1  0  0  0
 37 47  1  0  0  0
 37 66  1  0  0  0
 37112  1  0  0  0
 38 43  2  0  0  0
 38 46  1  0  0  0
 38 47  1  0  0  0
 39 64  1  0  0  0
 39 67  2  0  0  0
 40 52  1  0  0  0
 40 53  2  0  0  0
 40 58  1  0  0  0
 41113  1  0  0  0
 41114  1  0  0  0
 41115  1  0  0  0
 41 48  1  0  0  0
 42 43  1  0  0  0
 42 66  1  0  0  0
 42116  1  0  0  0
 42117  1  0  0  0
 43 44  1  0  0  0
 44118  1  0  0  0
 45 46  2  0  0  0
 45119  1  0  0  0
 46120  1  0  0  0
 47121  1  0  0  0
 47122  1  0  0  0
 48 56  1  0  0  0
 48 65  1  0  0  0
 48123  1  0  0  0
 49 50  1  0  0  0
 49 53  1  0  0  0
 49 64  1  0  0  0
 49124  1  0  0  0
 50 51  1  0  0  0
 50125  1  0  0  0
 50126  1  0  0  0
 51 52  1  0  0  0
 51127  1  0  0  0
 51128  1  0  0  0
 52129  1  0  0  0
 52130  1  0  0  0
 53 54  1  0  0  0
 54 55  2  0  0  0
 54131  1  0  0  0
 55 57  1  0  0  0
 55132  1  0  0  0
 56 69  2  0  0  0
 57 58  2  0  0  0
 57133  1  0  0  0
 58134  1  0  0  0
 59 60  1  0  0  0
 59 61  1  0  0  0
 59 62  1  0  0  0
 60135  1  0  0  0
 60136  1  0  0  0
 60137  1  0  0  0
 61138  1  0  0  0
 61139  1  0  0  0
 61140  1  0  0  0
 62141  1  0  0  0
 62142  1  0  0  0
 62143  1  0  0  0
 63 65  1  0  0  0
 63144  1  0  0  0
 63145  1  0  0  0
 63146  1  0  0  0
 64147  1  0  0  0
 65148  1  0  0  0
 68 84  1  0  0  0
 71 73  2  0  0  0
 71 76  1  0  0  0
 71149  1  0  0  0
 72 74  2  0  0  0
 72 75  1  0  0  0
 72150  1  0  0  0
 73 74  1  0  0  0
 73 77  1  0  0  0
 74 78  1  0  0  0
 75 76  2  0  0  0
 75 88  1  0  0  0
 76 89  1  0  0  0
 77 86  2  0  0  0
 78 79  1  0  0  0
 78 87  2  0  0  0
 79151  1  0  0  0
 79152  1  0  0  0
 79153  1  0  0  0
 80 88  1  0  0  0
 80154  1  0  0  0
 80155  1  0  0  0
 80156  1  0  0  0
 81 82  1  0  0  0
 81 83  1  0  0  0
 81157  1  0  0  0
 81158  1  0  0  0
 82 84  1  0  0  0
 82159  1  0  0  0
 82160  1  0  0  0
 83 85  1  0  0  0
 83161  1  0  0  0
 83162  1  0  0  0
 84163  1  0  0  0
 84164  1  0  0  0
 85 89  1  0  0  0
 85165  1  0  0  0
 85166  1  0  0  0
 86167  1  0  0  0
M  ISO  4   1 100  68 101  77 100  84 101
M  END
> <chiral flag>
0

> <version>
0

> <s_m_source_file>
/data/baiqing/PycharmProjects/Reinvent-master-3.2/result/LINK_invent/BTK/process_docking_weight1_custom_product_contain_oxygen_bond_distance_aromatic_linkinvent_7_9_3/rearranged_h_0111.sdf

> <i_m_source_file_index>
15

> <r_mmod_Potential_Energy-OPLS-2005>
127.944877624512

> <r_mmod_Stretch_Energy-OPLS-2005>
47.0898742675781

> <r_mmod_Bend_Energy-OPLS-2005>
113.858024597168

> <r_mmod_Torsional_Energy-OPLS-2005>
297.859161376953

> <r_mmod_Improper_Torsional_Energy-OPLS-2005>
3.49382710456848

> <r_mmod_Van_der_Waal_Energy-OPLS-2005>
154.207504272461

> <r_mmod_Electrostatic_Energy-OPLS-2005>
-288.492889404297

> <r_mmod_Solvation_Energy-OPLS-2005>
-211.341369628906

> <b_mmod_Minimization_Converged-OPLS-2005>
0

> <r_mmod_RMS_Derivative-OPLS-2005>
0.514207899570465

$$$$
16
                    3D
 Structure written by MMmdl.
155163  0  0  1  0            999 V2000
  -30.6823  -14.5339   20.5035 C   0  0  0  0  0  0
  -30.4327  -12.3249   19.4489 C   0  0  0  0  0  0
  -29.5100  -12.4964   18.2244 C   0  0  0  0  0  0
  -28.0309  -12.3547   18.6304 C   0  0  0  0  0  0
  -27.6641  -13.2090   19.8742 C   0  0  2  0  0  0
  -28.7090  -13.0369   21.0027 C   0  0  0  0  0  0
  -25.2614  -13.8149   20.5683 C   0  0  0  0  0  0
  -24.1863  -13.0433   20.9186 C   0  0  0  0  0  0
  -24.6408  -11.6901   20.8728 C   0  0  0  0  0  0
  -23.9072  -10.4291   21.0397 C   0  0  0  0  0  0
  -24.3622   -9.4191   21.9159 C   0  0  0  0  0  0
  -23.6292   -8.2234   22.0718 C   0  0  0  0  0  0
  -22.4256   -8.0293   21.3540 C   0  0  0  0  0  0
  -21.9892   -9.0273   20.4649 C   0  0  0  0  0  0
  -22.7241  -10.2148   20.3061 C   0  0  0  0  0  0
  -21.6848   -6.0730   22.5281 C   0  0  0  0  0  0
  -21.4015   -6.5613   23.8221 C   0  0  0  0  0  0
  -21.3670   -5.6765   24.9169 C   0  0  0  0  0  0
  -21.6051   -4.3031   24.7210 C   0  0  0  0  0  0
  -21.8827   -3.8141   23.4323 C   0  0  0  0  0  0
  -21.9194   -4.6966   22.3385 C   0  0  0  0  0  0
  -22.7899  -13.5252   21.1869 C   0  0  0  0  0  0
  -22.1667   -4.2162   21.0963 F   0  0  0  0  0  0
  -21.5631   -3.4510   25.7709 F   0  0  0  0  0  0
  -30.0371  -13.3350   20.4441 N   0  0  0  0  0  0
  -26.3053  -12.9330   20.3359 N   0  0  0  0  0  0
  -25.9342  -11.6479   20.5742 N   0  0  0  0  0  0
  -22.0540  -12.8273   22.0442 N   0  0  0  0  0  0
  -25.4323  -15.1864   20.4074 N   0  0  0  0  0  0
  -31.8390  -14.6832   20.1046 O   0  0  0  0  0  0
  -21.6629   -6.8890   21.4242 O   0  0  0  0  0  0
  -22.3598  -14.5572   20.6732 O   0  0  0  0  0  0
  -24.6172  -31.8649   23.2047 C   0  0  0  0  0  0
  -25.9054  -32.4799   23.8338 C   0  0  1  0  0  0
  -27.2351  -27.4064   20.1045 C   0  0  0  0  0  0
  -25.5910  -33.8597   24.2281 N   0  0  0  0  0  0
  -23.4073  -30.4849   21.5457 C   0  0  2  0  0  0
  -24.8558  -28.9437   20.1153 C   0  0  0  0  0  0
  -22.7425  -29.4627   22.4966 C   0  0  0  0  0  0
  -18.0289  -28.1370   22.8474 C   0  0  0  0  0  0
  -24.1501  -36.7302   23.2633 C   0  0  0  0  0  0
  -25.9389  -30.8213   21.3623 C   0  0  0  0  0  0
  -26.0182  -29.4532   20.7085 C   0  0  0  0  0  0
  -27.2145  -28.6936   20.6979 C   0  0  0  0  0  0
  -26.0580  -26.9160   19.5035 C   0  0  0  0  0  0
  -24.8717  -27.6755   19.5094 C   0  0  0  0  0  0
  -23.6171  -29.8125   20.1630 C   0  0  0  0  0  0
  -25.4117  -36.3086   24.0325 C   0  0  1  0  0  0
  -20.5875  -28.3658   23.1318 C   0  0  2  0  0  0
  -20.6771  -26.9380   22.5447 C   0  0  0  0  0  0
  -19.5771  -26.6363   21.5216 C   0  0  0  0  0  0
  -18.1932  -26.7928   22.1589 C   0  0  0  0  0  0
  -19.1538  -28.8832   23.2895 C   0  0  0  0  0  0
  -18.9457  -30.1438   23.8908 C   0  0  0  0  0  0
  -17.6459  -30.6565   24.0565 C   0  0  0  0  0  0
  -25.9045  -34.9464   23.5097 C   0  0  0  0  0  0
  -16.5356  -29.9068   23.6323 C   0  0  0  0  0  0
  -16.7273  -28.6490   23.0335 C   0  0  0  0  0  0
  -26.4494  -31.6596   25.0669 C   0  0  0  0  0  0
  -25.3791  -31.3778   26.1467 C   0  0  0  0  0  0
  -27.0255  -30.2994   24.6072 C   0  0  0  0  0  0
  -27.6088  -32.4318   25.7385 C   0  0  0  0  0  0
  -27.5615  -37.1757   24.8425 C   0  0  0  0  0  0
  -21.4151  -29.3012   22.3704 N   0  0  0  0  0  0
  -26.4293  -37.3783   23.9432 N   0  0  0  0  0  0
  -24.6718  -31.0724   22.0951 N   0  0  0  0  0  0
  -23.4186  -28.8186   23.3027 O   0  0  0  0  0  0
  -28.3702  -26.6211   20.0942 O   0  0  0  0  0  0
  -26.5605  -34.8934   22.4658 O   0  0  0  0  0  0
  -23.5361  -32.1405   23.7445 O   0  0  0  0  0  0
  -30.5062  -18.0443   22.4202 C   0  0  0  0  0  0
  -30.0811  -20.4139   22.6827 C   0  0  0  0  0  0
  -30.5242  -19.1952   23.2296 C   0  0  0  0  0  0
  -30.0522  -18.1586   21.0970 C   0  0  0  0  0  0
  -29.6185  -20.4831   21.3458 C   0  0  0  0  0  0
  -28.6843  -24.1230   20.3760 C   0  0  0  0  0  0
  -28.8642  -22.9152   21.3709 C   0  0  0  0  0  0
  -31.0410  -19.1393   24.6540 C   0  0  0  0  0  0
  -30.0831  -16.9458   20.1510 C   0  0  0  0  0  0
  -28.3228  -25.4972   21.0119 C   0  0  0  0  0  0
  -29.6245  -19.3502   20.5833 N   0  0  0  0  0  0
  -29.2211  -21.7444   20.7746 N   0  0  0  0  0  0
  -29.8972  -15.6031   20.7527 N   0  0  0  0  0  0
  -28.8200  -23.9909   19.1517 O   0  0  0  0  0  0
  -28.6587  -23.0614   22.5816 O   0  0  0  0  0  0
  -31.4793  -12.4166   19.1541 H   0  0  0  0  0  0
  -30.3348  -11.3233   19.8706 H   0  0  0  0  0  0
  -29.7598  -11.7606   17.4602 H   0  0  0  0  0  0
  -29.6724  -13.4760   17.7704 H   0  0  0  0  0  0
  -27.8485  -11.2991   18.8361 H   0  0  0  0  0  0
  -27.3880  -12.6195   17.7919 H   0  0  0  0  0  0
  -27.6936  -14.2485   19.5474 H   0  0  0  0  0  0
  -28.6935  -12.0167   21.3884 H   0  0  0  0  0  0
  -28.4772  -13.6799   21.8541 H   0  0  0  0  0  0
  -25.2762   -9.5647   22.4736 H   0  0  0  0  0  0
  -24.0009   -7.4592   22.7393 H   0  0  0  0  0  0
  -21.0825   -8.8818   19.8943 H   0  0  0  0  0  0
  -22.3698  -10.9701   19.6194 H   0  0  0  0  0  0
  -21.2005   -7.6114   23.9740 H   0  0  0  0  0  0
  -21.1499   -6.0473   25.9085 H   0  0  0  0  0  0
  -22.0607   -2.7601   23.2823 H   0  0  0  0  0  0
  -22.4131  -11.9919   22.4830 H   0  0  0  0  0  0
  -21.1202  -13.1385   22.2704 H   0  0  0  0  0  0
  -24.6604  -15.8372   20.5037 H   0  0  0  0  0  0
  -26.2748  -15.6269   20.0632 H   0  0  0  0  0  0
  -26.7113  -32.5500   23.1081 H   0  0  0  0  0  0
  -25.0113  -33.9762   25.0458 H   0  0  0  0  0  0
  -22.6958  -31.3009   21.4021 H   0  0  0  0  0  0
  -23.3775  -35.9618   23.3242 H   0  0  0  0  0  0
  -24.3624  -36.8975   22.2058 H   0  0  0  0  0  0
  -23.7246  -37.6483   23.6695 H   0  0  0  0  0  0
  -26.0635  -31.5885   20.5971 H   0  0  0  0  0  0
  -26.8206  -30.8693   21.9879 H   0  0  0  0  0  0
  -28.1133  -29.0818   21.1571 H   0  0  0  0  0  0
  -26.0590  -25.9428   19.0331 H   0  0  0  0  0  0
  -23.9779  -27.2743   19.0516 H   0  0  0  0  0  0
  -23.7273  -30.5821   19.3981 H   0  0  0  0  0  0
  -22.7402  -29.2323   19.8694 H   0  0  0  0  0  0
  -25.1297  -36.1917   25.0816 H   0  0  0  0  0  0
  -20.9983  -28.3248   24.1433 H   0  0  0  0  0  0
  -20.5634  -26.2269   23.3646 H   0  0  0  0  0  0
  -21.6657  -26.7393   22.1289 H   0  0  0  0  0  0
  -19.6935  -25.6275   21.1245 H   0  0  0  0  0  0
  -19.6739  -27.3172   20.6750 H   0  0  0  0  0  0
  -17.4233  -26.6723   21.3953 H   0  0  0  0  0  0
  -18.0272  -26.0048   22.8948 H   0  0  0  0  0  0
  -19.7936  -30.7252   24.2276 H   0  0  0  0  0  0
  -17.5013  -31.6252   24.5166 H   0  0  0  0  0  0
  -15.5352  -30.2968   23.7643 H   0  0  0  0  0  0
  -15.8678  -28.0809   22.7044 H   0  0  0  0  0  0
  -24.5943  -30.7106   25.7891 H   0  0  0  0  0  0
  -24.9018  -32.2974   26.4866 H   0  0  0  0  0  0
  -25.8198  -30.9029   27.0239 H   0  0  0  0  0  0
  -26.2734  -29.6759   24.1222 H   0  0  0  0  0  0
  -27.4072  -29.7256   25.4524 H   0  0  0  0  0  0
  -27.8580  -30.4232   23.9140 H   0  0  0  0  0  0
  -27.2699  -33.3583   26.2037 H   0  0  0  0  0  0
  -28.3824  -32.6957   25.0154 H   0  0  0  0  0  0
  -28.0844  -31.8416   26.5226 H   0  0  0  0  0  0
  -28.2573  -38.0114   24.7589 H   0  0  0  0  0  0
  -28.1178  -36.2668   24.6074 H   0  0  0  0  0  0
  -27.2386  -37.1200   25.8837 H   0  0  0  0  0  0
  -20.9312  -29.8714   21.6908 H   0  0  0  0  0  0
  -26.0170  -38.2836   24.1538 H   0  0  0  0  0  0
  -30.8656  -17.0976   22.8005 H   0  0  0  0  0  0
  -30.1256  -21.2932   23.3084 H   0  0  0  0  0  0
  -31.0164  -18.1250   25.0522 H   0  0  0  0  0  0
  -30.4457  -19.7741   25.3131 H   0  0  0  0  0  0
  -32.0729  -19.4897   24.6929 H   0  0  0  0  0  0
  -31.0152  -17.0023   19.5846 H   0  0  0  0  0  0
  -29.2910  -17.0685   19.4109 H   0  0  0  0  0  0
  -29.0310  -25.6958   21.8173 H   0  0  0  0  0  0
  -27.3392  -25.4112   21.4755 H   0  0  0  0  0  0
  -29.2104  -21.7870   19.7653 H   0  0  0  0  0  0
  -28.9739  -15.4072   21.1062 H   0  0  0  0  0  0
  1 25  1  0  0  0
  1 30  2  0  0  0
  1 83  1  0  0  0
  2  3  1  0  0  0
  2 25  1  0  0  0
  2 86  1  0  0  0
  2 87  1  0  0  0
  3  4  1  0  0  0
  3 88  1  0  0  0
  3 89  1  0  0  0
  4  5  1  0  0  0
  4 90  1  0  0  0
  4 91  1  0  0  0
  5  6  1  0  0  0
  5 26  1  0  0  0
  5 92  1  0  0  0
  6 25  1  0  0  0
  6 93  1  0  0  0
  6 94  1  0  0  0
  7  8  2  0  0  0
  7 26  1  0  0  0
  7 29  1  0  0  0
  8  9  1  0  0  0
  8 22  1  0  0  0
  9 10  1  0  0  0
  9 27  2  0  0  0
 10 11  2  0  0  0
 10 15  1  0  0  0
 11 12  1  0  0  0
 11 95  1  0  0  0
 12 13  2  0  0  0
 12 96  1  0  0  0
 13 14  1  0  0  0
 13 31  1  0  0  0
 14 15  2  0  0  0
 14 97  1  0  0  0
 15 98  1  0  0  0
 16 17  2  0  0  0
 16 21  1  0  0  0
 16 31  1  0  0  0
 17 18  1  0  0  0
 17 99  1  0  0  0
 18 19  2  0  0  0
 18100  1  0  0  0
 19 20  1  0  0  0
 19 24  1  0  0  0
 20 21  2  0  0  0
 20101  1  0  0  0
 21 23  1  0  0  0
 22 28  1  0  0  0
 22 32  2  0  0  0
 26 27  1  0  0  0
 28102  1  0  0  0
 28103  1  0  0  0
 29104  1  0  0  0
 29105  1  0  0  0
 33 34  1  0  0  0
 33 66  1  0  0  0
 33 70  2  0  0  0
 34 36  1  0  0  0
 34 59  1  0  0  0
 34106  1  0  0  0
 35 44  2  0  0  0
 35 45  1  0  0  0
 35 68  1  0  0  0
 36 56  1  0  0  0
 36107  1  0  0  0
 37 39  1  0  0  0
 37 47  1  0  0  0
 37 66  1  0  0  0
 37108  1  0  0  0
 38 43  2  0  0  0
 38 46  1  0  0  0
 38 47  1  0  0  0
 39 64  1  0  0  0
 39 67  2  0  0  0
 40 52  1  0  0  0
 40 53  2  0  0  0
 40 58  1  0  0  0
 41109  1  0  0  0
 41110  1  0  0  0
 41111  1  0  0  0
 41 48  1  0  0  0
 42 43  1  0  0  0
 42 66  1  0  0  0
 42112  1  0  0  0
 42113  1  0  0  0
 43 44  1  0  0  0
 44114  1  0  0  0
 45 46  2  0  0  0
 45115  1  0  0  0
 46116  1  0  0  0
 47117  1  0  0  0
 47118  1  0  0  0
 48 56  1  0  0  0
 48 65  1  0  0  0
 48119  1  0  0  0
 49 50  1  0  0  0
 49 53  1  0  0  0
 49 64  1  0  0  0
 49120  1  0  0  0
 50 51  1  0  0  0
 50121  1  0  0  0
 50122  1  0  0  0
 51 52  1  0  0  0
 51123  1  0  0  0
 51124  1  0  0  0
 52125  1  0  0  0
 52126  1  0  0  0
 53 54  1  0  0  0
 54 55  2  0  0  0
 54127  1  0  0  0
 55 57  1  0  0  0
 55128  1  0  0  0
 56 69  2  0  0  0
 57 58  2  0  0  0
 57129  1  0  0  0
 58130  1  0  0  0
 59 60  1  0  0  0
 59 61  1  0  0  0
 59 62  1  0  0  0
 60131  1  0  0  0
 60132  1  0  0  0
 60133  1  0  0  0
 61134  1  0  0  0
 61135  1  0  0  0
 61136  1  0  0  0
 62137  1  0  0  0
 62138  1  0  0  0
 62139  1  0  0  0
 63 65  1  0  0  0
 63140  1  0  0  0
 63141  1  0  0  0
 63142  1  0  0  0
 64143  1  0  0  0
 65144  1  0  0  0
 68 80  1  0  0  0
 71 73  2  0  0  0
 71 74  1  0  0  0
 71145  1  0  0  0
 72 73  1  0  0  0
 72 75  2  0  0  0
 72146  1  0  0  0
 73 78  1  0  0  0
 74 79  1  0  0  0
 74 81  2  0  0  0
 75 81  1  0  0  0
 75 82  1  0  0  0
 76 77  1  0  0  0
 76 80  1  0  0  0
 76 84  2  0  0  0
 77 82  1  0  0  0
 77 85  2  0  0  0
 78147  1  0  0  0
 78148  1  0  0  0
 78149  1  0  0  0
 79 83  1  0  0  0
 79150  1  0  0  0
 79151  1  0  0  0
 80152  1  0  0  0
 80153  1  0  0  0
 82154  1  0  0  0
 83155  1  0  0  0
M  ISO  4   1 100  68 101  80 101  83 100
M  END
> <chiral flag>
0

> <version>
0

> <s_m_source_file>
/data/baiqing/PycharmProjects/Reinvent-master-3.2/result/LINK_invent/BTK/process_docking_weight1_custom_product_contain_oxygen_bond_distance_aromatic_linkinvent_7_9_3/rearranged_h_0111.sdf

> <i_m_source_file_index>
16

> <r_mmod_Potential_Energy-OPLS-2005>
-313.177673339844

> <r_mmod_Stretch_Energy-OPLS-2005>
47.8420791625977

> <r_mmod_Bend_Energy-OPLS-2005>
105.244361877441

> <r_mmod_Torsional_Energy-OPLS-2005>
243.533660888672

> <r_mmod_Improper_Torsional_Energy-OPLS-2005>
8.37509346008301

> <r_mmod_Van_der_Waal_Energy-OPLS-2005>
152.241668701172

> <r_mmod_Electrostatic_Energy-OPLS-2005>
-651.291137695312

> <r_mmod_Solvation_Energy-OPLS-2005>
-240.63313293457

> <b_mmod_Minimization_Converged-OPLS-2005>
0

> <r_mmod_RMS_Derivative-OPLS-2005>
2.82660961151123

$$$$
17
                    3D
 Structure written by MMmdl.
156164  0  0  1  0            999 V2000
  -30.6114  -14.7906   20.4609 C   0  0  0  0  0  0
  -30.4332  -12.4841   19.4818 C   0  0  0  0  0  0
  -29.5116  -12.5099   18.2416 C   0  0  0  0  0  0
  -28.0413  -12.3236   18.6599 C   0  0  0  0  0  0
  -27.6414  -13.2349   19.8497 C   0  0  2  0  0  0
  -28.6866  -13.1972   20.9874 C   0  0  0  0  0  0
  -25.2532  -13.8202   20.5724 C   0  0  0  0  0  0
  -24.1814  -13.0449   20.9213 C   0  0  0  0  0  0
  -24.6403  -11.6927   20.8751 C   0  0  0  0  0  0
  -23.9082  -10.4298   21.0413 C   0  0  0  0  0  0
  -24.3633   -9.4211   21.9189 C   0  0  0  0  0  0
  -23.6298   -8.2250   22.0757 C   0  0  0  0  0  0
  -22.4280   -8.0288   21.3545 C   0  0  0  0  0  0
  -21.9920   -9.0270   20.4651 C   0  0  0  0  0  0
  -22.7255  -10.2144   20.3060 C   0  0  0  0  0  0
  -21.6859   -6.0737   22.5277 C   0  0  0  0  0  0
  -21.4018   -6.5642   23.8211 C   0  0  0  0  0  0
  -21.3655   -5.6797   24.9173 C   0  0  0  0  0  0
  -21.6043   -4.3060   24.7224 C   0  0  0  0  0  0
  -21.8816   -3.8145   23.4351 C   0  0  0  0  0  0
  -21.9196   -4.6963   22.3407 C   0  0  0  0  0  0
  -22.7838  -13.5237   21.1870 C   0  0  0  0  0  0
  -22.1658   -4.2143   21.0988 F   0  0  0  0  0  0
  -21.5633   -3.4545   25.7739 F   0  0  0  0  0  0
  -29.9834  -13.5594   20.4020 N   0  0  0  0  0  0
  -26.2950  -12.9406   20.3301 N   0  0  0  0  0  0
  -25.9337  -11.6548   20.5776 N   0  0  0  0  0  0
  -22.0480  -12.8219   22.0414 N   0  0  0  0  0  0
  -25.4248  -15.1926   20.4145 N   0  0  0  0  0  0
  -31.7914  -14.8575   20.1118 O   0  0  0  0  0  0
  -21.6647   -6.8881   21.4238 O   0  0  0  0  0  0
  -22.3521  -14.5551   20.6734 O   0  0  0  0  0  0
  -24.6350  -31.8518   23.1963 C   0  0  0  0  0  0
  -25.9169  -32.4741   23.8319 C   0  0  1  0  0  0
  -27.2225  -27.2242   20.1427 C   0  0  0  0  0  0
  -25.5959  -33.8549   24.2241 N   0  0  0  0  0  0
  -23.4330  -30.4721   21.5397 C   0  0  2  0  0  0
  -24.8832  -28.9127   20.1110 C   0  0  0  0  0  0
  -22.7511  -29.4584   22.4911 C   0  0  0  0  0  0
  -18.0285  -28.1401   22.8488 C   0  0  0  0  0  0
  -24.1487  -36.7262   23.2639 C   0  0  0  0  0  0
  -25.9822  -30.7495   21.3852 C   0  0  0  0  0  0
  -26.0539  -29.3682   20.7314 C   0  0  0  0  0  0
  -27.2235  -28.5347   20.7406 C   0  0  0  0  0  0
  -26.0350  -26.8554   19.4717 C   0  0  0  0  0  0
  -24.8811  -27.6644   19.4701 C   0  0  0  0  0  0
  -23.6534  -29.8024   20.1574 C   0  0  0  0  0  0
  -25.4119  -36.3060   24.0319 C   0  0  1  0  0  0
  -20.5896  -28.3712   23.1268 C   0  0  2  0  0  0
  -20.6792  -26.9428   22.5418 C   0  0  0  0  0  0
  -19.5768  -26.6388   21.5219 C   0  0  0  0  0  0
  -18.1931  -26.7952   22.1602 C   0  0  0  0  0  0
  -19.1542  -28.8870   23.2874 C   0  0  0  0  0  0
  -18.9460  -30.1470   23.8897 C   0  0  0  0  0  0
  -17.6461  -30.6614   24.0560 C   0  0  0  0  0  0
  -25.9063  -34.9434   23.5074 C   0  0  0  0  0  0
  -16.5348  -29.9104   23.6354 C   0  0  0  0  0  0
  -16.7269  -28.6518   23.0380 C   0  0  0  0  0  0
  -26.4524  -31.6590   25.0729 C   0  0  0  0  0  0
  -25.3733  -31.3773   26.1446 C   0  0  0  0  0  0
  -27.0378  -30.2994   24.6268 C   0  0  0  0  0  0
  -27.6092  -32.4337   25.7475 C   0  0  0  0  0  0
  -27.5582  -37.1778   24.8463 C   0  0  0  0  0  0
  -21.4219  -29.3047   22.3651 N   0  0  0  0  0  0
  -26.4285  -37.3772   23.9416 N   0  0  0  0  0  0
  -24.7023  -31.0440   22.0960 N   0  0  0  0  0  0
  -23.4192  -28.8145   23.3043 O   0  0  0  0  0  0
  -28.3080  -26.3038   20.1853 O   0  0  0  0  0  0
  -26.5631  -34.8919   22.4641 O   0  0  0  0  0  0
  -23.5489  -32.1360   23.7232 O   0  0  0  0  0  0
  -31.1777  -19.5050   20.8733 C   0  0  0  0  0  0
  -31.2657  -18.0564   20.9732 C   0  0  0  0  0  0
  -29.9440  -20.0615   20.6011 C   0  0  0  0  0  0
  -30.1090  -17.3356   20.7047 C   0  0  0  0  0  0
  -32.5481  -17.4290   21.3373 C   0  0  0  0  0  0
  -33.7695  -17.9453   21.1100 C   0  0  0  0  0  0
  -28.0965  -24.8795   20.2957 C   0  0  0  0  0  0
  -29.0398  -23.8469   20.2924 C   0  0  0  0  0  0
  -28.6877  -22.3581   20.3883 C   0  0  0  0  0  0
  -35.0651  -17.2779   21.5198 C   0  0  0  0  0  0
  -30.5169  -24.1982   20.1784 C   0  0  0  0  0  0
  -29.7473  -21.4643   20.5015 N   0  0  0  0  0  0
  -29.8426  -15.9363   20.7032 N   0  0  0  0  0  0
  -27.5302  -21.9360   20.3611 O   0  0  0  0  0  0
  -28.8556  -18.6305   20.4222 S   0  0  0  0  0  0
  -31.4739  -12.6046   19.1771 H   0  0  0  0  0  0
  -30.3835  -11.5143   19.9787 H   0  0  0  0  0  0
  -29.8030  -11.7273   17.5401 H   0  0  0  0  0  0
  -29.6262  -13.4564   17.7113 H   0  0  0  0  0  0
  -27.9124  -11.2770   18.9393 H   0  0  0  0  0  0
  -27.3780  -12.4927   17.8102 H   0  0  0  0  0  0
  -27.6293  -14.2503   19.4525 H   0  0  0  0  0  0
  -28.7341  -12.2076   21.4444 H   0  0  0  0  0  0
  -28.4128  -13.8878   21.7862 H   0  0  0  0  0  0
  -25.2779   -9.5682   22.4763 H   0  0  0  0  0  0
  -24.0002   -7.4643   22.7472 H   0  0  0  0  0  0
  -21.0853   -8.8799   19.8955 H   0  0  0  0  0  0
  -22.3725  -10.9694   19.6169 H   0  0  0  0  0  0
  -21.2003   -7.6143   23.9713 H   0  0  0  0  0  0
  -21.1480   -6.0527   25.9076 H   0  0  0  0  0  0
  -22.0596   -2.7604   23.2860 H   0  0  0  0  0  0
  -22.4098  -11.9870   22.4788 H   0  0  0  0  0  0
  -21.1105  -13.1249   22.2645 H   0  0  0  0  0  0
  -24.6590  -15.8488   20.5274 H   0  0  0  0  0  0
  -26.2717  -15.6305   20.0763 H   0  0  0  0  0  0
  -26.7238  -32.5375   23.1056 H   0  0  0  0  0  0
  -25.0166  -33.9699   25.0423 H   0  0  0  0  0  0
  -22.7319  -31.2962   21.3910 H   0  0  0  0  0  0
  -23.3784  -35.9560   23.3274 H   0  0  0  0  0  0
  -24.3574  -36.8917   22.2061 H   0  0  0  0  0  0
  -23.7200  -37.6427   23.6696 H   0  0  0  0  0  0
  -26.1283  -31.5053   20.6127 H   0  0  0  0  0  0
  -26.8571  -30.7982   22.0231 H   0  0  0  0  0  0
  -28.1167  -28.8744   21.2457 H   0  0  0  0  0  0
  -25.9797  -25.9082   18.9558 H   0  0  0  0  0  0
  -23.9887  -27.3138   18.9709 H   0  0  0  0  0  0
  -23.7743  -30.5780   19.3999 H   0  0  0  0  0  0
  -22.7716  -29.2343   19.8537 H   0  0  0  0  0  0
  -25.1300  -36.1891   25.0813 H   0  0  0  0  0  0
  -20.9967  -28.3301   24.1398 H   0  0  0  0  0  0
  -20.5702  -26.2317   23.3628 H   0  0  0  0  0  0
  -21.6653  -26.7465   22.1191 H   0  0  0  0  0  0
  -19.6932  -25.6290   21.1274 H   0  0  0  0  0  0
  -19.6734  -27.3184   20.6743 H   0  0  0  0  0  0
  -17.4216  -26.6731   21.3986 H   0  0  0  0  0  0
  -18.0292  -26.0076   22.8969 H   0  0  0  0  0  0
  -19.7937  -30.7282   24.2276 H   0  0  0  0  0  0
  -17.5016  -31.6303   24.5143 H   0  0  0  0  0  0
  -15.5350  -30.3004   23.7707 H   0  0  0  0  0  0
  -15.8661  -28.0829   22.7127 H   0  0  0  0  0  0
  -24.5914  -30.7111   25.7774 H   0  0  0  0  0  0
  -24.8914  -32.2952   26.4829 H   0  0  0  0  0  0
  -25.8022  -30.8979   27.0255 H   0  0  0  0  0  0
  -26.2968  -29.6715   24.1303 H   0  0  0  0  0  0
  -27.4047  -29.7299   25.4818 H   0  0  0  0  0  0
  -27.8860  -30.4249   23.9533 H   0  0  0  0  0  0
  -27.2742  -33.3700   26.1956 H   0  0  0  0  0  0
  -28.3943  -32.6787   25.0305 H   0  0  0  0  0  0
  -28.0716  -31.8510   26.5453 H   0  0  0  0  0  0
  -28.2597  -38.0084   24.7524 H   0  0  0  0  0  0
  -28.1088  -36.2611   24.6271 H   0  0  0  0  0  0
  -27.2304  -37.1387   25.8870 H   0  0  0  0  0  0
  -20.9422  -29.8730   21.6816 H   0  0  0  0  0  0
  -26.0161  -38.2840   24.1445 H   0  0  0  0  0  0
  -32.0518  -20.1140   21.0499 H   0  0  0  0  0  0
  -32.4843  -16.4855   21.8591 H   0  0  0  0  0  0
  -33.8770  -18.8914   20.5982 H   0  0  0  0  0  0
  -27.0487  -24.6364   20.3979 H   0  0  0  0  0  0
  -34.8850  -16.3233   22.0159 H   0  0  0  0  0  0
  -35.6209  -17.9208   22.2029 H   0  0  0  0  0  0
  -35.6865  -17.0935   20.6430 H   0  0  0  0  0  0
  -30.6613  -25.2660   20.0144 H   0  0  0  0  0  0
  -30.9781  -23.6746   19.3401 H   0  0  0  0  0  0
  -31.0444  -23.9295   21.0947 H   0  0  0  0  0  0
  -30.6151  -21.9800   20.5494 H   0  0  0  0  0  0
  -28.8701  -15.7101   20.8413 H   0  0  0  0  0  0
  1 25  1  0  0  0
  1 30  2  0  0  0
  1 83  1  0  0  0
  2  3  1  0  0  0
  2 25  1  0  0  0
  2 86  1  0  0  0
  2 87  1  0  0  0
  3  4  1  0  0  0
  3 88  1  0  0  0
  3 89  1  0  0  0
  4  5  1  0  0  0
  4 90  1  0  0  0
  4 91  1  0  0  0
  5  6  1  0  0  0
  5 26  1  0  0  0
  5 92  1  0  0  0
  6 25  1  0  0  0
  6 93  1  0  0  0
  6 94  1  0  0  0
  7  8  2  0  0  0
  7 26  1  0  0  0
  7 29  1  0  0  0
  8  9  1  0  0  0
  8 22  1  0  0  0
  9 10  1  0  0  0
  9 27  2  0  0  0
 10 11  2  0  0  0
 10 15  1  0  0  0
 11 12  1  0  0  0
 11 95  1  0  0  0
 12 13  2  0  0  0
 12 96  1  0  0  0
 13 14  1  0  0  0
 13 31  1  0  0  0
 14 15  2  0  0  0
 14 97  1  0  0  0
 15 98  1  0  0  0
 16 17  2  0  0  0
 16 21  1  0  0  0
 16 31  1  0  0  0
 17 18  1  0  0  0
 17 99  1  0  0  0
 18 19  2  0  0  0
 18100  1  0  0  0
 19 20  1  0  0  0
 19 24  1  0  0  0
 20 21  2  0  0  0
 20101  1  0  0  0
 21 23  1  0  0  0
 22 28  1  0  0  0
 22 32  2  0  0  0
 26 27  1  0  0  0
 28102  1  0  0  0
 28103  1  0  0  0
 29104  1  0  0  0
 29105  1  0  0  0
 33 34  1  0  0  0
 33 66  1  0  0  0
 33 70  2  0  0  0
 34 36  1  0  0  0
 34 59  1  0  0  0
 34106  1  0  0  0
 35 44  2  0  0  0
 35 45  1  0  0  0
 35 68  1  0  0  0
 36 56  1  0  0  0
 36107  1  0  0  0
 37 39  1  0  0  0
 37 47  1  0  0  0
 37 66  1  0  0  0
 37108  1  0  0  0
 38 43  2  0  0  0
 38 46  1  0  0  0
 38 47  1  0  0  0
 39 64  1  0  0  0
 39 67  2  0  0  0
 40 52  1  0  0  0
 40 53  2  0  0  0
 40 58  1  0  0  0
 41109  1  0  0  0
 41110  1  0  0  0
 41111  1  0  0  0
 41 48  1  0  0  0
 42 43  1  0  0  0
 42 66  1  0  0  0
 42112  1  0  0  0
 42113  1  0  0  0
 43 44  1  0  0  0
 44114  1  0  0  0
 45 46  2  0  0  0
 45115  1  0  0  0
 46116  1  0  0  0
 47117  1  0  0  0
 47118  1  0  0  0
 48 56  1  0  0  0
 48 65  1  0  0  0
 48119  1  0  0  0
 49 50  1  0  0  0
 49 53  1  0  0  0
 49 64  1  0  0  0
 49120  1  0  0  0
 50 51  1  0  0  0
 50121  1  0  0  0
 50122  1  0  0  0
 51 52  1  0  0  0
 51123  1  0  0  0
 51124  1  0  0  0
 52125  1  0  0  0
 52126  1  0  0  0
 53 54  1  0  0  0
 54 55  2  0  0  0
 54127  1  0  0  0
 55 57  1  0  0  0
 55128  1  0  0  0
 56 69  2  0  0  0
 57 58  2  0  0  0
 57129  1  0  0  0
 58130  1  0  0  0
 59 60  1  0  0  0
 59 61  1  0  0  0
 59 62  1  0  0  0
 60131  1  0  0  0
 60132  1  0  0  0
 60133  1  0  0  0
 61134  1  0  0  0
 61135  1  0  0  0
 61136  1  0  0  0
 62137  1  0  0  0
 62138  1  0  0  0
 62139  1  0  0  0
 63 65  1  0  0  0
 63140  1  0  0  0
 63141  1  0  0  0
 63142  1  0  0  0
 64143  1  0  0  0
 65144  1  0  0  0
 68 77  1  0  0  0
 71 72  1  0  0  0
 71 73  2  0  0  0
 71145  1  0  0  0
 72 74  2  0  0  0
 72 75  1  0  0  0
 73 82  1  0  0  0
 73 85  1  0  0  0
 74 83  1  0  0  0
 74 85  1  0  0  0
 75 76  2  0  0  0
 75146  1  0  0  0
 76 80  1  0  0  0
 76147  1  0  0  0
 77 78  2  0  0  0
 77148  1  0  0  0
 78 79  1  0  0  0
 78 81  1  0  0  0
 79 82  1  0  0  0
 79 84  2  0  0  0
 80149  1  0  0  0
 80150  1  0  0  0
 80151  1  0  0  0
 81152  1  0  0  0
 81153  1  0  0  0
 81154  1  0  0  0
 82155  1  0  0  0
 83156  1  0  0  0
M  ISO  4   1 100  68 101  77 101  83 100
M  END
> <chiral flag>
0

> <version>
0

> <s_m_source_file>
/data/baiqing/PycharmProjects/Reinvent-master-3.2/result/LINK_invent/BTK/process_docking_weight1_custom_product_contain_oxygen_bond_distance_aromatic_linkinvent_7_9_3/rearranged_h_0111.sdf

> <i_m_source_file_index>
17

> <r_mmod_Potential_Energy-OPLS-2005>
181.030548095703

> <r_mmod_Stretch_Energy-OPLS-2005>
135.847518920898

> <r_mmod_Bend_Energy-OPLS-2005>
203.658279418945

> <r_mmod_Torsional_Energy-OPLS-2005>
226.632186889648

> <r_mmod_Improper_Torsional_Energy-OPLS-2005>
4.8943338394165

> <r_mmod_Van_der_Waal_Energy-OPLS-2005>
125.00772857666

> <r_mmod_Electrostatic_Energy-OPLS-2005>
-399.127655029297

> <r_mmod_Solvation_Energy-OPLS-2005>
-222.062469482422

> <b_mmod_Minimization_Converged-OPLS-2005>
0

> <r_mmod_RMS_Derivative-OPLS-2005>
1.75225639343262

$$$$
18
                    3D
 Structure written by MMmdl.
156164  0  0  1  0            999 V2000
  -30.8442  -14.5379   20.4582 C   0  0  0  0  0  0
  -30.3643  -12.3005   19.5199 C   0  0  0  0  0  0
  -29.4993  -12.4392   18.2530 C   0  0  0  0  0  0
  -28.0188  -12.3223   18.6488 C   0  0  0  0  0  0
  -27.6428  -13.2418   19.8476 C   0  0  2  0  0  0
  -28.6880  -13.2045   20.9879 C   0  0  0  0  0  0
  -25.2502  -13.8265   20.5747 C   0  0  0  0  0  0
  -24.1792  -13.0491   20.9208 C   0  0  0  0  0  0
  -24.6405  -11.6970   20.8762 C   0  0  0  0  0  0
  -23.9087  -10.4320   21.0397 C   0  0  0  0  0  0
  -24.3639   -9.4224   21.9163 C   0  0  0  0  0  0
  -23.6307   -8.2251   22.0737 C   0  0  0  0  0  0
  -22.4288   -8.0283   21.3526 C   0  0  0  0  0  0
  -21.9917   -9.0269   20.4628 C   0  0  0  0  0  0
  -22.7255  -10.2154   20.3046 C   0  0  0  0  0  0
  -21.6842   -6.0724   22.5266 C   0  0  0  0  0  0
  -21.4010   -6.5627   23.8204 C   0  0  0  0  0  0
  -21.3657   -5.6782   24.9173 C   0  0  0  0  0  0
  -21.6037   -4.3040   24.7222 C   0  0  0  0  0  0
  -21.8834   -3.8135   23.4348 C   0  0  0  0  0  0
  -21.9195   -4.6944   22.3403 C   0  0  0  0  0  0
  -22.7791  -13.5225   21.1831 C   0  0  0  0  0  0
  -22.1652   -4.2122   21.0977 F   0  0  0  0  0  0
  -21.5630   -3.4547   25.7750 F   0  0  0  0  0  0
  -30.0183  -13.4362   20.4189 N   0  0  0  0  0  0
  -26.2958  -12.9499   20.3339 N   0  0  0  0  0  0
  -25.9348  -11.6636   20.5831 N   0  0  0  0  0  0
  -22.0494  -12.8170   22.0396 N   0  0  0  0  0  0
  -25.4255  -15.1999   20.4192 N   0  0  0  0  0  0
  -31.9864  -14.3992   20.0257 O   0  0  0  0  0  0
  -21.6640   -6.8888   21.4237 O   0  0  0  0  0  0
  -22.3427  -14.5521   20.6687 O   0  0  0  0  0  0
  -24.6186  -31.8633   23.2085 C   0  0  0  0  0  0
  -25.9066  -32.4793   23.8367 C   0  0  1  0  0  0
  -27.2129  -27.3861   20.0956 C   0  0  0  0  0  0
  -25.5886  -33.8605   24.2288 N   0  0  0  0  0  0
  -23.4064  -30.4918   21.5485 C   0  0  2  0  0  0
  -24.8464  -28.9516   20.1138 C   0  0  0  0  0  0
  -22.7428  -29.4661   22.4956 C   0  0  0  0  0  0
  -18.0314  -28.1391   22.8469 C   0  0  0  0  0  0
  -24.1502  -36.7335   23.2640 C   0  0  0  0  0  0
  -25.9415  -30.8130   21.3696 C   0  0  0  0  0  0
  -26.0107  -29.4476   20.7108 C   0  0  0  0  0  0
  -27.1955  -28.6720   20.6985 C   0  0  0  0  0  0
  -26.0233  -26.9151   19.4940 C   0  0  0  0  0  0
  -24.8502  -27.6884   19.5028 C   0  0  0  0  0  0
  -23.6135  -29.8272   20.1625 C   0  0  0  0  0  0
  -25.4123  -36.3115   24.0319 C   0  0  1  0  0  0
  -20.5888  -28.3683   23.1360 C   0  0  2  0  0  0
  -20.6811  -26.9405   22.5507 C   0  0  0  0  0  0
  -19.5809  -26.6403   21.5252 C   0  0  0  0  0  0
  -18.1973  -26.7942   22.1621 C   0  0  0  0  0  0
  -19.1556  -28.8862   23.2891 C   0  0  0  0  0  0
  -18.9474  -30.1467   23.8851 C   0  0  0  0  0  0
  -17.6460  -30.6585   24.0518 C   0  0  0  0  0  0
  -25.9046  -34.9469   23.5109 C   0  0  0  0  0  0
  -16.5360  -29.9052   23.6303 C   0  0  0  0  0  0
  -16.7297  -28.6490   23.0321 C   0  0  0  0  0  0
  -26.4476  -31.6597   25.0729 C   0  0  0  0  0  0
  -25.3744  -31.3739   26.1476 C   0  0  0  0  0  0
  -27.0284  -30.3019   24.6163 C   0  0  0  0  0  0
  -27.6012  -32.4343   25.7513 C   0  0  0  0  0  0
  -27.5590  -37.1824   24.8457 C   0  0  0  0  0  0
  -21.4144  -29.3021   22.3681 N   0  0  0  0  0  0
  -26.4308  -37.3794   23.9394 N   0  0  0  0  0  0
  -24.6729  -31.0727   22.1000 N   0  0  0  0  0  0
  -23.4191  -28.8208   23.3015 O   0  0  0  0  0  0
  -28.3750  -26.6326   20.1303 O   0  0  0  0  0  0
  -26.5620  -34.8910   22.4694 O   0  0  0  0  0  0
  -23.5365  -32.1369   23.7490 O   0  0  0  0  0  0
  -29.1673  -18.0165   20.4337 C   0  0  0  0  0  0
  -28.6124  -16.6200   22.3258 C   0  0  0  0  0  0
  -27.5531  -18.8185   22.0391 C   0  0  0  0  0  0
  -29.4038  -16.8124   21.1681 C   0  0  0  0  0  0
  -28.3046  -19.0531   20.8652 C   0  0  0  0  0  0
  -27.6931  -17.6074   22.7508 C   0  0  0  0  0  0
  -28.0726  -21.4344   20.5612 C   0  0  0  0  0  0
  -28.0985  -22.7215   19.7216 C   0  0  0  0  0  0
  -27.9293  -24.1092   20.4064 C   0  0  0  0  0  0
  -28.4228  -25.3120   19.5321 C   0  0  0  0  0  0
  -30.6837  -16.0578   20.8728 C   0  0  2  0  0  0
  -28.2672  -20.2437   20.0958 N   0  0  0  0  0  0
  -31.7672  -16.4656   21.7824 N   0  3  0  0  0  0
  -28.2573  -22.6671   18.4946 O   0  0  0  0  0  0
  -26.9797  -17.4077   23.8837 F   0  0  0  0  0  0
  -31.4187  -12.2390   19.2459 H   0  0  0  0  0  0
  -30.1577  -11.3482   20.0137 H   0  0  0  0  0  0
  -29.7543  -11.6612   17.5327 H   0  0  0  0  0  0
  -29.6938  -13.3987   17.7705 H   0  0  0  0  0  0
  -27.8378  -11.2787   18.9151 H   0  0  0  0  0  0
  -27.3771  -12.5257   17.7924 H   0  0  0  0  0  0
  -27.6393  -14.2579   19.4558 H   0  0  0  0  0  0
  -28.6584  -12.2404   21.4997 H   0  0  0  0  0  0
  -28.4556  -13.9482   21.7438 H   0  0  0  0  0  0
  -25.2809   -9.5660   22.4716 H   0  0  0  0  0  0
  -23.9992   -7.4635   22.7461 H   0  0  0  0  0  0
  -21.0832   -8.8805   19.8941 H   0  0  0  0  0  0
  -22.3723  -10.9692   19.6142 H   0  0  0  0  0  0
  -21.2007   -7.6130   23.9688 H   0  0  0  0  0  0
  -21.1451   -6.0518   25.9069 H   0  0  0  0  0  0
  -22.0625   -2.7590   23.2874 H   0  0  0  0  0  0
  -22.4134  -11.9800   22.4714 H   0  0  0  0  0  0
  -21.1122  -13.1147   22.2701 H   0  0  0  0  0  0
  -24.6730  -15.8693   20.5454 H   0  0  0  0  0  0
  -26.3025  -15.6356   20.1630 H   0  0  0  0  0  0
  -26.7135  -32.5507   23.1103 H   0  0  0  0  0  0
  -24.9986  -33.9752   25.0397 H   0  0  0  0  0  0
  -22.7012  -31.3125   21.4087 H   0  0  0  0  0  0
  -23.3741  -35.9691   23.3321 H   0  0  0  0  0  0
  -24.3593  -36.8951   22.2051 H   0  0  0  0  0  0
  -23.7273  -37.6555   23.6653 H   0  0  0  0  0  0
  -26.0675  -31.5770   20.6002 H   0  0  0  0  0  0
  -26.8259  -30.8564   21.9944 H   0  0  0  0  0  0
  -28.0963  -29.0500   21.1604 H   0  0  0  0  0  0
  -25.9654  -25.9465   19.0245 H   0  0  0  0  0  0
  -23.9503  -27.2986   19.0442 H   0  0  0  0  0  0
  -23.7264  -30.6006   19.4019 H   0  0  0  0  0  0
  -22.7339  -29.2489   19.8705 H   0  0  0  0  0  0
  -25.1308  -36.1971   25.0806 H   0  0  0  0  0  0
  -20.9969  -28.3354   24.1504 H   0  0  0  0  0  0
  -20.5709  -26.2316   23.3701 H   0  0  0  0  0  0
  -21.6693  -26.7480   22.1265 H   0  0  0  0  0  0
  -19.7020  -25.6328   21.1272 H   0  0  0  0  0  0
  -19.6733  -27.3233   20.6809 H   0  0  0  0  0  0
  -17.4256  -26.6659   21.3988 H   0  0  0  0  0  0
  -18.0390  -26.0137   22.9071 H   0  0  0  0  0  0
  -19.7948  -30.7306   24.2159 H   0  0  0  0  0  0
  -17.5032  -31.6283   24.5114 H   0  0  0  0  0  0
  -15.5333  -30.2888   23.7584 H   0  0  0  0  0  0
  -15.8713  -28.0780   22.7039 H   0  0  0  0  0  0
  -24.5869  -30.7114   25.7872 H   0  0  0  0  0  0
  -24.8961  -32.2894   26.4965 H   0  0  0  0  0  0
  -25.8077  -30.8900   27.0232 H   0  0  0  0  0  0
  -26.2796  -29.6776   24.1240 H   0  0  0  0  0  0
  -27.4044  -29.7280   25.4657 H   0  0  0  0  0  0
  -27.8676  -30.4331   23.9314 H   0  0  0  0  0  0
  -27.2555  -33.3597   26.2147 H   0  0  0  0  0  0
  -28.3779  -32.6987   25.0327 H   0  0  0  0  0  0
  -28.0711  -31.8441   26.5383 H   0  0  0  0  0  0
  -28.2620  -38.0116   24.7476 H   0  0  0  0  0  0
  -28.1063  -36.2627   24.6300 H   0  0  0  0  0  0
  -27.2299  -37.1519   25.8864 H   0  0  0  0  0  0
  -20.9264  -29.8670   21.6859 H   0  0  0  0  0  0
  -26.0196  -38.2895   24.1330 H   0  0  0  0  0  0
  -29.7696  -18.2238   19.5567 H   0  0  0  0  0  0
  -28.7669  -15.7594   22.9624 H   0  0  0  0  0  0
  -26.8647  -19.5567   22.4228 H   0  0  0  0  0  0
  -27.8888  -21.5782   21.6282 H   0  0  0  0  0  0
  -28.4682  -24.0919   21.3548 H   0  0  0  0  0  0
  -26.8732  -24.2403   20.6483 H   0  0  0  0  0  0
  -27.9478  -25.3192   18.5520 H   0  0  0  0  0  0
  -29.4729  -25.1366   19.3072 H   0  0  0  0  0  0
  -31.0299  -16.5090   19.9354 H   0  0  0  0  0  0
  -31.8214  -17.4641   21.8792 H   0  0  0  0  0  0
  -32.6146  -16.1281   21.3526 H   0  0  0  0  0  0
  -31.6854  -16.0357   22.6845 H   0  0  0  0  0  0
  1 25  1  0  0  0
  1 30  2  0  0  0
  1 81  1  0  0  0
  2  3  1  0  0  0
  2 25  1  0  0  0
  2 86  1  0  0  0
  2 87  1  0  0  0
  3  4  1  0  0  0
  3 88  1  0  0  0
  3 89  1  0  0  0
  4  5  1  0  0  0
  4 90  1  0  0  0
  4 91  1  0  0  0
  5  6  1  0  0  0
  5 26  1  0  0  0
  5 92  1  0  0  0
  6 25  1  0  0  0
  6 93  1  0  0  0
  6 94  1  0  0  0
  7  8  2  0  0  0
  7 26  1  0  0  0
  7 29  1  0  0  0
  8  9  1  0  0  0
  8 22  1  0  0  0
  9 10  1  0  0  0
  9 27  2  0  0  0
 10 11  2  0  0  0
 10 15  1  0  0  0
 11 12  1  0  0  0
 11 95  1  0  0  0
 12 13  2  0  0  0
 12 96  1  0  0  0
 13 14  1  0  0  0
 13 31  1  0  0  0
 14 15  2  0  0  0
 14 97  1  0  0  0
 15 98  1  0  0  0
 16 17  2  0  0  0
 16 21  1  0  0  0
 16 31  1  0  0  0
 17 18  1  0  0  0
 17 99  1  0  0  0
 18 19  2  0  0  0
 18100  1  0  0  0
 19 20  1  0  0  0
 19 24  1  0  0  0
 20 21  2  0  0  0
 20101  1  0  0  0
 21 23  1  0  0  0
 22 28  1  0  0  0
 22 32  2  0  0  0
 26 27  1  0  0  0
 28102  1  0  0  0
 28103  1  0  0  0
 29104  1  0  0  0
 29105  1  0  0  0
 33 34  1  0  0  0
 33 66  1  0  0  0
 33 70  2  0  0  0
 34 36  1  0  0  0
 34 59  1  0  0  0
 34106  1  0  0  0
 35 44  2  0  0  0
 35 45  1  0  0  0
 35 68  1  0  0  0
 36 56  1  0  0  0
 36107  1  0  0  0
 37 39  1  0  0  0
 37 47  1  0  0  0
 37 66  1  0  0  0
 37108  1  0  0  0
 38 43  2  0  0  0
 38 46  1  0  0  0
 38 47  1  0  0  0
 39 64  1  0  0  0
 39 67  2  0  0  0
 40 52  1  0  0  0
 40 53  2  0  0  0
 40 58  1  0  0  0
 41109  1  0  0  0
 41110  1  0  0  0
 41111  1  0  0  0
 41 48  1  0  0  0
 42 43  1  0  0  0
 42 66  1  0  0  0
 42112  1  0  0  0
 42113  1  0  0  0
 43 44  1  0  0  0
 44114  1  0  0  0
 45 46  2  0  0  0
 45115  1  0  0  0
 46116  1  0  0  0
 47117  1  0  0  0
 47118  1  0  0  0
 48 56  1  0  0  0
 48 65  1  0  0  0
 48119  1  0  0  0
 49 50  1  0  0  0
 49 53  1  0  0  0
 49 64  1  0  0  0
 49120  1  0  0  0
 50 51  1  0  0  0
 50121  1  0  0  0
 50122  1  0  0  0
 51 52  1  0  0  0
 51123  1  0  0  0
 51124  1  0  0  0
 52125  1  0  0  0
 52126  1  0  0  0
 53 54  1  0  0  0
 54 55  2  0  0  0
 54127  1  0  0  0
 55 57  1  0  0  0
 55128  1  0  0  0
 56 69  2  0  0  0
 57 58  2  0  0  0
 57129  1  0  0  0
 58130  1  0  0  0
 59 60  1  0  0  0
 59 61  1  0  0  0
 59 62  1  0  0  0
 60131  1  0  0  0
 60132  1  0  0  0
 60133  1  0  0  0
 61134  1  0  0  0
 61135  1  0  0  0
 61136  1  0  0  0
 62137  1  0  0  0
 62138  1  0  0  0
 62139  1  0  0  0
 63 65  1  0  0  0
 63140  1  0  0  0
 63141  1  0  0  0
 63142  1  0  0  0
 64143  1  0  0  0
 65144  1  0  0  0
 68 80  1  0  0  0
 71 74  2  0  0  0
 71 75  1  0  0  0
 71145  1  0  0  0
 72 74  1  0  0  0
 72 76  2  0  0  0
 72146  1  0  0  0
 73 75  2  0  0  0
 73 76  1  0  0  0
 73147  1  0  0  0
 74 81  1  0  0  0
 75 82  1  0  0  0
 76 85  1  0  0  0
 77 78  1  0  0  0
 77 82  2  0  0  0
 77148  1  0  0  0
 78 79  1  0  0  0
 78 84  2  0  0  0
 79 80  1  0  0  0
 79149  1  0  0  0
 79150  1  0  0  0
 80151  1  0  0  0
 80152  1  0  0  0
 81 83  1  0  0  0
 81153  1  0  0  0
 83154  1  0  0  0
 83155  1  0  0  0
 83156  1  0  0  0
M  CHG  1  83   1
M  ISO  4   1 100  68 101  80 101  81 100
M  END
> <chiral flag>
0

> <version>
0

> <s_m_source_file>
/data/baiqing/PycharmProjects/Reinvent-master-3.2/result/LINK_invent/BTK/process_docking_weight1_custom_product_contain_oxygen_bond_distance_aromatic_linkinvent_7_9_3/rearranged_h_0111.sdf

> <i_m_source_file_index>
18

> <r_mmod_Potential_Energy-OPLS-2005>
-165.966918945312

> <r_mmod_Stretch_Energy-OPLS-2005>
57.5225067138672

> <r_mmod_Bend_Energy-OPLS-2005>
252.800231933594

> <r_mmod_Torsional_Energy-OPLS-2005>
176.382476806641

> <r_mmod_Improper_Torsional_Energy-OPLS-2005>
4.99728345870972

> <r_mmod_Van_der_Waal_Energy-OPLS-2005>
153.950942993164

> <r_mmod_Electrostatic_Energy-OPLS-2005>
-354.713562011719

> <r_mmod_Solvation_Energy-OPLS-2005>
-506.248748779297

> <b_mmod_Minimization_Converged-OPLS-2005>
0

> <r_mmod_RMS_Derivative-OPLS-2005>
5.17265367507935

$$$$
19
                    3D
 Structure written by MMmdl.
155163  0  0  1  0            999 V2000
  -30.6507  -14.7614   20.5549 C   0  0  0  0  0  0
  -30.4377  -12.4965   19.4664 C   0  0  0  0  0  0
  -29.5105  -12.5501   18.2300 C   0  0  0  0  0  0
  -28.0344  -12.3623   18.6343 C   0  0  0  0  0  0
  -27.6471  -13.2332   19.8565 C   0  0  2  0  0  0
  -28.6926  -13.0921   20.9775 C   0  0  0  0  0  0
  -25.2523  -13.8185   20.5700 C   0  0  0  0  0  0
  -24.1812  -13.0426   20.9211 C   0  0  0  0  0  0
  -24.6414  -11.6910   20.8732 C   0  0  0  0  0  0
  -23.9085  -10.4286   21.0397 C   0  0  0  0  0  0
  -24.3617   -9.4202   21.9185 C   0  0  0  0  0  0
  -23.6290   -8.2237   22.0754 C   0  0  0  0  0  0
  -22.4275   -8.0276   21.3547 C   0  0  0  0  0  0
  -21.9911   -9.0253   20.4648 C   0  0  0  0  0  0
  -22.7246  -10.2132   20.3058 C   0  0  0  0  0  0
  -21.6862   -6.0722   22.5275 C   0  0  0  0  0  0
  -21.4025   -6.5623   23.8206 C   0  0  0  0  0  0
  -21.3665   -5.6780   24.9169 C   0  0  0  0  0  0
  -21.6040   -4.3042   24.7219 C   0  0  0  0  0  0
  -21.8826   -3.8133   23.4342 C   0  0  0  0  0  0
  -21.9194   -4.6949   22.3397 C   0  0  0  0  0  0
  -22.7835  -13.5215   21.1858 C   0  0  0  0  0  0
  -22.1661   -4.2131   21.0973 F   0  0  0  0  0  0
  -21.5624   -3.4529   25.7733 F   0  0  0  0  0  0
  -29.9922  -13.5377   20.4388 N   0  0  0  0  0  0
  -26.2965  -12.9407   20.3284 N   0  0  0  0  0  0
  -25.9342  -11.6545   20.5724 N   0  0  0  0  0  0
  -22.0468  -12.8227   22.0420 N   0  0  0  0  0  0
  -25.4177  -15.1912   20.4146 N   0  0  0  0  0  0
  -31.7734  -14.8275   20.0420 O   0  0  0  0  0  0
  -21.6644   -6.8871   21.4242 O   0  0  0  0  0  0
  -22.3521  -14.5509   20.6685 O   0  0  0  0  0  0
  -24.6342  -31.8544   23.1983 C   0  0  0  0  0  0
  -25.9154  -32.4756   23.8348 C   0  0  1  0  0  0
  -27.2309  -27.2640   20.1085 C   0  0  0  0  0  0
  -25.5931  -33.8561   24.2251 N   0  0  0  0  0  0
  -23.4305  -30.4784   21.5432 C   0  0  2  0  0  0
  -24.8785  -28.9304   20.1080 C   0  0  0  0  0  0
  -22.7515  -29.4601   22.4917 C   0  0  0  0  0  0
  -18.0289  -28.1384   22.8497 C   0  0  0  0  0  0
  -24.1468  -36.7305   23.2634 C   0  0  0  0  0  0
  -25.9782  -30.7693   21.3759 C   0  0  0  0  0  0
  -26.0532  -29.3923   20.7158 C   0  0  0  0  0  0
  -27.2320  -28.5722   20.7070 C   0  0  0  0  0  0
  -26.0168  -26.8646   19.4996 C   0  0  0  0  0  0
  -24.8657  -27.6733   19.4901 C   0  0  0  0  0  0
  -23.6463  -29.8145   20.1588 C   0  0  0  0  0  0
  -25.4096  -36.3076   24.0320 C   0  0  1  0  0  0
  -20.5895  -28.3703   23.1252 C   0  0  2  0  0  0
  -20.6776  -26.9411   22.5407 C   0  0  0  0  0  0
  -19.5741  -26.6377   21.5218 C   0  0  0  0  0  0
  -18.1920  -26.7921   22.1635 C   0  0  0  0  0  0
  -19.1545  -28.8858   23.2873 C   0  0  0  0  0  0
  -18.9465  -30.1466   23.8877 C   0  0  0  0  0  0
  -17.6461  -30.6579   24.0561 C   0  0  0  0  0  0
  -25.9059  -34.9444   23.5089 C   0  0  0  0  0  0
  -16.5353  -29.9071   23.6339 C   0  0  0  0  0  0
  -16.7279  -28.6500   23.0351 C   0  0  0  0  0  0
  -26.4489  -31.6599   25.0753 C   0  0  0  0  0  0
  -25.3680  -31.3765   26.1456 C   0  0  0  0  0  0
  -27.0359  -30.3012   24.6272 C   0  0  0  0  0  0
  -27.6037  -32.4350   25.7523 C   0  0  0  0  0  0
  -27.5564  -37.1805   24.8459 C   0  0  0  0  0  0
  -21.4214  -29.3058   22.3652 N   0  0  0  0  0  0
  -26.4270  -37.3780   23.9409 N   0  0  0  0  0  0
  -24.7009  -31.0507   22.0961 N   0  0  0  0  0  0
  -23.4212  -28.8126   23.3012 O   0  0  0  0  0  0
  -28.3113  -26.3412   20.1716 O   0  0  0  0  0  0
  -26.5648  -34.8916   22.4668 O   0  0  0  0  0  0
  -23.5486  -32.1384   23.7263 O   0  0  0  0  0  0
  -30.5028  -19.7217   19.6909 C   0  0  0  0  0  0
  -30.8654  -18.3126   19.8454 C   0  0  0  0  0  0
  -30.0246  -17.5588   20.6632 C   0  0  0  0  0  0
  -29.3644  -20.1401   20.3435 C   0  0  0  0  0  0
  -28.6815  -23.8721   19.3738 C   0  0  0  0  0  0
  -28.3298  -25.2195   19.3009 C   0  0  0  0  0  0
  -32.1051  -17.7802   19.1872 C   0  0  0  0  0  0
  -29.1031  -15.8985   22.4032 C   0  0  0  0  0  0
  -29.2715  -22.8207   20.3944 C   0  0  0  0  0  0
  -30.2177  -16.1247   21.3649 C   0  0  1  0  0  0
  -28.6797  -21.4229   20.3894 N   0  0  0  0  0  0
  -31.3197  -16.3111   22.2365 O   0  0  0  0  0  0
  -28.7058  -18.6878   21.1385 S   0  0  0  0  0  0
  -31.4738  -12.6218   19.1495 H   0  0  0  0  0  0
  -30.4064  -11.5061   19.9231 H   0  0  0  0  0  0
  -29.8021  -11.7858   17.5083 H   0  0  0  0  0  0
  -29.6320  -13.5098   17.7252 H   0  0  0  0  0  0
  -27.8885  -11.3088   18.8735 H   0  0  0  0  0  0
  -27.3784  -12.5776   17.7904 H   0  0  0  0  0  0
  -27.6593  -14.2714   19.5231 H   0  0  0  0  0  0
  -28.7568  -12.0482   21.2901 H   0  0  0  0  0  0
  -28.3577  -13.6007   21.8681 H   0  0  0  0  0  0
  -25.2763   -9.5666   22.4769 H   0  0  0  0  0  0
  -23.9992   -7.4624   22.7473 H   0  0  0  0  0  0
  -21.0838   -8.8777   19.8964 H   0  0  0  0  0  0
  -22.3710  -10.9663   19.6160 H   0  0  0  0  0  0
  -21.2040   -7.6136   23.9706 H   0  0  0  0  0  0
  -21.1480   -6.0508   25.9066 H   0  0  0  0  0  0
  -22.0608   -2.7599   23.2845 H   0  0  0  0  0  0
  -22.4084  -11.9929   22.4879 H   0  0  0  0  0  0
  -21.1075  -13.1248   22.2580 H   0  0  0  0  0  0
  -24.6436  -15.8379   20.5233 H   0  0  0  0  0  0
  -26.2654  -15.6401   20.0911 H   0  0  0  0  0  0
  -26.7235  -32.5379   23.1102 H   0  0  0  0  0  0
  -25.0019  -33.9697   25.0357 H   0  0  0  0  0  0
  -22.7282  -31.3021   21.3972 H   0  0  0  0  0  0
  -23.3727  -35.9638   23.3287 H   0  0  0  0  0  0
  -24.3544  -36.8966   22.2053 H   0  0  0  0  0  0
  -23.7243  -37.6500   23.6691 H   0  0  0  0  0  0
  -26.1121  -31.5266   20.6025 H   0  0  0  0  0  0
  -26.8582  -30.8219   22.0067 H   0  0  0  0  0  0
  -28.1306  -28.9227   21.1948 H   0  0  0  0  0  0
  -25.9158  -25.8874   19.0512 H   0  0  0  0  0  0
  -23.9648  -27.3038   19.0193 H   0  0  0  0  0  0
  -23.7614  -30.5912   19.4013 H   0  0  0  0  0  0
  -22.7640  -29.2440   19.8608 H   0  0  0  0  0  0
  -25.1276  -36.1916   25.0813 H   0  0  0  0  0  0
  -21.0005  -28.3293   24.1364 H   0  0  0  0  0  0
  -20.5661  -26.2318   23.3630 H   0  0  0  0  0  0
  -21.6638  -26.7411   22.1200 H   0  0  0  0  0  0
  -19.6891  -25.6284   21.1255 H   0  0  0  0  0  0
  -19.6658  -27.3181   20.6738 H   0  0  0  0  0  0
  -17.4190  -26.6682   21.4032 H   0  0  0  0  0  0
  -18.0308  -26.0049   22.9020 H   0  0  0  0  0  0
  -19.7938  -30.7304   24.2213 H   0  0  0  0  0  0
  -17.5006  -31.6245   24.5190 H   0  0  0  0  0  0
  -15.5354  -30.2961   23.7669 H   0  0  0  0  0  0
  -15.8689  -28.0822   22.7049 H   0  0  0  0  0  0
  -24.5831  -30.7148   25.7772 H   0  0  0  0  0  0
  -24.8866  -32.2930   26.4871 H   0  0  0  0  0  0
  -25.7935  -30.8932   27.0256 H   0  0  0  0  0  0
  -26.2979  -29.6745   24.1246 H   0  0  0  0  0  0
  -27.3987  -29.7291   25.4826 H   0  0  0  0  0  0
  -27.8859  -30.4297   23.9569 H   0  0  0  0  0  0
  -27.2661  -33.3673   26.2062 H   0  0  0  0  0  0
  -28.3851  -32.6897   25.0351 H   0  0  0  0  0  0
  -28.0698  -31.8506   26.5466 H   0  0  0  0  0  0
  -28.2585  -38.0100   24.7514 H   0  0  0  0  0  0
  -28.1065  -36.2638   24.6273 H   0  0  0  0  0  0
  -27.2289  -37.1456   25.8863 H   0  0  0  0  0  0
  -20.9399  -29.8824   21.6891 H   0  0  0  0  0  0
  -26.0148  -38.2845   24.1412 H   0  0  0  0  0  0
  -31.1078  -20.3844   19.0872 H   0  0  0  0  0  0
  -28.5393  -23.3795   18.4220 H   0  0  0  0  0  0
  -27.9873  -25.5483   18.3286 H   0  0  0  0  0  0
  -32.6516  -18.5665   18.6646 H   0  0  0  0  0  0
  -31.8647  -17.0178   18.4462 H   0  0  0  0  0  0
  -32.7935  -17.3462   19.9113 H   0  0  0  0  0  0
  -29.0291  -16.7302   23.1042 H   0  0  0  0  0  0
  -29.2922  -15.0286   23.0303 H   0  0  0  0  0  0
  -28.1294  -15.8011   21.9227 H   0  0  0  0  0  0
  -29.2003  -23.2402   21.3997 H   0  0  0  0  0  0
  -30.3394  -22.7349   20.1824 H   0  0  0  0  0  0
  -27.7516  -21.3780   20.8082 H   0  0  0  0  0  0
  -32.0842  -16.1710   21.6838 H   0  0  0  0  0  0
  1 25  1  0  0  0
  1 30  2  0  0  0
  1 80  1  0  0  0
  2  3  1  0  0  0
  2 25  1  0  0  0
  2 84  1  0  0  0
  2 85  1  0  0  0
  3  4  1  0  0  0
  3 86  1  0  0  0
  3 87  1  0  0  0
  4  5  1  0  0  0
  4 88  1  0  0  0
  4 89  1  0  0  0
  5  6  1  0  0  0
  5 26  1  0  0  0
  5 90  1  0  0  0
  6 25  1  0  0  0
  6 91  1  0  0  0
  6 92  1  0  0  0
  7  8  2  0  0  0
  7 26  1  0  0  0
  7 29  1  0  0  0
  8  9  1  0  0  0
  8 22  1  0  0  0
  9 10  1  0  0  0
  9 27  2  0  0  0
 10 11  2  0  0  0
 10 15  1  0  0  0
 11 12  1  0  0  0
 11 93  1  0  0  0
 12 13  2  0  0  0
 12 94  1  0  0  0
 13 14  1  0  0  0
 13 31  1  0  0  0
 14 15  2  0  0  0
 14 95  1  0  0  0
 15 96  1  0  0  0
 16 17  2  0  0  0
 16 21  1  0  0  0
 16 31  1  0  0  0
 17 18  1  0  0  0
 17 97  1  0  0  0
 18 19  2  0  0  0
 18 98  1  0  0  0
 19 20  1  0  0  0
 19 24  1  0  0  0
 20 21  2  0  0  0
 20 99  1  0  0  0
 21 23  1  0  0  0
 22 28  1  0  0  0
 22 32  2  0  0  0
 26 27  1  0  0  0
 28100  1  0  0  0
 28101  1  0  0  0
 29102  1  0  0  0
 29103  1  0  0  0
 33 34  1  0  0  0
 33 66  1  0  0  0
 33 70  2  0  0  0
 34 36  1  0  0  0
 34 59  1  0  0  0
 34104  1  0  0  0
 35 44  2  0  0  0
 35 45  1  0  0  0
 35 68  1  0  0  0
 36 56  1  0  0  0
 36105  1  0  0  0
 37 39  1  0  0  0
 37 47  1  0  0  0
 37 66  1  0  0  0
 37106  1  0  0  0
 38 43  2  0  0  0
 38 46  1  0  0  0
 38 47  1  0  0  0
 39 64  1  0  0  0
 39 67  2  0  0  0
 40 52  1  0  0  0
 40 53  2  0  0  0
 40 58  1  0  0  0
 41107  1  0  0  0
 41108  1  0  0  0
 41109  1  0  0  0
 41 48  1  0  0  0
 42 43  1  0  0  0
 42 66  1  0  0  0
 42110  1  0  0  0
 42111  1  0  0  0
 43 44  1  0  0  0
 44112  1  0  0  0
 45 46  2  0  0  0
 45113  1  0  0  0
 46114  1  0  0  0
 47115  1  0  0  0
 47116  1  0  0  0
 48 56  1  0  0  0
 48 65  1  0  0  0
 48117  1  0  0  0
 49 50  1  0  0  0
 49 53  1  0  0  0
 49 64  1  0  0  0
 49118  1  0  0  0
 50 51  1  0  0  0
 50119  1  0  0  0
 50120  1  0  0  0
 51 52  1  0  0  0
 51121  1  0  0  0
 51122  1  0  0  0
 52123  1  0  0  0
 52124  1  0  0  0
 53 54  1  0  0  0
 54 55  2  0  0  0
 54125  1  0  0  0
 55 57  1  0  0  0
 55126  1  0  0  0
 56 69  2  0  0  0
 57 58  2  0  0  0
 57127  1  0  0  0
 58128  1  0  0  0
 59 60  1  0  0  0
 59 61  1  0  0  0
 59 62  1  0  0  0
 60129  1  0  0  0
 60130  1  0  0  0
 60131  1  0  0  0
 61132  1  0  0  0
 61133  1  0  0  0
 61134  1  0  0  0
 62135  1  0  0  0
 62136  1  0  0  0
 62137  1  0  0  0
 63 65  1  0  0  0
 63138  1  0  0  0
 63139  1  0  0  0
 63140  1  0  0  0
 64141  1  0  0  0
 65142  1  0  0  0
 68 76  1  0  0  0
 71 72  1  0  0  0
 71 74  2  0  0  0
 71143  1  0  0  0
 72 73  2  0  0  0
 72 77  1  0  0  0
 73 80  1  0  0  0
 73 83  1  0  0  0
 74 81  1  0  0  0
 74 83  1  0  0  0
 75 76  2  0  0  0
 75 79  1  0  0  0
 75144  1  0  0  0
 76145  1  0  0  0
 77146  1  0  0  0
 77147  1  0  0  0
 77148  1  0  0  0
 78149  1  0  0  0
 78150  1  0  0  0
 78151  1  0  0  0
 78 80  1  0  0  0
 79 81  1  0  0  0
 79152  1  0  0  0
 79153  1  0  0  0
 80 82  1  0  0  0
 81154  1  0  0  0
 82155  1  0  0  0
M  ISO  4   1 100  68 101  76 101  80 100
M  END
> <chiral flag>
0

> <version>
0

> <s_m_source_file>
/data/baiqing/PycharmProjects/Reinvent-master-3.2/result/LINK_invent/BTK/process_docking_weight1_custom_product_contain_oxygen_bond_distance_aromatic_linkinvent_7_9_3/rearranged_h_0111.sdf

> <i_m_source_file_index>
19

> <r_mmod_Potential_Energy-OPLS-2005>
316.528289794922

> <r_mmod_Stretch_Energy-OPLS-2005>
133.244781494141

> <r_mmod_Bend_Energy-OPLS-2005>
269.702819824219

> <r_mmod_Torsional_Energy-OPLS-2005>
191.258529663086

> <r_mmod_Improper_Torsional_Energy-OPLS-2005>
5.50461912155151

> <r_mmod_Van_der_Waal_Energy-OPLS-2005>
134.276992797852

> <r_mmod_Electrostatic_Energy-OPLS-2005>
-297.137023925781

> <r_mmod_Solvation_Energy-OPLS-2005>
-203.29296875

> <b_mmod_Minimization_Converged-OPLS-2005>
0

> <r_mmod_RMS_Derivative-OPLS-2005>
1.9877393245697

$$$$
20
                    3D
 Structure written by MMmdl.
159167  0  0  1  0            999 V2000
  -30.6192  -14.7306   20.4620 C   0  0  0  0  0  0
  -30.4461  -12.4452   19.4754 C   0  0  0  0  0  0
  -29.5166  -12.4868   18.2386 C   0  0  0  0  0  0
  -28.0365  -12.3349   18.6451 C   0  0  0  0  0  0
  -27.6506  -13.2194   19.8610 C   0  0  2  0  0  0
  -28.6961  -13.0879   20.9856 C   0  0  0  0  0  0
  -25.2541  -13.8160   20.5685 C   0  0  0  0  0  0
  -24.1805  -13.0425   20.9149 C   0  0  0  0  0  0
  -24.6385  -11.6894   20.8712 C   0  0  0  0  0  0
  -23.9068  -10.4277   21.0390 C   0  0  0  0  0  0
  -24.3619   -9.4199   21.9178 C   0  0  0  0  0  0
  -23.6291   -8.2242   22.0739 C   0  0  0  0  0  0
  -22.4274   -8.0279   21.3518 C   0  0  0  0  0  0
  -21.9908   -9.0249   20.4624 C   0  0  0  0  0  0
  -22.7241  -10.2122   20.3041 C   0  0  0  0  0  0
  -21.6849   -6.0748   22.5283 C   0  0  0  0  0  0
  -21.4013   -6.5642   23.8219 C   0  0  0  0  0  0
  -21.3646   -5.6781   24.9168 C   0  0  0  0  0  0
  -21.6045   -4.3054   24.7218 C   0  0  0  0  0  0
  -21.8819   -3.8153   23.4336 C   0  0  0  0  0  0
  -21.9177   -4.6975   22.3399 C   0  0  0  0  0  0
  -22.7831  -13.5229   21.1840 C   0  0  0  0  0  0
  -22.1660   -4.2160   21.0983 F   0  0  0  0  0  0
  -21.5628   -3.4541   25.7736 F   0  0  0  0  0  0
  -29.9985  -13.4913   20.4281 N   0  0  0  0  0  0
  -26.2982  -12.9349   20.3331 N   0  0  0  0  0  0
  -25.9316  -11.6497   20.5745 N   0  0  0  0  0  0
  -22.0487  -12.8216   22.0405 N   0  0  0  0  0  0
  -25.4296  -15.1887   20.4182 N   0  0  0  0  0  0
  -31.8045  -14.8218   20.1246 O   0  0  0  0  0  0
  -21.6636   -6.8883   21.4233 O   0  0  0  0  0  0
  -22.3521  -14.5542   20.6707 O   0  0  0  0  0  0
  -24.6296  -31.8593   23.1996 C   0  0  0  0  0  0
  -25.9127  -32.4779   23.8348 C   0  0  1  0  0  0
  -27.2311  -27.2919   20.1234 C   0  0  0  0  0  0
  -25.5924  -33.8577   24.2284 N   0  0  0  0  0  0
  -23.4252  -30.4822   21.5435 C   0  0  2  0  0  0
  -24.8745  -28.9354   20.1116 C   0  0  0  0  0  0
  -22.7494  -29.4635   22.4928 C   0  0  0  0  0  0
  -18.0296  -28.1397   22.8500 C   0  0  0  0  0  0
  -24.1487  -36.7287   23.2639 C   0  0  0  0  0  0
  -25.9698  -30.7818   21.3754 C   0  0  0  0  0  0
  -26.0455  -29.4059   20.7188 C   0  0  0  0  0  0
  -27.2251  -28.5970   20.7158 C   0  0  0  0  0  0
  -26.0351  -26.8896   19.4801 C   0  0  0  0  0  0
  -24.8730  -27.6834   19.4825 C   0  0  0  0  0  0
  -23.6415  -29.8161   20.1602 C   0  0  0  0  0  0
  -25.4109  -36.3088   24.0346 C   0  0  1  0  0  0
  -20.5901  -28.3710   23.1273 C   0  0  2  0  0  0
  -20.6786  -26.9433   22.5403 C   0  0  0  0  0  0
  -19.5749  -26.6400   21.5219 C   0  0  0  0  0  0
  -18.1930  -26.7945   22.1636 C   0  0  0  0  0  0
  -19.1551  -28.8872   23.2886 C   0  0  0  0  0  0
  -18.9469  -30.1472   23.8911 C   0  0  0  0  0  0
  -17.6467  -30.6597   24.0567 C   0  0  0  0  0  0
  -25.9053  -34.9457   23.5122 C   0  0  0  0  0  0
  -16.5363  -29.9094   23.6332 C   0  0  0  0  0  0
  -16.7284  -28.6511   23.0364 C   0  0  0  0  0  0
  -26.4496  -31.6582   25.0718 C   0  0  0  0  0  0
  -25.3706  -31.3711   26.1420 C   0  0  0  0  0  0
  -27.0340  -30.3011   24.6175 C   0  0  0  0  0  0
  -27.6067  -32.4303   25.7477 C   0  0  0  0  0  0
  -27.5590  -37.1796   24.8470 C   0  0  0  0  0  0
  -21.4205  -29.3060   22.3657 N   0  0  0  0  0  0
  -26.4294  -37.3777   23.9422 N   0  0  0  0  0  0
  -24.6941  -31.0573   22.0965 N   0  0  0  0  0  0
  -23.4208  -28.8177   23.3020 O   0  0  0  0  0  0
  -28.3293  -26.4049   20.1947 O   0  0  0  0  0  0
  -26.5618  -34.8927   22.4689 O   0  0  0  0  0  0
  -23.5450  -32.1419   23.7295 O   0  0  0  0  0  0
  -30.7150  -18.8247   18.1021 C   0  0  0  0  0  0
  -29.7551  -18.7268   20.6848 C   0  0  0  0  0  0
  -30.4892  -17.5545   18.6833 C   0  0  0  0  0  0
  -30.0569  -17.4482   20.0449 C   0  0  0  0  0  0
  -30.4405  -20.0350   18.7633 C   0  0  0  0  0  0
  -29.8789  -20.0305   20.0603 C   0  0  0  0  0  0
  -31.6470  -16.3031   16.8394 C   0  0  0  0  0  0
  -30.7096  -16.3941   17.7989 C   0  0  0  0  0  0
  -29.7738  -16.0760   20.7586 C   0  0  0  0  0  0
  -29.0697  -23.8406   20.4212 C   0  0  0  0  0  0
  -31.9222  -21.8301   18.5822 C   0  0  0  0  0  0
  -28.0510  -24.9579   19.9304 C   0  0  0  0  0  0
  -28.7996  -22.3273   19.9932 C   0  0  0  0  0  0
  -28.8379  -16.0797   21.6140 N   0  0  0  0  0  0
  -30.0474  -24.1375   21.1178 O   0  0  0  0  0  0
  -30.7456  -21.1954   18.1015 O   0  0  0  0  0  0
  -29.5455  -21.2531   20.7072 O   0  0  0  0  0  0
  -31.4823  -12.5835   19.1613 H   0  0  0  0  0  0
  -30.4143  -11.4620   19.9482 H   0  0  0  0  0  0
  -29.7885  -11.6954   17.5396 H   0  0  0  0  0  0
  -29.6589  -13.4189   17.6943 H   0  0  0  0  0  0
  -27.8756  -11.2841   18.8923 H   0  0  0  0  0  0
  -27.3861  -12.5520   17.7977 H   0  0  0  0  0  0
  -27.6631  -14.2511   19.5091 H   0  0  0  0  0  0
  -28.7377  -12.0550   21.3359 H   0  0  0  0  0  0
  -28.4167  -13.6611   21.8664 H   0  0  0  0  0  0
  -25.2754   -9.5672   22.4774 H   0  0  0  0  0  0
  -23.9977   -7.4632   22.7471 H   0  0  0  0  0  0
  -21.0825   -8.8775   19.8951 H   0  0  0  0  0  0
  -22.3707  -10.9667   19.6158 H   0  0  0  0  0  0
  -21.2048   -7.6149   23.9739 H   0  0  0  0  0  0
  -21.1458   -6.0514   25.9070 H   0  0  0  0  0  0
  -22.0622   -2.7620   23.2847 H   0  0  0  0  0  0
  -22.4090  -11.9852   22.4757 H   0  0  0  0  0  0
  -21.1108  -13.1237   22.2627 H   0  0  0  0  0  0
  -24.6821  -15.8561   20.5728 H   0  0  0  0  0  0
  -26.3259  -15.6262   20.2444 H   0  0  0  0  0  0
  -26.7198  -32.5447   23.1094 H   0  0  0  0  0  0
  -25.0039  -33.9717   25.0411 H   0  0  0  0  0  0
  -22.7211  -31.3041   21.3964 H   0  0  0  0  0  0
  -23.3767  -35.9600   23.3290 H   0  0  0  0  0  0
  -24.3575  -36.8915   22.2052 H   0  0  0  0  0  0
  -23.7229  -37.6486   23.6657 H   0  0  0  0  0  0
  -26.1003  -31.5420   20.6041 H   0  0  0  0  0  0
  -26.8507  -30.8330   22.0032 H   0  0  0  0  0  0
  -28.1186  -28.9513   21.2102 H   0  0  0  0  0  0
  -25.9580  -25.9369   18.9793 H   0  0  0  0  0  0
  -23.9764  -27.3186   18.9998 H   0  0  0  0  0  0
  -23.7594  -30.5921   19.4033 H   0  0  0  0  0  0
  -22.7626  -29.2446   19.8569 H   0  0  0  0  0  0
  -25.1283  -36.1936   25.0839 H   0  0  0  0  0  0
  -21.0004  -28.3292   24.1390 H   0  0  0  0  0  0
  -20.5693  -26.2331   23.3607 H   0  0  0  0  0  0
  -21.6648  -26.7454   22.1188 H   0  0  0  0  0  0
  -19.6902  -25.6307   21.1255 H   0  0  0  0  0  0
  -19.6674  -27.3212   20.6745 H   0  0  0  0  0  0
  -17.4195  -26.6715   21.4035 H   0  0  0  0  0  0
  -18.0321  -26.0078   22.9023 H   0  0  0  0  0  0
  -19.7938  -30.7289   24.2297 H   0  0  0  0  0  0
  -17.5015  -31.6272   24.5164 H   0  0  0  0  0  0
  -15.5369  -30.2999   23.7638 H   0  0  0  0  0  0
  -15.8687  -28.0822   22.7088 H   0  0  0  0  0  0
  -24.5920  -30.7018   25.7733 H   0  0  0  0  0  0
  -24.8829  -32.2857   26.4801 H   0  0  0  0  0  0
  -25.8003  -30.8923   27.0226 H   0  0  0  0  0  0
  -26.2920  -29.6750   24.1204 H   0  0  0  0  0  0
  -27.4055  -29.7266   25.4669 H   0  0  0  0  0  0
  -27.8774  -30.4303   23.9389 H   0  0  0  0  0  0
  -27.2726  -33.3638   26.2015 H   0  0  0  0  0  0
  -28.3890  -32.6810   25.0299 H   0  0  0  0  0  0
  -28.0715  -31.8441   26.5413 H   0  0  0  0  0  0
  -28.2598  -38.0101   24.7541 H   0  0  0  0  0  0
  -28.1106  -36.2644   24.6271 H   0  0  0  0  0  0
  -27.2309  -37.1407   25.8871 H   0  0  0  0  0  0
  -20.9399  -29.8783   21.6854 H   0  0  0  0  0  0
  -26.0187  -38.2861   24.1408 H   0  0  0  0  0  0
  -31.0792  -18.8923   17.0878 H   0  0  0  0  0  0
  -29.3852  -18.7146   21.6993 H   0  0  0  0  0  0
  -31.7177  -15.4203   16.2197 H   0  0  0  0  0  0
  -32.3608  -17.0941   16.6550 H   0  0  0  0  0  0
  -30.0278  -15.5674   17.9134 H   0  0  0  0  0  0
  -31.8541  -22.0597   19.6458 H   0  0  0  0  0  0
  -32.0704  -22.7717   18.0538 H   0  0  0  0  0  0
  -32.8024  -21.2052   18.4174 H   0  0  0  0  0  0
  -27.1024  -24.7004   20.4034 H   0  0  0  0  0  0
  -27.9138  -24.8242   18.8573 H   0  0  0  0  0  0
  -28.9284  -22.2680   18.9156 H   0  0  0  0  0  0
  -27.7395  -22.1376   20.1591 H   0  0  0  0  0  0
  -28.4086  -16.9935   21.6893 H   0  0  0  0  0  0
  1 25  1  0  0  0
  1 30  2  0  0  0
  1 79  1  0  0  0
  2  3  1  0  0  0
  2 25  1  0  0  0
  2 88  1  0  0  0
  2 89  1  0  0  0
  3  4  1  0  0  0
  3 90  1  0  0  0
  3 91  1  0  0  0
  4  5  1  0  0  0
  4 92  1  0  0  0
  4 93  1  0  0  0
  5  6  1  0  0  0
  5 26  1  0  0  0
  5 94  1  0  0  0
  6 25  1  0  0  0
  6 95  1  0  0  0
  6 96  1  0  0  0
  7  8  2  0  0  0
  7 26  1  0  0  0
  7 29  1  0  0  0
  8  9  1  0  0  0
  8 22  1  0  0  0
  9 10  1  0  0  0
  9 27  2  0  0  0
 10 11  2  0  0  0
 10 15  1  0  0  0
 11 12  1  0  0  0
 11 97  1  0  0  0
 12 13  2  0  0  0
 12 98  1  0  0  0
 13 14  1  0  0  0
 13 31  1  0  0  0
 14 15  2  0  0  0
 14 99  1  0  0  0
 15100  1  0  0  0
 16 17  2  0  0  0
 16 21  1  0  0  0
 16 31  1  0  0  0
 17 18  1  0  0  0
 17101  1  0  0  0
 18 19  2  0  0  0
 18102  1  0  0  0
 19 20  1  0  0  0
 19 24  1  0  0  0
 20 21  2  0  0  0
 20103  1  0  0  0
 21 23  1  0  0  0
 22 28  1  0  0  0
 22 32  2  0  0  0
 26 27  1  0  0  0
 28104  1  0  0  0
 28105  1  0  0  0
 29106  1  0  0  0
 29107  1  0  0  0
 33 34  1  0  0  0
 33 66  1  0  0  0
 33 70  2  0  0  0
 34 36  1  0  0  0
 34 59  1  0  0  0
 34108  1  0  0  0
 35 44  2  0  0  0
 35 45  1  0  0  0
 35 68  1  0  0  0
 36 56  1  0  0  0
 36109  1  0  0  0
 37 39  1  0  0  0
 37 47  1  0  0  0
 37 66  1  0  0  0
 37110  1  0  0  0
 38 43  2  0  0  0
 38 46  1  0  0  0
 38 47  1  0  0  0
 39 64  1  0  0  0
 39 67  2  0  0  0
 40 52  1  0  0  0
 40 53  2  0  0  0
 40 58  1  0  0  0
 41111  1  0  0  0
 41112  1  0  0  0
 41113  1  0  0  0
 41 48  1  0  0  0
 42 43  1  0  0  0
 42 66  1  0  0  0
 42114  1  0  0  0
 42115  1  0  0  0
 43 44  1  0  0  0
 44116  1  0  0  0
 45 46  2  0  0  0
 45117  1  0  0  0
 46118  1  0  0  0
 47119  1  0  0  0
 47120  1  0  0  0
 48 56  1  0  0  0
 48 65  1  0  0  0
 48121  1  0  0  0
 49 50  1  0  0  0
 49 53  1  0  0  0
 49 64  1  0  0  0
 49122  1  0  0  0
 50 51  1  0  0  0
 50123  1  0  0  0
 50124  1  0  0  0
 51 52  1  0  0  0
 51125  1  0  0  0
 51126  1  0  0  0
 52127  1  0  0  0
 52128  1  0  0  0
 53 54  1  0  0  0
 54 55  2  0  0  0
 54129  1  0  0  0
 55 57  1  0  0  0
 55130  1  0  0  0
 56 69  2  0  0  0
 57 58  2  0  0  0
 57131  1  0  0  0
 58132  1  0  0  0
 59 60  1  0  0  0
 59 61  1  0  0  0
 59 62  1  0  0  0
 60133  1  0  0  0
 60134  1  0  0  0
 60135  1  0  0  0
 61136  1  0  0  0
 61137  1  0  0  0
 61138  1  0  0  0
 62139  1  0  0  0
 62140  1  0  0  0
 62141  1  0  0  0
 63 65  1  0  0  0
 63142  1  0  0  0
 63143  1  0  0  0
 63144  1  0  0  0
 64145  1  0  0  0
 65146  1  0  0  0
 68 82  1  0  0  0
 71 73  2  0  0  0
 71 75  1  0  0  0
 71147  1  0  0  0
 72 74  2  0  0  0
 72 76  1  0  0  0
 72148  1  0  0  0
 73 74  1  0  0  0
 73 78  1  0  0  0
 74 79  1  0  0  0
 75 76  2  0  0  0
 75 86  1  0  0  0
 76 87  1  0  0  0
 77 78  2  0  0  0
 77149  1  0  0  0
 77150  1  0  0  0
 78151  1  0  0  0
 79 84  2  0  0  0
 80 82  1  0  0  0
 80 83  1  0  0  0
 80 85  2  0  0  0
 81 86  1  0  0  0
 81152  1  0  0  0
 81153  1  0  0  0
 81154  1  0  0  0
 82155  1  0  0  0
 82156  1  0  0  0
 83 87  1  0  0  0
 83157  1  0  0  0
 83158  1  0  0  0
 84159  1  0  0  0
M  ISO  4   1 100  68 101  79 100  82 101
M  END
> <chiral flag>
0

> <version>
0

> <s_m_source_file>
/data/baiqing/PycharmProjects/Reinvent-master-3.2/result/LINK_invent/BTK/process_docking_weight1_custom_product_contain_oxygen_bond_distance_aromatic_linkinvent_7_9_3/rearranged_h_0111.sdf

> <i_m_source_file_index>
20

> <r_mmod_Potential_Energy-OPLS-2005>
359.171966552734

> <r_mmod_Stretch_Energy-OPLS-2005>
132.380218505859

> <r_mmod_Bend_Energy-OPLS-2005>
170.530792236328

> <r_mmod_Torsional_Energy-OPLS-2005>
257.937744140625

> <r_mmod_Improper_Torsional_Energy-OPLS-2005>
4.34141969680786

> <r_mmod_Van_der_Waal_Energy-OPLS-2005>
159.174774169922

> <r_mmod_Electrostatic_Energy-OPLS-2005>
-209.159423828125

> <r_mmod_Solvation_Energy-OPLS-2005>
-227.778854370117

> <b_mmod_Minimization_Converged-OPLS-2005>
0

> <r_mmod_RMS_Derivative-OPLS-2005>
2.10869717597961

$$$$
21
                    3D
 Structure written by MMmdl.
166175  0  0  1  0            999 V2000
  -30.6248  -14.7384   20.3774 C   0  0  0  0  0  0
  -30.4322  -12.4254   19.4657 C   0  0  0  0  0  0
  -29.4992  -12.3916   18.2342 C   0  0  0  0  0  0
  -28.0212  -12.2871   18.6548 C   0  0  0  0  0  0
  -27.6356  -13.2251   19.8314 C   0  0  2  0  0  0
  -28.6891  -13.2074   20.9576 C   0  0  0  0  0  0
  -25.2522  -13.8202   20.5705 C   0  0  0  0  0  0
  -24.1800  -13.0460   20.9197 C   0  0  0  0  0  0
  -24.6374  -11.6932   20.8757 C   0  0  0  0  0  0
  -23.9050  -10.4306   21.0412 C   0  0  0  0  0  0
  -24.3607   -9.4225   21.9192 C   0  0  0  0  0  0
  -23.6293   -8.2255   22.0760 C   0  0  0  0  0  0
  -22.4281   -8.0279   21.3546 C   0  0  0  0  0  0
  -21.9908   -9.0249   20.4653 C   0  0  0  0  0  0
  -22.7222  -10.2137   20.3064 C   0  0  0  0  0  0
  -21.6860   -6.0729   22.5270 C   0  0  0  0  0  0
  -21.4020   -6.5642   23.8198 C   0  0  0  0  0  0
  -21.3659   -5.6799   24.9163 C   0  0  0  0  0  0
  -21.6045   -4.3061   24.7221 C   0  0  0  0  0  0
  -21.8821   -3.8148   23.4343 C   0  0  0  0  0  0
  -21.9197   -4.6957   22.3396 C   0  0  0  0  0  0
  -22.7826  -13.5243   21.1858 C   0  0  0  0  0  0
  -22.1666   -4.2141   21.0975 F   0  0  0  0  0  0
  -21.5622   -3.4548   25.7738 F   0  0  0  0  0  0
  -29.9790  -13.5253   20.3412 N   0  0  0  0  0  0
  -26.2926  -12.9394   20.3269 N   0  0  0  0  0  0
  -25.9305  -11.6551   20.5806 N   0  0  0  0  0  0
  -22.0489  -12.8220   22.0410 N   0  0  0  0  0  0
  -25.4267  -15.1921   20.4150 N   0  0  0  0  0  0
  -31.8585  -14.7602   20.3285 O   0  0  0  0  0  0
  -21.6656   -6.8871   21.4233 O   0  0  0  0  0  0
  -22.3507  -14.5554   20.6718 O   0  0  0  0  0  0
  -24.6282  -31.8579   23.2032 C   0  0  0  0  0  0
  -25.9128  -32.4760   23.8359 C   0  0  1  0  0  0
  -27.2134  -27.2902   20.1479 C   0  0  0  0  0  0
  -25.5938  -33.8567   24.2269 N   0  0  0  0  0  0
  -23.4234  -30.4806   21.5462 C   0  0  2  0  0  0
  -24.8709  -28.9276   20.1196 C   0  0  0  0  0  0
  -22.7484  -29.4613   22.4947 C   0  0  0  0  0  0
  -18.0288  -28.1387   22.8497 C   0  0  0  0  0  0
  -24.1485  -36.7278   23.2646 C   0  0  0  0  0  0
  -25.9661  -30.7773   21.3832 C   0  0  0  0  0  0
  -26.0381  -29.3992   20.7361 C   0  0  0  0  0  0
  -27.2153  -28.5893   20.7470 C   0  0  0  0  0  0
  -26.0371  -26.8824   19.4911 C   0  0  0  0  0  0
  -24.8712  -27.6720   19.4910 C   0  0  0  0  0  0
  -23.6418  -29.8138   20.1627 C   0  0  0  0  0  0
  -25.4113  -36.3064   24.0326 C   0  0  1  0  0  0
  -20.5888  -28.3694   23.1282 C   0  0  2  0  0  0
  -20.6773  -26.9413   22.5420 C   0  0  0  0  0  0
  -19.5746  -26.6384   21.5225 C   0  0  0  0  0  0
  -18.1922  -26.7935   22.1626 C   0  0  0  0  0  0
  -19.1543  -28.8860   23.2882 C   0  0  0  0  0  0
  -18.9463  -30.1464   23.8894 C   0  0  0  0  0  0
  -17.6463  -30.6589   24.0569 C   0  0  0  0  0  0
  -25.9057  -34.9437   23.5091 C   0  0  0  0  0  0
  -16.5355  -29.9086   23.6341 C   0  0  0  0  0  0
  -16.7278  -28.6506   23.0363 C   0  0  0  0  0  0
  -26.4508  -31.6591   25.0748 C   0  0  0  0  0  0
  -25.3731  -31.3725   26.1463 C   0  0  0  0  0  0
  -27.0382  -30.3017   24.6239 C   0  0  0  0  0  0
  -27.6054  -32.4356   25.7506 C   0  0  0  0  0  0
  -27.5568  -37.1791   24.8467 C   0  0  0  0  0  0
  -21.4200  -29.3037   22.3675 N   0  0  0  0  0  0
  -26.4282  -37.3765   23.9411 N   0  0  0  0  0  0
  -24.6907  -31.0569   22.1001 N   0  0  0  0  0  0
  -23.4189  -28.8172   23.3055 O   0  0  0  0  0  0
  -28.3187  -26.4330   20.0742 O   0  0  0  0  0  0
  -26.5626  -34.8904   22.4659 O   0  0  0  0  0  0
  -23.5442  -32.1407   23.7343 O   0  0  0  0  0  0
  -28.0322  -19.0584   19.4676 C   0  0  0  0  0  0
  -28.4497  -17.7053   19.3745 C   0  0  0  0  0  0
  -29.6403  -19.4350   21.1793 C   0  0  0  0  0  0
  -30.0930  -18.0585   21.0879 C   0  0  0  0  0  0
  -28.6102  -19.9973   20.3637 C   0  0  0  0  0  0
  -29.5084  -17.1429   20.1428 C   0  0  0  0  0  0
  -27.9465  -23.8445   20.8073 C   0  0  0  0  0  0
  -28.6513  -22.6639   20.5536 C   0  0  0  0  0  0
  -26.5148  -23.7028   21.1854 C   0  0  0  0  0  0
  -31.3591  -18.0900   23.2455 C   0  0  0  0  0  0
  -31.1577  -17.6150   22.0048 C   0  0  0  0  0  0
  -25.9476  -22.3028   21.3759 C   0  0  0  0  0  0
  -26.5909  -21.2991   20.4211 C   0  0  0  0  0  0
  -30.1464  -22.7008   20.2875 C   0  0  0  0  0  0
  -30.1957  -15.7442   18.2707 C   0  0  0  0  0  0
  -28.5104  -25.3191   21.0404 C   0  0  0  0  0  0
  -28.0578  -21.3461   20.4735 N   0  0  0  0  0  0
  -29.9589  -15.7795   19.7309 N   0  0  0  0  0  0
  -25.7677  -24.6515   21.4323 O   0  0  0  0  0  0
  -31.4670  -12.5566   19.1442 H   0  0  0  0  0  0
  -30.3978  -11.4772   20.0040 H   0  0  0  0  0  0
  -29.7564  -11.5383   17.6052 H   0  0  0  0  0  0
  -29.6432  -13.2618   17.6018 H   0  0  0  0  0  0
  -27.8511  -11.2493   18.9441 H   0  0  0  0  0  0
  -27.3716  -12.4672   17.7973 H   0  0  0  0  0  0
  -27.6166  -14.2327   19.4167 H   0  0  0  0  0  0
  -28.7266  -12.2374   21.4544 H   0  0  0  0  0  0
  -28.4419  -13.9475   21.7213 H   0  0  0  0  0  0
  -25.2738   -9.5718   22.4779 H   0  0  0  0  0  0
  -24.0004   -7.4657   22.7493 H   0  0  0  0  0  0
  -21.0833   -8.8755   19.8968 H   0  0  0  0  0  0
  -22.3656  -10.9675   19.6185 H   0  0  0  0  0  0
  -21.2024   -7.6153   23.9689 H   0  0  0  0  0  0
  -21.1476   -6.0539   25.9061 H   0  0  0  0  0  0
  -22.0603   -2.7608   23.2847 H   0  0  0  0  0  0
  -22.4140  -11.9883   22.4778 H   0  0  0  0  0  0
  -21.1113  -13.1232   22.2655 H   0  0  0  0  0  0
  -24.6698  -15.8535   20.5461 H   0  0  0  0  0  0
  -26.2954  -15.6325   20.1402 H   0  0  0  0  0  0
  -26.7202  -32.5419   23.1109 H   0  0  0  0  0  0
  -25.0095  -33.9719   25.0418 H   0  0  0  0  0  0
  -22.7188  -31.3019   21.4009 H   0  0  0  0  0  0
  -23.3746  -35.9613   23.3309 H   0  0  0  0  0  0
  -24.3570  -36.8910   22.2060 H   0  0  0  0  0  0
  -23.7246  -37.6478   23.6683 H   0  0  0  0  0  0
  -26.1035  -31.5349   20.6106 H   0  0  0  0  0  0
  -26.8435  -30.8270   22.0162 H   0  0  0  0  0  0
  -28.1132  -28.9477   21.2310 H   0  0  0  0  0  0
  -26.0148  -25.9211   18.9973 H   0  0  0  0  0  0
  -23.9781  -27.3043   19.0042 H   0  0  0  0  0  0
  -23.7686  -30.5900   19.4073 H   0  0  0  0  0  0
  -22.7599  -29.2485   19.8565 H   0  0  0  0  0  0
  -25.1298  -36.1903   25.0821 H   0  0  0  0  0  0
  -20.9980  -28.3274   24.1403 H   0  0  0  0  0  0
  -20.5680  -26.2307   23.3628 H   0  0  0  0  0  0
  -21.6640  -26.7433   22.1210 H   0  0  0  0  0  0
  -19.6903  -25.6295   21.1259 H   0  0  0  0  0  0
  -19.6681  -27.3194   20.6755 H   0  0  0  0  0  0
  -17.4199  -26.6716   21.4015 H   0  0  0  0  0  0
  -18.0285  -26.0067   22.9004 H   0  0  0  0  0  0
  -19.7940  -30.7286   24.2256 H   0  0  0  0  0  0
  -17.5016  -31.6267   24.5174 H   0  0  0  0  0  0
  -15.5354  -30.2982   23.7670 H   0  0  0  0  0  0
  -15.8680  -28.0824   22.7075 H   0  0  0  0  0  0
  -24.5948  -30.7020   25.7797 H   0  0  0  0  0  0
  -24.8864  -32.2880   26.4837 H   0  0  0  0  0  0
  -25.8053  -30.8961   27.0273 H   0  0  0  0  0  0
  -26.2982  -29.6734   24.1268 H   0  0  0  0  0  0
  -27.4081  -29.7305   25.4765 H   0  0  0  0  0  0
  -27.8841  -30.4303   23.9481 H   0  0  0  0  0  0
  -27.2660  -33.3672   26.2046 H   0  0  0  0  0  0
  -28.3864  -32.6903   25.0329 H   0  0  0  0  0  0
  -28.0730  -31.8523   26.5449 H   0  0  0  0  0  0
  -28.2589  -38.0082   24.7505 H   0  0  0  0  0  0
  -28.1055  -36.2612   24.6302 H   0  0  0  0  0  0
  -27.2286  -37.1456   25.8870 H   0  0  0  0  0  0
  -20.9395  -29.8755   21.6871 H   0  0  0  0  0  0
  -26.0152  -38.2834   24.1424 H   0  0  0  0  0  0
  -27.2360  -19.3688   18.8072 H   0  0  0  0  0  0
  -27.9447  -17.0948   18.6401 H   0  0  0  0  0  0
  -30.1040  -20.0912   21.9003 H   0  0  0  0  0  0
  -32.1773  -17.7263   23.8509 H   0  0  0  0  0  0
  -30.7171  -18.8407   23.6844 H   0  0  0  0  0  0
  -31.8485  -16.8745   21.6347 H   0  0  0  0  0  0
  -24.8680  -22.3231   21.2282 H   0  0  0  0  0  0
  -26.1247  -22.0028   22.4083 H   0  0  0  0  0  0
  -26.2690  -21.5048   19.3988 H   0  0  0  0  0  0
  -26.2008  -20.3147   20.6830 H   0  0  0  0  0  0
  -30.3931  -23.5379   19.6335 H   0  0  0  0  0  0
  -30.5120  -21.8003   19.7953 H   0  0  0  0  0  0
  -30.6922  -22.8273   21.2228 H   0  0  0  0  0  0
  -29.2787  -15.4773   17.7459 H   0  0  0  0  0  0
  -30.9733  -15.0464   17.9505 H   0  0  0  0  0  0
  -30.5181  -16.7178   17.8970 H   0  0  0  0  0  0
  -29.5901  -25.2259   21.1466 H   0  0  0  0  0  0
  -28.1841  -25.6648   22.0229 H   0  0  0  0  0  0
  1 25  1  0  0  0
  1 30  2  0  0  0
  1 88  1  0  0  0
  2  3  1  0  0  0
  2 25  1  0  0  0
  2 90  1  0  0  0
  2 91  1  0  0  0
  3  4  1  0  0  0
  3 92  1  0  0  0
  3 93  1  0  0  0
  4  5  1  0  0  0
  4 94  1  0  0  0
  4 95  1  0  0  0
  5  6  1  0  0  0
  5 26  1  0  0  0
  5 96  1  0  0  0
  6 25  1  0  0  0
  6 97  1  0  0  0
  6 98  1  0  0  0
  7  8  2  0  0  0
  7 26  1  0  0  0
  7 29  1  0  0  0
  8  9  1  0  0  0
  8 22  1  0  0  0
  9 10  1  0  0  0
  9 27  2  0  0  0
 10 11  2  0  0  0
 10 15  1  0  0  0
 11 12  1  0  0  0
 11 99  1  0  0  0
 12 13  2  0  0  0
 12100  1  0  0  0
 13 14  1  0  0  0
 13 31  1  0  0  0
 14 15  2  0  0  0
 14101  1  0  0  0
 15102  1  0  0  0
 16 17  2  0  0  0
 16 21  1  0  0  0
 16 31  1  0  0  0
 17 18  1  0  0  0
 17103  1  0  0  0
 18 19  2  0  0  0
 18104  1  0  0  0
 19 20  1  0  0  0
 19 24  1  0  0  0
 20 21  2  0  0  0
 20105  1  0  0  0
 21 23  1  0  0  0
 22 28  1  0  0  0
 22 32  2  0  0  0
 26 27  1  0  0  0
 28106  1  0  0  0
 28107  1  0  0  0
 29108  1  0  0  0
 29109  1  0  0  0
 33 34  1  0  0  0
 33 66  1  0  0  0
 33 70  2  0  0  0
 34 36  1  0  0  0
 34 59  1  0  0  0
 34110  1  0  0  0
 35 44  2  0  0  0
 35 45  1  0  0  0
 35 68  1  0  0  0
 36 56  1  0  0  0
 36111  1  0  0  0
 37 39  1  0  0  0
 37 47  1  0  0  0
 37 66  1  0  0  0
 37112  1  0  0  0
 38 43  2  0  0  0
 38 46  1  0  0  0
 38 47  1  0  0  0
 39 64  1  0  0  0
 39 67  2  0  0  0
 40 52  1  0  0  0
 40 53  2  0  0  0
 40 58  1  0  0  0
 41113  1  0  0  0
 41114  1  0  0  0
 41115  1  0  0  0
 41 48  1  0  0  0
 42 43  1  0  0  0
 42 66  1  0  0  0
 42116  1  0  0  0
 42117  1  0  0  0
 43 44  1  0  0  0
 44118  1  0  0  0
 45 46  2  0  0  0
 45119  1  0  0  0
 46120  1  0  0  0
 47121  1  0  0  0
 47122  1  0  0  0
 48 56  1  0  0  0
 48 65  1  0  0  0
 48123  1  0  0  0
 49 50  1  0  0  0
 49 53  1  0  0  0
 49 64  1  0  0  0
 49124  1  0  0  0
 50 51  1  0  0  0
 50125  1  0  0  0
 50126  1  0  0  0
 51 52  1  0  0  0
 51127  1  0  0  0
 51128  1  0  0  0
 52129  1  0  0  0
 52130  1  0  0  0
 53 54  1  0  0  0
 54 55  2  0  0  0
 54131  1  0  0  0
 55 57  1  0  0  0
 55132  1  0  0  0
 56 69  2  0  0  0
 57 58  2  0  0  0
 57133  1  0  0  0
 58134  1  0  0  0
 59 60  1  0  0  0
 59 61  1  0  0  0
 59 62  1  0  0  0
 60135  1  0  0  0
 60136  1  0  0  0
 60137  1  0  0  0
 61138  1  0  0  0
 61139  1  0  0  0
 61140  1  0  0  0
 62141  1  0  0  0
 62142  1  0  0  0
 62143  1  0  0  0
 63 65  1  0  0  0
 63144  1  0  0  0
 63145  1  0  0  0
 63146  1  0  0  0
 64147  1  0  0  0
 65148  1  0  0  0
 68 86  1  0  0  0
 71 72  2  0  0  0
 71 75  1  0  0  0
 71149  1  0  0  0
 72 76  1  0  0  0
 72150  1  0  0  0
 73 74  1  0  0  0
 73 75  2  0  0  0
 73151  1  0  0  0
 74 76  2  0  0  0
 74 81  1  0  0  0
 75 87  1  0  0  0
 76 88  1  0  0  0
 77 78  2  0  0  0
 77 79  1  0  0  0
 77 86  1  0  0  0
 78 84  1  0  0  0
 78 87  1  0  0  0
 79 82  1  0  0  0
 79 89  2  0  0  0
 80 81  2  0  0  0
 80152  1  0  0  0
 80153  1  0  0  0
 81154  1  0  0  0
 82 83  1  0  0  0
 82155  1  0  0  0
 82156  1  0  0  0
 83 87  1  0  0  0
 83157  1  0  0  0
 83158  1  0  0  0
 84159  1  0  0  0
 84160  1  0  0  0
 84161  1  0  0  0
 85 88  1  0  0  0
 85162  1  0  0  0
 85163  1  0  0  0
 85164  1  0  0  0
 86165  1  0  0  0
 86166  1  0  0  0
M  ISO  4   1 100  68 101  86 101  88 100
M  END
> <chiral flag>
0

> <version>
0

> <s_m_source_file>
/data/baiqing/PycharmProjects/Reinvent-master-3.2/result/LINK_invent/BTK/process_docking_weight1_custom_product_contain_oxygen_bond_distance_aromatic_linkinvent_7_9_3/rearranged_h_0111.sdf

> <i_m_source_file_index>
21

> <r_mmod_Potential_Energy-OPLS-2005>
431.210266113281

> <r_mmod_Stretch_Energy-OPLS-2005>
116.279167175293

> <r_mmod_Bend_Energy-OPLS-2005>
199.961120605469

> <r_mmod_Torsional_Energy-OPLS-2005>
340.999786376953

> <r_mmod_Improper_Torsional_Energy-OPLS-2005>
33.4015617370605

> <r_mmod_Van_der_Waal_Energy-OPLS-2005>
165.490127563477

> <r_mmod_Electrostatic_Energy-OPLS-2005>
-310.036712646484

> <r_mmod_Solvation_Energy-OPLS-2005>
-203.393081665039

> <b_mmod_Minimization_Converged-OPLS-2005>
0

> <r_mmod_RMS_Derivative-OPLS-2005>
1.26961028575897

$$$$
22
                    3D
 Structure written by MMmdl.
157165  0  0  1  0            999 V2000
  -30.7013  -14.7912   20.5551 C   0  0  0  0  0  0
  -30.4071  -12.5087   19.5176 C   0  0  0  0  0  0
  -29.5127  -12.5439   18.2583 C   0  0  0  0  0  0
  -28.0383  -12.3449   18.6514 C   0  0  0  0  0  0
  -27.6314  -13.2398   19.8521 C   0  0  2  0  0  0
  -28.6704  -13.2492   21.0015 C   0  0  0  0  0  0
  -25.2374  -13.8181   20.5719 C   0  0  0  0  0  0
  -24.1722  -13.0369   20.9263 C   0  0  0  0  0  0
  -24.6391  -11.6900   20.8783 C   0  0  0  0  0  0
  -23.9104  -10.4262   21.0448 C   0  0  0  0  0  0
  -24.3666   -9.4180   21.9185 C   0  0  0  0  0  0
  -23.6332   -8.2223   22.0745 C   0  0  0  0  0  0
  -22.4298   -8.0303   21.3556 C   0  0  0  0  0  0
  -21.9967   -9.0268   20.4638 C   0  0  0  0  0  0
  -22.7309  -10.2135   20.3064 C   0  0  0  0  0  0
  -21.6860   -6.0766   22.5292 C   0  0  0  0  0  0
  -21.4024   -6.5655   23.8242 C   0  0  0  0  0  0
  -21.3668   -5.6801   24.9192 C   0  0  0  0  0  0
  -21.6040   -4.3073   24.7226 C   0  0  0  0  0  0
  -21.8822   -3.8176   23.4347 C   0  0  0  0  0  0
  -21.9194   -4.6989   22.3404 C   0  0  0  0  0  0
  -22.7753  -13.5131   21.1947 C   0  0  0  0  0  0
  -22.1652   -4.2185   21.0987 F   0  0  0  0  0  0
  -21.5613   -3.4544   25.7733 F   0  0  0  0  0  0
  -29.9802  -13.6048   20.4357 N   0  0  0  0  0  0
  -26.2877  -12.9426   20.3320 N   0  0  0  0  0  0
  -25.9330  -11.6545   20.5788 N   0  0  0  0  0  0
  -22.0411  -12.8068   22.0490 N   0  0  0  0  0  0
  -25.3763  -15.1898   20.4084 N   0  0  0  0  0  0
  -31.8369  -14.8232   20.0705 O   0  0  0  0  0  0
  -21.6657   -6.8920   21.4267 O   0  0  0  0  0  0
  -22.3422  -14.5414   20.6835 O   0  0  0  0  0  0
  -24.6282  -31.8544   23.1888 C   0  0  0  0  0  0
  -25.9066  -32.4781   23.8284 C   0  0  1  0  0  0
  -27.2692  -27.2608   20.1293 C   0  0  0  0  0  0
  -25.5825  -33.8577   24.2179 N   0  0  0  0  0  0
  -23.4326  -30.4606   21.5332 C   0  0  2  0  0  0
  -24.9010  -28.9076   20.1181 C   0  0  0  0  0  0
  -22.7519  -29.4529   22.4926 C   0  0  0  0  0  0
  -18.0274  -28.1386   22.8466 C   0  0  0  0  0  0
  -24.1477  -36.7283   23.2649 C   0  0  0  0  0  0
  -25.9805  -30.7736   21.3699 C   0  0  0  0  0  0
  -26.0741  -29.3940   20.7124 C   0  0  0  0  0  0
  -27.2613  -28.5865   20.6941 C   0  0  0  0  0  0
  -26.0595  -26.8418   19.5237 C   0  0  0  0  0  0
  -24.8999  -27.6434   19.5132 C   0  0  0  0  0  0
  -23.6588  -29.7738   20.1602 C   0  0  0  0  0  0
  -25.4101  -36.3089   24.0332 C   0  0  1  0  0  0
  -20.5849  -28.3646   23.1278 C   0  0  2  0  0  0
  -20.6713  -26.9354   22.5400 C   0  0  0  0  0  0
  -19.5726  -26.6336   21.5186 C   0  0  0  0  0  0
  -18.1913  -26.7915   22.1624 C   0  0  0  0  0  0
  -19.1520  -28.8827   23.2866 C   0  0  0  0  0  0
  -18.9464  -30.1427   23.8903 C   0  0  0  0  0  0
  -17.6476  -30.6608   24.0531 C   0  0  0  0  0  0
  -25.9047  -34.9464   23.5071 C   0  0  0  0  0  0
  -16.5355  -29.9104   23.6337 C   0  0  0  0  0  0
  -16.7270  -28.6501   23.0383 C   0  0  0  0  0  0
  -26.4401  -31.6654   25.0711 C   0  0  0  0  0  0
  -25.3540  -31.3818   26.1341 C   0  0  0  0  0  0
  -27.0243  -30.3078   24.6210 C   0  0  0  0  0  0
  -27.5976  -32.4365   25.7486 C   0  0  0  0  0  0
  -27.5594  -37.1768   24.8463 C   0  0  0  0  0  0
  -21.4214  -29.3006   22.3717 N   0  0  0  0  0  0
  -26.4312  -37.3775   23.9418 N   0  0  0  0  0  0
  -24.6984  -31.0477   22.0878 N   0  0  0  0  0  0
  -23.4234  -28.8072   23.3005 O   0  0  0  0  0  0
  -28.3910  -26.3859   20.1527 O   0  0  0  0  0  0
  -26.5717  -34.8948   22.4693 O   0  0  0  0  0  0
  -23.5420  -32.1342   23.7167 O   0  0  0  0  0  0
  -30.1386  -18.5737   20.7027 C   0  0  0  0  0  0
  -28.0680  -19.4858   19.8317 C   0  0  0  0  0  0
  -28.3330  -17.0609   20.1245 C   0  0  0  0  0  0
  -29.3695  -19.7689   20.3171 C   0  0  0  0  0  0
  -29.6349  -17.1899   20.6367 C   0  0  0  0  0  0
  -27.5660  -18.1770   19.7398 C   0  0  0  0  0  0
  -31.0439  -14.2574   24.1611 C   0  0  0  0  0  0
  -30.3850  -15.3059   23.6481 C   0  0  0  0  0  0
  -29.0693  -22.2493   20.2094 C   0  0  0  0  0  0
  -30.9148  -16.1820   22.5219 C   0  0  0  0  0  0
  -29.4365  -23.8143   20.1101 C   0  0  0  0  0  0
  -28.2099  -24.8820   20.1679 C   0  0  0  0  0  0
  -29.8348  -21.1692   20.3673 N   0  0  0  0  0  0
  -30.2365  -15.9422   21.2298 N   0  0  0  0  0  0
  -26.2984  -17.9947   19.3044 F   0  0  0  0  0  0
  -31.4549  -12.5819   19.2312 H   0  0  0  0  0  0
  -30.3180  -11.5449   20.0172 H   0  0  0  0  0  0
  -29.8159  -11.7797   17.5377 H   0  0  0  0  0  0
  -29.6323  -13.4999   17.7497 H   0  0  0  0  0  0
  -27.8887  -11.2948   18.8947 H   0  0  0  0  0  0
  -27.3972  -12.5540   17.7913 H   0  0  0  0  0  0
  -27.5968  -14.2310   19.4193 H   0  0  0  0  0  0
  -28.7043  -12.2748   21.4936 H   0  0  0  0  0  0
  -28.3738  -13.9665   21.7688 H   0  0  0  0  0  0
  -25.2810   -9.5633   22.4758 H   0  0  0  0  0  0
  -24.0079   -7.4587   22.7423 H   0  0  0  0  0  0
  -21.0943   -8.8779   19.8890 H   0  0  0  0  0  0
  -22.3804  -10.9696   19.6181 H   0  0  0  0  0  0
  -21.2032   -7.6172   23.9757 H   0  0  0  0  0  0
  -21.1480   -6.0531   25.9109 H   0  0  0  0  0  0
  -22.0597   -2.7656   23.2828 H   0  0  0  0  0  0
  -22.4078  -11.9757   22.4879 H   0  0  0  0  0  0
  -21.0997  -13.1030   22.2602 H   0  0  0  0  0  0
  -24.5664  -15.7936   20.4924 H   0  0  0  0  0  0
  -26.1641  -15.6754   20.0024 H   0  0  0  0  0  0
  -26.7172  -32.5445   23.1070 H   0  0  0  0  0  0
  -24.9725  -33.9696   25.0133 H   0  0  0  0  0  0
  -22.7204  -31.2708   21.3627 H   0  0  0  0  0  0
  -23.3805  -35.9568   23.3303 H   0  0  0  0  0  0
  -24.3575  -36.8913   22.2074 H   0  0  0  0  0  0
  -23.7132  -37.6412   23.6716 H   0  0  0  0  0  0
  -26.0977  -31.5432   20.6046 H   0  0  0  0  0  0
  -26.8607  -30.8391   21.9986 H   0  0  0  0  0  0
  -28.1620  -28.9609   21.1583 H   0  0  0  0  0  0
  -25.9711  -25.8719   19.0536 H   0  0  0  0  0  0
  -23.9988  -27.2538   19.0553 H   0  0  0  0  0  0
  -23.7553  -30.5221   19.3724 H   0  0  0  0  0  0
  -22.7976  -29.1619   19.8912 H   0  0  0  0  0  0
  -25.1265  -36.1990   25.0842 H   0  0  0  0  0  0
  -20.9879  -28.3217   24.1439 H   0  0  0  0  0  0
  -20.5482  -26.2277   23.3610 H   0  0  0  0  0  0
  -21.6598  -26.7309   22.1268 H   0  0  0  0  0  0
  -19.6880  -25.6222   21.1293 H   0  0  0  0  0  0
  -19.6719  -27.3084   20.6674 H   0  0  0  0  0  0
  -17.4116  -26.6602   21.4104 H   0  0  0  0  0  0
  -18.0380  -26.0077   22.9064 H   0  0  0  0  0  0
  -19.7965  -30.7190   24.2349 H   0  0  0  0  0  0
  -17.5068  -31.6332   24.5066 H   0  0  0  0  0  0
  -15.5369  -30.3039   23.7632 H   0  0  0  0  0  0
  -15.8649  -28.0826   22.7152 H   0  0  0  0  0  0
  -24.5730  -30.7196   25.7540 H   0  0  0  0  0  0
  -24.8682  -32.3001   26.4699 H   0  0  0  0  0  0
  -25.7695  -30.8949   27.0171 H   0  0  0  0  0  0
  -26.2833  -29.6836   24.1171 H   0  0  0  0  0  0
  -27.3824  -29.7347   25.4776 H   0  0  0  0  0  0
  -27.8772  -30.4319   23.9505 H   0  0  0  0  0  0
  -27.2620  -33.3677   26.2058 H   0  0  0  0  0  0
  -28.3783  -32.6885   25.0299 H   0  0  0  0  0  0
  -28.0665  -31.8475   26.5369 H   0  0  0  0  0  0
  -28.2534  -38.0140   24.7579 H   0  0  0  0  0  0
  -28.1148  -36.2649   24.6208 H   0  0  0  0  0  0
  -27.2332  -37.1286   25.8870 H   0  0  0  0  0  0
  -20.9436  -29.8790   21.6953 H   0  0  0  0  0  0
  -26.0226  -38.2860   24.1482 H   0  0  0  0  0  0
  -31.1441  -18.7195   21.0735 H   0  0  0  0  0  0
  -27.3940  -20.2661   19.5156 H   0  0  0  0  0  0
  -27.8731  -16.0969   20.1103 H   0  0  0  0  0  0
  -30.6200  -13.6753   24.9689 H   0  0  0  0  0  0
  -32.0100  -13.9581   23.7823 H   0  0  0  0  0  0
  -29.4204  -15.5635   24.0632 H   0  0  0  0  0  0
  -27.9858  -22.1527   20.1028 H   0  0  0  0  0  0
  -30.7706  -17.2096   22.8617 H   0  0  0  0  0  0
  -31.9958  -16.0589   22.4245 H   0  0  0  0  0  0
  -29.9405  -23.9637   19.1514 H   0  0  0  0  0  0
  -30.1931  -24.0544   20.8604 H   0  0  0  0  0  0
  -27.6195  -24.6355   21.0537 H   0  0  0  0  0  0
  -27.5907  -24.5942   19.3177 H   0  0  0  0  0  0
  1 25  1  0  0  0
  1 30  2  0  0  0
  1 84  1  0  0  0
  2  3  1  0  0  0
  2 25  1  0  0  0
  2 86  1  0  0  0
  2 87  1  0  0  0
  3  4  1  0  0  0
  3 88  1  0  0  0
  3 89  1  0  0  0
  4  5  1  0  0  0
  4 90  1  0  0  0
  4 91  1  0  0  0
  5  6  1  0  0  0
  5 26  1  0  0  0
  5 92  1  0  0  0
  6 25  1  0  0  0
  6 93  1  0  0  0
  6 94  1  0  0  0
  7  8  2  0  0  0
  7 26  1  0  0  0
  7 29  1  0  0  0
  8  9  1  0  0  0
  8 22  1  0  0  0
  9 10  1  0  0  0
  9 27  2  0  0  0
 10 11  2  0  0  0
 10 15  1  0  0  0
 11 12  1  0  0  0
 11 95  1  0  0  0
 12 13  2  0  0  0
 12 96  1  0  0  0
 13 14  1  0  0  0
 13 31  1  0  0  0
 14 15  2  0  0  0
 14 97  1  0  0  0
 15 98  1  0  0  0
 16 17  2  0  0  0
 16 21  1  0  0  0
 16 31  1  0  0  0
 17 18  1  0  0  0
 17 99  1  0  0  0
 18 19  2  0  0  0
 18100  1  0  0  0
 19 20  1  0  0  0
 19 24  1  0  0  0
 20 21  2  0  0  0
 20101  1  0  0  0
 21 23  1  0  0  0
 22 28  1  0  0  0
 22 32  2  0  0  0
 26 27  1  0  0  0
 28102  1  0  0  0
 28103  1  0  0  0
 29104  1  0  0  0
 29105  1  0  0  0
 33 34  1  0  0  0
 33 66  1  0  0  0
 33 70  2  0  0  0
 34 36  1  0  0  0
 34 59  1  0  0  0
 34106  1  0  0  0
 35 44  2  0  0  0
 35 45  1  0  0  0
 35 68  1  0  0  0
 36 56  1  0  0  0
 36107  1  0  0  0
 37 39  1  0  0  0
 37 47  1  0  0  0
 37 66  1  0  0  0
 37108  1  0  0  0
 38 43  2  0  0  0
 38 46  1  0  0  0
 38 47  1  0  0  0
 39 64  1  0  0  0
 39 67  2  0  0  0
 40 52  1  0  0  0
 40 53  2  0  0  0
 40 58  1  0  0  0
 41109  1  0  0  0
 41110  1  0  0  0
 41111  1  0  0  0
 41 48  1  0  0  0
 42 43  1  0  0  0
 42 66  1  0  0  0
 42112  1  0  0  0
 42113  1  0  0  0
 43 44  1  0  0  0
 44114  1  0  0  0
 45 46  2  0  0  0
 45115  1  0  0  0
 46116  1  0  0  0
 47117  1  0  0  0
 47118  1  0  0  0
 48 56  1  0  0  0
 48 65  1  0  0  0
 48119  1  0  0  0
 49 50  1  0  0  0
 49 53  1  0  0  0
 49 64  1  0  0  0
 49120  1  0  0  0
 50 51  1  0  0  0
 50121  1  0  0  0
 50122  1  0  0  0
 51 52  1  0  0  0
 51123  1  0  0  0
 51124  1  0  0  0
 52125  1  0  0  0
 52126  1  0  0  0
 53 54  1  0  0  0
 54 55  2  0  0  0
 54127  1  0  0  0
 55 57  1  0  0  0
 55128  1  0  0  0
 56 69  2  0  0  0
 57 58  2  0  0  0
 57129  1  0  0  0
 58130  1  0  0  0
 59 60  1  0  0  0
 59 61  1  0  0  0
 59 62  1  0  0  0
 60131  1  0  0  0
 60132  1  0  0  0
 60133  1  0  0  0
 61134  1  0  0  0
 61135  1  0  0  0
 61136  1  0  0  0
 62137  1  0  0  0
 62138  1  0  0  0
 62139  1  0  0  0
 63 65  1  0  0  0
 63140  1  0  0  0
 63141  1  0  0  0
 63142  1  0  0  0
 64143  1  0  0  0
 65144  1  0  0  0
 68 82  1  0  0  0
 71 74  2  0  0  0
 71 75  1  0  0  0
 71145  1  0  0  0
 72 74  1  0  0  0
 72 76  2  0  0  0
 72146  1  0  0  0
 73 75  2  0  0  0
 73 76  1  0  0  0
 73147  1  0  0  0
 74 83  1  0  0  0
 75 84  1  0  0  0
 76 85  1  0  0  0
 77 78  2  0  0  0
 77148  1  0  0  0
 77149  1  0  0  0
 78 80  1  0  0  0
 78150  1  0  0  0
 79 81  1  0  0  0
 79 83  2  0  0  0
 79151  1  0  0  0
 80 84  1  0  0  0
 80152  1  0  0  0
 80153  1  0  0  0
 81 82  1  0  0  0
 81154  1  0  0  0
 81155  1  0  0  0
 82156  1  0  0  0
 82157  1  0  0  0
M  ISO  4   1 100  68 101  82 101  84 100
M  END
> <chiral flag>
0

> <version>
0

> <s_m_source_file>
/data/baiqing/PycharmProjects/Reinvent-master-3.2/result/LINK_invent/BTK/process_docking_weight1_custom_product_contain_oxygen_bond_distance_aromatic_linkinvent_7_9_3/rearranged_h_0111.sdf

> <i_m_source_file_index>
22

> <r_mmod_Potential_Energy-OPLS-2005>
440.472869873047

> <r_mmod_Stretch_Energy-OPLS-2005>
165.578704833984

> <r_mmod_Bend_Energy-OPLS-2005>
201.741775512695

> <r_mmod_Torsional_Energy-OPLS-2005>
294.483184814453

> <r_mmod_Improper_Torsional_Energy-OPLS-2005>
5.12353610992432

> <r_mmod_Van_der_Waal_Energy-OPLS-2005>
142.160232543945

> <r_mmod_Electrostatic_Energy-OPLS-2005>
-275.970794677734

> <r_mmod_Solvation_Energy-OPLS-2005>
-188.343353271484

> <b_mmod_Minimization_Converged-OPLS-2005>
0

> <r_mmod_RMS_Derivative-OPLS-2005>
7.47119760513306

$$$$
23
                    3D
 Structure written by MMmdl.
159167  0  0  1  0            999 V2000
  -30.6627  -14.6239   20.6138 C   0  0  0  0  0  0
  -30.4336  -12.4196   19.4581 C   0  0  0  0  0  0
  -29.5021  -12.5359   18.2298 C   0  0  0  0  0  0
  -28.0286  -12.3505   18.6381 C   0  0  0  0  0  0
  -27.6543  -13.2120   19.8697 C   0  0  2  0  0  0
  -28.6875  -13.0293   21.0003 C   0  0  0  0  0  0
  -25.2550  -13.8151   20.5649 C   0  0  0  0  0  0
  -24.1805  -13.0438   20.9150 C   0  0  0  0  0  0
  -24.6359  -11.6907   20.8716 C   0  0  0  0  0  0
  -23.9030  -10.4291   21.0410 C   0  0  0  0  0  0
  -24.3581   -9.4215   21.9195 C   0  0  0  0  0  0
  -23.6259   -8.2247   22.0768 C   0  0  0  0  0  0
  -22.4256   -8.0269   21.3542 C   0  0  0  0  0  0
  -21.9881   -9.0245   20.4652 C   0  0  0  0  0  0
  -22.7205  -10.2124   20.3069 C   0  0  0  0  0  0
  -21.6837   -6.0715   22.5267 C   0  0  0  0  0  0
  -21.4005   -6.5629   23.8202 C   0  0  0  0  0  0
  -21.3662   -5.6779   24.9164 C   0  0  0  0  0  0
  -21.6042   -4.3039   24.7218 C   0  0  0  0  0  0
  -21.8816   -3.8131   23.4347 C   0  0  0  0  0  0
  -21.9185   -4.6940   22.3396 C   0  0  0  0  0  0
  -22.7841  -13.5248   21.1815 C   0  0  0  0  0  0
  -22.1664   -4.2131   21.0968 F   0  0  0  0  0  0
  -21.5627   -3.4533   25.7748 F   0  0  0  0  0  0
  -30.0130  -13.4126   20.4781 N   0  0  0  0  0  0
  -26.2981  -12.9329   20.3308 N   0  0  0  0  0  0
  -25.9283  -11.6490   20.5725 N   0  0  0  0  0  0
  -22.0474  -12.8261   22.0387 N   0  0  0  0  0  0
  -25.4247  -15.1862   20.4029 N   0  0  0  0  0  0
  -31.7310  -14.8289   20.0261 O   0  0  0  0  0  0
  -21.6627   -6.8867   21.4238 O   0  0  0  0  0  0
  -22.3546  -14.5549   20.6635 O   0  0  0  0  0  0
  -24.6251  -31.8619   23.2030 C   0  0  0  0  0  0
  -25.9105  -32.4791   23.8362 C   0  0  1  0  0  0
  -27.2258  -27.3210   20.1289 C   0  0  0  0  0  0
  -25.5923  -33.8590   24.2296 N   0  0  0  0  0  0
  -23.4189  -30.4843   21.5470 C   0  0  2  0  0  0
  -24.8688  -28.9437   20.1145 C   0  0  0  0  0  0
  -22.7475  -29.4635   22.4969 C   0  0  0  0  0  0
  -18.0277  -28.1374   22.8491 C   0  0  0  0  0  0
  -24.1483  -36.7277   23.2632 C   0  0  0  0  0  0
  -25.9596  -30.7919   21.3777 C   0  0  0  0  0  0
  -26.0369  -29.4193   20.7231 C   0  0  0  0  0  0
  -27.2197  -28.6219   20.7200 C   0  0  0  0  0  0
  -26.0388  -26.9058   19.4820 C   0  0  0  0  0  0
  -24.8730  -27.6907   19.4834 C   0  0  0  0  0  0
  -23.6343  -29.8210   20.1627 C   0  0  0  0  0  0
  -25.4113  -36.3092   24.0328 C   0  0  1  0  0  0
  -20.5877  -28.3694   23.1287 C   0  0  2  0  0  0
  -20.6789  -26.9434   22.5399 C   0  0  0  0  0  0
  -19.5756  -26.6386   21.5208 C   0  0  0  0  0  0
  -18.1924  -26.7915   22.1617 C   0  0  0  0  0  0
  -19.1533  -28.8853   23.2869 C   0  0  0  0  0  0
  -18.9468  -30.1445   23.8909 C   0  0  0  0  0  0
  -17.6473  -30.6587   24.0575 C   0  0  0  0  0  0
  -25.9068  -34.9458   23.5126 C   0  0  0  0  0  0
  -16.5365  -29.9092   23.6328 C   0  0  0  0  0  0
  -16.7274  -28.6499   23.0374 C   0  0  0  0  0  0
  -26.4500  -31.6599   25.0739 C   0  0  0  0  0  0
  -25.3717  -31.3686   26.1449 C   0  0  0  0  0  0
  -27.0384  -30.3051   24.6155 C   0  0  0  0  0  0
  -27.6073  -32.4335   25.7486 C   0  0  0  0  0  0
  -27.5580  -37.1778   24.8453 C   0  0  0  0  0  0
  -21.4197  -29.3046   22.3697 N   0  0  0  0  0  0
  -26.4285  -37.3799   23.9429 N   0  0  0  0  0  0
  -24.6859  -31.0624   22.0995 N   0  0  0  0  0  0
  -23.4198  -28.8169   23.3056 O   0  0  0  0  0  0
  -28.3290  -26.4555   20.1842 O   0  0  0  0  0  0
  -26.5647  -34.8913   22.4700 O   0  0  0  0  0  0
  -23.5411  -32.1456   23.7352 O   0  0  0  0  0  0
  -28.8485  -19.4791   21.2389 C   0  0  0  0  0  0
  -31.0701  -17.9274   20.5979 C   0  0  0  0  0  0
  -28.8382  -18.0669   21.4887 C   0  0  0  0  0  0
  -29.9711  -17.2315   21.1695 C   0  0  0  0  0  0
  -31.0945  -19.3466   20.3961 C   0  0  0  0  0  0
  -29.9642  -20.1607   20.6931 C   0  0  0  0  0  0
  -26.8418  -18.1624   23.0220 C   0  0  0  0  0  0
  -27.6416  -17.5076   22.1606 C   0  0  0  0  0  0
  -30.0810  -15.7334   21.5800 C   0  0  0  0  0  0
  -29.2017  -23.9892   20.3965 C   0  0  0  0  0  0
  -33.4879  -19.5953   20.3892 C   0  0  0  0  0  0
  -28.0170  -25.0285   20.4645 C   0  0  0  0  0  0
  -28.9083  -22.4641   20.7260 C   0  0  0  0  0  0
  -29.7506  -15.4190   22.7643 N   0  0  0  0  0  0
  -30.3408  -24.3580   20.0837 O   0  0  0  0  0  0
  -32.2068  -19.9790   19.8815 O   0  0  0  0  0  0
  -30.0316  -21.5544   20.4576 O   0  0  0  0  0  0
  -31.4714  -12.5500   19.1475 H   0  0  0  0  0  0
  -30.3844  -11.4126   19.8749 H   0  0  0  0  0  0
  -29.7757  -11.7958   17.4764 H   0  0  0  0  0  0
  -29.6310  -13.5120   17.7585 H   0  0  0  0  0  0
  -27.8773  -11.2943   18.8708 H   0  0  0  0  0  0
  -27.3647  -12.5738   17.8019 H   0  0  0  0  0  0
  -27.6861  -14.2547   19.5526 H   0  0  0  0  0  0
  -28.7087  -11.9902   21.3294 H   0  0  0  0  0  0
  -28.3708  -13.5873   21.8768 H   0  0  0  0  0  0
  -25.2718   -9.5684   22.4784 H   0  0  0  0  0  0
  -23.9952   -7.4654   22.7506 H   0  0  0  0  0  0
  -21.0805   -8.8757   19.8976 H   0  0  0  0  0  0
  -22.3657  -10.9662   19.6180 H   0  0  0  0  0  0
  -21.2008   -7.6139   23.9686 H   0  0  0  0  0  0
  -21.1484   -6.0525   25.9063 H   0  0  0  0  0  0
  -22.0593   -2.7599   23.2846 H   0  0  0  0  0  0
  -22.4068  -11.9923   22.4793 H   0  0  0  0  0  0
  -21.1113  -13.1326   22.2611 H   0  0  0  0  0  0
  -24.6540  -15.8348   20.5165 H   0  0  0  0  0  0
  -26.2701  -15.6304   20.0695 H   0  0  0  0  0  0
  -26.7171  -32.5479   23.1106 H   0  0  0  0  0  0
  -25.0076  -33.9755   25.0445 H   0  0  0  0  0  0
  -22.7109  -31.3031   21.4014 H   0  0  0  0  0  0
  -23.3770  -35.9581   23.3282 H   0  0  0  0  0  0
  -24.3575  -36.8925   22.2051 H   0  0  0  0  0  0
  -23.7196  -37.6445   23.6702 H   0  0  0  0  0  0
  -26.0876  -31.5502   20.6052 H   0  0  0  0  0  0
  -26.8395  -30.8446   22.0066 H   0  0  0  0  0  0
  -28.1119  -28.9823   21.2129 H   0  0  0  0  0  0
  -25.9857  -25.9615   18.9628 H   0  0  0  0  0  0
  -23.9822  -27.3254   18.9911 H   0  0  0  0  0  0
  -23.7496  -30.6003   19.4062 H   0  0  0  0  0  0
  -22.7562  -29.2470   19.8618 H   0  0  0  0  0  0
  -25.1258  -36.1947   25.0812 H   0  0  0  0  0  0
  -20.9947  -28.3281   24.1420 H   0  0  0  0  0  0
  -20.5719  -26.2309   23.3594 H   0  0  0  0  0  0
  -21.6645  -26.7469   22.1185 H   0  0  0  0  0  0
  -19.6940  -25.6300   21.1237 H   0  0  0  0  0  0
  -19.6687  -27.3196   20.6743 H   0  0  0  0  0  0
  -17.4194  -26.6673   21.4007 H   0  0  0  0  0  0
  -18.0319  -26.0026   22.8980 H   0  0  0  0  0  0
  -19.7961  -30.7241   24.2301 H   0  0  0  0  0  0
  -17.5043  -31.6277   24.5151 H   0  0  0  0  0  0
  -15.5386  -30.3006   23.7652 H   0  0  0  0  0  0
  -15.8665  -28.0824   22.7113 H   0  0  0  0  0  0
  -24.5918  -30.7021   25.7732 H   0  0  0  0  0  0
  -24.8866  -32.2816   26.4916 H   0  0  0  0  0  0
  -25.8002  -30.8820   27.0216 H   0  0  0  0  0  0
  -26.2968  -29.6760   24.1220 H   0  0  0  0  0  0
  -27.4178  -29.7338   25.4638 H   0  0  0  0  0  0
  -27.8771  -30.4400   23.9325 H   0  0  0  0  0  0
  -27.2751  -33.3692   26.1994 H   0  0  0  0  0  0
  -28.3906  -32.6792   25.0304 H   0  0  0  0  0  0
  -28.0709  -31.8485   26.5448 H   0  0  0  0  0  0
  -28.2539  -38.0135   24.7636 H   0  0  0  0  0  0
  -28.1141  -36.2680   24.6134 H   0  0  0  0  0  0
  -27.2311  -37.1244   25.8851 H   0  0  0  0  0  0
  -20.9401  -29.8778   21.6893 H   0  0  0  0  0  0
  -26.0154  -38.2846   24.1508 H   0  0  0  0  0  0
  -27.9725  -20.0598   21.4873 H   0  0  0  0  0  0
  -31.9382  -17.3438   20.3354 H   0  0  0  0  0  0
  -25.9792  -17.6720   23.4515 H   0  0  0  0  0  0
  -27.0248  -19.1852   23.3234 H   0  0  0  0  0  0
  -27.3796  -16.4863   21.9186 H   0  0  0  0  0  0
  -34.2472  -19.7919   19.6319 H   0  0  0  0  0  0
  -33.5990  -18.5514   20.6783 H   0  0  0  0  0  0
  -33.7383  -20.2009   21.2605 H   0  0  0  0  0  0
  -27.5755  -24.9689   21.4604 H   0  0  0  0  0  0
  -27.2672  -24.6502   19.7736 H   0  0  0  0  0  0
  -28.0444  -22.1470   20.1426 H   0  0  0  0  0  0
  -28.6301  -22.3903   21.7774 H   0  0  0  0  0  0
  -29.4194  -16.2305   23.2725 H   0  0  0  0  0  0
  1 25  1  0  0  0
  1 30  2  0  0  0
  1 79  1  0  0  0
  2  3  1  0  0  0
  2 25  1  0  0  0
  2 88  1  0  0  0
  2 89  1  0  0  0
  3  4  1  0  0  0
  3 90  1  0  0  0
  3 91  1  0  0  0
  4  5  1  0  0  0
  4 92  1  0  0  0
  4 93  1  0  0  0
  5  6  1  0  0  0
  5 26  1  0  0  0
  5 94  1  0  0  0
  6 25  1  0  0  0
  6 95  1  0  0  0
  6 96  1  0  0  0
  7  8  2  0  0  0
  7 26  1  0  0  0
  7 29  1  0  0  0
  8  9  1  0  0  0
  8 22  1  0  0  0
  9 10  1  0  0  0
  9 27  2  0  0  0
 10 11  2  0  0  0
 10 15  1  0  0  0
 11 12  1  0  0  0
 11 97  1  0  0  0
 12 13  2  0  0  0
 12 98  1  0  0  0
 13 14  1  0  0  0
 13 31  1  0  0  0
 14 15  2  0  0  0
 14 99  1  0  0  0
 15100  1  0  0  0
 16 17  2  0  0  0
 16 21  1  0  0  0
 16 31  1  0  0  0
 17 18  1  0  0  0
 17101  1  0  0  0
 18 19  2  0  0  0
 18102  1  0  0  0
 19 20  1  0  0  0
 19 24  1  0  0  0
 20 21  2  0  0  0
 20103  1  0  0  0
 21 23  1  0  0  0
 22 28  1  0  0  0
 22 32  2  0  0  0
 26 27  1  0  0  0
 28104  1  0  0  0
 28105  1  0  0  0
 29106  1  0  0  0
 29107  1  0  0  0
 33 34  1  0  0  0
 33 66  1  0  0  0
 33 70  2  0  0  0
 34 36  1  0  0  0
 34 59  1  0  0  0
 34108  1  0  0  0
 35 44  2  0  0  0
 35 45  1  0  0  0
 35 68  1  0  0  0
 36 56  1  0  0  0
 36109  1  0  0  0
 37 39  1  0  0  0
 37 47  1  0  0  0
 37 66  1  0  0  0
 37110  1  0  0  0
 38 43  2  0  0  0
 38 46  1  0  0  0
 38 47  1  0  0  0
 39 64  1  0  0  0
 39 67  2  0  0  0
 40 52  1  0  0  0
 40 53  2  0  0  0
 40 58  1  0  0  0
 41111  1  0  0  0
 41112  1  0  0  0
 41113  1  0  0  0
 41 48  1  0  0  0
 42 43  1  0  0  0
 42 66  1  0  0  0
 42114  1  0  0  0
 42115  1  0  0  0
 43 44  1  0  0  0
 44116  1  0  0  0
 45 46  2  0  0  0
 45117  1  0  0  0
 46118  1  0  0  0
 47119  1  0  0  0
 47120  1  0  0  0
 48 56  1  0  0  0
 48 65  1  0  0  0
 48121  1  0  0  0
 49 50  1  0  0  0
 49 53  1  0  0  0
 49 64  1  0  0  0
 49122  1  0  0  0
 50 51  1  0  0  0
 50123  1  0  0  0
 50124  1  0  0  0
 51 52  1  0  0  0
 51125  1  0  0  0
 51126  1  0  0  0
 52127  1  0  0  0
 52128  1  0  0  0
 53 54  1  0  0  0
 54 55  2  0  0  0
 54129  1  0  0  0
 55 57  1  0  0  0
 55130  1  0  0  0
 56 69  2  0  0  0
 57 58  2  0  0  0
 57131  1  0  0  0
 58132  1  0  0  0
 59 60  1  0  0  0
 59 61  1  0  0  0
 59 62  1  0  0  0
 60133  1  0  0  0
 60134  1  0  0  0
 60135  1  0  0  0
 61136  1  0  0  0
 61137  1  0  0  0
 61138  1  0  0  0
 62139  1  0  0  0
 62140  1  0  0  0
 62141  1  0  0  0
 63 65  1  0  0  0
 63142  1  0  0  0
 63143  1  0  0  0
 63144  1  0  0  0
 64145  1  0  0  0
 65146  1  0  0  0
 68 82  1  0  0  0
 71 73  2  0  0  0
 71 76  1  0  0  0
 71147  1  0  0  0
 72 74  2  0  0  0
 72 75  1  0  0  0
 72148  1  0  0  0
 73 74  1  0  0  0
 73 78  1  0  0  0
 74 79  1  0  0  0
 75 76  2  0  0  0
 75 86  1  0  0  0
 76 87  1  0  0  0
 77 78  2  0  0  0
 77149  1  0  0  0
 77150  1  0  0  0
 78151  1  0  0  0
 79 84  2  0  0  0
 80 82  1  0  0  0
 80 83  1  0  0  0
 80 85  2  0  0  0
 81 86  1  0  0  0
 81152  1  0  0  0
 81153  1  0  0  0
 81154  1  0  0  0
 82155  1  0  0  0
 82156  1  0  0  0
 83 87  1  0  0  0
 83157  1  0  0  0
 83158  1  0  0  0
 84159  1  0  0  0
M  ISO  4   1 100  68 101  79 100  82 101
M  END
> <chiral flag>
0

> <version>
0

> <s_m_source_file>
/data/baiqing/PycharmProjects/Reinvent-master-3.2/result/LINK_invent/BTK/process_docking_weight1_custom_product_contain_oxygen_bond_distance_aromatic_linkinvent_7_9_3/rearranged_h_0111.sdf

> <i_m_source_file_index>
23

> <r_mmod_Potential_Energy-OPLS-2005>
274.844360351562

> <r_mmod_Stretch_Energy-OPLS-2005>
100.801414489746

> <r_mmod_Bend_Energy-OPLS-2005>
155.16276550293

> <r_mmod_Torsional_Energy-OPLS-2005>
236.940521240234

> <r_mmod_Improper_Torsional_Energy-OPLS-2005>
3.42295002937317

> <r_mmod_Van_der_Waal_Energy-OPLS-2005>
159.427795410156

> <r_mmod_Electrostatic_Energy-OPLS-2005>
-188.399276733398

> <r_mmod_Solvation_Energy-OPLS-2005>
-238.619354248047

> <b_mmod_Minimization_Converged-OPLS-2005>
0

> <r_mmod_RMS_Derivative-OPLS-2005>
3.28184843063354

$$$$
24
                    3D
 Structure written by MMmdl.
158166  0  0  1  0            999 V2000
  -30.6231  -14.6267   20.6060 C   0  0  0  0  0  0
  -30.4300  -12.4202   19.4364 C   0  0  0  0  0  0
  -29.4980  -12.5465   18.2081 C   0  0  0  0  0  0
  -28.0167  -12.3725   18.6086 C   0  0  0  0  0  0
  -27.6433  -13.2102   19.8579 C   0  0  2  0  0  0
  -28.6778  -12.9975   20.9748 C   0  0  0  0  0  0
  -25.2468  -13.8155   20.5703 C   0  0  0  0  0  0
  -24.1744  -13.0402   20.9138 C   0  0  0  0  0  0
  -24.6321  -11.6880   20.8690 C   0  0  0  0  0  0
  -23.9013  -10.4267   21.0374 C   0  0  0  0  0  0
  -24.3589   -9.4197   21.9158 C   0  0  0  0  0  0
  -23.6280   -8.2224   22.0732 C   0  0  0  0  0  0
  -22.4260   -8.0256   21.3535 C   0  0  0  0  0  0
  -21.9877   -9.0211   20.4640 C   0  0  0  0  0  0
  -22.7175  -10.2095   20.3032 C   0  0  0  0  0  0
  -21.6826   -6.0737   22.5292 C   0  0  0  0  0  0
  -21.3999   -6.5648   23.8226 C   0  0  0  0  0  0
  -21.3647   -5.6793   24.9185 C   0  0  0  0  0  0
  -21.6042   -4.3057   24.7231 C   0  0  0  0  0  0
  -21.8808   -3.8154   23.4349 C   0  0  0  0  0  0
  -21.9166   -4.6965   22.3409 C   0  0  0  0  0  0
  -22.7765  -13.5169   21.1843 C   0  0  0  0  0  0
  -22.1645   -4.2166   21.0987 F   0  0  0  0  0  0
  -21.5625   -3.4531   25.7739 F   0  0  0  0  0  0
  -29.9943  -13.4075   20.4514 N   0  0  0  0  0  0
  -26.2900  -12.9336   20.3269 N   0  0  0  0  0  0
  -25.9246  -11.6488   20.5688 N   0  0  0  0  0  0
  -22.0446  -12.8175   22.0437 N   0  0  0  0  0  0
  -25.4050  -15.1907   20.4325 N   0  0  0  0  0  0
  -31.7188  -14.8355   20.0711 O   0  0  0  0  0  0
  -21.6621   -6.8864   21.4239 O   0  0  0  0  0  0
  -22.3425  -14.5463   20.6673 O   0  0  0  0  0  0
  -24.6301  -31.8590   23.2045 C   0  0  0  0  0  0
  -25.9146  -32.4776   23.8369 C   0  0  1  0  0  0
  -27.2023  -27.2965   20.1150 C   0  0  0  0  0  0
  -25.5959  -33.8579   24.2295 N   0  0  0  0  0  0
  -23.4209  -30.4887   21.5458 C   0  0  2  0  0  0
  -24.8627  -28.9455   20.1094 C   0  0  0  0  0  0
  -22.7479  -29.4643   22.4900 C   0  0  0  0  0  0
  -18.0298  -28.1377   22.8495 C   0  0  0  0  0  0
  -24.1486  -36.7286   23.2629 C   0  0  0  0  0  0
  -25.9671  -30.7850   21.3785 C   0  0  0  0  0  0
  -26.0354  -29.4120   20.7182 C   0  0  0  0  0  0
  -27.2111  -28.5975   20.7130 C   0  0  0  0  0  0
  -26.0066  -26.8989   19.4725 C   0  0  0  0  0  0
  -24.8514  -27.6958   19.4760 C   0  0  0  0  0  0
  -23.6368  -29.8321   20.1582 C   0  0  0  0  0  0
  -25.4114  -36.3084   24.0328 C   0  0  1  0  0  0
  -20.5902  -28.3694   23.1273 C   0  0  2  0  0  0
  -20.6785  -26.9407   22.5409 C   0  0  0  0  0  0
  -19.5752  -26.6384   21.5215 C   0  0  0  0  0  0
  -18.1934  -26.7927   22.1633 C   0  0  0  0  0  0
  -19.1544  -28.8849   23.2884 C   0  0  0  0  0  0
  -18.9471  -30.1455   23.8894 C   0  0  0  0  0  0
  -17.6466  -30.6575   24.0561 C   0  0  0  0  0  0
  -25.9054  -34.9454   23.5100 C   0  0  0  0  0  0
  -16.5359  -29.9077   23.6325 C   0  0  0  0  0  0
  -16.7282  -28.6494   23.0345 C   0  0  0  0  0  0
  -26.4528  -31.6578   25.0729 C   0  0  0  0  0  0
  -25.3772  -31.3731   26.1460 C   0  0  0  0  0  0
  -27.0351  -30.2981   24.6200 C   0  0  0  0  0  0
  -27.6084  -32.4299   25.7509 C   0  0  0  0  0  0
  -27.5568  -37.1810   24.8465 C   0  0  0  0  0  0
  -21.4190  -29.3045   22.3649 N   0  0  0  0  0  0
  -26.4284  -37.3778   23.9405 N   0  0  0  0  0  0
  -24.6916  -31.0624   22.0975 N   0  0  0  0  0  0
  -23.4212  -28.8175   23.2954 O   0  0  0  0  0  0
  -28.2930  -26.4079   20.1694 O   0  0  0  0  0  0
  -26.5592  -34.8927   22.4647 O   0  0  0  0  0  0
  -23.5474  -32.1356   23.7396 O   0  0  0  0  0  0
  -31.0699  -17.8763   21.3966 C   0  0  0  0  0  0
  -30.0104  -17.0632   20.9397 C   0  0  0  0  0  0
  -30.9839  -19.2932   21.3175 C   0  0  0  0  0  0
  -28.9209  -17.7781   20.3705 C   0  0  0  0  0  0
  -29.8435  -19.9173   20.7440 C   0  0  0  0  0  0
  -28.9373  -16.2079   23.4465 C   0  0  0  0  0  0
  -29.6608  -15.3969   22.6517 C   0  0  0  0  0  0
  -29.1036  -23.8586   20.3882 C   0  0  0  0  0  0
  -28.7088  -22.2980   20.3494 C   0  0  0  0  0  0
  -27.9867  -24.9499   20.0826 C   0  0  0  0  0  0
  -28.8288  -19.1430   20.2739 N   0  0  0  0  0  0
  -27.8136  -17.0820   19.9198 N   0  0  0  0  0  0
  -29.8211  -21.3528   20.6704 N   0  0  0  0  0  0
  -29.9728  -15.6348   21.2961 N   0  0  0  0  0  0
  -31.9851  -20.0487   21.8635 O   0  0  0  0  0  0
  -31.4679  -12.5666   19.1348 H   0  0  0  0  0  0
  -30.3881  -11.4100   19.8457 H   0  0  0  0  0  0
  -29.7703  -11.8158   17.4445 H   0  0  0  0  0  0
  -29.6371  -13.5288   17.7522 H   0  0  0  0  0  0
  -27.8450  -11.3147   18.8050 H   0  0  0  0  0  0
  -27.3655  -12.6429   17.7740 H   0  0  0  0  0  0
  -27.6752  -14.2576   19.5640 H   0  0  0  0  0  0
  -28.7081  -11.9466   21.2677 H   0  0  0  0  0  0
  -28.3482  -13.5119   21.8697 H   0  0  0  0  0  0
  -25.2728   -9.5679   22.4727 H   0  0  0  0  0  0
  -24.0005   -7.4598   22.7431 H   0  0  0  0  0  0
  -21.0810   -8.8665   19.8952 H   0  0  0  0  0  0
  -22.3591  -10.9614   19.6126 H   0  0  0  0  0  0
  -21.2016   -7.6160   23.9752 H   0  0  0  0  0  0
  -21.1479   -6.0518   25.9097 H   0  0  0  0  0  0
  -22.0604   -2.7637   23.2826 H   0  0  0  0  0  0
  -22.4143  -11.9859   22.4810 H   0  0  0  0  0  0
  -21.1063  -13.1174   22.2723 H   0  0  0  0  0  0
  -24.6231  -15.8155   20.5964 H   0  0  0  0  0  0
  -26.2846  -15.6909   20.3345 H   0  0  0  0  0  0
  -26.7225  -32.5443   23.1130 H   0  0  0  0  0  0
  -25.0183  -33.9742   25.0497 H   0  0  0  0  0  0
  -22.7154  -31.3106   21.4054 H   0  0  0  0  0  0
  -23.3743  -35.9618   23.3314 H   0  0  0  0  0  0
  -24.3567  -36.8876   22.2035 H   0  0  0  0  0  0
  -23.7264  -37.6510   23.6629 H   0  0  0  0  0  0
  -26.1066  -31.5520   20.6161 H   0  0  0  0  0  0
  -26.8452  -30.8294   22.0102 H   0  0  0  0  0  0
  -28.1100  -28.9412   21.2061 H   0  0  0  0  0  0
  -25.9246  -25.9508   18.9644 H   0  0  0  0  0  0
  -23.9553  -27.3364   18.9878 H   0  0  0  0  0  0
  -23.7686  -30.6113   19.4063 H   0  0  0  0  0  0
  -22.7538  -29.2710   19.8458 H   0  0  0  0  0  0
  -25.1314  -36.1917   25.0822 H   0  0  0  0  0  0
  -21.0016  -28.3270   24.1378 H   0  0  0  0  0  0
  -20.5686  -26.2293   23.3608 H   0  0  0  0  0  0
  -21.6657  -26.7426   22.1191 H   0  0  0  0  0  0
  -19.6902  -25.6294   21.1228 H   0  0  0  0  0  0
  -19.6688  -27.3206   20.6744 H   0  0  0  0  0  0
  -17.4204  -26.6673   21.4029 H   0  0  0  0  0  0
  -18.0328  -26.0068   22.9023 H   0  0  0  0  0  0
  -19.7945  -30.7273   24.2248 H   0  0  0  0  0  0
  -17.5022  -31.6255   24.5165 H   0  0  0  0  0  0
  -15.5358  -30.2978   23.7649 H   0  0  0  0  0  0
  -15.8681  -28.0821   22.7047 H   0  0  0  0  0  0
  -24.5956  -30.7054   25.7821 H   0  0  0  0  0  0
  -24.8962  -32.2903   26.4854 H   0  0  0  0  0  0
  -25.8121  -30.8949   27.0244 H   0  0  0  0  0  0
  -26.2914  -29.6741   24.1218 H   0  0  0  0  0  0
  -27.4010  -29.7239   25.4728 H   0  0  0  0  0  0
  -27.8824  -30.4231   23.9453 H   0  0  0  0  0  0
  -27.2679  -33.3593   26.2083 H   0  0  0  0  0  0
  -28.3912  -32.6842   25.0352 H   0  0  0  0  0  0
  -28.0721  -31.8405   26.5435 H   0  0  0  0  0  0
  -28.2614  -38.0078   24.7485 H   0  0  0  0  0  0
  -28.1040  -36.2615   24.6332 H   0  0  0  0  0  0
  -27.2277  -37.1513   25.8865 H   0  0  0  0  0  0
  -20.9331  -29.8803   21.6923 H   0  0  0  0  0  0
  -26.0162  -38.2848   24.1400 H   0  0  0  0  0  0
  -31.9129  -17.4168   21.8881 H   0  0  0  0  0  0
  -28.7550  -15.9439   24.4791 H   0  0  0  0  0  0
  -28.5062  -17.1355   23.1007 H   0  0  0  0  0  0
  -30.0603  -14.4685   23.0463 H   0  0  0  0  0  0
  -29.9094  -24.0241   19.6732 H   0  0  0  0  0  0
  -29.5205  -24.0896   21.3698 H   0  0  0  0  0  0
  -28.3165  -22.0397   19.3634 H   0  0  0  0  0  0
  -27.8924  -22.1138   21.0518 H   0  0  0  0  0  0
  -27.1505  -24.7436   20.7545 H   0  0  0  0  0  0
  -27.6340  -24.7278   19.0745 H   0  0  0  0  0  0
  -28.0074  -16.1505   19.5817 H   0  0  0  0  0  0
  -27.1725  -17.6076   19.3387 H   0  0  0  0  0  0
  -30.7159  -21.7995   20.8334 H   0  0  0  0  0  0
  -31.6616  -20.8570   22.2510 H   0  0  0  0  0  0
  1 25  1  0  0  0
  1 30  2  0  0  0
  1 84  1  0  0  0
  2  3  1  0  0  0
  2 25  1  0  0  0
  2 86  1  0  0  0
  2 87  1  0  0  0
  3  4  1  0  0  0
  3 88  1  0  0  0
  3 89  1  0  0  0
  4  5  1  0  0  0
  4 90  1  0  0  0
  4 91  1  0  0  0
  5  6  1  0  0  0
  5 26  1  0  0  0
  5 92  1  0  0  0
  6 25  1  0  0  0
  6 93  1  0  0  0
  6 94  1  0  0  0
  7  8  2  0  0  0
  7 26  1  0  0  0
  7 29  1  0  0  0
  8  9  1  0  0  0
  8 22  1  0  0  0
  9 10  1  0  0  0
  9 27  2  0  0  0
 10 11  2  0  0  0
 10 15  1  0  0  0
 11 12  1  0  0  0
 11 95  1  0  0  0
 12 13  2  0  0  0
 12 96  1  0  0  0
 13 14  1  0  0  0
 13 31  1  0  0  0
 14 15  2  0  0  0
 14 97  1  0  0  0
 15 98  1  0  0  0
 16 17  2  0  0  0
 16 21  1  0  0  0
 16 31  1  0  0  0
 17 18  1  0  0  0
 17 99  1  0  0  0
 18 19  2  0  0  0
 18100  1  0  0  0
 19 20  1  0  0  0
 19 24  1  0  0  0
 20 21  2  0  0  0
 20101  1  0  0  0
 21 23  1  0  0  0
 22 28  1  0  0  0
 22 32  2  0  0  0
 26 27  1  0  0  0
 28102  1  0  0  0
 28103  1  0  0  0
 29104  1  0  0  0
 29105  1  0  0  0
 33 34  1  0  0  0
 33 66  1  0  0  0
 33 70  2  0  0  0
 34 36  1  0  0  0
 34 59  1  0  0  0
 34106  1  0  0  0
 35 44  2  0  0  0
 35 45  1  0  0  0
 35 68  1  0  0  0
 36 56  1  0  0  0
 36107  1  0  0  0
 37 39  1  0  0  0
 37 47  1  0  0  0
 37 66  1  0  0  0
 37108  1  0  0  0
 38 43  2  0  0  0
 38 46  1  0  0  0
 38 47  1  0  0  0
 39 64  1  0  0  0
 39 67  2  0  0  0
 40 52  1  0  0  0
 40 53  2  0  0  0
 40 58  1  0  0  0
 41109  1  0  0  0
 41110  1  0  0  0
 41111  1  0  0  0
 41 48  1  0  0  0
 42 43  1  0  0  0
 42 66  1  0  0  0
 42112  1  0  0  0
 42113  1  0  0  0
 43 44  1  0  0  0
 44114  1  0  0  0
 45 46  2  0  0  0
 45115  1  0  0  0
 46116  1  0  0  0
 47117  1  0  0  0
 47118  1  0  0  0
 48 56  1  0  0  0
 48 65  1  0  0  0
 48119  1  0  0  0
 49 50  1  0  0  0
 49 53  1  0  0  0
 49 64  1  0  0  0
 49120  1  0  0  0
 50 51  1  0  0  0
 50121  1  0  0  0
 50122  1  0  0  0
 51 52  1  0  0  0
 51123  1  0  0  0
 51124  1  0  0  0
 52125  1  0  0  0
 52126  1  0  0  0
 53 54  1  0  0  0
 54 55  2  0  0  0
 54127  1  0  0  0
 55 57  1  0  0  0
 55128  1  0  0  0
 56 69  2  0  0  0
 57 58  2  0  0  0
 57129  1  0  0  0
 58130  1  0  0  0
 59 60  1  0  0  0
 59 61  1  0  0  0
 59 62  1  0  0  0
 60131  1  0  0  0
 60132  1  0  0  0
 60133  1  0  0  0
 61134  1  0  0  0
 61135  1  0  0  0
 61136  1  0  0  0
 62137  1  0  0  0
 62138  1  0  0  0
 62139  1  0  0  0
 63 65  1  0  0  0
 63140  1  0  0  0
 63141  1  0  0  0
 63142  1  0  0  0
 64143  1  0  0  0
 65144  1  0  0  0
 68 80  1  0  0  0
 71 72  2  0  0  0
 71 73  1  0  0  0
 71145  1  0  0  0
 72 74  1  0  0  0
 72 84  1  0  0  0
 73 75  2  0  0  0
 73 85  1  0  0  0
 74 81  2  0  0  0
 74 82  1  0  0  0
 75 81  1  0  0  0
 75 83  1  0  0  0
 76 77  2  0  0  0
 76146  1  0  0  0
 76147  1  0  0  0
 77 84  1  0  0  0
 77148  1  0  0  0
 78 79  1  0  0  0
 78 80  1  0  0  0
 78149  1  0  0  0
 78150  1  0  0  0
 79 83  1  0  0  0
 79151  1  0  0  0
 79152  1  0  0  0
 80153  1  0  0  0
 80154  1  0  0  0
 82155  1  0  0  0
 82156  1  0  0  0
 83157  1  0  0  0
 85158  1  0  0  0
M  ISO  4   1 100  68 101  80 101  84 100
M  END
> <chiral flag>
0

> <version>
0

> <s_m_source_file>
/data/baiqing/PycharmProjects/Reinvent-master-3.2/result/LINK_invent/BTK/process_docking_weight1_custom_product_contain_oxygen_bond_distance_aromatic_linkinvent_7_9_3/rearranged_h_0111.sdf

> <i_m_source_file_index>
24

> <r_mmod_Potential_Energy-OPLS-2005>
-111.356018066406

> <r_mmod_Stretch_Energy-OPLS-2005>
89.0215225219727

> <r_mmod_Bend_Energy-OPLS-2005>
161.027008056641

> <r_mmod_Torsional_Energy-OPLS-2005>
318.469451904297

> <r_mmod_Improper_Torsional_Energy-OPLS-2005>
9.66596508026123

> <r_mmod_Van_der_Waal_Energy-OPLS-2005>
160.640853881836

> <r_mmod_Electrostatic_Energy-OPLS-2005>
-666.242614746094

> <r_mmod_Solvation_Energy-OPLS-2005>
-237.192230224609

> <b_mmod_Minimization_Converged-OPLS-2005>
0

> <r_mmod_RMS_Derivative-OPLS-2005>
3.43931126594543

$$$$
25
                    3D
 Structure written by MMmdl.
160169  0  0  1  0            999 V2000
  -30.6255  -14.6663   20.4724 C   0  0  0  0  0  0
  -30.4293  -12.4055   19.4682 C   0  0  0  0  0  0
  -29.5088  -12.5187   18.2312 C   0  0  0  0  0  0
  -28.0320  -12.3582   18.6371 C   0  0  0  0  0  0
  -27.6520  -13.2274   19.8664 C   0  0  2  0  0  0
  -28.6940  -13.1067   21.0010 C   0  0  0  0  0  0
  -25.2559  -13.8179   20.5698 C   0  0  0  0  0  0
  -24.1840  -13.0433   20.9211 C   0  0  0  0  0  0
  -24.6422  -11.6909   20.8772 C   0  0  0  0  0  0
  -23.9085  -10.4293   21.0426 C   0  0  0  0  0  0
  -24.3636   -9.4201   21.9195 C   0  0  0  0  0  0
  -23.6311   -8.2233   22.0758 C   0  0  0  0  0  0
  -22.4290   -8.0278   21.3552 C   0  0  0  0  0  0
  -21.9931   -9.0261   20.4662 C   0  0  0  0  0  0
  -22.7252  -10.2145   20.3082 C   0  0  0  0  0  0
  -21.6849   -6.0733   22.5278 C   0  0  0  0  0  0
  -21.3986   -6.5637   23.8209 C   0  0  0  0  0  0
  -21.3660   -5.6800   24.9180 C   0  0  0  0  0  0
  -21.6056   -4.3058   24.7241 C   0  0  0  0  0  0
  -21.8816   -3.8143   23.4354 C   0  0  0  0  0  0
  -21.9190   -4.6956   22.3409 C   0  0  0  0  0  0
  -22.7861  -13.5217   21.1867 C   0  0  0  0  0  0
  -22.1672   -4.2142   21.0988 F   0  0  0  0  0  0
  -21.5644   -3.4544   25.7751 F   0  0  0  0  0  0
  -30.0082  -13.4412   20.4375 N   0  0  0  0  0  0
  -26.2997  -12.9385   20.3354 N   0  0  0  0  0  0
  -25.9358  -11.6533   20.5796 N   0  0  0  0  0  0
  -22.0507  -12.8246   22.0435 N   0  0  0  0  0  0
  -25.4281  -15.1900   20.4083 N   0  0  0  0  0  0
  -31.7867  -14.7964   20.0727 O   0  0  0  0  0  0
  -21.6639   -6.8878   21.4238 O   0  0  0  0  0  0
  -22.3565  -14.5527   20.6690 O   0  0  0  0  0  0
  -24.6276  -31.8576   23.2032 C   0  0  0  0  0  0
  -25.9110  -32.4767   23.8377 C   0  0  1  0  0  0
  -27.2177  -27.3079   20.1177 C   0  0  0  0  0  0
  -25.5927  -33.8573   24.2299 N   0  0  0  0  0  0
  -23.4228  -30.4815   21.5461 C   0  0  2  0  0  0
  -24.8714  -28.9394   20.1062 C   0  0  0  0  0  0
  -22.7487  -29.4598   22.4927 C   0  0  0  0  0  0
  -18.0292  -28.1372   22.8478 C   0  0  0  0  0  0
  -24.1483  -36.7285   23.2638 C   0  0  0  0  0  0
  -25.9674  -30.7836   21.3792 C   0  0  0  0  0  0
  -26.0419  -29.4123   20.7170 C   0  0  0  0  0  0
  -27.2228  -28.6071   20.7151 C   0  0  0  0  0  0
  -26.0318  -26.8940   19.4754 C   0  0  0  0  0  0
  -24.8689  -27.6856   19.4753 C   0  0  0  0  0  0
  -23.6390  -29.8200   20.1597 C   0  0  0  0  0  0
  -25.4106  -36.3081   24.0333 C   0  0  1  0  0  0
  -20.5890  -28.3672   23.1276 C   0  0  2  0  0  0
  -20.6769  -26.9391   22.5406 C   0  0  0  0  0  0
  -19.5748  -26.6360   21.5201 C   0  0  0  0  0  0
  -18.1931  -26.7914   22.1618 C   0  0  0  0  0  0
  -19.1543  -28.8842   23.2868 C   0  0  0  0  0  0
  -18.9466  -30.1446   23.8879 C   0  0  0  0  0  0
  -17.6464  -30.6571   24.0559 C   0  0  0  0  0  0
  -25.9046  -34.9447   23.5115 C   0  0  0  0  0  0
  -16.5355  -29.9064   23.6335 C   0  0  0  0  0  0
  -16.7279  -28.6484   23.0351 C   0  0  0  0  0  0
  -26.4496  -31.6581   25.0748 C   0  0  0  0  0  0
  -25.3732  -31.3727   26.1484 C   0  0  0  0  0  0
  -27.0347  -30.3005   24.6213 C   0  0  0  0  0  0
  -27.6065  -32.4317   25.7505 C   0  0  0  0  0  0
  -27.5581  -37.1798   24.8458 C   0  0  0  0  0  0
  -21.4199  -29.3023   22.3670 N   0  0  0  0  0  0
  -26.4283  -37.3774   23.9415 N   0  0  0  0  0  0
  -24.6913  -31.0576   22.0991 N   0  0  0  0  0  0
  -23.4207  -28.8132   23.3002 O   0  0  0  0  0  0
  -28.2777  -26.3882   20.1666 O   0  0  0  0  0  0
  -26.5608  -34.8907   22.4677 O   0  0  0  0  0  0
  -23.5431  -32.1390   23.7343 O   0  0  0  0  0  0
  -29.2090  -19.2698   18.3508 C   0  0  0  0  0  0
  -29.5664  -16.8680   18.6389 C   0  0  0  0  0  0
  -29.6052  -18.3620   20.5694 C   0  0  0  0  0  0
  -29.2980  -17.9721   17.8109 C   0  0  0  0  0  0
  -29.3761  -19.5305   19.7344 C   0  0  0  0  0  0
  -29.7245  -17.0140   20.0333 C   0  0  0  0  0  0
  -28.5418  -23.8824   20.6386 C   0  0  0  0  0  0
  -27.9727  -25.1380   20.7530 C   0  0  0  0  0  0
  -29.7411  -23.4497   19.7924 C   0  0  0  0  0  0
  -28.0726  -22.7108   21.5244 C   0  0  0  0  0  0
  -29.6675  -21.9781   19.2312 C   0  0  0  0  0  0
  -28.0546  -21.2799   20.8783 C   0  0  0  0  0  0
  -29.0795  -17.7654   16.3242 C   0  0  0  0  0  0
  -29.3028  -20.9068   20.1982 N   0  0  0  0  0  0
  -29.8742  -15.7722   20.8108 N   0  0  0  0  0  0
  -31.4738  -12.5165   19.1711 H   0  0  0  0  0  0
  -30.3513  -11.4142   19.9160 H   0  0  0  0  0  0
  -29.7741  -11.7664   17.4880 H   0  0  0  0  0  0
  -29.6544  -13.4857   17.7474 H   0  0  0  0  0  0
  -27.8695  -11.3044   18.8650 H   0  0  0  0  0  0
  -27.3831  -12.5911   17.7906 H   0  0  0  0  0  0
  -27.6633  -14.2630   19.5256 H   0  0  0  0  0  0
  -28.7027  -12.0940   21.4061 H   0  0  0  0  0  0
  -28.4392  -13.7628   21.8352 H   0  0  0  0  0  0
  -25.2792   -9.5662   22.4770 H   0  0  0  0  0  0
  -24.0006   -7.4620   22.7485 H   0  0  0  0  0  0
  -21.0850   -8.8802   19.8995 H   0  0  0  0  0  0
  -22.3713  -10.9703   19.6204 H   0  0  0  0  0  0
  -21.1949   -7.6146   23.9706 H   0  0  0  0  0  0
  -21.1497   -6.0543   25.9095 H   0  0  0  0  0  0
  -22.0593   -2.7600   23.2870 H   0  0  0  0  0  0
  -22.4073  -11.9871   22.4815 H   0  0  0  0  0  0
  -21.1132  -13.1288   22.2646 H   0  0  0  0  0  0
  -24.6594  -15.8446   20.5018 H   0  0  0  0  0  0
  -26.2820  -15.6240   20.0822 H   0  0  0  0  0  0
  -26.7180  -32.5433   23.1132 H   0  0  0  0  0  0
  -25.0106  -33.9724   25.0466 H   0  0  0  0  0  0
  -22.7173  -31.3024   21.4040 H   0  0  0  0  0  0
  -23.3745  -35.9617   23.3295 H   0  0  0  0  0  0
  -24.3581  -36.8902   22.2054 H   0  0  0  0  0  0
  -23.7229  -37.6483   23.6659 H   0  0  0  0  0  0
  -26.1058  -31.5501   20.6158 H   0  0  0  0  0  0
  -26.8449  -30.8283   22.0117 H   0  0  0  0  0  0
  -28.1191  -28.9563   21.2084 H   0  0  0  0  0  0
  -25.9948  -25.9253   18.9963 H   0  0  0  0  0  0
  -23.9737  -27.3195   18.9917 H   0  0  0  0  0  0
  -23.7580  -30.5995   19.4064 H   0  0  0  0  0  0
  -22.7585  -29.2503   19.8556 H   0  0  0  0  0  0
  -25.1280  -36.1945   25.0824 H   0  0  0  0  0  0
  -20.9987  -28.3244   24.1397 H   0  0  0  0  0  0
  -20.5643  -26.2282   23.3609 H   0  0  0  0  0  0
  -21.6648  -26.7390   22.1226 H   0  0  0  0  0  0
  -19.6908  -25.6270   21.1227 H   0  0  0  0  0  0
  -19.6690  -27.3170   20.6728 H   0  0  0  0  0  0
  -17.4203  -26.6666   21.4022 H   0  0  0  0  0  0
  -18.0324  -26.0051   22.9008 H   0  0  0  0  0  0
  -19.7939  -30.7266   24.2240 H   0  0  0  0  0  0
  -17.5013  -31.6254   24.5154 H   0  0  0  0  0  0
  -15.5352  -30.2961   23.7653 H   0  0  0  0  0  0
  -15.8684  -28.0791   22.7074 H   0  0  0  0  0  0
  -24.5908  -30.7066   25.7832 H   0  0  0  0  0  0
  -24.8921  -32.2890   26.4916 H   0  0  0  0  0  0
  -25.8064  -30.8917   27.0262 H   0  0  0  0  0  0
  -26.2941  -29.6749   24.1219 H   0  0  0  0  0  0
  -27.4025  -29.7270   25.4728 H   0  0  0  0  0  0
  -27.8814  -30.4298   23.9470 H   0  0  0  0  0  0
  -27.2696  -33.3626   26.2082 H   0  0  0  0  0  0
  -28.3875  -32.6857   25.0325 H   0  0  0  0  0  0
  -28.0734  -31.8438   26.5417 H   0  0  0  0  0  0
  -28.2589  -38.0104   24.7520 H   0  0  0  0  0  0
  -28.1087  -36.2638   24.6262 H   0  0  0  0  0  0
  -27.2310  -37.1422   25.8863 H   0  0  0  0  0  0
  -20.9371  -29.8777   21.6914 H   0  0  0  0  0  0
  -26.0164  -38.2844   24.1425 H   0  0  0  0  0  0
  -28.9866  -20.0646   17.6563 H   0  0  0  0  0  0
  -29.6090  -15.8862   18.1902 H   0  0  0  0  0  0
  -29.7103  -18.5060   21.6350 H   0  0  0  0  0  0
  -27.1533  -25.2572   21.4504 H   0  0  0  0  0  0
  -30.6283  -23.5386   20.4209 H   0  0  0  0  0  0
  -29.8773  -24.1580   18.9728 H   0  0  0  0  0  0
  -27.0850  -22.9334   21.9314 H   0  0  0  0  0  0
  -28.7469  -22.6847   22.3808 H   0  0  0  0  0  0
  -30.6214  -21.7241   18.7654 H   0  0  0  0  0  0
  -28.9260  -21.9939   18.4310 H   0  0  0  0  0  0
  -27.2384  -21.2242   20.1550 H   0  0  0  0  0  0
  -27.8266  -20.5407   21.6472 H   0  0  0  0  0  0
  -29.7067  -18.4429   15.7446 H   0  0  0  0  0  0
  -28.0381  -17.9600   16.0660 H   0  0  0  0  0  0
  -29.3150  -16.7457   16.0178 H   0  0  0  0  0  0
  -29.0798  -15.5520   21.3937 H   0  0  0  0  0  0
  1 25  1  0  0  0
  1 30  2  0  0  0
  1 85  1  0  0  0
  2  3  1  0  0  0
  2 25  1  0  0  0
  2 86  1  0  0  0
  2 87  1  0  0  0
  3  4  1  0  0  0
  3 88  1  0  0  0
  3 89  1  0  0  0
  4  5  1  0  0  0
  4 90  1  0  0  0
  4 91  1  0  0  0
  5  6  1  0  0  0
  5 26  1  0  0  0
  5 92  1  0  0  0
  6 25  1  0  0  0
  6 93  1  0  0  0
  6 94  1  0  0  0
  7  8  2  0  0  0
  7 26  1  0  0  0
  7 29  1  0  0  0
  8  9  1  0  0  0
  8 22  1  0  0  0
  9 10  1  0  0  0
  9 27  2  0  0  0
 10 11  2  0  0  0
 10 15  1  0  0  0
 11 12  1  0  0  0
 11 95  1  0  0  0
 12 13  2  0  0  0
 12 96  1  0  0  0
 13 14  1  0  0  0
 13 31  1  0  0  0
 14 15  2  0  0  0
 14 97  1  0  0  0
 15 98  1  0  0  0
 16 17  2  0  0  0
 16 21  1  0  0  0
 16 31  1  0  0  0
 17 18  1  0  0  0
 17 99  1  0  0  0
 18 19  2  0  0  0
 18100  1  0  0  0
 19 20  1  0  0  0
 19 24  1  0  0  0
 20 21  2  0  0  0
 20101  1  0  0  0
 21 23  1  0  0  0
 22 28  1  0  0  0
 22 32  2  0  0  0
 26 27  1  0  0  0
 28102  1  0  0  0
 28103  1  0  0  0
 29104  1  0  0  0
 29105  1  0  0  0
 33 34  1  0  0  0
 33 66  1  0  0  0
 33 70  2  0  0  0
 34 36  1  0  0  0
 34 59  1  0  0  0
 34106  1  0  0  0
 35 44  2  0  0  0
 35 45  1  0  0  0
 35 68  1  0  0  0
 36 56  1  0  0  0
 36107  1  0  0  0
 37 39  1  0  0  0
 37 47  1  0  0  0
 37 66  1  0  0  0
 37108  1  0  0  0
 38 43  2  0  0  0
 38 46  1  0  0  0
 38 47  1  0  0  0
 39 64  1  0  0  0
 39 67  2  0  0  0
 40 52  1  0  0  0
 40 53  2  0  0  0
 40 58  1  0  0  0
 41109  1  0  0  0
 41110  1  0  0  0
 41111  1  0  0  0
 41 48  1  0  0  0
 42 43  1  0  0  0
 42 66  1  0  0  0
 42112  1  0  0  0
 42113  1  0  0  0
 43 44  1  0  0  0
 44114  1  0  0  0
 45 46  2  0  0  0
 45115  1  0  0  0
 46116  1  0  0  0
 47117  1  0  0  0
 47118  1  0  0  0
 48 56  1  0  0  0
 48 65  1  0  0  0
 48119  1  0  0  0
 49 50  1  0  0  0
 49 53  1  0  0  0
 49 64  1  0  0  0
 49120  1  0  0  0
 50 51  1  0  0  0
 50121  1  0  0  0
 50122  1  0  0  0
 51 52  1  0  0  0
 51123  1  0  0  0
 51124  1  0  0  0
 52125  1  0  0  0
 52126  1  0  0  0
 53 54  1  0  0  0
 54 55  2  0  0  0
 54127  1  0  0  0
 55 57  1  0  0  0
 55128  1  0  0  0
 56 69  2  0  0  0
 57 58  2  0  0  0
 57129  1  0  0  0
 58130  1  0  0  0
 59 60  1  0  0  0
 59 61  1  0  0  0
 59 62  1  0  0  0
 60131  1  0  0  0
 60132  1  0  0  0
 60133  1  0  0  0
 61134  1  0  0  0
 61135  1  0  0  0
 61136  1  0  0  0
 62137  1  0  0  0
 62138  1  0  0  0
 62139  1  0  0  0
 63 65  1  0  0  0
 63140  1  0  0  0
 63141  1  0  0  0
 63142  1  0  0  0
 64143  1  0  0  0
 65144  1  0  0  0
 68 78  1  0  0  0
 71 74  2  0  0  0
 71 75  1  0  0  0
 71145  1  0  0  0
 72 74  1  0  0  0
 72 76  2  0  0  0
 72146  1  0  0  0
 73 75  2  0  0  0
 73 76  1  0  0  0
 73147  1  0  0  0
 74 83  1  0  0  0
 75 84  1  0  0  0
 76 85  1  0  0  0
 77 78  2  0  0  0
 77 79  1  0  0  0
 77 80  1  0  0  0
 78148  1  0  0  0
 79 81  1  0  0  0
 79149  1  0  0  0
 79150  1  0  0  0
 80 82  1  0  0  0
 80151  1  0  0  0
 80152  1  0  0  0
 81 84  1  0  0  0
 81153  1  0  0  0
 81154  1  0  0  0
 82 84  1  0  0  0
 82155  1  0  0  0
 82156  1  0  0  0
 83157  1  0  0  0
 83158  1  0  0  0
 83159  1  0  0  0
 85160  1  0  0  0
M  ISO  4   1 100  68 101  78 101  85 100
M  END
> <chiral flag>
0

> <version>
0

> <s_m_source_file>
/data/baiqing/PycharmProjects/Reinvent-master-3.2/result/LINK_invent/BTK/process_docking_weight1_custom_product_contain_oxygen_bond_distance_aromatic_linkinvent_7_9_3/rearranged_h_0111.sdf

> <i_m_source_file_index>
25

> <r_mmod_Potential_Energy-OPLS-2005>
171.633514404297

> <r_mmod_Stretch_Energy-OPLS-2005>
89.430793762207

> <r_mmod_Bend_Energy-OPLS-2005>
147.615707397461

> <r_mmod_Torsional_Energy-OPLS-2005>
280.601501464844

> <r_mmod_Improper_Torsional_Energy-OPLS-2005>
10.8661289215088

> <r_mmod_Van_der_Waal_Energy-OPLS-2005>
147.218353271484

> <r_mmod_Electrostatic_Energy-OPLS-2005>
-342.857055664062

> <r_mmod_Solvation_Energy-OPLS-2005>
-222.300628662109

> <b_mmod_Minimization_Converged-OPLS-2005>
0

> <r_mmod_RMS_Derivative-OPLS-2005>
2.39990568161011

$$$$
26
                    3D
 Structure written by MMmdl.
162171  0  0  1  0            999 V2000
  -30.5482  -14.9465   20.3491 C   0  0  0  0  0  0
  -30.4521  -12.5670   19.4861 C   0  0  0  0  0  0
  -29.5259  -12.4278   18.2551 C   0  0  0  0  0  0
  -28.0413  -12.3017   18.6657 C   0  0  0  0  0  0
  -27.6252  -13.2352   19.8369 C   0  0  2  0  0  0
  -28.6862  -13.2720   20.9534 C   0  0  0  0  0  0
  -25.2459  -13.8176   20.5729 C   0  0  0  0  0  0
  -24.1763  -13.0425   20.9233 C   0  0  0  0  0  0
  -24.6366  -11.6910   20.8790 C   0  0  0  0  0  0
  -23.9051  -10.4291   21.0430 C   0  0  0  0  0  0
  -24.3609   -9.4207   21.9197 C   0  0  0  0  0  0
  -23.6293   -8.2239   22.0751 C   0  0  0  0  0  0
  -22.4281   -8.0273   21.3536 C   0  0  0  0  0  0
  -21.9910   -9.0248   20.4639 C   0  0  0  0  0  0
  -22.7232  -10.2133   20.3063 C   0  0  0  0  0  0
  -21.6851   -6.0734   22.5276 C   0  0  0  0  0  0
  -21.4020   -6.5644   23.8210 C   0  0  0  0  0  0
  -21.3663   -5.6793   24.9169 C   0  0  0  0  0  0
  -21.6041   -4.3055   24.7217 C   0  0  0  0  0  0
  -21.8827   -3.8147   23.4339 C   0  0  0  0  0  0
  -21.9192   -4.6962   22.3399 C   0  0  0  0  0  0
  -22.7789  -13.5213   21.1876 C   0  0  0  0  0  0
  -22.1662   -4.2157   21.0973 F   0  0  0  0  0  0
  -21.5620   -3.4533   25.7728 F   0  0  0  0  0  0
  -29.9448  -13.6888   20.3190 N   0  0  0  0  0  0
  -26.2882  -12.9381   20.3339 N   0  0  0  0  0  0
  -25.9305  -11.6530   20.5838 N   0  0  0  0  0  0
  -22.0439  -12.8209   22.0437 N   0  0  0  0  0  0
  -25.4122  -15.1896   20.4107 N   0  0  0  0  0  0
  -31.7816  -14.9748   20.2683 O   0  0  0  0  0  0
  -21.6642   -6.8871   21.4235 O   0  0  0  0  0  0
  -22.3475  -14.5510   20.6705 O   0  0  0  0  0  0
  -24.6415  -31.8463   23.1900 C   0  0  0  0  0  0
  -25.9196  -32.4708   23.8289 C   0  0  1  0  0  0
  -27.2218  -27.1545   20.1542 C   0  0  0  0  0  0
  -25.5952  -33.8513   24.2204 N   0  0  0  0  0  0
  -23.4445  -30.4657   21.5355 C   0  0  2  0  0  0
  -24.8953  -28.8939   20.1139 C   0  0  0  0  0  0
  -22.7557  -29.4561   22.4873 C   0  0  0  0  0  0
  -18.0305  -28.1389   22.8480 C   0  0  0  0  0  0
  -24.1491  -36.7256   23.2643 C   0  0  0  0  0  0
  -25.9995  -30.7264   21.3867 C   0  0  0  0  0  0
  -26.0726  -29.3389   20.7284 C   0  0  0  0  0  0
  -27.2378  -28.4866   20.7280 C   0  0  0  0  0  0
  -26.0173  -26.8061   19.5032 C   0  0  0  0  0  0
  -24.8802  -27.6405   19.4851 C   0  0  0  0  0  0
  -23.6707  -29.7933   20.1556 C   0  0  0  0  0  0
  -25.4121  -36.3039   24.0317 C   0  0  1  0  0  0
  -20.5916  -28.3717   23.1240 C   0  0  2  0  0  0
  -20.6788  -26.9420   22.5405 C   0  0  0  0  0  0
  -19.5763  -26.6375   21.5212 C   0  0  0  0  0  0
  -18.1945  -26.7928   22.1623 C   0  0  0  0  0  0
  -19.1562  -28.8869   23.2855 C   0  0  0  0  0  0
  -18.9477  -30.1465   23.8878 C   0  0  0  0  0  0
  -17.6474  -30.6589   24.0556 C   0  0  0  0  0  0
  -25.9068  -34.9414   23.5070 C   0  0  0  0  0  0
  -16.5365  -29.9080   23.6338 C   0  0  0  0  0  0
  -16.7289  -28.6498   23.0361 C   0  0  0  0  0  0
  -26.4519  -31.6575   25.0727 C   0  0  0  0  0  0
  -25.3699  -31.3769   26.1418 C   0  0  0  0  0  0
  -27.0384  -30.2970   24.6312 C   0  0  0  0  0  0
  -27.6048  -32.4344   25.7509 C   0  0  0  0  0  0
  -27.5575  -37.1785   24.8463 C   0  0  0  0  0  0
  -21.4251  -29.3047   22.3613 N   0  0  0  0  0  0
  -26.4285  -37.3752   23.9408 N   0  0  0  0  0  0
  -24.7149  -31.0337   22.0926 N   0  0  0  0  0  0
  -23.4207  -28.8108   23.3019 O   0  0  0  0  0  0
  -28.2904  -26.1918   20.2024 O   0  0  0  0  0  0
  -26.5655  -34.8908   22.4647 O   0  0  0  0  0  0
  -23.5538  -32.1334   23.7126 O   0  0  0  0  0  0
  -28.5259  -19.5001   21.4497 C   0  0  0  0  0  0
  -30.1089  -20.0514   19.8017 C   0  0  0  0  0  0
  -28.7943  -18.0756   21.2984 C   0  0  0  0  0  0
  -29.1593  -20.5815   20.7330 C   0  0  0  0  0  0
  -29.7418  -17.5593   20.3495 C   0  0  0  0  0  0
  -30.3847  -18.6337   19.6214 C   0  0  0  0  0  0
  -29.1240  -22.3927   22.3738 C   0  0  0  0  0  0
  -26.8582  -17.3235   22.7309 C   0  0  0  0  0  0
  -28.0190  -17.1015   22.0911 C   0  0  0  0  0  0
  -29.9137  -23.6817   22.5439 C   0  0  0  0  0  0
  -30.3309  -23.9961   21.1150 C   0  0  0  0  0  0
  -29.1605  -23.4277   20.3143 C   0  0  2  0  0  0
  -29.5788  -16.0053   18.4547 C   0  0  0  0  0  0
  -28.0179  -24.6651   20.3056 C   0  0  0  0  0  0
  -28.9164  -22.0684   21.0734 N   0  0  0  0  0  0
  -29.8051  -16.0866   19.9105 N   0  0  0  0  0  0
  -28.7570  -21.7501   23.3621 O   0  0  0  0  0  0
  -31.2965  -18.3084   18.6735 F   0  0  0  0  0  0
  -31.4773  -12.7424   19.1556 H   0  0  0  0  0  0
  -30.4765  -11.6411   20.0631 H   0  0  0  0  0  0
  -29.8165  -11.5441   17.6853 H   0  0  0  0  0  0
  -29.6707  -13.2619   17.5715 H   0  0  0  0  0  0
  -27.8853  -11.2639   18.9617 H   0  0  0  0  0  0
  -27.3941  -12.4643   17.8036 H   0  0  0  0  0  0
  -27.5598  -14.2366   19.4231 H   0  0  0  0  0  0
  -28.7880  -12.2969   21.4326 H   0  0  0  0  0  0
  -28.3997  -13.9698   21.7381 H   0  0  0  0  0  0
  -25.2756   -9.5696   22.4766 H   0  0  0  0  0  0
  -24.0008   -7.4637   22.7475 H   0  0  0  0  0  0
  -21.0836   -8.8764   19.8941 H   0  0  0  0  0  0
  -22.3691  -10.9671   19.6168 H   0  0  0  0  0  0
  -21.2025   -7.6153   23.9720 H   0  0  0  0  0  0
  -21.1470   -6.0514   25.9069 H   0  0  0  0  0  0
  -22.0601   -2.7610   23.2830 H   0  0  0  0  0  0
  -22.4071  -11.9874   22.4831 H   0  0  0  0  0  0
  -21.1051  -13.1218   22.2633 H   0  0  0  0  0  0
  -24.6555  -15.8475   20.5572 H   0  0  0  0  0  0
  -26.2837  -15.6406   20.1629 H   0  0  0  0  0  0
  -26.7263  -32.5322   23.1021 H   0  0  0  0  0  0
  -25.0068  -33.9638   25.0332 H   0  0  0  0  0  0
  -22.7467  -31.2909   21.3804 H   0  0  0  0  0  0
  -23.3762  -35.9580   23.3294 H   0  0  0  0  0  0
  -24.3571  -36.8900   22.2059 H   0  0  0  0  0  0
  -23.7238  -37.6447   23.6683 H   0  0  0  0  0  0
  -26.1550  -31.4832   20.6165 H   0  0  0  0  0  0
  -26.8694  -30.7747   22.0304 H   0  0  0  0  0  0
  -28.1370  -28.8262   21.2225 H   0  0  0  0  0  0
  -25.9203  -25.8550   19.0044 H   0  0  0  0  0  0
  -23.9822  -27.2965   18.9910 H   0  0  0  0  0  0
  -23.8049  -30.5668   19.3985 H   0  0  0  0  0  0
  -22.7866  -29.2333   19.8456 H   0  0  0  0  0  0
  -25.1311  -36.1870   25.0810 H   0  0  0  0  0  0
  -21.0011  -28.3302   24.1361 H   0  0  0  0  0  0
  -20.5681  -26.2327   23.3623 H   0  0  0  0  0  0
  -21.6654  -26.7424   22.1203 H   0  0  0  0  0  0
  -19.6922  -25.6282   21.1256 H   0  0  0  0  0  0
  -19.6700  -27.3172   20.6731 H   0  0  0  0  0  0
  -17.4214  -26.6681   21.4027 H   0  0  0  0  0  0
  -18.0339  -26.0071   22.9020 H   0  0  0  0  0  0
  -19.7951  -30.7287   24.2242 H   0  0  0  0  0  0
  -17.5025  -31.6266   24.5159 H   0  0  0  0  0  0
  -15.5364  -30.2973   23.7667 H   0  0  0  0  0  0
  -15.8690  -28.0801   22.7096 H   0  0  0  0  0  0
  -24.5877  -30.7123   25.7732 H   0  0  0  0  0  0
  -24.8888  -32.2955   26.4786 H   0  0  0  0  0  0
  -25.7970  -30.8974   27.0233 H   0  0  0  0  0  0
  -26.3009  -29.6696   24.1295 H   0  0  0  0  0  0
  -27.3966  -29.7269   25.4894 H   0  0  0  0  0  0
  -27.8928  -30.4204   23.9653 H   0  0  0  0  0  0
  -27.2636  -33.3658   26.2039 H   0  0  0  0  0  0
  -28.3878  -32.6888   25.0355 H   0  0  0  0  0  0
  -28.0693  -31.8509   26.5468 H   0  0  0  0  0  0
  -28.2583  -38.0091   24.7513 H   0  0  0  0  0  0
  -28.1083  -36.2621   24.6284 H   0  0  0  0  0  0
  -27.2291  -37.1422   25.8865 H   0  0  0  0  0  0
  -20.9457  -29.8761   21.6795 H   0  0  0  0  0  0
  -26.0155  -38.2821   24.1415 H   0  0  0  0  0  0
  -27.7917  -19.7859   22.1872 H   0  0  0  0  0  0
  -30.6748  -20.7472   19.1995 H   0  0  0  0  0  0
  -26.3894  -16.5297   23.2953 H   0  0  0  0  0  0
  -26.3473  -18.2743   22.7082 H   0  0  0  0  0  0
  -28.4464  -16.1159   22.1827 H   0  0  0  0  0  0
  -30.7717  -23.5438   23.2022 H   0  0  0  0  0  0
  -29.2699  -24.4569   22.9613 H   0  0  0  0  0  0
  -31.2552  -23.4706   20.8650 H   0  0  0  0  0  0
  -30.5005  -25.0599   20.9466 H   0  0  0  0  0  0
  -29.4811  -23.2257   19.2920 H   0  0  0  0  0  0
  -30.5218  -15.9055   17.9121 H   0  0  0  0  0  0
  -29.0776  -16.8898   18.0609 H   0  0  0  0  0  0
  -28.9423  -15.1783   18.1660 H   0  0  0  0  0  0
  -27.4211  -24.5536   21.2118 H   0  0  0  0  0  0
  -27.3395  -24.3930   19.5003 H   0  0  0  0  0  0
  1 25  1  0  0  0
  1 30  2  0  0  0
  1 86  1  0  0  0
  2  3  1  0  0  0
  2 25  1  0  0  0
  2 89  1  0  0  0
  2 90  1  0  0  0
  3  4  1  0  0  0
  3 91  1  0  0  0
  3 92  1  0  0  0
  4  5  1  0  0  0
  4 93  1  0  0  0
  4 94  1  0  0  0
  5  6  1  0  0  0
  5 26  1  0  0  0
  5 95  1  0  0  0
  6 25  1  0  0  0
  6 96  1  0  0  0
  6 97  1  0  0  0
  7  8  2  0  0  0
  7 26  1  0  0  0
  7 29  1  0  0  0
  8  9  1  0  0  0
  8 22  1  0  0  0
  9 10  1  0  0  0
  9 27  2  0  0  0
 10 11  2  0  0  0
 10 15  1  0  0  0
 11 12  1  0  0  0
 11 98  1  0  0  0
 12 13  2  0  0  0
 12 99  1  0  0  0
 13 14  1  0  0  0
 13 31  1  0  0  0
 14 15  2  0  0  0
 14100  1  0  0  0
 15101  1  0  0  0
 16 17  2  0  0  0
 16 21  1  0  0  0
 16 31  1  0  0  0
 17 18  1  0  0  0
 17102  1  0  0  0
 18 19  2  0  0  0
 18103  1  0  0  0
 19 20  1  0  0  0
 19 24  1  0  0  0
 20 21  2  0  0  0
 20104  1  0  0  0
 21 23  1  0  0  0
 22 28  1  0  0  0
 22 32  2  0  0  0
 26 27  1  0  0  0
 28105  1  0  0  0
 28106  1  0  0  0
 29107  1  0  0  0
 29108  1  0  0  0
 33 34  1  0  0  0
 33 66  1  0  0  0
 33 70  2  0  0  0
 34 36  1  0  0  0
 34 59  1  0  0  0
 34109  1  0  0  0
 35 44  2  0  0  0
 35 45  1  0  0  0
 35 68  1  0  0  0
 36 56  1  0  0  0
 36110  1  0  0  0
 37 39  1  0  0  0
 37 47  1  0  0  0
 37 66  1  0  0  0
 37111  1  0  0  0
 38 43  2  0  0  0
 38 46  1  0  0  0
 38 47  1  0  0  0
 39 64  1  0  0  0
 39 67  2  0  0  0
 40 52  1  0  0  0
 40 53  2  0  0  0
 40 58  1  0  0  0
 41112  1  0  0  0
 41113  1  0  0  0
 41114  1  0  0  0
 41 48  1  0  0  0
 42 43  1  0  0  0
 42 66  1  0  0  0
 42115  1  0  0  0
 42116  1  0  0  0
 43 44  1  0  0  0
 44117  1  0  0  0
 45 46  2  0  0  0
 45118  1  0  0  0
 46119  1  0  0  0
 47120  1  0  0  0
 47121  1  0  0  0
 48 56  1  0  0  0
 48 65  1  0  0  0
 48122  1  0  0  0
 49 50  1  0  0  0
 49 53  1  0  0  0
 49 64  1  0  0  0
 49123  1  0  0  0
 50 51  1  0  0  0
 50124  1  0  0  0
 50125  1  0  0  0
 51 52  1  0  0  0
 51126  1  0  0  0
 51127  1  0  0  0
 52128  1  0  0  0
 52129  1  0  0  0
 53 54  1  0  0  0
 54 55  2  0  0  0
 54130  1  0  0  0
 55 57  1  0  0  0
 55131  1  0  0  0
 56 69  2  0  0  0
 57 58  2  0  0  0
 57132  1  0  0  0
 58133  1  0  0  0
 59 60  1  0  0  0
 59 61  1  0  0  0
 59 62  1  0  0  0
 60134  1  0  0  0
 60135  1  0  0  0
 60136  1  0  0  0
 61137  1  0  0  0
 61138  1  0  0  0
 61139  1  0  0  0
 62140  1  0  0  0
 62141  1  0  0  0
 62142  1  0  0  0
 63 65  1  0  0  0
 63143  1  0  0  0
 63144  1  0  0  0
 63145  1  0  0  0
 64146  1  0  0  0
 65147  1  0  0  0
 68 84  1  0  0  0
 71 73  2  0  0  0
 71 74  1  0  0  0
 71148  1  0  0  0
 72 74  2  0  0  0
 72 76  1  0  0  0
 72149  1  0  0  0
 73 75  1  0  0  0
 73 79  1  0  0  0
 74 85  1  0  0  0
 75 76  2  0  0  0
 75 86  1  0  0  0
 76 88  1  0  0  0
 77 80  1  0  0  0
 77 85  1  0  0  0
 77 87  2  0  0  0
 78 79  2  0  0  0
 78150  1  0  0  0
 78151  1  0  0  0
 79152  1  0  0  0
 80 81  1  0  0  0
 80153  1  0  0  0
 80154  1  0  0  0
 81 82  1  0  0  0
 81155  1  0  0  0
 81156  1  0  0  0
 82 84  1  0  0  0
 82 85  1  0  0  0
 82157  1  0  0  0
 83 86  1  0  0  0
 83158  1  0  0  0
 83159  1  0  0  0
 83160  1  0  0  0
 84161  1  0  0  0
 84162  1  0  0  0
M  ISO  4   1 100  68 101  84 101  86 100
M  END
> <chiral flag>
0

> <version>
0

> <s_m_source_file>
/data/baiqing/PycharmProjects/Reinvent-master-3.2/result/LINK_invent/BTK/process_docking_weight1_custom_product_contain_oxygen_bond_distance_aromatic_linkinvent_7_9_3/rearranged_h_0111.sdf

> <i_m_source_file_index>
26

> <r_mmod_Potential_Energy-OPLS-2005>
801.051208496094

> <r_mmod_Stretch_Energy-OPLS-2005>
239.937576293945

> <r_mmod_Bend_Energy-OPLS-2005>
300.160430908203

> <r_mmod_Torsional_Energy-OPLS-2005>
417.165954589844

> <r_mmod_Improper_Torsional_Energy-OPLS-2005>
26.362678527832

> <r_mmod_Van_der_Waal_Energy-OPLS-2005>
142.075805664062

> <r_mmod_Electrostatic_Energy-OPLS-2005>
-309.460723876953

> <r_mmod_Solvation_Energy-OPLS-2005>
-203.543411254883

> <b_mmod_Minimization_Converged-OPLS-2005>
0

> <r_mmod_RMS_Derivative-OPLS-2005>
1.29428470134735

$$$$
27
                    3D
 Structure written by MMmdl.
162171  0  0  1  0            999 V2000
  -30.5693  -14.8104   20.4638 C   0  0  0  0  0  0
  -30.4475  -12.4999   19.4773 C   0  0  0  0  0  0
  -29.5142  -12.5044   18.2445 C   0  0  0  0  0  0
  -28.0446  -12.3108   18.6678 C   0  0  0  0  0  0
  -27.6385  -13.2279   19.8491 C   0  0  2  0  0  0
  -28.6861  -13.1865   20.9823 C   0  0  0  0  0  0
  -25.2509  -13.8167   20.5726 C   0  0  0  0  0  0
  -24.1804  -13.0428   20.9241 C   0  0  0  0  0  0
  -24.6391  -11.6905   20.8783 C   0  0  0  0  0  0
  -23.9060  -10.4292   21.0438 C   0  0  0  0  0  0
  -24.3611   -9.4191   21.9206 C   0  0  0  0  0  0
  -23.6273   -8.2230   22.0764 C   0  0  0  0  0  0
  -22.4261   -8.0278   21.3543 C   0  0  0  0  0  0
  -21.9906   -9.0269   20.4656 C   0  0  0  0  0  0
  -22.7240  -10.2144   20.3069 C   0  0  0  0  0  0
  -21.6837   -6.0736   22.5277 C   0  0  0  0  0  0
  -21.4034   -6.5647   23.8211 C   0  0  0  0  0  0
  -21.3657   -5.6789   24.9176 C   0  0  0  0  0  0
  -21.6025   -4.3056   24.7225 C   0  0  0  0  0  0
  -21.8819   -3.8148   23.4346 C   0  0  0  0  0  0
  -21.9203   -4.6959   22.3408 C   0  0  0  0  0  0
  -22.7826  -13.5207   21.1886 C   0  0  0  0  0  0
  -22.1660   -4.2152   21.0981 F   0  0  0  0  0  0
  -21.5618   -3.4537   25.7733 F   0  0  0  0  0  0
  -29.9785  -13.5639   20.3945 N   0  0  0  0  0  0
  -26.2926  -12.9372   20.3296 N   0  0  0  0  0  0
  -25.9312  -11.6513   20.5756 N   0  0  0  0  0  0
  -22.0481  -12.8205   22.0444 N   0  0  0  0  0  0
  -25.4147  -15.1913   20.4155 N   0  0  0  0  0  0
  -31.7727  -14.9277   20.2081 O   0  0  0  0  0  0
  -21.6623   -6.8879   21.4237 O   0  0  0  0  0  0
  -22.3521  -14.5510   20.6721 O   0  0  0  0  0  0
  -24.6362  -31.8536   23.1985 C   0  0  0  0  0  0
  -25.9171  -32.4752   23.8335 C   0  0  1  0  0  0
  -27.2032  -27.2235   20.1237 C   0  0  0  0  0  0
  -25.5933  -33.8554   24.2237 N   0  0  0  0  0  0
  -23.4342  -30.4799   21.5445 C   0  0  2  0  0  0
  -24.8751  -28.9260   20.1151 C   0  0  0  0  0  0
  -22.7532  -29.4600   22.4904 C   0  0  0  0  0  0
  -18.0303  -28.1414   22.8492 C   0  0  0  0  0  0
  -24.1482  -36.7272   23.2639 C   0  0  0  0  0  0
  -25.9863  -30.7545   21.3853 C   0  0  0  0  0  0
  -26.0543  -29.3767   20.7208 C   0  0  0  0  0  0
  -27.2237  -28.5415   20.7089 C   0  0  0  0  0  0
  -25.9948  -26.8557   19.4867 C   0  0  0  0  0  0
  -24.8517  -27.6741   19.4885 C   0  0  0  0  0  0
  -23.6522  -29.8222   20.1595 C   0  0  0  0  0  0
  -25.4118  -36.3062   24.0318 C   0  0  1  0  0  0
  -20.5915  -28.3724   23.1271 C   0  0  2  0  0  0
  -20.6797  -26.9434   22.5415 C   0  0  0  0  0  0
  -19.5760  -26.6399   21.5230 C   0  0  0  0  0  0
  -18.1942  -26.7949   22.1649 C   0  0  0  0  0  0
  -19.1561  -28.8884   23.2876 C   0  0  0  0  0  0
  -18.9473  -30.1481   23.8911 C   0  0  0  0  0  0
  -17.6474  -30.6608   24.0576 C   0  0  0  0  0  0
  -25.9062  -34.9442   23.5081 C   0  0  0  0  0  0
  -16.5365  -29.9114   23.6335 C   0  0  0  0  0  0
  -16.7291  -28.6529   23.0358 C   0  0  0  0  0  0
  -26.4510  -31.6600   25.0748 C   0  0  0  0  0  0
  -25.3699  -31.3800   26.1445 C   0  0  0  0  0  0
  -27.0355  -30.3001   24.6292 C   0  0  0  0  0  0
  -27.6056  -32.4350   25.7517 C   0  0  0  0  0  0
  -27.5578  -37.1784   24.8463 C   0  0  0  0  0  0
  -21.4236  -29.3056   22.3641 N   0  0  0  0  0  0
  -26.4290  -37.3767   23.9407 N   0  0  0  0  0  0
  -24.7052  -31.0472   22.0986 N   0  0  0  0  0  0
  -23.4214  -28.8138   23.3013 O   0  0  0  0  0  0
  -28.2765  -26.2897   20.1615 O   0  0  0  0  0  0
  -26.5649  -34.8924   22.4664 O   0  0  0  0  0  0
  -23.5497  -32.1372   23.7255 O   0  0  0  0  0  0
  -29.1658  -18.3177   19.9700 C   0  0  0  0  0  0
  -29.6458  -19.6003   20.4752 C   0  0  0  0  0  0
  -29.8888  -17.3146   20.6242 C   0  0  0  0  0  0
  -30.2961  -24.1273   19.7445 C   0  0  0  0  0  0
  -29.1037  -23.6790   20.1996 C   0  0  0  0  0  0
  -31.5575  -23.3819   19.5935 C   0  0  0  0  0  0
  -31.6052  -21.8614   19.4519 C   0  0  0  0  0  0
  -30.3296  -21.2228   18.8838 C   0  0  0  0  0  0
  -28.8697  -22.1508   20.7172 C   0  0  1  0  0  0
  -27.4055  -21.8857   21.1022 C   0  0  0  0  0  0
  -31.6619  -17.4680   22.4633 C   0  0  0  0  0  0
  -27.9557  -24.8006   20.2604 C   0  0  0  0  0  0
  -30.5683  -19.3679   21.4087 N   0  0  0  0  0  0
  -30.7236  -18.0013   21.4975 N   0  0  0  0  0  0
  -29.3646  -20.9320   19.9366 N   0  0  0  0  0  0
  -29.7148  -15.9116   20.5467 N   0  0  0  0  0  0
  -32.6351  -23.9809   19.5771 O   0  0  0  0  0  0
  -31.4803  -12.6640   19.1645 H   0  0  0  0  0  0
  -30.4306  -11.5314   19.9800 H   0  0  0  0  0  0
  -29.8061  -11.7165   17.5504 H   0  0  0  0  0  0
  -29.6191  -13.4465   17.7047 H   0  0  0  0  0  0
  -27.9302  -11.2669   18.9608 H   0  0  0  0  0  0
  -27.3797  -12.4636   17.8179 H   0  0  0  0  0  0
  -27.6172  -14.2400   19.4456 H   0  0  0  0  0  0
  -28.7444  -12.1925   21.4294 H   0  0  0  0  0  0
  -28.4107  -13.8687   21.7888 H   0  0  0  0  0  0
  -25.2762   -9.5646   22.4788 H   0  0  0  0  0  0
  -23.9967   -7.4620   22.7486 H   0  0  0  0  0  0
  -21.0824   -8.8801   19.8964 H   0  0  0  0  0  0
  -22.3701  -10.9699   19.6185 H   0  0  0  0  0  0
  -21.2030   -7.6160   23.9718 H   0  0  0  0  0  0
  -21.1470   -6.0530   25.9078 H   0  0  0  0  0  0
  -22.0596   -2.7610   23.2849 H   0  0  0  0  0  0
  -22.4063  -11.9859   22.4841 H   0  0  0  0  0  0
  -21.1111  -13.1264   22.2659 H   0  0  0  0  0  0
  -24.6361  -15.8303   20.5322 H   0  0  0  0  0  0
  -26.2381  -15.6461   20.0457 H   0  0  0  0  0  0
  -26.7244  -32.5375   23.1075 H   0  0  0  0  0  0
  -25.0018  -33.9683   25.0338 H   0  0  0  0  0  0
  -22.7340  -31.3049   21.4023 H   0  0  0  0  0  0
  -23.3754  -35.9591   23.3297 H   0  0  0  0  0  0
  -24.3561  -36.8904   22.2051 H   0  0  0  0  0  0
  -23.7225  -37.6468   23.6675 H   0  0  0  0  0  0
  -26.1385  -31.5174   20.6199 H   0  0  0  0  0  0
  -26.8599  -30.7937   22.0244 H   0  0  0  0  0  0
  -28.1293  -28.8819   21.1927 H   0  0  0  0  0  0
  -25.8868  -25.9143   18.9754 H   0  0  0  0  0  0
  -23.9487  -27.3230   19.0083 H   0  0  0  0  0  0
  -23.7897  -30.6052   19.4120 H   0  0  0  0  0  0
  -22.7654  -29.2689   19.8449 H   0  0  0  0  0  0
  -25.1300  -36.1906   25.0811 H   0  0  0  0  0  0
  -21.0023  -28.3305   24.1379 H   0  0  0  0  0  0
  -20.5720  -26.2320   23.3620 H   0  0  0  0  0  0
  -21.6656  -26.7455   22.1185 H   0  0  0  0  0  0
  -19.6914  -25.6310   21.1259 H   0  0  0  0  0  0
  -19.6706  -27.3218   20.6767 H   0  0  0  0  0  0
  -17.4200  -26.6697   21.4059 H   0  0  0  0  0  0
  -18.0343  -26.0112   22.9066 H   0  0  0  0  0  0
  -19.7950  -30.7293   24.2295 H   0  0  0  0  0  0
  -17.5029  -31.6286   24.5189 H   0  0  0  0  0  0
  -15.5371  -30.3026   23.7655 H   0  0  0  0  0  0
  -15.8687  -28.0861   22.7071 H   0  0  0  0  0  0
  -24.5860  -30.7170   25.7766 H   0  0  0  0  0  0
  -24.8905  -32.2996   26.4820 H   0  0  0  0  0  0
  -25.7963  -30.8999   27.0258 H   0  0  0  0  0  0
  -26.2957  -29.6746   24.1281 H   0  0  0  0  0  0
  -27.3962  -29.7281   25.4849 H   0  0  0  0  0  0
  -27.8874  -30.4245   23.9601 H   0  0  0  0  0  0
  -27.2673  -33.3676   26.2054 H   0  0  0  0  0  0
  -28.3893  -32.6879   25.0358 H   0  0  0  0  0  0
  -28.0703  -31.8504   26.5467 H   0  0  0  0  0  0
  -28.2594  -38.0083   24.7514 H   0  0  0  0  0  0
  -28.1076  -36.2612   24.6290 H   0  0  0  0  0  0
  -27.2287  -37.1431   25.8864 H   0  0  0  0  0  0
  -20.9425  -29.8745   21.6814 H   0  0  0  0  0  0
  -26.0163  -38.2831   24.1446 H   0  0  0  0  0  0
  -28.4113  -18.1690   19.2119 H   0  0  0  0  0  0
  -30.3612  -25.1639   19.4521 H   0  0  0  0  0  0
  -31.8730  -21.4266   20.4137 H   0  0  0  0  0  0
  -32.4312  -21.6343   18.7782 H   0  0  0  0  0  0
  -30.5923  -20.3051   18.3540 H   0  0  0  0  0  0
  -29.8690  -21.8687   18.1334 H   0  0  0  0  0  0
  -29.4228  -22.1224   21.6580 H   0  0  0  0  0  0
  -26.7601  -21.8941   20.2228 H   0  0  0  0  0  0
  -27.0203  -22.6208   21.8063 H   0  0  0  0  0  0
  -27.2895  -20.9156   21.5888 H   0  0  0  0  0  0
  -31.1825  -16.6894   23.0567 H   0  0  0  0  0  0
  -32.0095  -18.2543   23.1349 H   0  0  0  0  0  0
  -32.5187  -17.0431   21.9408 H   0  0  0  0  0  0
  -27.4132  -24.6826   21.1966 H   0  0  0  0  0  0
  -27.2736  -24.4992   19.4689 H   0  0  0  0  0  0
  -28.7474  -15.6340   20.5412 H   0  0  0  0  0  0
  1 25  1  0  0  0
  1 30  2  0  0  0
  1 86  1  0  0  0
  2  3  1  0  0  0
  2 25  1  0  0  0
  2 88  1  0  0  0
  2 89  1  0  0  0
  3  4  1  0  0  0
  3 90  1  0  0  0
  3 91  1  0  0  0
  4  5  1  0  0  0
  4 92  1  0  0  0
  4 93  1  0  0  0
  5  6  1  0  0  0
  5 26  1  0  0  0
  5 94  1  0  0  0
  6 25  1  0  0  0
  6 95  1  0  0  0
  6 96  1  0  0  0
  7  8  2  0  0  0
  7 26  1  0  0  0
  7 29  1  0  0  0
  8  9  1  0  0  0
  8 22  1  0  0  0
  9 10  1  0  0  0
  9 27  2  0  0  0
 10 11  2  0  0  0
 10 15  1  0  0  0
 11 12  1  0  0  0
 11 97  1  0  0  0
 12 13  2  0  0  0
 12 98  1  0  0  0
 13 14  1  0  0  0
 13 31  1  0  0  0
 14 15  2  0  0  0
 14 99  1  0  0  0
 15100  1  0  0  0
 16 17  2  0  0  0
 16 21  1  0  0  0
 16 31  1  0  0  0
 17 18  1  0  0  0
 17101  1  0  0  0
 18 19  2  0  0  0
 18102  1  0  0  0
 19 20  1  0  0  0
 19 24  1  0  0  0
 20 21  2  0  0  0
 20103  1  0  0  0
 21 23  1  0  0  0
 22 28  1  0  0  0
 22 32  2  0  0  0
 26 27  1  0  0  0
 28104  1  0  0  0
 28105  1  0  0  0
 29106  1  0  0  0
 29107  1  0  0  0
 33 34  1  0  0  0
 33 66  1  0  0  0
 33 70  2  0  0  0
 34 36  1  0  0  0
 34 59  1  0  0  0
 34108  1  0  0  0
 35 44  2  0  0  0
 35 45  1  0  0  0
 35 68  1  0  0  0
 36 56  1  0  0  0
 36109  1  0  0  0
 37 39  1  0  0  0
 37 47  1  0  0  0
 37 66  1  0  0  0
 37110  1  0  0  0
 38 43  2  0  0  0
 38 46  1  0  0  0
 38 47  1  0  0  0
 39 64  1  0  0  0
 39 67  2  0  0  0
 40 52  1  0  0  0
 40 53  2  0  0  0
 40 58  1  0  0  0
 41111  1  0  0  0
 41112  1  0  0  0
 41113  1  0  0  0
 41 48  1  0  0  0
 42 43  1  0  0  0
 42 66  1  0  0  0
 42114  1  0  0  0
 42115  1  0  0  0
 43 44  1  0  0  0
 44116  1  0  0  0
 45 46  2  0  0  0
 45117  1  0  0  0
 46118  1  0  0  0
 47119  1  0  0  0
 47120  1  0  0  0
 48 56  1  0  0  0
 48 65  1  0  0  0
 48121  1  0  0  0
 49 50  1  0  0  0
 49 53  1  0  0  0
 49 64  1  0  0  0
 49122  1  0  0  0
 50 51  1  0  0  0
 50123  1  0  0  0
 50124  1  0  0  0
 51 52  1  0  0  0
 51125  1  0  0  0
 51126  1  0  0  0
 52127  1  0  0  0
 52128  1  0  0  0
 53 54  1  0  0  0
 54 55  2  0  0  0
 54129  1  0  0  0
 55 57  1  0  0  0
 55130  1  0  0  0
 56 69  2  0  0  0
 57 58  2  0  0  0
 57131  1  0  0  0
 58132  1  0  0  0
 59 60  1  0  0  0
 59 61  1  0  0  0
 59 62  1  0  0  0
 60133  1  0  0  0
 60134  1  0  0  0
 60135  1  0  0  0
 61136  1  0  0  0
 61137  1  0  0  0
 61138  1  0  0  0
 62139  1  0  0  0
 62140  1  0  0  0
 62141  1  0  0  0
 63 65  1  0  0  0
 63142  1  0  0  0
 63143  1  0  0  0
 63144  1  0  0  0
 64145  1  0  0  0
 65146  1  0  0  0
 68 82  1  0  0  0
 71 72  1  0  0  0
 71 73  2  0  0  0
 71147  1  0  0  0
 72 83  2  0  0  0
 72 85  1  0  0  0
 73 84  1  0  0  0
 73 86  1  0  0  0
 74 75  2  0  0  0
 74 76  1  0  0  0
 74148  1  0  0  0
 75 79  1  0  0  0
 75 82  1  0  0  0
 76 77  1  0  0  0
 76 87  2  0  0  0
 77 78  1  0  0  0
 77149  1  0  0  0
 77150  1  0  0  0
 78 85  1  0  0  0
 78151  1  0  0  0
 78152  1  0  0  0
 79 80  1  0  0  0
 79 85  1  0  0  0
 79153  1  0  0  0
 80154  1  0  0  0
 80155  1  0  0  0
 80156  1  0  0  0
 81 84  1  0  0  0
 81157  1  0  0  0
 81158  1  0  0  0
 81159  1  0  0  0
 82160  1  0  0  0
 82161  1  0  0  0
 83 84  1  0  0  0
 86162  1  0  0  0
M  ISO  4   1 100  68 101  82 101  86 100
M  END
> <chiral flag>
0

> <version>
0

> <s_m_source_file>
/data/baiqing/PycharmProjects/Reinvent-master-3.2/result/LINK_invent/BTK/process_docking_weight1_custom_product_contain_oxygen_bond_distance_aromatic_linkinvent_7_9_3/rearranged_h_0111.sdf

> <i_m_source_file_index>
27

> <r_mmod_Potential_Energy-OPLS-2005>
143.751724243164

> <r_mmod_Stretch_Energy-OPLS-2005>
143.151504516602

> <r_mmod_Bend_Energy-OPLS-2005>
214.673095703125

> <r_mmod_Torsional_Energy-OPLS-2005>
261.520599365234

> <r_mmod_Improper_Torsional_Energy-OPLS-2005>
11.3240528106689

> <r_mmod_Van_der_Waal_Energy-OPLS-2005>
124.308555603027

> <r_mmod_Electrostatic_Energy-OPLS-2005>
-485.318725585938

> <r_mmod_Solvation_Energy-OPLS-2005>
-242.56086730957

> <b_mmod_Minimization_Converged-OPLS-2005>
0

> <r_mmod_RMS_Derivative-OPLS-2005>
3.43191337585449

$$$$
28
                    3D
 Structure written by MMmdl.
163172  0  0  1  0            999 V2000
  -30.5228  -15.0462   20.3960 C   0  0  0  0  0  0
  -30.4440  -12.6562   19.4854 C   0  0  0  0  0  0
  -29.5227  -12.5115   18.2501 C   0  0  0  0  0  0
  -28.0550  -12.3015   18.6703 C   0  0  0  0  0  0
  -27.6172  -13.2431   19.8223 C   0  0  2  0  0  0
  -28.6712  -13.3261   20.9451 C   0  0  0  0  0  0
  -25.2459  -13.8168   20.5845 C   0  0  0  0  0  0
  -24.1740  -13.0405   20.9228 C   0  0  0  0  0  0
  -24.6342  -11.6896   20.8722 C   0  0  0  0  0  0
  -23.9020  -10.4282   21.0357 C   0  0  0  0  0  0
  -24.3572   -9.4205   21.9142 C   0  0  0  0  0  0
  -23.6258   -8.2237   22.0705 C   0  0  0  0  0  0
  -22.4260   -8.0232   21.3498 C   0  0  0  0  0  0
  -21.9883   -9.0198   20.4624 C   0  0  0  0  0  0
  -22.7187  -10.2085   20.3015 C   0  0  0  0  0  0
  -21.6834   -6.0703   22.5271 C   0  0  0  0  0  0
  -21.4033   -6.5610   23.8205 C   0  0  0  0  0  0
  -21.3689   -5.6763   24.9164 C   0  0  0  0  0  0
  -21.6035   -4.3019   24.7225 C   0  0  0  0  0  0
  -21.8821   -3.8116   23.4341 C   0  0  0  0  0  0
  -21.9208   -4.6939   22.3398 C   0  0  0  0  0  0
  -22.7771  -13.5183   21.1878 C   0  0  0  0  0  0
  -22.1647   -4.2108   21.0977 F   0  0  0  0  0  0
  -21.5627   -3.4507   25.7742 F   0  0  0  0  0  0
  -29.9202  -13.7783   20.3155 N   0  0  0  0  0  0
  -26.2829  -12.9369   20.3240 N   0  0  0  0  0  0
  -25.9278  -11.6506   20.5720 N   0  0  0  0  0  0
  -22.0415  -12.8167   22.0419 N   0  0  0  0  0  0
  -25.4313  -15.1913   20.4618 N   0  0  0  0  0  0
  -31.7615  -15.0502   20.3015 O   0  0  0  0  0  0
  -21.6600   -6.8837   21.4231 O   0  0  0  0  0  0
  -22.3467  -14.5487   20.6729 O   0  0  0  0  0  0
  -24.6433  -31.8387   23.1804 C   0  0  0  0  0  0
  -25.9188  -32.4658   23.8246 C   0  0  1  0  0  0
  -27.2356  -27.0945   20.1740 C   0  0  0  0  0  0
  -25.5939  -33.8474   24.2172 N   0  0  0  0  0  0
  -23.4530  -30.4493   21.5228 C   0  0  2  0  0  0
  -24.9109  -28.8604   20.1063 C   0  0  0  0  0  0
  -22.7590  -29.4517   22.4817 C   0  0  0  0  0  0
  -18.0315  -28.1384   22.8477 C   0  0  0  0  0  0
  -24.1475  -36.7226   23.2645 C   0  0  0  0  0  0
  -26.0087  -30.6949   21.3892 C   0  0  0  0  0  0
  -26.0807  -29.3001   20.7362 C   0  0  0  0  0  0
  -27.2375  -28.4311   20.7552 C   0  0  0  0  0  0
  -26.0456  -26.7586   19.4956 C   0  0  0  0  0  0
  -24.9101  -27.6058   19.4672 C   0  0  0  0  0  0
  -23.6844  -29.7647   20.1464 C   0  0  0  0  0  0
  -25.4113  -36.3017   24.0318 C   0  0  1  0  0  0
  -20.5935  -28.3716   23.1228 C   0  0  2  0  0  0
  -20.6778  -26.9409   22.5405 C   0  0  0  0  0  0
  -19.5754  -26.6360   21.5212 C   0  0  0  0  0  0
  -18.1949  -26.7927   22.1627 C   0  0  0  0  0  0
  -19.1573  -28.8872   23.2854 C   0  0  0  0  0  0
  -18.9481  -30.1472   23.8876 C   0  0  0  0  0  0
  -17.6475  -30.6588   24.0548 C   0  0  0  0  0  0
  -25.9070  -34.9384   23.5063 C   0  0  0  0  0  0
  -16.5371  -29.9073   23.6324 C   0  0  0  0  0  0
  -16.7304  -28.6485   23.0361 C   0  0  0  0  0  0
  -26.4504  -31.6559   25.0710 C   0  0  0  0  0  0
  -25.3693  -31.3735   26.1412 C   0  0  0  0  0  0
  -27.0389  -30.2952   24.6316 C   0  0  0  0  0  0
  -27.6058  -32.4350   25.7488 C   0  0  0  0  0  0
  -27.5578  -37.1764   24.8470 C   0  0  0  0  0  0
  -21.4275  -29.3042   22.3599 N   0  0  0  0  0  0
  -26.4274  -37.3735   23.9426 N   0  0  0  0  0  0
  -24.7218  -31.0202   22.0855 N   0  0  0  0  0  0
  -23.4230  -28.8084   23.3008 O   0  0  0  0  0  0
  -28.3065  -26.1284   20.3110 O   0  0  0  0  0  0
  -26.5672  -34.8890   22.4653 O   0  0  0  0  0  0
  -23.5560  -32.1315   23.6985 O   0  0  0  0  0  0
  -29.3002  -18.9891   20.0738 C   0  0  0  0  0  0
  -30.1450  -17.8864   22.0456 C   0  0  0  0  0  0
  -29.1690  -20.3550   20.7068 C   0  0  0  0  0  0
  -29.7575  -17.6994   20.7015 C   0  0  0  0  0  0
  -29.6105  -20.3400   22.0604 C   0  0  0  0  0  0
  -30.0678  -19.1455   22.6920 C   0  0  0  0  0  0
  -27.5222  -21.4598   19.2534 C   0  0  0  0  0  0
  -29.1406  -16.1523   18.8633 C   0  0  0  0  0  0
  -26.2980  -22.3052   19.5871 C   0  0  0  0  0  0
  -26.7183  -23.0560   20.8509 C   0  0  0  0  0  0
  -28.2382  -23.1527   20.6813 C   0  0  2  0  0  0
  -30.7491  -22.0745   23.1772 C   0  0  0  0  0  0
  -28.4103  -24.6297   19.8305 C   0  0  0  0  0  0
  -28.5484  -21.6711   20.1010 N   0  0  0  0  0  0
  -29.7609  -16.2480   20.1146 N   0  0  0  0  0  0
  -27.9369  -16.6623   18.5224 N   0  3  0  0  0  0
  -27.5169  -20.6755   18.3009 O   0  0  0  0  0  0
  -29.5072  -21.4730   22.8261 O   0  0  0  0  0  0
  -30.3961  -19.1905   24.0066 F   0  0  0  0  0  0
  -31.4705  -12.8316   19.1597 H   0  0  0  0  0  0
  -30.4648  -11.7287   20.0572 H   0  0  0  0  0  0
  -29.8552  -11.6709   17.6377 H   0  0  0  0  0  0
  -29.5980  -13.3925   17.6152 H   0  0  0  0  0  0
  -27.9530  -11.2629   18.9880 H   0  0  0  0  0  0
  -27.3991  -12.4200   17.8059 H   0  0  0  0  0  0
  -27.5521  -14.2290   19.3667 H   0  0  0  0  0  0
  -28.7993  -12.3585   21.4337 H   0  0  0  0  0  0
  -28.3554  -14.0305   21.7182 H   0  0  0  0  0  0
  -25.2713   -9.5666   22.4708 H   0  0  0  0  0  0
  -23.9953   -7.4620   22.7399 H   0  0  0  0  0  0
  -21.0807   -8.8688   19.8935 H   0  0  0  0  0  0
  -22.3613  -10.9586   19.6104 H   0  0  0  0  0  0
  -21.2003   -7.6117   23.9699 H   0  0  0  0  0  0
  -21.1524   -6.0485   25.9060 H   0  0  0  0  0  0
  -22.0597   -2.7579   23.2828 H   0  0  0  0  0  0
  -22.4003  -11.9829   22.4836 H   0  0  0  0  0  0
  -21.1027  -13.1180   22.2606 H   0  0  0  0  0  0
  -24.7073  -15.8554   20.7102 H   0  0  0  0  0  0
  -26.3480  -15.6077   20.3951 H   0  0  0  0  0  0
  -26.7260  -32.5228   23.0991 H   0  0  0  0  0  0
  -25.0044  -33.9609   25.0290 H   0  0  0  0  0  0
  -22.7567  -31.2739   21.3569 H   0  0  0  0  0  0
  -23.3766  -35.9533   23.3286 H   0  0  0  0  0  0
  -24.3548  -36.8884   22.2065 H   0  0  0  0  0  0
  -23.7195  -37.6391   23.6705 H   0  0  0  0  0  0
  -26.1711  -31.4423   20.6119 H   0  0  0  0  0  0
  -26.8786  -30.7502   22.0328 H   0  0  0  0  0  0
  -28.1232  -28.7569   21.2818 H   0  0  0  0  0  0
  -25.9631  -25.7923   19.0183 H   0  0  0  0  0  0
  -24.0211  -27.2625   18.9582 H   0  0  0  0  0  0
  -23.8183  -30.5331   19.3845 H   0  0  0  0  0  0
  -22.8021  -29.2011   19.8385 H   0  0  0  0  0  0
  -25.1301  -36.1830   25.0806 H   0  0  0  0  0  0
  -21.0047  -28.3282   24.1345 H   0  0  0  0  0  0
  -20.5624  -26.2331   23.3623 H   0  0  0  0  0  0
  -21.6636  -26.7372   22.1226 H   0  0  0  0  0  0
  -19.6895  -25.6257   21.1270 H   0  0  0  0  0  0
  -19.6693  -27.3139   20.6718 H   0  0  0  0  0  0
  -17.4215  -26.6698   21.4037 H   0  0  0  0  0  0
  -18.0348  -26.0078   22.9024 H   0  0  0  0  0  0
  -19.7955  -30.7294   24.2249 H   0  0  0  0  0  0
  -17.5015  -31.6256   24.5145 H   0  0  0  0  0  0
  -15.5365  -30.2953   23.7633 H   0  0  0  0  0  0
  -15.8714  -28.0763   22.7106 H   0  0  0  0  0  0
  -24.5869  -30.7098   25.7703 H   0  0  0  0  0  0
  -24.8861  -32.2893   26.4826 H   0  0  0  0  0  0
  -25.7953  -30.8894   27.0207 H   0  0  0  0  0  0
  -26.2998  -29.6671   24.1315 H   0  0  0  0  0  0
  -27.3990  -29.7261   25.4894 H   0  0  0  0  0  0
  -27.8917  -30.4193   23.9646 H   0  0  0  0  0  0
  -27.2666  -33.3686   26.1999 H   0  0  0  0  0  0
  -28.3881  -32.6871   25.0319 H   0  0  0  0  0  0
  -28.0719  -31.8522   26.5444 H   0  0  0  0  0  0
  -28.2577  -38.0080   24.7542 H   0  0  0  0  0  0
  -28.1104  -36.2611   24.6275 H   0  0  0  0  0  0
  -27.2307  -37.1376   25.8875 H   0  0  0  0  0  0
  -20.9491  -29.8741   21.6752 H   0  0  0  0  0  0
  -26.0139  -38.2797   24.1452 H   0  0  0  0  0  0
  -29.0191  -18.9257   19.0328 H   0  0  0  0  0  0
  -30.4648  -17.0428   22.6404 H   0  0  0  0  0  0
  -29.7203  -15.6245   18.1114 H   0  0  0  0  0  0
  -25.4182  -21.6828   19.7589 H   0  0  0  0  0  0
  -26.0870  -22.9804   18.7583 H   0  0  0  0  0  0
  -26.4537  -22.4810   21.7394 H   0  0  0  0  0  0
  -26.2342  -24.0306   20.9408 H   0  0  0  0  0  0
  -28.7027  -23.3015   21.6506 H   0  0  0  0  0  0
  -31.5626  -21.3614   23.3178 H   0  0  0  0  0  0
  -30.6382  -22.6332   24.1096 H   0  0  0  0  0  0
  -31.0504  -22.7854   22.4048 H   0  0  0  0  0  0
  -27.8433  -24.5605   18.9027 H   0  0  0  0  0  0
  -29.4468  -24.5913   19.4900 H   0  0  0  0  0  0
  -27.4062  -17.2724   19.1223 H   0  0  0  0  0  0
  -27.5776  -16.5099   17.5890 H   0  0  0  0  0  0
  1 25  1  0  0  0
  1 30  2  0  0  0
  1 85  1  0  0  0
  2  3  1  0  0  0
  2 25  1  0  0  0
  2 90  1  0  0  0
  2 91  1  0  0  0
  3  4  1  0  0  0
  3 92  1  0  0  0
  3 93  1  0  0  0
  4  5  1  0  0  0
  4 94  1  0  0  0
  4 95  1  0  0  0
  5  6  1  0  0  0
  5 26  1  0  0  0
  5 96  1  0  0  0
  6 25  1  0  0  0
  6 97  1  0  0  0
  6 98  1  0  0  0
  7  8  2  0  0  0
  7 26  1  0  0  0
  7 29  1  0  0  0
  8  9  1  0  0  0
  8 22  1  0  0  0
  9 10  1  0  0  0
  9 27  2  0  0  0
 10 11  2  0  0  0
 10 15  1  0  0  0
 11 12  1  0  0  0
 11 99  1  0  0  0
 12 13  2  0  0  0
 12100  1  0  0  0
 13 14  1  0  0  0
 13 31  1  0  0  0
 14 15  2  0  0  0
 14101  1  0  0  0
 15102  1  0  0  0
 16 17  2  0  0  0
 16 21  1  0  0  0
 16 31  1  0  0  0
 17 18  1  0  0  0
 17103  1  0  0  0
 18 19  2  0  0  0
 18104  1  0  0  0
 19 20  1  0  0  0
 19 24  1  0  0  0
 20 21  2  0  0  0
 20105  1  0  0  0
 21 23  1  0  0  0
 22 28  1  0  0  0
 22 32  2  0  0  0
 26 27  1  0  0  0
 28106  1  0  0  0
 28107  1  0  0  0
 29108  1  0  0  0
 29109  1  0  0  0
 33 34  1  0  0  0
 33 66  1  0  0  0
 33 70  2  0  0  0
 34 36  1  0  0  0
 34 59  1  0  0  0
 34110  1  0  0  0
 35 44  2  0  0  0
 35 45  1  0  0  0
 35 68  1  0  0  0
 36 56  1  0  0  0
 36111  1  0  0  0
 37 39  1  0  0  0
 37 47  1  0  0  0
 37 66  1  0  0  0
 37112  1  0  0  0
 38 43  2  0  0  0
 38 46  1  0  0  0
 38 47  1  0  0  0
 39 64  1  0  0  0
 39 67  2  0  0  0
 40 52  1  0  0  0
 40 53  2  0  0  0
 40 58  1  0  0  0
 41113  1  0  0  0
 41114  1  0  0  0
 41115  1  0  0  0
 41 48  1  0  0  0
 42 43  1  0  0  0
 42 66  1  0  0  0
 42116  1  0  0  0
 42117  1  0  0  0
 43 44  1  0  0  0
 44118  1  0  0  0
 45 46  2  0  0  0
 45119  1  0  0  0
 46120  1  0  0  0
 47121  1  0  0  0
 47122  1  0  0  0
 48 56  1  0  0  0
 48 65  1  0  0  0
 48123  1  0  0  0
 49 50  1  0  0  0
 49 53  1  0  0  0
 49 64  1  0  0  0
 49124  1  0  0  0
 50 51  1  0  0  0
 50125  1  0  0  0
 50126  1  0  0  0
 51 52  1  0  0  0
 51127  1  0  0  0
 51128  1  0  0  0
 52129  1  0  0  0
 52130  1  0  0  0
 53 54  1  0  0  0
 54 55  2  0  0  0
 54131  1  0  0  0
 55 57  1  0  0  0
 55132  1  0  0  0
 56 69  2  0  0  0
 57 58  2  0  0  0
 57133  1  0  0  0
 58134  1  0  0  0
 59 60  1  0  0  0
 59 61  1  0  0  0
 59 62  1  0  0  0
 60135  1  0  0  0
 60136  1  0  0  0
 60137  1  0  0  0
 61138  1  0  0  0
 61139  1  0  0  0
 61140  1  0  0  0
 62141  1  0  0  0
 62142  1  0  0  0
 62143  1  0  0  0
 63 65  1  0  0  0
 63144  1  0  0  0
 63145  1  0  0  0
 63146  1  0  0  0
 64147  1  0  0  0
 65148  1  0  0  0
 68 83  1  0  0  0
 71 73  2  0  0  0
 71 74  1  0  0  0
 71149  1  0  0  0
 72 74  2  0  0  0
 72 76  1  0  0  0
 72150  1  0  0  0
 73 75  1  0  0  0
 73 84  1  0  0  0
 74 85  1  0  0  0
 75 76  2  0  0  0
 75 88  1  0  0  0
 76 89  1  0  0  0
 77 79  1  0  0  0
 77 84  1  0  0  0
 77 87  2  0  0  0
 78 85  1  0  0  0
 78 86  2  0  0  0
 78151  1  0  0  0
 79 80  1  0  0  0
 79152  1  0  0  0
 79153  1  0  0  0
 80 81  1  0  0  0
 80154  1  0  0  0
 80155  1  0  0  0
 81 83  1  0  0  0
 81 84  1  0  0  0
 81156  1  0  0  0
 82 88  1  0  0  0
 82157  1  0  0  0
 82158  1  0  0  0
 82159  1  0  0  0
 83160  1  0  0  0
 83161  1  0  0  0
 86162  1  0  0  0
 86163  1  0  0  0
M  CHG  1  86   1
M  ISO  4   1 100  68 101  83 101  85 100
M  END
> <chiral flag>
0

> <version>
0

> <s_m_source_file>
/data/baiqing/PycharmProjects/Reinvent-master-3.2/result/LINK_invent/BTK/process_docking_weight1_custom_product_contain_oxygen_bond_distance_aromatic_linkinvent_7_9_3/rearranged_h_0111.sdf

> <i_m_source_file_index>
28

> <r_mmod_Potential_Energy-OPLS-2005>
967.443237304688

> <r_mmod_Stretch_Energy-OPLS-2005>
349.106658935547

> <r_mmod_Bend_Energy-OPLS-2005>
360.816284179688

> <r_mmod_Torsional_Energy-OPLS-2005>
413.670776367188

> <r_mmod_Improper_Torsional_Energy-OPLS-2005>
18.4475860595703

> <r_mmod_Van_der_Waal_Energy-OPLS-2005>
126.452415466309

> <r_mmod_Electrostatic_Energy-OPLS-2005>
-92.0618133544922

> <r_mmod_Solvation_Energy-OPLS-2005>
-462.944854736328

> <b_mmod_Minimization_Converged-OPLS-2005>
0

> <r_mmod_RMS_Derivative-OPLS-2005>
5.09261083602905

$$$$
29
                    3D
 Structure written by MMmdl.
161169  0  0  1  0            999 V2000
  -30.6738  -14.5787   20.5072 C   0  0  0  0  0  0
  -30.4168  -12.3568   19.4552 C   0  0  0  0  0  0
  -29.5005  -12.5057   18.2234 C   0  0  0  0  0  0
  -28.0228  -12.3512   18.6289 C   0  0  0  0  0  0
  -27.6464  -13.2270   19.8527 C   0  0  2  0  0  0
  -28.6851  -13.0900   20.9822 C   0  0  0  0  0  0
  -25.2523  -13.8187   20.5681 C   0  0  0  0  0  0
  -24.1811  -13.0424   20.9183 C   0  0  0  0  0  0
  -24.6395  -11.6907   20.8729 C   0  0  0  0  0  0
  -23.9064  -10.4285   21.0386 C   0  0  0  0  0  0
  -24.3610   -9.4204   21.9174 C   0  0  0  0  0  0
  -23.6286   -8.2245   22.0752 C   0  0  0  0  0  0
  -22.4276   -8.0276   21.3540 C   0  0  0  0  0  0
  -21.9906   -9.0245   20.4643 C   0  0  0  0  0  0
  -22.7235  -10.2127   20.3038 C   0  0  0  0  0  0
  -21.6844   -6.0747   22.5286 C   0  0  0  0  0  0
  -21.4003   -6.5649   23.8226 C   0  0  0  0  0  0
  -21.3662   -5.6804   24.9186 C   0  0  0  0  0  0
  -21.6046   -4.3064   24.7228 C   0  0  0  0  0  0
  -21.8819   -3.8156   23.4353 C   0  0  0  0  0  0
  -21.9187   -4.6975   22.3410 C   0  0  0  0  0  0
  -22.7838  -13.5192   21.1862 C   0  0  0  0  0  0
  -22.1666   -4.2160   21.0989 F   0  0  0  0  0  0
  -21.5609   -3.4552   25.7742 F   0  0  0  0  0  0
  -30.0077  -13.3889   20.4248 N   0  0  0  0  0  0
  -26.2953  -12.9396   20.3274 N   0  0  0  0  0  0
  -25.9323  -11.6539   20.5734 N   0  0  0  0  0  0
  -22.0489  -12.8176   22.0419 N   0  0  0  0  0  0
  -25.4237  -15.1914   20.4151 N   0  0  0  0  0  0
  -31.8609  -14.6312   20.1864 O   0  0  0  0  0  0
  -21.6635   -6.8883   21.4246 O   0  0  0  0  0  0
  -22.3525  -14.5510   20.6734 O   0  0  0  0  0  0
  -24.6196  -31.8641   23.2058 C   0  0  0  0  0  0
  -25.9076  -32.4800   23.8378 C   0  0  1  0  0  0
  -27.2204  -27.3715   20.1141 C   0  0  0  0  0  0
  -25.5910  -33.8604   24.2304 N   0  0  0  0  0  0
  -23.4112  -30.4864   21.5474 C   0  0  2  0  0  0
  -24.8575  -28.9430   20.1164 C   0  0  0  0  0  0
  -22.7448  -29.4636   22.4960 C   0  0  0  0  0  0
  -18.0299  -28.1360   22.8542 C   0  0  0  0  0  0
  -24.1500  -36.7306   23.2644 C   0  0  0  0  0  0
  -25.9470  -30.8104   21.3715 C   0  0  0  0  0  0
  -26.0217  -29.4418   20.7121 C   0  0  0  0  0  0
  -27.2093  -28.6648   20.7064 C   0  0  0  0  0  0
  -26.0376  -26.9001   19.5120 C   0  0  0  0  0  0
  -24.8611  -27.6720   19.5141 C   0  0  0  0  0  0
  -23.6239  -29.8172   20.1635 C   0  0  0  0  0  0
  -25.4119  -36.3096   24.0338 C   0  0  1  0  0  0
  -20.5893  -28.3661   23.1310 C   0  0  2  0  0  0
  -20.6769  -26.9369   22.5469 C   0  0  0  0  0  0
  -19.5758  -26.6439   21.5232 C   0  0  0  0  0  0
  -18.1984  -26.7862   22.1768 C   0  0  0  0  0  0
  -19.1547  -28.8843   23.2901 C   0  0  0  0  0  0
  -18.9481  -30.1454   23.8897 C   0  0  0  0  0  0
  -17.6482  -30.6595   24.0569 C   0  0  0  0  0  0
  -25.9042  -34.9460   23.5121 C   0  0  0  0  0  0
  -16.5366  -29.9091   23.6339 C   0  0  0  0  0  0
  -16.7292  -28.6486   23.0406 C   0  0  0  0  0  0
  -26.4475  -31.6603   25.0738 C   0  0  0  0  0  0
  -25.3718  -31.3747   26.1465 C   0  0  0  0  0  0
  -27.0315  -30.3026   24.6191 C   0  0  0  0  0  0
  -27.6045  -32.4321   25.7501 C   0  0  0  0  0  0
  -27.5584  -37.1803   24.8458 C   0  0  0  0  0  0
  -21.4171  -29.2974   22.3654 N   0  0  0  0  0  0
  -26.4302  -37.3779   23.9406 N   0  0  0  0  0  0
  -24.6771  -31.0683   22.1002 N   0  0  0  0  0  0
  -23.4193  -28.8242   23.3069 O   0  0  0  0  0  0
  -28.3384  -26.5506   20.1129 O   0  0  0  0  0  0
  -26.5603  -34.8909   22.4680 O   0  0  0  0  0  0
  -23.5363  -32.1427   23.7412 O   0  0  0  0  0  0
  -28.1505  -20.1408   19.7140 C   0  0  0  0  0  0
  -28.3881  -18.7712   19.2863 C   0  0  0  0  0  0
  -29.2723  -18.0678   20.0872 C   0  0  0  0  0  0
  -28.8645  -20.5056   20.8410 C   0  0  0  0  0  0
  -28.7121  -22.8955   21.5631 C   0  0  0  0  0  0
  -29.8552  -16.7006   19.8846 C   0  0  0  0  0  0
  -27.1694  -21.0369   19.0207 C   0  0  0  0  0  0
  -30.4255  -16.5753   18.4633 C   0  0  0  0  0  0
  -26.8422  -18.6363   16.0646 C   0  0  0  0  0  0
  -28.5929  -23.9353   20.4109 C   0  0  0  0  0  0
  -28.0973  -18.6866   16.9373 C   0  0  0  0  0  0
  -28.2447  -25.3761   20.9740 C   0  0  0  0  0  0
  -28.8596  -21.6108   21.6946 N   0  0  0  0  0  0
  -29.9107  -15.7418   20.7740 N   0  0  0  0  0  0
  -27.7665  -18.1867   18.2312 O   0  0  0  0  0  0
  -29.8022  -19.1095   21.3932 S   0  0  0  0  0  0
  -31.4619  -12.4441   19.1532 H   0  0  0  0  0  0
  -30.3180  -11.3650   19.8979 H   0  0  0  0  0  0
  -29.7635  -11.7646   17.4692 H   0  0  0  0  0  0
  -29.6577  -13.4818   17.7630 H   0  0  0  0  0  0
  -27.8615  -11.2990   18.8655 H   0  0  0  0  0  0
  -27.3718  -12.5794   17.7831 H   0  0  0  0  0  0
  -27.6654  -14.2634   19.5121 H   0  0  0  0  0  0
  -28.6719  -12.0807   21.3947 H   0  0  0  0  0  0
  -28.4470  -13.7601   21.8107 H   0  0  0  0  0  0
  -25.2749   -9.5691   22.4754 H   0  0  0  0  0  0
  -24.0003   -7.4635   22.7469 H   0  0  0  0  0  0
  -21.0841   -8.8753   19.8953 H   0  0  0  0  0  0
  -22.3675  -10.9660   19.6148 H   0  0  0  0  0  0
  -21.1995   -7.6157   23.9733 H   0  0  0  0  0  0
  -21.1475   -6.0530   25.9092 H   0  0  0  0  0  0
  -22.0585   -2.7614   23.2844 H   0  0  0  0  0  0
  -22.4105  -11.9839   22.4822 H   0  0  0  0  0  0
  -21.1098  -13.1187   22.2620 H   0  0  0  0  0  0
  -24.6612  -15.8491   20.5235 H   0  0  0  0  0  0
  -26.2937  -15.6310   20.1427 H   0  0  0  0  0  0
  -26.7167  -32.5489   23.1148 H   0  0  0  0  0  0
  -25.0069  -33.9786   25.0448 H   0  0  0  0  0  0
  -22.7046  -31.3055   21.4028 H   0  0  0  0  0  0
  -23.3757  -35.9642   23.3310 H   0  0  0  0  0  0
  -24.3601  -36.8911   22.2058 H   0  0  0  0  0  0
  -23.7245  -37.6515   23.6644 H   0  0  0  0  0  0
  -26.0759  -31.5813   20.6105 H   0  0  0  0  0  0
  -26.8267  -30.8557   22.0013 H   0  0  0  0  0  0
  -28.1025  -29.0386   21.1853 H   0  0  0  0  0  0
  -26.0217  -25.9212   19.0524 H   0  0  0  0  0  0
  -23.9629  -27.2799   19.0578 H   0  0  0  0  0  0
  -23.7405  -30.5907   19.4041 H   0  0  0  0  0  0
  -22.7441  -29.2439   19.8639 H   0  0  0  0  0  0
  -25.1297  -36.1968   25.0833 H   0  0  0  0  0  0
  -21.0014  -28.3293   24.1415 H   0  0  0  0  0  0
  -20.5591  -26.2241   23.3655 H   0  0  0  0  0  0
  -21.6649  -26.7358   22.1299 H   0  0  0  0  0  0
  -19.6977  -25.6408   21.1130 H   0  0  0  0  0  0
  -19.6640  -27.3386   20.6859 H   0  0  0  0  0  0
  -17.4147  -26.6353   21.4341 H   0  0  0  0  0  0
  -18.0667  -26.0090   22.9310 H   0  0  0  0  0  0
  -19.7980  -30.7263   24.2235 H   0  0  0  0  0  0
  -17.5042  -31.6292   24.5139 H   0  0  0  0  0  0
  -15.5362  -30.2976   23.7652 H   0  0  0  0  0  0
  -15.8687  -28.0768   22.7176 H   0  0  0  0  0  0
  -24.5870  -30.7126   25.7794 H   0  0  0  0  0  0
  -24.8942  -32.2925   26.4904 H   0  0  0  0  0  0
  -25.8036  -30.8902   27.0232 H   0  0  0  0  0  0
  -26.2900  -29.6792   24.1188 H   0  0  0  0  0  0
  -27.3987  -29.7263   25.4698 H   0  0  0  0  0  0
  -27.8774  -30.4325   23.9437 H   0  0  0  0  0  0
  -27.2668  -33.3600   26.2123 H   0  0  0  0  0  0
  -28.3827  -32.6919   25.0317 H   0  0  0  0  0  0
  -28.0750  -31.8425   26.5378 H   0  0  0  0  0  0
  -28.2601  -38.0101   24.7497 H   0  0  0  0  0  0
  -28.1079  -36.2628   24.6286 H   0  0  0  0  0  0
  -27.2305  -37.1455   25.8862 H   0  0  0  0  0  0
  -20.9378  -29.8561   21.6732 H   0  0  0  0  0  0
  -26.0191  -38.2866   24.1377 H   0  0  0  0  0  0
  -28.6912  -23.4388   22.5107 H   0  0  0  0  0  0
  -26.3697  -20.4659   18.5499 H   0  0  0  0  0  0
  -27.6588  -21.6290   18.2463 H   0  0  0  0  0  0
  -26.6811  -21.7152   19.7173 H   0  0  0  0  0  0
  -30.4675  -17.5462   17.9745 H   0  0  0  0  0  0
  -29.8005  -15.9174   17.8597 H   0  0  0  0  0  0
  -31.4509  -16.2138   18.4410 H   0  0  0  0  0  0
  -26.4856  -17.6124   15.9502 H   0  0  0  0  0  0
  -27.0467  -19.0332   15.0694 H   0  0  0  0  0  0
  -26.0339  -19.2239   16.4974 H   0  0  0  0  0  0
  -27.8285  -23.6334   19.6995 H   0  0  0  0  0  0
  -29.5428  -23.9664   19.8778 H   0  0  0  0  0  0
  -28.4963  -19.7008   16.9622 H   0  0  0  0  0  0
  -28.8662  -18.0623   16.4815 H   0  0  0  0  0  0
  -28.9195  -25.5990   21.8031 H   0  0  0  0  0  0
  -27.2539  -25.3258   21.4327 H   0  0  0  0  0  0
  1 25  1  0  0  0
  1 30  2  0  0  0
  1 84  1  0  0  0
  2  3  1  0  0  0
  2 25  1  0  0  0
  2 87  1  0  0  0
  2 88  1  0  0  0
  3  4  1  0  0  0
  3 89  1  0  0  0
  3 90  1  0  0  0
  4  5  1  0  0  0
  4 91  1  0  0  0
  4 92  1  0  0  0
  5  6  1  0  0  0
  5 26  1  0  0  0
  5 93  1  0  0  0
  6 25  1  0  0  0
  6 94  1  0  0  0
  6 95  1  0  0  0
  7  8  2  0  0  0
  7 26  1  0  0  0
  7 29  1  0  0  0
  8  9  1  0  0  0
  8 22  1  0  0  0
  9 10  1  0  0  0
  9 27  2  0  0  0
 10 11  2  0  0  0
 10 15  1  0  0  0
 11 12  1  0  0  0
 11 96  1  0  0  0
 12 13  2  0  0  0
 12 97  1  0  0  0
 13 14  1  0  0  0
 13 31  1  0  0  0
 14 15  2  0  0  0
 14 98  1  0  0  0
 15 99  1  0  0  0
 16 17  2  0  0  0
 16 21  1  0  0  0
 16 31  1  0  0  0
 17 18  1  0  0  0
 17100  1  0  0  0
 18 19  2  0  0  0
 18101  1  0  0  0
 19 20  1  0  0  0
 19 24  1  0  0  0
 20 21  2  0  0  0
 20102  1  0  0  0
 21 23  1  0  0  0
 22 28  1  0  0  0
 22 32  2  0  0  0
 26 27  1  0  0  0
 28103  1  0  0  0
 28104  1  0  0  0
 29105  1  0  0  0
 29106  1  0  0  0
 33 34  1  0  0  0
 33 66  1  0  0  0
 33 70  2  0  0  0
 34 36  1  0  0  0
 34 59  1  0  0  0
 34107  1  0  0  0
 35 44  2  0  0  0
 35 45  1  0  0  0
 35 68  1  0  0  0
 36 56  1  0  0  0
 36108  1  0  0  0
 37 39  1  0  0  0
 37 47  1  0  0  0
 37 66  1  0  0  0
 37109  1  0  0  0
 38 43  2  0  0  0
 38 46  1  0  0  0
 38 47  1  0  0  0
 39 64  1  0  0  0
 39 67  2  0  0  0
 40 52  1  0  0  0
 40 53  2  0  0  0
 40 58  1  0  0  0
 41110  1  0  0  0
 41111  1  0  0  0
 41112  1  0  0  0
 41 48  1  0  0  0
 42 43  1  0  0  0
 42 66  1  0  0  0
 42113  1  0  0  0
 42114  1  0  0  0
 43 44  1  0  0  0
 44115  1  0  0  0
 45 46  2  0  0  0
 45116  1  0  0  0
 46117  1  0  0  0
 47118  1  0  0  0
 47119  1  0  0  0
 48 56  1  0  0  0
 48 65  1  0  0  0
 48120  1  0  0  0
 49 50  1  0  0  0
 49 53  1  0  0  0
 49 64  1  0  0  0
 49121  1  0  0  0
 50 51  1  0  0  0
 50122  1  0  0  0
 50123  1  0  0  0
 51 52  1  0  0  0
 51124  1  0  0  0
 51125  1  0  0  0
 52126  1  0  0  0
 52127  1  0  0  0
 53 54  1  0  0  0
 54 55  2  0  0  0
 54128  1  0  0  0
 55 57  1  0  0  0
 55129  1  0  0  0
 56 69  2  0  0  0
 57 58  2  0  0  0
 57130  1  0  0  0
 58131  1  0  0  0
 59 60  1  0  0  0
 59 61  1  0  0  0
 59 62  1  0  0  0
 60132  1  0  0  0
 60133  1  0  0  0
 60134  1  0  0  0
 61135  1  0  0  0
 61136  1  0  0  0
 61137  1  0  0  0
 62138  1  0  0  0
 62139  1  0  0  0
 62140  1  0  0  0
 63 65  1  0  0  0
 63141  1  0  0  0
 63142  1  0  0  0
 63143  1  0  0  0
 64144  1  0  0  0
 65145  1  0  0  0
 68 82  1  0  0  0
 71 72  1  0  0  0
 71 74  2  0  0  0
 71 77  1  0  0  0
 72 73  2  0  0  0
 72 85  1  0  0  0
 73 76  1  0  0  0
 73 86  1  0  0  0
 74 83  1  0  0  0
 74 86  1  0  0  0
 75 80  1  0  0  0
 75 83  2  0  0  0
 75146  1  0  0  0
 76 78  1  0  0  0
 76 84  2  0  0  0
 77147  1  0  0  0
 77148  1  0  0  0
 77149  1  0  0  0
 78150  1  0  0  0
 78151  1  0  0  0
 78152  1  0  0  0
 79 81  1  0  0  0
 79153  1  0  0  0
 79154  1  0  0  0
 79155  1  0  0  0
 80 82  1  0  0  0
 80156  1  0  0  0
 80157  1  0  0  0
 81 85  1  0  0  0
 81158  1  0  0  0
 81159  1  0  0  0
 82160  1  0  0  0
 82161  1  0  0  0
M  ISO  4   1 100  68 101  82 101  84 100
M  END
> <chiral flag>
0

> <version>
0

> <s_m_source_file>
/data/baiqing/PycharmProjects/Reinvent-master-3.2/result/LINK_invent/BTK/process_docking_weight1_custom_product_contain_oxygen_bond_distance_aromatic_linkinvent_7_9_3/rearranged_h_0111.sdf

> <i_m_source_file_index>
29

> <r_mmod_Potential_Energy-OPLS-2005>
118.413581848145

> <r_mmod_Stretch_Energy-OPLS-2005>
64.054069519043

> <r_mmod_Bend_Energy-OPLS-2005>
194.513259887695

> <r_mmod_Torsional_Energy-OPLS-2005>
241.045516967773

> <r_mmod_Improper_Torsional_Energy-OPLS-2005>
5.35733509063721

> <r_mmod_Van_der_Waal_Energy-OPLS-2005>
130.759124755859

> <r_mmod_Electrostatic_Energy-OPLS-2005>
-360.171630859375

> <r_mmod_Solvation_Energy-OPLS-2005>
-191.122787475586

> <b_mmod_Minimization_Converged-OPLS-2005>
0

> <r_mmod_RMS_Derivative-OPLS-2005>
3.06653928756714

$$$$
30
                    3D
 Structure written by MMmdl.
164173  0  0  1  0            999 V2000
  -30.5784  -15.0315   20.4275 C   0  0  0  0  0  0
  -30.4163  -12.6503   19.5227 C   0  0  0  0  0  0
  -29.5226  -12.5520   18.2671 C   0  0  0  0  0  0
  -28.0588  -12.3184   18.6770 C   0  0  0  0  0  0
  -27.6162  -13.2650   19.8260 C   0  0  2  0  0  0
  -28.6499  -13.3696   20.9684 C   0  0  0  0  0  0
  -25.2401  -13.8231   20.5722 C   0  0  0  0  0  0
  -24.1750  -13.0425   20.9233 C   0  0  0  0  0  0
  -24.6392  -11.6918   20.8730 C   0  0  0  0  0  0
  -23.9070  -10.4286   21.0352 C   0  0  0  0  0  0
  -24.3624   -9.4207   21.9117 C   0  0  0  0  0  0
  -23.6304   -8.2243   22.0710 C   0  0  0  0  0  0
  -22.4287   -8.0263   21.3511 C   0  0  0  0  0  0
  -21.9916   -9.0233   20.4609 C   0  0  0  0  0  0
  -22.7241  -10.2115   20.3003 C   0  0  0  0  0  0
  -21.6868   -6.0721   22.5267 C   0  0  0  0  0  0
  -21.4022   -6.5622   23.8206 C   0  0  0  0  0  0
  -21.3670   -5.6780   24.9171 C   0  0  0  0  0  0
  -21.6033   -4.3032   24.7209 C   0  0  0  0  0  0
  -21.8830   -3.8125   23.4337 C   0  0  0  0  0  0
  -21.9199   -4.6951   22.3398 C   0  0  0  0  0  0
  -22.7785  -13.5179   21.1905 C   0  0  0  0  0  0
  -22.1660   -4.2129   21.0980 F   0  0  0  0  0  0
  -21.5644   -3.4531   25.7723 F   0  0  0  0  0  0
  -29.9184  -13.7916   20.3631 N   0  0  0  0  0  0
  -26.2819  -12.9484   20.3204 N   0  0  0  0  0  0
  -25.9319  -11.6592   20.5678 N   0  0  0  0  0  0
  -22.0431  -12.8172   22.0459 N   0  0  0  0  0  0
  -25.4067  -15.1970   20.4207 N   0  0  0  0  0  0
  -31.7679  -14.9700   20.1015 O   0  0  0  0  0  0
  -21.6649   -6.8862   21.4224 O   0  0  0  0  0  0
  -22.3467  -14.5460   20.6717 O   0  0  0  0  0  0
  -24.6468  -31.8411   23.1843 C   0  0  0  0  0  0
  -25.9234  -32.4676   23.8244 C   0  0  1  0  0  0
  -27.1946  -27.0878   20.1789 C   0  0  0  0  0  0
  -25.5965  -33.8485   24.2135 N   0  0  0  0  0  0
  -23.4496  -30.4598   21.5316 C   0  0  2  0  0  0
  -24.8933  -28.8778   20.1129 C   0  0  0  0  0  0
  -22.7578  -29.4539   22.4856 C   0  0  0  0  0  0
  -18.0305  -28.1422   22.8463 C   0  0  0  0  0  0
  -24.1483  -36.7247   23.2645 C   0  0  0  0  0  0
  -26.0081  -30.7022   21.3894 C   0  0  0  0  0  0
  -26.0728  -29.3071   20.7356 C   0  0  0  0  0  0
  -27.2246  -28.4290   20.7487 C   0  0  0  0  0  0
  -25.9904  -26.7698   19.5145 C   0  0  0  0  0  0
  -24.8680  -27.6246   19.4854 C   0  0  0  0  0  0
  -23.6752  -29.7875   20.1509 C   0  0  0  0  0  0
  -25.4121  -36.3004   24.0292 C   0  0  1  0  0  0
  -20.5917  -28.3738   23.1243 C   0  0  2  0  0  0
  -20.6786  -26.9447   22.5414 C   0  0  0  0  0  0
  -19.5759  -26.6395   21.5220 C   0  0  0  0  0  0
  -18.1937  -26.7963   22.1609 C   0  0  0  0  0  0
  -19.1569  -28.8902   23.2831 C   0  0  0  0  0  0
  -18.9479  -30.1494   23.8851 C   0  0  0  0  0  0
  -17.6473  -30.6612   24.0571 C   0  0  0  0  0  0
  -25.9079  -34.9391   23.5022 C   0  0  0  0  0  0
  -16.5364  -29.9100   23.6357 C   0  0  0  0  0  0
  -16.7295  -28.6529   23.0354 C   0  0  0  0  0  0
  -26.4532  -31.6571   25.0713 C   0  0  0  0  0  0
  -25.3679  -31.3830   26.1393 C   0  0  0  0  0  0
  -27.0428  -30.2951   24.6369 C   0  0  0  0  0  0
  -27.6043  -32.4357   25.7521 C   0  0  0  0  0  0
  -27.5561  -37.1773   24.8452 C   0  0  0  0  0  0
  -21.4275  -29.3039   22.3608 N   0  0  0  0  0  0
  -26.4269  -37.3722   23.9407 N   0  0  0  0  0  0
  -24.7222  -31.0224   22.0900 N   0  0  0  0  0  0
  -23.4210  -28.8092   23.3024 O   0  0  0  0  0  0
  -28.2334  -26.0767   20.2500 O   0  0  0  0  0  0
  -26.5664  -34.8900   22.4598 O   0  0  0  0  0  0
  -23.5579  -32.1321   23.7031 O   0  0  0  0  0  0
  -31.8890  -17.5253   21.4402 C   0  0  0  0  0  0
  -31.3697  -20.1296   20.7850 C   0  0  0  0  0  0
  -32.9229  -18.4720   21.5953 C   0  0  0  0  0  0
  -30.2686  -19.2406   20.6826 C   0  0  0  0  0  0
  -30.6010  -17.7395   20.8617 C   0  0  0  0  0  0
  -32.6622  -19.7960   21.1942 C   0  0  0  0  0  0
  -28.9114  -21.8313   22.2690 C   0  0  0  0  0  0
  -34.2634  -17.9746   22.0952 C   0  0  0  0  0  0
  -29.5159  -23.1466   22.7385 C   0  0  0  0  0  0
  -30.0609  -23.7495   21.4467 C   0  0  0  0  0  0
  -29.0759  -23.2462   20.3867 C   0  0  2  0  0  0
  -28.9919  -20.2469   20.3381 C   0  0  0  0  0  0
  -27.9395  -24.5247   20.2982 C   0  0  0  0  0  0
  -28.8368  -21.7495   20.9245 N   0  0  0  0  0  0
  -33.6067  -20.8291   21.1858 N   0  0  0  0  0  0
  -34.9834  -18.7932   22.8522 N   0  0  0  0  0  0
  -29.9501  -16.3344   20.6243 N   0  0  0  0  0  0
  -28.6516  -20.9232   23.0627 O   0  0  0  0  0  0
  -34.6572  -16.8329   21.8570 O   0  0  0  0  0  0
  -31.4560  -12.7691   19.2145 H   0  0  0  0  0  0
  -30.3894  -11.7162   20.0847 H   0  0  0  0  0  0
  -29.8719  -11.7516   17.6136 H   0  0  0  0  0  0
  -29.6029  -13.4741   17.6887 H   0  0  0  0  0  0
  -27.9804  -11.2805   19.0021 H   0  0  0  0  0  0
  -27.3967  -12.4172   17.8146 H   0  0  0  0  0  0
  -27.5591  -14.2543   19.3704 H   0  0  0  0  0  0
  -28.7547  -12.4229   21.5007 H   0  0  0  0  0  0
  -28.3235  -14.1069   21.7021 H   0  0  0  0  0  0
  -25.2749   -9.5747   22.4705 H   0  0  0  0  0  0
  -24.0030   -7.4660   22.7433 H   0  0  0  0  0  0
  -21.0846   -8.8728   19.8932 H   0  0  0  0  0  0
  -22.3630  -10.9647   19.6143 H   0  0  0  0  0  0
  -21.1997   -7.6121   23.9715 H   0  0  0  0  0  0
  -21.1496   -6.0492   25.9083 H   0  0  0  0  0  0
  -22.0598   -2.7582   23.2837 H   0  0  0  0  0  0
  -22.4058  -11.9874   22.4923 H   0  0  0  0  0  0
  -21.1012  -13.1157   22.2553 H   0  0  0  0  0  0
  -24.6443  -15.8537   20.5451 H   0  0  0  0  0  0
  -26.2596  -15.6399   20.1061 H   0  0  0  0  0  0
  -26.7309  -32.5251   23.0979 H   0  0  0  0  0  0
  -25.0085  -33.9596   25.0269 H   0  0  0  0  0  0
  -22.7541  -31.2864   21.3767 H   0  0  0  0  0  0
  -23.3741  -35.9579   23.3278 H   0  0  0  0  0  0
  -24.3580  -36.8917   22.2068 H   0  0  0  0  0  0
  -23.7241  -37.6429   23.6723 H   0  0  0  0  0  0
  -26.1676  -31.4577   20.6188 H   0  0  0  0  0  0
  -26.8795  -30.7542   22.0302 H   0  0  0  0  0  0
  -28.1218  -28.7499   21.2586 H   0  0  0  0  0  0
  -25.8824  -25.8156   19.0233 H   0  0  0  0  0  0
  -23.9683  -27.2925   18.9841 H   0  0  0  0  0  0
  -23.8134  -30.5634   19.3964 H   0  0  0  0  0  0
  -22.7867  -29.2320   19.8396 H   0  0  0  0  0  0
  -25.1317  -36.1801   25.0778 H   0  0  0  0  0  0
  -20.9992  -28.3332   24.1369 H   0  0  0  0  0  0
  -20.5679  -26.2362   23.3640 H   0  0  0  0  0  0
  -21.6652  -26.7454   22.1205 H   0  0  0  0  0  0
  -19.6911  -25.6287   21.1291 H   0  0  0  0  0  0
  -19.6696  -27.3177   20.6730 H   0  0  0  0  0  0
  -17.4210  -26.6718   21.4015 H   0  0  0  0  0  0
  -18.0305  -26.0140   22.9028 H   0  0  0  0  0  0
  -19.7961  -30.7337   24.2181 H   0  0  0  0  0  0
  -17.5036  -31.6289   24.5183 H   0  0  0  0  0  0
  -15.5364  -30.2981   23.7738 H   0  0  0  0  0  0
  -15.8691  -28.0855   22.7062 H   0  0  0  0  0  0
  -24.5840  -30.7194   25.7724 H   0  0  0  0  0  0
  -24.8893  -32.3055   26.4698 H   0  0  0  0  0  0
  -25.7921  -30.9077   27.0250 H   0  0  0  0  0  0
  -26.3089  -29.6651   24.1333 H   0  0  0  0  0  0
  -27.3974  -29.7276   25.4991 H   0  0  0  0  0  0
  -27.9019  -30.4172   23.9766 H   0  0  0  0  0  0
  -27.2606  -33.3669   26.2053 H   0  0  0  0  0  0
  -28.3909  -32.6909   25.0399 H   0  0  0  0  0  0
  -28.0679  -31.8519   26.5489 H   0  0  0  0  0  0
  -28.2552  -38.0090   24.7507 H   0  0  0  0  0  0
  -28.1068  -36.2619   24.6251 H   0  0  0  0  0  0
  -27.2296  -37.1395   25.8856 H   0  0  0  0  0  0
  -20.9491  -29.8742   21.6777 H   0  0  0  0  0  0
  -26.0110  -38.2771   24.1432 H   0  0  0  0  0  0
  -32.1620  -16.5459   21.7885 H   0  0  0  0  0  0
  -31.2256  -21.1622   20.5110 H   0  0  0  0  0  0
  -30.2976  -22.9906   23.4843 H   0  0  0  0  0  0
  -28.7317  -23.7664   23.1760 H   0  0  0  0  0  0
  -31.0630  -23.3662   21.2508 H   0  0  0  0  0  0
  -30.1376  -24.8376   21.4870 H   0  0  0  0  0  0
  -29.5883  -23.1794   19.4289 H   0  0  0  0  0  0
  -28.0808  -19.7055   20.5960 H   0  0  0  0  0  0
  -28.9616  -20.3585   19.2547 H   0  0  0  0  0  0
  -27.2462  -24.3928   21.1312 H   0  0  0  0  0  0
  -27.3448  -24.3036   19.4136 H   0  0  0  0  0  0
  -33.3576  -21.6886   20.7032 H   0  0  0  0  0  0
  -34.5821  -20.5863   21.0418 H   0  0  0  0  0  0
  -34.6385  -19.7299   23.0183 H   0  0  0  0  0  0
  -35.9001  -18.5190   23.1743 H   0  0  0  0  0  0
  -28.9398  -16.3156   20.6365 H   0  0  0  0  0  0
  1 25  1  0  0  0
  1 30  2  0  0  0
  1 87  1  0  0  0
  2  3  1  0  0  0
  2 25  1  0  0  0
  2 90  1  0  0  0
  2 91  1  0  0  0
  3  4  1  0  0  0
  3 92  1  0  0  0
  3 93  1  0  0  0
  4  5  1  0  0  0
  4 94  1  0  0  0
  4 95  1  0  0  0
  5  6  1  0  0  0
  5 26  1  0  0  0
  5 96  1  0  0  0
  6 25  1  0  0  0
  6 97  1  0  0  0
  6 98  1  0  0  0
  7  8  2  0  0  0
  7 26  1  0  0  0
  7 29  1  0  0  0
  8  9  1  0  0  0
  8 22  1  0  0  0
  9 10  1  0  0  0
  9 27  2  0  0  0
 10 11  2  0  0  0
 10 15  1  0  0  0
 11 12  1  0  0  0
 11 99  1  0  0  0
 12 13  2  0  0  0
 12100  1  0  0  0
 13 14  1  0  0  0
 13 31  1  0  0  0
 14 15  2  0  0  0
 14101  1  0  0  0
 15102  1  0  0  0
 16 17  2  0  0  0
 16 21  1  0  0  0
 16 31  1  0  0  0
 17 18  1  0  0  0
 17103  1  0  0  0
 18 19  2  0  0  0
 18104  1  0  0  0
 19 20  1  0  0  0
 19 24  1  0  0  0
 20 21  2  0  0  0
 20105  1  0  0  0
 21 23  1  0  0  0
 22 28  1  0  0  0
 22 32  2  0  0  0
 26 27  1  0  0  0
 28106  1  0  0  0
 28107  1  0  0  0
 29108  1  0  0  0
 29109  1  0  0  0
 33 34  1  0  0  0
 33 66  1  0  0  0
 33 70  2  0  0  0
 34 36  1  0  0  0
 34 59  1  0  0  0
 34110  1  0  0  0
 35 44  2  0  0  0
 35 45  1  0  0  0
 35 68  1  0  0  0
 36 56  1  0  0  0
 36111  1  0  0  0
 37 39  1  0  0  0
 37 47  1  0  0  0
 37 66  1  0  0  0
 37112  1  0  0  0
 38 43  2  0  0  0
 38 46  1  0  0  0
 38 47  1  0  0  0
 39 64  1  0  0  0
 39 67  2  0  0  0
 40 52  1  0  0  0
 40 53  2  0  0  0
 40 58  1  0  0  0
 41113  1  0  0  0
 41114  1  0  0  0
 41115  1  0  0  0
 41 48  1  0  0  0
 42 43  1  0  0  0
 42 66  1  0  0  0
 42116  1  0  0  0
 42117  1  0  0  0
 43 44  1  0  0  0
 44118  1  0  0  0
 45 46  2  0  0  0
 45119  1  0  0  0
 46120  1  0  0  0
 47121  1  0  0  0
 47122  1  0  0  0
 48 56  1  0  0  0
 48 65  1  0  0  0
 48123  1  0  0  0
 49 50  1  0  0  0
 49 53  1  0  0  0
 49 64  1  0  0  0
 49124  1  0  0  0
 50 51  1  0  0  0
 50125  1  0  0  0
 50126  1  0  0  0
 51 52  1  0  0  0
 51127  1  0  0  0
 51128  1  0  0  0
 52129  1  0  0  0
 52130  1  0  0  0
 53 54  1  0  0  0
 54 55  2  0  0  0
 54131  1  0  0  0
 55 57  1  0  0  0
 55132  1  0  0  0
 56 69  2  0  0  0
 57 58  2  0  0  0
 57133  1  0  0  0
 58134  1  0  0  0
 59 60  1  0  0  0
 59 61  1  0  0  0
 59 62  1  0  0  0
 60135  1  0  0  0
 60136  1  0  0  0
 60137  1  0  0  0
 61138  1  0  0  0
 61139  1  0  0  0
 61140  1  0  0  0
 62141  1  0  0  0
 62142  1  0  0  0
 62143  1  0  0  0
 63 65  1  0  0  0
 63144  1  0  0  0
 63145  1  0  0  0
 63146  1  0  0  0
 64147  1  0  0  0
 65148  1  0  0  0
 68 83  1  0  0  0
 71 73  2  0  0  0
 71 75  1  0  0  0
 71149  1  0  0  0
 72 74  1  0  0  0
 72 76  2  0  0  0
 72150  1  0  0  0
 73 76  1  0  0  0
 73 78  1  0  0  0
 74 75  2  0  0  0
 74 82  1  0  0  0
 75 87  1  0  0  0
 76 85  1  0  0  0
 77 79  1  0  0  0
 77 84  1  0  0  0
 77 88  2  0  0  0
 78 86  1  0  0  0
 78 89  2  0  0  0
 79 80  1  0  0  0
 79151  1  0  0  0
 79152  1  0  0  0
 80 81  1  0  0  0
 80153  1  0  0  0
 80154  1  0  0  0
 81 83  1  0  0  0
 81 84  1  0  0  0
 81155  1  0  0  0
 82 84  1  0  0  0
 82156  1  0  0  0
 82157  1  0  0  0
 83158  1  0  0  0
 83159  1  0  0  0
 85160  1  0  0  0
 85161  1  0  0  0
 86162  1  0  0  0
 86163  1  0  0  0
 87164  1  0  0  0
M  ISO  4   1 100  68 101  83 101  87 100
M  END
> <chiral flag>
0

> <version>
0

> <s_m_source_file>
/data/baiqing/PycharmProjects/Reinvent-master-3.2/result/LINK_invent/BTK/process_docking_weight1_custom_product_contain_oxygen_bond_distance_aromatic_linkinvent_7_9_3/rearranged_h_0111.sdf

> <i_m_source_file_index>
30

> <r_mmod_Potential_Energy-OPLS-2005>
763.241943359375

> <r_mmod_Stretch_Energy-OPLS-2005>
374.155059814453

> <r_mmod_Bend_Energy-OPLS-2005>
438.098876953125

> <r_mmod_Torsional_Energy-OPLS-2005>
290.656341552734

> <r_mmod_Improper_Torsional_Energy-OPLS-2005>
10.531078338623

> <r_mmod_Van_der_Waal_Energy-OPLS-2005>
158.235382080078

> <r_mmod_Electrostatic_Energy-OPLS-2005>
-465.180389404297

> <r_mmod_Solvation_Energy-OPLS-2005>
-288.444213867188

> <b_mmod_Minimization_Converged-OPLS-2005>
0

> <r_mmod_RMS_Derivative-OPLS-2005>
4.28610944747925

$$$$
31
                    3D
 Structure written by MMmdl.
155164  0  0  1  0            999 V2000
  -30.5486  -14.8162   20.4618 C   0  0  0  0  0  0
  -30.4496  -12.4933   19.4800 C   0  0  0  0  0  0
  -29.5221  -12.5013   18.2423 C   0  0  0  0  0  0
  -28.0489  -12.3143   18.6609 C   0  0  0  0  0  0
  -27.6442  -13.2251   19.8493 C   0  0  2  0  0  0
  -28.6876  -13.1615   20.9876 C   0  0  0  0  0  0
  -25.2531  -13.8177   20.5693 C   0  0  0  0  0  0
  -24.1819  -13.0438   20.9252 C   0  0  0  0  0  0
  -24.6368  -11.6908   20.8779 C   0  0  0  0  0  0
  -23.9004  -10.4315   21.0428 C   0  0  0  0  0  0
  -24.3548   -9.4244   21.9226 C   0  0  0  0  0  0
  -23.6261   -8.2257   22.0779 C   0  0  0  0  0  0
  -22.4259   -8.0282   21.3550 C   0  0  0  0  0  0
  -21.9874   -9.0249   20.4652 C   0  0  0  0  0  0
  -22.7166  -10.2144   20.3076 C   0  0  0  0  0  0
  -21.6845   -6.0728   22.5297 C   0  0  0  0  0  0
  -21.4007   -6.5636   23.8226 C   0  0  0  0  0  0
  -21.3663   -5.6776   24.9200 C   0  0  0  0  0  0
  -21.6033   -4.3042   24.7237 C   0  0  0  0  0  0
  -21.8817   -3.8137   23.4350 C   0  0  0  0  0  0
  -21.9194   -4.6956   22.3413 C   0  0  0  0  0  0
  -22.7843  -13.5282   21.1858 C   0  0  0  0  0  0
  -22.1659   -4.2153   21.0986 F   0  0  0  0  0  0
  -21.5621   -3.4514   25.7736 F   0  0  0  0  0  0
  -29.9803  -13.5534   20.4120 N   0  0  0  0  0  0
  -26.2945  -12.9352   20.3246 N   0  0  0  0  0  0
  -25.9306  -11.6509   20.5770 N   0  0  0  0  0  0
  -22.0369  -12.8366   22.0375 N   0  0  0  0  0  0
  -25.4197  -15.1902   20.4046 N   0  0  0  0  0  0
  -31.7252  -14.9472   20.1049 O   0  0  0  0  0  0
  -21.6623   -6.8873   21.4254 O   0  0  0  0  0  0
  -22.3584  -14.5581   20.6651 O   0  0  0  0  0  0
  -24.6403  -31.8489   23.2005 C   0  0  0  0  0  0
  -25.9226  -32.4709   23.8357 C   0  0  1  0  0  0
  -27.2284  -27.2078   20.1903 C   0  0  0  0  0  0
  -25.6080  -33.8507   24.2308 N   0  0  0  0  0  0
  -23.4430  -30.4649   21.5373 C   0  0  2  0  0  0
  -24.9000  -28.8973   20.1245 C   0  0  0  0  0  0
  -22.7573  -29.4572   22.4932 C   0  0  0  0  0  0
  -18.0279  -28.1423   22.8478 C   0  0  0  0  0  0
  -24.1481  -36.7193   23.2635 C   0  0  0  0  0  0
  -25.9896  -30.7452   21.3929 C   0  0  0  0  0  0
  -26.0655  -29.3561   20.7550 C   0  0  0  0  0  0
  -27.2357  -28.5237   20.7796 C   0  0  0  0  0  0
  -26.0655  -26.8558   19.4843 C   0  0  0  0  0  0
  -24.9090  -27.6548   19.4719 C   0  0  0  0  0  0
  -23.6661  -29.7753   20.1617 C   0  0  0  0  0  0
  -25.4122  -36.2996   24.0331 C   0  0  1  0  0  0
  -20.5903  -28.3727   23.1245 C   0  0  2  0  0  0
  -20.6765  -26.9439   22.5376 C   0  0  0  0  0  0
  -19.5703  -26.6376   21.5226 C   0  0  0  0  0  0
  -18.1888  -26.7974   22.1605 C   0  0  0  0  0  0
  -19.1555  -28.8898   23.2823 C   0  0  0  0  0  0
  -18.9464  -30.1533   23.8789 C   0  0  0  0  0  0
  -17.6476  -30.6623   24.0542 C   0  0  0  0  0  0
  -25.9058  -34.9382   23.5081 C   0  0  0  0  0  0
  -16.5345  -29.9094   23.6388 C   0  0  0  0  0  0
  -16.7276  -28.6521   23.0384 C   0  0  0  0  0  0
  -26.4567  -31.6572   25.0785 C   0  0  0  0  0  0
  -25.3823  -31.3759   26.1553 C   0  0  0  0  0  0
  -27.0512  -30.3010   24.6344 C   0  0  0  0  0  0
  -27.6094  -32.4360   25.7561 C   0  0  0  0  0  0
  -27.5567  -37.1774   24.8482 C   0  0  0  0  0  0
  -21.4267  -29.3098   22.3698 N   0  0  0  0  0  0
  -26.4264  -37.3731   23.9421 N   0  0  0  0  0  0
  -24.7089  -31.0436   22.0965 N   0  0  0  0  0  0
  -23.4244  -28.8119   23.3049 O   0  0  0  0  0  0
  -28.2965  -26.2740   20.1666 O   0  0  0  0  0  0
  -26.5485  -34.8850   22.4560 O   0  0  0  0  0  0
  -23.5545  -32.1295   23.7282 O   0  0  0  0  0  0
  -28.7386  -18.3278   21.0278 C   0  0  0  0  0  0
  -29.7938  -17.3977   20.6401 C   0  0  0  0  0  0
  -29.1245  -19.6436   20.7178 C   0  0  0  0  0  0
  -28.0362  -23.5060   20.7195 C   0  0  0  0  0  0
  -28.8653  -22.3592   20.7888 C   0  0  0  0  0  0
  -26.5857  -23.2170   20.6487 C   0  0  0  0  0  0
  -26.1046  -21.9078   21.2427 C   0  0  0  0  0  0
  -26.9676  -20.7159   20.8108 C   0  0  0  0  0  0
  -30.3633  -22.5067   21.0300 C   0  0  0  0  0  0
  -28.3429  -25.0661   21.0931 C   0  0  0  0  0  0
  -30.7875  -18.1373   20.1448 N   0  0  0  0  0  0
  -28.4187  -20.9517   20.7685 N   0  0  0  0  0  0
  -29.7131  -15.9003   20.7649 N   0  0  0  0  0  0
  -25.7329  -23.9770   20.1939 O   0  0  0  0  0  0
  -30.3830  -19.5082   20.1833 O   0  0  0  0  0  0
  -31.4844  -12.6432   19.1628 H   0  0  0  0  0  0
  -30.4249  -11.5169   19.9688 H   0  0  0  0  0  0
  -29.8161  -11.7122   17.5467 H   0  0  0  0  0  0
  -29.6387  -13.4433   17.7040 H   0  0  0  0  0  0
  -27.9269  -11.2711   18.9565 H   0  0  0  0  0  0
  -27.3854  -12.4706   17.8094 H   0  0  0  0  0  0
  -27.6386  -14.2450   19.4611 H   0  0  0  0  0  0
  -28.7499  -12.1553   21.4055 H   0  0  0  0  0  0
  -28.4099  -13.8158   21.8152 H   0  0  0  0  0  0
  -25.2646   -9.5764   22.4849 H   0  0  0  0  0  0
  -23.9966   -7.4654   22.7513 H   0  0  0  0  0  0
  -21.0802   -8.8745   19.8965 H   0  0  0  0  0  0
  -22.3592  -10.9678   19.6210 H   0  0  0  0  0  0
  -21.1987   -7.6137   23.9747 H   0  0  0  0  0  0
  -21.1482   -6.0496   25.9108 H   0  0  0  0  0  0
  -22.0584   -2.7597   23.2834 H   0  0  0  0  0  0
  -22.3797  -11.9997   22.4824 H   0  0  0  0  0  0
  -21.1022  -13.1569   22.2482 H   0  0  0  0  0  0
  -24.6327  -15.8241   20.5018 H   0  0  0  0  0  0
  -26.2265  -15.6199   19.9693 H   0  0  0  0  0  0
  -26.7309  -32.5354   23.1114 H   0  0  0  0  0  0
  -25.0716  -33.9652   25.0768 H   0  0  0  0  0  0
  -22.7399  -31.2854   21.3762 H   0  0  0  0  0  0
  -23.3757  -35.9509   23.3271 H   0  0  0  0  0  0
  -24.3586  -36.8801   22.2054 H   0  0  0  0  0  0
  -23.7189  -37.6379   23.6634 H   0  0  0  0  0  0
  -26.1430  -31.4896   20.6114 H   0  0  0  0  0  0
  -26.8609  -30.7994   22.0338 H   0  0  0  0  0  0
  -28.1315  -28.8652   21.2802 H   0  0  0  0  0  0
  -26.0509  -25.9295   18.9327 H   0  0  0  0  0  0
  -24.0353  -27.3040   18.9403 H   0  0  0  0  0  0
  -23.7674  -30.5194   19.3690 H   0  0  0  0  0  0
  -22.7977  -29.1717   19.8907 H   0  0  0  0  0  0
  -25.1309  -36.1816   25.0823 H   0  0  0  0  0  0
  -20.9977  -28.3264   24.1373 H   0  0  0  0  0  0
  -20.5707  -26.2356   23.3597 H   0  0  0  0  0  0
  -21.6631  -26.7482   22.1151 H   0  0  0  0  0  0
  -19.6822  -25.6263   21.1319 H   0  0  0  0  0  0
  -19.6623  -27.3119   20.6700 H   0  0  0  0  0  0
  -17.4214  -26.6826   21.3931 H   0  0  0  0  0  0
  -18.0140  -26.0102   22.8957 H   0  0  0  0  0  0
  -19.7953  -30.7414   24.2023 H   0  0  0  0  0  0
  -17.5028  -31.6296   24.5155 H   0  0  0  0  0  0
  -15.5344  -30.2955   23.7809 H   0  0  0  0  0  0
  -15.8669  -28.0842   22.7119 H   0  0  0  0  0  0
  -24.5951  -30.7125   25.7961 H   0  0  0  0  0  0
  -24.9087  -32.2953   26.5002 H   0  0  0  0  0  0
  -25.8206  -30.8964   27.0318 H   0  0  0  0  0  0
  -26.3193  -29.6681   24.1334 H   0  0  0  0  0  0
  -27.4175  -29.7342   25.4909 H   0  0  0  0  0  0
  -27.9031  -30.4317   23.9677 H   0  0  0  0  0  0
  -27.2688  -33.3690   26.2050 H   0  0  0  0  0  0
  -28.3955  -32.6873   25.0436 H   0  0  0  0  0  0
  -28.0700  -31.8559   26.5560 H   0  0  0  0  0  0
  -28.2591  -38.0064   24.7535 H   0  0  0  0  0  0
  -28.1037  -36.2594   24.6295 H   0  0  0  0  0  0
  -27.2277  -37.1427   25.8878 H   0  0  0  0  0  0
  -20.9511  -29.8935   21.6966 H   0  0  0  0  0  0
  -26.0108  -38.2786   24.1411 H   0  0  0  0  0  0
  -27.7986  -18.0443   21.4718 H   0  0  0  0  0  0
  -25.0656  -21.7406   20.9610 H   0  0  0  0  0  0
  -26.1157  -22.0136   22.3271 H   0  0  0  0  0  0
  -26.6458  -20.3486   19.8352 H   0  0  0  0  0  0
  -26.7457  -19.9221   21.5241 H   0  0  0  0  0  0
  -30.7011  -23.5355   20.9133 H   0  0  0  0  0  0
  -30.9441  -21.9272   20.3142 H   0  0  0  0  0  0
  -30.6357  -22.1852   22.0380 H   0  0  0  0  0  0
  -29.3467  -25.0807   21.5145 H   0  0  0  0  0  0
  -27.7207  -25.3050   21.9565 H   0  0  0  0  0  0
  -28.8132  -15.5811   21.0816 H   0  0  0  0  0  0
  1 25  1  0  0  0
  1 30  2  0  0  0
  1 83  1  0  0  0
  2  3  1  0  0  0
  2 25  1  0  0  0
  2 86  1  0  0  0
  2 87  1  0  0  0
  3  4  1  0  0  0
  3 88  1  0  0  0
  3 89  1  0  0  0
  4  5  1  0  0  0
  4 90  1  0  0  0
  4 91  1  0  0  0
  5  6  1  0  0  0
  5 26  1  0  0  0
  5 92  1  0  0  0
  6 25  1  0  0  0
  6 93  1  0  0  0
  6 94  1  0  0  0
  7  8  2  0  0  0
  7 26  1  0  0  0
  7 29  1  0  0  0
  8  9  1  0  0  0
  8 22  1  0  0  0
  9 10  1  0  0  0
  9 27  2  0  0  0
 10 11  2  0  0  0
 10 15  1  0  0  0
 11 12  1  0  0  0
 11 95  1  0  0  0
 12 13  2  0  0  0
 12 96  1  0  0  0
 13 14  1  0  0  0
 13 31  1  0  0  0
 14 15  2  0  0  0
 14 97  1  0  0  0
 15 98  1  0  0  0
 16 17  2  0  0  0
 16 21  1  0  0  0
 16 31  1  0  0  0
 17 18  1  0  0  0
 17 99  1  0  0  0
 18 19  2  0  0  0
 18100  1  0  0  0
 19 20  1  0  0  0
 19 24  1  0  0  0
 20 21  2  0  0  0
 20101  1  0  0  0
 21 23  1  0  0  0
 22 28  1  0  0  0
 22 32  2  0  0  0
 26 27  1  0  0  0
 28102  1  0  0  0
 28103  1  0  0  0
 29104  1  0  0  0
 29105  1  0  0  0
 33 34  1  0  0  0
 33 66  1  0  0  0
 33 70  2  0  0  0
 34 36  1  0  0  0
 34 59  1  0  0  0
 34106  1  0  0  0
 35 44  2  0  0  0
 35 45  1  0  0  0
 35 68  1  0  0  0
 36 56  1  0  0  0
 36107  1  0  0  0
 37 39  1  0  0  0
 37 47  1  0  0  0
 37 66  1  0  0  0
 37108  1  0  0  0
 38 43  2  0  0  0
 38 46  1  0  0  0
 38 47  1  0  0  0
 39 64  1  0  0  0
 39 67  2  0  0  0
 40 52  1  0  0  0
 40 53  2  0  0  0
 40 58  1  0  0  0
 41109  1  0  0  0
 41110  1  0  0  0
 41111  1  0  0  0
 41 48  1  0  0  0
 42 43  1  0  0  0
 42 66  1  0  0  0
 42112  1  0  0  0
 42113  1  0  0  0
 43 44  1  0  0  0
 44114  1  0  0  0
 45 46  2  0  0  0
 45115  1  0  0  0
 46116  1  0  0  0
 47117  1  0  0  0
 47118  1  0  0  0
 48 56  1  0  0  0
 48 65  1  0  0  0
 48119  1  0  0  0
 49 50  1  0  0  0
 49 53  1  0  0  0
 49 64  1  0  0  0
 49120  1  0  0  0
 50 51  1  0  0  0
 50121  1  0  0  0
 50122  1  0  0  0
 51 52  1  0  0  0
 51123  1  0  0  0
 51124  1  0  0  0
 52125  1  0  0  0
 52126  1  0  0  0
 53 54  1  0  0  0
 54 55  2  0  0  0
 54127  1  0  0  0
 55 57  1  0  0  0
 55128  1  0  0  0
 56 69  2  0  0  0
 57 58  2  0  0  0
 57129  1  0  0  0
 58130  1  0  0  0
 59 60  1  0  0  0
 59 61  1  0  0  0
 59 62  1  0  0  0
 60131  1  0  0  0
 60132  1  0  0  0
 60133  1  0  0  0
 61134  1  0  0  0
 61135  1  0  0  0
 61136  1  0  0  0
 62137  1  0  0  0
 62138  1  0  0  0
 62139  1  0  0  0
 63 65  1  0  0  0
 63140  1  0  0  0
 63141  1  0  0  0
 63142  1  0  0  0
 64143  1  0  0  0
 65144  1  0  0  0
 68 80  1  0  0  0
 71 72  1  0  0  0
 71 73  2  0  0  0
 71145  1  0  0  0
 72 81  2  0  0  0
 72 83  1  0  0  0
 73 82  1  0  0  0
 73 85  1  0  0  0
 74 75  2  0  0  0
 74 76  1  0  0  0
 74 80  1  0  0  0
 75 79  1  0  0  0
 75 82  1  0  0  0
 76 77  1  0  0  0
 76 84  2  0  0  0
 77 78  1  0  0  0
 77146  1  0  0  0
 77147  1  0  0  0
 78 82  1  0  0  0
 78148  1  0  0  0
 78149  1  0  0  0
 79150  1  0  0  0
 79151  1  0  0  0
 79152  1  0  0  0
 80153  1  0  0  0
 80154  1  0  0  0
 81 85  1  0  0  0
 83155  1  0  0  0
M  ISO  4   1 100  68 101  80 101  83 100
M  END
> <chiral flag>
0

> <version>
0

> <s_m_source_file>
/data/baiqing/PycharmProjects/Reinvent-master-3.2/result/LINK_invent/BTK/process_docking_weight1_custom_product_contain_oxygen_bond_distance_aromatic_linkinvent_7_9_3/rearranged_h_0111.sdf

> <i_m_source_file_index>
31

> <r_mmod_Potential_Energy-OPLS-2005>
250.602493286133

> <r_mmod_Stretch_Energy-OPLS-2005>
168.985748291016

> <r_mmod_Bend_Energy-OPLS-2005>
220.486572265625

> <r_mmod_Torsional_Energy-OPLS-2005>
223.056945800781

> <r_mmod_Improper_Torsional_Energy-OPLS-2005>
5.59654951095581

> <r_mmod_Van_der_Waal_Energy-OPLS-2005>
130.154769897461

> <r_mmod_Electrostatic_Energy-OPLS-2005>
-366.123291015625

> <r_mmod_Solvation_Energy-OPLS-2005>
-251.470428466797

> <b_mmod_Minimization_Converged-OPLS-2005>
0

> <r_mmod_RMS_Derivative-OPLS-2005>
5.14230871200562

$$$$
32
                    3D
 Structure written by MMmdl.
146154  0  0  1  0            999 V2000
  -30.4940  -15.1754   20.3911 C   0  0  0  0  0  0
  -30.4402  -12.7467   19.5028 C   0  0  0  0  0  0
  -29.5336  -12.5507   18.2652 C   0  0  0  0  0  0
  -28.0733  -12.3050   18.6921 C   0  0  0  0  0  0
  -27.6147  -13.2707   19.8168 C   0  0  2  0  0  0
  -28.6598  -13.4182   20.9425 C   0  0  0  0  0  0
  -25.2419  -13.8234   20.5798 C   0  0  0  0  0  0
  -24.1753  -13.0419   20.9253 C   0  0  0  0  0  0
  -24.6387  -11.6917   20.8721 C   0  0  0  0  0  0
  -23.9062  -10.4282   21.0365 C   0  0  0  0  0  0
  -24.3604   -9.4213   21.9171 C   0  0  0  0  0  0
  -23.6278   -8.2248   22.0768 C   0  0  0  0  0  0
  -22.4269   -8.0260   21.3546 C   0  0  0  0  0  0
  -21.9890   -9.0226   20.4651 C   0  0  0  0  0  0
  -22.7220  -10.2103   20.3031 C   0  0  0  0  0  0
  -21.6856   -6.0697   22.5260 C   0  0  0  0  0  0
  -21.4017   -6.5613   23.8184 C   0  0  0  0  0  0
  -21.3668   -5.6776   24.9153 C   0  0  0  0  0  0
  -21.6062   -4.3037   24.7206 C   0  0  0  0  0  0
  -21.8826   -3.8109   23.4332 C   0  0  0  0  0  0
  -21.9198   -4.6926   22.3382 C   0  0  0  0  0  0
  -22.7767  -13.5175   21.1887 C   0  0  0  0  0  0
  -22.1669   -4.2103   21.0967 F   0  0  0  0  0  0
  -21.5637   -3.4528   25.7725 F   0  0  0  0  0  0
  -29.8937  -13.8963   20.3003 N   0  0  0  0  0  0
  -26.2841  -12.9512   20.3214 N   0  0  0  0  0  0
  -25.9333  -11.6614   20.5685 N   0  0  0  0  0  0
  -22.0403  -12.8174   22.0439 N   0  0  0  0  0  0
  -25.4075  -15.1977   20.4411 N   0  0  0  0  0  0
  -31.7253  -15.1431   20.2701 O   0  0  0  0  0  0
  -21.6652   -6.8844   21.4225 O   0  0  0  0  0  0
  -22.3466  -14.5474   20.6712 O   0  0  0  0  0  0
  -24.6558  -31.8312   23.1753 C   0  0  0  0  0  0
  -25.9277  -32.4632   23.8186 C   0  0  1  0  0  0
  -27.2199  -26.9942   20.1877 C   0  0  0  0  0  0
  -25.5993  -33.8436   24.2113 N   0  0  0  0  0  0
  -23.4673  -30.4435   21.5258 C   0  0  2  0  0  0
  -24.9222  -28.8380   20.1261 C   0  0  0  0  0  0
  -22.7639  -29.4465   22.4831 C   0  0  0  0  0  0
  -18.0313  -28.1402   22.8463 C   0  0  0  0  0  0
  -24.1495  -36.7190   23.2608 C   0  0  0  0  0  0
  -26.0324  -30.6645   21.3890 C   0  0  0  0  0  0
  -26.1074  -29.2540   20.7470 C   0  0  0  0  0  0
  -27.2595  -28.3520   20.7539 C   0  0  0  0  0  0
  -26.0021  -26.7104   19.5348 C   0  0  0  0  0  0
  -24.8873  -27.5813   19.5037 C   0  0  0  0  0  0
  -23.7059  -29.7588   20.1537 C   0  0  0  0  0  0
  -25.4113  -36.2970   24.0305 C   0  0  1  0  0  0
  -20.5933  -28.3734   23.1210 C   0  0  2  0  0  0
  -20.6795  -26.9420   22.5408 C   0  0  0  0  0  0
  -19.5783  -26.6379   21.5208 C   0  0  0  0  0  0
  -18.1962  -26.7944   22.1608 C   0  0  0  0  0  0
  -19.1568  -28.8887   23.2833 C   0  0  0  0  0  0
  -18.9479  -30.1473   23.8874 C   0  0  0  0  0  0
  -17.6474  -30.6597   24.0538 C   0  0  0  0  0  0
  -25.9110  -34.9370   23.5024 C   0  0  0  0  0  0
  -16.5362  -29.9083   23.6331 C   0  0  0  0  0  0
  -16.7289  -28.6494   23.0360 C   0  0  0  0  0  0
  -26.4575  -31.6510   25.0647 C   0  0  0  0  0  0
  -25.3717  -31.3713   26.1311 C   0  0  0  0  0  0
  -27.0412  -30.2889   24.6243 C   0  0  0  0  0  0
  -27.6134  -32.4229   25.7443 C   0  0  0  0  0  0
  -27.5621  -37.1664   24.8401 C   0  0  0  0  0  0
  -21.4318  -29.3038   22.3576 N   0  0  0  0  0  0
  -26.4220  -37.3750   23.9518 N   0  0  0  0  0  0
  -24.7399  -31.0037   22.0858 N   0  0  0  0  0  0
  -23.4225  -28.8022   23.3032 O   0  0  0  0  0  0
  -28.2266  -25.9178   20.1239 O   0  0  0  0  0  0
  -26.5706  -34.8910   22.4611 O   0  0  0  0  0  0
  -23.5644  -32.1219   23.6913 O   0  0  0  0  0  0
  -28.7992  -21.7422   20.2155 C   0  0  0  0  0  0
  -28.7042  -21.1757   18.9562 C   0  0  0  0  0  0
  -29.3572  -19.3010   20.1764 C   0  0  0  0  0  0
  -28.4242  -23.1682   20.8338 C   0  0  0  0  0  0
  -28.1572  -24.6160   20.8670 C   0  0  0  0  0  0
  -30.1187  -17.8352   20.6146 C   0  0  0  0  0  0
  -28.2599  -21.8492   17.6954 C   0  0  0  0  0  0
  -29.0104  -19.7705   18.9528 N   0  0  0  0  0  0
  -29.7558  -16.4428   20.3466 N   0  0  0  0  0  0
  -31.1526  -18.0133   21.2714 O   0  0  0  0  0  0
  -29.2675  -20.5272   20.9592 O   0  0  0  0  0  0
  -31.4651  -12.9273   19.1775 H   0  0  0  0  0  0
  -30.4754  -11.8352   20.1023 H   0  0  0  0  0  0
  -29.8945  -11.7181   17.6592 H   0  0  0  0  0  0
  -29.5874  -13.4360   17.6315 H   0  0  0  0  0  0
  -28.0122  -11.2773   19.0500 H   0  0  0  0  0  0
  -27.4068  -12.3736   17.8316 H   0  0  0  0  0  0
  -27.5344  -14.2461   19.3341 H   0  0  0  0  0  0
  -28.8185  -12.4807   21.4786 H   0  0  0  0  0  0
  -28.3214  -14.1476   21.6809 H   0  0  0  0  0  0
  -25.2756   -9.5699   22.4731 H   0  0  0  0  0  0
  -23.9971   -7.4662   22.7530 H   0  0  0  0  0  0
  -21.0797   -8.8727   19.8993 H   0  0  0  0  0  0
  -22.3667  -10.9607   19.6102 H   0  0  0  0  0  0
  -21.2021   -7.6125   23.9650 H   0  0  0  0  0  0
  -21.1497   -6.0525   25.9051 H   0  0  0  0  0  0
  -22.0605   -2.7567   23.2839 H   0  0  0  0  0  0
  -22.3984  -11.9818   22.4824 H   0  0  0  0  0  0
  -21.1008  -13.1200   22.2600 H   0  0  0  0  0  0
  -24.6488  -15.8495   20.6118 H   0  0  0  0  0  0
  -26.2762  -15.6572   20.2044 H   0  0  0  0  0  0
  -26.7345  -32.5225   23.0910 H   0  0  0  0  0  0
  -25.0163  -33.9539   25.0279 H   0  0  0  0  0  0
  -22.7741  -31.2710   21.3576 H   0  0  0  0  0  0
  -23.3869  -35.9394   23.3024 H   0  0  0  0  0  0
  -24.3651  -36.9078   22.2079 H   0  0  0  0  0  0
  -23.7084  -37.6233   23.6801 H   0  0  0  0  0  0
  -26.1831  -31.4012   20.5983 H   0  0  0  0  0  0
  -26.9044  -30.7405   22.0261 H   0  0  0  0  0  0
  -28.1683  -28.6768   21.2418 H   0  0  0  0  0  0
  -25.8998  -25.7441   19.0626 H   0  0  0  0  0  0
  -23.9825  -27.2552   19.0106 H   0  0  0  0  0  0
  -23.8559  -30.5237   19.3920 H   0  0  0  0  0  0
  -22.8183  -29.2077   19.8371 H   0  0  0  0  0  0
  -25.1261  -36.1724   25.0776 H   0  0  0  0  0  0
  -21.0011  -28.3334   24.1331 H   0  0  0  0  0  0
  -20.5679  -26.2336   23.3631 H   0  0  0  0  0  0
  -21.6664  -26.7422   22.1198 H   0  0  0  0  0  0
  -19.6953  -25.6284   21.1246 H   0  0  0  0  0  0
  -19.6739  -27.3187   20.6736 H   0  0  0  0  0  0
  -17.4223  -26.6664   21.4017 H   0  0  0  0  0  0
  -18.0374  -26.0104   22.9015 H   0  0  0  0  0  0
  -19.7954  -30.7280   24.2262 H   0  0  0  0  0  0
  -17.5025  -31.6283   24.5131 H   0  0  0  0  0  0
  -15.5361  -30.2971   23.7678 H   0  0  0  0  0  0
  -15.8686  -28.0795   22.7110 H   0  0  0  0  0  0
  -24.6019  -30.6930   25.7633 H   0  0  0  0  0  0
  -24.8761  -32.2870   26.4524 H   0  0  0  0  0  0
  -25.7969  -30.9058   27.0209 H   0  0  0  0  0  0
  -26.3015  -29.6617   24.1256 H   0  0  0  0  0  0
  -27.4039  -29.7180   25.4801 H   0  0  0  0  0  0
  -27.8931  -30.4125   23.9554 H   0  0  0  0  0  0
  -27.2820  -33.3616   26.1896 H   0  0  0  0  0  0
  -28.4027  -32.6608   25.0295 H   0  0  0  0  0  0
  -28.0706  -31.8381   26.5435 H   0  0  0  0  0  0
  -28.2312  -38.0266   24.7914 H   0  0  0  0  0  0
  -28.1431  -36.2850   24.5620 H   0  0  0  0  0  0
  -27.2438  -37.0563   25.8784 H   0  0  0  0  0  0
  -20.9561  -29.8692   21.6686 H   0  0  0  0  0  0
  -26.0040  -38.2724   24.1835 H   0  0  0  0  0  0
  -28.1670  -22.8730   21.8414 H   0  0  0  0  0  0
  -27.8088  -24.9154   21.8464 H   0  0  0  0  0  0
  -28.9226  -22.6736   17.4325 H   0  0  0  0  0  0
  -27.2554  -22.2591   17.8022 H   0  0  0  0  0  0
  -28.2433  -21.1612   16.8499 H   0  0  0  0  0  0
  -28.8029  -16.3555   20.0374 H   0  0  0  0  0  0
  1 25  1  0  0  0
  1 30  2  0  0  0
  1 79  1  0  0  0
  2  3  1  0  0  0
  2 25  1  0  0  0
  2 82  1  0  0  0
  2 83  1  0  0  0
  3  4  1  0  0  0
  3 84  1  0  0  0
  3 85  1  0  0  0
  4  5  1  0  0  0
  4 86  1  0  0  0
  4 87  1  0  0  0
  5  6  1  0  0  0
  5 26  1  0  0  0
  5 88  1  0  0  0
  6 25  1  0  0  0
  6 89  1  0  0  0
  6 90  1  0  0  0
  7  8  2  0  0  0
  7 26  1  0  0  0
  7 29  1  0  0  0
  8  9  1  0  0  0
  8 22  1  0  0  0
  9 10  1  0  0  0
  9 27  2  0  0  0
 10 11  2  0  0  0
 10 15  1  0  0  0
 11 12  1  0  0  0
 11 91  1  0  0  0
 12 13  2  0  0  0
 12 92  1  0  0  0
 13 14  1  0  0  0
 13 31  1  0  0  0
 14 15  2  0  0  0
 14 93  1  0  0  0
 15 94  1  0  0  0
 16 17  2  0  0  0
 16 21  1  0  0  0
 16 31  1  0  0  0
 17 18  1  0  0  0
 17 95  1  0  0  0
 18 19  2  0  0  0
 18 96  1  0  0  0
 19 20  1  0  0  0
 19 24  1  0  0  0
 20 21  2  0  0  0
 20 97  1  0  0  0
 21 23  1  0  0  0
 22 28  1  0  0  0
 22 32  2  0  0  0
 26 27  1  0  0  0
 28 98  1  0  0  0
 28 99  1  0  0  0
 29100  1  0  0  0
 29101  1  0  0  0
 33 34  1  0  0  0
 33 66  1  0  0  0
 33 70  2  0  0  0
 34 36  1  0  0  0
 34 59  1  0  0  0
 34102  1  0  0  0
 35 44  2  0  0  0
 35 45  1  0  0  0
 35 68  1  0  0  0
 36 56  1  0  0  0
 36103  1  0  0  0
 37 39  1  0  0  0
 37 47  1  0  0  0
 37 66  1  0  0  0
 37104  1  0  0  0
 38 43  2  0  0  0
 38 46  1  0  0  0
 38 47  1  0  0  0
 39 64  1  0  0  0
 39 67  2  0  0  0
 40 52  1  0  0  0
 40 53  2  0  0  0
 40 58  1  0  0  0
 41105  1  0  0  0
 41106  1  0  0  0
 41107  1  0  0  0
 41 48  1  0  0  0
 42 43  1  0  0  0
 42 66  1  0  0  0
 42108  1  0  0  0
 42109  1  0  0  0
 43 44  1  0  0  0
 44110  1  0  0  0
 45 46  2  0  0  0
 45111  1  0  0  0
 46112  1  0  0  0
 47113  1  0  0  0
 47114  1  0  0  0
 48 56  1  0  0  0
 48 65  1  0  0  0
 48115  1  0  0  0
 49 50  1  0  0  0
 49 53  1  0  0  0
 49 64  1  0  0  0
 49116  1  0  0  0
 50 51  1  0  0  0
 50117  1  0  0  0
 50118  1  0  0  0
 51 52  1  0  0  0
 51119  1  0  0  0
 51120  1  0  0  0
 52121  1  0  0  0
 52122  1  0  0  0
 53 54  1  0  0  0
 54 55  2  0  0  0
 54123  1  0  0  0
 55 57  1  0  0  0
 55124  1  0  0  0
 56 69  2  0  0  0
 57 58  2  0  0  0
 57125  1  0  0  0
 58126  1  0  0  0
 59 60  1  0  0  0
 59 61  1  0  0  0
 59 62  1  0  0  0
 60127  1  0  0  0
 60128  1  0  0  0
 60129  1  0  0  0
 61130  1  0  0  0
 61131  1  0  0  0
 61132  1  0  0  0
 62133  1  0  0  0
 62134  1  0  0  0
 62135  1  0  0  0
 63 65  1  0  0  0
 63136  1  0  0  0
 63137  1  0  0  0
 63138  1  0  0  0
 64139  1  0  0  0
 65140  1  0  0  0
 68 75  1  0  0  0
 71 72  2  0  0  0
 71 74  1  0  0  0
 71 81  1  0  0  0
 72 77  1  0  0  0
 72 78  1  0  0  0
 73 76  1  0  0  0
 73 78  2  0  0  0
 73 81  1  0  0  0
 74 75  2  0  0  0
 74141  1  0  0  0
 75142  1  0  0  0
 76 79  1  0  0  0
 76 80  2  0  0  0
 77143  1  0  0  0
 77144  1  0  0  0
 77145  1  0  0  0
 79146  1  0  0  0
M  ISO  4   1 100  68 101  75 101  79 100
M  END
> <chiral flag>
0

> <version>
0

> <s_m_source_file>
/data/baiqing/PycharmProjects/Reinvent-master-3.2/result/LINK_invent/BTK/process_docking_weight1_custom_product_contain_oxygen_bond_distance_aromatic_linkinvent_7_9_3/rearranged_h_0111.sdf

> <i_m_source_file_index>
32

> <r_mmod_Potential_Energy-OPLS-2005>
974.017272949219

> <r_mmod_Stretch_Energy-OPLS-2005>
408.986541748047

> <r_mmod_Bend_Energy-OPLS-2005>
452.830230712891

> <r_mmod_Torsional_Energy-OPLS-2005>
267.582916259766

> <r_mmod_Improper_Torsional_Energy-OPLS-2005>
9.13401794433594

> <r_mmod_Van_der_Waal_Energy-OPLS-2005>
106.883819580078

> <r_mmod_Electrostatic_Energy-OPLS-2005>
-395.852569580078

> <r_mmod_Solvation_Energy-OPLS-2005>
-240.998001098633

> <b_mmod_Minimization_Converged-OPLS-2005>
0

> <r_mmod_RMS_Derivative-OPLS-2005>
2.5914785861969

$$$$
33
                    3D
 Structure written by MMmdl.
159167  0  0  1  0            999 V2000
  -30.7050  -14.5393   20.6200 C   0  0  0  0  0  0
  -30.4193  -12.3777   19.4126 C   0  0  0  0  0  0
  -29.4686  -12.5335   18.2060 C   0  0  0  0  0  0
  -27.9970  -12.3812   18.6342 C   0  0  0  0  0  0
  -27.6586  -13.2078   19.9042 C   0  0  2  0  0  0
  -28.7179  -12.9771   21.0079 C   0  0  0  0  0  0
  -25.2439  -13.8036   20.5566 C   0  0  0  0  0  0
  -24.1702  -13.0315   20.9042 C   0  0  0  0  0  0
  -24.6335  -11.6823   20.8717 C   0  0  0  0  0  0
  -23.9002  -10.4206   21.0381 C   0  0  0  0  0  0
  -24.3570   -9.4156   21.9183 C   0  0  0  0  0  0
  -23.6250   -8.2201   22.0769 C   0  0  0  0  0  0
  -22.4244   -8.0236   21.3540 C   0  0  0  0  0  0
  -21.9861   -9.0190   20.4646 C   0  0  0  0  0  0
  -22.7173  -10.2063   20.3042 C   0  0  0  0  0  0
  -21.6839   -6.0714   22.5283 C   0  0  0  0  0  0
  -21.4017   -6.5630   23.8214 C   0  0  0  0  0  0
  -21.3658   -5.6781   24.9175 C   0  0  0  0  0  0
  -21.6045   -4.3042   24.7223 C   0  0  0  0  0  0
  -21.8825   -3.8132   23.4347 C   0  0  0  0  0  0
  -21.9189   -4.6945   22.3402 C   0  0  0  0  0  0
  -22.7752  -13.5151   21.1756 C   0  0  0  0  0  0
  -22.1660   -4.2139   21.0970 F   0  0  0  0  0  0
  -21.5623   -3.4533   25.7733 F   0  0  0  0  0  0
  -30.0279  -13.3537   20.4540 N   0  0  0  0  0  0
  -26.3002  -12.9279   20.3627 N   0  0  0  0  0  0
  -25.9317  -11.6419   20.5964 N   0  0  0  0  0  0
  -22.0441  -12.8172   22.0386 N   0  0  0  0  0  0
  -25.4046  -15.1698   20.3858 N   0  0  0  0  0  0
  -31.7416  -14.7806   19.9907 O   0  0  0  0  0  0
  -21.6617   -6.8835   21.4236 O   0  0  0  0  0  0
  -22.3455  -14.5492   20.6690 O   0  0  0  0  0  0
  -24.6160  -31.8624   23.2048 C   0  0  0  0  0  0
  -25.9022  -32.4803   23.8357 C   0  0  1  0  0  0
  -27.2487  -27.3811   20.1193 C   0  0  0  0  0  0
  -25.5819  -33.8603   24.2245 N   0  0  0  0  0  0
  -23.4084  -30.4811   21.5489 C   0  0  2  0  0  0
  -24.8635  -28.9362   20.1193 C   0  0  0  0  0  0
  -22.7416  -29.4615   22.5002 C   0  0  0  0  0  0
  -18.0242  -28.1351   22.8489 C   0  0  0  0  0  0
  -24.1491  -36.7350   23.2643 C   0  0  0  0  0  0
  -25.9412  -30.8150   21.3636 C   0  0  0  0  0  0
  -26.0262  -29.4426   20.7161 C   0  0  0  0  0  0
  -27.2234  -28.6764   20.7059 C   0  0  0  0  0  0
  -26.0696  -26.9030   19.5103 C   0  0  0  0  0  0
  -24.8843  -27.6676   19.5095 C   0  0  0  0  0  0
  -23.6215  -29.8046   20.1688 C   0  0  0  0  0  0
  -25.4109  -36.3108   24.0324 C   0  0  1  0  0  0
  -20.5833  -28.3646   23.1329 C   0  0  2  0  0  0
  -20.6749  -26.9383   22.5428 C   0  0  0  0  0  0
  -19.5739  -26.6366   21.5204 C   0  0  0  0  0  0
  -18.1915  -26.7900   22.1616 C   0  0  0  0  0  0
  -19.1492  -28.8809   23.2900 C   0  0  0  0  0  0
  -18.9448  -30.1414   23.8914 C   0  0  0  0  0  0
  -17.6464  -30.6584   24.0541 C   0  0  0  0  0  0
  -25.9033  -34.9479   23.5106 C   0  0  0  0  0  0
  -16.5337  -29.9089   23.6326 C   0  0  0  0  0  0
  -16.7235  -28.6491   23.0363 C   0  0  0  0  0  0
  -26.4422  -31.6605   25.0716 C   0  0  0  0  0  0
  -25.3649  -31.3750   26.1443 C   0  0  0  0  0  0
  -27.0263  -30.3040   24.6107 C   0  0  0  0  0  0
  -27.5964  -32.4357   25.7484 C   0  0  0  0  0  0
  -27.5594  -37.1807   24.8432 C   0  0  0  0  0  0
  -21.4130  -29.3025   22.3759 N   0  0  0  0  0  0
  -26.4286  -37.3790   23.9403 N   0  0  0  0  0  0
  -24.6741  -31.0662   22.0989 N   0  0  0  0  0  0
  -23.4173  -28.8171   23.3065 O   0  0  0  0  0  0
  -28.4005  -26.6026   20.0875 O   0  0  0  0  0  0
  -26.5658  -34.8945   22.4706 O   0  0  0  0  0  0
  -23.5333  -32.1365   23.7420 O   0  0  0  0  0  0
  -30.0541  -18.0267   21.0143 C   0  0  0  0  0  0
  -27.3628  -18.0540   21.7293 C   0  0  0  0  0  0
  -29.4670  -16.7899   21.4542 C   0  0  0  0  0  0
  -28.0936  -16.8543   21.8281 C   0  0  0  0  0  0
  -29.3327  -19.2712   20.9589 C   0  0  0  0  0  0
  -27.9715  -19.2703   21.3560 C   0  0  0  0  0  0
  -28.8233  -24.0768   20.0892 C   0  0  0  0  0  0
  -28.9673  -22.8264   20.6277 C   0  0  0  0  0  0
  -30.2833  -15.5236   21.7419 C   0  0  0  0  0  0
  -26.2036  -20.5824   22.3342 C   0  0  0  0  0  0
  -28.3908  -25.3590   20.8494 C   0  0  0  0  0  0
  -29.3197  -21.5194   19.8656 C   0  0  0  0  0  0
  -30.6540  -15.2919   22.9355 N   0  0  0  0  0  0
  -27.4113  -15.7766   22.3980 N   0  0  0  0  0  0
  -27.2873  -20.4666   21.4192 O   0  0  0  0  0  0
  -29.9932  -20.4652   20.6244 O   0  0  0  0  0  0
  -31.4522  -12.5084   19.0851 H   0  0  0  0  0  0
  -30.3657  -11.3631   19.8118 H   0  0  0  0  0  0
  -29.7060  -11.7989   17.4359 H   0  0  0  0  0  0
  -29.6126  -13.5129   17.7476 H   0  0  0  0  0  0
  -27.8037  -11.3225   18.8141 H   0  0  0  0  0  0
  -27.3336  -12.6693   17.8184 H   0  0  0  0  0  0
  -27.7002  -14.2615   19.6295 H   0  0  0  0  0  0
  -28.7306  -11.9235   21.2955 H   0  0  0  0  0  0
  -28.4769  -13.5056   21.9247 H   0  0  0  0  0  0
  -25.2715   -9.5663   22.4754 H   0  0  0  0  0  0
  -23.9962   -7.4611   22.7517 H   0  0  0  0  0  0
  -21.0788   -8.8671   19.8958 H   0  0  0  0  0  0
  -22.3613  -10.9582   19.6150 H   0  0  0  0  0  0
  -21.2029   -7.6147   23.9712 H   0  0  0  0  0  0
  -21.1478   -6.0521   25.9081 H   0  0  0  0  0  0
  -22.0613   -2.7604   23.2845 H   0  0  0  0  0  0
  -22.4013  -11.9748   22.4623 H   0  0  0  0  0  0
  -21.1170  -13.1333   22.2825 H   0  0  0  0  0  0
  -24.6083  -15.7066   20.7070 H   0  0  0  0  0  0
  -26.2591  -15.4791   20.8572 H   0  0  0  0  0  0
  -26.7108  -32.5506   23.1134 H   0  0  0  0  0  0
  -24.9795  -33.9724   25.0270 H   0  0  0  0  0  0
  -22.6955  -31.2953   21.4048 H   0  0  0  0  0  0
  -23.3735  -35.9702   23.3267 H   0  0  0  0  0  0
  -24.3576  -36.9019   22.2060 H   0  0  0  0  0  0
  -23.7282  -37.6554   23.6709 H   0  0  0  0  0  0
  -26.0387  -31.5744   20.5871 H   0  0  0  0  0  0
  -26.8312  -30.8841   21.9764 H   0  0  0  0  0  0
  -28.1244  -29.0645   21.1605 H   0  0  0  0  0  0
  -26.0683  -25.9353   19.0298 H   0  0  0  0  0  0
  -23.9927  -27.2713   19.0410 H   0  0  0  0  0  0
  -23.7155  -30.5696   19.3986 H   0  0  0  0  0  0
  -22.7457  -29.2139   19.8909 H   0  0  0  0  0  0
  -25.1295  -36.1958   25.0815 H   0  0  0  0  0  0
  -20.9868  -28.3214   24.1462 H   0  0  0  0  0  0
  -20.5623  -26.2254   23.3606 H   0  0  0  0  0  0
  -21.6643  -26.7428   22.1252 H   0  0  0  0  0  0
  -19.6911  -25.6272   21.1244 H   0  0  0  0  0  0
  -19.6694  -27.3160   20.6727 H   0  0  0  0  0  0
  -17.4182  -26.6596   21.4023 H   0  0  0  0  0  0
  -18.0330  -26.0020   22.8998 H   0  0  0  0  0  0
  -19.7932  -30.7184   24.2314 H   0  0  0  0  0  0
  -17.5047  -31.6274   24.5136 H   0  0  0  0  0  0
  -15.5351  -30.3019   23.7664 H   0  0  0  0  0  0
  -15.8612  -28.0831   22.7102 H   0  0  0  0  0  0
  -24.5784  -30.7142   25.7761 H   0  0  0  0  0  0
  -24.8879  -32.2935   26.4882 H   0  0  0  0  0  0
  -25.7961  -30.8895   27.0206 H   0  0  0  0  0  0
  -26.2840  -29.6800   24.1107 H   0  0  0  0  0  0
  -27.3954  -29.7268   25.4594 H   0  0  0  0  0  0
  -27.8702  -30.4333   23.9322 H   0  0  0  0  0  0
  -27.2538  -33.3639   26.2071 H   0  0  0  0  0  0
  -28.3770  -32.6942   25.0322 H   0  0  0  0  0  0
  -28.0628  -31.8479   26.5383 H   0  0  0  0  0  0
  -28.2552  -38.0161   24.7557 H   0  0  0  0  0  0
  -28.1156  -36.2699   24.6170 H   0  0  0  0  0  0
  -27.2307  -37.1338   25.8824 H   0  0  0  0  0  0
  -20.9279  -29.8795   21.7029 H   0  0  0  0  0  0
  -26.0173  -38.2866   24.1431 H   0  0  0  0  0  0
  -31.1057  -18.0309   20.7680 H   0  0  0  0  0  0
  -26.3231  -18.0477   22.0154 H   0  0  0  0  0  0
  -29.0018  -24.2141   19.0321 H   0  0  0  0  0  0
  -28.7842  -22.6952   21.6852 H   0  0  0  0  0  0
  -25.9453  -21.6370   22.4492 H   0  0  0  0  0  0
  -26.4677  -20.2063   23.3238 H   0  0  0  0  0  0
  -25.3159  -20.0605   21.9794 H   0  0  0  0  0  0
  -29.0844  -25.4951   21.6782 H   0  0  0  0  0  0
  -27.4134  -25.1821   21.3011 H   0  0  0  0  0  0
  -29.9760  -21.7893   19.0378 H   0  0  0  0  0  0
  -28.4179  -21.1342   19.3866 H   0  0  0  0  0  0
  -30.3333  -16.0232   23.5587 H   0  0  0  0  0  0
  -26.5780  -16.0124   22.9281 H   0  0  0  0  0  0
  -27.9744  -15.1091   22.9133 H   0  0  0  0  0  0
  1 25  1  0  0  0
  1 30  2  0  0  0
  1 79  1  0  0  0
  2  3  1  0  0  0
  2 25  1  0  0  0
  2 87  1  0  0  0
  2 88  1  0  0  0
  3  4  1  0  0  0
  3 89  1  0  0  0
  3 90  1  0  0  0
  4  5  1  0  0  0
  4 91  1  0  0  0
  4 92  1  0  0  0
  5  6  1  0  0  0
  5 26  1  0  0  0
  5 93  1  0  0  0
  6 25  1  0  0  0
  6 94  1  0  0  0
  6 95  1  0  0  0
  7  8  2  0  0  0
  7 26  1  0  0  0
  7 29  1  0  0  0
  8  9  1  0  0  0
  8 22  1  0  0  0
  9 10  1  0  0  0
  9 27  2  0  0  0
 10 11  2  0  0  0
 10 15  1  0  0  0
 11 12  1  0  0  0
 11 96  1  0  0  0
 12 13  2  0  0  0
 12 97  1  0  0  0
 13 14  1  0  0  0
 13 31  1  0  0  0
 14 15  2  0  0  0
 14 98  1  0  0  0
 15 99  1  0  0  0
 16 17  2  0  0  0
 16 21  1  0  0  0
 16 31  1  0  0  0
 17 18  1  0  0  0
 17100  1  0  0  0
 18 19  2  0  0  0
 18101  1  0  0  0
 19 20  1  0  0  0
 19 24  1  0  0  0
 20 21  2  0  0  0
 20102  1  0  0  0
 21 23  1  0  0  0
 22 28  1  0  0  0
 22 32  2  0  0  0
 26 27  1  0  0  0
 28103  1  0  0  0
 28104  1  0  0  0
 29105  1  0  0  0
 29106  1  0  0  0
 33 34  1  0  0  0
 33 66  1  0  0  0
 33 70  2  0  0  0
 34 36  1  0  0  0
 34 59  1  0  0  0
 34107  1  0  0  0
 35 44  2  0  0  0
 35 45  1  0  0  0
 35 68  1  0  0  0
 36 56  1  0  0  0
 36108  1  0  0  0
 37 39  1  0  0  0
 37 47  1  0  0  0
 37 66  1  0  0  0
 37109  1  0  0  0
 38 43  2  0  0  0
 38 46  1  0  0  0
 38 47  1  0  0  0
 39 64  1  0  0  0
 39 67  2  0  0  0
 40 52  1  0  0  0
 40 53  2  0  0  0
 40 58  1  0  0  0
 41110  1  0  0  0
 41111  1  0  0  0
 41112  1  0  0  0
 41 48  1  0  0  0
 42 43  1  0  0  0
 42 66  1  0  0  0
 42113  1  0  0  0
 42114  1  0  0  0
 43 44  1  0  0  0
 44115  1  0  0  0
 45 46  2  0  0  0
 45116  1  0  0  0
 46117  1  0  0  0
 47118  1  0  0  0
 47119  1  0  0  0
 48 56  1  0  0  0
 48 65  1  0  0  0
 48120  1  0  0  0
 49 50  1  0  0  0
 49 53  1  0  0  0
 49 64  1  0  0  0
 49121  1  0  0  0
 50 51  1  0  0  0
 50122  1  0  0  0
 50123  1  0  0  0
 51 52  1  0  0  0
 51124  1  0  0  0
 51125  1  0  0  0
 52126  1  0  0  0
 52127  1  0  0  0
 53 54  1  0  0  0
 54 55  2  0  0  0
 54128  1  0  0  0
 55 57  1  0  0  0
 55129  1  0  0  0
 56 69  2  0  0  0
 57 58  2  0  0  0
 57130  1  0  0  0
 58131  1  0  0  0
 59 60  1  0  0  0
 59 61  1  0  0  0
 59 62  1  0  0  0
 60132  1  0  0  0
 60133  1  0  0  0
 60134  1  0  0  0
 61135  1  0  0  0
 61136  1  0  0  0
 61137  1  0  0  0
 62138  1  0  0  0
 62139  1  0  0  0
 62140  1  0  0  0
 63 65  1  0  0  0
 63141  1  0  0  0
 63142  1  0  0  0
 63143  1  0  0  0
 64144  1  0  0  0
 65145  1  0  0  0
 68 81  1  0  0  0
 71 73  2  0  0  0
 71 75  1  0  0  0
 71146  1  0  0  0
 72 74  2  0  0  0
 72 76  1  0  0  0
 72147  1  0  0  0
 73 74  1  0  0  0
 73 79  1  0  0  0
 74 84  1  0  0  0
 75 76  2  0  0  0
 75 86  1  0  0  0
 76 85  1  0  0  0
 77 78  2  0  0  0
 77 81  1  0  0  0
 77148  1  0  0  0
 78 82  1  0  0  0
 78149  1  0  0  0
 79 83  2  0  0  0
 80 85  1  0  0  0
 80150  1  0  0  0
 80151  1  0  0  0
 80152  1  0  0  0
 81153  1  0  0  0
 81154  1  0  0  0
 82 86  1  0  0  0
 82155  1  0  0  0
 82156  1  0  0  0
 83157  1  0  0  0
 84158  1  0  0  0
 84159  1  0  0  0
M  ISO  4   1 100  68 101  79 100  81 101
M  END
> <chiral flag>
0

> <version>
0

> <s_m_source_file>
/data/baiqing/PycharmProjects/Reinvent-master-3.2/result/LINK_invent/BTK/process_docking_weight1_custom_product_contain_oxygen_bond_distance_aromatic_linkinvent_7_9_3/rearranged_h_0111.sdf

> <i_m_source_file_index>
33

> <r_mmod_Potential_Energy-OPLS-2005>
264.798553466797

> <r_mmod_Stretch_Energy-OPLS-2005>
71.5825729370117

> <r_mmod_Bend_Energy-OPLS-2005>
133.580413818359

> <r_mmod_Torsional_Energy-OPLS-2005>
298.630401611328

> <r_mmod_Improper_Torsional_Energy-OPLS-2005>
15.8147506713867

> <r_mmod_Van_der_Waal_Energy-OPLS-2005>
153.560485839844

> <r_mmod_Electrostatic_Energy-OPLS-2005>
-223.421920776367

> <r_mmod_Solvation_Energy-OPLS-2005>
-207.060913085938

> <b_mmod_Minimization_Converged-OPLS-2005>
0

> <r_mmod_RMS_Derivative-OPLS-2005>
3.72290062904358

$$$$
34
                    3D
 Structure written by MMmdl.
160168  0  0  1  0            999 V2000
  -30.7524  -14.4073   20.5917 C   0  0  0  0  0  0
  -30.4164  -12.2683   19.4159 C   0  0  0  0  0  0
  -29.4906  -12.4888   18.2032 C   0  0  0  0  0  0
  -28.0123  -12.3395   18.6154 C   0  0  0  0  0  0
  -27.6545  -13.1820   19.8666 C   0  0  2  0  0  0
  -28.7023  -12.9782   20.9884 C   0  0  0  0  0  0
  -25.2604  -13.8094   20.5682 C   0  0  0  0  0  0
  -24.1836  -13.0405   20.9193 C   0  0  0  0  0  0
  -24.6361  -11.6868   20.8754 C   0  0  0  0  0  0
  -23.9029  -10.4271   21.0422 C   0  0  0  0  0  0
  -24.3593   -9.4187   21.9192 C   0  0  0  0  0  0
  -23.6269   -8.2225   22.0758 C   0  0  0  0  0  0
  -22.4252   -8.0272   21.3548 C   0  0  0  0  0  0
  -21.9888   -9.0244   20.4652 C   0  0  0  0  0  0
  -22.7213  -10.2122   20.3060 C   0  0  0  0  0  0
  -21.6844   -6.0728   22.5280 C   0  0  0  0  0  0
  -21.4012   -6.5636   23.8214 C   0  0  0  0  0  0
  -21.3657   -5.6790   24.9177 C   0  0  0  0  0  0
  -21.6041   -4.3052   24.7228 C   0  0  0  0  0  0
  -21.8821   -3.8144   23.4350 C   0  0  0  0  0  0
  -21.9190   -4.6957   22.3406 C   0  0  0  0  0  0
  -22.7871  -13.5238   21.1853 C   0  0  0  0  0  0
  -22.1659   -4.2146   21.0981 F   0  0  0  0  0  0
  -21.5626   -3.4538   25.7742 F   0  0  0  0  0  0
  -30.0431  -13.2522   20.4401 N   0  0  0  0  0  0
  -26.2991  -12.9197   20.3341 N   0  0  0  0  0  0
  -25.9265  -11.6389   20.5765 N   0  0  0  0  0  0
  -22.0492  -12.8238   22.0405 N   0  0  0  0  0  0
  -25.4282  -15.1814   20.4105 N   0  0  0  0  0  0
  -31.8841  -14.5472   20.1295 O   0  0  0  0  0  0
  -21.6623   -6.8867   21.4243 O   0  0  0  0  0  0
  -22.3575  -14.5549   20.6702 O   0  0  0  0  0  0
  -24.6088  -31.8729   23.2171 C   0  0  0  0  0  0
  -25.8998  -32.4850   23.8445 C   0  0  1  0  0  0
  -27.2364  -27.4820   20.0690 C   0  0  0  0  0  0
  -25.5872  -33.8649   24.2370 N   0  0  0  0  0  0
  -23.3935  -30.4996   21.5575 C   0  0  2  0  0  0
  -24.8362  -28.9732   20.1211 C   0  0  0  0  0  0
  -22.7370  -29.4684   22.5026 C   0  0  0  0  0  0
  -18.0258  -28.1355   22.8504 C   0  0  0  0  0  0
  -24.1477  -36.7336   23.2641 C   0  0  0  0  0  0
  -25.9203  -30.8485   21.3668 C   0  0  0  0  0  0
  -25.9952  -29.4867   20.7143 C   0  0  0  0  0  0
  -27.1934  -28.7439   20.6956 C   0  0  0  0  0  0
  -26.0484  -26.9686   19.4900 C   0  0  0  0  0  0
  -24.8531  -27.7073   19.5163 C   0  0  0  0  0  0
  -23.5981  -29.8365   20.1707 C   0  0  0  0  0  0
  -25.4094  -36.3134   24.0345 C   0  0  1  0  0  0
  -20.5840  -28.3646   23.1336 C   0  0  2  0  0  0
  -20.6746  -26.9396   22.5409 C   0  0  0  0  0  0
  -19.5728  -26.6381   21.5204 C   0  0  0  0  0  0
  -18.1905  -26.7906   22.1622 C   0  0  0  0  0  0
  -19.1504  -28.8817   23.2915 C   0  0  0  0  0  0
  -18.9437  -30.1420   23.8932 C   0  0  0  0  0  0
  -17.6444  -30.6575   24.0560 C   0  0  0  0  0  0
  -25.9014  -34.9494   23.5154 C   0  0  0  0  0  0
  -16.5333  -29.9083   23.6312 C   0  0  0  0  0  0
  -16.7247  -28.6484   23.0361 C   0  0  0  0  0  0
  -26.4453  -31.6615   25.0752 C   0  0  0  0  0  0
  -25.3740  -31.3690   26.1516 C   0  0  0  0  0  0
  -27.0278  -30.3061   24.6101 C   0  0  0  0  0  0
  -27.6046  -32.4338   25.7495 C   0  0  0  0  0  0
  -27.5575  -37.1823   24.8467 C   0  0  0  0  0  0
  -21.4105  -29.3028   22.3756 N   0  0  0  0  0  0
  -26.4293  -37.3804   23.9403 N   0  0  0  0  0  0
  -24.6592  -31.0863   22.1058 N   0  0  0  0  0  0
  -23.4162  -28.8207   23.3041 O   0  0  0  0  0  0
  -28.4461  -26.8204   20.0416 O   0  0  0  0  0  0
  -26.5574  -34.8932   22.4713 O   0  0  0  0  0  0
  -23.5289  -32.1482   23.7581 O   0  0  0  0  0  0
  -28.6534  -19.6767   21.0462 C   0  0  0  0  0  0
  -29.1947  -18.3914   21.1695 C   0  0  0  0  0  0
  -27.6112  -19.8797   20.1198 C   0  0  0  0  0  0
  -28.6834  -17.3683   20.3518 C   0  0  0  0  0  0
  -27.0784  -18.7703   19.4320 C   0  0  0  0  0  0
  -29.3950  -16.0948   20.2149 C   0  0  0  0  0  0
  -27.9632  -22.0440   19.1446 C   0  0  0  0  0  0
  -24.5543  -18.7095   19.1721 C   0  0  0  0  0  0
  -25.9055  -18.8923   18.4697 C   0  0  0  0  0  0
  -27.4109  -23.4335   18.8913 C   0  0  0  0  0  0
  -28.0190  -24.4452   19.8773 C   0  0  0  0  0  0
  -28.5745  -25.6962   19.1830 C   0  0  0  0  0  0
  -27.6043  -17.5368   19.5539 N   0  0  0  0  0  0
  -30.0695  -15.4866   21.1128 N   0  0  0  0  0  0
  -27.1892  -21.1908   19.8259 N   0  0  0  0  0  0
  -29.0901  -21.7544   18.7343 O   0  0  0  0  0  0
  -31.4623  -12.3437   19.1126 H   0  0  0  0  0  0
  -30.2967  -11.2576   19.8095 H   0  0  0  0  0  0
  -29.7299  -11.7736   17.4151 H   0  0  0  0  0  0
  -29.6614  -13.4790   17.7788 H   0  0  0  0  0  0
  -27.8304  -11.2834   18.8192 H   0  0  0  0  0  0
  -27.3591  -12.6042   17.7831 H   0  0  0  0  0  0
  -27.6688  -14.2161   19.5414 H   0  0  0  0  0  0
  -28.6669  -11.9511   21.3546 H   0  0  0  0  0  0
  -28.4735  -13.6036   21.8526 H   0  0  0  0  0  0
  -25.2739   -9.5662   22.4766 H   0  0  0  0  0  0
  -23.9981   -7.4614   22.7471 H   0  0  0  0  0  0
  -21.0822   -8.8763   19.8956 H   0  0  0  0  0  0
  -22.3676  -10.9667   19.6171 H   0  0  0  0  0  0
  -21.2007   -7.6143   23.9721 H   0  0  0  0  0  0
  -21.1475   -6.0517   25.9081 H   0  0  0  0  0  0
  -22.0602   -2.7606   23.2851 H   0  0  0  0  0  0
  -22.4090  -11.9890   22.4794 H   0  0  0  0  0  0
  -21.1119  -13.1292   22.2619 H   0  0  0  0  0  0
  -24.6482  -15.8167   20.5288 H   0  0  0  0  0  0
  -26.2637  -15.6527   20.0784 H   0  0  0  0  0  0
  -26.7066  -32.5569   23.1214 H   0  0  0  0  0  0
  -25.0017  -33.9834   25.0508 H   0  0  0  0  0  0
  -22.6810  -31.3166   21.4238 H   0  0  0  0  0  0
  -23.3724  -35.9685   23.3342 H   0  0  0  0  0  0
  -24.3564  -36.8907   22.2047 H   0  0  0  0  0  0
  -23.7257  -37.6567   23.6629 H   0  0  0  0  0  0
  -26.0291  -31.6172   20.6002 H   0  0  0  0  0  0
  -26.8100  -30.9004   21.9825 H   0  0  0  0  0  0
  -28.0929  -29.1453   21.1413 H   0  0  0  0  0  0
  -26.0153  -26.0039   19.0081 H   0  0  0  0  0  0
  -23.9586  -27.3003   19.0653 H   0  0  0  0  0  0
  -23.7045  -30.6154   19.4150 H   0  0  0  0  0  0
  -22.7218  -29.2573   19.8727 H   0  0  0  0  0  0
  -25.1268  -36.2023   25.0840 H   0  0  0  0  0  0
  -20.9929  -28.3205   24.1457 H   0  0  0  0  0  0
  -20.5635  -26.2264   23.3592 H   0  0  0  0  0  0
  -21.6623  -26.7432   22.1219 H   0  0  0  0  0  0
  -19.6894  -25.6298   21.1228 H   0  0  0  0  0  0
  -19.6663  -27.3195   20.6738 H   0  0  0  0  0  0
  -17.4177  -26.6654   21.4025 H   0  0  0  0  0  0
  -18.0312  -26.0028   22.9001 H   0  0  0  0  0  0
  -19.7911  -30.7208   24.2343 H   0  0  0  0  0  0
  -17.5005  -31.6266   24.5140 H   0  0  0  0  0  0
  -15.5337  -30.3004   23.7613 H   0  0  0  0  0  0
  -15.8637  -28.0803   22.7094 H   0  0  0  0  0  0
  -24.5909  -30.7039   25.7859 H   0  0  0  0  0  0
  -24.8929  -32.2827   26.5017 H   0  0  0  0  0  0
  -25.8116  -30.8833   27.0245 H   0  0  0  0  0  0
  -26.2809  -29.6831   24.1165 H   0  0  0  0  0  0
  -27.4065  -29.7285   25.4543 H   0  0  0  0  0  0
  -27.8643  -30.4385   23.9233 H   0  0  0  0  0  0
  -27.2675  -33.3620   26.2117 H   0  0  0  0  0  0
  -28.3820  -32.6926   25.0295 H   0  0  0  0  0  0
  -28.0755  -31.8440   26.5366 H   0  0  0  0  0  0
  -28.2623  -38.0091   24.7480 H   0  0  0  0  0  0
  -28.1041  -36.2623   24.6336 H   0  0  0  0  0  0
  -27.2288  -37.1533   25.8871 H   0  0  0  0  0  0
  -20.9254  -29.8781   21.7011 H   0  0  0  0  0  0
  -26.0195  -38.2893   24.1378 H   0  0  0  0  0  0
  -29.0781  -20.5034   21.5973 H   0  0  0  0  0  0
  -30.0519  -18.2171   21.8046 H   0  0  0  0  0  0
  -29.3286  -15.6988   19.1933 H   0  0  0  0  0  0
  -23.7317  -18.7797   18.4608 H   0  0  0  0  0  0
  -24.4017  -19.4710   19.9366 H   0  0  0  0  0  0
  -24.4921  -17.7365   19.6567 H   0  0  0  0  0  0
  -26.0090  -18.1413   17.6858 H   0  0  0  0  0  0
  -25.9341  -19.8541   17.9579 H   0  0  0  0  0  0
  -26.3214  -23.4381   18.9524 H   0  0  0  0  0  0
  -27.6561  -23.6934   17.8610 H   0  0  0  0  0  0
  -28.8195  -24.0069   20.4773 H   0  0  0  0  0  0
  -27.2494  -24.7134   20.6010 H   0  0  0  0  0  0
  -28.1015  -25.8913   18.2187 H   0  0  0  0  0  0
  -29.6313  -25.5493   18.9578 H   0  0  0  0  0  0
  -26.2410  -21.4612   20.0551 H   0  0  0  0  0  0
  1 25  1  0  0  0
  1 30  2  0  0  0
  1 84  1  0  0  0
  2  3  1  0  0  0
  2 25  1  0  0  0
  2 87  1  0  0  0
  2 88  1  0  0  0
  3  4  1  0  0  0
  3 89  1  0  0  0
  3 90  1  0  0  0
  4  5  1  0  0  0
  4 91  1  0  0  0
  4 92  1  0  0  0
  5  6  1  0  0  0
  5 26  1  0  0  0
  5 93  1  0  0  0
  6 25  1  0  0  0
  6 94  1  0  0  0
  6 95  1  0  0  0
  7  8  2  0  0  0
  7 26  1  0  0  0
  7 29  1  0  0  0
  8  9  1  0  0  0
  8 22  1  0  0  0
  9 10  1  0  0  0
  9 27  2  0  0  0
 10 11  2  0  0  0
 10 15  1  0  0  0
 11 12  1  0  0  0
 11 96  1  0  0  0
 12 13  2  0  0  0
 12 97  1  0  0  0
 13 14  1  0  0  0
 13 31  1  0  0  0
 14 15  2  0  0  0
 14 98  1  0  0  0
 15 99  1  0  0  0
 16 17  2  0  0  0
 16 21  1  0  0  0
 16 31  1  0  0  0
 17 18  1  0  0  0
 17100  1  0  0  0
 18 19  2  0  0  0
 18101  1  0  0  0
 19 20  1  0  0  0
 19 24  1  0  0  0
 20 21  2  0  0  0
 20102  1  0  0  0
 21 23  1  0  0  0
 22 28  1  0  0  0
 22 32  2  0  0  0
 26 27  1  0  0  0
 28103  1  0  0  0
 28104  1  0  0  0
 29105  1  0  0  0
 29106  1  0  0  0
 33 34  1  0  0  0
 33 66  1  0  0  0
 33 70  2  0  0  0
 34 36  1  0  0  0
 34 59  1  0  0  0
 34107  1  0  0  0
 35 44  2  0  0  0
 35 45  1  0  0  0
 35 68  1  0  0  0
 36 56  1  0  0  0
 36108  1  0  0  0
 37 39  1  0  0  0
 37 47  1  0  0  0
 37 66  1  0  0  0
 37109  1  0  0  0
 38 43  2  0  0  0
 38 46  1  0  0  0
 38 47  1  0  0  0
 39 64  1  0  0  0
 39 67  2  0  0  0
 40 52  1  0  0  0
 40 53  2  0  0  0
 40 58  1  0  0  0
 41110  1  0  0  0
 41111  1  0  0  0
 41112  1  0  0  0
 41 48  1  0  0  0
 42 43  1  0  0  0
 42 66  1  0  0  0
 42113  1  0  0  0
 42114  1  0  0  0
 43 44  1  0  0  0
 44115  1  0  0  0
 45 46  2  0  0  0
 45116  1  0  0  0
 46117  1  0  0  0
 47118  1  0  0  0
 47119  1  0  0  0
 48 56  1  0  0  0
 48 65  1  0  0  0
 48120  1  0  0  0
 49 50  1  0  0  0
 49 53  1  0  0  0
 49 64  1  0  0  0
 49121  1  0  0  0
 50 51  1  0  0  0
 50122  1  0  0  0
 50123  1  0  0  0
 51 52  1  0  0  0
 51124  1  0  0  0
 51125  1  0  0  0
 52126  1  0  0  0
 52127  1  0  0  0
 53 54  1  0  0  0
 54 55  2  0  0  0
 54128  1  0  0  0
 55 57  1  0  0  0
 55129  1  0  0  0
 56 69  2  0  0  0
 57 58  2  0  0  0
 57130  1  0  0  0
 58131  1  0  0  0
 59 60  1  0  0  0
 59 61  1  0  0  0
 59 62  1  0  0  0
 60132  1  0  0  0
 60133  1  0  0  0
 60134  1  0  0  0
 61135  1  0  0  0
 61136  1  0  0  0
 61137  1  0  0  0
 62138  1  0  0  0
 62139  1  0  0  0
 62140  1  0  0  0
 63 65  1  0  0  0
 63141  1  0  0  0
 63142  1  0  0  0
 63143  1  0  0  0
 64144  1  0  0  0
 65145  1  0  0  0
 68 82  1  0  0  0
 71 72  2  0  0  0
 71 73  1  0  0  0
 71146  1  0  0  0
 72 74  1  0  0  0
 72147  1  0  0  0
 73 75  2  0  0  0
 73 85  1  0  0  0
 74 76  1  0  0  0
 74 83  2  0  0  0
 75 79  1  0  0  0
 75 83  1  0  0  0
 76 84  2  0  0  0
 76148  1  0  0  0
 77 80  1  0  0  0
 77 85  1  0  0  0
 77 86  2  0  0  0
 78 79  1  0  0  0
 78149  1  0  0  0
 78150  1  0  0  0
 78151  1  0  0  0
 79152  1  0  0  0
 79153  1  0  0  0
 80 81  1  0  0  0
 80154  1  0  0  0
 80155  1  0  0  0
 81 82  1  0  0  0
 81156  1  0  0  0
 81157  1  0  0  0
 82158  1  0  0  0
 82159  1  0  0  0
 85160  1  0  0  0
M  ISO  4   1 100  68 101  82 101  84 100
M  END
> <chiral flag>
0

> <version>
0

> <s_m_source_file>
/data/baiqing/PycharmProjects/Reinvent-master-3.2/result/LINK_invent/BTK/process_docking_weight1_custom_product_contain_oxygen_bond_distance_aromatic_linkinvent_7_9_3/rearranged_h_0111.sdf

> <i_m_source_file_index>
34

> <r_mmod_Potential_Energy-OPLS-2005>
-259.113128662109

> <r_mmod_Stretch_Energy-OPLS-2005>
31.1290817260742

> <r_mmod_Bend_Energy-OPLS-2005>
94.4829177856445

> <r_mmod_Torsional_Energy-OPLS-2005>
216.320205688477

> <r_mmod_Improper_Torsional_Energy-OPLS-2005>
5.26374673843384

> <r_mmod_Van_der_Waal_Energy-OPLS-2005>
176.594772338867

> <r_mmod_Electrostatic_Energy-OPLS-2005>
-593.119323730469

> <r_mmod_Solvation_Energy-OPLS-2005>
-202.06103515625

> <b_mmod_Minimization_Converged-OPLS-2005>
0

> <r_mmod_RMS_Derivative-OPLS-2005>
1.16994976997375

$$$$
35
                    3D
 Structure written by MMmdl.
154162  0  0  1  0            999 V2000
  -30.6777  -14.7301   20.5554 C   0  0  0  0  0  0
  -30.4276  -12.4722   19.4868 C   0  0  0  0  0  0
  -29.5079  -12.5507   18.2492 C   0  0  0  0  0  0
  -28.0351  -12.3710   18.6582 C   0  0  0  0  0  0
  -27.6521  -13.2426   19.8854 C   0  0  2  0  0  0
  -28.7044  -13.1244   21.0188 C   0  0  0  0  0  0
  -25.2325  -13.8124   20.5401 C   0  0  0  0  0  0
  -24.1740  -13.0374   20.9192 C   0  0  0  0  0  0
  -24.6419  -11.6891   20.8826 C   0  0  0  0  0  0
  -23.9105  -10.4263   21.0451 C   0  0  0  0  0  0
  -24.3640   -9.4169   21.9220 C   0  0  0  0  0  0
  -23.6300   -8.2214   22.0769 C   0  0  0  0  0  0
  -22.4285   -8.0269   21.3550 C   0  0  0  0  0  0
  -21.9938   -9.0251   20.4654 C   0  0  0  0  0  0
  -22.7283  -10.2121   20.3079 C   0  0  0  0  0  0
  -21.6849   -6.0731   22.5279 C   0  0  0  0  0  0
  -21.4012   -6.5636   23.8212 C   0  0  0  0  0  0
  -21.3658   -5.6790   24.9175 C   0  0  0  0  0  0
  -21.6042   -4.3053   24.7226 C   0  0  0  0  0  0
  -21.8821   -3.8144   23.4348 C   0  0  0  0  0  0
  -21.9191   -4.6960   22.3403 C   0  0  0  0  0  0
  -22.7758  -13.5148   21.1840 C   0  0  0  0  0  0
  -22.1660   -4.2146   21.0980 F   0  0  0  0  0  0
  -21.5629   -3.4536   25.7739 F   0  0  0  0  0  0
  -30.0051  -13.5178   20.4610 N   0  0  0  0  0  0
  -26.2959  -12.9453   20.3425 N   0  0  0  0  0  0
  -25.9385  -11.6579   20.5935 N   0  0  0  0  0  0
  -22.0427  -12.8169   22.0437 N   0  0  0  0  0  0
  -25.3543  -15.1778   20.3101 N   0  0  0  0  0  0
  -31.7549  -14.8509   19.9609 O   0  0  0  0  0  0
  -21.6637   -6.8875   21.4243 O   0  0  0  0  0  0
  -22.3437  -14.5448   20.6672 O   0  0  0  0  0  0
  -24.6327  -31.8545   23.1982 C   0  0  0  0  0  0
  -25.9147  -32.4750   23.8330 C   0  0  1  0  0  0
  -27.2220  -27.2492   20.1299 C   0  0  0  0  0  0
  -25.5937  -33.8553   24.2249 N   0  0  0  0  0  0
  -23.4304  -30.4776   21.5415 C   0  0  2  0  0  0
  -24.8794  -28.9266   20.1084 C   0  0  0  0  0  0
  -22.7512  -29.4599   22.4903 C   0  0  0  0  0  0
  -18.0293  -28.1390   22.8482 C   0  0  0  0  0  0
  -24.1492  -36.7282   23.2641 C   0  0  0  0  0  0
  -25.9785  -30.7628   21.3824 C   0  0  0  0  0  0
  -26.0514  -29.3854   20.7227 C   0  0  0  0  0  0
  -27.2240  -28.5591   20.7245 C   0  0  0  0  0  0
  -26.0272  -26.8721   19.4713 C   0  0  0  0  0  0
  -24.8737  -27.6786   19.4710 C   0  0  0  0  0  0
  -23.6501  -29.8137   20.1572 C   0  0  0  0  0  0
  -25.4119  -36.3067   24.0325 C   0  0  1  0  0  0
  -20.5899  -28.3704   23.1262 C   0  0  2  0  0  0
  -20.6782  -26.9419   22.5406 C   0  0  0  0  0  0
  -19.5756  -26.6384   21.5213 C   0  0  0  0  0  0
  -18.1936  -26.7930   22.1625 C   0  0  0  0  0  0
  -19.1548  -28.8864   23.2865 C   0  0  0  0  0  0
  -18.9468  -30.1463   23.8886 C   0  0  0  0  0  0
  -17.6467  -30.6589   24.0562 C   0  0  0  0  0  0
  -25.9061  -34.9438   23.5090 C   0  0  0  0  0  0
  -16.5358  -29.9086   23.6334 C   0  0  0  0  0  0
  -16.7280  -28.6504   23.0353 C   0  0  0  0  0  0
  -26.4506  -31.6581   25.0727 C   0  0  0  0  0  0
  -25.3719  -31.3735   26.1439 C   0  0  0  0  0  0
  -27.0361  -30.2993   24.6235 C   0  0  0  0  0  0
  -27.6052  -32.4330   25.7501 C   0  0  0  0  0  0
  -27.5578  -37.1797   24.8465 C   0  0  0  0  0  0
  -21.4217  -29.3047   22.3648 N   0  0  0  0  0  0
  -26.4292  -37.3767   23.9406 N   0  0  0  0  0  0
  -24.6995  -31.0499   22.0965 N   0  0  0  0  0  0
  -23.4206  -28.8138   23.3007 O   0  0  0  0  0  0
  -28.3021  -26.3301   20.2128 O   0  0  0  0  0  0
  -26.5636  -34.8916   22.4661 O   0  0  0  0  0  0
  -23.5472  -32.1374   23.7266 O   0  0  0  0  0  0
  -29.8549  -18.5417   20.8637 C   0  0  0  0  0  0
  -27.1545  -18.2349   21.3712 C   0  0  0  0  0  0
  -29.3881  -17.1882   21.1823 C   0  0  0  0  0  0
  -28.0010  -17.1146   21.4777 C   0  0  0  0  0  0
  -29.0125  -19.7421   20.8059 C   0  0  0  0  0  0
  -27.6358  -19.5228   21.0734 C   0  0  0  0  0  0
  -30.2813  -15.9375   21.5318 C   0  0  0  0  0  0
  -28.9846  -23.7104   20.4659 C   0  0  0  0  0  0
  -28.0292  -24.8742   19.9050 C   0  0  0  0  0  0
  -28.7925  -22.1983   19.9462 C   0  0  0  0  0  0
  -30.8118  -15.9284   22.6870 N   0  0  0  0  0  0
  -27.4298  -15.9721   22.0318 N   0  0  0  0  0  0
  -29.8661  -23.9760   21.2916 O   0  0  0  0  0  0
  -26.7406  -20.5499   21.1682 O   0  0  0  0  0  0
  -29.5242  -21.0747   20.6403 O   0  0  0  0  0  0
  -31.4700  -12.5758   19.1816 H   0  0  0  0  0  0
  -30.3658  -11.4828   19.9430 H   0  0  0  0  0  0
  -29.7894  -11.7919   17.5180 H   0  0  0  0  0  0
  -29.6385  -13.5159   17.7574 H   0  0  0  0  0  0
  -27.8846  -11.3168   18.8938 H   0  0  0  0  0  0
  -27.3778  -12.5911   17.8162 H   0  0  0  0  0  0
  -27.6615  -14.2792   19.5479 H   0  0  0  0  0  0
  -28.7448  -12.0989   21.3886 H   0  0  0  0  0  0
  -28.4521  -13.7219   21.8890 H   0  0  0  0  0  0
  -25.2777   -9.5632   22.4809 H   0  0  0  0  0  0
  -23.9992   -7.4597   22.7488 H   0  0  0  0  0  0
  -21.0872   -8.8785   19.8952 H   0  0  0  0  0  0
  -22.3757  -10.9668   19.6190 H   0  0  0  0  0  0
  -21.2006   -7.6145   23.9716 H   0  0  0  0  0  0
  -21.1477   -6.0520   25.9078 H   0  0  0  0  0  0
  -22.0603   -2.7606   23.2849 H   0  0  0  0  0  0
  -22.4059  -11.9850   22.4846 H   0  0  0  0  0  0
  -21.1048  -13.1196   22.2651 H   0  0  0  0  0  0
  -24.5087  -15.7365   20.2587 H   0  0  0  0  0  0
  -26.0970  -15.5397   19.7233 H   0  0  0  0  0  0
  -26.7212  -32.5395   23.1069 H   0  0  0  0  0  0
  -25.0072  -33.9687   25.0386 H   0  0  0  0  0  0
  -22.7276  -31.3005   21.3952 H   0  0  0  0  0  0
  -23.3755  -35.9613   23.3302 H   0  0  0  0  0  0
  -24.3579  -36.8909   22.2055 H   0  0  0  0  0  0
  -23.7247  -37.6482   23.6670 H   0  0  0  0  0  0
  -26.1221  -31.5240   20.6146 H   0  0  0  0  0  0
  -26.8539  -30.8093   22.0185 H   0  0  0  0  0  0
  -28.1171  -28.9025   21.2277 H   0  0  0  0  0  0
  -25.9443  -25.9257   18.9587 H   0  0  0  0  0  0
  -23.9791  -27.3248   18.9771 H   0  0  0  0  0  0
  -23.7752  -30.5911   19.4025 H   0  0  0  0  0  0
  -22.7683  -29.2480   19.8508 H   0  0  0  0  0  0
  -25.1303  -36.1911   25.0817 H   0  0  0  0  0  0
  -20.9989  -28.3286   24.1384 H   0  0  0  0  0  0
  -20.5685  -26.2315   23.3614 H   0  0  0  0  0  0
  -21.6649  -26.7443   22.1199 H   0  0  0  0  0  0
  -19.6920  -25.6293   21.1249 H   0  0  0  0  0  0
  -19.6693  -27.3191   20.6739 H   0  0  0  0  0  0
  -17.4205  -26.6675   21.4028 H   0  0  0  0  0  0
  -18.0336  -26.0075   22.9024 H   0  0  0  0  0  0
  -19.7945  -30.7280   24.2253 H   0  0  0  0  0  0
  -17.5023  -31.6269   24.5164 H   0  0  0  0  0  0
  -15.5358  -30.2985   23.7666 H   0  0  0  0  0  0
  -15.8679  -28.0821   22.7074 H   0  0  0  0  0  0
  -24.5901  -30.7078   25.7761 H   0  0  0  0  0  0
  -24.8901  -32.2906   26.4840 H   0  0  0  0  0  0
  -25.8027  -30.8926   27.0230 H   0  0  0  0  0  0
  -26.2957  -29.6729   24.1247 H   0  0  0  0  0  0
  -27.4018  -29.7268   25.4769 H   0  0  0  0  0  0
  -27.8845  -30.4257   23.9505 H   0  0  0  0  0  0
  -27.2655  -33.3638   26.2056 H   0  0  0  0  0  0
  -28.3874  -32.6880   25.0338 H   0  0  0  0  0  0
  -28.0710  -31.8472   26.5436 H   0  0  0  0  0  0
  -28.2595  -38.0094   24.7509 H   0  0  0  0  0  0
  -28.1075  -36.2624   24.6298 H   0  0  0  0  0  0
  -27.2293  -37.1453   25.8867 H   0  0  0  0  0  0
  -20.9408  -29.8771   21.6850 H   0  0  0  0  0  0
  -26.0170  -38.2840   24.1402 H   0  0  0  0  0  0
  -30.9179  -18.6751   20.7284 H   0  0  0  0  0  0
  -26.1092  -18.1182   21.6212 H   0  0  0  0  0  0
  -27.0397  -24.6229   20.2871 H   0  0  0  0  0  0
  -27.9803  -24.7621   18.8216 H   0  0  0  0  0  0
  -29.1742  -22.1968   18.9254 H   0  0  0  0  0  0
  -27.7308  -22.0267   19.8152 H   0  0  0  0  0  0
  -30.5174  -16.7397   23.2171 H   0  0  0  0  0  0
  -27.1448  -16.1106   22.9950 H   0  0  0  0  0  0
  -26.5665  -15.6956   21.5476 H   0  0  0  0  0  0
  -25.8658  -20.2607   21.4058 H   0  0  0  0  0  0
  1 25  1  0  0  0
  1 30  2  0  0  0
  1 77  1  0  0  0
  2  3  1  0  0  0
  2 25  1  0  0  0
  2 86  1  0  0  0
  2 87  1  0  0  0
  3  4  1  0  0  0
  3 88  1  0  0  0
  3 89  1  0  0  0
  4  5  1  0  0  0
  4 90  1  0  0  0
  4 91  1  0  0  0
  5  6  1  0  0  0
  5 26  1  0  0  0
  5 92  1  0  0  0
  6 25  1  0  0  0
  6 93  1  0  0  0
  6 94  1  0  0  0
  7  8  2  0  0  0
  7 26  1  0  0  0
  7 29  1  0  0  0
  8  9  1  0  0  0
  8 22  1  0  0  0
  9 10  1  0  0  0
  9 27  2  0  0  0
 10 11  2  0  0  0
 10 15  1  0  0  0
 11 12  1  0  0  0
 11 95  1  0  0  0
 12 13  2  0  0  0
 12 96  1  0  0  0
 13 14  1  0  0  0
 13 31  1  0  0  0
 14 15  2  0  0  0
 14 97  1  0  0  0
 15 98  1  0  0  0
 16 17  2  0  0  0
 16 21  1  0  0  0
 16 31  1  0  0  0
 17 18  1  0  0  0
 17 99  1  0  0  0
 18 19  2  0  0  0
 18100  1  0  0  0
 19 20  1  0  0  0
 19 24  1  0  0  0
 20 21  2  0  0  0
 20101  1  0  0  0
 21 23  1  0  0  0
 22 28  1  0  0  0
 22 32  2  0  0  0
 26 27  1  0  0  0
 28102  1  0  0  0
 28103  1  0  0  0
 29104  1  0  0  0
 29105  1  0  0  0
 33 34  1  0  0  0
 33 66  1  0  0  0
 33 70  2  0  0  0
 34 36  1  0  0  0
 34 59  1  0  0  0
 34106  1  0  0  0
 35 44  2  0  0  0
 35 45  1  0  0  0
 35 68  1  0  0  0
 36 56  1  0  0  0
 36107  1  0  0  0
 37 39  1  0  0  0
 37 47  1  0  0  0
 37 66  1  0  0  0
 37108  1  0  0  0
 38 43  2  0  0  0
 38 46  1  0  0  0
 38 47  1  0  0  0
 39 64  1  0  0  0
 39 67  2  0  0  0
 40 52  1  0  0  0
 40 53  2  0  0  0
 40 58  1  0  0  0
 41109  1  0  0  0
 41110  1  0  0  0
 41111  1  0  0  0
 41 48  1  0  0  0
 42 43  1  0  0  0
 42 66  1  0  0  0
 42112  1  0  0  0
 42113  1  0  0  0
 43 44  1  0  0  0
 44114  1  0  0  0
 45 46  2  0  0  0
 45115  1  0  0  0
 46116  1  0  0  0
 47117  1  0  0  0
 47118  1  0  0  0
 48 56  1  0  0  0
 48 65  1  0  0  0
 48119  1  0  0  0
 49 50  1  0  0  0
 49 53  1  0  0  0
 49 64  1  0  0  0
 49120  1  0  0  0
 50 51  1  0  0  0
 50121  1  0  0  0
 50122  1  0  0  0
 51 52  1  0  0  0
 51123  1  0  0  0
 51124  1  0  0  0
 52125  1  0  0  0
 52126  1  0  0  0
 53 54  1  0  0  0
 54 55  2  0  0  0
 54127  1  0  0  0
 55 57  1  0  0  0
 55128  1  0  0  0
 56 69  2  0  0  0
 57 58  2  0  0  0
 57129  1  0  0  0
 58130  1  0  0  0
 59 60  1  0  0  0
 59 61  1  0  0  0
 59 62  1  0  0  0
 60131  1  0  0  0
 60132  1  0  0  0
 60133  1  0  0  0
 61134  1  0  0  0
 61135  1  0  0  0
 61136  1  0  0  0
 62137  1  0  0  0
 62138  1  0  0  0
 62139  1  0  0  0
 63 65  1  0  0  0
 63140  1  0  0  0
 63141  1  0  0  0
 63142  1  0  0  0
 64143  1  0  0  0
 65144  1  0  0  0
 68 79  1  0  0  0
 71 73  2  0  0  0
 71 75  1  0  0  0
 71145  1  0  0  0
 72 74  2  0  0  0
 72 76  1  0  0  0
 72146  1  0  0  0
 73 74  1  0  0  0
 73 77  1  0  0  0
 74 82  1  0  0  0
 75 76  2  0  0  0
 75 85  1  0  0  0
 76 84  1  0  0  0
 77 81  2  0  0  0
 78 79  1  0  0  0
 78 80  1  0  0  0
 78 83  2  0  0  0
 79147  1  0  0  0
 79148  1  0  0  0
 80 85  1  0  0  0
 80149  1  0  0  0
 80150  1  0  0  0
 81151  1  0  0  0
 82152  1  0  0  0
 82153  1  0  0  0
 84154  1  0  0  0
M  ISO  4   1 100  68 101  77 100  79 101
M  END
> <chiral flag>
0

> <version>
0

> <s_m_source_file>
/data/baiqing/PycharmProjects/Reinvent-master-3.2/result/LINK_invent/BTK/process_docking_weight1_custom_product_contain_oxygen_bond_distance_aromatic_linkinvent_7_9_3/rearranged_h_0111.sdf

> <i_m_source_file_index>
35

> <r_mmod_Potential_Energy-OPLS-2005>
462.356323242188

> <r_mmod_Stretch_Energy-OPLS-2005>
157.521041870117

> <r_mmod_Bend_Energy-OPLS-2005>
215.254776000977

> <r_mmod_Torsional_Energy-OPLS-2005>
274.208526611328

> <r_mmod_Improper_Torsional_Energy-OPLS-2005>
17.2596797943115

> <r_mmod_Van_der_Waal_Energy-OPLS-2005>
160.598678588867

> <r_mmod_Electrostatic_Energy-OPLS-2005>
-189.509735107422

> <r_mmod_Solvation_Energy-OPLS-2005>
-259.31884765625

> <b_mmod_Minimization_Converged-OPLS-2005>
0

> <r_mmod_RMS_Derivative-OPLS-2005>
0.289488762617111

$$$$
36
                    3D
 Structure written by MMmdl.
162171  0  0  1  0            999 V2000
  -30.5082  -14.9085   20.4467 C   0  0  0  0  0  0
  -30.4558  -12.5618   19.4939 C   0  0  0  0  0  0
  -29.5285  -12.5307   18.2547 C   0  0  0  0  0  0
  -28.0577  -12.3217   18.6676 C   0  0  0  0  0  0
  -27.6391  -13.2357   19.8478 C   0  0  2  0  0  0
  -28.6814  -13.2060   20.9870 C   0  0  0  0  0  0
  -25.2478  -13.8169   20.5608 C   0  0  0  0  0  0
  -24.1790  -13.0429   20.9200 C   0  0  0  0  0  0
  -24.6390  -11.6908   20.8747 C   0  0  0  0  0  0
  -23.9066  -10.4288   21.0420 C   0  0  0  0  0  0
  -24.3619   -9.4199   21.9192 C   0  0  0  0  0  0
  -23.6300   -8.2230   22.0749 C   0  0  0  0  0  0
  -22.4281   -8.0272   21.3539 C   0  0  0  0  0  0
  -21.9915   -9.0249   20.4641 C   0  0  0  0  0  0
  -22.7239  -10.2133   20.3064 C   0  0  0  0  0  0
  -21.6856   -6.0727   22.5276 C   0  0  0  0  0  0
  -21.4013   -6.5628   23.8208 C   0  0  0  0  0  0
  -21.3666   -5.6784   24.9172 C   0  0  0  0  0  0
  -21.6060   -4.3048   24.7228 C   0  0  0  0  0  0
  -21.8817   -3.8136   23.4347 C   0  0  0  0  0  0
  -21.9186   -4.6952   22.3399 C   0  0  0  0  0  0
  -22.7816  -13.5226   21.1875 C   0  0  0  0  0  0
  -22.1652   -4.2138   21.0978 F   0  0  0  0  0  0
  -21.5638   -3.4529   25.7744 F   0  0  0  0  0  0
  -29.9654  -13.6286   20.4087 N   0  0  0  0  0  0
  -26.2916  -12.9385   20.3234 N   0  0  0  0  0  0
  -25.9324  -11.6529   20.5740 N   0  0  0  0  0  0
  -22.0455  -12.8233   22.0441 N   0  0  0  0  0  0
  -25.4139  -15.1863   20.3877 N   0  0  0  0  0  0
  -31.6909  -15.0523   20.1156 O   0  0  0  0  0  0
  -21.6636   -6.8875   21.4243 O   0  0  0  0  0  0
  -22.3492  -14.5522   20.6712 O   0  0  0  0  0  0
  -24.6413  -31.8456   23.1885 C   0  0  0  0  0  0
  -25.9187  -32.4705   23.8273 C   0  0  1  0  0  0
  -27.2254  -27.1551   20.1541 C   0  0  0  0  0  0
  -25.5933  -33.8507   24.2189 N   0  0  0  0  0  0
  -23.4445  -30.4629   21.5349 C   0  0  2  0  0  0
  -24.8955  -28.8898   20.1159 C   0  0  0  0  0  0
  -22.7565  -29.4547   22.4886 C   0  0  0  0  0  0
  -18.0301  -28.1388   22.8485 C   0  0  0  0  0  0
  -24.1483  -36.7265   23.2644 C   0  0  0  0  0  0
  -25.9990  -30.7255   21.3845 C   0  0  0  0  0  0
  -26.0719  -29.3370   20.7303 C   0  0  0  0  0  0
  -27.2389  -28.4863   20.7302 C   0  0  0  0  0  0
  -26.0217  -26.8041   19.5039 C   0  0  0  0  0  0
  -24.8824  -27.6355   19.4876 C   0  0  0  0  0  0
  -23.6705  -29.7890   20.1557 C   0  0  0  0  0  0
  -25.4118  -36.3045   24.0318 C   0  0  1  0  0  0
  -20.5912  -28.3706   23.1254 C   0  0  2  0  0  0
  -20.6781  -26.9412   22.5413 C   0  0  0  0  0  0
  -19.5754  -26.6377   21.5223 C   0  0  0  0  0  0
  -18.1936  -26.7926   22.1633 C   0  0  0  0  0  0
  -19.1554  -28.8869   23.2854 C   0  0  0  0  0  0
  -18.9473  -30.1468   23.8879 C   0  0  0  0  0  0
  -17.6470  -30.6588   24.0566 C   0  0  0  0  0  0
  -25.9073  -34.9414   23.5070 C   0  0  0  0  0  0
  -16.5363  -29.9083   23.6340 C   0  0  0  0  0  0
  -16.7286  -28.6497   23.0367 C   0  0  0  0  0  0
  -26.4504  -31.6561   25.0706 C   0  0  0  0  0  0
  -25.3689  -31.3766   26.1408 C   0  0  0  0  0  0
  -27.0359  -30.2954   24.6272 C   0  0  0  0  0  0
  -27.6045  -32.4316   25.7486 C   0  0  0  0  0  0
  -27.5579  -37.1788   24.8465 C   0  0  0  0  0  0
  -21.4255  -29.3031   22.3633 N   0  0  0  0  0  0
  -26.4287  -37.3756   23.9412 N   0  0  0  0  0  0
  -24.7147  -31.0326   22.0913 N   0  0  0  0  0  0
  -23.4218  -28.8104   23.3035 O   0  0  0  0  0  0
  -28.3006  -26.1994   20.1851 O   0  0  0  0  0  0
  -26.5672  -34.8916   22.4659 O   0  0  0  0  0  0
  -23.5535  -32.1316   23.7121 O   0  0  0  0  0  0
  -30.2495  -19.9090   20.0128 C   0  0  0  0  0  0
  -30.4306  -18.4551   20.0001 C   0  0  0  0  0  0
  -28.3371  -19.6433   21.3578 C   0  0  0  0  0  0
  -28.5104  -18.2022   21.3760 C   0  0  0  0  0  0
  -29.1920  -20.5930   20.7136 C   0  0  0  0  0  0
  -29.5787  -17.5188   20.6889 C   0  0  0  0  0  0
  -29.5103  -22.4178   22.2706 C   0  0  0  0  0  0
  -27.5432  -17.4021   22.1615 C   0  0  0  0  0  0
  -26.3060  -17.7811   22.5345 C   0  0  0  0  0  0
  -30.2810  -23.7281   22.3066 C   0  0  0  0  0  0
  -30.4631  -24.0311   20.8252 C   0  0  0  0  0  0
  -29.1882  -23.4414   20.2201 C   0  0  2  0  0  0
  -25.3832  -16.9430   23.3933 C   0  0  0  0  0  0
  -28.0538  -24.6766   20.3738 C   0  0  0  0  0  0
  -29.0694  -22.0953   21.0324 N   0  0  0  0  0  0
  -29.6336  -15.9860   20.7132 N   0  0  0  0  0  0
  -29.3520  -21.7515   23.2988 O   0  0  0  0  0  0
  -31.4860  -12.7391   19.1823 H   0  0  0  0  0  0
  -30.4608  -11.5965   20.0015 H   0  0  0  0  0  0
  -29.8426  -11.7408   17.5711 H   0  0  0  0  0  0
  -29.6239  -13.4680   17.7041 H   0  0  0  0  0  0
  -27.9404  -11.2766   18.9557 H   0  0  0  0  0  0
  -27.3981  -12.4764   17.8131 H   0  0  0  0  0  0
  -27.6220  -14.2493   19.4467 H   0  0  0  0  0  0
  -28.7593  -12.2075   21.4209 H   0  0  0  0  0  0
  -28.3810  -13.8651   21.8020 H   0  0  0  0  0  0
  -25.2753   -9.5676   22.4783 H   0  0  0  0  0  0
  -24.0001   -7.4622   22.7475 H   0  0  0  0  0  0
  -21.0836   -8.8779   19.8956 H   0  0  0  0  0  0
  -22.3690  -10.9686   19.6191 H   0  0  0  0  0  0
  -21.2001   -7.6137   23.9707 H   0  0  0  0  0  0
  -21.1497   -6.0513   25.9076 H   0  0  0  0  0  0
  -22.0592   -2.7598   23.2845 H   0  0  0  0  0  0
  -22.4049  -11.9908   22.4867 H   0  0  0  0  0  0
  -21.1077  -13.1279   22.2637 H   0  0  0  0  0  0
  -24.6534  -15.8425   20.5223 H   0  0  0  0  0  0
  -26.2607  -15.6298   20.0586 H   0  0  0  0  0  0
  -26.7260  -32.5325   23.1014 H   0  0  0  0  0  0
  -25.0010  -33.9606   25.0289 H   0  0  0  0  0  0
  -22.7442  -31.2863   21.3793 H   0  0  0  0  0  0
  -23.3751  -35.9593   23.3296 H   0  0  0  0  0  0
  -24.3571  -36.8905   22.2062 H   0  0  0  0  0  0
  -23.7220  -37.6452   23.6686 H   0  0  0  0  0  0
  -26.1497  -31.4775   20.6093 H   0  0  0  0  0  0
  -26.8718  -30.7797   22.0241 H   0  0  0  0  0  0
  -28.1375  -28.8276   21.2241 H   0  0  0  0  0  0
  -25.9333  -25.8541   19.0007 H   0  0  0  0  0  0
  -23.9872  -27.2871   18.9912 H   0  0  0  0  0  0
  -23.8028  -30.5588   19.3941 H   0  0  0  0  0  0
  -22.7866  -29.2241   19.8537 H   0  0  0  0  0  0
  -25.1304  -36.1882   25.0811 H   0  0  0  0  0  0
  -20.9996  -28.3289   24.1381 H   0  0  0  0  0  0
  -20.5683  -26.2320   23.3627 H   0  0  0  0  0  0
  -21.6647  -26.7425   22.1211 H   0  0  0  0  0  0
  -19.6910  -25.6286   21.1262 H   0  0  0  0  0  0
  -19.6688  -27.3185   20.6750 H   0  0  0  0  0  0
  -17.4208  -26.6682   21.4031 H   0  0  0  0  0  0
  -18.0323  -26.0071   22.9030 H   0  0  0  0  0  0
  -19.7949  -30.7283   24.2240 H   0  0  0  0  0  0
  -17.5026  -31.6270   24.5162 H   0  0  0  0  0  0
  -15.5359  -30.2983   23.7662 H   0  0  0  0  0  0
  -15.8688  -28.0809   22.7098 H   0  0  0  0  0  0
  -24.5842  -30.7147   25.7722 H   0  0  0  0  0  0
  -24.8910  -32.2962   26.4800 H   0  0  0  0  0  0
  -25.7959  -30.8940   27.0208 H   0  0  0  0  0  0
  -26.2973  -29.6690   24.1257 H   0  0  0  0  0  0
  -27.3947  -29.7241   25.4842 H   0  0  0  0  0  0
  -27.8892  -30.4188   23.9600 H   0  0  0  0  0  0
  -27.2639  -33.3620   26.2045 H   0  0  0  0  0  0
  -28.3863  -32.6873   25.0321 H   0  0  0  0  0  0
  -28.0705  -31.8453   26.5415 H   0  0  0  0  0  0
  -28.2592  -38.0088   24.7521 H   0  0  0  0  0  0
  -28.1073  -36.2619   24.6278 H   0  0  0  0  0  0
  -27.2304  -37.1429   25.8869 H   0  0  0  0  0  0
  -20.9472  -29.8734   21.6801 H   0  0  0  0  0  0
  -26.0156  -38.2826   24.1416 H   0  0  0  0  0  0
  -30.9934  -20.5118   19.5108 H   0  0  0  0  0  0
  -31.2695  -18.0586   19.4469 H   0  0  0  0  0  0
  -27.5412  -20.0689   21.9483 H   0  0  0  0  0  0
  -27.8824  -16.4344   22.4994 H   0  0  0  0  0  0
  -25.9025  -18.7347   22.2284 H   0  0  0  0  0  0
  -31.2315  -23.6266   22.8317 H   0  0  0  0  0  0
  -29.6829  -24.4905   22.8075 H   0  0  0  0  0  0
  -31.3443  -23.5145   20.4391 H   0  0  0  0  0  0
  -30.5925  -25.0948   20.6224 H   0  0  0  0  0  0
  -29.3481  -23.2257   19.1641 H   0  0  0  0  0  0
  -25.8413  -15.9904   23.6606 H   0  0  0  0  0  0
  -24.4540  -16.7370   22.8611 H   0  0  0  0  0  0
  -25.1416  -17.4747   24.3151 H   0  0  0  0  0  0
  -27.6479  -24.6029   21.3837 H   0  0  0  0  0  0
  -27.2271  -24.3760   19.7345 H   0  0  0  0  0  0
  -28.7486  -15.6021   21.0053 H   0  0  0  0  0  0
  1 25  1  0  0  0
  1 30  2  0  0  0
  1 86  1  0  0  0
  2  3  1  0  0  0
  2 25  1  0  0  0
  2 88  1  0  0  0
  2 89  1  0  0  0
  3  4  1  0  0  0
  3 90  1  0  0  0
  3 91  1  0  0  0
  4  5  1  0  0  0
  4 92  1  0  0  0
  4 93  1  0  0  0
  5  6  1  0  0  0
  5 26  1  0  0  0
  5 94  1  0  0  0
  6 25  1  0  0  0
  6 95  1  0  0  0
  6 96  1  0  0  0
  7  8  2  0  0  0
  7 26  1  0  0  0
  7 29  1  0  0  0
  8  9  1  0  0  0
  8 22  1  0  0  0
  9 10  1  0  0  0
  9 27  2  0  0  0
 10 11  2  0  0  0
 10 15  1  0  0  0
 11 12  1  0  0  0
 11 97  1  0  0  0
 12 13  2  0  0  0
 12 98  1  0  0  0
 13 14  1  0  0  0
 13 31  1  0  0  0
 14 15  2  0  0  0
 14 99  1  0  0  0
 15100  1  0  0  0
 16 17  2  0  0  0
 16 21  1  0  0  0
 16 31  1  0  0  0
 17 18  1  0  0  0
 17101  1  0  0  0
 18 19  2  0  0  0
 18102  1  0  0  0
 19 20  1  0  0  0
 19 24  1  0  0  0
 20 21  2  0  0  0
 20103  1  0  0  0
 21 23  1  0  0  0
 22 28  1  0  0  0
 22 32  2  0  0  0
 26 27  1  0  0  0
 28104  1  0  0  0
 28105  1  0  0  0
 29106  1  0  0  0
 29107  1  0  0  0
 33 34  1  0  0  0
 33 66  1  0  0  0
 33 70  2  0  0  0
 34 36  1  0  0  0
 34 59  1  0  0  0
 34108  1  0  0  0
 35 44  2  0  0  0
 35 45  1  0  0  0
 35 68  1  0  0  0
 36 56  1  0  0  0
 36109  1  0  0  0
 37 39  1  0  0  0
 37 47  1  0  0  0
 37 66  1  0  0  0
 37110  1  0  0  0
 38 43  2  0  0  0
 38 46  1  0  0  0
 38 47  1  0  0  0
 39 64  1  0  0  0
 39 67  2  0  0  0
 40 52  1  0  0  0
 40 53  2  0  0  0
 40 58  1  0  0  0
 41111  1  0  0  0
 41112  1  0  0  0
 41113  1  0  0  0
 41 48  1  0  0  0
 42 43  1  0  0  0
 42 66  1  0  0  0
 42114  1  0  0  0
 42115  1  0  0  0
 43 44  1  0  0  0
 44116  1  0  0  0
 45 46  2  0  0  0
 45117  1  0  0  0
 46118  1  0  0  0
 47119  1  0  0  0
 47120  1  0  0  0
 48 56  1  0  0  0
 48 65  1  0  0  0
 48121  1  0  0  0
 49 50  1  0  0  0
 49 53  1  0  0  0
 49 64  1  0  0  0
 49122  1  0  0  0
 50 51  1  0  0  0
 50123  1  0  0  0
 50124  1  0  0  0
 51 52  1  0  0  0
 51125  1  0  0  0
 51126  1  0  0  0
 52127  1  0  0  0
 52128  1  0  0  0
 53 54  1  0  0  0
 54 55  2  0  0  0
 54129  1  0  0  0
 55 57  1  0  0  0
 55130  1  0  0  0
 56 69  2  0  0  0
 57 58  2  0  0  0
 57131  1  0  0  0
 58132  1  0  0  0
 59 60  1  0  0  0
 59 61  1  0  0  0
 59 62  1  0  0  0
 60133  1  0  0  0
 60134  1  0  0  0
 60135  1  0  0  0
 61136  1  0  0  0
 61137  1  0  0  0
 61138  1  0  0  0
 62139  1  0  0  0
 62140  1  0  0  0
 62141  1  0  0  0
 63 65  1  0  0  0
 63142  1  0  0  0
 63143  1  0  0  0
 63144  1  0  0  0
 64145  1  0  0  0
 65146  1  0  0  0
 68 84  1  0  0  0
 71 72  2  0  0  0
 71 75  1  0  0  0
 71147  1  0  0  0
 72 76  1  0  0  0
 72148  1  0  0  0
 73 74  1  0  0  0
 73 75  2  0  0  0
 73149  1  0  0  0
 74 76  2  0  0  0
 74 78  1  0  0  0
 75 85  1  0  0  0
 76 86  1  0  0  0
 77 80  1  0  0  0
 77 85  1  0  0  0
 77 87  2  0  0  0
 78 79  2  0  0  0
 78150  1  0  0  0
 79 83  1  0  0  0
 79151  1  0  0  0
 80 81  1  0  0  0
 80152  1  0  0  0
 80153  1  0  0  0
 81 82  1  0  0  0
 81154  1  0  0  0
 81155  1  0  0  0
 82 84  1  0  0  0
 82 85  1  0  0  0
 82156  1  0  0  0
 83157  1  0  0  0
 83158  1  0  0  0
 83159  1  0  0  0
 84160  1  0  0  0
 84161  1  0  0  0
 86162  1  0  0  0
M  ISO  4   1 100  68 101  84 101  86 100
M  END
> <chiral flag>
0

> <version>
0

> <s_m_source_file>
/data/baiqing/PycharmProjects/Reinvent-master-3.2/result/LINK_invent/BTK/process_docking_weight1_custom_product_contain_oxygen_bond_distance_aromatic_linkinvent_7_9_3/rearranged_h_0111.sdf

> <i_m_source_file_index>
36

> <r_mmod_Potential_Energy-OPLS-2005>
571.447265625

> <r_mmod_Stretch_Energy-OPLS-2005>
229.310119628906

> <r_mmod_Bend_Energy-OPLS-2005>
305.590698242188

> <r_mmod_Torsional_Energy-OPLS-2005>
319.979553222656

> <r_mmod_Improper_Torsional_Energy-OPLS-2005>
6.86447381973267

> <r_mmod_Van_der_Waal_Energy-OPLS-2005>
130.531646728516

> <r_mmod_Electrostatic_Energy-OPLS-2005>
-372.798126220703

> <r_mmod_Solvation_Energy-OPLS-2005>
-216.180862426758

> <b_mmod_Minimization_Converged-OPLS-2005>
0

> <r_mmod_RMS_Derivative-OPLS-2005>
1.63160181045532

$$$$
37
                    3D
 Structure written by MMmdl.
149157  0  0  1  0            999 V2000
  -30.5590  -14.8540   20.4427 C   0  0  0  0  0  0
  -30.4416  -12.5162   19.5020 C   0  0  0  0  0  0
  -29.5247  -12.5255   18.2567 C   0  0  0  0  0  0
  -28.0517  -12.3276   18.6639 C   0  0  0  0  0  0
  -27.6393  -13.2417   19.8477 C   0  0  2  0  0  0
  -28.6781  -13.2140   20.9867 C   0  0  0  0  0  0
  -25.2509  -13.8213   20.5713 C   0  0  0  0  0  0
  -24.1797  -13.0448   20.9192 C   0  0  0  0  0  0
  -24.6399  -11.6927   20.8732 C   0  0  0  0  0  0
  -23.9078  -10.4299   21.0399 C   0  0  0  0  0  0
  -24.3625   -9.4214   21.9180 C   0  0  0  0  0  0
  -23.6299   -8.2250   22.0752 C   0  0  0  0  0  0
  -22.4279   -8.0288   21.3546 C   0  0  0  0  0  0
  -21.9919   -9.0260   20.4646 C   0  0  0  0  0  0
  -22.7249  -10.2137   20.3052 C   0  0  0  0  0  0
  -21.6856   -6.0740   22.5279 C   0  0  0  0  0  0
  -21.4014   -6.5642   23.8213 C   0  0  0  0  0  0
  -21.3661   -5.6795   24.9176 C   0  0  0  0  0  0
  -21.6045   -4.3058   24.7226 C   0  0  0  0  0  0
  -21.8821   -3.8149   23.4347 C   0  0  0  0  0  0
  -21.9193   -4.6966   22.3403 C   0  0  0  0  0  0
  -22.7821  -13.5225   21.1868 C   0  0  0  0  0  0
  -22.1664   -4.2152   21.0981 F   0  0  0  0  0  0
  -21.5629   -3.4541   25.7737 F   0  0  0  0  0  0
  -29.9763  -13.5943   20.4152 N   0  0  0  0  0  0
  -26.2934  -12.9433   20.3273 N   0  0  0  0  0  0
  -25.9331  -11.6563   20.5729 N   0  0  0  0  0  0
  -22.0473  -12.8204   22.0420 N   0  0  0  0  0  0
  -25.4226  -15.1937   20.4200 N   0  0  0  0  0  0
  -31.7369  -14.9285   20.0837 O   0  0  0  0  0  0
  -21.6645   -6.8884   21.4242 O   0  0  0  0  0  0
  -22.3502  -14.5535   20.6729 O   0  0  0  0  0  0
  -24.6384  -31.8481   23.1911 C   0  0  0  0  0  0
  -25.9177  -32.4713   23.8286 C   0  0  1  0  0  0
  -27.2226  -27.1881   20.1321 C   0  0  0  0  0  0
  -25.5940  -33.8517   24.2207 N   0  0  0  0  0  0
  -23.4390  -30.4685   21.5349 C   0  0  2  0  0  0
  -24.8871  -28.9024   20.1065 C   0  0  0  0  0  0
  -22.7536  -29.4573   22.4867 C   0  0  0  0  0  0
  -18.0298  -28.1393   22.8477 C   0  0  0  0  0  0
  -24.1491  -36.7263   23.2644 C   0  0  0  0  0  0
  -25.9902  -30.7368   21.3826 C   0  0  0  0  0  0
  -26.0603  -29.3531   20.7229 C   0  0  0  0  0  0
  -27.2245  -28.5079   20.7251 C   0  0  0  0  0  0
  -26.0197  -26.8200   19.4888 C   0  0  0  0  0  0
  -24.8766  -27.6475   19.4786 C   0  0  0  0  0  0
  -23.6610  -29.7978   20.1530 C   0  0  0  0  0  0
  -25.4123  -36.3044   24.0321 C   0  0  1  0  0  0
  -20.5909  -28.3719   23.1241 C   0  0  2  0  0  0
  -20.6782  -26.9423   22.5406 C   0  0  0  0  0  0
  -19.5756  -26.6385   21.5209 C   0  0  0  0  0  0
  -18.1935  -26.7932   22.1616 C   0  0  0  0  0  0
  -19.1554  -28.8873   23.2854 C   0  0  0  0  0  0
  -18.9474  -30.1468   23.8881 C   0  0  0  0  0  0
  -17.6472  -30.6592   24.0557 C   0  0  0  0  0  0
  -25.9070  -34.9417   23.5074 C   0  0  0  0  0  0
  -16.5364  -29.9090   23.6328 C   0  0  0  0  0  0
  -16.7285  -28.6507   23.0351 C   0  0  0  0  0  0
  -26.4517  -31.6570   25.0714 C   0  0  0  0  0  0
  -25.3714  -31.3743   26.1417 C   0  0  0  0  0  0
  -27.0386  -30.2975   24.6273 C   0  0  0  0  0  0
  -27.6053  -32.4332   25.7493 C   0  0  0  0  0  0
  -27.5576  -37.1789   24.8467 C   0  0  0  0  0  0
  -21.4235  -29.3045   22.3610 N   0  0  0  0  0  0
  -26.4290  -37.3752   23.9407 N   0  0  0  0  0  0
  -24.7085  -31.0383   22.0915 N   0  0  0  0  0  0
  -23.4199  -28.8127   23.3006 O   0  0  0  0  0  0
  -28.3091  -26.2632   20.2412 O   0  0  0  0  0  0
  -26.5657  -34.8907   22.4653 O   0  0  0  0  0  0
  -23.5516  -32.1334   23.7166 O   0  0  0  0  0  0
  -27.9984  -20.4301   21.2687 C   0  0  0  0  0  0
  -28.2159  -18.9987   21.3988 C   0  0  0  0  0  0
  -29.2984  -18.6205   20.6271 C   0  0  0  0  0  0
  -28.9279  -20.9445   20.4036 C   0  0  0  0  0  0
  -30.0205  -17.2615   20.3626 C   0  0  0  0  0  0
  -28.4545  -23.4343   20.3313 C   0  0  0  0  0  0
  -26.1753  -18.5506   22.5200 C   0  0  0  0  0  0
  -28.4023  -24.8886   19.5638 C   0  0  0  0  0  0
  -29.0149  -22.2992   19.8896 N   0  0  0  0  0  0
  -29.7229  -16.0118   20.7459 N   0  0  0  0  0  0
  -29.7293  -19.8350   19.9977 O   0  0  0  0  0  0
  -27.4839  -18.1240   22.1670 O   0  0  0  0  0  0
  -31.4818  -12.6467   19.2000 H   0  0  0  0  0  0
  -30.4007  -11.5480   20.0041 H   0  0  0  0  0  0
  -29.8279  -11.7451   17.5576 H   0  0  0  0  0  0
  -29.6354  -13.4733   17.7273 H   0  0  0  0  0  0
  -27.9279  -11.2818   18.9479 H   0  0  0  0  0  0
  -27.3945  -12.4919   17.8091 H   0  0  0  0  0  0
  -27.6243  -14.2575   19.4519 H   0  0  0  0  0  0
  -28.7305  -12.2250   21.4449 H   0  0  0  0  0  0
  -28.3905  -13.9043   21.7816 H   0  0  0  0  0  0
  -25.2769   -9.5691   22.4758 H   0  0  0  0  0  0
  -24.0009   -7.4641   22.7470 H   0  0  0  0  0  0
  -21.0853   -8.8783   19.8948 H   0  0  0  0  0  0
  -22.3711  -10.9678   19.6162 H   0  0  0  0  0  0
  -21.2005   -7.6150   23.9717 H   0  0  0  0  0  0
  -21.1482   -6.0525   25.9079 H   0  0  0  0  0  0
  -22.0596   -2.7612   23.2847 H   0  0  0  0  0  0
  -22.4101  -11.9862   22.4792 H   0  0  0  0  0  0
  -21.1088  -13.1218   22.2632 H   0  0  0  0  0  0
  -24.6688  -15.8577   20.5543 H   0  0  0  0  0  0
  -26.3042  -15.6310   20.1798 H   0  0  0  0  0  0
  -26.7244  -32.5335   23.1017 H   0  0  0  0  0  0
  -25.0050  -33.9640   25.0328 H   0  0  0  0  0  0
  -22.7398  -31.2935   21.3828 H   0  0  0  0  0  0
  -23.3757  -35.9590   23.3299 H   0  0  0  0  0  0
  -24.3575  -36.8902   22.2060 H   0  0  0  0  0  0
  -23.7242  -37.6457   23.6682 H   0  0  0  0  0  0
  -26.1422  -31.4945   20.6128 H   0  0  0  0  0  0
  -26.8620  -30.7835   22.0237 H   0  0  0  0  0  0
  -28.1183  -28.8469   21.2299 H   0  0  0  0  0  0
  -25.9087  -25.8539   19.0236 H   0  0  0  0  0  0
  -23.9759  -27.2937   18.9959 H   0  0  0  0  0  0
  -23.7894  -30.5713   19.3948 H   0  0  0  0  0  0
  -22.7775  -29.2342   19.8481 H   0  0  0  0  0  0
  -25.1310  -36.1876   25.0814 H   0  0  0  0  0  0
  -21.0005  -28.3318   24.1360 H   0  0  0  0  0  0
  -20.5665  -26.2336   23.3627 H   0  0  0  0  0  0
  -21.6649  -26.7431   22.1209 H   0  0  0  0  0  0
  -19.6925  -25.6295   21.1246 H   0  0  0  0  0  0
  -19.6689  -27.3190   20.6733 H   0  0  0  0  0  0
  -17.4206  -26.6682   21.4016 H   0  0  0  0  0  0
  -18.0327  -26.0073   22.9014 H   0  0  0  0  0  0
  -19.7946  -30.7291   24.2245 H   0  0  0  0  0  0
  -17.5026  -31.6270   24.5161 H   0  0  0  0  0  0
  -15.5365  -30.2992   23.7656 H   0  0  0  0  0  0
  -15.8687  -28.0821   22.7075 H   0  0  0  0  0  0
  -24.5899  -30.7086   25.7734 H   0  0  0  0  0  0
  -24.8896  -32.2919   26.4802 H   0  0  0  0  0  0
  -25.8007  -30.8941   27.0221 H   0  0  0  0  0  0
  -26.2998  -29.6694   24.1284 H   0  0  0  0  0  0
  -27.4017  -29.7272   25.4835 H   0  0  0  0  0  0
  -27.8892  -30.4222   23.9570 H   0  0  0  0  0  0
  -27.2649  -33.3647   26.2028 H   0  0  0  0  0  0
  -28.3879  -32.6876   25.0332 H   0  0  0  0  0  0
  -28.0704  -31.8492   26.5445 H   0  0  0  0  0  0
  -28.2594  -38.0085   24.7509 H   0  0  0  0  0  0
  -28.1072  -36.2616   24.6300 H   0  0  0  0  0  0
  -27.2292  -37.1441   25.8870 H   0  0  0  0  0  0
  -20.9437  -29.8745   21.6785 H   0  0  0  0  0  0
  -26.0162  -38.2823   24.1403 H   0  0  0  0  0  0
  -27.2201  -21.0098   21.7441 H   0  0  0  0  0  0
  -30.9238  -17.4012   19.7623 H   0  0  0  0  0  0
  -27.9131  -23.4459   21.2807 H   0  0  0  0  0  0
  -26.2042  -19.3893   23.2166 H   0  0  0  0  0  0
  -25.6451  -17.7332   23.0091 H   0  0  0  0  0  0
  -25.5983  -18.8386   21.6397 H   0  0  0  0  0  0
  -27.6678  -24.8003   18.7679 H   0  0  0  0  0  0
  -29.3408  -24.9465   19.0129 H   0  0  0  0  0  0
  1 25  1  0  0  0
  1 30  2  0  0  0
  1 80  1  0  0  0
  2  3  1  0  0  0
  2 25  1  0  0  0
  2 83  1  0  0  0
  2 84  1  0  0  0
  3  4  1  0  0  0
  3 85  1  0  0  0
  3 86  1  0  0  0
  4  5  1  0  0  0
  4 87  1  0  0  0
  4 88  1  0  0  0
  5  6  1  0  0  0
  5 26  1  0  0  0
  5 89  1  0  0  0
  6 25  1  0  0  0
  6 90  1  0  0  0
  6 91  1  0  0  0
  7  8  2  0  0  0
  7 26  1  0  0  0
  7 29  1  0  0  0
  8  9  1  0  0  0
  8 22  1  0  0  0
  9 10  1  0  0  0
  9 27  2  0  0  0
 10 11  2  0  0  0
 10 15  1  0  0  0
 11 12  1  0  0  0
 11 92  1  0  0  0
 12 13  2  0  0  0
 12 93  1  0  0  0
 13 14  1  0  0  0
 13 31  1  0  0  0
 14 15  2  0  0  0
 14 94  1  0  0  0
 15 95  1  0  0  0
 16 17  2  0  0  0
 16 21  1  0  0  0
 16 31  1  0  0  0
 17 18  1  0  0  0
 17 96  1  0  0  0
 18 19  2  0  0  0
 18 97  1  0  0  0
 19 20  1  0  0  0
 19 24  1  0  0  0
 20 21  2  0  0  0
 20 98  1  0  0  0
 21 23  1  0  0  0
 22 28  1  0  0  0
 22 32  2  0  0  0
 26 27  1  0  0  0
 28 99  1  0  0  0
 28100  1  0  0  0
 29101  1  0  0  0
 29102  1  0  0  0
 33 34  1  0  0  0
 33 66  1  0  0  0
 33 70  2  0  0  0
 34 36  1  0  0  0
 34 59  1  0  0  0
 34103  1  0  0  0
 35 44  2  0  0  0
 35 45  1  0  0  0
 35 68  1  0  0  0
 36 56  1  0  0  0
 36104  1  0  0  0
 37 39  1  0  0  0
 37 47  1  0  0  0
 37 66  1  0  0  0
 37105  1  0  0  0
 38 43  2  0  0  0
 38 46  1  0  0  0
 38 47  1  0  0  0
 39 64  1  0  0  0
 39 67  2  0  0  0
 40 52  1  0  0  0
 40 53  2  0  0  0
 40 58  1  0  0  0
 41106  1  0  0  0
 41107  1  0  0  0
 41108  1  0  0  0
 41 48  1  0  0  0
 42 43  1  0  0  0
 42 66  1  0  0  0
 42109  1  0  0  0
 42110  1  0  0  0
 43 44  1  0  0  0
 44111  1  0  0  0
 45 46  2  0  0  0
 45112  1  0  0  0
 46113  1  0  0  0
 47114  1  0  0  0
 47115  1  0  0  0
 48 56  1  0  0  0
 48 65  1  0  0  0
 48116  1  0  0  0
 49 50  1  0  0  0
 49 53  1  0  0  0
 49 64  1  0  0  0
 49117  1  0  0  0
 50 51  1  0  0  0
 50118  1  0  0  0
 50119  1  0  0  0
 51 52  1  0  0  0
 51120  1  0  0  0
 51121  1  0  0  0
 52122  1  0  0  0
 52123  1  0  0  0
 53 54  1  0  0  0
 54 55  2  0  0  0
 54124  1  0  0  0
 55 57  1  0  0  0
 55125  1  0  0  0
 56 69  2  0  0  0
 57 58  2  0  0  0
 57126  1  0  0  0
 58127  1  0  0  0
 59 60  1  0  0  0
 59 61  1  0  0  0
 59 62  1  0  0  0
 60128  1  0  0  0
 60129  1  0  0  0
 60130  1  0  0  0
 61131  1  0  0  0
 61132  1  0  0  0
 61133  1  0  0  0
 62134  1  0  0  0
 62135  1  0  0  0
 62136  1  0  0  0
 63 65  1  0  0  0
 63137  1  0  0  0
 63138  1  0  0  0
 63139  1  0  0  0
 64140  1  0  0  0
 65141  1  0  0  0
 68 78  1  0  0  0
 71 72  1  0  0  0
 71 74  2  0  0  0
 71142  1  0  0  0
 72 73  2  0  0  0
 72 82  1  0  0  0
 73 75  1  0  0  0
 73 81  1  0  0  0
 74 79  1  0  0  0
 74 81  1  0  0  0
 75 80  2  0  0  0
 75143  1  0  0  0
 76 78  1  0  0  0
 76 79  2  0  0  0
 76144  1  0  0  0
 77 82  1  0  0  0
 77145  1  0  0  0
 77146  1  0  0  0
 77147  1  0  0  0
 78148  1  0  0  0
 78149  1  0  0  0
M  ISO  4   1 100  68 101  78 101  80 100
M  END
> <chiral flag>
0

> <version>
0

> <s_m_source_file>
/data/baiqing/PycharmProjects/Reinvent-master-3.2/result/LINK_invent/BTK/process_docking_weight1_custom_product_contain_oxygen_bond_distance_aromatic_linkinvent_7_9_3/rearranged_h_0111.sdf

> <i_m_source_file_index>
37

> <r_mmod_Potential_Energy-OPLS-2005>
319.484283447266

> <r_mmod_Stretch_Energy-OPLS-2005>
187.01708984375

> <r_mmod_Bend_Energy-OPLS-2005>
222.080444335938

> <r_mmod_Torsional_Energy-OPLS-2005>
167.650268554688

> <r_mmod_Improper_Torsional_Energy-OPLS-2005>
3.76110672950745

> <r_mmod_Van_der_Waal_Energy-OPLS-2005>
120.962707519531

> <r_mmod_Electrostatic_Energy-OPLS-2005>
-316.866729736328

> <r_mmod_Solvation_Energy-OPLS-2005>
-200.937057495117

> <b_mmod_Minimization_Converged-OPLS-2005>
0

> <r_mmod_RMS_Derivative-OPLS-2005>
0.590613424777985

$$$$
38
                    3D
 Structure written by MMmdl.
164173  0  0  1  0            999 V2000
  -30.6440  -14.6375   20.5765 C   0  0  0  0  0  0
  -30.4401  -12.4126   19.4616 C   0  0  0  0  0  0
  -29.5135  -12.5362   18.2297 C   0  0  0  0  0  0
  -28.0342  -12.3595   18.6280 C   0  0  0  0  0  0
  -27.6551  -13.2134   19.8656 C   0  0  2  0  0  0
  -28.6900  -13.0209   20.9920 C   0  0  0  0  0  0
  -25.2550  -13.8152   20.5653 C   0  0  0  0  0  0
  -24.1814  -13.0412   20.9163 C   0  0  0  0  0  0
  -24.6396  -11.6891   20.8719 C   0  0  0  0  0  0
  -23.9068  -10.4278   21.0396 C   0  0  0  0  0  0
  -24.3620   -9.4196   21.9179 C   0  0  0  0  0  0
  -23.6285   -8.2237   22.0762 C   0  0  0  0  0  0
  -22.4265   -8.0283   21.3553 C   0  0  0  0  0  0
  -21.9900   -9.0252   20.4652 C   0  0  0  0  0  0
  -22.7237  -10.2123   20.3048 C   0  0  0  0  0  0
  -21.6846   -6.0734   22.5281 C   0  0  0  0  0  0
  -21.4014   -6.5637   23.8216 C   0  0  0  0  0  0
  -21.3655   -5.6789   24.9175 C   0  0  0  0  0  0
  -21.6042   -4.3053   24.7225 C   0  0  0  0  0  0
  -21.8815   -3.8145   23.4344 C   0  0  0  0  0  0
  -21.9193   -4.6963   22.3402 C   0  0  0  0  0  0
  -22.7840  -13.5208   21.1830 C   0  0  0  0  0  0
  -22.1660   -4.2149   21.0978 F   0  0  0  0  0  0
  -21.5628   -3.4537   25.7738 F   0  0  0  0  0  0
  -30.0127  -13.4133   20.4677 N   0  0  0  0  0  0
  -26.2980  -12.9327   20.3277 N   0  0  0  0  0  0
  -25.9320  -11.6483   20.5718 N   0  0  0  0  0  0
  -22.0486  -12.8207   22.0400 N   0  0  0  0  0  0
  -25.4238  -15.1869   20.4082 N   0  0  0  0  0  0
  -31.7300  -14.8392   20.0215 O   0  0  0  0  0  0
  -21.6631   -6.8879   21.4245 O   0  0  0  0  0  0
  -22.3523  -14.5514   20.6691 O   0  0  0  0  0  0
  -24.6258  -31.8606   23.2025 C   0  0  0  0  0  0
  -25.9111  -32.4780   23.8355 C   0  0  1  0  0  0
  -27.2258  -27.3319   20.0997 C   0  0  0  0  0  0
  -25.5931  -33.8582   24.2284 N   0  0  0  0  0  0
  -23.4171  -30.4855   21.5452 C   0  0  2  0  0  0
  -24.8603  -28.9382   20.1079 C   0  0  0  0  0  0
  -22.7468  -29.4643   22.4948 C   0  0  0  0  0  0
  -18.0299  -28.1389   22.8487 C   0  0  0  0  0  0
  -24.1492  -36.7302   23.2637 C   0  0  0  0  0  0
  -25.9565  -30.7931   21.3697 C   0  0  0  0  0  0
  -26.0278  -29.4220   20.7097 C   0  0  0  0  0  0
  -27.2100  -28.6282   20.6989 C   0  0  0  0  0  0
  -26.0297  -26.8877   19.4903 C   0  0  0  0  0  0
  -24.8616  -27.6753   19.4943 C   0  0  0  0  0  0
  -23.6288  -29.8198   20.1595 C   0  0  0  0  0  0
  -25.4117  -36.3093   24.0330 C   0  0  1  0  0  0
  -20.5890  -28.3699   23.1286 C   0  0  2  0  0  0
  -20.6794  -26.9424   22.5409 C   0  0  0  0  0  0
  -19.5769  -26.6388   21.5214 C   0  0  0  0  0  0
  -18.1949  -26.7929   22.1626 C   0  0  0  0  0  0
  -19.1545  -28.8862   23.2881 C   0  0  0  0  0  0
  -18.9468  -30.1466   23.8897 C   0  0  0  0  0  0
  -17.6464  -30.6587   24.0570 C   0  0  0  0  0  0
  -25.9052  -34.9455   23.5107 C   0  0  0  0  0  0
  -16.5359  -29.9085   23.6332 C   0  0  0  0  0  0
  -16.7282  -28.6507   23.0339 C   0  0  0  0  0  0
  -26.4497  -31.6585   25.0724 C   0  0  0  0  0  0
  -25.3731  -31.3709   26.1448 C   0  0  0  0  0  0
  -27.0335  -30.3016   24.6159 C   0  0  0  0  0  0
  -27.6061  -32.4316   25.7488 C   0  0  0  0  0  0
  -27.5582  -37.1809   24.8466 C   0  0  0  0  0  0
  -21.4182  -29.3064   22.3691 N   0  0  0  0  0  0
  -26.4296  -37.3789   23.9403 N   0  0  0  0  0  0
  -24.6857  -31.0629   22.0965 N   0  0  0  0  0  0
  -23.4199  -28.8187   23.3025 O   0  0  0  0  0  0
  -28.3717  -26.5267   20.1685 O   0  0  0  0  0  0
  -26.5623  -34.8920   22.4675 O   0  0  0  0  0  0
  -23.5429  -32.1397   23.7369 O   0  0  0  0  0  0
  -28.6834  -17.6498   20.2713 C   0  0  0  0  0  0
  -28.3148  -19.0174   20.1096 C   0  0  0  0  0  0
  -30.3527  -19.6869   21.1730 C   0  0  0  0  0  0
  -29.8661  -17.2429   20.9480 C   0  0  0  0  0  0
  -30.7351  -18.3124   21.3600 C   0  0  0  0  0  0
  -29.1198  -20.0792   20.5929 C   0  0  0  0  0  0
  -28.2692  -23.8599   20.3212 C   0  0  0  0  0  0
  -28.8630  -22.6371   20.0307 C   0  0  0  0  0  0
  -27.2669  -23.8844   21.4173 C   0  0  0  0  0  0
  -32.8082  -18.8872   22.6938 C   0  0  0  0  0  0
  -31.9936  -18.0084   22.0825 C   0  0  0  0  0  0
  -29.9891  -15.7824   21.4416 C   0  0  0  0  0  0
  -26.6744  -22.5469   21.8539 C   0  0  0  0  0  0
  -27.7437  -21.4509   21.9270 C   0  0  0  0  0  0
  -29.8391  -22.5073   18.8689 C   0  0  0  0  0  0
  -28.4763  -25.2034   19.5132 C   0  0  0  0  0  0
  -29.5816  -15.5507   22.6202 N   0  0  0  0  0  0
  -28.5892  -21.4136   20.7300 N   0  0  0  0  0  0
  -26.8757  -24.9044   21.9895 O   0  0  0  0  0  0
  -30.3822  -11.4074   19.8826 H   0  0  0  0  0  0
  -31.4825  -12.5390   19.1648 H   0  0  0  0  0  0
  -29.7879  -11.7960   17.4771 H   0  0  0  0  0  0
  -29.6533  -13.5145   17.7658 H   0  0  0  0  0  0
  -27.8755  -11.3039   18.8493 H   0  0  0  0  0  0
  -27.3816  -12.5952   17.7867 H   0  0  0  0  0  0
  -27.6870  -14.2574   19.5548 H   0  0  0  0  0  0
  -28.3781  -13.5588   21.8815 H   0  0  0  0  0  0
  -28.7100  -11.9756   21.3046 H   0  0  0  0  0  0
  -25.2768   -9.5662   22.4750 H   0  0  0  0  0  0
  -23.9989   -7.4622   22.7477 H   0  0  0  0  0  0
  -21.0828   -8.8758   19.8966 H   0  0  0  0  0  0
  -22.3689  -10.9656   19.6152 H   0  0  0  0  0  0
  -21.2012   -7.6144   23.9715 H   0  0  0  0  0  0
  -21.1479   -6.0524   25.9076 H   0  0  0  0  0  0
  -22.0604   -2.7608   23.2844 H   0  0  0  0  0  0
  -22.4103  -11.9883   22.4804 H   0  0  0  0  0  0
  -21.1122  -13.1266   22.2633 H   0  0  0  0  0  0
  -24.6568  -15.8409   20.5241 H   0  0  0  0  0  0
  -26.2751  -15.6242   20.0846 H   0  0  0  0  0  0
  -26.7175  -32.5440   23.1098 H   0  0  0  0  0  0
  -25.0073  -33.9731   25.0425 H   0  0  0  0  0  0
  -22.7105  -31.3065   21.4048 H   0  0  0  0  0  0
  -23.3754  -35.9636   23.3303 H   0  0  0  0  0  0
  -24.3583  -36.8918   22.2051 H   0  0  0  0  0  0
  -23.7234  -37.6502   23.6655 H   0  0  0  0  0  0
  -26.0862  -31.5572   20.6020 H   0  0  0  0  0  0
  -26.8381  -30.8405   21.9974 H   0  0  0  0  0  0
  -28.1086  -28.9963   21.1739 H   0  0  0  0  0  0
  -25.9574  -25.9120   19.0351 H   0  0  0  0  0  0
  -23.9601  -27.2940   19.0345 H   0  0  0  0  0  0
  -23.7462  -30.5967   19.4031 H   0  0  0  0  0  0
  -22.7471  -29.2517   19.8590 H   0  0  0  0  0  0
  -25.1295  -36.1952   25.0825 H   0  0  0  0  0  0
  -20.9986  -28.3270   24.1407 H   0  0  0  0  0  0
  -20.5717  -26.2314   23.3615 H   0  0  0  0  0  0
  -21.6668  -26.7471   22.1208 H   0  0  0  0  0  0
  -19.6933  -25.6299   21.1250 H   0  0  0  0  0  0
  -19.6702  -27.3198   20.6741 H   0  0  0  0  0  0
  -17.4228  -26.6680   21.4020 H   0  0  0  0  0  0
  -18.0344  -26.0072   22.9026 H   0  0  0  0  0  0
  -19.7942  -30.7290   24.2264 H   0  0  0  0  0  0
  -17.5014  -31.6262   24.5179 H   0  0  0  0  0  0
  -15.5359  -30.2982   23.7659 H   0  0  0  0  0  0
  -15.8688  -28.0831   22.7037 H   0  0  0  0  0  0
  -24.5917  -30.7050   25.7769 H   0  0  0  0  0  0
  -24.8911  -32.2870   26.4875 H   0  0  0  0  0  0
  -25.8063  -30.8884   27.0217 H   0  0  0  0  0  0
  -26.2906  -29.6773   24.1183 H   0  0  0  0  0  0
  -27.4039  -29.7264   25.4653 H   0  0  0  0  0  0
  -27.8772  -30.4318   23.9379 H   0  0  0  0  0  0
  -27.2682  -33.3609   26.2081 H   0  0  0  0  0  0
  -28.3860  -32.6878   25.0307 H   0  0  0  0  0  0
  -28.0744  -31.8427   26.5384 H   0  0  0  0  0  0
  -28.2610  -38.0099   24.7512 H   0  0  0  0  0  0
  -28.1067  -36.2629   24.6295 H   0  0  0  0  0  0
  -27.2303  -37.1466   25.8871 H   0  0  0  0  0  0
  -20.9363  -29.8804   21.6917 H   0  0  0  0  0  0
  -26.0181  -38.2869   24.1391 H   0  0  0  0  0  0
  -27.9789  -16.8948   19.9557 H   0  0  0  0  0  0
  -27.3492  -19.2497   19.6817 H   0  0  0  0  0  0
  -30.9720  -20.4802   21.5613 H   0  0  0  0  0  0
  -33.7047  -18.5398   23.1868 H   0  0  0  0  0  0
  -32.6238  -19.9499   22.7298 H   0  0  0  0  0  0
  -32.3001  -16.9723   22.1175 H   0  0  0  0  0  0
  -25.9045  -22.2649   21.1360 H   0  0  0  0  0  0
  -26.1833  -22.6552   22.8204 H   0  0  0  0  0  0
  -27.2417  -20.4953   22.0886 H   0  0  0  0  0  0
  -28.3790  -21.6126   22.7994 H   0  0  0  0  0  0
  -29.4024  -22.9302   17.9629 H   0  0  0  0  0  0
  -30.7607  -23.0520   19.0799 H   0  0  0  0  0  0
  -30.1075  -21.4771   18.6385 H   0  0  0  0  0  0
  -27.8755  -25.1627   18.6066 H   0  0  0  0  0  0
  -29.4988  -25.1774   19.1406 H   0  0  0  0  0  0
  -29.2121  -16.3930   23.0435 H   0  0  0  0  0  0
  1 25  1  0  0  0
  1 30  2  0  0  0
  1 82  1  0  0  0
  2  3  1  0  0  0
  2 25  1  0  0  0
  2 90  1  0  0  0
  2 91  1  0  0  0
  3  4  1  0  0  0
  3 92  1  0  0  0
  3 93  1  0  0  0
  4  5  1  0  0  0
  4 94  1  0  0  0
  4 95  1  0  0  0
  5  6  1  0  0  0
  5 26  1  0  0  0
  5 96  1  0  0  0
  6 25  1  0  0  0
  6 97  1  0  0  0
  6 98  1  0  0  0
  7  8  2  0  0  0
  7 26  1  0  0  0
  7 29  1  0  0  0
  8  9  1  0  0  0
  8 22  1  0  0  0
  9 10  1  0  0  0
  9 27  2  0  0  0
 10 11  2  0  0  0
 10 15  1  0  0  0
 11 12  1  0  0  0
 11 99  1  0  0  0
 12 13  2  0  0  0
 12100  1  0  0  0
 13 14  1  0  0  0
 13 31  1  0  0  0
 14 15  2  0  0  0
 14101  1  0  0  0
 15102  1  0  0  0
 16 17  2  0  0  0
 16 21  1  0  0  0
 16 31  1  0  0  0
 17 18  1  0  0  0
 17103  1  0  0  0
 18 19  2  0  0  0
 18104  1  0  0  0
 19 20  1  0  0  0
 19 24  1  0  0  0
 20 21  2  0  0  0
 20105  1  0  0  0
 21 23  1  0  0  0
 22 28  1  0  0  0
 22 32  2  0  0  0
 26 27  1  0  0  0
 28106  1  0  0  0
 28107  1  0  0  0
 29108  1  0  0  0
 29109  1  0  0  0
 33 34  1  0  0  0
 33 66  1  0  0  0
 33 70  2  0  0  0
 34 36  1  0  0  0
 34 59  1  0  0  0
 34110  1  0  0  0
 35 44  2  0  0  0
 35 45  1  0  0  0
 35 68  1  0  0  0
 36 56  1  0  0  0
 36111  1  0  0  0
 37 39  1  0  0  0
 37 47  1  0  0  0
 37 66  1  0  0  0
 37112  1  0  0  0
 38 43  2  0  0  0
 38 46  1  0  0  0
 38 47  1  0  0  0
 39 64  1  0  0  0
 39 67  2  0  0  0
 40 52  1  0  0  0
 40 53  2  0  0  0
 40 58  1  0  0  0
 41113  1  0  0  0
 41114  1  0  0  0
 41115  1  0  0  0
 41 48  1  0  0  0
 42 43  1  0  0  0
 42 66  1  0  0  0
 42116  1  0  0  0
 42117  1  0  0  0
 43 44  1  0  0  0
 44118  1  0  0  0
 45 46  2  0  0  0
 45119  1  0  0  0
 46120  1  0  0  0
 47121  1  0  0  0
 47122  1  0  0  0
 48 56  1  0  0  0
 48 65  1  0  0  0
 48123  1  0  0  0
 49 50  1  0  0  0
 49 53  1  0  0  0
 49 64  1  0  0  0
 49124  1  0  0  0
 50 51  1  0  0  0
 50125  1  0  0  0
 50126  1  0  0  0
 51 52  1  0  0  0
 51127  1  0  0  0
 51128  1  0  0  0
 52129  1  0  0  0
 52130  1  0  0  0
 53 54  1  0  0  0
 54 55  2  0  0  0
 54131  1  0  0  0
 55 57  1  0  0  0
 55132  1  0  0  0
 56 69  2  0  0  0
 57 58  2  0  0  0
 57133  1  0  0  0
 58134  1  0  0  0
 59 60  1  0  0  0
 59 61  1  0  0  0
 59 62  1  0  0  0
 60135  1  0  0  0
 60136  1  0  0  0
 60137  1  0  0  0
 61138  1  0  0  0
 61139  1  0  0  0
 61140  1  0  0  0
 62141  1  0  0  0
 62142  1  0  0  0
 62143  1  0  0  0
 63 65  1  0  0  0
 63144  1  0  0  0
 63145  1  0  0  0
 63146  1  0  0  0
 64147  1  0  0  0
 65148  1  0  0  0
 68 86  1  0  0  0
 71 72  2  0  0  0
 71 74  1  0  0  0
 71149  1  0  0  0
 72 76  1  0  0  0
 72150  1  0  0  0
 73 75  1  0  0  0
 73 76  2  0  0  0
 73151  1  0  0  0
 74 75  2  0  0  0
 74 82  1  0  0  0
 75 81  1  0  0  0
 76 88  1  0  0  0
 77 78  2  0  0  0
 77 79  1  0  0  0
 77 86  1  0  0  0
 78 85  1  0  0  0
 78 88  1  0  0  0
 79 83  1  0  0  0
 79 89  2  0  0  0
 80 81  2  0  0  0
 80152  1  0  0  0
 80153  1  0  0  0
 81154  1  0  0  0
 82 87  2  0  0  0
 83 84  1  0  0  0
 83155  1  0  0  0
 83156  1  0  0  0
 84 88  1  0  0  0
 84157  1  0  0  0
 84158  1  0  0  0
 85159  1  0  0  0
 85160  1  0  0  0
 85161  1  0  0  0
 86162  1  0  0  0
 86163  1  0  0  0
 87164  1  0  0  0
M  ISO  4   1 100  68 101  82 100  86 101
M  END
> <chiral flag>
0

> <version>
0

> <s_m_source_file>
/data/baiqing/PycharmProjects/Reinvent-master-3.2/result/LINK_invent/BTK/process_docking_weight1_custom_product_contain_oxygen_bond_distance_aromatic_linkinvent_7_9_3/rearranged_h_0111.sdf

> <i_m_source_file_index>
38

> <r_mmod_Potential_Energy-OPLS-2005>
299.950775146484

> <r_mmod_Stretch_Energy-OPLS-2005>
98.7978515625

> <r_mmod_Bend_Energy-OPLS-2005>
160.686614990234

> <r_mmod_Torsional_Energy-OPLS-2005>
237.237457275391

> <r_mmod_Improper_Torsional_Energy-OPLS-2005>
6.72080755233765

> <r_mmod_Van_der_Waal_Energy-OPLS-2005>
161.942657470703

> <r_mmod_Electrostatic_Energy-OPLS-2005>
-193.704238891602

> <r_mmod_Solvation_Energy-OPLS-2005>
-214.868423461914

> <b_mmod_Minimization_Converged-OPLS-2005>
0

> <r_mmod_RMS_Derivative-OPLS-2005>
1.53871917724609

$$$$
39
                    3D
 Structure written by MMmdl.
156164  0  0  1  0            999 V2000
  -30.6382  -14.7136   20.4457 C   0  0  0  0  0  0
  -30.4258  -12.4306   19.4765 C   0  0  0  0  0  0
  -29.5080  -12.5007   18.2369 C   0  0  0  0  0  0
  -28.0333  -12.3340   18.6495 C   0  0  0  0  0  0
  -27.6431  -13.2340   19.8529 C   0  0  2  0  0  0
  -28.6878  -13.1662   20.9888 C   0  0  0  0  0  0
  -25.2511  -13.8205   20.5705 C   0  0  0  0  0  0
  -24.1798  -13.0444   20.9196 C   0  0  0  0  0  0
  -24.6396  -11.6924   20.8743 C   0  0  0  0  0  0
  -23.9074  -10.4296   21.0403 C   0  0  0  0  0  0
  -24.3623   -9.4211   21.9182 C   0  0  0  0  0  0
  -23.6295   -8.2246   22.0754 C   0  0  0  0  0  0
  -22.4277   -8.0284   21.3544 C   0  0  0  0  0  0
  -21.9915   -9.0257   20.4646 C   0  0  0  0  0  0
  -22.7245  -10.2135   20.3054 C   0  0  0  0  0  0
  -21.6855   -6.0736   22.5278 C   0  0  0  0  0  0
  -21.4016   -6.5640   23.8211 C   0  0  0  0  0  0
  -21.3660   -5.6792   24.9173 C   0  0  0  0  0  0
  -21.6044   -4.3055   24.7224 C   0  0  0  0  0  0
  -21.8819   -3.8146   23.4345 C   0  0  0  0  0  0
  -21.9194   -4.6963   22.3401 C   0  0  0  0  0  0
  -22.7818  -13.5220   21.1859 C   0  0  0  0  0  0
  -22.1661   -4.2149   21.0978 F   0  0  0  0  0  0
  -21.5629   -3.4539   25.7736 F   0  0  0  0  0  0
  -29.9942  -13.4984   20.4078 N   0  0  0  0  0  0
  -26.2947  -12.9421   20.3304 N   0  0  0  0  0  0
  -25.9331  -11.6558   20.5762 N   0  0  0  0  0  0
  -22.0472  -12.8206   22.0419 N   0  0  0  0  0  0
  -25.4199  -15.1931   20.4152 N   0  0  0  0  0  0
  -31.8332  -14.7700   20.1452 O   0  0  0  0  0  0
  -21.6642   -6.8879   21.4240 O   0  0  0  0  0  0
  -22.3496  -14.5524   20.6710 O   0  0  0  0  0  0
  -24.6308  -31.8566   23.2011 C   0  0  0  0  0  0
  -25.9139  -32.4762   23.8347 C   0  0  1  0  0  0
  -27.2133  -27.2702   20.1213 C   0  0  0  0  0  0
  -25.5939  -33.8565   24.2268 N   0  0  0  0  0  0
  -23.4264  -30.4821   21.5445 C   0  0  2  0  0  0
  -24.8723  -28.9369   20.1076 C   0  0  0  0  0  0
  -22.7501  -29.4611   22.4914 C   0  0  0  0  0  0
  -18.0291  -28.1387   22.8484 C   0  0  0  0  0  0
  -24.1490  -36.7286   23.2639 C   0  0  0  0  0  0
  -25.9733  -30.7713   21.3821 C   0  0  0  0  0  0
  -26.0445  -29.3965   20.7213 C   0  0  0  0  0  0
  -27.2172  -28.5746   20.7211 C   0  0  0  0  0  0
  -26.0199  -26.8896   19.4621 C   0  0  0  0  0  0
  -24.8652  -27.6912   19.4673 C   0  0  0  0  0  0
  -23.6434  -29.8222   20.1586 C   0  0  0  0  0  0
  -25.4116  -36.3073   24.0326 C   0  0  1  0  0  0
  -20.5895  -28.3697   23.1268 C   0  0  2  0  0  0
  -20.6779  -26.9416   22.5407 C   0  0  0  0  0  0
  -19.5755  -26.6384   21.5212 C   0  0  0  0  0  0
  -18.1934  -26.7929   22.1624 C   0  0  0  0  0  0
  -19.1545  -28.8860   23.2871 C   0  0  0  0  0  0
  -18.9466  -30.1461   23.8890 C   0  0  0  0  0  0
  -17.6465  -30.6588   24.0564 C   0  0  0  0  0  0
  -25.9055  -34.9443   23.5096 C   0  0  0  0  0  0
  -16.5356  -29.9085   23.6334 C   0  0  0  0  0  0
  -16.7278  -28.6502   23.0354 C   0  0  0  0  0  0
  -26.4505  -31.6584   25.0735 C   0  0  0  0  0  0
  -25.3726  -31.3735   26.1454 C   0  0  0  0  0  0
  -27.0357  -30.3000   24.6226 C   0  0  0  0  0  0
  -27.6056  -32.4329   25.7507 C   0  0  0  0  0  0
  -27.5577  -37.1801   24.8466 C   0  0  0  0  0  0
  -21.4208  -29.3046   22.3658 N   0  0  0  0  0  0
  -26.4292  -37.3771   23.9406 N   0  0  0  0  0  0
  -24.6959  -31.0542   22.0985 N   0  0  0  0  0  0
  -23.4206  -28.8144   23.3003 O   0  0  0  0  0  0
  -28.2938  -26.3596   20.1999 O   0  0  0  0  0  0
  -26.5627  -34.8914   22.4665 O   0  0  0  0  0  0
  -23.5460  -32.1384   23.7310 O   0  0  0  0  0  0
  -31.3858  -18.8601   18.8006 C   0  0  0  0  0  0
  -31.1378  -17.5470   19.2425 C   0  0  0  0  0  0
  -30.6882  -19.9610   19.3325 C   0  0  0  0  0  0
  -30.1728  -17.2709   20.2393 C   0  0  0  0  0  0
  -29.7014  -19.8070   20.3295 C   0  0  0  0  0  0
  -29.4473  -18.4217   20.7548 C   0  0  0  0  0  0
  -28.9464  -23.7639   20.4680 C   0  0  0  0  0  0
  -28.7300  -21.0586   22.2654 C   0  0  0  0  0  0
  -28.7278  -22.2424   19.9934 C   0  0  0  0  0  0
  -28.0098  -24.9164   19.8851 C   0  0  0  0  0  0
  -28.4472  -18.1465   21.6862 N   0  0  0  0  0  0
  -29.8940  -15.8666   20.6448 N   0  0  0  0  0  0
  -29.1029  -21.0335   20.8505 N   0  0  0  0  0  0
  -29.8439  -24.0400   21.2714 O   0  0  0  0  0  0
  -31.4696  -12.5341   19.1753 H   0  0  0  0  0  0
  -30.3517  -11.4544   19.9581 H   0  0  0  0  0  0
  -29.7842  -11.7281   17.5179 H   0  0  0  0  0  0
  -29.6436  -13.4563   17.7280 H   0  0  0  0  0  0
  -27.8844  -11.2855   18.9102 H   0  0  0  0  0  0
  -27.3772  -12.5312   17.8009 H   0  0  0  0  0  0
  -27.6389  -14.2566   19.4743 H   0  0  0  0  0  0
  -28.7124  -12.1715   21.4361 H   0  0  0  0  0  0
  -28.4301  -13.8573   21.7930 H   0  0  0  0  0  0
  -25.2768   -9.5686   22.4757 H   0  0  0  0  0  0
  -24.0004   -7.4639   22.7475 H   0  0  0  0  0  0
  -21.0846   -8.8776   19.8951 H   0  0  0  0  0  0
  -22.3704  -10.9673   19.6162 H   0  0  0  0  0  0
  -21.2009   -7.6150   23.9714 H   0  0  0  0  0  0
  -21.1481   -6.0523   25.9075 H   0  0  0  0  0  0
  -22.0598   -2.7609   23.2845 H   0  0  0  0  0  0
  -22.4097  -11.9870   22.4803 H   0  0  0  0  0  0
  -21.1089  -13.1222   22.2631 H   0  0  0  0  0  0
  -24.6590  -15.8500   20.5488 H   0  0  0  0  0  0
  -26.2816  -15.6436   20.1328 H   0  0  0  0  0  0
  -26.7204  -32.5413   23.1088 H   0  0  0  0  0  0
  -25.0087  -33.9705   25.0414 H   0  0  0  0  0  0
  -22.7225  -31.3045   21.4020 H   0  0  0  0  0  0
  -23.3751  -35.9621   23.3306 H   0  0  0  0  0  0
  -24.3580  -36.8904   22.2054 H   0  0  0  0  0  0
  -23.7245  -37.6488   23.6662 H   0  0  0  0  0  0
  -26.1149  -31.5335   20.6146 H   0  0  0  0  0  0
  -26.8504  -30.8166   22.0161 H   0  0  0  0  0  0
  -28.1108  -28.9179   21.2235 H   0  0  0  0  0  0
  -25.9359  -25.9475   18.9421 H   0  0  0  0  0  0
  -23.9706  -27.3382   18.9728 H   0  0  0  0  0  0
  -23.7670  -30.6015   19.4058 H   0  0  0  0  0  0
  -22.7617  -29.2565   19.8521 H   0  0  0  0  0  0
  -25.1296  -36.1923   25.0818 H   0  0  0  0  0  0
  -20.9987  -28.3274   24.1389 H   0  0  0  0  0  0
  -20.5683  -26.2307   23.3610 H   0  0  0  0  0  0
  -21.6646  -26.7442   22.1197 H   0  0  0  0  0  0
  -19.6917  -25.6294   21.1244 H   0  0  0  0  0  0
  -19.6691  -27.3193   20.6741 H   0  0  0  0  0  0
  -17.4203  -26.6677   21.4028 H   0  0  0  0  0  0
  -18.0336  -26.0072   22.9021 H   0  0  0  0  0  0
  -19.7942  -30.7280   24.2253 H   0  0  0  0  0  0
  -17.5019  -31.6267   24.5168 H   0  0  0  0  0  0
  -15.5356  -30.2987   23.7661 H   0  0  0  0  0  0
  -15.8677  -28.0821   22.7073 H   0  0  0  0  0  0
  -24.5909  -30.7075   25.7784 H   0  0  0  0  0  0
  -24.8911  -32.2906   26.4859 H   0  0  0  0  0  0
  -25.8043  -30.8929   27.0244 H   0  0  0  0  0  0
  -26.2946  -29.6745   24.1238 H   0  0  0  0  0  0
  -27.4021  -29.7266   25.4751 H   0  0  0  0  0  0
  -27.8832  -30.4270   23.9487 H   0  0  0  0  0  0
  -27.2660  -33.3636   26.2066 H   0  0  0  0  0  0
  -28.3878  -32.6879   25.0344 H   0  0  0  0  0  0
  -28.0715  -31.8470   26.5441 H   0  0  0  0  0  0
  -28.2596  -38.0095   24.7505 H   0  0  0  0  0  0
  -28.1070  -36.2626   24.6301 H   0  0  0  0  0  0
  -27.2295  -37.1459   25.8869 H   0  0  0  0  0  0
  -20.9392  -29.8777   21.6872 H   0  0  0  0  0  0
  -26.0170  -38.2845   24.1403 H   0  0  0  0  0  0
  -32.1346  -19.0281   18.0391 H   0  0  0  0  0  0
  -31.7011  -16.7553   18.7727 H   0  0  0  0  0  0
  -30.9562  -20.9435   18.9740 H   0  0  0  0  0  0
  -29.3818  -20.4227   22.8670 H   0  0  0  0  0  0
  -27.6982  -20.7309   22.4002 H   0  0  0  0  0  0
  -28.8048  -22.0585   22.6917 H   0  0  0  0  0  0
  -29.2060  -22.1586   19.0186 H   0  0  0  0  0  0
  -27.6622  -22.1487   19.7811 H   0  0  0  0  0  0
  -27.0165  -24.6663   20.2575 H   0  0  0  0  0  0
  -27.9773  -24.8010   18.8016 H   0  0  0  0  0  0
  -28.6620  -17.4183   22.3554 H   0  0  0  0  0  0
  -28.0761  -18.9729   22.1369 H   0  0  0  0  0  0
  -28.9646  -15.7195   21.0068 H   0  0  0  0  0  0
  1 25  1  0  0  0
  1 30  2  0  0  0
  1 82  1  0  0  0
  2  3  1  0  0  0
  2 25  1  0  0  0
  2 85  1  0  0  0
  2 86  1  0  0  0
  3  4  1  0  0  0
  3 87  1  0  0  0
  3 88  1  0  0  0
  4  5  1  0  0  0
  4 89  1  0  0  0
  4 90  1  0  0  0
  5  6  1  0  0  0
  5 26  1  0  0  0
  5 91  1  0  0  0
  6 25  1  0  0  0
  6 92  1  0  0  0
  6 93  1  0  0  0
  7  8  2  0  0  0
  7 26  1  0  0  0
  7 29  1  0  0  0
  8  9  1  0  0  0
  8 22  1  0  0  0
  9 10  1  0  0  0
  9 27  2  0  0  0
 10 11  2  0  0  0
 10 15  1  0  0  0
 11 12  1  0  0  0
 11 94  1  0  0  0
 12 13  2  0  0  0
 12 95  1  0  0  0
 13 14  1  0  0  0
 13 31  1  0  0  0
 14 15  2  0  0  0
 14 96  1  0  0  0
 15 97  1  0  0  0
 16 17  2  0  0  0
 16 21  1  0  0  0
 16 31  1  0  0  0
 17 18  1  0  0  0
 17 98  1  0  0  0
 18 19  2  0  0  0
 18 99  1  0  0  0
 19 20  1  0  0  0
 19 24  1  0  0  0
 20 21  2  0  0  0
 20100  1  0  0  0
 21 23  1  0  0  0
 22 28  1  0  0  0
 22 32  2  0  0  0
 26 27  1  0  0  0
 28101  1  0  0  0
 28102  1  0  0  0
 29103  1  0  0  0
 29104  1  0  0  0
 33 34  1  0  0  0
 33 66  1  0  0  0
 33 70  2  0  0  0
 34 36  1  0  0  0
 34 59  1  0  0  0
 34105  1  0  0  0
 35 44  2  0  0  0
 35 45  1  0  0  0
 35 68  1  0  0  0
 36 56  1  0  0  0
 36106  1  0  0  0
 37 39  1  0  0  0
 37 47  1  0  0  0
 37 66  1  0  0  0
 37107  1  0  0  0
 38 43  2  0  0  0
 38 46  1  0  0  0
 38 47  1  0  0  0
 39 64  1  0  0  0
 39 67  2  0  0  0
 40 52  1  0  0  0
 40 53  2  0  0  0
 40 58  1  0  0  0
 41108  1  0  0  0
 41109  1  0  0  0
 41110  1  0  0  0
 41 48  1  0  0  0
 42 43  1  0  0  0
 42 66  1  0  0  0
 42111  1  0  0  0
 42112  1  0  0  0
 43 44  1  0  0  0
 44113  1  0  0  0
 45 46  2  0  0  0
 45114  1  0  0  0
 46115  1  0  0  0
 47116  1  0  0  0
 47117  1  0  0  0
 48 56  1  0  0  0
 48 65  1  0  0  0
 48118  1  0  0  0
 49 50  1  0  0  0
 49 53  1  0  0  0
 49 64  1  0  0  0
 49119  1  0  0  0
 50 51  1  0  0  0
 50120  1  0  0  0
 50121  1  0  0  0
 51 52  1  0  0  0
 51122  1  0  0  0
 51123  1  0  0  0
 52124  1  0  0  0
 52125  1  0  0  0
 53 54  1  0  0  0
 54 55  2  0  0  0
 54126  1  0  0  0
 55 57  1  0  0  0
 55127  1  0  0  0
 56 69  2  0  0  0
 57 58  2  0  0  0
 57128  1  0  0  0
 58129  1  0  0  0
 59 60  1  0  0  0
 59 61  1  0  0  0
 59 62  1  0  0  0
 60130  1  0  0  0
 60131  1  0  0  0
 60132  1  0  0  0
 61133  1  0  0  0
 61134  1  0  0  0
 61135  1  0  0  0
 62136  1  0  0  0
 62137  1  0  0  0
 62138  1  0  0  0
 63 65  1  0  0  0
 63139  1  0  0  0
 63140  1  0  0  0
 63141  1  0  0  0
 64142  1  0  0  0
 65143  1  0  0  0
 68 80  1  0  0  0
 71 72  2  0  0  0
 71 73  1  0  0  0
 71144  1  0  0  0
 72 74  1  0  0  0
 72145  1  0  0  0
 73 75  2  0  0  0
 73146  1  0  0  0
 74 76  2  0  0  0
 74 82  1  0  0  0
 75 76  1  0  0  0
 75 83  1  0  0  0
 76 81  1  0  0  0
 77 79  1  0  0  0
 77 80  1  0  0  0
 77 84  2  0  0  0
 78 83  1  0  0  0
 78147  1  0  0  0
 78148  1  0  0  0
 78149  1  0  0  0
 79 83  1  0  0  0
 79150  1  0  0  0
 79151  1  0  0  0
 80152  1  0  0  0
 80153  1  0  0  0
 81154  1  0  0  0
 81155  1  0  0  0
 82156  1  0  0  0
M  ISO  4   1 100  68 101  80 101  82 100
M  END
> <chiral flag>
0

> <version>
0

> <s_m_source_file>
/data/baiqing/PycharmProjects/Reinvent-master-3.2/result/LINK_invent/BTK/process_docking_weight1_custom_product_contain_oxygen_bond_distance_aromatic_linkinvent_7_9_3/rearranged_h_0111.sdf

> <i_m_source_file_index>
39

> <r_mmod_Potential_Energy-OPLS-2005>
108.014831542969

> <r_mmod_Stretch_Energy-OPLS-2005>
124.131790161133

> <r_mmod_Bend_Energy-OPLS-2005>
169.484176635742

> <r_mmod_Torsional_Energy-OPLS-2005>
222.588790893555

> <r_mmod_Improper_Torsional_Energy-OPLS-2005>
9.05905532836914

> <r_mmod_Van_der_Waal_Energy-OPLS-2005>
156.269439697266

> <r_mmod_Electrostatic_Energy-OPLS-2005>
-401.325958251953

> <r_mmod_Solvation_Energy-OPLS-2005>
-251.759567260742

> <b_mmod_Minimization_Converged-OPLS-2005>
0

> <r_mmod_RMS_Derivative-OPLS-2005>
0.275679379701614

$$$$
40
                    3D
 Structure written by MMmdl.
158166  0  0  1  0            999 V2000
  -30.6230  -14.7553   20.4731 C   0  0  0  0  0  0
  -30.4280  -12.4669   19.4801 C   0  0  0  0  0  0
  -29.5088  -12.5307   18.2415 C   0  0  0  0  0  0
  -28.0364  -12.3509   18.6542 C   0  0  0  0  0  0
  -27.6474  -13.2336   19.8695 C   0  0  2  0  0  0
  -28.6929  -13.1705   21.0045 C   0  0  0  0  0  0
  -25.2558  -13.8218   20.5737 C   0  0  0  0  0  0
  -24.1814  -13.0471   20.9154 C   0  0  0  0  0  0
  -24.6415  -11.6950   20.8729 C   0  0  0  0  0  0
  -23.9123  -10.4318   21.0429 C   0  0  0  0  0  0
  -24.3657   -9.4233   21.9214 C   0  0  0  0  0  0
  -23.6323   -8.2261   22.0758 C   0  0  0  0  0  0
  -22.4299   -8.0311   21.3560 C   0  0  0  0  0  0
  -21.9951   -9.0292   20.4656 C   0  0  0  0  0  0
  -22.7286  -10.2156   20.3080 C   0  0  0  0  0  0
  -21.6873   -6.0781   22.5287 C   0  0  0  0  0  0
  -21.4046   -6.5692   23.8210 C   0  0  0  0  0  0
  -21.3656   -5.6823   24.9168 C   0  0  0  0  0  0
  -21.6008   -4.3090   24.7208 C   0  0  0  0  0  0
  -21.8836   -3.8189   23.4336 C   0  0  0  0  0  0
  -21.9195   -4.7014   22.3390 C   0  0  0  0  0  0
  -22.7828  -13.5266   21.1822 C   0  0  0  0  0  0
  -22.1676   -4.2211   21.0965 F   0  0  0  0  0  0
  -21.5584   -3.4555   25.7712 F   0  0  0  0  0  0
  -29.9947  -13.5261   20.4253 N   0  0  0  0  0  0
  -26.2995  -12.9415   20.3396 N   0  0  0  0  0  0
  -25.9349  -11.6567   20.5796 N   0  0  0  0  0  0
  -22.0492  -12.8223   22.0365 N   0  0  0  0  0  0
  -25.4312  -15.1938   20.4253 N   0  0  0  0  0  0
  -31.7773  -14.8605   20.0437 O   0  0  0  0  0  0
  -21.6670   -6.8910   21.4240 O   0  0  0  0  0  0
  -22.3540  -14.5608   20.6740 O   0  0  0  0  0  0
  -24.6367  -31.8476   23.1922 C   0  0  0  0  0  0
  -25.9186  -32.4697   23.8257 C   0  0  1  0  0  0
  -27.2327  -27.2330   20.1025 C   0  0  0  0  0  0
  -25.5952  -33.8504   24.2141 N   0  0  0  0  0  0
  -23.4343  -30.4704   21.5312 C   0  0  2  0  0  0
  -24.8831  -28.9064   20.1107 C   0  0  0  0  0  0
  -22.7481  -29.4584   22.4832 C   0  0  0  0  0  0
  -18.0309  -28.1318   22.8453 C   0  0  0  0  0  0
  -24.1487  -36.7255   23.2639 C   0  0  0  0  0  0
  -25.9874  -30.7462   21.3854 C   0  0  0  0  0  0
  -26.0570  -29.3716   20.7158 C   0  0  0  0  0  0
  -27.2296  -28.5445   20.7005 C   0  0  0  0  0  0
  -26.0248  -26.8431   19.4812 C   0  0  0  0  0  0
  -24.8725  -27.6515   19.4885 C   0  0  0  0  0  0
  -23.6552  -29.7934   20.1528 C   0  0  0  0  0  0
  -25.4126  -36.3021   24.0288 C   0  0  1  0  0  0
  -20.5911  -28.3544   23.1119 C   0  0  2  0  0  0
  -20.6711  -26.9275   22.5159 C   0  0  0  0  0  0
  -19.5622  -26.6389   21.5018 C   0  0  0  0  0  0
  -18.1903  -26.7829   22.1670 C   0  0  0  0  0  0
  -19.1584  -28.8764   23.2804 C   0  0  0  0  0  0
  -18.9528  -30.1357   23.8848 C   0  0  0  0  0  0
  -17.6503  -30.6448   24.0629 C   0  0  0  0  0  0
  -25.9056  -34.9388   23.5006 C   0  0  0  0  0  0
  -16.5380  -29.8982   23.6343 C   0  0  0  0  0  0
  -16.7317  -28.6439   23.0296 C   0  0  0  0  0  0
  -26.4489  -31.6582   25.0709 C   0  0  0  0  0  0
  -25.3665  -31.3848   26.1416 C   0  0  0  0  0  0
  -27.0355  -30.2950   24.6345 C   0  0  0  0  0  0
  -27.5976  -32.4370   25.7531 C   0  0  0  0  0  0
  -27.5546  -37.1788   24.8447 C   0  0  0  0  0  0
  -21.4223  -29.2837   22.3421 N   0  0  0  0  0  0
  -26.4278  -37.3729   23.9378 N   0  0  0  0  0  0
  -24.7038  -31.0446   22.0900 N   0  0  0  0  0  0
  -23.4168  -28.8285   23.3091 O   0  0  0  0  0  0
  -28.3510  -26.3539   20.1607 O   0  0  0  0  0  0
  -26.5642  -34.8889   22.4582 O   0  0  0  0  0  0
  -23.5501  -32.1310   23.7165 O   0  0  0  0  0  0
  -28.8272  -16.8788   18.9580 C   0  0  0  0  0  0
  -29.4858  -18.4680   20.6627 C   0  0  0  0  0  0
  -28.1388  -17.9037   18.2758 C   0  0  0  0  0  0
  -28.8848  -19.5983   19.9592 C   0  0  0  0  0  0
  -29.4773  -17.0909   20.1851 C   0  0  0  0  0  0
  -28.1762  -19.2489   18.7671 C   0  0  0  0  0  0
  -28.8594  -22.1440   19.8968 C   0  0  0  0  0  0
  -27.3452  -17.4648   17.0637 C   0  0  0  0  0  0
  -29.8369  -23.9157   21.5120 C   0  0  0  0  0  0
  -28.3906  -24.9272   19.6252 C   0  0  0  0  0  0
  -28.6645  -23.6153   20.5621 C   0  0  1  0  0  0
  -28.8495  -20.9663   20.5137 N   0  0  0  0  0  0
  -26.1422  -17.9911   16.8938 N   0  0  0  0  0  0
  -29.9527  -15.8875   20.9184 N   0  0  0  0  0  0
  -27.7439  -16.5580   16.3340 O   0  0  0  0  0  0
  -27.4389  -20.2255   18.1629 O   0  0  0  0  0  0
  -31.4701  -12.5870   19.1793 H   0  0  0  0  0  0
  -30.3690  -11.4880   19.9555 H   0  0  0  0  0  0
  -29.7936  -11.7654   17.5194 H   0  0  0  0  0  0
  -29.6343  -13.4905   17.7355 H   0  0  0  0  0  0
  -27.8834  -11.2993   18.8943 H   0  0  0  0  0  0
  -27.3804  -12.5729   17.8101 H   0  0  0  0  0  0
  -27.6392  -14.2590   19.5084 H   0  0  0  0  0  0
  -28.7259  -12.1760   21.4470 H   0  0  0  0  0  0
  -28.4298  -13.8553   21.8098 H   0  0  0  0  0  0
  -25.2797   -9.5703   22.4810 H   0  0  0  0  0  0
  -24.0052   -7.4648   22.7480 H   0  0  0  0  0  0
  -21.0883   -8.8832   19.8963 H   0  0  0  0  0  0
  -22.3765  -10.9718   19.6194 H   0  0  0  0  0  0
  -21.2110   -7.6211   23.9737 H   0  0  0  0  0  0
  -21.1426   -6.0565   25.9064 H   0  0  0  0  0  0
  -22.0620   -2.7667   23.2815 H   0  0  0  0  0  0
  -22.4142  -11.9891   22.4710 H   0  0  0  0  0  0
  -21.1113  -13.1233   22.2559 H   0  0  0  0  0  0
  -24.6908  -15.8611   20.6057 H   0  0  0  0  0  0
  -26.3188  -15.6289   20.2148 H   0  0  0  0  0  0
  -26.7243  -32.5261   23.0969 H   0  0  0  0  0  0
  -25.0083  -33.9621   25.0265 H   0  0  0  0  0  0
  -22.7362  -31.2945   21.3677 H   0  0  0  0  0  0
  -23.3721  -35.9603   23.3317 H   0  0  0  0  0  0
  -24.3572  -36.8896   22.2052 H   0  0  0  0  0  0
  -23.7288  -37.6468   23.6676 H   0  0  0  0  0  0
  -26.1438  -31.5118   20.6257 H   0  0  0  0  0  0
  -26.8670  -30.7829   22.0234 H   0  0  0  0  0  0
  -28.1324  -28.8926   21.1827 H   0  0  0  0  0  0
  -25.9156  -25.8902   18.9961 H   0  0  0  0  0  0
  -23.9735  -27.2830   19.0156 H   0  0  0  0  0  0
  -23.7738  -30.5524   19.3793 H   0  0  0  0  0  0
  -22.7760  -29.2182   19.8577 H   0  0  0  0  0  0
  -25.1324  -36.1812   25.0777 H   0  0  0  0  0  0
  -21.0037  -28.3018   24.1222 H   0  0  0  0  0  0
  -20.5629  -26.2114   23.3318 H   0  0  0  0  0  0
  -21.6545  -26.7265   22.0895 H   0  0  0  0  0  0
  -19.6767  -25.6407   21.0761 H   0  0  0  0  0  0
  -19.6392  -27.3417   20.6704 H   0  0  0  0  0  0
  -17.3977  -26.6436   21.4310 H   0  0  0  0  0  0
  -18.0604  -26.0041   22.9226 H   0  0  0  0  0  0
  -19.8036  -30.7143   24.2219 H   0  0  0  0  0  0
  -17.5042  -31.6073   24.5364 H   0  0  0  0  0  0
  -15.5342  -30.2797   23.7702 H   0  0  0  0  0  0
  -15.8735  -28.0760   22.6900 H   0  0  0  0  0  0
  -24.5784  -30.7258   25.7767 H   0  0  0  0  0  0
  -24.8945  -32.3093   26.4737 H   0  0  0  0  0  0
  -25.7968  -30.9079   27.0234 H   0  0  0  0  0  0
  -26.3024  -29.6709   24.1254 H   0  0  0  0  0  0
  -27.3799  -29.7230   25.4972 H   0  0  0  0  0  0
  -27.8967  -30.4130   23.9781 H   0  0  0  0  0  0
  -27.2481  -33.3631   26.2087 H   0  0  0  0  0  0
  -28.3836  -32.7037   25.0459 H   0  0  0  0  0  0
  -28.0577  -31.8542   26.5511 H   0  0  0  0  0  0
  -28.2564  -38.0081   24.7457 H   0  0  0  0  0  0
  -28.1054  -36.2612   24.6318 H   0  0  0  0  0  0
  -27.2249  -37.1473   25.8848 H   0  0  0  0  0  0
  -20.9524  -29.7905   21.6032 H   0  0  0  0  0  0
  -26.0121  -38.2769   24.1427 H   0  0  0  0  0  0
  -28.7752  -15.8783   18.5596 H   0  0  0  0  0  0
  -29.9556  -18.6743   21.6129 H   0  0  0  0  0  0
  -29.0214  -22.1972   18.8183 H   0  0  0  0  0  0
  -30.0021  -23.0940   22.2096 H   0  0  0  0  0  0
  -29.6233  -24.8082   22.1018 H   0  0  0  0  0  0
  -30.7698  -24.0943   20.9717 H   0  0  0  0  0  0
  -27.5343  -24.6998   19.0064 H   0  0  0  0  0  0
  -29.2021  -24.9432   18.8963 H   0  0  0  0  0  0
  -27.7871  -23.5134   21.1976 H   0  0  0  0  0  0
  -25.8529  -18.7455   17.4983 H   0  0  0  0  0  0
  -25.5378  -17.6629   16.1543 H   0  0  0  0  0  0
  -29.9372  -15.9627   21.9274 H   0  0  0  0  0  0
  -27.2716  -20.9027   18.8095 H   0  0  0  0  0  0
  1 25  1  0  0  0
  1 30  2  0  0  0
  1 84  1  0  0  0
  2  3  1  0  0  0
  2 25  1  0  0  0
  2 87  1  0  0  0
  2 88  1  0  0  0
  3  4  1  0  0  0
  3 89  1  0  0  0
  3 90  1  0  0  0
  4  5  1  0  0  0
  4 91  1  0  0  0
  4 92  1  0  0  0
  5  6  1  0  0  0
  5 26  1  0  0  0
  5 93  1  0  0  0
  6 25  1  0  0  0
  6 94  1  0  0  0
  6 95  1  0  0  0
  7  8  2  0  0  0
  7 26  1  0  0  0
  7 29  1  0  0  0
  8  9  1  0  0  0
  8 22  1  0  0  0
  9 10  1  0  0  0
  9 27  2  0  0  0
 10 11  2  0  0  0
 10 15  1  0  0  0
 11 12  1  0  0  0
 11 96  1  0  0  0
 12 13  2  0  0  0
 12 97  1  0  0  0
 13 14  1  0  0  0
 13 31  1  0  0  0
 14 15  2  0  0  0
 14 98  1  0  0  0
 15 99  1  0  0  0
 16 17  2  0  0  0
 16 21  1  0  0  0
 16 31  1  0  0  0
 17 18  1  0  0  0
 17100  1  0  0  0
 18 19  2  0  0  0
 18101  1  0  0  0
 19 20  1  0  0  0
 19 24  1  0  0  0
 20 21  2  0  0  0
 20102  1  0  0  0
 21 23  1  0  0  0
 22 28  1  0  0  0
 22 32  2  0  0  0
 26 27  1  0  0  0
 28103  1  0  0  0
 28104  1  0  0  0
 29105  1  0  0  0
 29106  1  0  0  0
 33 34  1  0  0  0
 33 66  1  0  0  0
 33 70  2  0  0  0
 34 36  1  0  0  0
 34 59  1  0  0  0
 34107  1  0  0  0
 35 44  2  0  0  0
 35 45  1  0  0  0
 35 68  1  0  0  0
 36 56  1  0  0  0
 36108  1  0  0  0
 37 39  1  0  0  0
 37 47  1  0  0  0
 37 66  1  0  0  0
 37109  1  0  0  0
 38 43  2  0  0  0
 38 46  1  0  0  0
 38 47  1  0  0  0
 39 64  1  0  0  0
 39 67  2  0  0  0
 40 52  1  0  0  0
 40 53  2  0  0  0
 40 58  1  0  0  0
 41110  1  0  0  0
 41111  1  0  0  0
 41112  1  0  0  0
 41 48  1  0  0  0
 42 43  1  0  0  0
 42 66  1  0  0  0
 42113  1  0  0  0
 42114  1  0  0  0
 43 44  1  0  0  0
 44115  1  0  0  0
 45 46  2  0  0  0
 45116  1  0  0  0
 46117  1  0  0  0
 47118  1  0  0  0
 47119  1  0  0  0
 48 56  1  0  0  0
 48 65  1  0  0  0
 48120  1  0  0  0
 49 50  1  0  0  0
 49 53  1  0  0  0
 49 64  1  0  0  0
 49121  1  0  0  0
 50 51  1  0  0  0
 50122  1  0  0  0
 50123  1  0  0  0
 51 52  1  0  0  0
 51124  1  0  0  0
 51125  1  0  0  0
 52126  1  0  0  0
 52127  1  0  0  0
 53 54  1  0  0  0
 54 55  2  0  0  0
 54128  1  0  0  0
 55 57  1  0  0  0
 55129  1  0  0  0
 56 69  2  0  0  0
 57 58  2  0  0  0
 57130  1  0  0  0
 58131  1  0  0  0
 59 60  1  0  0  0
 59 61  1  0  0  0
 59 62  1  0  0  0
 60132  1  0  0  0
 60133  1  0  0  0
 60134  1  0  0  0
 61135  1  0  0  0
 61136  1  0  0  0
 61137  1  0  0  0
 62138  1  0  0  0
 62139  1  0  0  0
 62140  1  0  0  0
 63 65  1  0  0  0
 63141  1  0  0  0
 63142  1  0  0  0
 63143  1  0  0  0
 64144  1  0  0  0
 65145  1  0  0  0
 68 80  1  0  0  0
 71 73  2  0  0  0
 71 75  1  0  0  0
 71146  1  0  0  0
 72 74  1  0  0  0
 72 75  2  0  0  0
 72147  1  0  0  0
 73 76  1  0  0  0
 73 78  1  0  0  0
 74 76  2  0  0  0
 74 82  1  0  0  0
 75 84  1  0  0  0
 76 86  1  0  0  0
 77 81  1  0  0  0
 77 82  2  0  0  0
 77148  1  0  0  0
 78 83  1  0  0  0
 78 85  2  0  0  0
 79149  1  0  0  0
 79150  1  0  0  0
 79151  1  0  0  0
 79 81  1  0  0  0
 80 81  1  0  0  0
 80152  1  0  0  0
 80153  1  0  0  0
 81154  1  0  0  0
 83155  1  0  0  0
 83156  1  0  0  0
 84157  1  0  0  0
 86158  1  0  0  0
M  ISO  4   1 100  68 101  80 101  84 100
M  END
> <chiral flag>
0

> <version>
0

> <s_m_source_file>
/data/baiqing/PycharmProjects/Reinvent-master-3.2/result/LINK_invent/BTK/process_docking_weight1_custom_product_contain_oxygen_bond_distance_aromatic_linkinvent_7_9_3/rearranged_h_0111.sdf

> <i_m_source_file_index>
40

> <r_mmod_Potential_Energy-OPLS-2005>
123.039176940918

> <r_mmod_Stretch_Energy-OPLS-2005>
153.048583984375

> <r_mmod_Bend_Energy-OPLS-2005>
202.970184326172

> <r_mmod_Torsional_Energy-OPLS-2005>
294.962219238281

> <r_mmod_Improper_Torsional_Energy-OPLS-2005>
5.52509737014771

> <r_mmod_Van_der_Waal_Energy-OPLS-2005>
144.58186340332

> <r_mmod_Electrostatic_Energy-OPLS-2005>
-513.799133300781

> <r_mmod_Solvation_Energy-OPLS-2005>
-256.363616943359

> <b_mmod_Minimization_Converged-OPLS-2005>
0

> <r_mmod_RMS_Derivative-OPLS-2005>
6.26593112945557

$$$$
41
                    3D
 Structure written by MMmdl.
165173  0  0  1  0            999 V2000
  -30.7574  -14.4715   20.5523 C   0  0  0  0  0  0
  -30.4055  -12.3233   19.3930 C   0  0  0  0  0  0
  -29.4720  -12.5230   18.1834 C   0  0  0  0  0  0
  -27.9917  -12.4175   18.5983 C   0  0  0  0  0  0
  -27.6595  -13.2307   19.8776 C   0  0  2  0  0  0
  -28.7158  -13.0189   20.9800 C   0  0  0  0  0  0
  -25.2583  -13.8297   20.5776 C   0  0  0  0  0  0
  -24.1856  -13.0524   20.9222 C   0  0  0  0  0  0
  -24.6440  -11.7005   20.8774 C   0  0  0  0  0  0
  -23.9136  -10.4355   21.0442 C   0  0  0  0  0  0
  -24.3676   -9.4257   21.9192 C   0  0  0  0  0  0
  -23.6368   -8.2291   22.0757 C   0  0  0  0  0  0
  -22.4348   -8.0353   21.3550 C   0  0  0  0  0  0
  -22.0010   -9.0328   20.4628 C   0  0  0  0  0  0
  -22.7343  -10.2195   20.3060 C   0  0  0  0  0  0
  -21.6879   -6.0821   22.5296 C   0  0  0  0  0  0
  -21.4006   -6.5700   23.8228 C   0  0  0  0  0  0
  -21.3631   -5.6842   24.9191 C   0  0  0  0  0  0
  -21.6050   -4.3110   24.7230 C   0  0  0  0  0  0
  -21.8805   -3.8220   23.4344 C   0  0  0  0  0  0
  -21.9187   -4.7042   22.3412 C   0  0  0  0  0  0
  -22.7842  -13.5259   21.1852 C   0  0  0  0  0  0
  -22.1669   -4.2223   21.0984 F   0  0  0  0  0  0
  -21.5609   -3.4570   25.7729 F   0  0  0  0  0  0
  -30.0314  -13.3269   20.3999 N   0  0  0  0  0  0
  -26.3047  -12.9496   20.3477 N   0  0  0  0  0  0
  -25.9382  -11.6621   20.5823 N   0  0  0  0  0  0
  -22.0464  -12.8188   22.0354 N   0  0  0  0  0  0
  -25.4324  -15.2027   20.4195 N   0  0  0  0  0  0
  -31.9315  -14.5587   20.1759 O   0  0  0  0  0  0
  -21.6694   -6.8971   21.4257 O   0  0  0  0  0  0
  -22.3514  -14.5578   20.6733 O   0  0  0  0  0  0
  -24.6175  -31.8620   23.2083 C   0  0  0  0  0  0
  -25.9067  -32.4804   23.8375 C   0  0  1  0  0  0
  -27.2167  -27.3754   20.1068 C   0  0  0  0  0  0
  -25.5918  -33.8588   24.2323 N   0  0  0  0  0  0
  -23.4053  -30.4850   21.5479 C   0  0  2  0  0  0
  -24.8497  -28.9452   20.1090 C   0  0  0  0  0  0
  -22.7441  -29.4596   22.4980 C   0  0  0  0  0  0
  -18.0251  -28.1357   22.8502 C   0  0  0  0  0  0
  -24.1483  -36.7269   23.2629 C   0  0  0  0  0  0
  -25.9393  -30.8135   21.3630 C   0  0  0  0  0  0
  -26.0113  -29.4427   20.7093 C   0  0  0  0  0  0
  -27.1948  -28.6608   20.7084 C   0  0  0  0  0  0
  -26.0309  -26.9010   19.5029 C   0  0  0  0  0  0
  -24.8570  -27.6775   19.5013 C   0  0  0  0  0  0
  -23.6131  -29.8159   20.1607 C   0  0  0  0  0  0
  -25.4096  -36.3073   24.0346 C   0  0  1  0  0  0
  -20.5858  -28.3596   23.1352 C   0  0  2  0  0  0
  -20.6722  -26.9340   22.5406 C   0  0  0  0  0  0
  -19.5713  -26.6370   21.5186 C   0  0  0  0  0  0
  -18.1893  -26.7914   22.1610 C   0  0  0  0  0  0
  -19.1509  -28.8799   23.2920 C   0  0  0  0  0  0
  -18.9425  -30.1412   23.8893 C   0  0  0  0  0  0
  -17.6432  -30.6568   24.0531 C   0  0  0  0  0  0
  -25.9035  -34.9448   23.5128 C   0  0  0  0  0  0
  -16.5314  -29.9045   23.6330 C   0  0  0  0  0  0
  -16.7250  -28.6462   23.0365 C   0  0  0  0  0  0
  -26.4460  -31.6586   25.0729 C   0  0  0  0  0  0
  -25.3770  -31.3687   26.1505 C   0  0  0  0  0  0
  -27.0222  -30.3027   24.6061 C   0  0  0  0  0  0
  -27.6032  -32.4271   25.7507 C   0  0  0  0  0  0
  -27.5575  -37.1786   24.8454 C   0  0  0  0  0  0
  -21.4167  -29.2988   22.3787 N   0  0  0  0  0  0
  -26.4263  -37.3791   23.9428 N   0  0  0  0  0  0
  -24.6732  -31.0713   22.0977 N   0  0  0  0  0  0
  -23.4240  -28.8118   23.2991 O   0  0  0  0  0  0
  -28.3819  -26.6251   20.1587 O   0  0  0  0  0  0
  -26.5563  -34.8905   22.4663 O   0  0  0  0  0  0
  -23.5363  -32.1355   23.7467 O   0  0  0  0  0  0
  -29.7977  -18.0904   20.3644 C   0  0  0  0  0  0
  -30.1383  -18.8896   18.0810 C   0  0  0  0  0  0
  -30.2721  -16.5161   18.5689 C   0  0  0  0  0  0
  -29.8499  -19.1686   19.4301 C   0  0  0  0  0  0
  -30.0297  -16.7371   19.9545 C   0  0  0  0  0  0
  -30.3699  -17.5799   17.6467 C   0  0  0  0  0  0
  -28.4277  -17.1791   23.7455 C   0  0  0  0  0  0
  -28.6709  -16.2248   22.8362 C   0  0  0  0  0  0
  -28.7857  -21.3792   19.9274 C   0  0  0  0  0  0
  -31.6633  -16.3726   16.0509 C   0  0  0  0  0  0
  -30.0541  -15.8692   22.3426 C   0  0  0  0  0  0
  -29.0506  -22.8500   19.5087 C   0  0  0  0  0  0
  -28.2357  -24.0209   20.1532 C   0  0  0  0  0  0
  -28.5279  -25.3824   19.4254 C   0  0  0  0  0  0
  -29.8447  -20.5515   19.7892 N   0  0  0  0  0  0
  -30.0921  -15.6122   20.8914 N   0  0  0  0  0  0
  -27.6883  -21.0181   20.3557 O   0  0  0  0  0  0
  -30.7211  -17.4063   16.3281 O   0  0  0  0  0  0
  -31.4500  -12.4121   19.0821 H   0  0  0  0  0  0
  -30.2938  -11.3202   19.8033 H   0  0  0  0  0  0
  -29.6948  -11.7940   17.4047 H   0  0  0  0  0  0
  -29.6459  -13.4995   17.7338 H   0  0  0  0  0  0
  -27.7531  -11.3641   18.7420 H   0  0  0  0  0  0
  -27.3507  -12.7629   17.7852 H   0  0  0  0  0  0
  -27.7002  -14.2810   19.5897 H   0  0  0  0  0  0
  -28.6994  -11.9860   21.3349 H   0  0  0  0  0  0
  -28.5040  -13.6292   21.8537 H   0  0  0  0  0  0
  -25.2804   -9.5750   22.4772 H   0  0  0  0  0  0
  -24.0083   -7.4699   22.7478 H   0  0  0  0  0  0
  -21.0967   -8.8881   19.8932 H   0  0  0  0  0  0
  -22.3845  -10.9755   19.6184 H   0  0  0  0  0  0
  -21.2004   -7.6209   23.9752 H   0  0  0  0  0  0
  -21.1442   -6.0573   25.9088 H   0  0  0  0  0  0
  -22.0586   -2.7695   23.2821 H   0  0  0  0  0  0
  -22.4023  -11.9758   22.4628 H   0  0  0  0  0  0
  -21.1054  -13.1183   22.2521 H   0  0  0  0  0  0
  -24.6806  -15.8708   20.5484 H   0  0  0  0  0  0
  -26.3074  -15.6416   20.1597 H   0  0  0  0  0  0
  -26.7133  -32.5479   23.1125 H   0  0  0  0  0  0
  -25.0184  -33.9734   25.0561 H   0  0  0  0  0  0
  -22.6937  -31.3009   21.4127 H   0  0  0  0  0  0
  -23.3782  -35.9559   23.3212 H   0  0  0  0  0  0
  -24.3608  -36.8948   22.2065 H   0  0  0  0  0  0
  -23.7194  -37.6436   23.6681 H   0  0  0  0  0  0
  -26.0582  -31.5788   20.5928 H   0  0  0  0  0  0
  -26.8277  -30.8640   21.9828 H   0  0  0  0  0  0
  -28.0927  -29.0327   21.1826 H   0  0  0  0  0  0
  -25.9768  -25.9189   19.0561 H   0  0  0  0  0  0
  -23.9594  -27.2907   19.0371 H   0  0  0  0  0  0
  -23.7185  -30.5869   19.3972 H   0  0  0  0  0  0
  -22.7356  -29.2353   19.8696 H   0  0  0  0  0  0
  -25.1292  -36.1896   25.0846 H   0  0  0  0  0  0
  -20.9959  -28.3082   24.1473 H   0  0  0  0  0  0
  -20.5575  -26.2188   23.3560 H   0  0  0  0  0  0
  -21.6597  -26.7323   22.1225 H   0  0  0  0  0  0
  -19.6834  -25.6286   21.1180 H   0  0  0  0  0  0
  -19.6691  -27.3187   20.6724 H   0  0  0  0  0  0
  -17.4189  -26.6685   21.3978 H   0  0  0  0  0  0
  -18.0260  -26.0038   22.8984 H   0  0  0  0  0  0
  -19.7903  -30.7203   24.2292 H   0  0  0  0  0  0
  -17.4980  -31.6254   24.5101 H   0  0  0  0  0  0
  -15.5302  -30.2906   23.7687 H   0  0  0  0  0  0
  -15.8664  -28.0748   22.7104 H   0  0  0  0  0  0
  -24.5966  -30.6984   25.7904 H   0  0  0  0  0  0
  -24.8951  -32.2830   26.4969 H   0  0  0  0  0  0
  -25.8193  -30.8899   27.0264 H   0  0  0  0  0  0
  -26.2712  -29.6883   24.1098 H   0  0  0  0  0  0
  -27.3956  -29.7161   25.4465 H   0  0  0  0  0  0
  -27.8589  -30.4316   23.9200 H   0  0  0  0  0  0
  -27.2709  -33.3652   26.1956 H   0  0  0  0  0  0
  -28.3966  -32.6658   25.0428 H   0  0  0  0  0  0
  -28.0556  -31.8466   26.5568 H   0  0  0  0  0  0
  -28.2528  -38.0140   24.7540 H   0  0  0  0  0  0
  -28.1126  -36.2658   24.6208 H   0  0  0  0  0  0
  -27.2313  -37.1370   25.8862 H   0  0  0  0  0  0
  -20.9306  -29.8810   21.7105 H   0  0  0  0  0  0
  -26.0125  -38.2853   24.1447 H   0  0  0  0  0  0
  -29.6388  -18.3294   21.4026 H   0  0  0  0  0  0
  -30.2379  -19.6987   17.3687 H   0  0  0  0  0  0
  -30.4468  -15.5207   18.1981 H   0  0  0  0  0  0
  -27.4195  -17.3913   24.0670 H   0  0  0  0  0  0
  -29.2277  -17.7599   24.1860 H   0  0  0  0  0  0
  -27.8480  -15.6551   22.4292 H   0  0  0  0  0  0
  -32.1255  -16.5668   15.0846 H   0  0  0  0  0  0
  -31.1941  -15.3898   16.0006 H   0  0  0  0  0  0
  -32.4685  -16.3441   16.7855 H   0  0  0  0  0  0
  -30.3614  -14.9904   22.9149 H   0  0  0  0  0  0
  -30.7706  -16.6500   22.6036 H   0  0  0  0  0  0
  -28.8945  -22.8747   18.4303 H   0  0  0  0  0  0
  -30.1081  -23.0575   19.6644 H   0  0  0  0  0  0
  -28.5216  -24.0861   21.2022 H   0  0  0  0  0  0
  -27.1674  -23.8038   20.1376 H   0  0  0  0  0  0
  -28.0228  -25.4278   18.4600 H   0  0  0  0  0  0
  -29.5855  -25.3668   19.1634 H   0  0  0  0  0  0
  -30.6652  -21.0551   19.4775 H   0  0  0  0  0  0
  1 25  1  0  0  0
  1 30  2  0  0  0
  1 86  1  0  0  0
  2  3  1  0  0  0
  2 25  1  0  0  0
  2 89  1  0  0  0
  2 90  1  0  0  0
  3  4  1  0  0  0
  3 91  1  0  0  0
  3 92  1  0  0  0
  4  5  1  0  0  0
  4 93  1  0  0  0
  4 94  1  0  0  0
  5  6  1  0  0  0
  5 26  1  0  0  0
  5 95  1  0  0  0
  6 25  1  0  0  0
  6 96  1  0  0  0
  6 97  1  0  0  0
  7  8  2  0  0  0
  7 26  1  0  0  0
  7 29  1  0  0  0
  8  9  1  0  0  0
  8 22  1  0  0  0
  9 10  1  0  0  0
  9 27  2  0  0  0
 10 11  2  0  0  0
 10 15  1  0  0  0
 11 12  1  0  0  0
 11 98  1  0  0  0
 12 13  2  0  0  0
 12 99  1  0  0  0
 13 14  1  0  0  0
 13 31  1  0  0  0
 14 15  2  0  0  0
 14100  1  0  0  0
 15101  1  0  0  0
 16 17  2  0  0  0
 16 21  1  0  0  0
 16 31  1  0  0  0
 17 18  1  0  0  0
 17102  1  0  0  0
 18 19  2  0  0  0
 18103  1  0  0  0
 19 20  1  0  0  0
 19 24  1  0  0  0
 20 21  2  0  0  0
 20104  1  0  0  0
 21 23  1  0  0  0
 22 28  1  0  0  0
 22 32  2  0  0  0
 26 27  1  0  0  0
 28105  1  0  0  0
 28106  1  0  0  0
 29107  1  0  0  0
 29108  1  0  0  0
 33 34  1  0  0  0
 33 66  1  0  0  0
 33 70  2  0  0  0
 34 36  1  0  0  0
 34 59  1  0  0  0
 34109  1  0  0  0
 35 44  2  0  0  0
 35 45  1  0  0  0
 35 68  1  0  0  0
 36 56  1  0  0  0
 36110  1  0  0  0
 37 39  1  0  0  0
 37 47  1  0  0  0
 37 66  1  0  0  0
 37111  1  0  0  0
 38 43  2  0  0  0
 38 46  1  0  0  0
 38 47  1  0  0  0
 39 64  1  0  0  0
 39 67  2  0  0  0
 40 52  1  0  0  0
 40 53  2  0  0  0
 40 58  1  0  0  0
 41112  1  0  0  0
 41113  1  0  0  0
 41114  1  0  0  0
 41 48  1  0  0  0
 42 43  1  0  0  0
 42 66  1  0  0  0
 42115  1  0  0  0
 42116  1  0  0  0
 43 44  1  0  0  0
 44117  1  0  0  0
 45 46  2  0  0  0
 45118  1  0  0  0
 46119  1  0  0  0
 47120  1  0  0  0
 47121  1  0  0  0
 48 56  1  0  0  0
 48 65  1  0  0  0
 48122  1  0  0  0
 49 50  1  0  0  0
 49 53  1  0  0  0
 49 64  1  0  0  0
 49123  1  0  0  0
 50 51  1  0  0  0
 50124  1  0  0  0
 50125  1  0  0  0
 51 52  1  0  0  0
 51126  1  0  0  0
 51127  1  0  0  0
 52128  1  0  0  0
 52129  1  0  0  0
 53 54  1  0  0  0
 54 55  2  0  0  0
 54130  1  0  0  0
 55 57  1  0  0  0
 55131  1  0  0  0
 56 69  2  0  0  0
 57 58  2  0  0  0
 57132  1  0  0  0
 58133  1  0  0  0
 59 60  1  0  0  0
 59 61  1  0  0  0
 59 62  1  0  0  0
 60134  1  0  0  0
 60135  1  0  0  0
 60136  1  0  0  0
 61137  1  0  0  0
 61138  1  0  0  0
 61139  1  0  0  0
 62140  1  0  0  0
 62141  1  0  0  0
 62142  1  0  0  0
 63 65  1  0  0  0
 63143  1  0  0  0
 63144  1  0  0  0
 63145  1  0  0  0
 64146  1  0  0  0
 65147  1  0  0  0
 68 84  1  0  0  0
 71 74  2  0  0  0
 71 75  1  0  0  0
 71148  1  0  0  0
 72 74  1  0  0  0
 72 76  2  0  0  0
 72149  1  0  0  0
 73 75  2  0  0  0
 73 76  1  0  0  0
 73150  1  0  0  0
 74 85  1  0  0  0
 75 86  1  0  0  0
 76 88  1  0  0  0
 77 78  2  0  0  0
 77151  1  0  0  0
 77152  1  0  0  0
 78 81  1  0  0  0
 78153  1  0  0  0
 79 82  1  0  0  0
 79 85  1  0  0  0
 79 87  2  0  0  0
 80 88  1  0  0  0
 80154  1  0  0  0
 80155  1  0  0  0
 80156  1  0  0  0
 81 86  1  0  0  0
 81157  1  0  0  0
 81158  1  0  0  0
 82 83  1  0  0  0
 82159  1  0  0  0
 82160  1  0  0  0
 83 84  1  0  0  0
 83161  1  0  0  0
 83162  1  0  0  0
 84163  1  0  0  0
 84164  1  0  0  0
 85165  1  0  0  0
M  ISO  4   1 100  68 101  84 101  86 100
M  END
> <chiral flag>
0

> <version>
0

> <s_m_source_file>
/data/baiqing/PycharmProjects/Reinvent-master-3.2/result/LINK_invent/BTK/process_docking_weight1_custom_product_contain_oxygen_bond_distance_aromatic_linkinvent_7_9_3/rearranged_h_0111.sdf

> <i_m_source_file_index>
41

> <r_mmod_Potential_Energy-OPLS-2005>
174.347366333008

> <r_mmod_Stretch_Energy-OPLS-2005>
54.3963241577148

> <r_mmod_Bend_Energy-OPLS-2005>
142.157608032227

> <r_mmod_Torsional_Energy-OPLS-2005>
330.654052734375

> <r_mmod_Improper_Torsional_Energy-OPLS-2005>
10.8101663589478

> <r_mmod_Van_der_Waal_Energy-OPLS-2005>
152.994171142578

> <r_mmod_Electrostatic_Energy-OPLS-2005>
-320.942993164062

> <r_mmod_Solvation_Energy-OPLS-2005>
-220.114410400391

> <b_mmod_Minimization_Converged-OPLS-2005>
0

> <r_mmod_RMS_Derivative-OPLS-2005>
5.70129585266113

$$$$
42
                    3D
 Structure written by MMmdl.
147155  0  0  1  0            999 V2000
  -30.1934  -15.7595   20.3113 C   0  0  0  0  0  0
  -30.3945  -13.1559   19.5608 C   0  0  0  0  0  0
  -29.5462  -12.6971   18.3321 C   0  0  0  0  0  0
  -28.1179  -12.3181   18.7487 C   0  0  0  0  0  0
  -27.5778  -13.3122   19.7983 C   0  0  2  0  0  0
  -28.5732  -13.6654   20.9289 C   0  0  0  0  0  0
  -25.2272  -13.8285   20.5776 C   0  0  0  0  0  0
  -24.1668  -13.0460   20.9291 C   0  0  0  0  0  0
  -24.6318  -11.6938   20.8698 C   0  0  0  0  0  0
  -23.8996  -10.4303   21.0363 C   0  0  0  0  0  0
  -24.3566   -9.4224   21.9152 C   0  0  0  0  0  0
  -23.6280   -8.2234   22.0759 C   0  0  0  0  0  0
  -22.4266   -8.0228   21.3535 C   0  0  0  0  0  0
  -21.9861   -9.0177   20.4620 C   0  0  0  0  0  0
  -22.7142  -10.2089   20.3029 C   0  0  0  0  0  0
  -21.6871   -6.0672   22.5257 C   0  0  0  0  0  0
  -21.4014   -6.5592   23.8173 C   0  0  0  0  0  0
  -21.3691   -5.6759   24.9160 C   0  0  0  0  0  0
  -21.6062   -4.3023   24.7235 C   0  0  0  0  0  0
  -21.8811   -3.8089   23.4369 C   0  0  0  0  0  0
  -21.9206   -4.6899   22.3411 C   0  0  0  0  0  0
  -22.7681  -13.5180   21.1963 C   0  0  0  0  0  0
  -22.1679   -4.2072   21.0999 F   0  0  0  0  0  0
  -21.5670   -3.4527   25.7772 F   0  0  0  0  0  0
  -29.7455  -14.3423   20.3101 N   0  0  0  0  0  0
  -26.2634  -12.9567   20.3041 N   0  0  0  0  0  0
  -25.9245  -11.6640   20.5539 N   0  0  0  0  0  0
  -22.0371  -12.8144   22.0504 N   0  0  0  0  0  0
  -25.4051  -15.2059   20.4288 N   0  0  0  0  0  0
  -31.4182  -15.6833   20.0715 O   0  0  0  0  0  0
  -21.6667   -6.8810   21.4210 O   0  0  0  0  0  0
  -22.3370  -14.5496   20.6809 O   0  0  0  0  0  0
  -24.6932  -31.7882   23.1455 C   0  0  0  0  0  0
  -25.9502  -32.4361   23.8020 C   0  0  1  0  0  0
  -27.2199  -26.6242   20.2009 C   0  0  0  0  0  0
  -25.6039  -33.8192   24.1876 N   0  0  0  0  0  0
  -23.5175  -30.4005   21.4982 C   0  0  2  0  0  0
  -24.9733  -28.7257   20.1158 C   0  0  0  0  0  0
  -22.7774  -29.4319   22.4598 C   0  0  0  0  0  0
  -18.0350  -28.1480   22.8441 C   0  0  0  0  0  0
  -24.1535  -36.7134   23.2627 C   0  0  0  0  0  0
  -26.1032  -30.5005   21.4184 C   0  0  0  0  0  0
  -26.1674  -29.0581   20.7675 C   0  0  0  0  0  0
  -27.2745  -28.0403   20.7737 C   0  0  0  0  0  0
  -25.9843  -26.5219   19.5056 C   0  0  0  0  0  0
  -24.9261  -27.4827   19.4643 C   0  0  0  0  0  0
  -23.7802  -29.7037   20.1327 C   0  0  0  0  0  0
  -25.4186  -36.2791   24.0229 C   0  0  1  0  0  0
  -20.5975  -28.3872   23.1052 C   0  0  2  0  0  0
  -20.6834  -26.9511   22.5391 C   0  0  0  0  0  0
  -19.5825  -26.6413   21.5202 C   0  0  0  0  0  0
  -18.1997  -26.8021   22.1599 C   0  0  0  0  0  0
  -19.1616  -28.8991   23.2746 C   0  0  0  0  0  0
  -18.9527  -30.1556   23.8812 C   0  0  0  0  0  0
  -17.6527  -30.6639   24.0576 C   0  0  0  0  0  0
  -25.9164  -34.9198   23.4878 C   0  0  0  0  0  0
  -16.5402  -29.9149   23.6334 C   0  0  0  0  0  0
  -16.7339  -28.6575   23.0334 C   0  0  0  0  0  0
  -26.4655  -31.6434   25.0688 C   0  0  0  0  0  0
  -25.3689  -31.3823   26.1275 C   0  0  0  0  0  0
  -27.0539  -30.2710   24.6678 C   0  0  0  0  0  0
  -27.6050  -32.4365   25.7518 C   0  0  0  0  0  0
  -27.5577  -37.1719   24.8441 C   0  0  0  0  0  0
  -21.4408  -29.3099   22.3346 N   0  0  0  0  0  0
  -26.4278  -37.3599   23.9380 N   0  0  0  0  0  0
  -24.7954  -30.9312   22.0703 N   0  0  0  0  0  0
  -23.4211  -28.7904   23.2948 O   0  0  0  0  0  0
  -28.1660  -25.3560   20.1911 O   0  0  0  0  0  0
  -26.5818  -34.8779   22.4503 O   0  0  0  0  0  0
  -23.5940  -32.0940   23.6384 O   0  0  0  0  0  0
  -30.0171  -19.0679   20.7262 C   0  0  0  0  0  0
  -27.9556  -23.4580   20.3719 C   0  0  0  0  0  0
  -28.6354  -18.6787   19.5910 C   0  0  0  0  0  0
  -29.3776  -17.4945   20.6027 C   0  0  2  0  0  0
  -28.9601  -21.8855   20.0001 C   0  0  0  0  0  0
  -29.0311  -20.0716   20.3323 N   0  0  0  0  0  0
  -31.2433  -19.3674   21.1726 N   0  3  0  0  0  0
  -28.5724  -17.2884   21.8291 N   0  3  0  0  0  0
  -26.8521  -23.1489   20.8363 O   0  0  0  0  0  0
  -31.3939  -13.4105   19.2148 H   0  0  0  0  0  0
  -30.5497  -12.3113   20.2299 H   0  0  0  0  0  0
  -30.0260  -11.8526   17.8315 H   0  0  0  0  0  0
  -29.5038  -13.5090   17.6018 H   0  0  0  0  0  0
  -28.1425  -11.3103   19.1640 H   0  0  0  0  0  0
  -27.4586  -12.2758   17.8811 H   0  0  0  0  0  0
  -27.4304  -14.2305   19.2279 H   0  0  0  0  0  0
  -28.8376  -12.7767   21.5028 H   0  0  0  0  0  0
  -28.0911  -14.3373   21.6374 H   0  0  0  0  0  0
  -25.2722   -9.5754   22.4698 H   0  0  0  0  0  0
  -24.0014   -7.4658   22.7511 H   0  0  0  0  0  0
  -21.0793   -8.8586   19.8950 H   0  0  0  0  0  0
  -22.3511  -10.9572   19.6128 H   0  0  0  0  0  0
  -21.1944   -7.6092   23.9631 H   0  0  0  0  0  0
  -21.1567   -6.0533   25.9065 H   0  0  0  0  0  0
  -22.0570   -2.7549   23.2888 H   0  0  0  0  0  0
  -22.4081  -11.9800   22.4769 H   0  0  0  0  0  0
  -21.0975  -13.1086   22.2757 H   0  0  0  0  0  0
  -24.5936  -15.8153   20.4550 H   0  0  0  0  0  0
  -26.1187  -15.5420   19.7951 H   0  0  0  0  0  0
  -26.7585  -32.4796   23.0711 H   0  0  0  0  0  0
  -25.0094  -33.9273   24.9965 H   0  0  0  0  0  0
  -22.8427  -31.2399   21.3131 H   0  0  0  0  0  0
  -23.3758  -35.9501   23.3201 H   0  0  0  0  0  0
  -24.3577  -36.8916   22.2054 H   0  0  0  0  0  0
  -23.7373  -37.6303   23.6817 H   0  0  0  0  0  0
  -26.3247  -31.2294   20.6366 H   0  0  0  0  0  0
  -26.9385  -30.5601   22.1023 H   0  0  0  0  0  0
  -28.1825  -28.3235   21.2852 H   0  0  0  0  0  0
  -25.7914  -25.5902   18.9896 H   0  0  0  0  0  0
  -24.0260  -27.2281   18.9232 H   0  0  0  0  0  0
  -23.9768  -30.4746   19.3821 H   0  0  0  0  0  0
  -22.8736  -29.1962   19.7962 H   0  0  0  0  0  0
  -25.1406  -36.1470   25.0721 H   0  0  0  0  0  0
  -21.0077  -28.3576   24.1157 H   0  0  0  0  0  0
  -20.5645  -26.2534   23.3699 H   0  0  0  0  0  0
  -21.6710  -26.7455   22.1215 H   0  0  0  0  0  0
  -19.6982  -25.6278   21.1340 H   0  0  0  0  0  0
  -19.6768  -27.3105   20.6631 H   0  0  0  0  0  0
  -17.4256  -26.6703   21.4021 H   0  0  0  0  0  0
  -18.0424  -26.0201   22.9031 H   0  0  0  0  0  0
  -19.7992  -30.7407   24.2147 H   0  0  0  0  0  0
  -17.5067  -31.6287   24.5249 H   0  0  0  0  0  0
  -15.5396  -30.3041   23.7703 H   0  0  0  0  0  0
  -15.8741  -28.0887   22.7069 H   0  0  0  0  0  0
  -24.5916  -30.7113   25.7602 H   0  0  0  0  0  0
  -24.8831  -32.3074   26.4372 H   0  0  0  0  0  0
  -25.7807  -30.9200   27.0254 H   0  0  0  0  0  0
  -26.3230  -29.6323   24.1683 H   0  0  0  0  0  0
  -27.3879  -29.7156   25.5455 H   0  0  0  0  0  0
  -27.9285  -30.3706   24.0246 H   0  0  0  0  0  0
  -27.2515  -33.3740   26.1813 H   0  0  0  0  0  0
  -28.3987  -32.6820   25.0464 H   0  0  0  0  0  0
  -28.0599  -31.8717   26.5654 H   0  0  0  0  0  0
  -28.2473  -38.0114   24.7451 H   0  0  0  0  0  0
  -28.1166  -36.2590   24.6273 H   0  0  0  0  0  0
  -27.2255  -37.1367   25.8835 H   0  0  0  0  0  0
  -20.9685  -29.8780   21.6429 H   0  0  0  0  0  0
  -26.0016  -38.2604   24.1421 H   0  0  0  0  0  0
  -27.5554  -18.5596   19.5025 H   0  0  0  0  0  0
  -29.0603  -18.6641   18.5871 H   0  0  0  0  0  0
  -29.9723  -22.2120   20.2230 H   0  0  0  0  0  0
  -28.9307  -21.8916   18.9082 H   0  0  0  0  0  0
  -31.9511  -18.6530   21.2453 H   0  0  0  0  0  0
  -31.5626  -20.3234   21.2142 H   0  0  0  0  0  0
  -28.2923  -18.1585   22.2418 H   0  0  0  0  0  0
  -29.1149  -16.8075   22.5250 H   0  0  0  0  0  0
  -27.7426  -16.7528   21.6470 H   0  0  0  0  0  0
  1 25  1  0  0  0
  1 30  2  0  0  0
  1 74  1  0  0  0
  2  3  1  0  0  0
  2 25  1  0  0  0
  2 80  1  0  0  0
  2 81  1  0  0  0
  3  4  1  0  0  0
  3 82  1  0  0  0
  3 83  1  0  0  0
  4  5  1  0  0  0
  4 84  1  0  0  0
  4 85  1  0  0  0
  5  6  1  0  0  0
  5 26  1  0  0  0
  5 86  1  0  0  0
  6 25  1  0  0  0
  6 87  1  0  0  0
  6 88  1  0  0  0
  7  8  2  0  0  0
  7 26  1  0  0  0
  7 29  1  0  0  0
  8  9  1  0  0  0
  8 22  1  0  0  0
  9 10  1  0  0  0
  9 27  2  0  0  0
 10 11  2  0  0  0
 10 15  1  0  0  0
 11 12  1  0  0  0
 11 89  1  0  0  0
 12 13  2  0  0  0
 12 90  1  0  0  0
 13 14  1  0  0  0
 13 31  1  0  0  0
 14 15  2  0  0  0
 14 91  1  0  0  0
 15 92  1  0  0  0
 16 17  2  0  0  0
 16 21  1  0  0  0
 16 31  1  0  0  0
 17 18  1  0  0  0
 17 93  1  0  0  0
 18 19  2  0  0  0
 18 94  1  0  0  0
 19 20  1  0  0  0
 19 24  1  0  0  0
 20 21  2  0  0  0
 20 95  1  0  0  0
 21 23  1  0  0  0
 22 28  1  0  0  0
 22 32  2  0  0  0
 26 27  1  0  0  0
 28 96  1  0  0  0
 28 97  1  0  0  0
 29 98  1  0  0  0
 29 99  1  0  0  0
 33 34  1  0  0  0
 33 66  1  0  0  0
 33 70  2  0  0  0
 34 36  1  0  0  0
 34 59  1  0  0  0
 34100  1  0  0  0
 35 44  2  0  0  0
 35 45  1  0  0  0
 35 68  1  0  0  0
 36 56  1  0  0  0
 36101  1  0  0  0
 37 39  1  0  0  0
 37 47  1  0  0  0
 37 66  1  0  0  0
 37102  1  0  0  0
 38 43  2  0  0  0
 38 46  1  0  0  0
 38 47  1  0  0  0
 39 64  1  0  0  0
 39 67  2  0  0  0
 40 52  1  0  0  0
 40 53  2  0  0  0
 40 58  1  0  0  0
 41103  1  0  0  0
 41104  1  0  0  0
 41105  1  0  0  0
 41 48  1  0  0  0
 42 43  1  0  0  0
 42 66  1  0  0  0
 42106  1  0  0  0
 42107  1  0  0  0
 43 44  1  0  0  0
 44108  1  0  0  0
 45 46  2  0  0  0
 45109  1  0  0  0
 46110  1  0  0  0
 47111  1  0  0  0
 47112  1  0  0  0
 48 56  1  0  0  0
 48 65  1  0  0  0
 48113  1  0  0  0
 49 50  1  0  0  0
 49 53  1  0  0  0
 49 64  1  0  0  0
 49114  1  0  0  0
 50 51  1  0  0  0
 50115  1  0  0  0
 50116  1  0  0  0
 51 52  1  0  0  0
 51117  1  0  0  0
 51118  1  0  0  0
 52119  1  0  0  0
 52120  1  0  0  0
 53 54  1  0  0  0
 54 55  2  0  0  0
 54121  1  0  0  0
 55 57  1  0  0  0
 55122  1  0  0  0
 56 69  2  0  0  0
 57 58  2  0  0  0
 57123  1  0  0  0
 58124  1  0  0  0
 59 60  1  0  0  0
 59 61  1  0  0  0
 59 62  1  0  0  0
 60125  1  0  0  0
 60126  1  0  0  0
 60127  1  0  0  0
 61128  1  0  0  0
 61129  1  0  0  0
 61130  1  0  0  0
 62131  1  0  0  0
 62132  1  0  0  0
 62133  1  0  0  0
 63 65  1  0  0  0
 63134  1  0  0  0
 63135  1  0  0  0
 63136  1  0  0  0
 64137  1  0  0  0
 65138  1  0  0  0
 68 72  1  0  0  0
 71 74  1  0  0  0
 71 76  1  0  0  0
 71 77  2  0  0  0
 72 75  1  0  0  0
 72 79  2  0  0  0
 73 74  1  0  0  0
 73 76  1  0  0  0
 73139  1  0  0  0
 73140  1  0  0  0
 74 78  1  0  0  0
 75 76  1  0  0  0
 75141  1  0  0  0
 75142  1  0  0  0
 77143  1  0  0  0
 77144  1  0  0  0
 78145  1  0  0  0
 78146  1  0  0  0
 78147  1  0  0  0
M  CHG  2  77   1  78   1
M  ISO  4   1 100  68 101  72 101  74 100
M  END
> <chiral flag>
0

> <version>
0

> <s_m_source_file>
/data/baiqing/PycharmProjects/Reinvent-master-3.2/result/LINK_invent/BTK/process_docking_weight1_custom_product_contain_oxygen_bond_distance_aromatic_linkinvent_7_9_3/rearranged_h_0111.sdf

> <i_m_source_file_index>
42

> <r_mmod_Potential_Energy-OPLS-2005>
2399.24340820312

> <r_mmod_Stretch_Energy-OPLS-2005>
1352.94482421875

> <r_mmod_Bend_Energy-OPLS-2005>
798.693481445312

> <r_mmod_Torsional_Energy-OPLS-2005>
227.961868286133

> <r_mmod_Improper_Torsional_Energy-OPLS-2005>
7.62628030776978

> <r_mmod_Van_der_Waal_Energy-OPLS-2005>
106.719612121582

> <r_mmod_Electrostatic_Energy-OPLS-2005>
-46.1272354125977

> <r_mmod_Solvation_Energy-OPLS-2005>
-1127.63635253906

> <b_mmod_Minimization_Converged-OPLS-2005>
0

> <r_mmod_RMS_Derivative-OPLS-2005>
6.20487451553345

$$$$
43
                    3D
 Structure written by MMmdl.
157165  0  0  1  0            999 V2000
  -30.6664  -14.4758   20.5821 C   0  0  0  0  0  0
  -30.4381  -12.3134   19.4086 C   0  0  0  0  0  0
  -29.5025  -12.5221   18.1984 C   0  0  0  0  0  0
  -28.0234  -12.3619   18.6143 C   0  0  0  0  0  0
  -27.6655  -13.1924   19.8786 C   0  0  2  0  0  0
  -28.7078  -12.9423   20.9932 C   0  0  0  0  0  0
  -25.2619  -13.8105   20.5682 C   0  0  0  0  0  0
  -24.1833  -13.0444   20.9148 C   0  0  0  0  0  0
  -24.6342  -11.6879   20.8723 C   0  0  0  0  0  0
  -23.8974  -10.4285   21.0397 C   0  0  0  0  0  0
  -24.3551   -9.4195   21.9158 C   0  0  0  0  0  0
  -23.6264   -8.2208   22.0747 C   0  0  0  0  0  0
  -22.4261   -8.0226   21.3531 C   0  0  0  0  0  0
  -21.9850   -9.0188   20.4641 C   0  0  0  0  0  0
  -22.7150  -10.2088   20.3045 C   0  0  0  0  0  0
  -21.6864   -6.0706   22.5277 C   0  0  0  0  0  0
  -21.4007   -6.5621   23.8199 C   0  0  0  0  0  0
  -21.3669   -5.6783   24.9175 C   0  0  0  0  0  0
  -21.6027   -4.3035   24.7223 C   0  0  0  0  0  0
  -21.8825   -3.8123   23.4355 C   0  0  0  0  0  0
  -21.9202   -4.6932   22.3405 C   0  0  0  0  0  0
  -22.7847  -13.5260   21.1813 C   0  0  0  0  0  0
  -22.1671   -4.2113   21.0988 F   0  0  0  0  0  0
  -21.5634   -3.4523   25.7739 F   0  0  0  0  0  0
  -30.0405  -13.2738   20.4483 N   0  0  0  0  0  0
  -26.3048  -12.9248   20.3400 N   0  0  0  0  0  0
  -25.9281  -11.6434   20.5776 N   0  0  0  0  0  0
  -22.0488  -12.8225   22.0337 N   0  0  0  0  0  0
  -25.4455  -15.1832   20.4091 N   0  0  0  0  0  0
  -31.7774  -14.7258   20.0975 O   0  0  0  0  0  0
  -21.6661   -6.8810   21.4219 O   0  0  0  0  0  0
  -22.3549  -14.5640   20.6753 O   0  0  0  0  0  0
  -24.6125  -31.8703   23.2131 C   0  0  0  0  0  0
  -25.9036  -32.4828   23.8418 C   0  0  1  0  0  0
  -27.2217  -27.4690   20.0692 C   0  0  0  0  0  0
  -25.5889  -33.8626   24.2353 N   0  0  0  0  0  0
  -23.3966  -30.4987   21.5528 C   0  0  2  0  0  0
  -24.8400  -28.9732   20.1087 C   0  0  0  0  0  0
  -22.7378  -29.4678   22.4974 C   0  0  0  0  0  0
  -18.0269  -28.1363   22.8498 C   0  0  0  0  0  0
  -24.1493  -36.7333   23.2635 C   0  0  0  0  0  0
  -25.9217  -30.8532   21.3566 C   0  0  0  0  0  0
  -26.0017  -29.4917   20.6971 C   0  0  0  0  0  0
  -27.2008  -28.7452   20.6756 C   0  0  0  0  0  0
  -26.0525  -26.9704   19.4646 C   0  0  0  0  0  0
  -24.8575  -27.7117   19.4897 C   0  0  0  0  0  0
  -23.6019  -29.8368   20.1643 C   0  0  0  0  0  0
  -25.4109  -36.3114   24.0341 C   0  0  1  0  0  0
  -20.5860  -28.3658   23.1315 C   0  0  2  0  0  0
  -20.6758  -26.9401   22.5409 C   0  0  0  0  0  0
  -19.5731  -26.6381   21.5213 C   0  0  0  0  0  0
  -18.1917  -26.7909   22.1630 C   0  0  0  0  0  0
  -19.1518  -28.8825   23.2915 C   0  0  0  0  0  0
  -18.9444  -30.1438   23.8913 C   0  0  0  0  0  0
  -17.6441  -30.6567   24.0573 C   0  0  0  0  0  0
  -25.9024  -34.9479   23.5139 C   0  0  0  0  0  0
  -16.5337  -29.9072   23.6314 C   0  0  0  0  0  0
  -16.7262  -28.6498   23.0329 C   0  0  0  0  0  0
  -26.4473  -31.6581   25.0721 C   0  0  0  0  0  0
  -25.3739  -31.3681   26.1457 C   0  0  0  0  0  0
  -27.0291  -30.3025   24.6073 C   0  0  0  0  0  0
  -27.6052  -32.4281   25.7482 C   0  0  0  0  0  0
  -27.5585  -37.1822   24.8454 C   0  0  0  0  0  0
  -21.4105  -29.3036   22.3716 N   0  0  0  0  0  0
  -26.4300  -37.3794   23.9394 N   0  0  0  0  0  0
  -24.6622  -31.0869   22.0993 N   0  0  0  0  0  0
  -23.4161  -28.8223   23.3016 O   0  0  0  0  0  0
  -28.3451  -26.6791   20.0964 O   0  0  0  0  0  0
  -26.5582  -34.8921   22.4692 O   0  0  0  0  0  0
  -23.5325  -32.1387   23.7562 O   0  0  0  0  0  0
  -30.6050  -19.0539   21.6101 C   0  0  0  0  0  0
  -28.9195  -17.3778   20.1443 C   0  0  0  0  0  0
  -29.5990  -19.6398   20.8085 C   0  0  0  0  0  0
  -29.9101  -16.8076   20.9734 C   0  0  0  0  0  0
  -28.7561  -18.7886   20.0364 C   0  0  0  0  0  0
  -30.7682  -17.6555   21.6983 C   0  0  0  0  0  0
  -28.3887  -21.6332   21.0651 C   0  0  0  0  0  0
  -26.9693  -18.5447   18.4325 C   0  0  0  0  0  0
  -28.2994  -23.0963   21.5000 C   0  0  0  0  0  0
  -28.3433  -24.1808   20.3969 C   0  0  0  0  0  0
  -28.2299  -25.5922   21.0261 C   0  0  0  0  0  0
  -29.5036  -21.0480   20.8522 N   0  0  0  0  0  0
  -29.9086  -15.4019   21.1902 N   0  0  0  0  0  0
  -27.8122  -19.3782   19.2173 O   0  0  0  0  0  0
  -31.6953  -17.1393   22.5418 F   0  0  0  0  0  0
  -31.4825  -12.4408   19.1113 H   0  0  0  0  0  0
  -30.3493  -11.2917   19.7838 H   0  0  0  0  0  0
  -29.7479  -11.8185   17.4012 H   0  0  0  0  0  0
  -29.6603  -13.5196   17.7811 H   0  0  0  0  0  0
  -27.8517  -11.3010   18.8077 H   0  0  0  0  0  0
  -27.3679  -12.6249   17.7841 H   0  0  0  0  0  0
  -27.7146  -14.2427   19.5921 H   0  0  0  0  0  0
  -28.6915  -11.8944   21.2981 H   0  0  0  0  0  0
  -28.4639  -13.4942   21.9015 H   0  0  0  0  0  0
  -25.2702   -9.5709   22.4709 H   0  0  0  0  0  0
  -24.0002   -7.4614   22.7475 H   0  0  0  0  0  0
  -21.0778   -8.8648   19.8964 H   0  0  0  0  0  0
  -22.3567  -10.9592   19.6137 H   0  0  0  0  0  0
  -21.1989   -7.6131   23.9682 H   0  0  0  0  0  0
  -21.1517   -6.0527   25.9076 H   0  0  0  0  0  0
  -22.0618   -2.7582   23.2867 H   0  0  0  0  0  0
  -22.4143  -11.9856   22.4635 H   0  0  0  0  0  0
  -21.1128  -13.1231   22.2712 H   0  0  0  0  0  0
  -24.6829  -15.8451   20.5020 H   0  0  0  0  0  0
  -26.3061  -15.6049   20.0882 H   0  0  0  0  0  0
  -26.7107  -32.5578   23.1194 H   0  0  0  0  0  0
  -25.0037  -33.9782   25.0500 H   0  0  0  0  0  0
  -22.6868  -31.3171   21.4211 H   0  0  0  0  0  0
  -23.3723  -35.9690   23.3295 H   0  0  0  0  0  0
  -24.3590  -36.8936   22.2043 H   0  0  0  0  0  0
  -23.7284  -37.6562   23.6650 H   0  0  0  0  0  0
  -26.0242  -31.6301   20.5963 H   0  0  0  0  0  0
  -26.8114  -30.9043   21.9722 H   0  0  0  0  0  0
  -28.0980  -29.1407   21.1313 H   0  0  0  0  0  0
  -26.0696  -26.0070   18.9774 H   0  0  0  0  0  0
  -23.9655  -27.3102   19.0268 H   0  0  0  0  0  0
  -23.6992  -30.6159   19.4051 H   0  0  0  0  0  0
  -22.7285  -29.2528   19.8719 H   0  0  0  0  0  0
  -25.1294  -36.1964   25.0838 H   0  0  0  0  0  0
  -20.9976  -28.3225   24.1429 H   0  0  0  0  0  0
  -20.5634  -26.2278   23.3601 H   0  0  0  0  0  0
  -21.6636  -26.7425   22.1241 H   0  0  0  0  0  0
  -19.6888  -25.6303   21.1230 H   0  0  0  0  0  0
  -19.6656  -27.3206   20.6764 H   0  0  0  0  0  0
  -17.4193  -26.6652   21.4036 H   0  0  0  0  0  0
  -18.0326  -26.0049   22.9023 H   0  0  0  0  0  0
  -19.7923  -30.7264   24.2272 H   0  0  0  0  0  0
  -17.4995  -31.6244   24.5176 H   0  0  0  0  0  0
  -15.5339  -30.2968   23.7627 H   0  0  0  0  0  0
  -15.8674  -28.0831   22.6991 H   0  0  0  0  0  0
  -24.5918  -30.7023   25.7804 H   0  0  0  0  0  0
  -24.8915  -32.2820   26.4930 H   0  0  0  0  0  0
  -25.8066  -30.8841   27.0209 H   0  0  0  0  0  0
  -26.2827  -29.6797   24.1112 H   0  0  0  0  0  0
  -27.4042  -29.7252   25.4535 H   0  0  0  0  0  0
  -27.8675  -30.4352   23.9222 H   0  0  0  0  0  0
  -27.2686  -33.3558   26.2119 H   0  0  0  0  0  0
  -28.3840  -32.6846   25.0296 H   0  0  0  0  0  0
  -28.0736  -31.8348   26.5345 H   0  0  0  0  0  0
  -28.2611  -38.0115   24.7500 H   0  0  0  0  0  0
  -28.1072  -36.2640   24.6281 H   0  0  0  0  0  0
  -27.2290  -37.1488   25.8856 H   0  0  0  0  0  0
  -20.9224  -29.8783   21.6983 H   0  0  0  0  0  0
  -26.0172  -38.2871   24.1360 H   0  0  0  0  0  0
  -31.2345  -19.6839   22.2183 H   0  0  0  0  0  0
  -28.2808  -16.7004   19.6016 H   0  0  0  0  0  0
  -27.4291  -21.1025   21.0420 H   0  0  0  0  0  0
  -26.2728  -19.1644   17.8664 H   0  0  0  0  0  0
  -26.3763  -17.8706   19.0535 H   0  0  0  0  0  0
  -27.5525  -17.9618   17.7185 H   0  0  0  0  0  0
  -29.1059  -23.2864   22.2105 H   0  0  0  0  0  0
  -27.3769  -23.2132   22.0657 H   0  0  0  0  0  0
  -27.5250  -24.0258   19.6943 H   0  0  0  0  0  0
  -29.2692  -24.0973   19.8296 H   0  0  0  0  0  0
  -27.2895  -25.6439   21.5840 H   0  0  0  0  0  0
  -29.0113  -25.7373   21.7718 H   0  0  0  0  0  0
  -29.0393  -15.0246   21.5374 H   0  0  0  0  0  0
  1 25  1  0  0  0
  1 30  2  0  0  0
  1 83  1  0  0  0
  2  3  1  0  0  0
  2 25  1  0  0  0
  2 86  1  0  0  0
  2 87  1  0  0  0
  3  4  1  0  0  0
  3 88  1  0  0  0
  3 89  1  0  0  0
  4  5  1  0  0  0
  4 90  1  0  0  0
  4 91  1  0  0  0
  5  6  1  0  0  0
  5 26  1  0  0  0
  5 92  1  0  0  0
  6 25  1  0  0  0
  6 93  1  0  0  0
  6 94  1  0  0  0
  7  8  2  0  0  0
  7 26  1  0  0  0
  7 29  1  0  0  0
  8  9  1  0  0  0
  8 22  1  0  0  0
  9 10  1  0  0  0
  9 27  2  0  0  0
 10 11  2  0  0  0
 10 15  1  0  0  0
 11 12  1  0  0  0
 11 95  1  0  0  0
 12 13  2  0  0  0
 12 96  1  0  0  0
 13 14  1  0  0  0
 13 31  1  0  0  0
 14 15  2  0  0  0
 14 97  1  0  0  0
 15 98  1  0  0  0
 16 17  2  0  0  0
 16 21  1  0  0  0
 16 31  1  0  0  0
 17 18  1  0  0  0
 17 99  1  0  0  0
 18 19  2  0  0  0
 18100  1  0  0  0
 19 20  1  0  0  0
 19 24  1  0  0  0
 20 21  2  0  0  0
 20101  1  0  0  0
 21 23  1  0  0  0
 22 28  1  0  0  0
 22 32  2  0  0  0
 26 27  1  0  0  0
 28102  1  0  0  0
 28103  1  0  0  0
 29104  1  0  0  0
 29105  1  0  0  0
 33 34  1  0  0  0
 33 66  1  0  0  0
 33 70  2  0  0  0
 34 36  1  0  0  0
 34 59  1  0  0  0
 34106  1  0  0  0
 35 44  2  0  0  0
 35 45  1  0  0  0
 35 68  1  0  0  0
 36 56  1  0  0  0
 36107  1  0  0  0
 37 39  1  0  0  0
 37 47  1  0  0  0
 37 66  1  0  0  0
 37108  1  0  0  0
 38 43  2  0  0  0
 38 46  1  0  0  0
 38 47  1  0  0  0
 39 64  1  0  0  0
 39 67  2  0  0  0
 40 52  1  0  0  0
 40 53  2  0  0  0
 40 58  1  0  0  0
 41109  1  0  0  0
 41110  1  0  0  0
 41111  1  0  0  0
 41 48  1  0  0  0
 42 43  1  0  0  0
 42 66  1  0  0  0
 42112  1  0  0  0
 42113  1  0  0  0
 43 44  1  0  0  0
 44114  1  0  0  0
 45 46  2  0  0  0
 45115  1  0  0  0
 46116  1  0  0  0
 47117  1  0  0  0
 47118  1  0  0  0
 48 56  1  0  0  0
 48 65  1  0  0  0
 48119  1  0  0  0
 49 50  1  0  0  0
 49 53  1  0  0  0
 49 64  1  0  0  0
 49120  1  0  0  0
 50 51  1  0  0  0
 50121  1  0  0  0
 50122  1  0  0  0
 51 52  1  0  0  0
 51123  1  0  0  0
 51124  1  0  0  0
 52125  1  0  0  0
 52126  1  0  0  0
 53 54  1  0  0  0
 54 55  2  0  0  0
 54127  1  0  0  0
 55 57  1  0  0  0
 55128  1  0  0  0
 56 69  2  0  0  0
 57 58  2  0  0  0
 57129  1  0  0  0
 58130  1  0  0  0
 59 60  1  0  0  0
 59 61  1  0  0  0
 59 62  1  0  0  0
 60131  1  0  0  0
 60132  1  0  0  0
 60133  1  0  0  0
 61134  1  0  0  0
 61135  1  0  0  0
 61136  1  0  0  0
 62137  1  0  0  0
 62138  1  0  0  0
 62139  1  0  0  0
 63 65  1  0  0  0
 63140  1  0  0  0
 63141  1  0  0  0
 63142  1  0  0  0
 64143  1  0  0  0
 65144  1  0  0  0
 68 81  1  0  0  0
 71 73  2  0  0  0
 71 76  1  0  0  0
 71145  1  0  0  0
 72 74  1  0  0  0
 72 75  2  0  0  0
 72146  1  0  0  0
 73 75  1  0  0  0
 73 82  1  0  0  0
 74 76  2  0  0  0
 74 83  1  0  0  0
 75 84  1  0  0  0
 76 85  1  0  0  0
 77 79  1  0  0  0
 77 82  2  0  0  0
 77147  1  0  0  0
 78 84  1  0  0  0
 78148  1  0  0  0
 78149  1  0  0  0
 78150  1  0  0  0
 79 80  1  0  0  0
 79151  1  0  0  0
 79152  1  0  0  0
 80 81  1  0  0  0
 80153  1  0  0  0
 80154  1  0  0  0
 81155  1  0  0  0
 81156  1  0  0  0
 83157  1  0  0  0
M  ISO  4   1 100  68 101  81 101  83 100
M  END
> <chiral flag>
0

> <version>
0

> <s_m_source_file>
/data/baiqing/PycharmProjects/Reinvent-master-3.2/result/LINK_invent/BTK/process_docking_weight1_custom_product_contain_oxygen_bond_distance_aromatic_linkinvent_7_9_3/rearranged_h_0111.sdf

> <i_m_source_file_index>
43

> <r_mmod_Potential_Energy-OPLS-2005>
-50.7089920043945

> <r_mmod_Stretch_Energy-OPLS-2005>
38.3544502258301

> <r_mmod_Bend_Energy-OPLS-2005>
106.395629882812

> <r_mmod_Torsional_Energy-OPLS-2005>
275.818572998047

> <r_mmod_Improper_Torsional_Energy-OPLS-2005>
6.25776147842407

> <r_mmod_Van_der_Waal_Energy-OPLS-2005>
155.529739379883

> <r_mmod_Electrostatic_Energy-OPLS-2005>
-422.122161865234

> <r_mmod_Solvation_Energy-OPLS-2005>
-223.990478515625

> <b_mmod_Minimization_Converged-OPLS-2005>
0

> <r_mmod_RMS_Derivative-OPLS-2005>
4.95477294921875

$$$$
44
                    3D
 Structure written by MMmdl.
161169  0  0  1  0            999 V2000
  -30.6692  -14.5347   20.5536 C   0  0  0  0  0  0
  -30.4282  -12.3453   19.4226 C   0  0  0  0  0  0
  -29.4967  -12.5085   18.2039 C   0  0  0  0  0  0
  -28.0177  -12.3615   18.6161 C   0  0  0  0  0  0
  -27.6545  -13.2105   19.8645 C   0  0  2  0  0  0
  -28.6988  -13.0239   20.9869 C   0  0  0  0  0  0
  -25.2567  -13.8160   20.5666 C   0  0  0  0  0  0
  -24.1836  -13.0433   20.9186 C   0  0  0  0  0  0
  -24.6395  -11.6903   20.8742 C   0  0  0  0  0  0
  -23.9061  -10.4288   21.0412 C   0  0  0  0  0  0
  -24.3617   -9.4203   21.9188 C   0  0  0  0  0  0
  -23.6293   -8.2240   22.0756 C   0  0  0  0  0  0
  -22.4273   -8.0284   21.3548 C   0  0  0  0  0  0
  -21.9909   -9.0255   20.4649 C   0  0  0  0  0  0
  -22.7235  -10.2133   20.3057 C   0  0  0  0  0  0
  -21.6854   -6.0737   22.5284 C   0  0  0  0  0  0
  -21.4013   -6.5641   23.8215 C   0  0  0  0  0  0
  -21.3657   -5.6794   24.9177 C   0  0  0  0  0  0
  -21.6042   -4.3057   24.7228 C   0  0  0  0  0  0
  -21.8818   -3.8150   23.4349 C   0  0  0  0  0  0
  -21.9191   -4.6966   22.3407 C   0  0  0  0  0  0
  -22.7857  -13.5240   21.1847 C   0  0  0  0  0  0
  -22.1663   -4.2150   21.0982 F   0  0  0  0  0  0
  -21.5625   -3.4541   25.7740 F   0  0  0  0  0  0
  -30.0180  -13.3451   20.4221 N   0  0  0  0  0  0
  -26.2991  -12.9332   20.3316 N   0  0  0  0  0  0
  -25.9319  -11.6489   20.5744 N   0  0  0  0  0  0
  -22.0490  -12.8237   22.0399 N   0  0  0  0  0  0
  -25.4269  -15.1882   20.4055 N   0  0  0  0  0  0
  -31.8334  -14.6950   20.1754 O   0  0  0  0  0  0
  -21.6641   -6.8880   21.4244 O   0  0  0  0  0  0
  -22.3548  -14.5544   20.6689 O   0  0  0  0  0  0
  -24.6166  -31.8648   23.2064 C   0  0  0  0  0  0
  -25.9036  -32.4811   23.8382 C   0  0  1  0  0  0
  -27.2310  -27.4008   20.1173 C   0  0  0  0  0  0
  -25.5886  -33.8610   24.2312 N   0  0  0  0  0  0
  -23.4079  -30.4864   21.5464 C   0  0  2  0  0  0
  -24.8561  -28.9429   20.1185 C   0  0  0  0  0  0
  -22.7431  -29.4635   22.4962 C   0  0  0  0  0  0
  -18.0279  -28.1382   22.8476 C   0  0  0  0  0  0
  -24.1483  -36.7312   23.2642 C   0  0  0  0  0  0
  -25.9382  -30.8224   21.3619 C   0  0  0  0  0  0
  -26.0169  -29.4507   20.7171 C   0  0  0  0  0  0
  -27.2110  -28.6876   20.7110 C   0  0  0  0  0  0
  -26.0568  -26.9105   19.5148 C   0  0  0  0  0  0
  -24.8719  -27.6731   19.5128 C   0  0  0  0  0  0
  -23.6208  -29.8164   20.1621 C   0  0  0  0  0  0
  -25.4102  -36.3106   24.0342 C   0  0  1  0  0  0
  -20.5877  -28.3666   23.1311 C   0  0  2  0  0  0
  -20.6771  -26.9398   22.5428 C   0  0  0  0  0  0
  -19.5749  -26.6382   21.5216 C   0  0  0  0  0  0
  -18.1920  -26.7929   22.1616 C   0  0  0  0  0  0
  -19.1531  -28.8840   23.2890 C   0  0  0  0  0  0
  -18.9457  -30.1441   23.8908 C   0  0  0  0  0  0
  -17.6462  -30.6586   24.0562 C   0  0  0  0  0  0
  -25.9032  -34.9472   23.5129 C   0  0  0  0  0  0
  -16.5347  -29.9085   23.6328 C   0  0  0  0  0  0
  -16.7271  -28.6508   23.0335 C   0  0  0  0  0  0
  -26.4455  -31.6598   25.0718 C   0  0  0  0  0  0
  -25.3722  -31.3714   26.1475 C   0  0  0  0  0  0
  -27.0275  -30.3045   24.6077 C   0  0  0  0  0  0
  -27.6035  -32.4319   25.7477 C   0  0  0  0  0  0
  -27.5570  -37.1808   24.8469 C   0  0  0  0  0  0
  -21.4157  -29.3029   22.3710 N   0  0  0  0  0  0
  -26.4284  -37.3792   23.9414 N   0  0  0  0  0  0
  -24.6729  -31.0719   22.0978 N   0  0  0  0  0  0
  -23.4189  -28.8177   23.3020 O   0  0  0  0  0  0
  -28.3810  -26.6367   20.0712 O   0  0  0  0  0  0
  -26.5600  -34.8929   22.4694 O   0  0  0  0  0  0
  -23.5352  -32.1411   23.7436 O   0  0  0  0  0  0
  -29.6873  -18.0792   20.7145 C   0  0  0  0  0  0
  -31.0888  -19.5065   22.1022 C   0  0  0  0  0  0
  -31.2980  -17.0854   22.2592 C   0  0  0  0  0  0
  -30.0753  -19.3901   21.1248 C   0  0  0  0  0  0
  -30.3059  -16.9181   21.2679 C   0  0  0  0  0  0
  -31.6939  -18.3768   22.6849 C   0  0  0  0  0  0
  -29.5499  -20.6533   20.4504 C   0  0  0  0  0  0
  -28.7504  -21.5831   22.6054 C   0  0  0  0  0  0
  -33.2266  -17.4982   24.3148 C   0  0  0  0  0  0
  -28.3459  -24.0940   20.4785 C   0  0  0  0  0  0
  -29.5337  -23.1409   20.8566 C   0  0  0  0  0  0
  -28.4790  -25.5590   21.0283 C   0  0  0  0  0  0
  -29.8899  -15.5902   20.9050 N   0  0  0  0  0  0
  -29.2114  -21.7315   21.2215 N   0  0  0  0  0  0
  -29.5568  -20.7102   19.2179 O   0  0  0  0  0  0
  -32.6563  -18.6152   23.6421 O   0  0  0  0  0  0
  -31.4705  -12.4621   19.1199 H   0  0  0  0  0  0
  -30.3475  -11.3399   19.8378 H   0  0  0  0  0  0
  -29.7442  -11.7720   17.4384 H   0  0  0  0  0  0
  -29.6551  -13.4876   17.7485 H   0  0  0  0  0  0
  -27.8345  -11.3059   18.8186 H   0  0  0  0  0  0
  -27.3679  -12.6267   17.7810 H   0  0  0  0  0  0
  -27.6844  -14.2536   19.5493 H   0  0  0  0  0  0
  -28.6916  -11.9943   21.3486 H   0  0  0  0  0  0
  -28.4593  -13.6440   21.8528 H   0  0  0  0  0  0
  -25.2762   -9.5681   22.4762 H   0  0  0  0  0  0
  -24.0002   -7.4631   22.7475 H   0  0  0  0  0  0
  -21.0839   -8.8773   19.8959 H   0  0  0  0  0  0
  -22.3697  -10.9672   19.6167 H   0  0  0  0  0  0
  -21.2010   -7.6149   23.9720 H   0  0  0  0  0  0
  -21.1480   -6.0525   25.9078 H   0  0  0  0  0  0
  -22.0598   -2.7610   23.2850 H   0  0  0  0  0  0
  -22.4096  -11.9908   22.4811 H   0  0  0  0  0  0
  -21.1100  -13.1263   22.2571 H   0  0  0  0  0  0
  -24.6550  -15.8379   20.5071 H   0  0  0  0  0  0
  -26.2644  -15.6265   20.0453 H   0  0  0  0  0  0
  -26.7104  -32.5519   23.1139 H   0  0  0  0  0  0
  -25.0046  -33.9779   25.0462 H   0  0  0  0  0  0
  -22.6987  -31.3036   21.4026 H   0  0  0  0  0  0
  -23.3741  -35.9651   23.3320 H   0  0  0  0  0  0
  -24.3578  -36.8911   22.2054 H   0  0  0  0  0  0
  -23.7243  -37.6525   23.6644 H   0  0  0  0  0  0
  -26.0458  -31.5813   20.5861 H   0  0  0  0  0  0
  -26.8283  -30.8868   21.9756 H   0  0  0  0  0  0
  -28.1107  -29.0758   21.1677 H   0  0  0  0  0  0
  -26.0625  -25.9374   19.0440 H   0  0  0  0  0  0
  -23.9809  -27.2781   19.0436 H   0  0  0  0  0  0
  -23.7370  -30.5915   19.4037 H   0  0  0  0  0  0
  -22.7438  -29.2399   19.8609 H   0  0  0  0  0  0
  -25.1274  -36.1972   25.0835 H   0  0  0  0  0  0
  -20.9963  -28.3236   24.1435 H   0  0  0  0  0  0
  -20.5681  -26.2265   23.3616 H   0  0  0  0  0  0
  -21.6636  -26.7439   22.1207 H   0  0  0  0  0  0
  -19.6913  -25.6295   21.1236 H   0  0  0  0  0  0
  -19.6702  -27.3203   20.6758 H   0  0  0  0  0  0
  -17.4201  -26.6693   21.4006 H   0  0  0  0  0  0
  -18.0295  -26.0078   22.9016 H   0  0  0  0  0  0
  -19.7938  -30.7245   24.2283 H   0  0  0  0  0  0
  -17.5023  -31.6268   24.5154 H   0  0  0  0  0  0
  -15.5345  -30.2989   23.7646 H   0  0  0  0  0  0
  -15.8675  -28.0834   22.7029 H   0  0  0  0  0  0
  -24.5912  -30.7025   25.7834 H   0  0  0  0  0  0
  -24.8883  -32.2866   26.4902 H   0  0  0  0  0  0
  -25.8088  -30.8920   27.0248 H   0  0  0  0  0  0
  -26.2804  -29.6834   24.1120 H   0  0  0  0  0  0
  -27.4053  -29.7256   25.4514 H   0  0  0  0  0  0
  -27.8637  -30.4376   23.9211 H   0  0  0  0  0  0
  -27.2663  -33.3634   26.2037 H   0  0  0  0  0  0
  -28.3847  -32.6858   25.0300 H   0  0  0  0  0  0
  -28.0693  -31.8455   26.5408 H   0  0  0  0  0  0
  -28.2591  -38.0093   24.7508 H   0  0  0  0  0  0
  -28.1061  -36.2635   24.6304 H   0  0  0  0  0  0
  -27.2302  -37.1475   25.8874 H   0  0  0  0  0  0
  -20.9317  -29.8775   21.6949 H   0  0  0  0  0  0
  -26.0179  -38.2870   24.1430 H   0  0  0  0  0  0
  -28.9258  -17.9725   19.9540 H   0  0  0  0  0  0
  -31.4281  -20.4874   22.4046 H   0  0  0  0  0  0
  -31.7427  -16.2023   22.6922 H   0  0  0  0  0  0
  -28.2363  -20.6345   22.7668 H   0  0  0  0  0  0
  -28.0464  -22.3741   22.8656 H   0  0  0  0  0  0
  -29.5832  -21.6433   23.3058 H   0  0  0  0  0  0
  -33.9654  -17.8482   25.0356 H   0  0  0  0  0  0
  -33.7376  -16.8270   23.6229 H   0  0  0  0  0  0
  -32.4682  -16.9407   24.8664 H   0  0  0  0  0  0
  -27.4061  -23.6770   20.8410 H   0  0  0  0  0  0
  -28.2456  -24.1210   19.3936 H   0  0  0  0  0  0
  -30.0723  -23.5573   21.7084 H   0  0  0  0  0  0
  -30.2655  -23.1558   20.0464 H   0  0  0  0  0  0
  -29.4535  -25.6839   21.4998 H   0  0  0  0  0  0
  -27.7625  -25.7013   21.8404 H   0  0  0  0  0  0
  -28.9016  -15.4006   20.9639 H   0  0  0  0  0  0
  1 25  1  0  0  0
  1 30  2  0  0  0
  1 83  1  0  0  0
  2  3  1  0  0  0
  2 25  1  0  0  0
  2 87  1  0  0  0
  2 88  1  0  0  0
  3  4  1  0  0  0
  3 89  1  0  0  0
  3 90  1  0  0  0
  4  5  1  0  0  0
  4 91  1  0  0  0
  4 92  1  0  0  0
  5  6  1  0  0  0
  5 26  1  0  0  0
  5 93  1  0  0  0
  6 25  1  0  0  0
  6 94  1  0  0  0
  6 95  1  0  0  0
  7  8  2  0  0  0
  7 26  1  0  0  0
  7 29  1  0  0  0
  8  9  1  0  0  0
  8 22  1  0  0  0
  9 10  1  0  0  0
  9 27  2  0  0  0
 10 11  2  0  0  0
 10 15  1  0  0  0
 11 12  1  0  0  0
 11 96  1  0  0  0
 12 13  2  0  0  0
 12 97  1  0  0  0
 13 14  1  0  0  0
 13 31  1  0  0  0
 14 15  2  0  0  0
 14 98  1  0  0  0
 15 99  1  0  0  0
 16 17  2  0  0  0
 16 21  1  0  0  0
 16 31  1  0  0  0
 17 18  1  0  0  0
 17100  1  0  0  0
 18 19  2  0  0  0
 18101  1  0  0  0
 19 20  1  0  0  0
 19 24  1  0  0  0
 20 21  2  0  0  0
 20102  1  0  0  0
 21 23  1  0  0  0
 22 28  1  0  0  0
 22 32  2  0  0  0
 26 27  1  0  0  0
 28103  1  0  0  0
 28104  1  0  0  0
 29105  1  0  0  0
 29106  1  0  0  0
 33 34  1  0  0  0
 33 66  1  0  0  0
 33 70  2  0  0  0
 34 36  1  0  0  0
 34 59  1  0  0  0
 34107  1  0  0  0
 35 44  2  0  0  0
 35 45  1  0  0  0
 35 68  1  0  0  0
 36 56  1  0  0  0
 36108  1  0  0  0
 37 39  1  0  0  0
 37 47  1  0  0  0
 37 66  1  0  0  0
 37109  1  0  0  0
 38 43  2  0  0  0
 38 46  1  0  0  0
 38 47  1  0  0  0
 39 64  1  0  0  0
 39 67  2  0  0  0
 40 52  1  0  0  0
 40 53  2  0  0  0
 40 58  1  0  0  0
 41110  1  0  0  0
 41111  1  0  0  0
 41112  1  0  0  0
 41 48  1  0  0  0
 42 43  1  0  0  0
 42 66  1  0  0  0
 42113  1  0  0  0
 42114  1  0  0  0
 43 44  1  0  0  0
 44115  1  0  0  0
 45 46  2  0  0  0
 45116  1  0  0  0
 46117  1  0  0  0
 47118  1  0  0  0
 47119  1  0  0  0
 48 56  1  0  0  0
 48 65  1  0  0  0
 48120  1  0  0  0
 49 50  1  0  0  0
 49 53  1  0  0  0
 49 64  1  0  0  0
 49121  1  0  0  0
 50 51  1  0  0  0
 50122  1  0  0  0
 50123  1  0  0  0
 51 52  1  0  0  0
 51124  1  0  0  0
 51125  1  0  0  0
 52126  1  0  0  0
 52127  1  0  0  0
 53 54  1  0  0  0
 54 55  2  0  0  0
 54128  1  0  0  0
 55 57  1  0  0  0
 55129  1  0  0  0
 56 69  2  0  0  0
 57 58  2  0  0  0
 57130  1  0  0  0
 58131  1  0  0  0
 59 60  1  0  0  0
 59 61  1  0  0  0
 59 62  1  0  0  0
 60132  1  0  0  0
 60133  1  0  0  0
 60134  1  0  0  0
 61135  1  0  0  0
 61136  1  0  0  0
 61137  1  0  0  0
 62138  1  0  0  0
 62139  1  0  0  0
 62140  1  0  0  0
 63 65  1  0  0  0
 63141  1  0  0  0
 63142  1  0  0  0
 63143  1  0  0  0
 64144  1  0  0  0
 65145  1  0  0  0
 68 82  1  0  0  0
 71 74  2  0  0  0
 71 75  1  0  0  0
 71146  1  0  0  0
 72 74  1  0  0  0
 72 76  2  0  0  0
 72147  1  0  0  0
 73 75  2  0  0  0
 73 76  1  0  0  0
 73148  1  0  0  0
 74 77  1  0  0  0
 75 83  1  0  0  0
 76 86  1  0  0  0
 77 84  1  0  0  0
 77 85  2  0  0  0
 78 84  1  0  0  0
 78149  1  0  0  0
 78150  1  0  0  0
 78151  1  0  0  0
 79 86  1  0  0  0
 79152  1  0  0  0
 79153  1  0  0  0
 79154  1  0  0  0
 80 81  1  0  0  0
 80 82  1  0  0  0
 80155  1  0  0  0
 80156  1  0  0  0
 81 84  1  0  0  0
 81157  1  0  0  0
 81158  1  0  0  0
 82159  1  0  0  0
 82160  1  0  0  0
 83161  1  0  0  0
M  ISO  4   1 100  68 101  82 101  83 100
M  END
> <chiral flag>
0

> <version>
0

> <s_m_source_file>
/data/baiqing/PycharmProjects/Reinvent-master-3.2/result/LINK_invent/BTK/process_docking_weight1_custom_product_contain_oxygen_bond_distance_aromatic_linkinvent_7_9_3/rearranged_h_0111.sdf

> <i_m_source_file_index>
44

> <r_mmod_Potential_Energy-OPLS-2005>
78.4357147216797

> <r_mmod_Stretch_Energy-OPLS-2005>
50.7775840759277

> <r_mmod_Bend_Energy-OPLS-2005>
112.014114379883

> <r_mmod_Torsional_Energy-OPLS-2005>
333.210723876953

> <r_mmod_Improper_Torsional_Energy-OPLS-2005>
7.40892028808594

> <r_mmod_Van_der_Waal_Energy-OPLS-2005>
153.943206787109

> <r_mmod_Electrostatic_Energy-OPLS-2005>
-365.114562988281

> <r_mmod_Solvation_Energy-OPLS-2005>
-234.579071044922

> <b_mmod_Minimization_Converged-OPLS-2005>
0

> <r_mmod_RMS_Derivative-OPLS-2005>
1.40053701400757

$$$$
45
                    3D
 Structure written by MMmdl.
169177  0  0  1  0            999 V2000
  -30.6818  -14.5517   20.4057 C   0  0  0  0  0  0
  -30.4140  -12.3067   19.4479 C   0  0  0  0  0  0
  -29.4919  -12.4291   18.2151 C   0  0  0  0  0  0
  -28.0119  -12.3168   18.6278 C   0  0  0  0  0  0
  -27.6477  -13.2063   19.8469 C   0  0  2  0  0  0
  -28.6985  -13.0927   20.9775 C   0  0  0  0  0  0
  -25.2593  -13.8190   20.5672 C   0  0  0  0  0  0
  -24.1845  -13.0470   20.9193 C   0  0  0  0  0  0
  -24.6393  -11.6927   20.8752 C   0  0  0  0  0  0
  -23.9071  -10.4308   21.0415 C   0  0  0  0  0  0
  -24.3628   -9.4221   21.9187 C   0  0  0  0  0  0
  -23.6308   -8.2255   22.0752 C   0  0  0  0  0  0
  -22.4291   -8.0299   21.3532 C   0  0  0  0  0  0
  -21.9929   -9.0277   20.4636 C   0  0  0  0  0  0
  -22.7257  -10.2157   20.3052 C   0  0  0  0  0  0
  -21.6864   -6.0747   22.5270 C   0  0  0  0  0  0
  -21.4009   -6.5642   23.8203 C   0  0  0  0  0  0
  -21.3661   -5.6791   24.9167 C   0  0  0  0  0  0
  -21.6052   -4.3057   24.7219 C   0  0  0  0  0  0
  -21.8820   -3.8153   23.4334 C   0  0  0  0  0  0
  -21.9202   -4.6974   22.3397 C   0  0  0  0  0  0
  -22.7875  -13.5259   21.1875 C   0  0  0  0  0  0
  -22.1673   -4.2166   21.0979 F   0  0  0  0  0  0
  -21.5622   -3.4546   25.7728 F   0  0  0  0  0  0
  -30.0193  -13.3592   20.3964 N   0  0  0  0  0  0
  -26.2983  -12.9333   20.3285 N   0  0  0  0  0  0
  -25.9318  -11.6507   20.5789 N   0  0  0  0  0  0
  -22.0546  -12.8190   22.0403 N   0  0  0  0  0  0
  -25.4344  -15.1911   20.4055 N   0  0  0  0  0  0
  -31.9048  -14.6090   20.2708 O   0  0  0  0  0  0
  -21.6654   -6.8899   21.4233 O   0  0  0  0  0  0
  -22.3549  -14.5592   20.6774 O   0  0  0  0  0  0
  -24.6187  -31.8656   23.2081 C   0  0  0  0  0  0
  -25.9073  -32.4809   23.8389 C   0  0  1  0  0  0
  -27.2259  -27.3952   20.1099 C   0  0  0  0  0  0
  -25.5913  -33.8609   24.2310 N   0  0  0  0  0  0
  -23.4080  -30.4905   21.5501 C   0  0  2  0  0  0
  -24.8541  -28.9579   20.1133 C   0  0  0  0  0  0
  -22.7421  -29.4662   22.4983 C   0  0  0  0  0  0
  -18.0271  -28.1382   22.8494 C   0  0  0  0  0  0
  -24.1486  -36.7307   23.2641 C   0  0  0  0  0  0
  -25.9427  -30.8204   21.3690 C   0  0  0  0  0  0
  -26.0185  -29.4549   20.7124 C   0  0  0  0  0  0
  -27.2092  -28.6836   20.7025 C   0  0  0  0  0  0
  -26.0413  -26.9355   19.4855 C   0  0  0  0  0  0
  -24.8627  -27.6996   19.4947 C   0  0  0  0  0  0
  -23.6164  -29.8245   20.1650 C   0  0  0  0  0  0
  -25.4112  -36.3098   24.0327 C   0  0  1  0  0  0
  -20.5861  -28.3671   23.1311 C   0  0  2  0  0  0
  -20.6762  -26.9401   22.5432 C   0  0  0  0  0  0
  -19.5753  -26.6384   21.5221 C   0  0  0  0  0  0
  -18.1915  -26.7942   22.1599 C   0  0  0  0  0  0
  -19.1520  -28.8845   23.2900 C   0  0  0  0  0  0
  -18.9447  -30.1448   23.8916 C   0  0  0  0  0  0
  -17.6449  -30.6592   24.0566 C   0  0  0  0  0  0
  -25.9040  -34.9468   23.5115 C   0  0  0  0  0  0
  -16.5340  -29.9091   23.6336 C   0  0  0  0  0  0
  -16.7263  -28.6500   23.0369 C   0  0  0  0  0  0
  -26.4484  -31.6597   25.0740 C   0  0  0  0  0  0
  -25.3737  -31.3723   26.1477 C   0  0  0  0  0  0
  -27.0322  -30.3030   24.6160 C   0  0  0  0  0  0
  -27.6043  -32.4338   25.7503 C   0  0  0  0  0  0
  -27.5586  -37.1809   24.8458 C   0  0  0  0  0  0
  -21.4143  -29.3037   22.3719 N   0  0  0  0  0  0
  -26.4298  -37.3787   23.9403 N   0  0  0  0  0  0
  -24.6751  -31.0737   22.0997 N   0  0  0  0  0  0
  -23.4172  -28.8202   23.3040 O   0  0  0  0  0  0
  -28.3593  -26.5939   20.1702 O   0  0  0  0  0  0
  -26.5605  -34.8918   22.4679 O   0  0  0  0  0  0
  -23.5376  -32.1423   23.7461 O   0  0  0  0  0  0
  -31.0981  -18.5623   22.8831 C   0  0  0  0  0  0
  -29.5290  -19.4880   21.2789 C   0  0  0  0  0  0
  -31.7037  -19.8286   23.0527 C   0  0  0  0  0  0
  -30.0152  -18.3632   22.0051 C   0  0  0  0  0  0
  -30.1101  -20.7765   21.4336 C   0  0  0  0  0  0
  -31.1795  -20.9472   22.3488 C   0  0  0  0  0  0
  -32.8689  -19.9706   23.9532 C   0  0  0  0  0  0
  -33.2377  -19.1055   24.9168 C   0  0  0  0  0  0
  -29.2605  -24.2714   20.6416 C   0  0  0  0  0  0
  -29.1381  -16.4390   20.4919 C   0  0  0  0  0  0
  -34.4508  -19.2743   25.8051 C   0  0  0  0  0  0
  -30.2291  -15.8911   18.4361 C   0  0  0  0  0  0
  -31.4524  -22.8557   23.7080 C   0  0  0  0  0  0
  -29.4062  -16.9395   21.9256 C   0  0  0  0  0  0
  -28.0740  -25.1685   20.2206 C   0  0  0  0  0  0
  -28.9105  -22.8647   21.2010 C   0  0  0  0  0  0
  -29.9546  -15.5601   19.8494 N   0  0  0  0  0  0
  -30.4315  -24.6538   20.5330 O   0  0  0  0  0  0
  -28.1799  -16.9445   19.8933 O   0  0  0  0  0  0
  -31.7380  -22.1973   22.4768 O   0  0  0  0  0  0
  -29.7189  -21.8265   20.6169 O   0  0  0  0  0  0
  -31.4612  -12.3836   19.1485 H   0  0  0  0  0  0
  -30.3031  -11.3244   19.9099 H   0  0  0  0  0  0
  -29.7280  -11.6486   17.4907 H   0  0  0  0  0  0
  -29.6608  -13.3700   17.6958 H   0  0  0  0  0  0
  -27.8177  -11.2687   18.8618 H   0  0  0  0  0  0
  -27.3679  -12.5605   17.7818 H   0  0  0  0  0  0
  -27.6477  -14.2283   19.4731 H   0  0  0  0  0  0
  -28.6828  -12.0970   21.4231 H   0  0  0  0  0  0
  -28.4763  -13.7954   21.7817 H   0  0  0  0  0  0
  -25.2776   -9.5693   22.4757 H   0  0  0  0  0  0
  -24.0023   -7.4645   22.7468 H   0  0  0  0  0  0
  -21.0870   -8.8809   19.8938 H   0  0  0  0  0  0
  -22.3736  -10.9705   19.6158 H   0  0  0  0  0  0
  -21.1999   -7.6150   23.9708 H   0  0  0  0  0  0
  -21.1468   -6.0525   25.9068 H   0  0  0  0  0  0
  -22.0597   -2.7620   23.2842 H   0  0  0  0  0  0
  -22.4191  -11.9803   22.4671 H   0  0  0  0  0  0
  -21.1184  -13.1188   22.2702 H   0  0  0  0  0  0
  -24.6629  -15.8426   20.4987 H   0  0  0  0  0  0
  -26.2815  -15.6364   20.0665 H   0  0  0  0  0  0
  -26.7145  -32.5494   23.1147 H   0  0  0  0  0  0
  -25.0071  -33.9764   25.0461 H   0  0  0  0  0  0
  -22.6996  -31.3089   21.4093 H   0  0  0  0  0  0
  -23.3754  -35.9631   23.3290 H   0  0  0  0  0  0
  -24.3582  -36.8953   22.2062 H   0  0  0  0  0  0
  -23.7225  -37.6497   23.6678 H   0  0  0  0  0  0
  -26.0672  -31.5872   20.6033 H   0  0  0  0  0  0
  -26.8251  -30.8667   21.9952 H   0  0  0  0  0  0
  -28.1030  -29.0581   21.1809 H   0  0  0  0  0  0
  -25.9970  -25.9768   18.9915 H   0  0  0  0  0  0
  -23.9692  -27.3115   19.0256 H   0  0  0  0  0  0
  -23.7215  -30.5979   19.4036 H   0  0  0  0  0  0
  -22.7404  -29.2424   19.8720 H   0  0  0  0  0  0
  -25.1300  -36.1962   25.0822 H   0  0  0  0  0  0
  -20.9951  -28.3246   24.1431 H   0  0  0  0  0  0
  -20.5656  -26.2281   23.3626 H   0  0  0  0  0  0
  -21.6637  -26.7445   22.1235 H   0  0  0  0  0  0
  -19.6914  -25.6291   21.1254 H   0  0  0  0  0  0
  -19.6713  -27.3194   20.6751 H   0  0  0  0  0  0
  -17.4205  -26.6736   21.3969 H   0  0  0  0  0  0
  -18.0274  -26.0060   22.8963 H   0  0  0  0  0  0
  -19.7919  -30.7269   24.2294 H   0  0  0  0  0  0
  -17.5001  -31.6281   24.5155 H   0  0  0  0  0  0
  -15.5342  -30.2998   23.7665 H   0  0  0  0  0  0
  -15.8656  -28.0830   22.7095 H   0  0  0  0  0  0
  -24.5915  -30.7060   25.7824 H   0  0  0  0  0  0
  -24.8925  -32.2884   26.4915 H   0  0  0  0  0  0
  -25.8090  -30.8909   27.0242 H   0  0  0  0  0  0
  -26.2886  -29.6785   24.1197 H   0  0  0  0  0  0
  -27.4040  -29.7288   25.4655 H   0  0  0  0  0  0
  -27.8743  -30.4329   23.9361 H   0  0  0  0  0  0
  -27.2641  -33.3620   26.2112 H   0  0  0  0  0  0
  -28.3839  -32.6935   25.0328 H   0  0  0  0  0  0
  -28.0725  -31.8449   26.5401 H   0  0  0  0  0  0
  -28.2603  -38.0106   24.7504 H   0  0  0  0  0  0
  -28.1081  -36.2637   24.6279 H   0  0  0  0  0  0
  -27.2309  -37.1472   25.8864 H   0  0  0  0  0  0
  -20.9307  -29.8749   21.6932 H   0  0  0  0  0  0
  -26.0183  -38.2863   24.1401 H   0  0  0  0  0  0
  -31.4842  -17.7074   23.4174 H   0  0  0  0  0  0
  -28.7111  -19.3717   20.5818 H   0  0  0  0  0  0
  -33.4841  -20.8468   23.7946 H   0  0  0  0  0  0
  -32.6572  -18.2152   25.1111 H   0  0  0  0  0  0
  -34.9935  -20.1938   25.5819 H   0  0  0  0  0  0
  -35.1319  -18.4329   25.6734 H   0  0  0  0  0  0
  -34.1443  -19.3005   26.8510 H   0  0  0  0  0  0
  -29.3363  -15.7430   17.8271 H   0  0  0  0  0  0
  -31.0192  -15.2841   17.9905 H   0  0  0  0  0  0
  -30.5400  -16.9318   18.3292 H   0  0  0  0  0  0
  -31.8100  -23.8834   23.6595 H   0  0  0  0  0  0
  -31.9344  -22.3861   24.5631 H   0  0  0  0  0  0
  -30.3836  -22.8909   23.9118 H   0  0  0  0  0  0
  -28.4533  -16.9501   22.4542 H   0  0  0  0  0  0
  -30.0297  -16.2299   22.4695 H   0  0  0  0  0  0
  -27.2533  -24.9825   20.9154 H   0  0  0  0  0  0
  -27.7545  -24.8249   19.2366 H   0  0  0  0  0  0
  -27.8646  -22.6473   20.9851 H   0  0  0  0  0  0
  -29.0020  -22.8802   22.2846 H   0  0  0  0  0  0
  1 25  1  0  0  0
  1 30  2  0  0  0
  1 87  1  0  0  0
  2  3  1  0  0  0
  2 25  1  0  0  0
  2 92  1  0  0  0
  2 93  1  0  0  0
  3  4  1  0  0  0
  3 94  1  0  0  0
  3 95  1  0  0  0
  4  5  1  0  0  0
  4 96  1  0  0  0
  4 97  1  0  0  0
  5  6  1  0  0  0
  5 26  1  0  0  0
  5 98  1  0  0  0
  6 25  1  0  0  0
  6 99  1  0  0  0
  6100  1  0  0  0
  7  8  2  0  0  0
  7 26  1  0  0  0
  7 29  1  0  0  0
  8  9  1  0  0  0
  8 22  1  0  0  0
  9 10  1  0  0  0
  9 27  2  0  0  0
 10 11  2  0  0  0
 10 15  1  0  0  0
 11 12  1  0  0  0
 11101  1  0  0  0
 12 13  2  0  0  0
 12102  1  0  0  0
 13 14  1  0  0  0
 13 31  1  0  0  0
 14 15  2  0  0  0
 14103  1  0  0  0
 15104  1  0  0  0
 16 17  2  0  0  0
 16 21  1  0  0  0
 16 31  1  0  0  0
 17 18  1  0  0  0
 17105  1  0  0  0
 18 19  2  0  0  0
 18106  1  0  0  0
 19 20  1  0  0  0
 19 24  1  0  0  0
 20 21  2  0  0  0
 20107  1  0  0  0
 21 23  1  0  0  0
 22 28  1  0  0  0
 22 32  2  0  0  0
 26 27  1  0  0  0
 28108  1  0  0  0
 28109  1  0  0  0
 29110  1  0  0  0
 29111  1  0  0  0
 33 34  1  0  0  0
 33 66  1  0  0  0
 33 70  2  0  0  0
 34 36  1  0  0  0
 34 59  1  0  0  0
 34112  1  0  0  0
 35 44  2  0  0  0
 35 45  1  0  0  0
 35 68  1  0  0  0
 36 56  1  0  0  0
 36113  1  0  0  0
 37 39  1  0  0  0
 37 47  1  0  0  0
 37 66  1  0  0  0
 37114  1  0  0  0
 38 43  2  0  0  0
 38 46  1  0  0  0
 38 47  1  0  0  0
 39 64  1  0  0  0
 39 67  2  0  0  0
 40 52  1  0  0  0
 40 53  2  0  0  0
 40 58  1  0  0  0
 41115  1  0  0  0
 41116  1  0  0  0
 41117  1  0  0  0
 41 48  1  0  0  0
 42 43  1  0  0  0
 42 66  1  0  0  0
 42118  1  0  0  0
 42119  1  0  0  0
 43 44  1  0  0  0
 44120  1  0  0  0
 45 46  2  0  0  0
 45121  1  0  0  0
 46122  1  0  0  0
 47123  1  0  0  0
 47124  1  0  0  0
 48 56  1  0  0  0
 48 65  1  0  0  0
 48125  1  0  0  0
 49 50  1  0  0  0
 49 53  1  0  0  0
 49 64  1  0  0  0
 49126  1  0  0  0
 50 51  1  0  0  0
 50127  1  0  0  0
 50128  1  0  0  0
 51 52  1  0  0  0
 51129  1  0  0  0
 51130  1  0  0  0
 52131  1  0  0  0
 52132  1  0  0  0
 53 54  1  0  0  0
 54 55  2  0  0  0
 54133  1  0  0  0
 55 57  1  0  0  0
 55134  1  0  0  0
 56 69  2  0  0  0
 57 58  2  0  0  0
 57135  1  0  0  0
 58136  1  0  0  0
 59 60  1  0  0  0
 59 61  1  0  0  0
 59 62  1  0  0  0
 60137  1  0  0  0
 60138  1  0  0  0
 60139  1  0  0  0
 61140  1  0  0  0
 61141  1  0  0  0
 61142  1  0  0  0
 62143  1  0  0  0
 62144  1  0  0  0
 62145  1  0  0  0
 63 65  1  0  0  0
 63146  1  0  0  0
 63147  1  0  0  0
 63148  1  0  0  0
 64149  1  0  0  0
 65150  1  0  0  0
 68 85  1  0  0  0
 71 73  2  0  0  0
 71 74  1  0  0  0
 71151  1  0  0  0
 72 74  2  0  0  0
 72 75  1  0  0  0
 72152  1  0  0  0
 73 76  1  0  0  0
 73 77  1  0  0  0
 74 84  1  0  0  0
 75 76  2  0  0  0
 75 91  1  0  0  0
 76 90  1  0  0  0
 77 78  2  0  0  0
 77153  1  0  0  0
 78 81  1  0  0  0
 78154  1  0  0  0
 79 85  1  0  0  0
 79 86  1  0  0  0
 79 88  2  0  0  0
 80 84  1  0  0  0
 80 87  1  0  0  0
 80 89  2  0  0  0
 81155  1  0  0  0
 81156  1  0  0  0
 81157  1  0  0  0
 82 87  1  0  0  0
 82158  1  0  0  0
 82159  1  0  0  0
 82160  1  0  0  0
 83 90  1  0  0  0
 83161  1  0  0  0
 83162  1  0  0  0
 83163  1  0  0  0
 84164  1  0  0  0
 84165  1  0  0  0
 85166  1  0  0  0
 85167  1  0  0  0
 86 91  1  0  0  0
 86168  1  0  0  0
 86169  1  0  0  0
M  ISO  4   1 100  68 101  85 101  87 100
M  END
> <chiral flag>
0

> <version>
0

> <s_m_source_file>
/data/baiqing/PycharmProjects/Reinvent-master-3.2/result/LINK_invent/BTK/process_docking_weight1_custom_product_contain_oxygen_bond_distance_aromatic_linkinvent_7_9_3/rearranged_h_0111.sdf

> <i_m_source_file_index>
45

> <r_mmod_Potential_Energy-OPLS-2005>
275.736358642578

> <r_mmod_Stretch_Energy-OPLS-2005>
50.6546859741211

> <r_mmod_Bend_Energy-OPLS-2005>
117.19686126709

> <r_mmod_Torsional_Energy-OPLS-2005>
394.950927734375

> <r_mmod_Improper_Torsional_Energy-OPLS-2005>
28.8285045623779

> <r_mmod_Van_der_Waal_Energy-OPLS-2005>
154.762878417969

> <r_mmod_Electrostatic_Energy-OPLS-2005>
-278.658538818359

> <r_mmod_Solvation_Energy-OPLS-2005>
-230.676666259766

> <b_mmod_Minimization_Converged-OPLS-2005>
0

> <r_mmod_RMS_Derivative-OPLS-2005>
2.16050386428833

$$$$
46
                    3D
 Structure written by MMmdl.
154162  0  0  1  0            999 V2000
  -30.7234  -14.4898   20.5637 C   0  0  0  0  0  0
  -30.4161  -12.3193   19.4304 C   0  0  0  0  0  0
  -29.4953  -12.5057   18.2087 C   0  0  0  0  0  0
  -28.0171  -12.3646   18.6204 C   0  0  0  0  0  0
  -27.6579  -13.2145   19.8696 C   0  0  2  0  0  0
  -28.7018  -13.0323   20.9952 C   0  0  0  0  0  0
  -25.2576  -13.8172   20.5682 C   0  0  0  0  0  0
  -24.1838  -13.0441   20.9181 C   0  0  0  0  0  0
  -24.6402  -11.6910   20.8736 C   0  0  0  0  0  0
  -23.9068  -10.4294   21.0403 C   0  0  0  0  0  0
  -24.3624   -9.4214   21.9179 C   0  0  0  0  0  0
  -23.6300   -8.2252   22.0751 C   0  0  0  0  0  0
  -22.4281   -8.0286   21.3543 C   0  0  0  0  0  0
  -21.9914   -9.0257   20.4644 C   0  0  0  0  0  0
  -22.7240  -10.2138   20.3051 C   0  0  0  0  0  0
  -21.6860   -6.0741   22.5282 C   0  0  0  0  0  0
  -21.4018   -6.5643   23.8217 C   0  0  0  0  0  0
  -21.3660   -5.6794   24.9178 C   0  0  0  0  0  0
  -21.6043   -4.3054   24.7224 C   0  0  0  0  0  0
  -21.8818   -3.8151   23.4344 C   0  0  0  0  0  0
  -21.9194   -4.6970   22.3403 C   0  0  0  0  0  0
  -22.7861  -13.5236   21.1832 C   0  0  0  0  0  0
  -22.1656   -4.2154   21.0980 F   0  0  0  0  0  0
  -21.5633   -3.4534   25.7736 F   0  0  0  0  0  0
  -30.0290  -13.3264   20.4327 N   0  0  0  0  0  0
  -26.3013  -12.9356   20.3352 N   0  0  0  0  0  0
  -25.9331  -11.6506   20.5758 N   0  0  0  0  0  0
  -22.0498  -12.8238   22.0392 N   0  0  0  0  0  0
  -25.4300  -15.1893   20.4093 N   0  0  0  0  0  0
  -31.8625  -14.6308   20.1127 O   0  0  0  0  0  0
  -21.6647   -6.8882   21.4239 O   0  0  0  0  0  0
  -22.3555  -14.5541   20.6674 O   0  0  0  0  0  0
  -24.6178  -31.8678   23.2117 C   0  0  0  0  0  0
  -25.9065  -32.4821   23.8410 C   0  0  1  0  0  0
  -27.2256  -27.4048   20.0944 C   0  0  0  0  0  0
  -25.5921  -33.8621   24.2336 N   0  0  0  0  0  0
  -23.4062  -30.4948   21.5533 C   0  0  2  0  0  0
  -24.8500  -28.9656   20.1124 C   0  0  0  0  0  0
  -22.7429  -29.4662   22.4985 C   0  0  0  0  0  0
  -18.0279  -28.1377   22.8488 C   0  0  0  0  0  0
  -24.1491  -36.7314   23.2636 C   0  0  0  0  0  0
  -25.9401  -30.8234   21.3715 C   0  0  0  0  0  0
  -26.0149  -29.4584   20.7129 C   0  0  0  0  0  0
  -27.2049  -28.6864   20.7017 C   0  0  0  0  0  0
  -26.0372  -26.9492   19.4701 C   0  0  0  0  0  0
  -24.8576  -27.7110   19.4874 C   0  0  0  0  0  0
  -23.6145  -29.8355   20.1659 C   0  0  0  0  0  0
  -25.4112  -36.3114   24.0337 C   0  0  1  0  0  0
  -20.5871  -28.3668   23.1310 C   0  0  2  0  0  0
  -20.6773  -26.9403   22.5414 C   0  0  0  0  0  0
  -19.5749  -26.6383   21.5215 C   0  0  0  0  0  0
  -18.1929  -26.7918   22.1625 C   0  0  0  0  0  0
  -19.1531  -28.8837   23.2890 C   0  0  0  0  0  0
  -18.9453  -30.1442   23.8901 C   0  0  0  0  0  0
  -17.6458  -30.6581   24.0561 C   0  0  0  0  0  0
  -25.9040  -34.9477   23.5129 C   0  0  0  0  0  0
  -16.5346  -29.9081   23.6328 C   0  0  0  0  0  0
  -16.7266  -28.6502   23.0344 C   0  0  0  0  0  0
  -26.4480  -31.6598   25.0741 C   0  0  0  0  0  0
  -25.3736  -31.3706   26.1482 C   0  0  0  0  0  0
  -27.0319  -30.3043   24.6129 C   0  0  0  0  0  0
  -27.6065  -32.4305   25.7499 C   0  0  0  0  0  0
  -27.5582  -37.1818   24.8461 C   0  0  0  0  0  0
  -21.4156  -29.3036   22.3718 N   0  0  0  0  0  0
  -26.4297  -37.3803   23.9402 N   0  0  0  0  0  0
  -24.6731  -31.0759   22.1034 N   0  0  0  0  0  0
  -23.4190  -28.8191   23.3025 O   0  0  0  0  0  0
  -28.3733  -26.6193   20.1375 O   0  0  0  0  0  0
  -26.5596  -34.8926   22.4686 O   0  0  0  0  0  0
  -23.5364  -32.1449   23.7494 O   0  0  0  0  0  0
  -29.8022  -18.0434   20.9287 C   0  0  0  0  0  0
  -31.8840  -17.0912   21.6887 C   0  0  0  0  0  0
  -30.3574  -19.3462   21.0829 C   0  0  0  0  0  0
  -30.5717  -16.8849   21.2152 C   0  0  0  0  0  0
  -31.6901  -19.3969   21.5700 C   0  0  0  0  0  0
  -29.5211  -20.5445   20.7148 C   0  0  0  0  0  0
  -29.2973  -24.2388   20.4152 C   0  0  0  0  0  0
  -28.8615  -22.7500   20.2551 C   0  0  0  0  0  0
  -28.1776  -25.1988   19.9320 C   0  0  0  0  0  0
  -32.4273  -18.3124   21.8658 N   0  0  0  0  0  0
  -29.8709  -21.7834   20.6975 N   0  0  0  0  0  0
  -32.3713  -20.5827   21.8095 N   0  0  0  0  0  0
  -30.0430  -15.5553   21.0461 N   0  0  0  0  0  0
  -31.4625  -12.4002   19.1317 H   0  0  0  0  0  0
  -30.3024  -11.3163   19.8440 H   0  0  0  0  0  0
  -29.7412  -11.7763   17.4357 H   0  0  0  0  0  0
  -29.6633  -13.4887   17.7657 H   0  0  0  0  0  0
  -27.8314  -11.3092   18.8226 H   0  0  0  0  0  0
  -27.3682  -12.6299   17.7846 H   0  0  0  0  0  0
  -27.6905  -14.2579   19.5558 H   0  0  0  0  0  0
  -28.6810  -12.0093   21.3735 H   0  0  0  0  0  0
  -28.4650  -13.6676   21.8500 H   0  0  0  0  0  0
  -25.2768   -9.5696   22.4752 H   0  0  0  0  0  0
  -24.0017   -7.4644   22.7468 H   0  0  0  0  0  0
  -21.0850   -8.8765   19.8949 H   0  0  0  0  0  0
  -22.3689  -10.9677   19.6160 H   0  0  0  0  0  0
  -21.2003   -7.6152   23.9725 H   0  0  0  0  0  0
  -21.1487   -6.0521   25.9083 H   0  0  0  0  0  0
  -22.0593   -2.7615   23.2845 H   0  0  0  0  0  0
  -22.4107  -11.9910   22.4805 H   0  0  0  0  0  0
  -21.1114  -13.1267   22.2577 H   0  0  0  0  0  0
  -24.6637  -15.8450   20.5156 H   0  0  0  0  0  0
  -26.2788  -15.6288   20.0773 H   0  0  0  0  0  0
  -26.7132  -32.5520   23.1168 H   0  0  0  0  0  0
  -25.0086  -33.9782   25.0492 H   0  0  0  0  0  0
  -22.6963  -31.3136   21.4186 H   0  0  0  0  0  0
  -23.3753  -35.9648   23.3308 H   0  0  0  0  0  0
  -24.3585  -36.8920   22.2048 H   0  0  0  0  0  0
  -23.7248  -37.6525   23.6642 H   0  0  0  0  0  0
  -26.0605  -31.5904   20.6055 H   0  0  0  0  0  0
  -26.8252  -30.8723   21.9939 H   0  0  0  0  0  0
  -28.0992  -29.0594   21.1811 H   0  0  0  0  0  0
  -25.9879  -25.9972   18.9628 H   0  0  0  0  0  0
  -23.9633  -27.3296   19.0135 H   0  0  0  0  0  0
  -23.7256  -30.6147   19.4110 H   0  0  0  0  0  0
  -22.7368  -29.2602   19.8658 H   0  0  0  0  0  0
  -25.1292  -36.1985   25.0834 H   0  0  0  0  0  0
  -20.9960  -28.3233   24.1431 H   0  0  0  0  0  0
  -20.5690  -26.2273   23.3604 H   0  0  0  0  0  0
  -21.6642  -26.7454   22.1197 H   0  0  0  0  0  0
  -19.6910  -25.6298   21.1235 H   0  0  0  0  0  0
  -19.6687  -27.3202   20.6753 H   0  0  0  0  0  0
  -17.4203  -26.6669   21.4023 H   0  0  0  0  0  0
  -18.0318  -26.0054   22.9014 H   0  0  0  0  0  0
  -19.7933  -30.7255   24.2274 H   0  0  0  0  0  0
  -17.5016  -31.6263   24.5155 H   0  0  0  0  0  0
  -15.5350  -30.2983   23.7656 H   0  0  0  0  0  0
  -15.8664  -28.0826   22.7050 H   0  0  0  0  0  0
  -24.5906  -30.7062   25.7808 H   0  0  0  0  0  0
  -24.8923  -32.2858   26.4937 H   0  0  0  0  0  0
  -25.8076  -30.8862   27.0237 H   0  0  0  0  0  0
  -26.2876  -29.6801   24.1171 H   0  0  0  0  0  0
  -27.4081  -29.7285   25.4593 H   0  0  0  0  0  0
  -27.8712  -30.4368   23.9300 H   0  0  0  0  0  0
  -27.2707  -33.3598   26.2112 H   0  0  0  0  0  0
  -28.3861  -32.6872   25.0314 H   0  0  0  0  0  0
  -28.0747  -31.8398   26.5385 H   0  0  0  0  0  0
  -28.2613  -38.0105   24.7510 H   0  0  0  0  0  0
  -28.1075  -36.2642   24.6295 H   0  0  0  0  0  0
  -27.2293  -37.1463   25.8863 H   0  0  0  0  0  0
  -20.9318  -29.8773   21.6954 H   0  0  0  0  0  0
  -26.0189  -38.2887   24.1398 H   0  0  0  0  0  0
  -28.7907  -17.9327   20.5649 H   0  0  0  0  0  0
  -32.5223  -16.2637   21.9591 H   0  0  0  0  0  0
  -28.4980  -20.2886   20.4228 H   0  0  0  0  0  0
  -30.2092  -24.4298   19.8491 H   0  0  0  0  0  0
  -29.5261  -24.4454   21.4611 H   0  0  0  0  0  0
  -28.6212  -22.5740   19.2038 H   0  0  0  0  0  0
  -27.9299  -22.6013   20.8077 H   0  0  0  0  0  0
  -27.2719  -24.8860   20.4547 H   0  0  0  0  0  0
  -28.0108  -25.0229   18.8685 H   0  0  0  0  0  0
  -31.9433  -21.4236   21.4284 H   0  0  0  0  0  0
  -33.3833  -20.5774   21.8124 H   0  0  0  0  0  0
  -29.0609  -15.4117   21.2299 H   0  0  0  0  0  0
  1 25  1  0  0  0
  1 30  2  0  0  0
  1 83  1  0  0  0
  2  3  1  0  0  0
  2 25  1  0  0  0
  2 84  1  0  0  0
  2 85  1  0  0  0
  3  4  1  0  0  0
  3 86  1  0  0  0
  3 87  1  0  0  0
  4  5  1  0  0  0
  4 88  1  0  0  0
  4 89  1  0  0  0
  5  6  1  0  0  0
  5 26  1  0  0  0
  5 90  1  0  0  0
  6 25  1  0  0  0
  6 91  1  0  0  0
  6 92  1  0  0  0
  7  8  2  0  0  0
  7 26  1  0  0  0
  7 29  1  0  0  0
  8  9  1  0  0  0
  8 22  1  0  0  0
  9 10  1  0  0  0
  9 27  2  0  0  0
 10 11  2  0  0  0
 10 15  1  0  0  0
 11 12  1  0  0  0
 11 93  1  0  0  0
 12 13  2  0  0  0
 12 94  1  0  0  0
 13 14  1  0  0  0
 13 31  1  0  0  0
 14 15  2  0  0  0
 14 95  1  0  0  0
 15 96  1  0  0  0
 16 17  2  0  0  0
 16 21  1  0  0  0
 16 31  1  0  0  0
 17 18  1  0  0  0
 17 97  1  0  0  0
 18 19  2  0  0  0
 18 98  1  0  0  0
 19 20  1  0  0  0
 19 24  1  0  0  0
 20 21  2  0  0  0
 20 99  1  0  0  0
 21 23  1  0  0  0
 22 28  1  0  0  0
 22 32  2  0  0  0
 26 27  1  0  0  0
 28100  1  0  0  0
 28101  1  0  0  0
 29102  1  0  0  0
 29103  1  0  0  0
 33 34  1  0  0  0
 33 66  1  0  0  0
 33 70  2  0  0  0
 34 36  1  0  0  0
 34 59  1  0  0  0
 34104  1  0  0  0
 35 44  2  0  0  0
 35 45  1  0  0  0
 35 68  1  0  0  0
 36 56  1  0  0  0
 36105  1  0  0  0
 37 39  1  0  0  0
 37 47  1  0  0  0
 37 66  1  0  0  0
 37106  1  0  0  0
 38 43  2  0  0  0
 38 46  1  0  0  0
 38 47  1  0  0  0
 39 64  1  0  0  0
 39 67  2  0  0  0
 40 52  1  0  0  0
 40 53  2  0  0  0
 40 58  1  0  0  0
 41107  1  0  0  0
 41108  1  0  0  0
 41109  1  0  0  0
 41 48  1  0  0  0
 42 43  1  0  0  0
 42 66  1  0  0  0
 42110  1  0  0  0
 42111  1  0  0  0
 43 44  1  0  0  0
 44112  1  0  0  0
 45 46  2  0  0  0
 45113  1  0  0  0
 46114  1  0  0  0
 47115  1  0  0  0
 47116  1  0  0  0
 48 56  1  0  0  0
 48 65  1  0  0  0
 48117  1  0  0  0
 49 50  1  0  0  0
 49 53  1  0  0  0
 49 64  1  0  0  0
 49118  1  0  0  0
 50 51  1  0  0  0
 50119  1  0  0  0
 50120  1  0  0  0
 51 52  1  0  0  0
 51121  1  0  0  0
 51122  1  0  0  0
 52123  1  0  0  0
 52124  1  0  0  0
 53 54  1  0  0  0
 54 55  2  0  0  0
 54125  1  0  0  0
 55 57  1  0  0  0
 55126  1  0  0  0
 56 69  2  0  0  0
 57 58  2  0  0  0
 57127  1  0  0  0
 58128  1  0  0  0
 59 60  1  0  0  0
 59 61  1  0  0  0
 59 62  1  0  0  0
 60129  1  0  0  0
 60130  1  0  0  0
 60131  1  0  0  0
 61132  1  0  0  0
 61133  1  0  0  0
 61134  1  0  0  0
 62135  1  0  0  0
 62136  1  0  0  0
 62137  1  0  0  0
 63 65  1  0  0  0
 63138  1  0  0  0
 63139  1  0  0  0
 63140  1  0  0  0
 64141  1  0  0  0
 65142  1  0  0  0
 68 79  1  0  0  0
 71 73  2  0  0  0
 71 74  1  0  0  0
 71143  1  0  0  0
 72 74  2  0  0  0
 72 80  1  0  0  0
 72144  1  0  0  0
 73 75  1  0  0  0
 73 76  1  0  0  0
 74 83  1  0  0  0
 75 80  2  0  0  0
 75 82  1  0  0  0
 76 81  2  0  0  0
 76145  1  0  0  0
 77 78  1  0  0  0
 77 79  1  0  0  0
 77146  1  0  0  0
 77147  1  0  0  0
 78 81  1  0  0  0
 78148  1  0  0  0
 78149  1  0  0  0
 79150  1  0  0  0
 79151  1  0  0  0
 82152  1  0  0  0
 82153  1  0  0  0
 83154  1  0  0  0
M  ISO  4   1 100  68 101  79 101  83 100
M  END
> <chiral flag>
0

> <version>
0

> <s_m_source_file>
/data/baiqing/PycharmProjects/Reinvent-master-3.2/result/LINK_invent/BTK/process_docking_weight1_custom_product_contain_oxygen_bond_distance_aromatic_linkinvent_7_9_3/rearranged_h_0111.sdf

> <i_m_source_file_index>
46

> <r_mmod_Potential_Energy-OPLS-2005>
-243.027542114258

> <r_mmod_Stretch_Energy-OPLS-2005>
45.916316986084

> <r_mmod_Bend_Energy-OPLS-2005>
106.990524291992

> <r_mmod_Torsional_Energy-OPLS-2005>
216.422180175781

> <r_mmod_Improper_Torsional_Energy-OPLS-2005>
6.8435320854187

> <r_mmod_Van_der_Waal_Energy-OPLS-2005>
174.00163269043

> <r_mmod_Electrostatic_Energy-OPLS-2005>
-566.575439453125

> <r_mmod_Solvation_Energy-OPLS-2005>
-245.492874145508

> <b_mmod_Minimization_Converged-OPLS-2005>
0

> <r_mmod_RMS_Derivative-OPLS-2005>
1.27157831192017

$$$$
47
                    3D
 Structure written by MMmdl.
152160  0  0  1  0            999 V2000
  -30.6580  -14.6119   20.6038 C   0  0  0  0  0  0
  -30.4306  -12.4049   19.4572 C   0  0  0  0  0  0
  -29.5030  -12.5361   18.2275 C   0  0  0  0  0  0
  -28.0258  -12.3592   18.6266 C   0  0  0  0  0  0
  -27.6526  -13.2114   19.8652 C   0  0  2  0  0  0
  -28.6831  -13.0191   20.9949 C   0  0  0  0  0  0
  -25.2542  -13.8158   20.5631 C   0  0  0  0  0  0
  -24.1804  -13.0426   20.9141 C   0  0  0  0  0  0
  -24.6366  -11.6900   20.8697 C   0  0  0  0  0  0
  -23.9047  -10.4289   21.0395 C   0  0  0  0  0  0
  -24.3600   -9.4210   21.9177 C   0  0  0  0  0  0
  -23.6277   -8.2249   22.0759 C   0  0  0  0  0  0
  -22.4265   -8.0278   21.3541 C   0  0  0  0  0  0
  -21.9896   -9.0246   20.4646 C   0  0  0  0  0  0
  -22.7222  -10.2125   20.3049 C   0  0  0  0  0  0
  -21.6859   -6.0720   22.5272 C   0  0  0  0  0  0
  -21.4022   -6.5629   23.8202 C   0  0  0  0  0  0
  -21.3655   -5.6781   24.9164 C   0  0  0  0  0  0
  -21.6046   -4.3045   24.7222 C   0  0  0  0  0  0
  -21.8820   -3.8134   23.4343 C   0  0  0  0  0  0
  -21.9195   -4.6949   22.3399 C   0  0  0  0  0  0
  -22.7839  -13.5234   21.1828 C   0  0  0  0  0  0
  -22.1663   -4.2136   21.0977 F   0  0  0  0  0  0
  -21.5625   -3.4537   25.7739 F   0  0  0  0  0  0
  -30.0106  -13.3984   20.4741 N   0  0  0  0  0  0
  -26.2961  -12.9328   20.3271 N   0  0  0  0  0  0
  -25.9284  -11.6482   20.5690 N   0  0  0  0  0  0
  -22.0508  -12.8223   22.0399 N   0  0  0  0  0  0
  -25.4273  -15.1872   20.4071 N   0  0  0  0  0  0
  -31.7297  -14.8186   20.0227 O   0  0  0  0  0  0
  -21.6633   -6.8864   21.4233 O   0  0  0  0  0  0
  -22.3521  -14.5547   20.6694 O   0  0  0  0  0  0
  -24.6264  -31.8602   23.2056 C   0  0  0  0  0  0
  -25.9120  -32.4769   23.8370 C   0  0  1  0  0  0
  -27.2185  -27.3199   20.1216 C   0  0  0  0  0  0
  -25.5944  -33.8577   24.2293 N   0  0  0  0  0  0
  -23.4175  -30.4858   21.5489 C   0  0  2  0  0  0
  -24.8644  -28.9462   20.1121 C   0  0  0  0  0  0
  -22.7470  -29.4625   22.4963 C   0  0  0  0  0  0
  -18.0271  -28.1377   22.8472 C   0  0  0  0  0  0
  -24.1486  -36.7289   23.2636 C   0  0  0  0  0  0
  -25.9599  -30.7934   21.3760 C   0  0  0  0  0  0
  -26.0345  -29.4217   20.7178 C   0  0  0  0  0  0
  -27.2165  -28.6221   20.7105 C   0  0  0  0  0  0
  -26.0263  -26.9032   19.4848 C   0  0  0  0  0  0
  -24.8636  -27.6924   19.4859 C   0  0  0  0  0  0
  -23.6309  -29.8226   20.1637 C   0  0  0  0  0  0
  -25.4112  -36.3081   24.0325 C   0  0  1  0  0  0
  -20.5874  -28.3678   23.1295 C   0  0  2  0  0  0
  -20.6776  -26.9404   22.5421 C   0  0  0  0  0  0
  -19.5751  -26.6378   21.5216 C   0  0  0  0  0  0
  -18.1919  -26.7919   22.1612 C   0  0  0  0  0  0
  -19.1525  -28.8842   23.2859 C   0  0  0  0  0  0
  -18.9460  -30.1446   23.8874 C   0  0  0  0  0  0
  -17.6465  -30.6581   24.0559 C   0  0  0  0  0  0
  -25.9049  -34.9450   23.5106 C   0  0  0  0  0  0
  -16.5348  -29.9081   23.6345 C   0  0  0  0  0  0
  -16.7261  -28.6505   23.0354 C   0  0  0  0  0  0
  -26.4514  -31.6579   25.0736 C   0  0  0  0  0  0
  -25.3757  -31.3722   26.1478 C   0  0  0  0  0  0
  -27.0365  -30.3004   24.6194 C   0  0  0  0  0  0
  -27.6073  -32.4324   25.7506 C   0  0  0  0  0  0
  -27.5570  -37.1792   24.8461 C   0  0  0  0  0  0
  -21.4189  -29.3034   22.3696 N   0  0  0  0  0  0
  -26.4292  -37.3773   23.9401 N   0  0  0  0  0  0
  -24.6863  -31.0634   22.0994 N   0  0  0  0  0  0
  -23.4210  -28.8160   23.3027 O   0  0  0  0  0  0
  -28.3260  -26.4611   20.1668 O   0  0  0  0  0  0
  -26.5606  -34.8910   22.4661 O   0  0  0  0  0  0
  -23.5441  -32.1400   23.7395 O   0  0  0  0  0  0
  -31.0244  -17.9190   20.5491 C   0  0  0  0  0  0
  -30.9894  -19.3240   20.3126 C   0  0  0  0  0  0
  -28.7320  -19.4258   21.0964 C   0  0  0  0  0  0
  -29.9234  -17.2034   21.0877 C   0  0  0  0  0  0
  -29.8592  -20.1334   20.5971 C   0  0  0  0  0  0
  -28.7550  -18.0110   21.3313 C   0  0  0  0  0  0
  -29.0728  -22.4896   20.5191 C   0  0  0  0  0  0
  -30.0511  -15.7244   21.5388 C   0  0  0  0  0  0
  -29.2648  -24.0331   20.2836 C   0  0  0  0  0  0
  -28.0337  -25.0116   20.3385 C   0  0  0  0  0  0
  -29.6995  -15.4318   22.7244 N   0  0  0  0  0  0
  -29.9727  -21.5540   20.3769 N   0  0  0  0  0  0
  -27.5756  -17.4554   21.8407 N   0  0  0  0  0  0
  -30.3840  -24.5007   20.0289 O   0  0  0  0  0  0
  -31.4707  -12.5327   19.1523 H   0  0  0  0  0  0
  -30.3719  -11.3971   19.8712 H   0  0  0  0  0  0
  -29.7735  -11.7998   17.4705 H   0  0  0  0  0  0
  -29.6396  -13.5152   17.7662 H   0  0  0  0  0  0
  -27.8604  -11.3023   18.8413 H   0  0  0  0  0  0
  -27.3727  -12.6061   17.7887 H   0  0  0  0  0  0
  -27.6864  -14.2558   19.5535 H   0  0  0  0  0  0
  -28.6962  -11.9781   21.3207 H   0  0  0  0  0  0
  -28.3625  -13.5750   21.8705 H   0  0  0  0  0  0
  -25.2751   -9.5685   22.4742 H   0  0  0  0  0  0
  -23.9982   -7.4648   22.7495 H   0  0  0  0  0  0
  -21.0820   -8.8760   19.8958 H   0  0  0  0  0  0
  -22.3682  -10.9652   19.6149 H   0  0  0  0  0  0
  -21.2026   -7.6141   23.9698 H   0  0  0  0  0  0
  -21.1476   -6.0517   25.9063 H   0  0  0  0  0  0
  -22.0606   -2.7597   23.2849 H   0  0  0  0  0  0
  -22.4141  -11.9861   22.4723 H   0  0  0  0  0  0
  -21.1151  -13.1260   22.2669 H   0  0  0  0  0  0
  -24.6671  -15.8465   20.5349 H   0  0  0  0  0  0
  -26.2857  -15.6353   20.1105 H   0  0  0  0  0  0
  -26.7184  -32.5445   23.1120 H   0  0  0  0  0  0
  -25.0129  -33.9727   25.0463 H   0  0  0  0  0  0
  -22.7090  -31.3047   21.4073 H   0  0  0  0  0  0
  -23.3744  -35.9622   23.3314 H   0  0  0  0  0  0
  -24.3574  -36.8920   22.2051 H   0  0  0  0  0  0
  -23.7268  -37.6500   23.6659 H   0  0  0  0  0  0
  -26.0904  -31.5563   20.6064 H   0  0  0  0  0  0
  -26.8413  -30.8421   22.0046 H   0  0  0  0  0  0
  -28.1126  -28.9812   21.1974 H   0  0  0  0  0  0
  -25.9599  -25.9562   18.9743 H   0  0  0  0  0  0
  -23.9690  -27.3250   19.0019 H   0  0  0  0  0  0
  -23.7413  -30.5983   19.4055 H   0  0  0  0  0  0
  -22.7529  -29.2472   19.8659 H   0  0  0  0  0  0
  -25.1291  -36.1930   25.0820 H   0  0  0  0  0  0
  -20.9931  -28.3260   24.1432 H   0  0  0  0  0  0
  -20.5711  -26.2273   23.3613 H   0  0  0  0  0  0
  -21.6637  -26.7464   22.1187 H   0  0  0  0  0  0
  -19.6928  -25.6295   21.1234 H   0  0  0  0  0  0
  -19.6713  -27.3203   20.6760 H   0  0  0  0  0  0
  -17.4203  -26.6677   21.3991 H   0  0  0  0  0  0
  -18.0293  -26.0053   22.9000 H   0  0  0  0  0  0
  -19.7943  -30.7243   24.2250 H   0  0  0  0  0  0
  -17.5035  -31.6273   24.5148 H   0  0  0  0  0  0
  -15.5355  -30.2980   23.7701 H   0  0  0  0  0  0
  -15.8655  -28.0832   22.7090 H   0  0  0  0  0  0
  -24.5952  -30.7037   25.7836 H   0  0  0  0  0  0
  -24.8919  -32.2879   26.4877 H   0  0  0  0  0  0
  -25.8100  -30.8946   27.0269 H   0  0  0  0  0  0
  -26.2951  -29.6727   24.1241 H   0  0  0  0  0  0
  -27.4104  -29.7285   25.4698 H   0  0  0  0  0  0
  -27.8790  -30.4283   23.9400 H   0  0  0  0  0  0
  -27.2702  -33.3662   26.2014 H   0  0  0  0  0  0
  -28.3921  -32.6829   25.0353 H   0  0  0  0  0  0
  -28.0677  -31.8488   26.5492 H   0  0  0  0  0  0
  -28.2582  -38.0082   24.7501 H   0  0  0  0  0  0
  -28.1075  -36.2628   24.6304 H   0  0  0  0  0  0
  -27.2277  -37.1470   25.8856 H   0  0  0  0  0  0
  -20.9384  -29.8764   21.6902 H   0  0  0  0  0  0
  -26.0172  -38.2840   24.1418 H   0  0  0  0  0  0
  -31.9479  -17.3939   20.3524 H   0  0  0  0  0  0
  -31.8789  -19.7982   19.9244 H   0  0  0  0  0  0
  -27.8306  -19.9719   21.3347 H   0  0  0  0  0  0
  -28.0650  -22.2076   20.8362 H   0  0  0  0  0  0
  -27.5177  -24.8692   21.2891 H   0  0  0  0  0  0
  -27.3577  -24.6569   19.5648 H   0  0  0  0  0  0
  -29.3356  -16.2564   23.1881 H   0  0  0  0  0  0
  -26.7258  -17.9971   21.9551 H   0  0  0  0  0  0
  -27.4644  -16.4566   21.9819 H   0  0  0  0  0  0
  1 25  1  0  0  0
  1 30  2  0  0  0
  1 78  1  0  0  0
  2  3  1  0  0  0
  2 25  1  0  0  0
  2 85  1  0  0  0
  2 86  1  0  0  0
  3  4  1  0  0  0
  3 87  1  0  0  0
  3 88  1  0  0  0
  4  5  1  0  0  0
  4 89  1  0  0  0
  4 90  1  0  0  0
  5  6  1  0  0  0
  5 26  1  0  0  0
  5 91  1  0  0  0
  6 25  1  0  0  0
  6 92  1  0  0  0
  6 93  1  0  0  0
  7  8  2  0  0  0
  7 26  1  0  0  0
  7 29  1  0  0  0
  8  9  1  0  0  0
  8 22  1  0  0  0
  9 10  1  0  0  0
  9 27  2  0  0  0
 10 11  2  0  0  0
 10 15  1  0  0  0
 11 12  1  0  0  0
 11 94  1  0  0  0
 12 13  2  0  0  0
 12 95  1  0  0  0
 13 14  1  0  0  0
 13 31  1  0  0  0
 14 15  2  0  0  0
 14 96  1  0  0  0
 15 97  1  0  0  0
 16 17  2  0  0  0
 16 21  1  0  0  0
 16 31  1  0  0  0
 17 18  1  0  0  0
 17 98  1  0  0  0
 18 19  2  0  0  0
 18 99  1  0  0  0
 19 20  1  0  0  0
 19 24  1  0  0  0
 20 21  2  0  0  0
 20100  1  0  0  0
 21 23  1  0  0  0
 22 28  1  0  0  0
 22 32  2  0  0  0
 26 27  1  0  0  0
 28101  1  0  0  0
 28102  1  0  0  0
 29103  1  0  0  0
 29104  1  0  0  0
 33 34  1  0  0  0
 33 66  1  0  0  0
 33 70  2  0  0  0
 34 36  1  0  0  0
 34 59  1  0  0  0
 34105  1  0  0  0
 35 44  2  0  0  0
 35 45  1  0  0  0
 35 68  1  0  0  0
 36 56  1  0  0  0
 36106  1  0  0  0
 37 39  1  0  0  0
 37 47  1  0  0  0
 37 66  1  0  0  0
 37107  1  0  0  0
 38 43  2  0  0  0
 38 46  1  0  0  0
 38 47  1  0  0  0
 39 64  1  0  0  0
 39 67  2  0  0  0
 40 52  1  0  0  0
 40 53  2  0  0  0
 40 58  1  0  0  0
 41108  1  0  0  0
 41109  1  0  0  0
 41110  1  0  0  0
 41 48  1  0  0  0
 42 43  1  0  0  0
 42 66  1  0  0  0
 42111  1  0  0  0
 42112  1  0  0  0
 43 44  1  0  0  0
 44113  1  0  0  0
 45 46  2  0  0  0
 45114  1  0  0  0
 46115  1  0  0  0
 47116  1  0  0  0
 47117  1  0  0  0
 48 56  1  0  0  0
 48 65  1  0  0  0
 48118  1  0  0  0
 49 50  1  0  0  0
 49 53  1  0  0  0
 49 64  1  0  0  0
 49119  1  0  0  0
 50 51  1  0  0  0
 50120  1  0  0  0
 50121  1  0  0  0
 51 52  1  0  0  0
 51122  1  0  0  0
 51123  1  0  0  0
 52124  1  0  0  0
 52125  1  0  0  0
 53 54  1  0  0  0
 54 55  2  0  0  0
 54126  1  0  0  0
 55 57  1  0  0  0
 55127  1  0  0  0
 56 69  2  0  0  0
 57 58  2  0  0  0
 57128  1  0  0  0
 58129  1  0  0  0
 59 60  1  0  0  0
 59 61  1  0  0  0
 59 62  1  0  0  0
 60130  1  0  0  0
 60131  1  0  0  0
 60132  1  0  0  0
 61133  1  0  0  0
 61134  1  0  0  0
 61135  1  0  0  0
 62136  1  0  0  0
 62137  1  0  0  0
 62138  1  0  0  0
 63 65  1  0  0  0
 63139  1  0  0  0
 63140  1  0  0  0
 63141  1  0  0  0
 64142  1  0  0  0
 65143  1  0  0  0
 68 80  1  0  0  0
 71 72  2  0  0  0
 71 74  1  0  0  0
 71144  1  0  0  0
 72 75  1  0  0  0
 72145  1  0  0  0
 73 75  2  0  0  0
 73 76  1  0  0  0
 73146  1  0  0  0
 74 76  2  0  0  0
 74 78  1  0  0  0
 75 82  1  0  0  0
 76 83  1  0  0  0
 77 79  1  0  0  0
 77 82  2  0  0  0
 77147  1  0  0  0
 78 81  2  0  0  0
 79 80  1  0  0  0
 79 84  2  0  0  0
 80148  1  0  0  0
 80149  1  0  0  0
 81150  1  0  0  0
 83151  1  0  0  0
 83152  1  0  0  0
M  ISO  4   1 100  68 101  78 100  80 101
M  END
> <chiral flag>
0

> <version>
0

> <s_m_source_file>
/data/baiqing/PycharmProjects/Reinvent-master-3.2/result/LINK_invent/BTK/process_docking_weight1_custom_product_contain_oxygen_bond_distance_aromatic_linkinvent_7_9_3/rearranged_h_0111.sdf

> <i_m_source_file_index>
47

> <r_mmod_Potential_Energy-OPLS-2005>
314.241455078125

> <r_mmod_Stretch_Energy-OPLS-2005>
96.0100708007812

> <r_mmod_Bend_Energy-OPLS-2005>
161.40803527832

> <r_mmod_Torsional_Energy-OPLS-2005>
210.347702026367

> <r_mmod_Improper_Torsional_Energy-OPLS-2005>
3.20818471908569

> <r_mmod_Van_der_Waal_Energy-OPLS-2005>
153.302108764648

> <r_mmod_Electrostatic_Energy-OPLS-2005>
-115.459701538086

> <r_mmod_Solvation_Energy-OPLS-2005>
-237.990493774414

> <b_mmod_Minimization_Converged-OPLS-2005>
0

> <r_mmod_RMS_Derivative-OPLS-2005>
2.25407004356384

$$$$
49
                    3D
 Structure written by MMmdl.
169177  0  0  1  0            999 V2000
  -30.6954  -14.4556   20.4805 C   0  0  0  0  0  0
  -30.4109  -12.2734   19.4266 C   0  0  0  0  0  0
  -29.4891  -12.4784   18.2065 C   0  0  0  0  0  0
  -28.0071  -12.3566   18.6167 C   0  0  0  0  0  0
  -27.6512  -13.2045   19.8684 C   0  0  2  0  0  0
  -28.6976  -13.0167   20.9922 C   0  0  0  0  0  0
  -25.2544  -13.8151   20.5742 C   0  0  0  0  0  0
  -24.1797  -13.0415   20.9191 C   0  0  0  0  0  0
  -24.6366  -11.6901   20.8721 C   0  0  0  0  0  0
  -23.9054  -10.4284   21.0394 C   0  0  0  0  0  0
  -24.3612   -9.4194   21.9170 C   0  0  0  0  0  0
  -23.6284   -8.2235   22.0746 C   0  0  0  0  0  0
  -22.4272   -8.0274   21.3535 C   0  0  0  0  0  0
  -21.9898   -9.0249   20.4646 C   0  0  0  0  0  0
  -22.7233  -10.2125   20.3045 C   0  0  0  0  0  0
  -21.6844   -6.0739   22.5280 C   0  0  0  0  0  0
  -21.4015   -6.5640   23.8218 C   0  0  0  0  0  0
  -21.3649   -5.6784   24.9170 C   0  0  0  0  0  0
  -21.6044   -4.3054   24.7216 C   0  0  0  0  0  0
  -21.8829   -3.8151   23.4338 C   0  0  0  0  0  0
  -21.9200   -4.6967   22.3396 C   0  0  0  0  0  0
  -22.7825  -13.5213   21.1866 C   0  0  0  0  0  0
  -22.1665   -4.2158   21.0968 F   0  0  0  0  0  0
  -21.5623   -3.4538   25.7725 F   0  0  0  0  0  0
  -30.0274  -13.2800   20.4214 N   0  0  0  0  0  0
  -26.2957  -12.9317   20.3371 N   0  0  0  0  0  0
  -25.9280  -11.6472   20.5774 N   0  0  0  0  0  0
  -22.0492  -12.8201   22.0436 N   0  0  0  0  0  0
  -25.4120  -15.1865   20.4267 N   0  0  0  0  0  0
  -31.8888  -14.5719   20.1971 O   0  0  0  0  0  0
  -21.6637   -6.8879   21.4238 O   0  0  0  0  0  0
  -22.3483  -14.5492   20.6705 O   0  0  0  0  0  0
  -24.6124  -31.8700   23.2117 C   0  0  0  0  0  0
  -25.9042  -32.4820   23.8390 C   0  0  1  0  0  0
  -27.2252  -27.4494   20.0921 C   0  0  0  0  0  0
  -25.5911  -33.8617   24.2320 N   0  0  0  0  0  0
  -23.3982  -30.4956   21.5514 C   0  0  2  0  0  0
  -24.8425  -28.9661   20.1118 C   0  0  0  0  0  0
  -22.7390  -29.4673   22.4976 C   0  0  0  0  0  0
  -18.0278  -28.1374   22.8496 C   0  0  0  0  0  0
  -24.1498  -36.7328   23.2629 C   0  0  0  0  0  0
  -25.9243  -30.8396   21.3632 C   0  0  0  0  0  0
  -26.0006  -29.4760   20.7102 C   0  0  0  0  0  0
  -27.1957  -28.7238   20.6998 C   0  0  0  0  0  0
  -26.0508  -26.9589   19.4727 C   0  0  0  0  0  0
  -24.8609  -27.7056   19.4914 C   0  0  0  0  0  0
  -23.6048  -29.8322   20.1647 C   0  0  0  0  0  0
  -25.4115  -36.3104   24.0322 C   0  0  1  0  0  0
  -20.5863  -28.3674   23.1337 C   0  0  2  0  0  0
  -20.6734  -26.9419   22.5426 C   0  0  0  0  0  0
  -19.5757  -26.6428   21.5180 C   0  0  0  0  0  0
  -18.1964  -26.7894   22.1673 C   0  0  0  0  0  0
  -19.1522  -28.8840   23.2917 C   0  0  0  0  0  0
  -18.9471  -30.1444   23.8937 C   0  0  0  0  0  0
  -17.6480  -30.6591   24.0582 C   0  0  0  0  0  0
  -25.9041  -34.9473   23.5116 C   0  0  0  0  0  0
  -16.5365  -29.9094   23.6324 C   0  0  0  0  0  0
  -16.7264  -28.6500   23.0348 C   0  0  0  0  0  0
  -26.4473  -31.6590   25.0709 C   0  0  0  0  0  0
  -25.3744  -31.3710   26.1460 C   0  0  0  0  0  0
  -27.0299  -30.3029   24.6075 C   0  0  0  0  0  0
  -27.6043  -32.4305   25.7479 C   0  0  0  0  0  0
  -27.5585  -37.1819   24.8458 C   0  0  0  0  0  0
  -21.4120  -29.3052   22.3724 N   0  0  0  0  0  0
  -26.4302  -37.3785   23.9398 N   0  0  0  0  0  0
  -24.6629  -31.0817   22.1009 N   0  0  0  0  0  0
  -23.4152  -28.8237   23.3034 O   0  0  0  0  0  0
  -28.3876  -26.7118   20.1243 O   0  0  0  0  0  0
  -26.5595  -34.8915   22.4666 O   0  0  0  0  0  0
  -23.5337  -32.1465   23.7522 O   0  0  0  0  0  0
  -27.6002  -20.1094   21.3683 C   0  0  0  0  0  0
  -29.7792  -19.0425   21.4357 C   0  0  0  0  0  0
  -27.0847  -19.0637   20.5715 C   0  0  0  0  0  0
  -29.3049  -17.9813   20.6360 C   0  0  0  0  0  0
  -27.9515  -18.0027   20.1880 C   0  0  0  0  0  0
  -28.9402  -20.1112   21.7893 C   0  0  0  0  0  0
  -22.3104  -20.2827   21.1647 C   0  0  0  0  0  0
  -25.6515  -19.0776   20.1946 C   0  0  0  0  0  0
  -23.2870  -19.7005   20.4514 C   0  0  0  0  0  0
  -24.6722  -19.7058   20.8747 C   0  0  0  0  0  0
  -28.9627  -23.4272   21.8466 C   0  0  0  0  0  0
  -30.6849  -17.0766   18.7396 C   0  0  0  0  0  0
  -29.3667  -24.6945   21.0796 C   0  0  0  0  0  0
  -29.9290  -22.2383   21.7919 C   0  0  0  0  0  0
  -28.2241  -25.2927   20.2386 C   0  0  0  0  0  0
  -30.3237  -16.9090   20.2334 C   0  0  2  0  0  0
  -27.4676  -16.9902   19.3556 N   0  0  0  0  0  0
  -29.9081  -15.5396   20.5626 N   0  0  0  0  0  0
  -27.9198  -23.3815   22.5098 O   0  0  0  0  0  0
  -29.4245  -21.1396   22.5542 O   0  0  0  0  0  0
  -31.4576  -12.3547   19.1268 H   0  0  0  0  0  0
  -30.2928  -11.2700   19.8372 H   0  0  0  0  0  0
  -29.7236  -11.7485   17.4302 H   0  0  0  0  0  0
  -29.6672  -13.4608   17.7646 H   0  0  0  0  0  0
  -27.8071  -11.3022   18.8158 H   0  0  0  0  0  0
  -27.3609  -12.6345   17.7830 H   0  0  0  0  0  0
  -27.6823  -14.2458   19.5519 H   0  0  0  0  0  0
  -28.6609  -12.0004   21.3855 H   0  0  0  0  0  0
  -28.4840  -13.6740   21.8366 H   0  0  0  0  0  0
  -25.2766   -9.5683   22.4736 H   0  0  0  0  0  0
  -24.0010   -7.4631   22.7460 H   0  0  0  0  0  0
  -21.0834   -8.8772   19.8947 H   0  0  0  0  0  0
  -22.3699  -10.9662   19.6155 H   0  0  0  0  0  0
  -21.2007   -7.6155   23.9717 H   0  0  0  0  0  0
  -21.1451   -6.0516   25.9070 H   0  0  0  0  0  0
  -22.0618   -2.7619   23.2832 H   0  0  0  0  0  0
  -22.4126  -11.9854   22.4806 H   0  0  0  0  0  0
  -21.1117  -13.1209   22.2687 H   0  0  0  0  0  0
  -24.6392  -15.8286   20.5525 H   0  0  0  0  0  0
  -26.2675  -15.6715   20.1405 H   0  0  0  0  0  0
  -26.7114  -32.5527   23.1156 H   0  0  0  0  0  0
  -25.0067  -33.9794   25.0469 H   0  0  0  0  0  0
  -22.6858  -31.3119   21.4182 H   0  0  0  0  0  0
  -23.3738  -35.9688   23.3302 H   0  0  0  0  0  0
  -24.3597  -36.8934   22.2046 H   0  0  0  0  0  0
  -23.7287  -37.6544   23.6647 H   0  0  0  0  0  0
  -26.0384  -31.6077   20.5959 H   0  0  0  0  0  0
  -26.8098  -30.8862   21.9847 H   0  0  0  0  0  0
  -28.0858  -29.1094   21.1775 H   0  0  0  0  0  0
  -26.0403  -26.0005   18.9726 H   0  0  0  0  0  0
  -23.9702  -27.3110   19.0215 H   0  0  0  0  0  0
  -23.7117  -30.6096   19.4066 H   0  0  0  0  0  0
  -22.7278  -29.2545   19.8696 H   0  0  0  0  0  0
  -25.1302  -36.1957   25.0817 H   0  0  0  0  0  0
  -20.9959  -28.3211   24.1464 H   0  0  0  0  0  0
  -20.5524  -26.2312   23.3608 H   0  0  0  0  0  0
  -21.6638  -26.7385   22.1354 H   0  0  0  0  0  0
  -19.6945  -25.6351   21.1163 H   0  0  0  0  0  0
  -19.6664  -27.3299   20.6754 H   0  0  0  0  0  0
  -17.4170  -26.6499   21.4171 H   0  0  0  0  0  0
  -18.0538  -26.0072   22.9143 H   0  0  0  0  0  0
  -19.7931  -30.7249   24.2350 H   0  0  0  0  0  0
  -17.5039  -31.6269   24.5171 H   0  0  0  0  0  0
  -15.5386  -30.3031   23.7605 H   0  0  0  0  0  0
  -15.8652  -28.0831   22.7069 H   0  0  0  0  0  0
  -24.5896  -30.7080   25.7803 H   0  0  0  0  0  0
  -24.8967  -32.2882   26.4913 H   0  0  0  0  0  0
  -25.8090  -30.8867   27.0213 H   0  0  0  0  0  0
  -26.2844  -29.6798   24.1110 H   0  0  0  0  0  0
  -27.4061  -29.7246   25.4526 H   0  0  0  0  0  0
  -27.8686  -30.4350   23.9229 H   0  0  0  0  0  0
  -27.2640  -33.3571   26.2112 H   0  0  0  0  0  0
  -28.3820  -32.6915   25.0291 H   0  0  0  0  0  0
  -28.0744  -31.8396   26.5350 H   0  0  0  0  0  0
  -28.2601  -38.0114   24.7488 H   0  0  0  0  0  0
  -28.1078  -36.2642   24.6303 H   0  0  0  0  0  0
  -27.2298  -37.1488   25.8858 H   0  0  0  0  0  0
  -20.9258  -29.8795   21.6984 H   0  0  0  0  0  0
  -26.0182  -38.2863   24.1373 H   0  0  0  0  0  0
  -26.9756  -20.9419   21.6504 H   0  0  0  0  0  0
  -30.8072  -19.0493   21.7648 H   0  0  0  0  0  0
  -21.2819  -20.2537   20.8287 H   0  0  0  0  0  0
  -22.5134  -20.7954   22.0957 H   0  0  0  0  0  0
  -25.3813  -18.5579   19.2870 H   0  0  0  0  0  0
  -23.0207  -19.2066   19.5266 H   0  0  0  0  0  0
  -24.9137  -20.2365   21.7848 H   0  0  0  0  0  0
  -29.8384  -16.8718   18.0868 H   0  0  0  0  0  0
  -31.5016  -16.4219   18.4337 H   0  0  0  0  0  0
  -31.0042  -18.0990   18.5402 H   0  0  0  0  0  0
  -29.6865  -25.4208   21.8260 H   0  0  0  0  0  0
  -30.2322  -24.4916   20.4490 H   0  0  0  0  0  0
  -30.1034  -21.9648   20.7499 H   0  0  0  0  0  0
  -30.8863  -22.5503   22.2096 H   0  0  0  0  0  0
  -27.2675  -25.0446   20.7016 H   0  0  0  0  0  0
  -28.2160  -24.8448   19.2445 H   0  0  0  0  0  0
  -31.2355  -17.0872   20.8083 H   0  0  0  0  0  0
  -26.6289  -17.2202   18.8336 H   0  0  0  0  0  0
  -28.1508  -16.5338   18.7620 H   0  0  0  0  0  0
  -28.9204  -15.3945   20.7120 H   0  0  0  0  0  0
  1 25  1  0  0  0
  1 30  2  0  0  0
  1 88  1  0  0  0
  2  3  1  0  0  0
  2 25  1  0  0  0
  2 91  1  0  0  0
  2 92  1  0  0  0
  3  4  1  0  0  0
  3 93  1  0  0  0
  3 94  1  0  0  0
  4  5  1  0  0  0
  4 95  1  0  0  0
  4 96  1  0  0  0
  5  6  1  0  0  0
  5 26  1  0  0  0
  5 97  1  0  0  0
  6 25  1  0  0  0
  6 98  1  0  0  0
  6 99  1  0  0  0
  7  8  2  0  0  0
  7 26  1  0  0  0
  7 29  1  0  0  0
  8  9  1  0  0  0
  8 22  1  0  0  0
  9 10  1  0  0  0
  9 27  2  0  0  0
 10 11  2  0  0  0
 10 15  1  0  0  0
 11 12  1  0  0  0
 11100  1  0  0  0
 12 13  2  0  0  0
 12101  1  0  0  0
 13 14  1  0  0  0
 13 31  1  0  0  0
 14 15  2  0  0  0
 14102  1  0  0  0
 15103  1  0  0  0
 16 17  2  0  0  0
 16 21  1  0  0  0
 16 31  1  0  0  0
 17 18  1  0  0  0
 17104  1  0  0  0
 18 19  2  0  0  0
 18105  1  0  0  0
 19 20  1  0  0  0
 19 24  1  0  0  0
 20 21  2  0  0  0
 20106  1  0  0  0
 21 23  1  0  0  0
 22 28  1  0  0  0
 22 32  2  0  0  0
 26 27  1  0  0  0
 28107  1  0  0  0
 28108  1  0  0  0
 29109  1  0  0  0
 29110  1  0  0  0
 33 34  1  0  0  0
 33 66  1  0  0  0
 33 70  2  0  0  0
 34 36  1  0  0  0
 34 59  1  0  0  0
 34111  1  0  0  0
 35 44  2  0  0  0
 35 45  1  0  0  0
 35 68  1  0  0  0
 36 56  1  0  0  0
 36112  1  0  0  0
 37 39  1  0  0  0
 37 47  1  0  0  0
 37 66  1  0  0  0
 37113  1  0  0  0
 38 43  2  0  0  0
 38 46  1  0  0  0
 38 47  1  0  0  0
 39 64  1  0  0  0
 39 67  2  0  0  0
 40 52  1  0  0  0
 40 53  2  0  0  0
 40 58  1  0  0  0
 41114  1  0  0  0
 41115  1  0  0  0
 41116  1  0  0  0
 41 48  1  0  0  0
 42 43  1  0  0  0
 42 66  1  0  0  0
 42117  1  0  0  0
 42118  1  0  0  0
 43 44  1  0  0  0
 44119  1  0  0  0
 45 46  2  0  0  0
 45120  1  0  0  0
 46121  1  0  0  0
 47122  1  0  0  0
 47123  1  0  0  0
 48 56  1  0  0  0
 48 65  1  0  0  0
 48124  1  0  0  0
 49 50  1  0  0  0
 49 53  1  0  0  0
 49 64  1  0  0  0
 49125  1  0  0  0
 50 51  1  0  0  0
 50126  1  0  0  0
 50127  1  0  0  0
 51 52  1  0  0  0
 51128  1  0  0  0
 51129  1  0  0  0
 52130  1  0  0  0
 52131  1  0  0  0
 53 54  1  0  0  0
 54 55  2  0  0  0
 54132  1  0  0  0
 55 57  1  0  0  0
 55133  1  0  0  0
 56 69  2  0  0  0
 57 58  2  0  0  0
 57134  1  0  0  0
 58135  1  0  0  0
 59 60  1  0  0  0
 59 61  1  0  0  0
 59 62  1  0  0  0
 60136  1  0  0  0
 60137  1  0  0  0
 60138  1  0  0  0
 61139  1  0  0  0
 61140  1  0  0  0
 61141  1  0  0  0
 62142  1  0  0  0
 62143  1  0  0  0
 62144  1  0  0  0
 63 65  1  0  0  0
 63145  1  0  0  0
 63146  1  0  0  0
 63147  1  0  0  0
 64148  1  0  0  0
 65149  1  0  0  0
 68 85  1  0  0  0
 71 73  2  0  0  0
 71 76  1  0  0  0
 71150  1  0  0  0
 72 74  1  0  0  0
 72 76  2  0  0  0
 72151  1  0  0  0
 73 75  1  0  0  0
 73 78  1  0  0  0
 74 75  2  0  0  0
 74 86  1  0  0  0
 75 87  1  0  0  0
 76 90  1  0  0  0
 77 79  2  0  0  0
 77152  1  0  0  0
 77153  1  0  0  0
 78 80  2  0  0  0
 78154  1  0  0  0
 79 80  1  0  0  0
 79155  1  0  0  0
 80156  1  0  0  0
 81 83  1  0  0  0
 81 84  1  0  0  0
 81 89  2  0  0  0
 82157  1  0  0  0
 82158  1  0  0  0
 82159  1  0  0  0
 82 86  1  0  0  0
 83 85  1  0  0  0
 83160  1  0  0  0
 83161  1  0  0  0
 84 90  1  0  0  0
 84162  1  0  0  0
 84163  1  0  0  0
 85164  1  0  0  0
 85165  1  0  0  0
 86 88  1  0  0  0
 86166  1  0  0  0
 87167  1  0  0  0
 87168  1  0  0  0
 88169  1  0  0  0
M  ISO  4   1 100  68 101  85 101  88 100
M  END
> <chiral flag>
0

> <version>
0

> <s_m_source_file>
/data/baiqing/PycharmProjects/Reinvent-master-3.2/result/LINK_invent/BTK/process_docking_weight1_custom_product_contain_oxygen_bond_distance_aromatic_linkinvent_7_9_3/rearranged_h_0111.sdf

> <i_m_source_file_index>
48

> <r_mmod_Potential_Energy-OPLS-2005>
-72.7642211914062

> <r_mmod_Stretch_Energy-OPLS-2005>
35.4278526306152

> <r_mmod_Bend_Energy-OPLS-2005>
91.0057067871094

> <r_mmod_Torsional_Energy-OPLS-2005>
260.382293701172

> <r_mmod_Improper_Torsional_Energy-OPLS-2005>
12.624059677124

> <r_mmod_Van_der_Waal_Energy-OPLS-2005>
165.118804931641

> <r_mmod_Electrostatic_Energy-OPLS-2005>
-439.29541015625

> <r_mmod_Solvation_Energy-OPLS-2005>
-216.892425537109

> <b_mmod_Minimization_Converged-OPLS-2005>
0

> <r_mmod_RMS_Derivative-OPLS-2005>
3.77107310295105

$$$$
50
                    3D
 Structure written by MMmdl.
161169  0  0  1  0            999 V2000
  -30.7104  -14.4500   20.4897 C   0  0  0  0  0  0
  -30.4097  -12.2676   19.4304 C   0  0  0  0  0  0
  -29.4962  -12.4877   18.2079 C   0  0  0  0  0  0
  -28.0120  -12.3756   18.6113 C   0  0  0  0  0  0
  -27.6575  -13.2143   19.8712 C   0  0  2  0  0  0
  -28.7033  -13.0167   20.9957 C   0  0  0  0  0  0
  -25.2559  -13.8189   20.5680 C   0  0  0  0  0  0
  -24.1824  -13.0458   20.9191 C   0  0  0  0  0  0
  -24.6387  -11.6929   20.8763 C   0  0  0  0  0  0
  -23.9061  -10.4317   21.0416 C   0  0  0  0  0  0
  -24.3630   -9.4232   21.9180 C   0  0  0  0  0  0
  -23.6304   -8.2268   22.0745 C   0  0  0  0  0  0
  -22.4279   -8.0307   21.3538 C   0  0  0  0  0  0
  -21.9905   -9.0293   20.4653 C   0  0  0  0  0  0
  -22.7239  -10.2166   20.3061 C   0  0  0  0  0  0
  -21.6860   -6.0753   22.5281 C   0  0  0  0  0  0
  -21.4020   -6.5647   23.8222 C   0  0  0  0  0  0
  -21.3669   -5.6795   24.9178 C   0  0  0  0  0  0
  -21.6045   -4.3057   24.7230 C   0  0  0  0  0  0
  -21.8818   -3.8154   23.4345 C   0  0  0  0  0  0
  -21.9195   -4.6976   22.3400 C   0  0  0  0  0  0
  -22.7846  -13.5247   21.1875 C   0  0  0  0  0  0
  -22.1656   -4.2172   21.0974 F   0  0  0  0  0  0
  -21.5636   -3.4530   25.7732 F   0  0  0  0  0  0
  -30.0372  -13.2743   20.4316 N   0  0  0  0  0  0
  -26.2999  -12.9365   20.3355 N   0  0  0  0  0  0
  -25.9307  -11.6517   20.5772 N   0  0  0  0  0  0
  -22.0484  -12.8252   22.0445 N   0  0  0  0  0  0
  -25.4255  -15.1914   20.4076 N   0  0  0  0  0  0
  -31.8904  -14.5678   20.1478 O   0  0  0  0  0  0
  -21.6635   -6.8900   21.4245 O   0  0  0  0  0  0
  -22.3532  -14.5563   20.6748 O   0  0  0  0  0  0
  -24.6109  -31.8710   23.2131 C   0  0  0  0  0  0
  -25.9033  -32.4824   23.8388 C   0  0  1  0  0  0
  -27.2303  -27.4584   20.0632 C   0  0  0  0  0  0
  -25.5919  -33.8622   24.2323 N   0  0  0  0  0  0
  -23.3957  -30.4954   21.5556 C   0  0  2  0  0  0
  -24.8380  -28.9674   20.1141 C   0  0  0  0  0  0
  -22.7394  -29.4675   22.5034 C   0  0  0  0  0  0
  -18.0269  -28.1350   22.8485 C   0  0  0  0  0  0
  -24.1502  -36.7317   23.2632 C   0  0  0  0  0  0
  -25.9264  -30.8304   21.3764 C   0  0  0  0  0  0
  -25.9974  -29.4714   20.7172 C   0  0  0  0  0  0
  -27.1901  -28.7171   20.7033 C   0  0  0  0  0  0
  -26.0477  -26.9674   19.4613 C   0  0  0  0  0  0
  -24.8563  -27.7115   19.4911 C   0  0  0  0  0  0
  -23.6003  -29.8304   20.1690 C   0  0  0  0  0  0
  -25.4119  -36.3111   24.0339 C   0  0  1  0  0  0
  -20.5855  -28.3633   23.1333 C   0  0  2  0  0  0
  -20.6769  -26.9358   22.5450 C   0  0  0  0  0  0
  -19.5775  -26.6356   21.5219 C   0  0  0  0  0  0
  -18.1934  -26.7913   22.1582 C   0  0  0  0  0  0
  -19.1517  -28.8802   23.2903 C   0  0  0  0  0  0
  -18.9443  -30.1422   23.8907 C   0  0  0  0  0  0
  -17.6448  -30.6549   24.0567 C   0  0  0  0  0  0
  -25.9041  -34.9477   23.5118 C   0  0  0  0  0  0
  -16.5339  -29.9049   23.6328 C   0  0  0  0  0  0
  -16.7267  -28.6461   23.0348 C   0  0  0  0  0  0
  -26.4449  -31.6627   25.0740 C   0  0  0  0  0  0
  -25.3719  -31.3854   26.1515 C   0  0  0  0  0  0
  -27.0207  -30.3013   24.6190 C   0  0  0  0  0  0
  -27.6060  -32.4344   25.7447 C   0  0  0  0  0  0
  -27.5602  -37.1796   24.8440 C   0  0  0  0  0  0
  -21.4129  -29.2998   22.3737 N   0  0  0  0  0  0
  -26.4308  -37.3793   23.9399 N   0  0  0  0  0  0
  -24.6608  -31.0826   22.1034 N   0  0  0  0  0  0
  -23.4182  -28.8221   23.3059 O   0  0  0  0  0  0
  -28.4222  -26.7621   20.0541 O   0  0  0  0  0  0
  -26.5596  -34.8929   22.4673 O   0  0  0  0  0  0
  -23.5317  -32.1464   23.7554 O   0  0  0  0  0  0
  -30.2163  -19.5027   18.8411 C   0  0  0  0  0  0
  -31.5307  -20.9035   17.3390 C   0  0  0  0  0  0
  -31.0003  -18.3773   18.4943 C   0  0  0  0  0  0
  -32.3352  -19.8009   16.9945 C   0  0  0  0  0  0
  -30.4544  -20.7611   18.2344 C   0  0  0  0  0  0
  -32.0697  -18.5339   17.5647 C   0  0  0  0  0  0
  -30.6790  -17.0469   19.0579 C   0  0  0  0  0  0
  -28.0740  -24.3698   19.5675 C   0  0  0  0  0  0
  -28.3275  -21.9906   18.6493 C   0  0  0  0  0  0
  -33.4704  -19.9912   15.9983 C   0  0  0  0  0  0
  -27.6709  -23.3674   18.4773 C   0  0  0  0  0  0
  -28.6005  -25.7292   19.0779 C   0  0  0  0  0  0
  -30.1419  -16.8379   20.2195 N   0  0  0  0  0  0
  -32.8914  -17.4632   17.1918 N   0  0  0  0  0  0
  -29.6578  -21.9168   18.4583 N   0  0  0  0  0  0
  -29.9283  -15.5415   20.6717 N   0  0  0  0  0  0
  -27.9331  -24.1267   20.7717 O   0  0  0  0  0  0
  -27.6191  -21.0111   18.9014 O   0  0  0  0  0  0
  -31.4603  -12.3317   19.1407 H   0  0  0  0  0  0
  -30.2713  -11.2651   19.8383 H   0  0  0  0  0  0
  -29.7257  -11.7628   17.4267 H   0  0  0  0  0  0
  -29.6916  -13.4688   17.7731 H   0  0  0  0  0  0
  -27.7964  -11.3225   18.7914 H   0  0  0  0  0  0
  -27.3776  -12.6724   17.7754 H   0  0  0  0  0  0
  -27.6906  -14.2593   19.5652 H   0  0  0  0  0  0
  -28.6601  -11.9989   21.3839 H   0  0  0  0  0  0
  -28.4943  -13.6680   21.8464 H   0  0  0  0  0  0
  -25.2788   -9.5728   22.4739 H   0  0  0  0  0  0
  -24.0051   -7.4642   22.7421 H   0  0  0  0  0  0
  -21.0847   -8.8811   19.8952 H   0  0  0  0  0  0
  -22.3697  -10.9709   19.6175 H   0  0  0  0  0  0
  -21.2008   -7.6152   23.9742 H   0  0  0  0  0  0
  -21.1482   -6.0509   25.9087 H   0  0  0  0  0  0
  -22.0586   -2.7610   23.2831 H   0  0  0  0  0  0
  -22.4081  -11.9940   22.4902 H   0  0  0  0  0  0
  -21.1101  -13.1293   22.2634 H   0  0  0  0  0  0
  -24.6611  -15.8487   20.5259 H   0  0  0  0  0  0
  -26.2723  -15.6311   20.0690 H   0  0  0  0  0  0
  -26.7107  -32.5534   23.1144 H   0  0  0  0  0  0
  -25.0118  -33.9795   25.0503 H   0  0  0  0  0  0
  -22.6822  -31.3106   21.4209 H   0  0  0  0  0  0
  -23.3764  -35.9645   23.3294 H   0  0  0  0  0  0
  -24.3594  -36.8924   22.2041 H   0  0  0  0  0  0
  -23.7250  -37.6525   23.6647 H   0  0  0  0  0  0
  -26.0657  -31.6023   20.6193 H   0  0  0  0  0  0
  -26.8037  -30.8618   22.0111 H   0  0  0  0  0  0
  -28.0863  -29.1035   21.1707 H   0  0  0  0  0  0
  -26.0109  -26.0155   18.9567 H   0  0  0  0  0  0
  -23.9662  -27.3174   19.0214 H   0  0  0  0  0  0
  -23.6999  -30.6037   19.4063 H   0  0  0  0  0  0
  -22.7250  -29.2448   19.8799 H   0  0  0  0  0  0
  -25.1292  -36.1977   25.0835 H   0  0  0  0  0  0
  -20.9939  -28.3200   24.1463 H   0  0  0  0  0  0
  -20.5652  -26.2219   23.3632 H   0  0  0  0  0  0
  -21.6651  -26.7403   22.1263 H   0  0  0  0  0  0
  -19.6935  -25.6271   21.1245 H   0  0  0  0  0  0
  -19.6746  -27.3162   20.6753 H   0  0  0  0  0  0
  -17.4229  -26.6696   21.3957 H   0  0  0  0  0  0
  -18.0282  -26.0028   22.8940 H   0  0  0  0  0  0
  -19.7924  -30.7247   24.2270 H   0  0  0  0  0  0
  -17.4992  -31.6240   24.5160 H   0  0  0  0  0  0
  -15.5334  -30.2936   23.7669 H   0  0  0  0  0  0
  -15.8670  -28.0790   22.7057 H   0  0  0  0  0  0
  -24.5868  -30.7190   25.7930 H   0  0  0  0  0  0
  -24.8949  -32.3070   26.4865 H   0  0  0  0  0  0
  -25.8068  -30.9129   27.0328 H   0  0  0  0  0  0
  -26.2728  -29.6839   24.1190 H   0  0  0  0  0  0
  -27.3812  -29.7223   25.4710 H   0  0  0  0  0  0
  -27.8676  -30.4224   23.9421 H   0  0  0  0  0  0
  -27.2672  -33.3611   26.2089 H   0  0  0  0  0  0
  -28.3785  -32.6962   25.0206 H   0  0  0  0  0  0
  -28.0811  -31.8446   26.5296 H   0  0  0  0  0  0
  -28.2642  -38.0075   24.7483 H   0  0  0  0  0  0
  -28.1084  -36.2625   24.6248 H   0  0  0  0  0  0
  -27.2350  -37.1424   25.8852 H   0  0  0  0  0  0
  -20.9286  -29.8660   21.6920 H   0  0  0  0  0  0
  -26.0214  -38.2878   24.1414 H   0  0  0  0  0  0
  -29.4097  -19.3784   19.5490 H   0  0  0  0  0  0
  -31.7270  -21.8633   16.8798 H   0  0  0  0  0  0
  -30.9228  -16.1973   18.4168 H   0  0  0  0  0  0
  -33.4434  -20.9761   15.5296 H   0  0  0  0  0  0
  -33.4204  -19.2493   15.1999 H   0  0  0  0  0  0
  -34.4319  -19.8829   16.4996 H   0  0  0  0  0  0
  -27.9357  -23.7616   17.4953 H   0  0  0  0  0  0
  -26.5866  -23.2630   18.4808 H   0  0  0  0  0  0
  -28.1483  -26.0084   18.1260 H   0  0  0  0  0  0
  -29.6671  -25.6209   18.8868 H   0  0  0  0  0  0
  -32.9310  -16.6547   17.8028 H   0  0  0  0  0  0
  -33.7936  -17.6852   16.7879 H   0  0  0  0  0  0
  -30.1096  -22.7934   18.2389 H   0  0  0  0  0  0
  -29.0215  -15.3927   21.0942 H   0  0  0  0  0  0
  1 25  1  0  0  0
  1 30  2  0  0  0
  1 86  1  0  0  0
  2  3  1  0  0  0
  2 25  1  0  0  0
  2 89  1  0  0  0
  2 90  1  0  0  0
  3  4  1  0  0  0
  3 91  1  0  0  0
  3 92  1  0  0  0
  4  5  1  0  0  0
  4 93  1  0  0  0
  4 94  1  0  0  0
  5  6  1  0  0  0
  5 26  1  0  0  0
  5 95  1  0  0  0
  6 25  1  0  0  0
  6 96  1  0  0  0
  6 97  1  0  0  0
  7  8  2  0  0  0
  7 26  1  0  0  0
  7 29  1  0  0  0
  8  9  1  0  0  0
  8 22  1  0  0  0
  9 10  1  0  0  0
  9 27  2  0  0  0
 10 11  2  0  0  0
 10 15  1  0  0  0
 11 12  1  0  0  0
 11 98  1  0  0  0
 12 13  2  0  0  0
 12 99  1  0  0  0
 13 14  1  0  0  0
 13 31  1  0  0  0
 14 15  2  0  0  0
 14100  1  0  0  0
 15101  1  0  0  0
 16 17  2  0  0  0
 16 21  1  0  0  0
 16 31  1  0  0  0
 17 18  1  0  0  0
 17102  1  0  0  0
 18 19  2  0  0  0
 18103  1  0  0  0
 19 20  1  0  0  0
 19 24  1  0  0  0
 20 21  2  0  0  0
 20104  1  0  0  0
 21 23  1  0  0  0
 22 28  1  0  0  0
 22 32  2  0  0  0
 26 27  1  0  0  0
 28105  1  0  0  0
 28106  1  0  0  0
 29107  1  0  0  0
 29108  1  0  0  0
 33 34  1  0  0  0
 33 66  1  0  0  0
 33 70  2  0  0  0
 34 36  1  0  0  0
 34 59  1  0  0  0
 34109  1  0  0  0
 35 44  2  0  0  0
 35 45  1  0  0  0
 35 68  1  0  0  0
 36 56  1  0  0  0
 36110  1  0  0  0
 37 39  1  0  0  0
 37 47  1  0  0  0
 37 66  1  0  0  0
 37111  1  0  0  0
 38 43  2  0  0  0
 38 46  1  0  0  0
 38 47  1  0  0  0
 39 64  1  0  0  0
 39 67  2  0  0  0
 40 52  1  0  0  0
 40 53  2  0  0  0
 40 58  1  0  0  0
 41112  1  0  0  0
 41113  1  0  0  0
 41114  1  0  0  0
 41 48  1  0  0  0
 42 43  1  0  0  0
 42 66  1  0  0  0
 42115  1  0  0  0
 42116  1  0  0  0
 43 44  1  0  0  0
 44117  1  0  0  0
 45 46  2  0  0  0
 45118  1  0  0  0
 46119  1  0  0  0
 47120  1  0  0  0
 47121  1  0  0  0
 48 56  1  0  0  0
 48 65  1  0  0  0
 48122  1  0  0  0
 49 50  1  0  0  0
 49 53  1  0  0  0
 49 64  1  0  0  0
 49123  1  0  0  0
 50 51  1  0  0  0
 50124  1  0  0  0
 50125  1  0  0  0
 51 52  1  0  0  0
 51126  1  0  0  0
 51127  1  0  0  0
 52128  1  0  0  0
 52129  1  0  0  0
 53 54  1  0  0  0
 54 55  2  0  0  0
 54130  1  0  0  0
 55 57  1  0  0  0
 55131  1  0  0  0
 56 69  2  0  0  0
 57 58  2  0  0  0
 57132  1  0  0  0
 58133  1  0  0  0
 59 60  1  0  0  0
 59 61  1  0  0  0
 59 62  1  0  0  0
 60134  1  0  0  0
 60135  1  0  0  0
 60136  1  0  0  0
 61137  1  0  0  0
 61138  1  0  0  0
 61139  1  0  0  0
 62140  1  0  0  0
 62141  1  0  0  0
 62142  1  0  0  0
 63 65  1  0  0  0
 63143  1  0  0  0
 63144  1  0  0  0
 63145  1  0  0  0
 64146  1  0  0  0
 65147  1  0  0  0
 68 82  1  0  0  0
 71 73  2  0  0  0
 71 75  1  0  0  0
 71148  1  0  0  0
 72 74  1  0  0  0
 72 75  2  0  0  0
 72149  1  0  0  0
 73 76  1  0  0  0
 73 77  1  0  0  0
 74 76  2  0  0  0
 74 80  1  0  0  0
 75 85  1  0  0  0
 76 84  1  0  0  0
 77 83  2  0  0  0
 77150  1  0  0  0
 78 81  1  0  0  0
 78 82  1  0  0  0
 78 87  2  0  0  0
 79 81  1  0  0  0
 79 85  1  0  0  0
 79 88  2  0  0  0
 80151  1  0  0  0
 80152  1  0  0  0
 80153  1  0  0  0
 81154  1  0  0  0
 81155  1  0  0  0
 82156  1  0  0  0
 82157  1  0  0  0
 83 86  1  0  0  0
 84158  1  0  0  0
 84159  1  0  0  0
 85160  1  0  0  0
 86161  1  0  0  0
M  ISO  4   1 100  68 101  82 101  86 100
M  END
> <chiral flag>
0

> <version>
0

> <s_m_source_file>
/data/baiqing/PycharmProjects/Reinvent-master-3.2/result/LINK_invent/BTK/process_docking_weight1_custom_product_contain_oxygen_bond_distance_aromatic_linkinvent_7_9_3/rearranged_h_0111.sdf

> <i_m_source_file_index>
49

> <r_mmod_Potential_Energy-OPLS-2005>
-18.9889316558838

> <r_mmod_Stretch_Energy-OPLS-2005>
39.3820915222168

> <r_mmod_Bend_Energy-OPLS-2005>
109.630935668945

> <r_mmod_Torsional_Energy-OPLS-2005>
248.088363647461

> <r_mmod_Improper_Torsional_Energy-OPLS-2005>
11.5584945678711

> <r_mmod_Van_der_Waal_Energy-OPLS-2005>
182.828674316406

> <r_mmod_Electrostatic_Energy-OPLS-2005>
-353.133819580078

> <r_mmod_Solvation_Energy-OPLS-2005>
-274.066070556641

> <b_mmod_Minimization_Converged-OPLS-2005>
0

> <r_mmod_RMS_Derivative-OPLS-2005>
3.1635582447052

$$$$
51
                    3D
 Structure written by MMmdl.
157165  0  0  1  0            999 V2000
  -30.6346  -14.5864   20.5251 C   0  0  0  0  0  0
  -30.4390  -12.3608   19.4527 C   0  0  0  0  0  0
  -29.5122  -12.5140   18.2259 C   0  0  0  0  0  0
  -28.0324  -12.3539   18.6312 C   0  0  0  0  0  0
  -27.6581  -13.2103   19.8706 C   0  0  2  0  0  0
  -28.6978  -13.0277   21.0002 C   0  0  0  0  0  0
  -25.2570  -13.8156   20.5667 C   0  0  0  0  0  0
  -24.1826  -13.0430   20.9163 C   0  0  0  0  0  0
  -24.6396  -11.6899   20.8736 C   0  0  0  0  0  0
  -23.9068  -10.4285   21.0407 C   0  0  0  0  0  0
  -24.3620   -9.4198   21.9183 C   0  0  0  0  0  0
  -23.6289   -8.2240   22.0754 C   0  0  0  0  0  0
  -22.4268   -8.0283   21.3547 C   0  0  0  0  0  0
  -21.9910   -9.0260   20.4649 C   0  0  0  0  0  0
  -22.7243  -10.2133   20.3053 C   0  0  0  0  0  0
  -21.6848   -6.0733   22.5283 C   0  0  0  0  0  0
  -21.4010   -6.5638   23.8214 C   0  0  0  0  0  0
  -21.3661   -5.6791   24.9179 C   0  0  0  0  0  0
  -21.6044   -4.3056   24.7228 C   0  0  0  0  0  0
  -21.8818   -3.8145   23.4349 C   0  0  0  0  0  0
  -21.9184   -4.6963   22.3403 C   0  0  0  0  0  0
  -22.7849  -13.5229   21.1834 C   0  0  0  0  0  0
  -22.1654   -4.2143   21.0982 F   0  0  0  0  0  0
  -21.5631   -3.4542   25.7745 F   0  0  0  0  0  0
  -30.0244  -13.3625   20.4527 N   0  0  0  0  0  0
  -26.3002  -12.9331   20.3332 N   0  0  0  0  0  0
  -25.9320  -11.6490   20.5754 N   0  0  0  0  0  0
  -22.0481  -12.8235   22.0403 N   0  0  0  0  0  0
  -25.4291  -15.1879   20.4081 N   0  0  0  0  0  0
  -31.7930  -14.7387   20.1287 O   0  0  0  0  0  0
  -21.6635   -6.8879   21.4244 O   0  0  0  0  0  0
  -22.3535  -14.5535   20.6681 O   0  0  0  0  0  0
  -24.6231  -31.8629   23.2074 C   0  0  0  0  0  0
  -25.9090  -32.4800   23.8387 C   0  0  1  0  0  0
  -27.2220  -27.3547   20.1079 C   0  0  0  0  0  0
  -25.5918  -33.8601   24.2310 N   0  0  0  0  0  0
  -23.4143  -30.4887   21.5499 C   0  0  2  0  0  0
  -24.8594  -28.9542   20.1124 C   0  0  0  0  0  0
  -22.7461  -29.4628   22.4962 C   0  0  0  0  0  0
  -18.0279  -28.1372   22.8495 C   0  0  0  0  0  0
  -24.1490  -36.7311   23.2638 C   0  0  0  0  0  0
  -25.9531  -30.8063   21.3731 C   0  0  0  0  0  0
  -26.0278  -29.4372   20.7149 C   0  0  0  0  0  0
  -27.2131  -28.6487   20.7040 C   0  0  0  0  0  0
  -26.0298  -26.9222   19.4782 C   0  0  0  0  0  0
  -24.8612  -27.7015   19.4846 C   0  0  0  0  0  0
  -23.6263  -29.8296   20.1629 C   0  0  0  0  0  0
  -25.4111  -36.3100   24.0334 C   0  0  1  0  0  0
  -20.5876  -28.3663   23.1307 C   0  0  2  0  0  0
  -20.6765  -26.9392   22.5415 C   0  0  0  0  0  0
  -19.5740  -26.6376   21.5216 C   0  0  0  0  0  0
  -18.1921  -26.7917   22.1629 C   0  0  0  0  0  0
  -19.1531  -28.8837   23.2896 C   0  0  0  0  0  0
  -18.9453  -30.1441   23.8906 C   0  0  0  0  0  0
  -17.6451  -30.6575   24.0561 C   0  0  0  0  0  0
  -25.9043  -34.9465   23.5120 C   0  0  0  0  0  0
  -16.5343  -29.9074   23.6322 C   0  0  0  0  0  0
  -16.7266  -28.6490   23.0350 C   0  0  0  0  0  0
  -26.4489  -31.6592   25.0736 C   0  0  0  0  0  0
  -25.3738  -31.3709   26.1471 C   0  0  0  0  0  0
  -27.0321  -30.3024   24.6145 C   0  0  0  0  0  0
  -27.6056  -32.4316   25.7505 C   0  0  0  0  0  0
  -27.5581  -37.1810   24.8460 C   0  0  0  0  0  0
  -21.4175  -29.3030   22.3715 N   0  0  0  0  0  0
  -26.4290  -37.3787   23.9410 N   0  0  0  0  0  0
  -24.6822  -31.0679   22.1008 N   0  0  0  0  0  0
  -23.4206  -28.8148   23.3009 O   0  0  0  0  0  0
  -28.3506  -26.5292   20.1426 O   0  0  0  0  0  0
  -26.5602  -34.8921   22.4680 O   0  0  0  0  0  0
  -23.5401  -32.1414   23.7419 O   0  0  0  0  0  0
  -30.4886  -17.7647   19.7883 C   0  0  0  0  0  0
  -30.4656  -19.1667   19.5779 C   0  0  0  0  0  0
  -31.6718  -17.8652   17.8299 C   0  0  0  0  0  0
  -29.8249  -16.9578   20.9111 C   0  0  0  0  0  0
  -30.0853  -21.5367   20.1935 C   0  0  0  0  0  0
  -32.7986  -16.0537   16.3640 C   0  0  0  0  0  0
  -28.9734  -22.5792   20.5295 C   0  0  0  0  0  0
  -29.3310  -24.1093   20.3112 C   0  0  0  0  0  0
  -28.1044  -25.0871   20.2772 C   0  0  0  0  0  0
  -31.1351  -17.0840   18.7466 N   0  0  0  0  0  0
  -29.8091  -20.1954   20.2407 N   0  0  0  0  0  0
  -32.3960  -17.3962   16.7498 N   0  0  0  0  0  0
  -29.8324  -15.5882   20.9827 N   0  0  0  0  0  0
  -29.1450  -17.5605   21.7471 O   0  0  0  0  0  0
  -31.2143  -21.9619   19.9387 O   0  0  0  0  0  0
  -31.3708  -19.5528   18.1061 S   0  0  0  0  0  0
  -31.4823  -12.4783   19.1554 H   0  0  0  0  0  0
  -30.3637  -11.3551   19.8694 H   0  0  0  0  0  0
  -29.7749  -11.7813   17.4619 H   0  0  0  0  0  0
  -29.6651  -13.4948   17.7714 H   0  0  0  0  0  0
  -27.8622  -11.2988   18.8485 H   0  0  0  0  0  0
  -27.3828  -12.5989   17.7900 H   0  0  0  0  0  0
  -27.6879  -14.2522   19.5505 H   0  0  0  0  0  0
  -28.6931  -11.9965   21.3587 H   0  0  0  0  0  0
  -28.4400  -13.6355   21.8687 H   0  0  0  0  0  0
  -25.2765   -9.5673   22.4758 H   0  0  0  0  0  0
  -23.9987   -7.4627   22.7478 H   0  0  0  0  0  0
  -21.0835   -8.8789   19.8957 H   0  0  0  0  0  0
  -22.3707  -10.9675   19.6164 H   0  0  0  0  0  0
  -21.2006   -7.6147   23.9725 H   0  0  0  0  0  0
  -21.1483   -6.0518   25.9084 H   0  0  0  0  0  0
  -22.0594   -2.7608   23.2851 H   0  0  0  0  0  0
  -22.4077  -11.9899   22.4812 H   0  0  0  0  0  0
  -21.1108  -13.1285   22.2604 H   0  0  0  0  0  0
  -24.6594  -15.8411   20.5084 H   0  0  0  0  0  0
  -26.2816  -15.6305   20.0890 H   0  0  0  0  0  0
  -26.7156  -32.5484   23.1140 H   0  0  0  0  0  0
  -25.0076  -33.9754   25.0461 H   0  0  0  0  0  0
  -22.7063  -31.3081   21.4119 H   0  0  0  0  0  0
  -23.3745  -35.9648   23.3299 H   0  0  0  0  0  0
  -24.3586  -36.8929   22.2053 H   0  0  0  0  0  0
  -23.7247  -37.6517   23.6654 H   0  0  0  0  0  0
  -26.0772  -31.5714   20.6061 H   0  0  0  0  0  0
  -26.8372  -30.8559   21.9968 H   0  0  0  0  0  0
  -28.1106  -29.0148   21.1824 H   0  0  0  0  0  0
  -25.9635  -25.9786   18.9614 H   0  0  0  0  0  0
  -23.9688  -27.3321   18.9987 H   0  0  0  0  0  0
  -23.7426  -30.6094   19.4091 H   0  0  0  0  0  0
  -22.7479  -29.2573   19.8596 H   0  0  0  0  0  0
  -25.1288  -36.1962   25.0824 H   0  0  0  0  0  0
  -20.9967  -28.3219   24.1428 H   0  0  0  0  0  0
  -20.5668  -26.2265   23.3603 H   0  0  0  0  0  0
  -21.6634  -26.7423   22.1205 H   0  0  0  0  0  0
  -19.6898  -25.6291   21.1234 H   0  0  0  0  0  0
  -19.6681  -27.3197   20.6757 H   0  0  0  0  0  0
  -17.4192  -26.6669   21.4029 H   0  0  0  0  0  0
  -18.0318  -26.0053   22.9021 H   0  0  0  0  0  0
  -19.7925  -30.7255   24.2282 H   0  0  0  0  0  0
  -17.5001  -31.6260   24.5154 H   0  0  0  0  0  0
  -15.5342  -30.2976   23.7638 H   0  0  0  0  0  0
  -15.8669  -28.0810   22.7061 H   0  0  0  0  0  0
  -24.5916  -30.7051   25.7810 H   0  0  0  0  0  0
  -24.8924  -32.2863   26.4918 H   0  0  0  0  0  0
  -25.8082  -30.8882   27.0233 H   0  0  0  0  0  0
  -26.2875  -29.6789   24.1177 H   0  0  0  0  0  0
  -27.4048  -29.7261   25.4624 H   0  0  0  0  0  0
  -27.8735  -30.4332   23.9337 H   0  0  0  0  0  0
  -27.2671  -33.3611   26.2093 H   0  0  0  0  0  0
  -28.3862  -32.6878   25.0330 H   0  0  0  0  0  0
  -28.0722  -31.8428   26.5412 H   0  0  0  0  0  0
  -28.2591  -38.0116   24.7514 H   0  0  0  0  0  0
  -28.1085  -36.2645   24.6273 H   0  0  0  0  0  0
  -27.2300  -37.1446   25.8863 H   0  0  0  0  0  0
  -20.9337  -29.8794   21.6972 H   0  0  0  0  0  0
  -26.0178  -38.2862   24.1411 H   0  0  0  0  0  0
  -33.6933  -15.7533   16.9109 H   0  0  0  0  0  0
  -33.0180  -16.0083   15.2968 H   0  0  0  0  0  0
  -32.0092  -15.3327   16.5839 H   0  0  0  0  0  0
  -28.6519  -22.4267   21.5597 H   0  0  0  0  0  0
  -28.1178  -22.3292   19.9012 H   0  0  0  0  0  0
  -29.8727  -24.2176   19.3711 H   0  0  0  0  0  0
  -30.0210  -24.4253   21.0942 H   0  0  0  0  0  0
  -27.5188  -24.9338   21.1855 H   0  0  0  0  0  0
  -27.4952  -24.7272   19.4516 H   0  0  0  0  0  0
  -28.9496  -19.9394   20.7104 H   0  0  0  0  0  0
  -32.7493  -18.1329   16.1437 H   0  0  0  0  0  0
  -29.0633  -15.2421   21.5277 H   0  0  0  0  0  0
  1 25  1  0  0  0
  1 30  2  0  0  0
  1 83  1  0  0  0
  2  3  1  0  0  0
  2 25  1  0  0  0
  2 87  1  0  0  0
  2 88  1  0  0  0
  3  4  1  0  0  0
  3 89  1  0  0  0
  3 90  1  0  0  0
  4  5  1  0  0  0
  4 91  1  0  0  0
  4 92  1  0  0  0
  5  6  1  0  0  0
  5 26  1  0  0  0
  5 93  1  0  0  0
  6 25  1  0  0  0
  6 94  1  0  0  0
  6 95  1  0  0  0
  7  8  2  0  0  0
  7 26  1  0  0  0
  7 29  1  0  0  0
  8  9  1  0  0  0
  8 22  1  0  0  0
  9 10  1  0  0  0
  9 27  2  0  0  0
 10 11  2  0  0  0
 10 15  1  0  0  0
 11 12  1  0  0  0
 11 96  1  0  0  0
 12 13  2  0  0  0
 12 97  1  0  0  0
 13 14  1  0  0  0
 13 31  1  0  0  0
 14 15  2  0  0  0
 14 98  1  0  0  0
 15 99  1  0  0  0
 16 17  2  0  0  0
 16 21  1  0  0  0
 16 31  1  0  0  0
 17 18  1  0  0  0
 17100  1  0  0  0
 18 19  2  0  0  0
 18101  1  0  0  0
 19 20  1  0  0  0
 19 24  1  0  0  0
 20 21  2  0  0  0
 20102  1  0  0  0
 21 23  1  0  0  0
 22 28  1  0  0  0
 22 32  2  0  0  0
 26 27  1  0  0  0
 28103  1  0  0  0
 28104  1  0  0  0
 29105  1  0  0  0
 29106  1  0  0  0
 33 34  1  0  0  0
 33 66  1  0  0  0
 33 70  2  0  0  0
 34 36  1  0  0  0
 34 59  1  0  0  0
 34107  1  0  0  0
 35 44  2  0  0  0
 35 45  1  0  0  0
 35 68  1  0  0  0
 36 56  1  0  0  0
 36108  1  0  0  0
 37 39  1  0  0  0
 37 47  1  0  0  0
 37 66  1  0  0  0
 37109  1  0  0  0
 38 43  2  0  0  0
 38 46  1  0  0  0
 38 47  1  0  0  0
 39 64  1  0  0  0
 39 67  2  0  0  0
 40 52  1  0  0  0
 40 53  2  0  0  0
 40 58  1  0  0  0
 41110  1  0  0  0
 41111  1  0  0  0
 41112  1  0  0  0
 41 48  1  0  0  0
 42 43  1  0  0  0
 42 66  1  0  0  0
 42113  1  0  0  0
 42114  1  0  0  0
 43 44  1  0  0  0
 44115  1  0  0  0
 45 46  2  0  0  0
 45116  1  0  0  0
 46117  1  0  0  0
 47118  1  0  0  0
 47119  1  0  0  0
 48 56  1  0  0  0
 48 65  1  0  0  0
 48120  1  0  0  0
 49 50  1  0  0  0
 49 53  1  0  0  0
 49 64  1  0  0  0
 49121  1  0  0  0
 50 51  1  0  0  0
 50122  1  0  0  0
 50123  1  0  0  0
 51 52  1  0  0  0
 51124  1  0  0  0
 51125  1  0  0  0
 52126  1  0  0  0
 52127  1  0  0  0
 53 54  1  0  0  0
 54 55  2  0  0  0
 54128  1  0  0  0
 55 57  1  0  0  0
 55129  1  0  0  0
 56 69  2  0  0  0
 57 58  2  0  0  0
 57130  1  0  0  0
 58131  1  0  0  0
 59 60  1  0  0  0
 59 61  1  0  0  0
 59 62  1  0  0  0
 60132  1  0  0  0
 60133  1  0  0  0
 60134  1  0  0  0
 61135  1  0  0  0
 61136  1  0  0  0
 61137  1  0  0  0
 62138  1  0  0  0
 62139  1  0  0  0
 62140  1  0  0  0
 63 65  1  0  0  0
 63141  1  0  0  0
 63142  1  0  0  0
 63143  1  0  0  0
 64144  1  0  0  0
 65145  1  0  0  0
 68 79  1  0  0  0
 71 72  2  0  0  0
 71 74  1  0  0  0
 71 80  1  0  0  0
 72 81  1  0  0  0
 72 86  1  0  0  0
 73 80  2  0  0  0
 73 82  1  0  0  0
 73 86  1  0  0  0
 74 83  1  0  0  0
 74 84  2  0  0  0
 75 77  1  0  0  0
 75 81  1  0  0  0
 75 85  2  0  0  0
 76 82  1  0  0  0
 76146  1  0  0  0
 76147  1  0  0  0
 76148  1  0  0  0
 77 78  1  0  0  0
 77149  1  0  0  0
 77150  1  0  0  0
 78 79  1  0  0  0
 78151  1  0  0  0
 78152  1  0  0  0
 79153  1  0  0  0
 79154  1  0  0  0
 81155  1  0  0  0
 82156  1  0  0  0
 83157  1  0  0  0
M  ISO  4   1 100  68 101  79 101  83 100
M  END
> <chiral flag>
0

> <version>
0

> <s_m_source_file>
/data/baiqing/PycharmProjects/Reinvent-master-3.2/result/LINK_invent/BTK/process_docking_weight1_custom_product_contain_oxygen_bond_distance_aromatic_linkinvent_7_9_3/rearranged_h_0111.sdf

> <i_m_source_file_index>
50

> <r_mmod_Potential_Energy-OPLS-2005>
-135.389190673828

> <r_mmod_Stretch_Energy-OPLS-2005>
69.7101669311523

> <r_mmod_Bend_Energy-OPLS-2005>
151.125152587891

> <r_mmod_Torsional_Energy-OPLS-2005>
243.302993774414

> <r_mmod_Improper_Torsional_Energy-OPLS-2005>
4.46979093551636

> <r_mmod_Van_der_Waal_Energy-OPLS-2005>
140.686553955078

> <r_mmod_Electrostatic_Energy-OPLS-2005>
-519.563842773438

> <r_mmod_Solvation_Energy-OPLS-2005>
-258.325622558594

> <b_mmod_Minimization_Converged-OPLS-2005>
0

> <r_mmod_RMS_Derivative-OPLS-2005>
1.31729853153229

$$$$
52
                    3D
 Structure written by MMmdl.
157165  0  0  1  0            999 V2000
  -29.8403  -15.6513   20.2758 C   0  0  0  0  0  0
  -30.3531  -13.1204   19.5384 C   0  0  0  0  0  0
  -29.5148  -12.6363   18.3203 C   0  0  0  0  0  0
  -28.0857  -12.2544   18.7447 C   0  0  0  0  0  0
  -27.5311  -13.2557   19.7829 C   0  0  2  0  0  0
  -28.4962  -13.5299   20.9334 C   0  0  0  0  0  0
  -25.2051  -13.8153   20.5670 C   0  0  0  0  0  0
  -24.1492  -13.0367   20.9363 C   0  0  0  0  0  0
  -24.6148  -11.6859   20.8834 C   0  0  0  0  0  0
  -23.8927  -10.4240   21.0483 C   0  0  0  0  0  0
  -24.3547   -9.4162   21.9229 C   0  0  0  0  0  0
  -23.6250   -8.2182   22.0765 C   0  0  0  0  0  0
  -22.4234   -8.0231   21.3552 C   0  0  0  0  0  0
  -21.9847   -9.0187   20.4654 C   0  0  0  0  0  0
  -22.7141  -10.2081   20.3086 C   0  0  0  0  0  0
  -21.6829   -6.0709   22.5282 C   0  0  0  0  0  0
  -21.4000   -6.5628   23.8212 C   0  0  0  0  0  0
  -21.3649   -5.6788   24.9177 C   0  0  0  0  0  0
  -21.6039   -4.3050   24.7232 C   0  0  0  0  0  0
  -21.8820   -3.8135   23.4358 C   0  0  0  0  0  0
  -21.9187   -4.6943   22.3410 C   0  0  0  0  0  0
  -22.7552  -13.5161   21.2001 C   0  0  0  0  0  0
  -22.1660   -4.2136   21.0986 F   0  0  0  0  0  0
  -21.5628   -3.4534   25.7747 F   0  0  0  0  0  0
  -29.5935  -14.2235   20.2799 N   0  0  0  0  0  0
  -26.2264  -12.9314   20.2879 N   0  0  0  0  0  0
  -25.8996  -11.6474   20.5584 N   0  0  0  0  0  0
  -22.0204  -12.8167   22.0560 N   0  0  0  0  0  0
  -25.3731  -15.1886   20.4005 N   0  0  0  0  0  0
  -31.0854  -15.7774   20.1431 O   0  0  0  0  0  0
  -21.6610   -6.8837   21.4238 O   0  0  0  0  0  0
  -22.3287  -14.5469   20.6812 O   0  0  0  0  0  0
  -24.5730  -31.7274   22.9904 C   0  0  0  0  0  0
  -25.8652  -32.3924   23.6564 C   0  0  1  0  0  0
  -27.9461  -27.9598   20.1230 C   0  0  0  0  0  0
  -25.5227  -33.7825   24.0585 N   0  0  0  0  0  0
  -23.9844  -29.3389   22.5080 C   0  0  2  0  0  0
  -25.5886  -27.8054   20.0138 C   0  0  0  0  0  0
  -22.6509  -29.1523   23.0738 C   0  0  0  0  0  0
  -17.9604  -28.1485   22.8588 C   0  0  0  0  0  0
  -24.1481  -36.7047   23.2696 C   0  0  0  0  0  0
  -25.4790  -30.8162   20.5109 C   0  0  0  0  0  0
  -26.0741  -29.3251   19.6278 C   0  0  0  0  0  0
  -27.4840  -29.2048   19.6712 C   0  0  0  0  0  0
  -27.3499  -26.8863   19.3900 C   0  0  0  0  0  0
  -26.0129  -26.9343   19.1047 C   0  0  0  0  0  0
  -24.4897  -27.5776   21.7176 C   0  0  0  0  0  0
  -25.4192  -36.2624   24.0130 C   0  0  1  0  0  0
  -20.4004  -28.5185   22.6118 C   0  0  2  0  0  0
  -20.6113  -26.9957   22.5162 C   0  0  0  0  0  0
  -19.4980  -26.4583   21.6136 C   0  0  0  0  0  0
  -18.1075  -26.7746   22.1949 C   0  0  0  0  0  0
  -19.0840  -28.9395   23.1940 C   0  0  0  0  0  0
  -18.9260  -30.1768   23.8497 C   0  0  0  0  0  0
  -17.6308  -30.6656   24.0970 C   0  0  0  0  0  0
  -25.9114  -34.9077   23.4462 C   0  0  0  0  0  0
  -16.5075  -29.9092   23.7117 C   0  0  0  0  0  0
  -16.6715  -28.6473   23.1130 C   0  0  0  0  0  0
  -26.4242  -31.6791   24.9910 C   0  0  0  0  0  0
  -25.3402  -31.4259   26.0694 C   0  0  0  0  0  0
  -27.0970  -30.3237   24.7257 C   0  0  0  0  0  0
  -27.5425  -32.5274   25.6579 C   0  0  0  0  0  0
  -27.5533  -37.1587   24.8453 C   0  0  0  0  0  0
  -21.5069  -29.4422   22.4869 N   0  0  0  0  0  0
  -26.4248  -37.3473   23.9394 N   0  0  0  0  0  0
  -24.5656  -30.7837   21.9355 N   0  0  0  0  0  0
  -22.7211  -28.4704   24.0664 O   0  0  0  0  0  0
  -27.5048  -27.9776   21.4363 O   0  0  0  0  0  0
  -26.6231  -34.8890   22.4423 O   0  0  0  0  0  0
  -23.5199  -32.0006   23.5839 O   0  0  0  0  0  0
  -26.7690  -21.4798   20.1842 C   0  0  0  0  0  0
  -25.7989  -19.3818   19.5435 C   0  0  0  0  0  0
  -24.4880  -21.5917   19.4640 C   0  0  0  0  0  0
  -27.0282  -19.8754   20.0396 C   0  0  0  0  0  0
  -25.5012  -22.4713   19.9233 C   0  0  0  0  0  0
  -24.6312  -20.1740   19.2766 C   0  0  0  0  0  0
  -23.8362  -25.1675   19.9649 C   0  0  0  0  0  0
  -28.4160  -18.5960   20.2620 C   0  0  0  0  0  0
  -23.2900  -27.0173   19.5866 C   0  0  0  0  0  0
  -23.7352  -28.9970   20.1852 C   0  0  0  0  0  0
  -26.2565  -28.9730   21.8864 C   0  0  0  0  0  0
  -25.0645  -24.1700   19.9161 N   0  0  0  0  0  0
  -28.7598  -16.8148   20.2720 N   0  0  0  0  0  0
  -22.8471  -24.5666   20.3841 O   0  0  0  0  0  0
  -23.5547  -19.5175   18.7802 F   0  0  0  0  0  0
  -31.3105  -13.4955   19.1786 H   0  0  0  0  0  0
  -30.5964  -12.2943   20.2087 H   0  0  0  0  0  0
  -30.0038  -11.8005   17.8193 H   0  0  0  0  0  0
  -29.4580  -13.4434   17.5889 H   0  0  0  0  0  0
  -28.1161  -11.2566   19.1852 H   0  0  0  0  0  0
  -27.4290  -12.1884   17.8767 H   0  0  0  0  0  0
  -27.4003  -14.1801   19.2165 H   0  0  0  0  0  0
  -28.7916  -12.6190   21.4564 H   0  0  0  0  0  0
  -28.0389  -14.1925   21.6722 H   0  0  0  0  0  0
  -25.2688   -9.5653   22.4807 H   0  0  0  0  0  0
  -23.9968   -7.4565   22.7470 H   0  0  0  0  0  0
  -21.0784   -8.8687   19.8954 H   0  0  0  0  0  0
  -22.3599  -10.9624   19.6199 H   0  0  0  0  0  0
  -21.1994   -7.6137   23.9712 H   0  0  0  0  0  0
  -21.1467   -6.0520   25.9082 H   0  0  0  0  0  0
  -22.0613   -2.7597   23.2856 H   0  0  0  0  0  0
  -22.3820  -11.9833   22.4967 H   0  0  0  0  0  0
  -21.0817  -13.1186   22.2767 H   0  0  0  0  0  0
  -24.5472  -15.7765   20.4339 H   0  0  0  0  0  0
  -26.0617  -15.5345   19.7479 H   0  0  0  0  0  0
  -26.6558  -32.3989   22.9053 H   0  0  0  0  0  0
  -24.8846  -33.8689   24.8354 H   0  0  0  0  0  0
  -24.5127  -29.3748   23.4657 H   0  0  0  0  0  0
  -23.3758  -35.9351   23.3201 H   0  0  0  0  0  0
  -24.3464  -36.8998   22.2144 H   0  0  0  0  0  0
  -23.7244  -37.6112   23.7038 H   0  0  0  0  0  0
  -24.8879  -31.3841   19.7929 H   0  0  0  0  0  0
  -26.3274  -31.4820   20.6751 H   0  0  0  0  0  0
  -28.0611  -30.0909   19.8948 H   0  0  0  0  0  0
  -27.9716  -26.1048   18.9754 H   0  0  0  0  0  0
  -25.5845  -26.1001   18.5922 H   0  0  0  0  0  0
  -23.6168  -26.9455   21.8124 H   0  0  0  0  0  0
  -25.0734  -26.9573   22.4027 H   0  0  0  0  0  0
  -25.1502  -36.1133   25.0603 H   0  0  0  0  0  0
  -20.1350  -28.7504   21.5801 H   0  0  0  0  0  0
  -20.5892  -26.5335   23.5026 H   0  0  0  0  0  0
  -21.5597  -26.7328   22.0659 H   0  0  0  0  0  0
  -19.6071  -25.3834   21.4706 H   0  0  0  0  0  0
  -19.5914  -26.8937   20.6175 H   0  0  0  0  0  0
  -17.3505  -26.6548   21.4176 H   0  0  0  0  0  0
  -17.8756  -26.0356   22.9641 H   0  0  0  0  0  0
  -19.7861  -30.7858   24.0934 H   0  0  0  0  0  0
  -17.4983  -31.6299   24.5700 H   0  0  0  0  0  0
  -15.5133  -30.2891   23.9037 H   0  0  0  0  0  0
  -15.8003  -28.0652   22.8450 H   0  0  0  0  0  0
  -24.5670  -30.7400   25.7232 H   0  0  0  0  0  0
  -24.8435  -32.3515   26.3623 H   0  0  0  0  0  0
  -25.7661  -30.9894   26.9738 H   0  0  0  0  0  0
  -26.3604  -29.5381   24.6294 H   0  0  0  0  0  0
  -27.6986  -30.0076   25.5803 H   0  0  0  0  0  0
  -27.7896  -30.3517   23.8873 H   0  0  0  0  0  0
  -27.1728  -33.4851   26.0236 H   0  0  0  0  0  0
  -28.3479  -32.7401   24.9547 H   0  0  0  0  0  0
  -27.9853  -32.0268   26.5199 H   0  0  0  0  0  0
  -28.2490  -37.9934   24.7533 H   0  0  0  0  0  0
  -28.1075  -36.2453   24.6267 H   0  0  0  0  0  0
  -27.2232  -37.1198   25.8842 H   0  0  0  0  0  0
  -21.5230  -30.0293   21.6635 H   0  0  0  0  0  0
  -26.0008  -38.2475   24.1461 H   0  0  0  0  0  0
  -27.6482  -22.0016   20.5316 H   0  0  0  0  0  0
  -25.7401  -18.3235   19.3309 H   0  0  0  0  0  0
  -23.5386  -22.0259   19.1863 H   0  0  0  0  0  0
  -28.8277  -18.8973   21.2247 H   0  0  0  0  0  0
  -29.1573  -18.9622   19.5533 H   0  0  0  0  0  0
  -22.2164  -26.9583   19.7583 H   0  0  0  0  0  0
  -23.3363  -27.0623   18.4984 H   0  0  0  0  0  0
  -22.8258  -29.5081   20.4787 H   0  0  0  0  0  0
  -23.7862  -29.5109   19.2169 H   0  0  0  0  0  0
  -26.2363  -28.5482   22.8890 H   0  0  0  0  0  0
  -26.7910  -29.8931   22.1208 H   0  0  0  0  0  0
  -25.8970  -24.7378   19.8070 H   0  0  0  0  0  0
  -27.8653  -16.3505   20.3320 H   0  0  0  0  0  0
  1 25  1  0  0  0
  1 30  2  0  0  0
  1 83  1  0  0  0
  2  3  1  0  0  0
  2 25  1  0  0  0
  2 86  1  0  0  0
  2 87  1  0  0  0
  3  4  1  0  0  0
  3 88  1  0  0  0
  3 89  1  0  0  0
  4  5  1  0  0  0
  4 90  1  0  0  0
  4 91  1  0  0  0
  5  6  1  0  0  0
  5 26  1  0  0  0
  5 92  1  0  0  0
  6 25  1  0  0  0
  6 93  1  0  0  0
  6 94  1  0  0  0
  7  8  2  0  0  0
  7 26  1  0  0  0
  7 29  1  0  0  0
  8  9  1  0  0  0
  8 22  1  0  0  0
  9 10  1  0  0  0
  9 27  2  0  0  0
 10 11  2  0  0  0
 10 15  1  0  0  0
 11 12  1  0  0  0
 11 95  1  0  0  0
 12 13  2  0  0  0
 12 96  1  0  0  0
 13 14  1  0  0  0
 13 31  1  0  0  0
 14 15  2  0  0  0
 14 97  1  0  0  0
 15 98  1  0  0  0
 16 17  2  0  0  0
 16 21  1  0  0  0
 16 31  1  0  0  0
 17 18  1  0  0  0
 17 99  1  0  0  0
 18 19  2  0  0  0
 18100  1  0  0  0
 19 20  1  0  0  0
 19 24  1  0  0  0
 20 21  2  0  0  0
 20101  1  0  0  0
 21 23  1  0  0  0
 22 28  1  0  0  0
 22 32  2  0  0  0
 26 27  1  0  0  0
 28102  1  0  0  0
 28103  1  0  0  0
 29104  1  0  0  0
 29105  1  0  0  0
 33 34  1  0  0  0
 33 66  1  0  0  0
 33 70  2  0  0  0
 34 36  1  0  0  0
 34 59  1  0  0  0
 34106  1  0  0  0
 35 44  2  0  0  0
 35 45  1  0  0  0
 35 68  1  0  0  0
 36 56  1  0  0  0
 36107  1  0  0  0
 37 39  1  0  0  0
 37 47  1  0  0  0
 37 66  1  0  0  0
 37108  1  0  0  0
 38 43  2  0  0  0
 38 46  1  0  0  0
 38 47  1  0  0  0
 39 64  1  0  0  0
 39 67  2  0  0  0
 40 52  1  0  0  0
 40 53  2  0  0  0
 40 58  1  0  0  0
 41109  1  0  0  0
 41110  1  0  0  0
 41111  1  0  0  0
 41 48  1  0  0  0
 42 43  1  0  0  0
 42 66  1  0  0  0
 42112  1  0  0  0
 42113  1  0  0  0
 43 44  1  0  0  0
 44114  1  0  0  0
 45 46  2  0  0  0
 45115  1  0  0  0
 46116  1  0  0  0
 47117  1  0  0  0
 47118  1  0  0  0
 48 56  1  0  0  0
 48 65  1  0  0  0
 48119  1  0  0  0
 49 50  1  0  0  0
 49 53  1  0  0  0
 49 64  1  0  0  0
 49120  1  0  0  0
 50 51  1  0  0  0
 50121  1  0  0  0
 50122  1  0  0  0
 51 52  1  0  0  0
 51123  1  0  0  0
 51124  1  0  0  0
 52125  1  0  0  0
 52126  1  0  0  0
 53 54  1  0  0  0
 54 55  2  0  0  0
 54127  1  0  0  0
 55 57  1  0  0  0
 55128  1  0  0  0
 56 69  2  0  0  0
 57 58  2  0  0  0
 57129  1  0  0  0
 58130  1  0  0  0
 59 60  1  0  0  0
 59 61  1  0  0  0
 59 62  1  0  0  0
 60131  1  0  0  0
 60132  1  0  0  0
 60133  1  0  0  0
 61134  1  0  0  0
 61135  1  0  0  0
 61136  1  0  0  0
 62137  1  0  0  0
 62138  1  0  0  0
 62139  1  0  0  0
 63 65  1  0  0  0
 63140  1  0  0  0
 63141  1  0  0  0
 63142  1  0  0  0
 64143  1  0  0  0
 65144  1  0  0  0
 68 81  1  0  0  0
 71 74  2  0  0  0
 71 75  1  0  0  0
 71145  1  0  0  0
 72 74  1  0  0  0
 72 76  2  0  0  0
 72146  1  0  0  0
 73 75  2  0  0  0
 73 76  1  0  0  0
 73147  1  0  0  0
 74 78  1  0  0  0
 75 82  1  0  0  0
 76 85  1  0  0  0
 77 79  1  0  0  0
 77 82  1  0  0  0
 77 84  2  0  0  0
 78 83  1  0  0  0
 78148  1  0  0  0
 78149  1  0  0  0
 79 80  1  0  0  0
 79150  1  0  0  0
 79151  1  0  0  0
 80 81  1  0  0  0
 80152  1  0  0  0
 80153  1  0  0  0
 81154  1  0  0  0
 81155  1  0  0  0
 82156  1  0  0  0
 83157  1  0  0  0
M  ISO  4   1 100  68 101  81 101  83 100
M  END
> <chiral flag>
0

> <version>
0

> <s_m_source_file>
/data/baiqing/PycharmProjects/Reinvent-master-3.2/result/LINK_invent/BTK/process_docking_weight1_custom_product_contain_oxygen_bond_distance_aromatic_linkinvent_7_9_3/rearranged_h_0111.sdf

> <i_m_source_file_index>
51

> <r_mmod_Potential_Energy-OPLS-2005>
12244.91015625

> <r_mmod_Stretch_Energy-OPLS-2005>
5460.3505859375

> <r_mmod_Bend_Energy-OPLS-2005>
1113.17114257812

> <r_mmod_Torsional_Energy-OPLS-2005>
695.621032714844

> <r_mmod_Improper_Torsional_Energy-OPLS-2005>
66.7023315429688

> <r_mmod_Van_der_Waal_Energy-OPLS-2005>
2164.72119140625

> <r_mmod_Electrostatic_Energy-OPLS-2005>
-446.911224365234

> <r_mmod_Solvation_Energy-OPLS-2005>
-238.173095703125

> <b_mmod_Minimization_Converged-OPLS-2005>
0

> <r_mmod_RMS_Derivative-OPLS-2005>
5.28622007369995

$$$$
53
                    3D
 Structure written by MMmdl.
152160  0  0  1  0            999 V2000
  -30.6442  -14.6725   20.5744 C   0  0  0  0  0  0
  -30.4398  -12.4384   19.4654 C   0  0  0  0  0  0
  -29.5122  -12.5460   18.2346 C   0  0  0  0  0  0
  -28.0361  -12.3641   18.6383 C   0  0  0  0  0  0
  -27.6539  -13.2237   19.8721 C   0  0  2  0  0  0
  -28.6930  -13.0676   21.0028 C   0  0  0  0  0  0
  -25.2510  -13.8149   20.5645 C   0  0  0  0  0  0
  -24.1782  -13.0405   20.9110 C   0  0  0  0  0  0
  -24.6395  -11.6891   20.8712 C   0  0  0  0  0  0
  -23.9073  -10.4278   21.0382 C   0  0  0  0  0  0
  -24.3621   -9.4206   21.9171 C   0  0  0  0  0  0
  -23.6295   -8.2246   22.0752 C   0  0  0  0  0  0
  -22.4280   -8.0278   21.3536 C   0  0  0  0  0  0
  -21.9908   -9.0251   20.4637 C   0  0  0  0  0  0
  -22.7240  -10.2126   20.3037 C   0  0  0  0  0  0
  -21.6852   -6.0739   22.5287 C   0  0  0  0  0  0
  -21.4007   -6.5640   23.8219 C   0  0  0  0  0  0
  -21.3663   -5.6791   24.9183 C   0  0  0  0  0  0
  -21.6045   -4.3055   24.7230 C   0  0  0  0  0  0
  -21.8814   -3.8148   23.4352 C   0  0  0  0  0  0
  -21.9187   -4.6968   22.3408 C   0  0  0  0  0  0
  -22.7811  -13.5203   21.1811 C   0  0  0  0  0  0
  -22.1655   -4.2156   21.0984 F   0  0  0  0  0  0
  -21.5636   -3.4534   25.7740 F   0  0  0  0  0  0
  -30.0116  -13.4482   20.4635 N   0  0  0  0  0  0
  -26.2989  -12.9370   20.3360 N   0  0  0  0  0  0
  -25.9339  -11.6514   20.5777 N   0  0  0  0  0  0
  -22.0469  -12.8204   22.0387 N   0  0  0  0  0  0
  -25.4143  -15.1867   20.4152 N   0  0  0  0  0  0
  -31.7065  -14.8940   19.9848 O   0  0  0  0  0  0
  -21.6634   -6.8885   21.4249 O   0  0  0  0  0  0
  -22.3489  -14.5522   20.6694 O   0  0  0  0  0  0
  -24.6280  -31.8568   23.1980 C   0  0  0  0  0  0
  -25.9119  -32.4758   23.8325 C   0  0  1  0  0  0
  -27.2352  -27.2942   20.1172 C   0  0  0  0  0  0
  -25.5931  -33.8561   24.2256 N   0  0  0  0  0  0
  -23.4239  -30.4761   21.5407 C   0  0  2  0  0  0
  -24.8703  -28.9197   20.1107 C   0  0  0  0  0  0
  -22.7496  -29.4598   22.4926 C   0  0  0  0  0  0
  -18.0290  -28.1394   22.8490 C   0  0  0  0  0  0
  -24.1482  -36.7270   23.2643 C   0  0  0  0  0  0
  -25.9649  -30.7777   21.3721 C   0  0  0  0  0  0
  -26.0369  -29.4010   20.7162 C   0  0  0  0  0  0
  -27.2161  -28.5983   20.7100 C   0  0  0  0  0  0
  -26.0411  -26.8605   19.4985 C   0  0  0  0  0  0
  -24.8753  -27.6559   19.4949 C   0  0  0  0  0  0
  -23.6398  -29.8038   20.1577 C   0  0  0  0  0  0
  -25.4116  -36.3073   24.0328 C   0  0  1  0  0  0
  -20.5890  -28.3697   23.1277 C   0  0  2  0  0  0
  -20.6773  -26.9416   22.5415 C   0  0  0  0  0  0
  -19.5748  -26.6389   21.5217 C   0  0  0  0  0  0
  -18.1928  -26.7938   22.1628 C   0  0  0  0  0  0
  -19.1545  -28.8863   23.2874 C   0  0  0  0  0  0
  -18.9468  -30.1461   23.8896 C   0  0  0  0  0  0
  -17.6470  -30.6595   24.0564 C   0  0  0  0  0  0
  -25.9060  -34.9443   23.5095 C   0  0  0  0  0  0
  -16.5358  -29.9093   23.6334 C   0  0  0  0  0  0
  -16.7275  -28.6507   23.0358 C   0  0  0  0  0  0
  -26.4500  -31.6590   25.0717 C   0  0  0  0  0  0
  -25.3728  -31.3730   26.1443 C   0  0  0  0  0  0
  -27.0353  -30.3017   24.6189 C   0  0  0  0  0  0
  -27.6061  -32.4333   25.7482 C   0  0  0  0  0  0
  -27.5576  -37.1792   24.8474 C   0  0  0  0  0  0
  -21.4208  -29.3037   22.3669 N   0  0  0  0  0  0
  -26.4289  -37.3774   23.9417 N   0  0  0  0  0  0
  -24.6908  -31.0556   22.0932 N   0  0  0  0  0  0
  -23.4204  -28.8157   23.3029 O   0  0  0  0  0  0
  -28.3850  -26.4842   20.1871 O   0  0  0  0  0  0
  -26.5635  -34.8919   22.4668 O   0  0  0  0  0  0
  -23.5441  -32.1381   23.7299 O   0  0  0  0  0  0
  -30.4716  -18.1894   20.5010 C   0  0  0  0  0  0
  -29.6515  -17.1988   21.1239 C   0  0  0  0  0  0
  -28.3902  -17.7455   21.4603 C   0  0  0  0  0  0
  -28.9059  -19.8973   20.7644 C   0  0  0  0  0  0
  -30.0790  -15.7624   21.5595 C   0  0  0  0  0  0
  -28.4057  -23.8029   20.5609 C   0  0  0  0  0  0
  -28.5102  -25.1071   19.6272 C   0  0  0  0  0  0
  -29.0038  -22.3732   20.0842 C   0  0  0  0  0  0
  -30.1143  -19.5183   20.3292 N   0  0  0  0  0  0
  -28.0397  -19.0400   21.2982 N   0  0  0  0  0  0
  -29.9941  -15.4426   22.7885 N   0  0  0  0  0  0
  -27.3828  -16.9873   22.0421 N   0  0  0  0  0  0
  -28.4705  -21.2184   20.8259 O   0  0  0  0  0  0
  -31.4802  -12.5710   19.1635 H   0  0  0  0  0  0
  -30.3904  -11.4373   19.8972 H   0  0  0  0  0  0
  -29.7924  -11.8064   17.4833 H   0  0  0  0  0  0
  -29.6441  -13.5222   17.7665 H   0  0  0  0  0  0
  -27.8810  -11.3086   18.8632 H   0  0  0  0  0  0
  -27.3829  -12.5957   17.7965 H   0  0  0  0  0  0
  -27.6742  -14.2643   19.5474 H   0  0  0  0  0  0
  -28.7186  -12.0356   21.3557 H   0  0  0  0  0  0
  -28.3929  -13.6553   21.8684 H   0  0  0  0  0  0
  -25.2767   -9.5696   22.4744 H   0  0  0  0  0  0
  -24.0006   -7.4645   22.7472 H   0  0  0  0  0  0
  -21.0835   -8.8767   19.8949 H   0  0  0  0  0  0
  -22.3692  -10.9661   19.6143 H   0  0  0  0  0  0
  -21.1986   -7.6145   23.9732 H   0  0  0  0  0  0
  -21.1493   -6.0515   25.9090 H   0  0  0  0  0  0
  -22.0587   -2.7611   23.2845 H   0  0  0  0  0  0
  -22.4075  -11.9857   22.4754 H   0  0  0  0  0  0
  -21.1097  -13.1248   22.2598 H   0  0  0  0  0  0
  -24.6582  -15.8210   20.6466 H   0  0  0  0  0  0
  -26.3190  -15.6434   20.4539 H   0  0  0  0  0  0
  -26.7187  -32.5414   23.1068 H   0  0  0  0  0  0
  -25.0088  -33.9695   25.0410 H   0  0  0  0  0  0
  -22.7185  -31.2966   21.3932 H   0  0  0  0  0  0
  -23.3752  -35.9595   23.3323 H   0  0  0  0  0  0
  -24.3569  -36.8885   22.2056 H   0  0  0  0  0  0
  -23.7224  -37.6470   23.6651 H   0  0  0  0  0  0
  -26.1048  -31.5386   20.6030 H   0  0  0  0  0  0
  -26.8427  -30.8256   22.0048 H   0  0  0  0  0  0
  -28.1122  -28.9647   21.1913 H   0  0  0  0  0  0
  -25.9747  -25.8889   19.0339 H   0  0  0  0  0  0
  -23.9789  -27.2771   19.0224 H   0  0  0  0  0  0
  -23.7633  -30.5773   19.3989 H   0  0  0  0  0  0
  -22.7599  -29.2331   19.8545 H   0  0  0  0  0  0
  -25.1295  -36.1925   25.0818 H   0  0  0  0  0  0
  -20.9977  -28.3275   24.1400 H   0  0  0  0  0  0
  -20.5675  -26.2311   23.3623 H   0  0  0  0  0  0
  -21.6642  -26.7444   22.1210 H   0  0  0  0  0  0
  -19.6911  -25.6298   21.1251 H   0  0  0  0  0  0
  -19.6686  -27.3197   20.6744 H   0  0  0  0  0  0
  -17.4201  -26.6690   21.4024 H   0  0  0  0  0  0
  -18.0318  -26.0077   22.9021 H   0  0  0  0  0  0
  -19.7939  -30.7269   24.2278 H   0  0  0  0  0  0
  -17.5021  -31.6275   24.5164 H   0  0  0  0  0  0
  -15.5355  -30.2995   23.7651 H   0  0  0  0  0  0
  -15.8674  -28.0814   22.7093 H   0  0  0  0  0  0
  -24.5901  -30.7086   25.7758 H   0  0  0  0  0  0
  -24.8917  -32.2898   26.4863 H   0  0  0  0  0  0
  -25.8049  -30.8907   27.0223 H   0  0  0  0  0  0
  -26.2933  -29.6764   24.1211 H   0  0  0  0  0  0
  -27.4059  -29.7275   25.4692 H   0  0  0  0  0  0
  -27.8795  -30.4316   23.9414 H   0  0  0  0  0  0
  -27.2678  -33.3639   26.2045 H   0  0  0  0  0  0
  -28.3864  -32.6896   25.0302 H   0  0  0  0  0  0
  -28.0732  -31.8476   26.5412 H   0  0  0  0  0  0
  -28.2603  -38.0078   24.7517 H   0  0  0  0  0  0
  -28.1062  -36.2616   24.6303 H   0  0  0  0  0  0
  -27.2298  -37.1444   25.8877 H   0  0  0  0  0  0
  -20.9408  -29.8742   21.6851 H   0  0  0  0  0  0
  -26.0172  -38.2850   24.1420 H   0  0  0  0  0  0
  -31.4775  -17.9386   20.1990 H   0  0  0  0  0  0
  -27.3495  -23.6643   20.7906 H   0  0  0  0  0  0
  -28.8720  -24.0418   21.5168 H   0  0  0  0  0  0
  -27.8775  -24.9804   18.7502 H   0  0  0  0  0  0
  -29.5186  -25.0932   19.2118 H   0  0  0  0  0  0
  -30.0923  -22.3837   20.1526 H   0  0  0  0  0  0
  -28.7634  -22.2197   19.0320 H   0  0  0  0  0  0
  -29.6563  -16.1869   23.3867 H   0  0  0  0  0  0
  -27.6409  -16.1275   22.5093 H   0  0  0  0  0  0
  -26.6305  -17.4883   22.4948 H   0  0  0  0  0  0
  1 25  1  0  0  0
  1 30  2  0  0  0
  1 75  1  0  0  0
  2  3  1  0  0  0
  2 25  1  0  0  0
  2 84  1  0  0  0
  2 85  1  0  0  0
  3  4  1  0  0  0
  3 86  1  0  0  0
  3 87  1  0  0  0
  4  5  1  0  0  0
  4 88  1  0  0  0
  4 89  1  0  0  0
  5  6  1  0  0  0
  5 26  1  0  0  0
  5 90  1  0  0  0
  6 25  1  0  0  0
  6 91  1  0  0  0
  6 92  1  0  0  0
  7  8  2  0  0  0
  7 26  1  0  0  0
  7 29  1  0  0  0
  8  9  1  0  0  0
  8 22  1  0  0  0
  9 10  1  0  0  0
  9 27  2  0  0  0
 10 11  2  0  0  0
 10 15  1  0  0  0
 11 12  1  0  0  0
 11 93  1  0  0  0
 12 13  2  0  0  0
 12 94  1  0  0  0
 13 14  1  0  0  0
 13 31  1  0  0  0
 14 15  2  0  0  0
 14 95  1  0  0  0
 15 96  1  0  0  0
 16 17  2  0  0  0
 16 21  1  0  0  0
 16 31  1  0  0  0
 17 18  1  0  0  0
 17 97  1  0  0  0
 18 19  2  0  0  0
 18 98  1  0  0  0
 19 20  1  0  0  0
 19 24  1  0  0  0
 20 21  2  0  0  0
 20 99  1  0  0  0
 21 23  1  0  0  0
 22 28  1  0  0  0
 22 32  2  0  0  0
 26 27  1  0  0  0
 28100  1  0  0  0
 28101  1  0  0  0
 29102  1  0  0  0
 29103  1  0  0  0
 33 34  1  0  0  0
 33 66  1  0  0  0
 33 70  2  0  0  0
 34 36  1  0  0  0
 34 59  1  0  0  0
 34104  1  0  0  0
 35 44  2  0  0  0
 35 45  1  0  0  0
 35 68  1  0  0  0
 36 56  1  0  0  0
 36105  1  0  0  0
 37 39  1  0  0  0
 37 47  1  0  0  0
 37 66  1  0  0  0
 37106  1  0  0  0
 38 43  2  0  0  0
 38 46  1  0  0  0
 38 47  1  0  0  0
 39 64  1  0  0  0
 39 67  2  0  0  0
 40 52  1  0  0  0
 40 53  2  0  0  0
 40 58  1  0  0  0
 41107  1  0  0  0
 41108  1  0  0  0
 41109  1  0  0  0
 41 48  1  0  0  0
 42 43  1  0  0  0
 42 66  1  0  0  0
 42110  1  0  0  0
 42111  1  0  0  0
 43 44  1  0  0  0
 44112  1  0  0  0
 45 46  2  0  0  0
 45113  1  0  0  0
 46114  1  0  0  0
 47115  1  0  0  0
 47116  1  0  0  0
 48 56  1  0  0  0
 48 65  1  0  0  0
 48117  1  0  0  0
 49 50  1  0  0  0
 49 53  1  0  0  0
 49 64  1  0  0  0
 49118  1  0  0  0
 50 51  1  0  0  0
 50119  1  0  0  0
 50120  1  0  0  0
 51 52  1  0  0  0
 51121  1  0  0  0
 51122  1  0  0  0
 52123  1  0  0  0
 52124  1  0  0  0
 53 54  1  0  0  0
 54 55  2  0  0  0
 54125  1  0  0  0
 55 57  1  0  0  0
 55126  1  0  0  0
 56 69  2  0  0  0
 57 58  2  0  0  0
 57127  1  0  0  0
 58128  1  0  0  0
 59 60  1  0  0  0
 59 61  1  0  0  0
 59 62  1  0  0  0
 60129  1  0  0  0
 60130  1  0  0  0
 60131  1  0  0  0
 61132  1  0  0  0
 61133  1  0  0  0
 61134  1  0  0  0
 62135  1  0  0  0
 62136  1  0  0  0
 62137  1  0  0  0
 63 65  1  0  0  0
 63138  1  0  0  0
 63139  1  0  0  0
 63140  1  0  0  0
 64141  1  0  0  0
 65142  1  0  0  0
 68 77  1  0  0  0
 71 72  2  0  0  0
 71 79  1  0  0  0
 71143  1  0  0  0
 72 73  1  0  0  0
 72 75  1  0  0  0
 73 80  2  0  0  0
 73 82  1  0  0  0
 74 79  2  0  0  0
 74 80  1  0  0  0
 74 83  1  0  0  0
 75 81  2  0  0  0
 76 77  1  0  0  0
 76 78  1  0  0  0
 76144  1  0  0  0
 76145  1  0  0  0
 77146  1  0  0  0
 77147  1  0  0  0
 78 83  1  0  0  0
 78148  1  0  0  0
 78149  1  0  0  0
 81150  1  0  0  0
 82151  1  0  0  0
 82152  1  0  0  0
M  ISO  4   1 100  68 101  75 100  77 101
M  END
> <chiral flag>
0

> <version>
0

> <s_m_source_file>
/data/baiqing/PycharmProjects/Reinvent-master-3.2/result/LINK_invent/BTK/process_docking_weight1_custom_product_contain_oxygen_bond_distance_aromatic_linkinvent_7_9_3/rearranged_h_0111.sdf

> <i_m_source_file_index>
52

> <r_mmod_Potential_Energy-OPLS-2005>
-210.619476318359

> <r_mmod_Stretch_Energy-OPLS-2005>
106.444480895996

> <r_mmod_Bend_Energy-OPLS-2005>
206.407806396484

> <r_mmod_Torsional_Energy-OPLS-2005>
225.169448852539

> <r_mmod_Improper_Torsional_Energy-OPLS-2005>
8.29187393188477

> <r_mmod_Van_der_Waal_Energy-OPLS-2005>
145.852844238281

> <r_mmod_Electrostatic_Energy-OPLS-2005>
-745.630065917969

> <r_mmod_Solvation_Energy-OPLS-2005>
-215.209228515625

> <b_mmod_Minimization_Converged-OPLS-2005>
0

> <r_mmod_RMS_Derivative-OPLS-2005>
1.49397432804108

$$$$
54
                    3D
 Structure written by MMmdl.
160168  0  0  1  0            999 V2000
  -30.0052  -16.4320   20.2577 C   0  0  0  0  0  0
  -30.3420  -13.6921   19.5253 C   0  0  0  0  0  0
  -29.5694  -12.8940   18.4003 C   0  0  0  0  0  0
  -28.2176  -12.3633   18.8850 C   0  0  0  0  0  0
  -27.5804  -13.4046   19.8179 C   0  0  2  0  0  0
  -28.5403  -14.0543   20.8772 C   0  0  0  0  0  0
  -25.2220  -13.8444   20.5943 C   0  0  0  0  0  0
  -24.1690  -13.0462   20.9342 C   0  0  0  0  0  0
  -24.6535  -11.7019   20.8772 C   0  0  0  0  0  0
  -23.9237  -10.4318   21.0368 C   0  0  0  0  0  0
  -24.3732   -9.4228   21.9177 C   0  0  0  0  0  0
  -23.6366   -8.2278   22.0758 C   0  0  0  0  0  0
  -22.4350   -8.0313   21.3545 C   0  0  0  0  0  0
  -22.0014   -9.0294   20.4644 C   0  0  0  0  0  0
  -22.7377  -10.2157   20.3039 C   0  0  0  0  0  0
  -21.6867   -6.0770   22.5276 C   0  0  0  0  0  0
  -21.4032   -6.5663   23.8214 C   0  0  0  0  0  0
  -21.3665   -5.6805   24.9167 C   0  0  0  0  0  0
  -21.6036   -4.3068   24.7213 C   0  0  0  0  0  0
  -21.8815   -3.8172   23.4331 C   0  0  0  0  0  0
  -21.9206   -4.6995   22.3395 C   0  0  0  0  0  0
  -22.7671  -13.5102   21.1916 C   0  0  0  0  0  0
  -22.1668   -4.2171   21.0976 F   0  0  0  0  0  0
  -21.5627   -3.4550   25.7734 F   0  0  0  0  0  0
  -29.5703  -14.9256   20.1750 N   0  0  0  0  0  0
  -26.2823  -12.9985   20.3455 N   0  0  0  0  0  0
  -25.9530  -11.6935   20.5699 N   0  0  0  0  0  0
  -22.0362  -12.8074   22.0481 N   0  0  0  0  0  0
  -25.3652  -15.2198   20.4365 N   0  0  0  0  0  0
  -31.2510  -16.2243   20.1706 O   0  0  0  0  0  0
  -21.6672   -6.8932   21.4251 O   0  0  0  0  0  0
  -22.3345  -14.5383   20.6726 O   0  0  0  0  0  0
  -24.7359  -31.7343   23.1130 C   0  0  0  0  0  0
  -25.9685  -32.4140   23.7855 C   0  0  1  0  0  0
  -27.2256  -26.1294   20.2222 C   0  0  0  0  0  0
  -25.6045  -33.8004   24.1683 N   0  0  0  0  0  0
  -23.5882  -30.3142   21.4783 C   0  0  2  0  0  0
  -25.0608  -28.5624   20.1145 C   0  0  0  0  0  0
  -22.7993  -29.3952   22.4552 C   0  0  0  0  0  0
  -18.0390  -28.1454   22.8417 C   0  0  0  0  0  0
  -24.1504  -36.7002   23.2662 C   0  0  0  0  0  0
  -26.1857  -30.2615   21.4854 C   0  0  0  0  0  0
  -26.2403  -28.7674   20.8389 C   0  0  0  0  0  0
  -27.2654  -27.5874   20.8830 C   0  0  0  0  0  0
  -26.0876  -26.3632   19.3529 C   0  0  0  0  0  0
  -25.0642  -27.3908   19.3391 C   0  0  0  0  0  0
  -23.8757  -29.5769   20.1296 C   0  0  0  0  0  0
  -25.4174  -36.2702   24.0242 C   0  0  1  0  0  0
  -20.6035  -28.3828   23.1036 C   0  0  2  0  0  0
  -20.6815  -26.9425   22.5429 C   0  0  0  0  0  0
  -19.5825  -26.6339   21.5223 C   0  0  0  0  0  0
  -18.1997  -26.7975   22.1583 C   0  0  0  0  0  0
  -19.1660  -28.8985   23.2697 C   0  0  0  0  0  0
  -18.9548  -30.1547   23.8779 C   0  0  0  0  0  0
  -17.6529  -30.6607   24.0548 C   0  0  0  0  0  0
  -25.9188  -34.9105   23.4845 C   0  0  0  0  0  0
  -16.5424  -29.9079   23.6356 C   0  0  0  0  0  0
  -16.7364  -28.6513   23.0358 C   0  0  0  0  0  0
  -26.4705  -31.6397   25.0687 C   0  0  0  0  0  0
  -25.3627  -31.3850   26.1178 C   0  0  0  0  0  0
  -27.0726  -30.2677   24.7018 C   0  0  0  0  0  0
  -27.6059  -32.4364   25.7523 C   0  0  0  0  0  0
  -27.5550  -37.1649   24.8471 C   0  0  0  0  0  0
  -21.4588  -29.2954   22.3271 N   0  0  0  0  0  0
  -26.4257  -37.3520   23.9411 N   0  0  0  0  0  0
  -24.8669  -30.8162   22.0762 N   0  0  0  0  0  0
  -23.4151  -28.7668   23.3182 O   0  0  0  0  0  0
  -27.8637  -24.4671   20.3277 O   0  0  0  0  0  0
  -26.5888  -34.8778   22.4509 O   0  0  0  0  0  0
  -23.6252  -32.0720   23.5678 O   0  0  0  0  0  0
  -27.3430  -22.3214   19.4472 C   0  0  0  0  0  0
  -27.7802  -23.9221   22.3931 C   0  0  0  0  0  0
  -28.6417  -21.5964   20.3454 C   0  0  0  0  0  0
  -26.1811  -24.2194   21.6076 C   0  0  0  0  0  0
  -26.0269  -23.3970   19.9826 C   0  0  0  0  0  0
  -28.9255  -22.7878   21.6061 C   0  0  0  0  0  0
  -24.6684  -23.3491   22.8257 C   0  0  0  0  0  0
  -29.4228  -19.7450   20.2082 C   0  0  0  0  0  0
  -23.7045  -24.0309   19.6540 C   0  0  0  0  0  0
  -30.5858  -21.4886   22.7460 C   0  0  0  0  0  0
  -25.2491  -22.0026   22.3614 C   0  0  0  0  0  0
  -26.7103  -22.0470   21.6771 C   0  0  0  0  0  0
  -25.0939  -24.4739   22.4136 N   0  0  0  0  0  0
  -29.2633  -18.0144   20.2871 N   0  0  0  0  0  0
  -30.6105  -19.9555   19.9580 O   0  0  0  0  0  0
  -24.8955  -23.4035   19.1876 O   0  0  0  0  0  0
  -30.0847  -22.7509   22.3455 O   0  0  0  0  0  0
  -31.2540  -14.0664   19.0603 H   0  0  0  0  0  0
  -30.7109  -13.0103   20.2921 H   0  0  0  0  0  0
  -30.1755  -12.0714   18.0154 H   0  0  0  0  0  0
  -29.3973  -13.5667   17.5594 H   0  0  0  0  0  0
  -28.3799  -11.4371   19.4369 H   0  0  0  0  0  0
  -27.5617  -12.1184   18.0473 H   0  0  0  0  0  0
  -27.3444  -14.2152   19.1268 H   0  0  0  0  0  0
  -28.9863  -13.3065   21.5370 H   0  0  0  0  0  0
  -27.9703  -14.7094   21.5378 H   0  0  0  0  0  0
  -25.2865   -9.5678   22.4775 H   0  0  0  0  0  0
  -24.0030   -7.4684   22.7510 H   0  0  0  0  0  0
  -21.0931   -8.8846   19.8968 H   0  0  0  0  0  0
  -22.3841  -10.9703   19.6149 H   0  0  0  0  0  0
  -21.2026   -7.6169   23.9715 H   0  0  0  0  0  0
  -21.1486   -6.0542   25.9067 H   0  0  0  0  0  0
  -22.0590   -2.7630   23.2826 H   0  0  0  0  0  0
  -22.4024  -11.9747   22.4888 H   0  0  0  0  0  0
  -21.0957  -13.1043   22.2645 H   0  0  0  0  0  0
  -24.5847  -15.8569   20.5448 H   0  0  0  0  0  0
  -26.2010  -15.6737   20.0948 H   0  0  0  0  0  0
  -26.7826  -32.4492   23.0594 H   0  0  0  0  0  0
  -25.0012  -33.8977   24.9718 H   0  0  0  0  0  0
  -22.9488  -31.1694   21.2511 H   0  0  0  0  0  0
  -23.3796  -35.9297   23.3217 H   0  0  0  0  0  0
  -24.3559  -36.8799   22.2098 H   0  0  0  0  0  0
  -23.7236  -37.6120   23.6851 H   0  0  0  0  0  0
  -26.4464  -30.9464   20.6769 H   0  0  0  0  0  0
  -27.0193  -30.3460   22.1671 H   0  0  0  0  0  0
  -28.0880  -27.7425   21.5664 H   0  0  0  0  0  0
  -25.8832  -25.5656   18.6578 H   0  0  0  0  0  0
  -24.2286  -27.2392   18.6705 H   0  0  0  0  0  0
  -24.0855  -30.3264   19.3664 H   0  0  0  0  0  0
  -22.9737  -29.0667   19.7897 H   0  0  0  0  0  0
  -25.1404  -36.1390   25.0726 H   0  0  0  0  0  0
  -21.0116  -28.3513   24.1164 H   0  0  0  0  0  0
  -20.5597  -26.2480   23.3750 H   0  0  0  0  0  0
  -21.6683  -26.7259   22.1319 H   0  0  0  0  0  0
  -19.6963  -25.6219   21.1336 H   0  0  0  0  0  0
  -19.6805  -27.3078   20.6709 H   0  0  0  0  0  0
  -17.4277  -26.6760   21.3962 H   0  0  0  0  0  0
  -18.0328  -26.0139   22.8996 H   0  0  0  0  0  0
  -19.8022  -30.7396   24.2092 H   0  0  0  0  0  0
  -17.5061  -31.6258   24.5195 H   0  0  0  0  0  0
  -15.5418  -30.2934   23.7740 H   0  0  0  0  0  0
  -15.8768  -28.0795   22.7118 H   0  0  0  0  0  0
  -24.5920  -30.7097   25.7452 H   0  0  0  0  0  0
  -24.8689  -32.3088   26.4190 H   0  0  0  0  0  0
  -25.7661  -30.9282   27.0224 H   0  0  0  0  0  0
  -26.3555  -29.6100   24.2104 H   0  0  0  0  0  0
  -27.4003  -29.7350   25.5957 H   0  0  0  0  0  0
  -27.9593  -30.3665   24.0753 H   0  0  0  0  0  0
  -27.2593  -33.3836   26.1664 H   0  0  0  0  0  0
  -28.4092  -32.6637   25.0504 H   0  0  0  0  0  0
  -28.0489  -31.8778   26.5780 H   0  0  0  0  0  0
  -28.2490  -38.0011   24.7520 H   0  0  0  0  0  0
  -28.1115  -36.2515   24.6296 H   0  0  0  0  0  0
  -27.2249  -37.1265   25.8868 H   0  0  0  0  0  0
  -21.0033  -29.8515   21.6166 H   0  0  0  0  0  0
  -26.0022  -38.2542   24.1427 H   0  0  0  0  0  0
  -27.0987  -21.7881   18.5415 H   0  0  0  0  0  0
  -28.0161  -24.3714   23.3455 H   0  0  0  0  0  0
  -23.8217  -23.2719   23.5126 H   0  0  0  0  0  0
  -23.0444  -24.2252   18.8067 H   0  0  0  0  0  0
  -23.8695  -24.9872   20.1447 H   0  0  0  0  0  0
  -23.1570  -23.3798   20.3351 H   0  0  0  0  0  0
  -31.3743  -21.1519   22.0734 H   0  0  0  0  0  0
  -29.8079  -20.7287   22.8227 H   0  0  0  0  0  0
  -31.0300  -21.5949   23.7361 H   0  0  0  0  0  0
  -24.5311  -21.5739   21.6571 H   0  0  0  0  0  0
  -25.2516  -21.3198   23.2112 H   0  0  0  0  0  0
  -26.5161  -21.0996   21.1465 H   0  0  0  0  0  0
  -27.2429  -21.6030   22.5365 H   0  0  0  0  0  0
  -28.2767  -17.8422   20.4103 H   0  0  0  0  0  0
  1 25  1  0  0  0
  1 30  2  0  0  0
  1 84  1  0  0  0
  2  3  1  0  0  0
  2 25  1  0  0  0
  2 88  1  0  0  0
  2 89  1  0  0  0
  3  4  1  0  0  0
  3 90  1  0  0  0
  3 91  1  0  0  0
  4  5  1  0  0  0
  4 92  1  0  0  0
  4 93  1  0  0  0
  5  6  1  0  0  0
  5 26  1  0  0  0
  5 94  1  0  0  0
  6 25  1  0  0  0
  6 95  1  0  0  0
  6 96  1  0  0  0
  7  8  2  0  0  0
  7 26  1  0  0  0
  7 29  1  0  0  0
  8  9  1  0  0  0
  8 22  1  0  0  0
  9 10  1  0  0  0
  9 27  2  0  0  0
 10 11  2  0  0  0
 10 15  1  0  0  0
 11 12  1  0  0  0
 11 97  1  0  0  0
 12 13  2  0  0  0
 12 98  1  0  0  0
 13 14  1  0  0  0
 13 31  1  0  0  0
 14 15  2  0  0  0
 14 99  1  0  0  0
 15100  1  0  0  0
 16 17  2  0  0  0
 16 21  1  0  0  0
 16 31  1  0  0  0
 17 18  1  0  0  0
 17101  1  0  0  0
 18 19  2  0  0  0
 18102  1  0  0  0
 19 20  1  0  0  0
 19 24  1  0  0  0
 20 21  2  0  0  0
 20103  1  0  0  0
 21 23  1  0  0  0
 22 28  1  0  0  0
 22 32  2  0  0  0
 26 27  1  0  0  0
 28104  1  0  0  0
 28105  1  0  0  0
 29106  1  0  0  0
 29107  1  0  0  0
 33 34  1  0  0  0
 33 66  1  0  0  0
 33 70  2  0  0  0
 34 36  1  0  0  0
 34 59  1  0  0  0
 34108  1  0  0  0
 35 44  2  0  0  0
 35 45  1  0  0  0
 35 68  1  0  0  0
 36 56  1  0  0  0
 36109  1  0  0  0
 37 39  1  0  0  0
 37 47  1  0  0  0
 37 66  1  0  0  0
 37110  1  0  0  0
 38 43  2  0  0  0
 38 46  1  0  0  0
 38 47  1  0  0  0
 39 64  1  0  0  0
 39 67  2  0  0  0
 40 52  1  0  0  0
 40 53  2  0  0  0
 40 58  1  0  0  0
 41111  1  0  0  0
 41112  1  0  0  0
 41113  1  0  0  0
 41 48  1  0  0  0
 42 43  1  0  0  0
 42 66  1  0  0  0
 42114  1  0  0  0
 42115  1  0  0  0
 43 44  1  0  0  0
 44116  1  0  0  0
 45 46  2  0  0  0
 45117  1  0  0  0
 46118  1  0  0  0
 47119  1  0  0  0
 47120  1  0  0  0
 48 56  1  0  0  0
 48 65  1  0  0  0
 48121  1  0  0  0
 49 50  1  0  0  0
 49 53  1  0  0  0
 49 64  1  0  0  0
 49122  1  0  0  0
 50 51  1  0  0  0
 50123  1  0  0  0
 50124  1  0  0  0
 51 52  1  0  0  0
 51125  1  0  0  0
 51126  1  0  0  0
 52127  1  0  0  0
 52128  1  0  0  0
 53 54  1  0  0  0
 54 55  2  0  0  0
 54129  1  0  0  0
 55 57  1  0  0  0
 55130  1  0  0  0
 56 69  2  0  0  0
 57 58  2  0  0  0
 57131  1  0  0  0
 58132  1  0  0  0
 59 60  1  0  0  0
 59 61  1  0  0  0
 59 62  1  0  0  0
 60133  1  0  0  0
 60134  1  0  0  0
 60135  1  0  0  0
 61136  1  0  0  0
 61137  1  0  0  0
 61138  1  0  0  0
 62139  1  0  0  0
 62140  1  0  0  0
 62141  1  0  0  0
 63 65  1  0  0  0
 63142  1  0  0  0
 63143  1  0  0  0
 63144  1  0  0  0
 64145  1  0  0  0
 65146  1  0  0  0
 68 82  1  0  0  0
 71 73  2  0  0  0
 71 75  1  0  0  0
 71147  1  0  0  0
 72 74  1  0  0  0
 72 76  2  0  0  0
 72148  1  0  0  0
 73 76  1  0  0  0
 73 78  1  0  0  0
 74 75  2  0  0  0
 74 83  1  0  0  0
 75 86  1  0  0  0
 76 87  1  0  0  0
 77 81  1  0  0  0
 77 83  2  0  0  0
 77149  1  0  0  0
 78 84  1  0  0  0
 78 85  2  0  0  0
 79 86  1  0  0  0
 79150  1  0  0  0
 79151  1  0  0  0
 79152  1  0  0  0
 80 87  1  0  0  0
 80153  1  0  0  0
 80154  1  0  0  0
 80155  1  0  0  0
 81 82  1  0  0  0
 81156  1  0  0  0
 81157  1  0  0  0
 82158  1  0  0  0
 82159  1  0  0  0
 84160  1  0  0  0
M  ISO  4   1 100  68 101  82 101  84 100
M  END
> <chiral flag>
0

> <version>
0

> <s_m_source_file>
/data/baiqing/PycharmProjects/Reinvent-master-3.2/result/LINK_invent/BTK/process_docking_weight1_custom_product_contain_oxygen_bond_distance_aromatic_linkinvent_7_9_3/rearranged_h_0111.sdf

> <i_m_source_file_index>
53

> <r_mmod_Potential_Energy-OPLS-2005>
12338.3525390625

> <r_mmod_Stretch_Energy-OPLS-2005>
6995.77099609375

> <r_mmod_Bend_Energy-OPLS-2005>
950.011352539062

> <r_mmod_Torsional_Energy-OPLS-2005>
434.478576660156

> <r_mmod_Improper_Torsional_Energy-OPLS-2005>
18.7985725402832

> <r_mmod_Van_der_Waal_Energy-OPLS-2005>
2014.59875488281

> <r_mmod_Electrostatic_Energy-OPLS-2005>
-397.070220947266

> <r_mmod_Solvation_Energy-OPLS-2005>
-276.915374755859

> <b_mmod_Minimization_Converged-OPLS-2005>
0

> <r_mmod_RMS_Derivative-OPLS-2005>
4.63110589981079

$$$$
55
                    3D
 Structure written by MMmdl.
164172  0  0  1  0            999 V2000
  -30.6835  -14.5387   20.5483 C   0  0  0  0  0  0
  -30.4246  -12.3530   19.4229 C   0  0  0  0  0  0
  -29.4847  -12.4862   18.2070 C   0  0  0  0  0  0
  -28.0126  -12.3283   18.6319 C   0  0  0  0  0  0
  -27.6461  -13.2070   19.8568 C   0  0  2  0  0  0
  -28.6899  -13.0640   20.9858 C   0  0  0  0  0  0
  -25.2534  -13.8169   20.5673 C   0  0  0  0  0  0
  -24.1802  -13.0449   20.9194 C   0  0  0  0  0  0
  -24.6367  -11.6926   20.8773 C   0  0  0  0  0  0
  -23.9053  -10.4315   21.0439 C   0  0  0  0  0  0
  -24.3619   -9.4226   21.9200 C   0  0  0  0  0  0
  -23.6299   -8.2259   22.0756 C   0  0  0  0  0  0
  -22.4281   -8.0294   21.3545 C   0  0  0  0  0  0
  -21.9925   -9.0274   20.4647 C   0  0  0  0  0  0
  -22.7244  -10.2157   20.3072 C   0  0  0  0  0  0
  -21.6858   -6.0751   22.5287 C   0  0  0  0  0  0
  -21.4001   -6.5663   23.8212 C   0  0  0  0  0  0
  -21.3653   -5.6821   24.9170 C   0  0  0  0  0  0
  -21.6052   -4.3085   24.7229 C   0  0  0  0  0  0
  -21.8809   -3.8168   23.4347 C   0  0  0  0  0  0
  -21.9188   -4.6979   22.3398 C   0  0  0  0  0  0
  -22.7820  -13.5226   21.1875 C   0  0  0  0  0  0
  -22.1664   -4.2165   21.0972 F   0  0  0  0  0  0
  -21.5626   -3.4564   25.7732 F   0  0  0  0  0  0
  -30.0105  -13.3642   20.4125 N   0  0  0  0  0  0
  -26.2939  -12.9337   20.3308 N   0  0  0  0  0  0
  -25.9281  -11.6514   20.5794 N   0  0  0  0  0  0
  -22.0490  -12.8198   22.0451 N   0  0  0  0  0  0
  -25.4248  -15.1882   20.4023 N   0  0  0  0  0  0
  -31.8712  -14.6516   20.2357 O   0  0  0  0  0  0
  -21.6643   -6.8889   21.4248 O   0  0  0  0  0  0
  -22.3519  -14.5559   20.6755 O   0  0  0  0  0  0
  -24.6167  -31.8672   23.2095 C   0  0  0  0  0  0
  -25.9059  -32.4803   23.8406 C   0  0  1  0  0  0
  -27.2290  -27.4032   20.1124 C   0  0  0  0  0  0
  -25.5914  -33.8610   24.2327 N   0  0  0  0  0  0
  -23.4060  -30.4905   21.5523 C   0  0  2  0  0  0
  -24.8504  -28.9442   20.1240 C   0  0  0  0  0  0
  -22.7401  -29.4681   22.5016 C   0  0  0  0  0  0
  -18.0258  -28.1387   22.8473 C   0  0  0  0  0  0
  -24.1488  -36.7321   23.2650 C   0  0  0  0  0  0
  -25.9365  -30.8198   21.3691 C   0  0  0  0  0  0
  -26.0113  -29.4465   20.7265 C   0  0  0  0  0  0
  -27.2035  -28.6823   20.7208 C   0  0  0  0  0  0
  -26.0546  -26.9223   19.5001 C   0  0  0  0  0  0
  -24.8673  -27.6798   19.5113 C   0  0  0  0  0  0
  -23.6151  -29.8186   20.1689 C   0  0  0  0  0  0
  -25.4110  -36.3108   24.0344 C   0  0  1  0  0  0
  -20.5844  -28.3687   23.1303 C   0  0  2  0  0  0
  -20.6767  -26.9428   22.5415 C   0  0  0  0  0  0
  -19.5766  -26.6403   21.5197 C   0  0  0  0  0  0
  -18.1935  -26.7931   22.1601 C   0  0  0  0  0  0
  -19.1498  -28.8845   23.2879 C   0  0  0  0  0  0
  -18.9458  -30.1446   23.8905 C   0  0  0  0  0  0
  -17.6466  -30.6603   24.0570 C   0  0  0  0  0  0
  -25.9036  -34.9471   23.5124 C   0  0  0  0  0  0
  -16.5353  -29.9124   23.6328 C   0  0  0  0  0  0
  -16.7242  -28.6531   23.0349 C   0  0  0  0  0  0
  -26.4484  -31.6586   25.0746 C   0  0  0  0  0  0
  -25.3745  -31.3736   26.1499 C   0  0  0  0  0  0
  -27.0322  -30.3013   24.6158 C   0  0  0  0  0  0
  -27.6030  -32.4342   25.7518 C   0  0  0  0  0  0
  -27.5576  -37.1819   24.8459 C   0  0  0  0  0  0
  -21.4126  -29.3048   22.3702 N   0  0  0  0  0  0
  -26.4279  -37.3807   23.9414 N   0  0  0  0  0  0
  -24.6722  -31.0745   22.1011 N   0  0  0  0  0  0
  -23.4135  -28.8250   23.3101 O   0  0  0  0  0  0
  -28.3925  -26.6648   20.0116 O   0  0  0  0  0  0
  -26.5614  -34.8925   22.4696 O   0  0  0  0  0  0
  -23.5363  -32.1443   23.7477 O   0  0  0  0  0  0
  -30.5387  -19.5112   18.2742 C   0  0  0  0  0  0
  -29.9522  -20.6544   18.8316 C   0  0  0  0  0  0
  -30.6509  -18.3063   19.0003 C   0  0  0  0  0  0
  -30.1612  -18.2352   20.3377 C   0  0  0  0  0  0
  -29.4720  -20.6441   20.1580 C   0  0  0  0  0  0
  -29.5645  -19.4182   20.8974 C   0  0  0  0  0  0
  -32.4158  -17.3188   17.5380 C   0  0  0  0  0  0
  -31.3485  -17.1931   18.3459 C   0  0  0  0  0  0
  -28.2675  -24.1725   20.3961 C   0  0  0  0  0  0
  -30.2766  -19.4316   24.1969 C   0  0  0  0  0  0
  -30.4279  -16.9804   21.2367 C   0  0  0  0  0  0
  -28.5975  -25.5867   20.9527 C   0  0  0  0  0  0
  -29.3843  -23.0935   20.4000 C   0  0  0  0  0  0
  -29.5203  -20.2472   23.1460 C   0  0  0  0  0  0
  -29.9348  -15.6273   20.8584 N   0  0  0  0  0  0
  -27.1329  -23.8972   19.9895 O   0  0  0  0  0  0
  -28.8628  -21.7701   20.7061 O   0  0  0  0  0  0
  -29.0324  -19.3354   22.1646 O   0  0  0  0  0  0
  -31.4595  -12.4822   19.1021 H   0  0  0  0  0  0
  -30.3658  -11.3545   19.8601 H   0  0  0  0  0  0
  -29.7321  -11.7343   17.4582 H   0  0  0  0  0  0
  -29.6220  -13.4558   17.7258 H   0  0  0  0  0  0
  -27.8499  -11.2761   18.8708 H   0  0  0  0  0  0
  -27.3485  -12.5515   17.7940 H   0  0  0  0  0  0
  -27.6699  -14.2382   19.5079 H   0  0  0  0  0  0
  -28.6848  -12.0555   21.4014 H   0  0  0  0  0  0
  -28.4408  -13.7264   21.8164 H   0  0  0  0  0  0
  -25.2759   -9.5711   22.4784 H   0  0  0  0  0  0
  -24.0020   -7.4644   22.7470 H   0  0  0  0  0  0
  -21.0863   -8.8789   19.8946 H   0  0  0  0  0  0
  -22.3696  -10.9705   19.6197 H   0  0  0  0  0  0
  -21.1998   -7.6174   23.9707 H   0  0  0  0  0  0
  -21.1487   -6.0557   25.9069 H   0  0  0  0  0  0
  -22.0595   -2.7636   23.2830 H   0  0  0  0  0  0
  -22.4152  -11.9814   22.4742 H   0  0  0  0  0  0
  -21.1114  -13.1193   22.2722 H   0  0  0  0  0  0
  -24.6557  -15.8404   20.5011 H   0  0  0  0  0  0
  -26.2652  -15.6249   20.0447 H   0  0  0  0  0  0
  -26.7147  -32.5512   23.1192 H   0  0  0  0  0  0
  -25.0004  -33.9765   25.0429 H   0  0  0  0  0  0
  -22.6978  -31.3097   21.4126 H   0  0  0  0  0  0
  -23.3720  -35.9676   23.3316 H   0  0  0  0  0  0
  -24.3593  -36.8931   22.2064 H   0  0  0  0  0  0
  -23.7257  -37.6545   23.6649 H   0  0  0  0  0  0
  -26.0460  -31.5789   20.5936 H   0  0  0  0  0  0
  -26.8240  -30.8784   21.9877 H   0  0  0  0  0  0
  -28.1026  -29.0684   21.1784 H   0  0  0  0  0  0
  -26.0577  -25.9660   18.9991 H   0  0  0  0  0  0
  -23.9765  -27.2885   19.0396 H   0  0  0  0  0  0
  -23.7308  -30.5933   19.4097 H   0  0  0  0  0  0
  -22.7344  -29.2472   19.8688 H   0  0  0  0  0  0
  -25.1281  -36.1987   25.0838 H   0  0  0  0  0  0
  -20.9909  -28.3280   24.1434 H   0  0  0  0  0  0
  -20.5685  -26.2312   23.3609 H   0  0  0  0  0  0
  -21.6650  -26.7512   22.1219 H   0  0  0  0  0  0
  -19.6960  -25.6319   21.1239 H   0  0  0  0  0  0
  -19.6712  -27.3196   20.6718 H   0  0  0  0  0  0
  -17.4207  -26.6619   21.4013 H   0  0  0  0  0  0
  -18.0369  -26.0080   22.9011 H   0  0  0  0  0  0
  -19.7946  -30.7237   24.2289 H   0  0  0  0  0  0
  -17.5053  -31.6282   24.5181 H   0  0  0  0  0  0
  -15.5365  -30.3057   23.7664 H   0  0  0  0  0  0
  -15.8627  -28.0879   22.7080 H   0  0  0  0  0  0
  -24.5863  -30.7142   25.7851 H   0  0  0  0  0  0
  -24.9006  -32.2920   26.4979 H   0  0  0  0  0  0
  -25.8092  -30.8879   27.0244 H   0  0  0  0  0  0
  -26.2891  -29.6779   24.1174 H   0  0  0  0  0  0
  -27.4019  -29.7257   25.4659 H   0  0  0  0  0  0
  -27.8757  -30.4300   23.9363 H   0  0  0  0  0  0
  -27.2575  -33.3580   26.2178 H   0  0  0  0  0  0
  -28.3789  -32.7027   25.0330 H   0  0  0  0  0  0
  -28.0759  -31.8444   26.5384 H   0  0  0  0  0  0
  -28.2593  -38.0114   24.7506 H   0  0  0  0  0  0
  -28.1059  -36.2650   24.6256 H   0  0  0  0  0  0
  -27.2302  -37.1457   25.8862 H   0  0  0  0  0  0
  -20.9301  -29.8739   21.6884 H   0  0  0  0  0  0
  -26.0157  -38.2877   24.1429 H   0  0  0  0  0  0
  -30.8990  -19.5648   17.2557 H   0  0  0  0  0  0
  -29.8504  -21.5230   18.1994 H   0  0  0  0  0  0
  -32.8649  -16.4506   17.0764 H   0  0  0  0  0  0
  -32.8600  -18.2810   17.3306 H   0  0  0  0  0  0
  -30.9393  -16.2100   18.4940 H   0  0  0  0  0  0
  -29.6239  -18.6742   24.6293 H   0  0  0  0  0  0
  -30.6382  -20.0659   25.0061 H   0  0  0  0  0  0
  -31.1352  -18.9213   23.7591 H   0  0  0  0  0  0
  -30.0201  -17.1616   22.2300 H   0  0  0  0  0  0
  -31.5072  -16.9357   21.3982 H   0  0  0  0  0  0
  -29.6489  -25.6022   21.2438 H   0  0  0  0  0  0
  -28.0200  -25.7646   21.8612 H   0  0  0  0  0  0
  -30.1303  -23.3611   21.1479 H   0  0  0  0  0  0
  -29.8902  -23.1445   19.4357 H   0  0  0  0  0  0
  -30.1686  -21.0289   22.7508 H   0  0  0  0  0  0
  -28.6672  -20.7440   23.6089 H   0  0  0  0  0  0
  -28.9491  -15.4664   20.9980 H   0  0  0  0  0  0
  1 25  1  0  0  0
  1 30  2  0  0  0
  1 85  1  0  0  0
  2  3  1  0  0  0
  2 25  1  0  0  0
  2 89  1  0  0  0
  2 90  1  0  0  0
  3  4  1  0  0  0
  3 91  1  0  0  0
  3 92  1  0  0  0
  4  5  1  0  0  0
  4 93  1  0  0  0
  4 94  1  0  0  0
  5  6  1  0  0  0
  5 26  1  0  0  0
  5 95  1  0  0  0
  6 25  1  0  0  0
  6 96  1  0  0  0
  6 97  1  0  0  0
  7  8  2  0  0  0
  7 26  1  0  0  0
  7 29  1  0  0  0
  8  9  1  0  0  0
  8 22  1  0  0  0
  9 10  1  0  0  0
  9 27  2  0  0  0
 10 11  2  0  0  0
 10 15  1  0  0  0
 11 12  1  0  0  0
 11 98  1  0  0  0
 12 13  2  0  0  0
 12 99  1  0  0  0
 13 14  1  0  0  0
 13 31  1  0  0  0
 14 15  2  0  0  0
 14100  1  0  0  0
 15101  1  0  0  0
 16 17  2  0  0  0
 16 21  1  0  0  0
 16 31  1  0  0  0
 17 18  1  0  0  0
 17102  1  0  0  0
 18 19  2  0  0  0
 18103  1  0  0  0
 19 20  1  0  0  0
 19 24  1  0  0  0
 20 21  2  0  0  0
 20104  1  0  0  0
 21 23  1  0  0  0
 22 28  1  0  0  0
 22 32  2  0  0  0
 26 27  1  0  0  0
 28105  1  0  0  0
 28106  1  0  0  0
 29107  1  0  0  0
 29108  1  0  0  0
 33 34  1  0  0  0
 33 66  1  0  0  0
 33 70  2  0  0  0
 34 36  1  0  0  0
 34 59  1  0  0  0
 34109  1  0  0  0
 35 44  2  0  0  0
 35 45  1  0  0  0
 35 68  1  0  0  0
 36 56  1  0  0  0
 36110  1  0  0  0
 37 39  1  0  0  0
 37 47  1  0  0  0
 37 66  1  0  0  0
 37111  1  0  0  0
 38 43  2  0  0  0
 38 46  1  0  0  0
 38 47  1  0  0  0
 39 64  1  0  0  0
 39 67  2  0  0  0
 40 52  1  0  0  0
 40 53  2  0  0  0
 40 58  1  0  0  0
 41112  1  0  0  0
 41113  1  0  0  0
 41114  1  0  0  0
 41 48  1  0  0  0
 42 43  1  0  0  0
 42 66  1  0  0  0
 42115  1  0  0  0
 42116  1  0  0  0
 43 44  1  0  0  0
 44117  1  0  0  0
 45 46  2  0  0  0
 45118  1  0  0  0
 46119  1  0  0  0
 47120  1  0  0  0
 47121  1  0  0  0
 48 56  1  0  0  0
 48 65  1  0  0  0
 48122  1  0  0  0
 49 50  1  0  0  0
 49 53  1  0  0  0
 49 64  1  0  0  0
 49123  1  0  0  0
 50 51  1  0  0  0
 50124  1  0  0  0
 50125  1  0  0  0
 51 52  1  0  0  0
 51126  1  0  0  0
 51127  1  0  0  0
 52128  1  0  0  0
 52129  1  0  0  0
 53 54  1  0  0  0
 54 55  2  0  0  0
 54130  1  0  0  0
 55 57  1  0  0  0
 55131  1  0  0  0
 56 69  2  0  0  0
 57 58  2  0  0  0
 57132  1  0  0  0
 58133  1  0  0  0
 59 60  1  0  0  0
 59 61  1  0  0  0
 59 62  1  0  0  0
 60134  1  0  0  0
 60135  1  0  0  0
 60136  1  0  0  0
 61137  1  0  0  0
 61138  1  0  0  0
 61139  1  0  0  0
 62140  1  0  0  0
 62141  1  0  0  0
 62142  1  0  0  0
 63 65  1  0  0  0
 63143  1  0  0  0
 63144  1  0  0  0
 63145  1  0  0  0
 64146  1  0  0  0
 65147  1  0  0  0
 68 82  1  0  0  0
 71 72  2  0  0  0
 71 73  1  0  0  0
 71148  1  0  0  0
 72 75  1  0  0  0
 72149  1  0  0  0
 73 74  2  0  0  0
 73 78  1  0  0  0
 74 76  1  0  0  0
 74 81  1  0  0  0
 75 76  2  0  0  0
 75 87  1  0  0  0
 76 88  1  0  0  0
 77 78  2  0  0  0
 77150  1  0  0  0
 77151  1  0  0  0
 78152  1  0  0  0
 79 82  1  0  0  0
 79 83  1  0  0  0
 79 86  2  0  0  0
 80 84  1  0  0  0
 80153  1  0  0  0
 80154  1  0  0  0
 80155  1  0  0  0
 81 85  1  0  0  0
 81156  1  0  0  0
 81157  1  0  0  0
 82158  1  0  0  0
 82159  1  0  0  0
 83 87  1  0  0  0
 83160  1  0  0  0
 83161  1  0  0  0
 84 88  1  0  0  0
 84162  1  0  0  0
 84163  1  0  0  0
 85164  1  0  0  0
M  ISO  4   1 100  68 101  82 101  85 100
M  END
> <chiral flag>
0

> <version>
0

> <s_m_source_file>
/data/baiqing/PycharmProjects/Reinvent-master-3.2/result/LINK_invent/BTK/process_docking_weight1_custom_product_contain_oxygen_bond_distance_aromatic_linkinvent_7_9_3/rearranged_h_0111.sdf

> <i_m_source_file_index>
54

> <r_mmod_Potential_Energy-OPLS-2005>
36.8528633117676

> <r_mmod_Stretch_Energy-OPLS-2005>
53.7505722045898

> <r_mmod_Bend_Energy-OPLS-2005>
119.490447998047

> <r_mmod_Torsional_Energy-OPLS-2005>
291.735015869141

> <r_mmod_Improper_Torsional_Energy-OPLS-2005>
6.04136610031128

> <r_mmod_Van_der_Waal_Energy-OPLS-2005>
148.540267944336

> <r_mmod_Electrostatic_Energy-OPLS-2005>
-376.656921386719

> <r_mmod_Solvation_Energy-OPLS-2005>
-230.401168823242

> <b_mmod_Minimization_Converged-OPLS-2005>
0

> <r_mmod_RMS_Derivative-OPLS-2005>
3.89849877357483

$$$$
56
                    3D
 Structure written by MMmdl.
175184  0  0  1  0            999 V2000
  -30.7229  -14.4242   20.5181 C   0  0  0  0  0  0
  -30.4124  -12.2594   19.4240 C   0  0  0  0  0  0
  -29.4961  -12.4886   18.2042 C   0  0  0  0  0  0
  -28.0138  -12.3637   18.6075 C   0  0  0  0  0  0
  -27.6579  -13.2053   19.8624 C   0  0  2  0  0  0
  -28.6988  -13.0038   20.9848 C   0  0  0  0  0  0
  -25.2570  -13.8125   20.5605 C   0  0  0  0  0  0
  -24.1840  -13.0418   20.9180 C   0  0  0  0  0  0
  -24.6395  -11.6889   20.8742 C   0  0  0  0  0  0
  -23.9052  -10.4279   21.0411 C   0  0  0  0  0  0
  -24.3607   -9.4196   21.9187 C   0  0  0  0  0  0
  -23.6284   -8.2235   22.0759 C   0  0  0  0  0  0
  -22.4271   -8.0274   21.3545 C   0  0  0  0  0  0
  -21.9902   -9.0242   20.4646 C   0  0  0  0  0  0
  -22.7226  -10.2122   20.3055 C   0  0  0  0  0  0
  -21.6852   -6.0729   22.5277 C   0  0  0  0  0  0
  -21.4009   -6.5633   23.8207 C   0  0  0  0  0  0
  -21.3658   -5.6791   24.9168 C   0  0  0  0  0  0
  -21.6048   -4.3055   24.7223 C   0  0  0  0  0  0
  -21.8817   -3.8143   23.4344 C   0  0  0  0  0  0
  -21.9189   -4.6957   22.3400 C   0  0  0  0  0  0
  -22.7865  -13.5237   21.1843 C   0  0  0  0  0  0
  -22.1663   -4.2140   21.0982 F   0  0  0  0  0  0
  -21.5629   -3.4541   25.7738 F   0  0  0  0  0  0
  -30.0424  -13.2534   20.4376 N   0  0  0  0  0  0
  -26.3006  -12.9301   20.3286 N   0  0  0  0  0  0
  -25.9314  -11.6466   20.5742 N   0  0  0  0  0  0
  -22.0494  -12.8240   22.0397 N   0  0  0  0  0  0
  -25.4254  -15.1823   20.3899 N   0  0  0  0  0  0
  -31.9168  -14.5014   20.2115 O   0  0  0  0  0  0
  -21.6640   -6.8871   21.4239 O   0  0  0  0  0  0
  -22.3562  -14.5557   20.6703 O   0  0  0  0  0  0
  -24.6108  -31.8725   23.2136 C   0  0  0  0  0  0
  -25.9044  -32.4827   23.8404 C   0  0  1  0  0  0
  -27.2373  -27.4783   20.0719 C   0  0  0  0  0  0
  -25.5949  -33.8632   24.2328 N   0  0  0  0  0  0
  -23.3916  -30.4964   21.5555 C   0  0  2  0  0  0
  -24.8351  -28.9650   20.1216 C   0  0  0  0  0  0
  -22.7354  -29.4698   22.5046 C   0  0  0  0  0  0
  -18.0263  -28.1384   22.8503 C   0  0  0  0  0  0
  -24.1496  -36.7308   23.2629 C   0  0  0  0  0  0
  -25.9154  -30.8470   21.3598 C   0  0  0  0  0  0
  -25.9923  -29.4823   20.7145 C   0  0  0  0  0  0
  -27.1915  -28.7417   20.6988 C   0  0  0  0  0  0
  -26.0526  -26.9623   19.4912 C   0  0  0  0  0  0
  -24.8556  -27.6978   19.5176 C   0  0  0  0  0  0
  -23.5948  -29.8248   20.1718 C   0  0  0  0  0  0
  -25.4123  -36.3109   24.0318 C   0  0  1  0  0  0
  -20.5836  -28.3656   23.1343 C   0  0  2  0  0  0
  -20.6750  -26.9396   22.5419 C   0  0  0  0  0  0
  -19.5727  -26.6387   21.5217 C   0  0  0  0  0  0
  -18.1908  -26.7928   22.1633 C   0  0  0  0  0  0
  -19.1510  -28.8839   23.2917 C   0  0  0  0  0  0
  -18.9451  -30.1463   23.8891 C   0  0  0  0  0  0
  -17.6452  -30.6583   24.0583 C   0  0  0  0  0  0
  -25.9059  -34.9479   23.5100 C   0  0  0  0  0  0
  -16.5343  -29.9088   23.6348 C   0  0  0  0  0  0
  -16.7257  -28.6525   23.0334 C   0  0  0  0  0  0
  -26.4490  -31.6597   25.0715 C   0  0  0  0  0  0
  -25.3771  -31.3669   26.1469 C   0  0  0  0  0  0
  -27.0326  -30.3057   24.6053 C   0  0  0  0  0  0
  -27.6061  -32.4326   25.7474 C   0  0  0  0  0  0
  -27.5577  -37.1803   24.8464 C   0  0  0  0  0  0
  -21.4094  -29.3034   22.3769 N   0  0  0  0  0  0
  -26.4302  -37.3801   23.9403 N   0  0  0  0  0  0
  -24.6570  -31.0851   22.1020 N   0  0  0  0  0  0
  -23.4148  -28.8258   23.3080 O   0  0  0  0  0  0
  -28.4493  -26.8231   20.0484 O   0  0  0  0  0  0
  -26.5597  -34.8922   22.4645 O   0  0  0  0  0  0
  -23.5319  -32.1486   23.7560 O   0  0  0  0  0  0
  -28.0759  -17.8324   19.9741 C   0  0  0  0  0  0
  -27.3701  -19.0146   19.7105 C   0  0  0  0  0  0
  -29.3326  -17.5999   19.3792 C   0  0  0  0  0  0
  -29.1751  -19.7668   18.2288 C   0  0  0  0  0  0
  -27.9156  -19.9813   18.8447 C   0  0  0  0  0  0
  -29.9178  -18.5901   18.5332 C   0  0  0  0  0  0
  -29.9982  -16.3016   19.6056 C   0  0  0  0  0  0
  -27.4423  -22.0589   19.5158 C   0  0  0  0  0  0
  -32.8803  -18.1849   16.3355 C   0  0  0  0  0  0
  -33.5270  -18.1972   17.7269 C   0  0  0  0  0  0
  -31.3904  -17.9805   16.6176 C   0  0  0  0  0  0
  -32.4626  -18.8475   18.6274 C   0  0  0  0  0  0
  -29.6941  -20.8333   17.2593 C   0  0  0  0  0  0
  -32.6031  -18.3779   20.0869 C   0  0  0  0  0  0
  -32.6175  -20.3804   18.5921 C   0  0  0  0  0  0
  -27.0965  -23.5096   19.3217 C   0  0  0  0  0  0
  -28.0734  -24.4255   20.0883 C   0  0  0  0  0  0
  -28.5662  -25.6357   19.2768 C   0  0  0  0  0  0
  -27.2388  -21.1771   18.6286 N   0  0  0  0  0  0
  -29.9109  -15.5405   20.6338 N   0  0  0  0  0  0
  -31.2145  -18.3959   18.0020 N   0  0  0  0  0  0
  -31.4607  -12.3232   19.1263 H   0  0  0  0  0  0
  -30.2756  -11.2533   19.8235 H   0  0  0  0  0  0
  -29.7311  -11.7665   17.4214 H   0  0  0  0  0  0
  -29.6802  -13.4741   17.7742 H   0  0  0  0  0  0
  -27.8116  -11.3095   18.7996 H   0  0  0  0  0  0
  -27.3727  -12.6473   17.7725 H   0  0  0  0  0  0
  -27.6957  -14.2500   19.5598 H   0  0  0  0  0  0
  -28.6515  -11.9847   21.3726 H   0  0  0  0  0  0
  -28.4821  -13.6593   21.8306 H   0  0  0  0  0  0
  -25.2742   -9.5680   22.4767 H   0  0  0  0  0  0
  -23.9983   -7.4636   22.7492 H   0  0  0  0  0  0
  -21.0824   -8.8760   19.8960 H   0  0  0  0  0  0
  -22.3677  -10.9663   19.6172 H   0  0  0  0  0  0
  -21.2008   -7.6141   23.9704 H   0  0  0  0  0  0
  -21.1485   -6.0523   25.9070 H   0  0  0  0  0  0
  -22.0602   -2.7604   23.2846 H   0  0  0  0  0  0
  -22.4103  -11.9896   22.4777 H   0  0  0  0  0  0
  -21.1120  -13.1278   22.2608 H   0  0  0  0  0  0
  -24.6495  -15.8302   20.4637 H   0  0  0  0  0  0
  -26.2578  -15.5966   19.9914 H   0  0  0  0  0  0
  -26.7112  -32.5563   23.1169 H   0  0  0  0  0  0
  -25.0170  -33.9814   25.0521 H   0  0  0  0  0  0
  -22.6809  -31.3144   21.4165 H   0  0  0  0  0  0
  -23.3762  -35.9638   23.3312 H   0  0  0  0  0  0
  -24.3568  -36.8921   22.2039 H   0  0  0  0  0  0
  -23.7258  -37.6516   23.6646 H   0  0  0  0  0  0
  -26.0147  -31.6085   20.5853 H   0  0  0  0  0  0
  -26.8082  -30.9069   21.9699 H   0  0  0  0  0  0
  -28.0871  -29.1416   21.1542 H   0  0  0  0  0  0
  -26.0229  -26.0003   19.0045 H   0  0  0  0  0  0
  -23.9619  -27.2887   19.0670 H   0  0  0  0  0  0
  -23.6908  -30.5943   19.4050 H   0  0  0  0  0  0
  -22.7194  -29.2382   19.8860 H   0  0  0  0  0  0
  -25.1300  -36.1953   25.0809 H   0  0  0  0  0  0
  -20.9937  -28.3204   24.1462 H   0  0  0  0  0  0
  -20.5664  -26.2247   23.3594 H   0  0  0  0  0  0
  -21.6623  -26.7448   22.1196 H   0  0  0  0  0  0
  -19.6886  -25.6306   21.1228 H   0  0  0  0  0  0
  -19.6676  -27.3222   20.6762 H   0  0  0  0  0  0
  -17.4173  -26.6705   21.4034 H   0  0  0  0  0  0
  -18.0310  -26.0057   22.9010 H   0  0  0  0  0  0
  -19.7921  -30.7310   24.2213 H   0  0  0  0  0  0
  -17.5000  -31.6254   24.5205 H   0  0  0  0  0  0
  -15.5348  -30.2993   23.7674 H   0  0  0  0  0  0
  -15.8654  -28.0874   22.7000 H   0  0  0  0  0  0
  -24.5951  -30.7010   25.7802 H   0  0  0  0  0  0
  -24.8959  -32.2809   26.4955 H   0  0  0  0  0  0
  -25.8147  -30.8813   27.0198 H   0  0  0  0  0  0
  -26.2847  -29.6791   24.1175 H   0  0  0  0  0  0
  -27.4204  -29.7312   25.4479 H   0  0  0  0  0  0
  -27.8624  -30.4401   23.9108 H   0  0  0  0  0  0
  -27.2683  -33.3631   26.2040 H   0  0  0  0  0  0
  -28.3864  -32.6880   25.0296 H   0  0  0  0  0  0
  -28.0725  -31.8458   26.5398 H   0  0  0  0  0  0
  -28.2601  -38.0098   24.7525 H   0  0  0  0  0  0
  -28.1069  -36.2626   24.6286 H   0  0  0  0  0  0
  -27.2270  -37.1443   25.8863 H   0  0  0  0  0  0
  -20.9256  -29.8763   21.7006 H   0  0  0  0  0  0
  -26.0178  -38.2863   24.1448 H   0  0  0  0  0  0
  -27.6399  -17.0933   20.6311 H   0  0  0  0  0  0
  -26.4088  -19.1783   20.1784 H   0  0  0  0  0  0
  -30.6253  -16.0155   18.7522 H   0  0  0  0  0  0
  -27.9413  -21.8310   20.4639 H   0  0  0  0  0  0
  -33.2932  -17.4173   15.6800 H   0  0  0  0  0  0
  -33.0315  -19.1494   15.8480 H   0  0  0  0  0  0
  -34.4860  -18.7182   17.7435 H   0  0  0  0  0  0
  -33.7152  -17.1684   18.0396 H   0  0  0  0  0  0
  -31.1291  -16.9254   16.5338 H   0  0  0  0  0  0
  -30.7595  -18.5279   15.9174 H   0  0  0  0  0  0
  -28.9270  -21.0843   16.5275 H   0  0  0  0  0  0
  -30.5681  -20.5369   16.6904 H   0  0  0  0  0  0
  -29.9517  -21.7426   17.8002 H   0  0  0  0  0  0
  -33.5619  -18.6855   20.5046 H   0  0  0  0  0  0
  -32.5618  -17.2932   20.1755 H   0  0  0  0  0  0
  -31.8268  -18.8016   20.7255 H   0  0  0  0  0  0
  -33.5577  -20.6855   19.0528 H   0  0  0  0  0  0
  -31.8214  -20.8782   19.1463 H   0  0  0  0  0  0
  -32.6264  -20.7778   17.5776 H   0  0  0  0  0  0
  -26.0680  -23.6786   19.6410 H   0  0  0  0  0  0
  -27.1270  -23.7208   18.2517 H   0  0  0  0  0  0
  -28.9636  -23.8817   20.4132 H   0  0  0  0  0  0
  -27.5942  -24.7476   21.0136 H   0  0  0  0  0  0
  -28.0823  -25.7406   18.3055 H   0  0  0  0  0  0
  -29.6222  -25.4962   19.0433 H   0  0  0  0  0  0
  1 25  1  0  0  0
  1 30  2  0  0  0
  1 90  1  0  0  0
  2  3  1  0  0  0
  2 25  1  0  0  0
  2 92  1  0  0  0
  2 93  1  0  0  0
  3  4  1  0  0  0
  3 94  1  0  0  0
  3 95  1  0  0  0
  4  5  1  0  0  0
  4 96  1  0  0  0
  4 97  1  0  0  0
  5  6  1  0  0  0
  5 26  1  0  0  0
  5 98  1  0  0  0
  6 25  1  0  0  0
  6 99  1  0  0  0
  6100  1  0  0  0
  7  8  2  0  0  0
  7 26  1  0  0  0
  7 29  1  0  0  0
  8  9  1  0  0  0
  8 22  1  0  0  0
  9 10  1  0  0  0
  9 27  2  0  0  0
 10 11  2  0  0  0
 10 15  1  0  0  0
 11 12  1  0  0  0
 11101  1  0  0  0
 12 13  2  0  0  0
 12102  1  0  0  0
 13 14  1  0  0  0
 13 31  1  0  0  0
 14 15  2  0  0  0
 14103  1  0  0  0
 15104  1  0  0  0
 16 17  2  0  0  0
 16 21  1  0  0  0
 16 31  1  0  0  0
 17 18  1  0  0  0
 17105  1  0  0  0
 18 19  2  0  0  0
 18106  1  0  0  0
 19 20  1  0  0  0
 19 24  1  0  0  0
 20 21  2  0  0  0
 20107  1  0  0  0
 21 23  1  0  0  0
 22 28  1  0  0  0
 22 32  2  0  0  0
 26 27  1  0  0  0
 28108  1  0  0  0
 28109  1  0  0  0
 29110  1  0  0  0
 29111  1  0  0  0
 33 34  1  0  0  0
 33 66  1  0  0  0
 33 70  2  0  0  0
 34 36  1  0  0  0
 34 59  1  0  0  0
 34112  1  0  0  0
 35 44  2  0  0  0
 35 45  1  0  0  0
 35 68  1  0  0  0
 36 56  1  0  0  0
 36113  1  0  0  0
 37 39  1  0  0  0
 37 47  1  0  0  0
 37 66  1  0  0  0
 37114  1  0  0  0
 38 43  2  0  0  0
 38 46  1  0  0  0
 38 47  1  0  0  0
 39 64  1  0  0  0
 39 67  2  0  0  0
 40 52  1  0  0  0
 40 53  2  0  0  0
 40 58  1  0  0  0
 41115  1  0  0  0
 41116  1  0  0  0
 41117  1  0  0  0
 41 48  1  0  0  0
 42 43  1  0  0  0
 42 66  1  0  0  0
 42118  1  0  0  0
 42119  1  0  0  0
 43 44  1  0  0  0
 44120  1  0  0  0
 45 46  2  0  0  0
 45121  1  0  0  0
 46122  1  0  0  0
 47123  1  0  0  0
 47124  1  0  0  0
 48 56  1  0  0  0
 48 65  1  0  0  0
 48125  1  0  0  0
 49 50  1  0  0  0
 49 53  1  0  0  0
 49 64  1  0  0  0
 49126  1  0  0  0
 50 51  1  0  0  0
 50127  1  0  0  0
 50128  1  0  0  0
 51 52  1  0  0  0
 51129  1  0  0  0
 51130  1  0  0  0
 52131  1  0  0  0
 52132  1  0  0  0
 53 54  1  0  0  0
 54 55  2  0  0  0
 54133  1  0  0  0
 55 57  1  0  0  0
 55134  1  0  0  0
 56 69  2  0  0  0
 57 58  2  0  0  0
 57135  1  0  0  0
 58136  1  0  0  0
 59 60  1  0  0  0
 59 61  1  0  0  0
 59 62  1  0  0  0
 60137  1  0  0  0
 60138  1  0  0  0
 60139  1  0  0  0
 61140  1  0  0  0
 61141  1  0  0  0
 61142  1  0  0  0
 62143  1  0  0  0
 62144  1  0  0  0
 62145  1  0  0  0
 63 65  1  0  0  0
 63146  1  0  0  0
 63147  1  0  0  0
 63148  1  0  0  0
 64149  1  0  0  0
 65150  1  0  0  0
 68 88  1  0  0  0
 71 72  2  0  0  0
 71 73  1  0  0  0
 71151  1  0  0  0
 72 75  1  0  0  0
 72152  1  0  0  0
 73 76  2  0  0  0
 73 77  1  0  0  0
 74 75  2  0  0  0
 74 76  1  0  0  0
 74 83  1  0  0  0
 75 89  1  0  0  0
 76 91  1  0  0  0
 77 90  2  0  0  0
 77153  1  0  0  0
 78 86  1  0  0  0
 78 89  2  0  0  0
 78154  1  0  0  0
 79 80  1  0  0  0
 79 81  1  0  0  0
 79155  1  0  0  0
 79156  1  0  0  0
 80 82  1  0  0  0
 80157  1  0  0  0
 80158  1  0  0  0
 81 91  1  0  0  0
 81159  1  0  0  0
 81160  1  0  0  0
 82 84  1  0  0  0
 82 85  1  0  0  0
 82 91  1  0  0  0
 83161  1  0  0  0
 83162  1  0  0  0
 83163  1  0  0  0
 84164  1  0  0  0
 84165  1  0  0  0
 84166  1  0  0  0
 85167  1  0  0  0
 85168  1  0  0  0
 85169  1  0  0  0
 86 87  1  0  0  0
 86170  1  0  0  0
 86171  1  0  0  0
 87 88  1  0  0  0
 87172  1  0  0  0
 87173  1  0  0  0
 88174  1  0  0  0
 88175  1  0  0  0
M  ISO  4   1 100  68 101  88 101  90 100
M  END
> <chiral flag>
0

> <version>
0

> <s_m_source_file>
/data/baiqing/PycharmProjects/Reinvent-master-3.2/result/LINK_invent/BTK/process_docking_weight1_custom_product_contain_oxygen_bond_distance_aromatic_linkinvent_7_9_3/rearranged_h_0111.sdf

> <i_m_source_file_index>
55

> <r_mmod_Potential_Energy-OPLS-2005>
116.873840332031

> <r_mmod_Stretch_Energy-OPLS-2005>
36.5495986938477

> <r_mmod_Bend_Energy-OPLS-2005>
143.735733032227

> <r_mmod_Torsional_Energy-OPLS-2005>
324.735412597656

> <r_mmod_Improper_Torsional_Energy-OPLS-2005>
9.88771724700928

> <r_mmod_Van_der_Waal_Energy-OPLS-2005>
182.802322387695

> <r_mmod_Electrostatic_Energy-OPLS-2005>
-416.738189697266

> <r_mmod_Solvation_Energy-OPLS-2005>
-182.240768432617

> <b_mmod_Minimization_Converged-OPLS-2005>
0

> <r_mmod_RMS_Derivative-OPLS-2005>
2.12940764427185

$$$$
57
                    3D
 Structure written by MMmdl.
152160  0  0  1  0            999 V2000
  -30.6086  -14.7207   20.4543 C   0  0  0  0  0  0
  -30.4293  -12.4322   19.4855 C   0  0  0  0  0  0
  -29.5151  -12.5113   18.2427 C   0  0  0  0  0  0
  -28.0369  -12.3478   18.6453 C   0  0  0  0  0  0
  -27.6449  -13.2351   19.8570 C   0  0  2  0  0  0
  -28.6842  -13.1446   20.9966 C   0  0  0  0  0  0
  -25.2511  -13.8220   20.5693 C   0  0  0  0  0  0
  -24.1806  -13.0453   20.9204 C   0  0  0  0  0  0
  -24.6393  -11.6930   20.8736 C   0  0  0  0  0  0
  -23.9071  -10.4303   21.0402 C   0  0  0  0  0  0
  -24.3624   -9.4223   21.9178 C   0  0  0  0  0  0
  -23.6303   -8.2262   22.0748 C   0  0  0  0  0  0
  -22.4284   -8.0294   21.3547 C   0  0  0  0  0  0
  -21.9915   -9.0269   20.4650 C   0  0  0  0  0  0
  -22.7240  -10.2146   20.3056 C   0  0  0  0  0  0
  -21.6861   -6.0734   22.5273 C   0  0  0  0  0  0
  -21.4020   -6.5637   23.8206 C   0  0  0  0  0  0
  -21.3664   -5.6786   24.9167 C   0  0  0  0  0  0
  -21.6043   -4.3050   24.7211 C   0  0  0  0  0  0
  -21.8824   -3.8145   23.4332 C   0  0  0  0  0  0
  -21.9199   -4.6963   22.3389 C   0  0  0  0  0  0
  -22.7822  -13.5230   21.1864 C   0  0  0  0  0  0
  -22.1667   -4.2146   21.0969 F   0  0  0  0  0  0
  -21.5632   -3.4531   25.7728 F   0  0  0  0  0  0
  -29.9944  -13.4877   20.4309 N   0  0  0  0  0  0
  -26.2941  -12.9428   20.3280 N   0  0  0  0  0  0
  -25.9328  -11.6566   20.5740 N   0  0  0  0  0  0
  -22.0480  -12.8222   22.0425 N   0  0  0  0  0  0
  -25.4215  -15.1943   20.4109 N   0  0  0  0  0  0
  -31.7889  -14.8137   20.0941 O   0  0  0  0  0  0
  -21.6664   -6.8880   21.4236 O   0  0  0  0  0  0
  -22.3494  -14.5528   20.6705 O   0  0  0  0  0  0
  -24.6307  -31.8560   23.2019 C   0  0  0  0  0  0
  -25.9142  -32.4756   23.8338 C   0  0  1  0  0  0
  -27.2051  -27.2636   20.1208 C   0  0  0  0  0  0
  -25.5933  -33.8563   24.2241 N   0  0  0  0  0  0
  -23.4258  -30.4809   21.5477 C   0  0  2  0  0  0
  -24.8681  -28.9357   20.1087 C   0  0  0  0  0  0
  -22.7504  -29.4594   22.4945 C   0  0  0  0  0  0
  -18.0281  -28.1396   22.8476 C   0  0  0  0  0  0
  -24.1485  -36.7293   23.2635 C   0  0  0  0  0  0
  -25.9739  -30.7669   21.3852 C   0  0  0  0  0  0
  -26.0418  -29.3933   20.7208 C   0  0  0  0  0  0
  -27.2135  -28.5694   20.7181 C   0  0  0  0  0  0
  -26.0107  -26.8858   19.4636 C   0  0  0  0  0  0
  -24.8575  -27.6892   19.4693 C   0  0  0  0  0  0
  -23.6419  -29.8243   20.1601 C   0  0  0  0  0  0
  -25.4120  -36.3075   24.0313 C   0  0  1  0  0  0
  -20.5887  -28.3694   23.1284 C   0  0  2  0  0  0
  -20.6775  -26.9413   22.5419 C   0  0  0  0  0  0
  -19.5749  -26.6382   21.5223 C   0  0  0  0  0  0
  -18.1927  -26.7933   22.1627 C   0  0  0  0  0  0
  -19.1537  -28.8867   23.2863 C   0  0  0  0  0  0
  -18.9459  -30.1475   23.8866 C   0  0  0  0  0  0
  -17.6459  -30.6590   24.0571 C   0  0  0  0  0  0
  -25.9068  -34.9446   23.5087 C   0  0  0  0  0  0
  -16.5351  -29.9092   23.6335 C   0  0  0  0  0  0
  -16.7270  -28.6523   23.0331 C   0  0  0  0  0  0
  -26.4492  -31.6595   25.0746 C   0  0  0  0  0  0
  -25.3705  -31.3770   26.1462 C   0  0  0  0  0  0
  -27.0338  -30.2996   24.6275 C   0  0  0  0  0  0
  -27.6021  -32.4353   25.7529 C   0  0  0  0  0  0
  -27.5584  -37.1800   24.8455 C   0  0  0  0  0  0
  -21.4214  -29.3038   22.3683 N   0  0  0  0  0  0
  -26.4287  -37.3785   23.9411 N   0  0  0  0  0  0
  -24.6957  -31.0522   22.1005 N   0  0  0  0  0  0
  -23.4213  -28.8118   23.3025 O   0  0  0  0  0  0
  -28.2817  -26.3469   20.1992 O   0  0  0  0  0  0
  -26.5642  -34.8922   22.4660 O   0  0  0  0  0  0
  -23.5460  -32.1382   23.7322 O   0  0  0  0  0  0
  -29.3402  -17.9693   17.9692 C   0  0  0  0  0  0
  -29.1999  -19.2759   18.4709 C   0  0  0  0  0  0
  -29.3127  -19.4471   19.8871 C   0  0  0  0  0  0
  -29.7093  -17.0630   20.0340 C   0  0  0  0  0  0
  -29.2712  -20.8638   20.5925 C   0  0  0  0  0  0
  -28.5706  -22.1710   19.9700 C   0  0  0  0  0  0
  -28.9348  -23.6767   20.4600 C   0  0  0  0  0  0
  -27.9982  -24.8899   19.9548 C   0  0  0  0  0  0
  -29.5881  -16.8977   18.7298 N   0  0  0  0  0  0
  -29.5522  -18.2845   20.6330 N   0  0  0  0  0  0
  -28.9846  -20.2807   17.5149 N   0  0  0  0  0  0
  -29.8549  -15.8463   20.7588 N   0  0  0  0  0  0
  -29.7516  -21.0041   21.7250 O   0  0  0  0  0  0
  -31.4746  -12.5438   19.1910 H   0  0  0  0  0  0
  -30.3545  -11.4506   19.9550 H   0  0  0  0  0  0
  -29.7941  -11.7441   17.5191 H   0  0  0  0  0  0
  -29.6541  -13.4706   17.7418 H   0  0  0  0  0  0
  -27.8792  -11.2977   18.8922 H   0  0  0  0  0  0
  -27.3881  -12.5631   17.7955 H   0  0  0  0  0  0
  -27.6474  -14.2626   19.4931 H   0  0  0  0  0  0
  -28.7068  -12.1391   21.4192 H   0  0  0  0  0  0
  -28.4200  -13.8127   21.8181 H   0  0  0  0  0  0
  -25.2772   -9.5709   22.4742 H   0  0  0  0  0  0
  -24.0027   -7.4654   22.7450 H   0  0  0  0  0  0
  -21.0856   -8.8782   19.8950 H   0  0  0  0  0  0
  -22.3701  -10.9686   19.6169 H   0  0  0  0  0  0
  -21.2012   -7.6145   23.9704 H   0  0  0  0  0  0
  -21.1487   -6.0521   25.9071 H   0  0  0  0  0  0
  -22.0600   -2.7606   23.2834 H   0  0  0  0  0  0
  -22.4103  -11.9901   22.4837 H   0  0  0  0  0  0
  -21.1088  -13.1230   22.2609 H   0  0  0  0  0  0
  -24.6518  -15.8466   20.5174 H   0  0  0  0  0  0
  -26.2618  -15.6312   20.0549 H   0  0  0  0  0  0
  -26.7214  -32.5387   23.1076 H   0  0  0  0  0  0
  -25.0043  -33.9694   25.0359 H   0  0  0  0  0  0
  -22.7215  -31.3033   21.4075 H   0  0  0  0  0  0
  -23.3753  -35.9620   23.3283 H   0  0  0  0  0  0
  -24.3572  -36.8938   22.2053 H   0  0  0  0  0  0
  -23.7230  -37.6483   23.6681 H   0  0  0  0  0  0
  -26.1223  -31.5308   20.6205 H   0  0  0  0  0  0
  -26.8487  -30.8052   22.0229 H   0  0  0  0  0  0
  -28.1096  -28.9111   21.2175 H   0  0  0  0  0  0
  -25.9266  -25.9402   18.9508 H   0  0  0  0  0  0
  -23.9614  -27.3359   18.9771 H   0  0  0  0  0  0
  -23.7744  -30.6062   19.4117 H   0  0  0  0  0  0
  -22.7569  -29.2661   19.8484 H   0  0  0  0  0  0
  -25.1305  -36.1911   25.0804 H   0  0  0  0  0  0
  -20.9960  -28.3269   24.1413 H   0  0  0  0  0  0
  -20.5689  -26.2303   23.3625 H   0  0  0  0  0  0
  -21.6642  -26.7453   22.1201 H   0  0  0  0  0  0
  -19.6915  -25.6290   21.1257 H   0  0  0  0  0  0
  -19.6687  -27.3195   20.6756 H   0  0  0  0  0  0
  -17.4201  -26.6668   21.4027 H   0  0  0  0  0  0
  -18.0322  -26.0084   22.9031 H   0  0  0  0  0  0
  -19.7939  -30.7303   24.2206 H   0  0  0  0  0  0
  -17.5019  -31.6260   24.5188 H   0  0  0  0  0  0
  -15.5356  -30.2991   23.7687 H   0  0  0  0  0  0
  -15.8665  -28.0864   22.7029 H   0  0  0  0  0  0
  -24.5845  -30.7159   25.7793 H   0  0  0  0  0  0
  -24.8945  -32.2961   26.4895 H   0  0  0  0  0  0
  -25.8005  -30.8927   27.0237 H   0  0  0  0  0  0
  -26.2946  -29.6747   24.1254 H   0  0  0  0  0  0
  -27.3930  -29.7258   25.4828 H   0  0  0  0  0  0
  -27.8862  -30.4227   23.9591 H   0  0  0  0  0  0
  -27.2583  -33.3625   26.2122 H   0  0  0  0  0  0
  -28.3830  -32.6968   25.0379 H   0  0  0  0  0  0
  -28.0698  -31.8490   26.5442 H   0  0  0  0  0  0
  -28.2584  -38.0114   24.7540 H   0  0  0  0  0  0
  -28.1097  -36.2652   24.6239 H   0  0  0  0  0  0
  -27.2308  -37.1399   25.8855 H   0  0  0  0  0  0
  -20.9415  -29.8758   21.6877 H   0  0  0  0  0  0
  -26.0158  -38.2851   24.1439 H   0  0  0  0  0  0
  -29.2551  -17.7737   16.9095 H   0  0  0  0  0  0
  -27.5024  -22.0196   20.1230 H   0  0  0  0  0  0
  -28.7077  -22.1758   18.8965 H   0  0  0  0  0  0
  -29.9560  -23.8884   20.1454 H   0  0  0  0  0  0
  -28.9588  -23.6918   21.5503 H   0  0  0  0  0  0
  -27.0210  -24.6655   20.3837 H   0  0  0  0  0  0
  -27.8874  -24.7776   18.8753 H   0  0  0  0  0  0
  -28.8571  -20.0528   16.5303 H   0  0  0  0  0  0
  -28.7754  -21.2471   17.7423 H   0  0  0  0  0  0
  -29.0582  -15.6460   21.3386 H   0  0  0  0  0  0
  1 25  1  0  0  0
  1 30  2  0  0  0
  1 82  1  0  0  0
  2  3  1  0  0  0
  2 25  1  0  0  0
  2 84  1  0  0  0
  2 85  1  0  0  0
  3  4  1  0  0  0
  3 86  1  0  0  0
  3 87  1  0  0  0
  4  5  1  0  0  0
  4 88  1  0  0  0
  4 89  1  0  0  0
  5  6  1  0  0  0
  5 26  1  0  0  0
  5 90  1  0  0  0
  6 25  1  0  0  0
  6 91  1  0  0  0
  6 92  1  0  0  0
  7  8  2  0  0  0
  7 26  1  0  0  0
  7 29  1  0  0  0
  8  9  1  0  0  0
  8 22  1  0  0  0
  9 10  1  0  0  0
  9 27  2  0  0  0
 10 11  2  0  0  0
 10 15  1  0  0  0
 11 12  1  0  0  0
 11 93  1  0  0  0
 12 13  2  0  0  0
 12 94  1  0  0  0
 13 14  1  0  0  0
 13 31  1  0  0  0
 14 15  2  0  0  0
 14 95  1  0  0  0
 15 96  1  0  0  0
 16 17  2  0  0  0
 16 21  1  0  0  0
 16 31  1  0  0  0
 17 18  1  0  0  0
 17 97  1  0  0  0
 18 19  2  0  0  0
 18 98  1  0  0  0
 19 20  1  0  0  0
 19 24  1  0  0  0
 20 21  2  0  0  0
 20 99  1  0  0  0
 21 23  1  0  0  0
 22 28  1  0  0  0
 22 32  2  0  0  0
 26 27  1  0  0  0
 28100  1  0  0  0
 28101  1  0  0  0
 29102  1  0  0  0
 29103  1  0  0  0
 33 34  1  0  0  0
 33 66  1  0  0  0
 33 70  2  0  0  0
 34 36  1  0  0  0
 34 59  1  0  0  0
 34104  1  0  0  0
 35 44  2  0  0  0
 35 45  1  0  0  0
 35 68  1  0  0  0
 36 56  1  0  0  0
 36105  1  0  0  0
 37 39  1  0  0  0
 37 47  1  0  0  0
 37 66  1  0  0  0
 37106  1  0  0  0
 38 43  2  0  0  0
 38 46  1  0  0  0
 38 47  1  0  0  0
 39 64  1  0  0  0
 39 67  2  0  0  0
 40 52  1  0  0  0
 40 53  2  0  0  0
 40 58  1  0  0  0
 41107  1  0  0  0
 41108  1  0  0  0
 41109  1  0  0  0
 41 48  1  0  0  0
 42 43  1  0  0  0
 42 66  1  0  0  0
 42110  1  0  0  0
 42111  1  0  0  0
 43 44  1  0  0  0
 44112  1  0  0  0
 45 46  2  0  0  0
 45113  1  0  0  0
 46114  1  0  0  0
 47115  1  0  0  0
 47116  1  0  0  0
 48 56  1  0  0  0
 48 65  1  0  0  0
 48117  1  0  0  0
 49 50  1  0  0  0
 49 53  1  0  0  0
 49 64  1  0  0  0
 49118  1  0  0  0
 50 51  1  0  0  0
 50119  1  0  0  0
 50120  1  0  0  0
 51 52  1  0  0  0
 51121  1  0  0  0
 51122  1  0  0  0
 52123  1  0  0  0
 52124  1  0  0  0
 53 54  1  0  0  0
 54 55  2  0  0  0
 54125  1  0  0  0
 55 57  1  0  0  0
 55126  1  0  0  0
 56 69  2  0  0  0
 57 58  2  0  0  0
 57127  1  0  0  0
 58128  1  0  0  0
 59 60  1  0  0  0
 59 61  1  0  0  0
 59 62  1  0  0  0
 60129  1  0  0  0
 60130  1  0  0  0
 60131  1  0  0  0
 61132  1  0  0  0
 61133  1  0  0  0
 61134  1  0  0  0
 62135  1  0  0  0
 62136  1  0  0  0
 62137  1  0  0  0
 63 65  1  0  0  0
 63138  1  0  0  0
 63139  1  0  0  0
 63140  1  0  0  0
 64141  1  0  0  0
 65142  1  0  0  0
 68 78  1  0  0  0
 71 72  2  0  0  0
 71 79  1  0  0  0
 71143  1  0  0  0
 72 73  1  0  0  0
 72 81  1  0  0  0
 73 75  1  0  0  0
 73 80  2  0  0  0
 74 79  2  0  0  0
 74 80  1  0  0  0
 74 82  1  0  0  0
 75 76  1  0  0  0
 75 83  2  0  0  0
 76 77  1  0  0  0
 76144  1  0  0  0
 76145  1  0  0  0
 77 78  1  0  0  0
 77146  1  0  0  0
 77147  1  0  0  0
 78148  1  0  0  0
 78149  1  0  0  0
 81150  1  0  0  0
 81151  1  0  0  0
 82152  1  0  0  0
M  ISO  4   1 100  68 101  78 101  82 100
M  END
> <chiral flag>
0

> <version>
0

> <s_m_source_file>
/data/baiqing/PycharmProjects/Reinvent-master-3.2/result/LINK_invent/BTK/process_docking_weight1_custom_product_contain_oxygen_bond_distance_aromatic_linkinvent_7_9_3/rearranged_h_0111.sdf

> <i_m_source_file_index>
56

> <r_mmod_Potential_Energy-OPLS-2005>
-48.293628692627

> <r_mmod_Stretch_Energy-OPLS-2005>
127.039131164551

> <r_mmod_Bend_Energy-OPLS-2005>
179.077896118164

> <r_mmod_Torsional_Energy-OPLS-2005>
258.693634033203

> <r_mmod_Improper_Torsional_Energy-OPLS-2005>
6.11931753158569

> <r_mmod_Van_der_Waal_Energy-OPLS-2005>
155.354064941406

> <r_mmod_Electrostatic_Energy-OPLS-2005>
-596.461791992188

> <r_mmod_Solvation_Energy-OPLS-2005>
-259.545318603516

> <b_mmod_Minimization_Converged-OPLS-2005>
0

> <r_mmod_RMS_Derivative-OPLS-2005>
1.77245342731476

$$$$
58
                    3D
 Structure written by MMmdl.
153161  0  0  1  0            999 V2000
  -30.7263  -14.4660   20.4685 C   0  0  0  0  0  0
  -30.4081  -12.2841   19.4226 C   0  0  0  0  0  0
  -29.4883  -12.4892   18.2021 C   0  0  0  0  0  0
  -28.0164  -12.3439   18.6268 C   0  0  0  0  0  0
  -27.6578  -13.2106   19.8617 C   0  0  2  0  0  0
  -28.7023  -13.0556   20.9912 C   0  0  0  0  0  0
  -25.2554  -13.8173   20.5519 C   0  0  0  0  0  0
  -24.1851  -13.0442   20.9170 C   0  0  0  0  0  0
  -24.6436  -11.6922   20.8776 C   0  0  0  0  0  0
  -23.9112  -10.4306   21.0438 C   0  0  0  0  0  0
  -24.3668   -9.4198   21.9185 C   0  0  0  0  0  0
  -23.6332   -8.2237   22.0752 C   0  0  0  0  0  0
  -22.4300   -8.0307   21.3553 C   0  0  0  0  0  0
  -21.9965   -9.0274   20.4634 C   0  0  0  0  0  0
  -22.7307  -10.2143   20.3050 C   0  0  0  0  0  0
  -21.6859   -6.0757   22.5283 C   0  0  0  0  0  0
  -21.4017   -6.5648   23.8219 C   0  0  0  0  0  0
  -21.3649   -5.6788   24.9173 C   0  0  0  0  0  0
  -21.6053   -4.3055   24.7214 C   0  0  0  0  0  0
  -21.8820   -3.8160   23.4329 C   0  0  0  0  0  0
  -21.9199   -4.6990   22.3394 C   0  0  0  0  0  0
  -22.7875  -13.5226   21.1837 C   0  0  0  0  0  0
  -22.1668   -4.2189   21.0967 F   0  0  0  0  0  0
  -21.5641   -3.4526   25.7711 F   0  0  0  0  0  0
  -30.0310  -13.3028   20.4148 N   0  0  0  0  0  0
  -26.3023  -12.9352   20.3315 N   0  0  0  0  0  0
  -25.9361  -11.6521   20.5798 N   0  0  0  0  0  0
  -22.0550  -12.8189   22.0409 N   0  0  0  0  0  0
  -25.4234  -15.1870   20.3615 N   0  0  0  0  0  0
  -31.9162  -14.5392   20.1604 O   0  0  0  0  0  0
  -21.6648   -6.8913   21.4252 O   0  0  0  0  0  0
  -22.3554  -14.5520   20.6687 O   0  0  0  0  0  0
  -24.6106  -31.8699   23.2113 C   0  0  0  0  0  0
  -25.9021  -32.4820   23.8396 C   0  0  1  0  0  0
  -27.2266  -27.4464   20.1100 C   0  0  0  0  0  0
  -25.5888  -33.8623   24.2314 N   0  0  0  0  0  0
  -23.3977  -30.4941   21.5486 C   0  0  2  0  0  0
  -24.8480  -28.9631   20.1095 C   0  0  0  0  0  0
  -22.7404  -29.4657   22.4971 C   0  0  0  0  0  0
  -18.0311  -28.1377   22.8479 C   0  0  0  0  0  0
  -24.1488  -36.7327   23.2641 C   0  0  0  0  0  0
  -25.9276  -30.8366   21.3695 C   0  0  0  0  0  0
  -26.0054  -29.4754   20.7105 C   0  0  0  0  0  0
  -27.2009  -28.7244   20.7073 C   0  0  0  0  0  0
  -26.0600  -26.9523   19.4884 C   0  0  0  0  0  0
  -24.8686  -27.6996   19.4949 C   0  0  0  0  0  0
  -23.6120  -29.8314   20.1604 C   0  0  0  0  0  0
  -25.4107  -36.3115   24.0335 C   0  0  1  0  0  0
  -20.5889  -28.3615   23.1342 C   0  0  2  0  0  0
  -20.6732  -26.9386   22.5356 C   0  0  0  0  0  0
  -19.5761  -26.6543   21.5049 C   0  0  0  0  0  0
  -18.1962  -26.7956   22.1552 C   0  0  0  0  0  0
  -19.1561  -28.8788   23.2949 C   0  0  0  0  0  0
  -18.9511  -30.1385   23.9005 C   0  0  0  0  0  0
  -17.6540  -30.6554   24.0665 C   0  0  0  0  0  0
  -25.9036  -34.9475   23.5117 C   0  0  0  0  0  0
  -16.5420  -29.9110   23.6372 C   0  0  0  0  0  0
  -16.7309  -28.6542   23.0350 C   0  0  0  0  0  0
  -26.4451  -31.6601   25.0724 C   0  0  0  0  0  0
  -25.3718  -31.3718   26.1473 C   0  0  0  0  0  0
  -27.0277  -30.3026   24.6136 C   0  0  0  0  0  0
  -27.5999  -32.4332   25.7509 C   0  0  0  0  0  0
  -27.5579  -37.1832   24.8459 C   0  0  0  0  0  0
  -21.4124  -29.3024   22.3772 N   0  0  0  0  0  0
  -26.4294  -37.3796   23.9396 N   0  0  0  0  0  0
  -24.6624  -31.0816   22.1010 N   0  0  0  0  0  0
  -23.4220  -28.8187   23.2966 O   0  0  0  0  0  0
  -28.3636  -26.6777   20.1465 O   0  0  0  0  0  0
  -26.5596  -34.8919   22.4682 O   0  0  0  0  0  0
  -23.5293  -32.1459   23.7525 O   0  0  0  0  0  0
  -28.6925  -18.3959   20.9312 C   0  0  0  0  0  0
  -28.4181  -19.7995   21.0705 C   0  0  0  0  0  0
  -29.7864  -18.1103   20.1573 C   0  0  0  0  0  0
  -29.3183  -20.5797   20.3672 C   0  0  0  0  0  0
  -28.9542  -24.2802   20.1728 C   0  0  0  0  0  0
  -27.2717  -20.2723   21.9234 C   0  0  0  0  0  0
  -30.4316  -16.7967   19.7989 C   0  0  0  0  0  0
  -28.1716  -25.4255   20.8321 C   0  0  0  0  0  0
  -28.5906  -22.8513   20.6262 C   0  0  0  0  0  0
  -29.9842  -15.5886   20.5160 N   0  0  0  0  0  0
  -29.8128  -24.4960   19.3086 O   0  0  0  0  0  0
  -29.5505  -21.9059   20.1498 O   0  0  0  0  0  0
  -30.4945  -19.5823   19.5500 S   0  0  0  0  0  0
  -31.4558  -12.3461   19.1225 H   0  0  0  0  0  0
  -30.2860  -11.2828   19.8355 H   0  0  0  0  0  0
  -29.7285  -11.7646   17.4231 H   0  0  0  0  0  0
  -29.6544  -13.4744   17.7606 H   0  0  0  0  0  0
  -27.8588  -11.2924   18.8645 H   0  0  0  0  0  0
  -27.3531  -12.5804   17.7927 H   0  0  0  0  0  0
  -27.6871  -14.2453   19.5223 H   0  0  0  0  0  0
  -28.6654  -12.0550   21.4234 H   0  0  0  0  0  0
  -28.4900  -13.7480   21.8077 H   0  0  0  0  0  0
  -25.2837   -9.5640   22.4741 H   0  0  0  0  0  0
  -24.0031   -7.4620   22.7470 H   0  0  0  0  0  0
  -21.0903   -8.8816   19.8933 H   0  0  0  0  0  0
  -22.3816  -10.9682   19.6138 H   0  0  0  0  0  0
  -21.2011   -7.6153   23.9738 H   0  0  0  0  0  0
  -21.1461   -6.0507   25.9077 H   0  0  0  0  0  0
  -22.0608   -2.7633   23.2803 H   0  0  0  0  0  0
  -22.4205  -11.9861   22.4778 H   0  0  0  0  0  0
  -21.1145  -13.1145   22.2603 H   0  0  0  0  0  0
  -24.6168  -15.8021   20.3373 H   0  0  0  0  0  0
  -26.2192  -15.5807   19.8762 H   0  0  0  0  0  0
  -26.7093  -32.5546   23.1163 H   0  0  0  0  0  0
  -25.0020  -33.9793   25.0442 H   0  0  0  0  0  0
  -22.6824  -31.3091   21.4098 H   0  0  0  0  0  0
  -23.3734  -35.9678   23.3312 H   0  0  0  0  0  0
  -24.3564  -36.8936   22.2053 H   0  0  0  0  0  0
  -23.7268  -37.6552   23.6636 H   0  0  0  0  0  0
  -26.0527  -31.6096   20.6111 H   0  0  0  0  0  0
  -26.8091  -30.8778   21.9986 H   0  0  0  0  0  0
  -28.0895  -29.1086   21.1880 H   0  0  0  0  0  0
  -26.0702  -25.9842   19.0051 H   0  0  0  0  0  0
  -23.9796  -27.2966   19.0306 H   0  0  0  0  0  0
  -23.7353  -30.6118   19.4072 H   0  0  0  0  0  0
  -22.7349  -29.2602   19.8516 H   0  0  0  0  0  0
  -25.1290  -36.1982   25.0827 H   0  0  0  0  0  0
  -21.0033  -28.3092   24.1437 H   0  0  0  0  0  0
  -20.5445  -26.2206   23.3464 H   0  0  0  0  0  0
  -21.6632  -26.7409   22.1230 H   0  0  0  0  0  0
  -19.6957  -25.6568   21.0753 H   0  0  0  0  0  0
  -19.6702  -27.3611   20.6791 H   0  0  0  0  0  0
  -17.4153  -26.6653   21.4028 H   0  0  0  0  0  0
  -18.0552  -26.0044   22.8933 H   0  0  0  0  0  0
  -19.8003  -30.7179   24.2412 H   0  0  0  0  0  0
  -17.5155  -31.6243   24.5268 H   0  0  0  0  0  0
  -15.5429  -30.3078   23.7674 H   0  0  0  0  0  0
  -15.8682  -28.0901   22.7028 H   0  0  0  0  0  0
  -24.5872  -30.7091   25.7814 H   0  0  0  0  0  0
  -24.8937  -32.2879   26.4946 H   0  0  0  0  0  0
  -25.8087  -30.8865   27.0209 H   0  0  0  0  0  0
  -26.2840  -29.6832   24.1103 H   0  0  0  0  0  0
  -27.3922  -29.7240   25.4638 H   0  0  0  0  0  0
  -27.8732  -30.4311   23.9373 H   0  0  0  0  0  0
  -27.2565  -33.3593   26.2128 H   0  0  0  0  0  0
  -28.3793  -32.6972   25.0350 H   0  0  0  0  0  0
  -28.0668  -31.8431   26.5408 H   0  0  0  0  0  0
  -28.2612  -38.0118   24.7479 H   0  0  0  0  0  0
  -28.1066  -36.2650   24.6305 H   0  0  0  0  0  0
  -27.2278  -37.1493   25.8860 H   0  0  0  0  0  0
  -20.9253  -29.8772   21.7037 H   0  0  0  0  0  0
  -26.0190  -38.2881   24.1375 H   0  0  0  0  0  0
  -28.0805  -17.6515   21.4167 H   0  0  0  0  0  0
  -26.7994  -21.1765   21.5467 H   0  0  0  0  0  0
  -27.5898  -20.4554   22.9491 H   0  0  0  0  0  0
  -26.4842  -19.5189   21.9691 H   0  0  0  0  0  0
  -31.5085  -16.9276   19.9189 H   0  0  0  0  0  0
  -30.2894  -16.6029   18.7325 H   0  0  0  0  0  0
  -28.5043  -25.5367   21.8647 H   0  0  0  0  0  0
  -27.1215  -25.1342   20.8754 H   0  0  0  0  0  0
  -27.6074  -22.6201   20.2165 H   0  0  0  0  0  0
  -28.5357  -22.8177   21.7149 H   0  0  0  0  0  0
  -29.0045  -15.4974   20.7298 H   0  0  0  0  0  0
  1 25  1  0  0  0
  1 30  2  0  0  0
  1 80  1  0  0  0
  2  3  1  0  0  0
  2 25  1  0  0  0
  2 84  1  0  0  0
  2 85  1  0  0  0
  3  4  1  0  0  0
  3 86  1  0  0  0
  3 87  1  0  0  0
  4  5  1  0  0  0
  4 88  1  0  0  0
  4 89  1  0  0  0
  5  6  1  0  0  0
  5 26  1  0  0  0
  5 90  1  0  0  0
  6 25  1  0  0  0
  6 91  1  0  0  0
  6 92  1  0  0  0
  7  8  2  0  0  0
  7 26  1  0  0  0
  7 29  1  0  0  0
  8  9  1  0  0  0
  8 22  1  0  0  0
  9 10  1  0  0  0
  9 27  2  0  0  0
 10 11  2  0  0  0
 10 15  1  0  0  0
 11 12  1  0  0  0
 11 93  1  0  0  0
 12 13  2  0  0  0
 12 94  1  0  0  0
 13 14  1  0  0  0
 13 31  1  0  0  0
 14 15  2  0  0  0
 14 95  1  0  0  0
 15 96  1  0  0  0
 16 17  2  0  0  0
 16 21  1  0  0  0
 16 31  1  0  0  0
 17 18  1  0  0  0
 17 97  1  0  0  0
 18 19  2  0  0  0
 18 98  1  0  0  0
 19 20  1  0  0  0
 19 24  1  0  0  0
 20 21  2  0  0  0
 20 99  1  0  0  0
 21 23  1  0  0  0
 22 28  1  0  0  0
 22 32  2  0  0  0
 26 27  1  0  0  0
 28100  1  0  0  0
 28101  1  0  0  0
 29102  1  0  0  0
 29103  1  0  0  0
 33 34  1  0  0  0
 33 66  1  0  0  0
 33 70  2  0  0  0
 34 36  1  0  0  0
 34 59  1  0  0  0
 34104  1  0  0  0
 35 44  2  0  0  0
 35 45  1  0  0  0
 35 68  1  0  0  0
 36 56  1  0  0  0
 36105  1  0  0  0
 37 39  1  0  0  0
 37 47  1  0  0  0
 37 66  1  0  0  0
 37106  1  0  0  0
 38 43  2  0  0  0
 38 46  1  0  0  0
 38 47  1  0  0  0
 39 64  1  0  0  0
 39 67  2  0  0  0
 40 52  1  0  0  0
 40 53  2  0  0  0
 40 58  1  0  0  0
 41107  1  0  0  0
 41108  1  0  0  0
 41109  1  0  0  0
 41 48  1  0  0  0
 42 43  1  0  0  0
 42 66  1  0  0  0
 42110  1  0  0  0
 42111  1  0  0  0
 43 44  1  0  0  0
 44112  1  0  0  0
 45 46  2  0  0  0
 45113  1  0  0  0
 46114  1  0  0  0
 47115  1  0  0  0
 47116  1  0  0  0
 48 56  1  0  0  0
 48 65  1  0  0  0
 48117  1  0  0  0
 49 50  1  0  0  0
 49 53  1  0  0  0
 49 64  1  0  0  0
 49118  1  0  0  0
 50 51  1  0  0  0
 50119  1  0  0  0
 50120  1  0  0  0
 51 52  1  0  0  0
 51121  1  0  0  0
 51122  1  0  0  0
 52123  1  0  0  0
 52124  1  0  0  0
 53 54  1  0  0  0
 54 55  2  0  0  0
 54125  1  0  0  0
 55 57  1  0  0  0
 55126  1  0  0  0
 56 69  2  0  0  0
 57 58  2  0  0  0
 57127  1  0  0  0
 58128  1  0  0  0
 59 60  1  0  0  0
 59 61  1  0  0  0
 59 62  1  0  0  0
 60129  1  0  0  0
 60130  1  0  0  0
 60131  1  0  0  0
 61132  1  0  0  0
 61133  1  0  0  0
 61134  1  0  0  0
 62135  1  0  0  0
 62136  1  0  0  0
 62137  1  0  0  0
 63 65  1  0  0  0
 63138  1  0  0  0
 63139  1  0  0  0
 63140  1  0  0  0
 64141  1  0  0  0
 65142  1  0  0  0
 68 78  1  0  0  0
 71 72  1  0  0  0
 71 73  2  0  0  0
 71143  1  0  0  0
 72 74  2  0  0  0
 72 76  1  0  0  0
 73 77  1  0  0  0
 73 83  1  0  0  0
 74 82  1  0  0  0
 74 83  1  0  0  0
 75 78  1  0  0  0
 75 79  1  0  0  0
 75 81  2  0  0  0
 76144  1  0  0  0
 76145  1  0  0  0
 76146  1  0  0  0
 77 80  1  0  0  0
 77147  1  0  0  0
 77148  1  0  0  0
 78149  1  0  0  0
 78150  1  0  0  0
 79 82  1  0  0  0
 79151  1  0  0  0
 79152  1  0  0  0
 80153  1  0  0  0
M  ISO  4   1 100  68 101  78 101  80 100
M  END
> <chiral flag>
0

> <version>
0

> <s_m_source_file>
/data/baiqing/PycharmProjects/Reinvent-master-3.2/result/LINK_invent/BTK/process_docking_weight1_custom_product_contain_oxygen_bond_distance_aromatic_linkinvent_7_9_3/rearranged_h_0111.sdf

> <i_m_source_file_index>
57

> <r_mmod_Potential_Energy-OPLS-2005>
-65.0234527587891

> <r_mmod_Stretch_Energy-OPLS-2005>
33.9035835266113

> <r_mmod_Bend_Energy-OPLS-2005>
103.20027923584

> <r_mmod_Torsional_Energy-OPLS-2005>
232.805679321289

> <r_mmod_Improper_Torsional_Energy-OPLS-2005>
12.4977579116821

> <r_mmod_Van_der_Waal_Energy-OPLS-2005>
132.507843017578

> <r_mmod_Electrostatic_Energy-OPLS-2005>
-353.994873046875

> <r_mmod_Solvation_Energy-OPLS-2005>
-247.900085449219

> <b_mmod_Minimization_Converged-OPLS-2005>
0

> <r_mmod_RMS_Derivative-OPLS-2005>
4.57960367202759

$$$$
59
                    3D
 Structure written by MMmdl.
167175  0  0  1  0            999 V2000
  -30.5997  -14.7793   20.4853 C   0  0  0  0  0  0
  -30.4537  -12.4756   19.4747 C   0  0  0  0  0  0
  -29.5204  -12.4578   18.2419 C   0  0  0  0  0  0
  -28.0327  -12.3361   18.6413 C   0  0  0  0  0  0
  -27.6451  -13.2138   19.8605 C   0  0  2  0  0  0
  -28.6942  -13.0785   20.9756 C   0  0  0  0  0  0
  -25.2523  -13.8148   20.5670 C   0  0  0  0  0  0
  -24.1788  -13.0424   20.9174 C   0  0  0  0  0  0
  -24.6376  -11.6898   20.8766 C   0  0  0  0  0  0
  -23.9059  -10.4285   21.0438 C   0  0  0  0  0  0
  -24.3623   -9.4198   21.9202 C   0  0  0  0  0  0
  -23.6300   -8.2235   22.0747 C   0  0  0  0  0  0
  -22.4282   -8.0282   21.3546 C   0  0  0  0  0  0
  -21.9921   -9.0256   20.4645 C   0  0  0  0  0  0
  -22.7249  -10.2137   20.3069 C   0  0  0  0  0  0
  -21.6851   -6.0733   22.5280 C   0  0  0  0  0  0
  -21.4006   -6.5631   23.8218 C   0  0  0  0  0  0
  -21.3653   -5.6781   24.9177 C   0  0  0  0  0  0
  -21.6048   -4.3042   24.7225 C   0  0  0  0  0  0
  -21.8817   -3.8139   23.4340 C   0  0  0  0  0  0
  -21.9182   -4.6959   22.3399 C   0  0  0  0  0  0
  -22.7816  -13.5220   21.1855 C   0  0  0  0  0  0
  -22.1650   -4.2153   21.0973 F   0  0  0  0  0  0
  -21.5661   -3.4510   25.7725 F   0  0  0  0  0  0
  -29.9818  -13.5328   20.4089 N   0  0  0  0  0  0
  -26.2943  -12.9320   20.3327 N   0  0  0  0  0  0
  -25.9299  -11.6491   20.5800 N   0  0  0  0  0  0
  -22.0467  -12.8217   22.0429 N   0  0  0  0  0  0
  -25.4269  -15.1862   20.4101 N   0  0  0  0  0  0
  -31.7726  -14.8707   20.1063 O   0  0  0  0  0  0
  -21.6648   -6.8872   21.4245 O   0  0  0  0  0  0
  -22.3491  -14.5522   20.6699 O   0  0  0  0  0  0
  -24.6292  -31.8557   23.1974 C   0  0  0  0  0  0
  -25.9122  -32.4757   23.8324 C   0  0  1  0  0  0
  -27.2343  -27.2682   20.1271 C   0  0  0  0  0  0
  -25.5917  -33.8557   24.2243 N   0  0  0  0  0  0
  -23.4269  -30.4781   21.5379 C   0  0  2  0  0  0
  -24.8789  -28.9213   20.1114 C   0  0  0  0  0  0
  -22.7488  -29.4609   22.4878 C   0  0  0  0  0  0
  -18.0305  -28.1376   22.8503 C   0  0  0  0  0  0
  -24.1487  -36.7278   23.2638 C   0  0  0  0  0  0
  -25.9730  -30.7691   21.3787 C   0  0  0  0  0  0
  -26.0480  -29.3911   20.7216 C   0  0  0  0  0  0
  -27.2239  -28.5745   20.7236 C   0  0  0  0  0  0
  -26.0427  -26.8717   19.4753 C   0  0  0  0  0  0
  -24.8793  -27.6668   19.4822 C   0  0  0  0  0  0
  -23.6480  -29.8065   20.1558 C   0  0  0  0  0  0
  -25.4116  -36.3061   24.0321 C   0  0  1  0  0  0
  -20.5906  -28.3698   23.1262 C   0  0  2  0  0  0
  -20.6788  -26.9411   22.5405 C   0  0  0  0  0  0
  -19.5754  -26.6373   21.5217 C   0  0  0  0  0  0
  -18.1939  -26.7919   22.1635 C   0  0  0  0  0  0
  -19.1556  -28.8850   23.2888 C   0  0  0  0  0  0
  -18.9475  -30.1450   23.8917 C   0  0  0  0  0  0
  -17.6473  -30.6585   24.0554 C   0  0  0  0  0  0
  -25.9057  -34.9436   23.5086 C   0  0  0  0  0  0
  -16.5365  -29.9083   23.6317 C   0  0  0  0  0  0
  -16.7296  -28.6484   23.0373 C   0  0  0  0  0  0
  -26.4476  -31.6579   25.0711 C   0  0  0  0  0  0
  -25.3684  -31.3767   26.1415 C   0  0  0  0  0  0
  -27.0315  -30.2992   24.6204 C   0  0  0  0  0  0
  -27.6029  -32.4314   25.7501 C   0  0  0  0  0  0
  -27.5575  -37.1793   24.8464 C   0  0  0  0  0  0
  -21.4194  -29.3045   22.3625 N   0  0  0  0  0  0
  -26.4292  -37.3761   23.9402 N   0  0  0  0  0  0
  -24.6951  -31.0524   22.0945 N   0  0  0  0  0  0
  -23.4186  -28.8148   23.2972 O   0  0  0  0  0  0
  -28.3423  -26.3899   20.2081 O   0  0  0  0  0  0
  -26.5638  -34.8911   22.4658 O   0  0  0  0  0  0
  -23.5441  -32.1382   23.7266 O   0  0  0  0  0  0
  -29.5705  -18.4841   17.9022 C   0  0  0  0  0  0
  -29.6851  -17.2791   18.6224 C   0  0  0  0  0  0
  -29.8785  -18.6220   20.6557 C   0  0  0  0  0  0
  -29.6605  -19.8745   19.9226 C   0  0  0  0  0  0
  -29.8460  -17.2737   20.0426 C   0  0  0  0  0  0
  -29.5662  -19.7461   18.5143 C   0  0  0  0  0  0
  -27.9849  -16.5677   22.2264 C   0  0  0  0  0  0
  -29.1345  -15.9106   21.9893 C   0  0  0  0  0  0
  -28.9917  -22.2681   20.1231 C   0  0  0  0  0  0
  -29.6100  -16.0202   17.7806 C   0  0  0  0  0  0
  -30.2274  -18.7766   22.1320 C   0  0  0  0  0  0
  -30.6458  -24.2240   20.3243 C   0  0  0  0  0  0
  -30.8217  -21.2646   17.2747 C   0  0  0  0  0  0
  -28.1844  -24.9184   19.9258 C   0  0  0  0  0  0
  -29.1821  -23.8054   20.5571 C   0  0  1  0  0  0
  -29.6795  -21.2125   20.5254 N   0  0  0  0  0  0
  -29.8668  -15.9496   20.7903 N   0  0  0  0  0  0
  -29.5269  -20.8380   17.6843 O   0  0  0  0  0  0
  -31.4838  -12.6339   19.1505 H   0  0  0  0  0  0
  -30.4586  -11.5017   19.9652 H   0  0  0  0  0  0
  -29.7946  -11.6287   17.5871 H   0  0  0  0  0  0
  -29.6780  -13.3499   17.6442 H   0  0  0  0  0  0
  -27.8512  -11.2863   18.8831 H   0  0  0  0  0  0
  -27.3902  -12.5684   17.7911 H   0  0  0  0  0  0
  -27.6455  -14.2499   19.5322 H   0  0  0  0  0  0
  -28.7614  -12.0389   21.2992 H   0  0  0  0  0  0
  -28.3804  -13.6013   21.8724 H   0  0  0  0  0  0
  -25.2772   -9.5676   22.4782 H   0  0  0  0  0  0
  -24.0010   -7.4618   22.7448 H   0  0  0  0  0  0
  -21.0866   -8.8782   19.8926 H   0  0  0  0  0  0
  -22.3730  -10.9689   19.6177 H   0  0  0  0  0  0
  -21.1988   -7.6138   23.9720 H   0  0  0  0  0  0
  -21.1487   -6.0508   25.9084 H   0  0  0  0  0  0
  -22.0606   -2.7600   23.2839 H   0  0  0  0  0  0
  -22.4045  -11.9831   22.4761 H   0  0  0  0  0  0
  -21.1079  -13.1236   22.2634 H   0  0  0  0  0  0
  -24.6811  -15.8559   20.5607 H   0  0  0  0  0  0
  -26.3135  -15.6208   20.1897 H   0  0  0  0  0  0
  -26.7186  -32.5408   23.1066 H   0  0  0  0  0  0
  -25.0003  -33.9693   25.0345 H   0  0  0  0  0  0
  -22.7256  -31.3018   21.3878 H   0  0  0  0  0  0
  -23.3744  -35.9611   23.3291 H   0  0  0  0  0  0
  -24.3583  -36.8911   22.2055 H   0  0  0  0  0  0
  -23.7243  -37.6478   23.6672 H   0  0  0  0  0  0
  -26.1106  -31.5291   20.6085 H   0  0  0  0  0  0
  -26.8510  -30.8217   22.0109 H   0  0  0  0  0  0
  -28.1143  -28.9243   21.2266 H   0  0  0  0  0  0
  -25.9796  -25.9220   18.9657 H   0  0  0  0  0  0
  -23.9821  -27.2987   19.0050 H   0  0  0  0  0  0
  -23.7784  -30.5820   19.4008 H   0  0  0  0  0  0
  -22.7674  -29.2411   19.8466 H   0  0  0  0  0  0
  -25.1300  -36.1896   25.0816 H   0  0  0  0  0  0
  -21.0048  -28.3277   24.1364 H   0  0  0  0  0  0
  -20.5677  -26.2310   23.3613 H   0  0  0  0  0  0
  -21.6648  -26.7411   22.1191 H   0  0  0  0  0  0
  -19.6903  -25.6281   21.1249 H   0  0  0  0  0  0
  -19.6681  -27.3181   20.6745 H   0  0  0  0  0  0
  -17.4203  -26.6692   21.4041 H   0  0  0  0  0  0
  -18.0334  -26.0057   22.9029 H   0  0  0  0  0  0
  -19.7951  -30.7261   24.2295 H   0  0  0  0  0  0
  -17.5029  -31.6277   24.5128 H   0  0  0  0  0  0
  -15.5364  -30.2991   23.7619 H   0  0  0  0  0  0
  -15.8698  -28.0790   22.7104 H   0  0  0  0  0  0
  -24.5850  -30.7132   25.7730 H   0  0  0  0  0  0
  -24.8883  -32.2963   26.4778 H   0  0  0  0  0  0
  -25.7962  -30.8970   27.0225 H   0  0  0  0  0  0
  -26.2911  -29.6760   24.1177 H   0  0  0  0  0  0
  -27.3934  -29.7228   25.4725 H   0  0  0  0  0  0
  -27.8809  -30.4248   23.9488 H   0  0  0  0  0  0
  -27.2625  -33.3607   26.2077 H   0  0  0  0  0  0
  -28.3851  -32.6883   25.0350 H   0  0  0  0  0  0
  -28.0676  -31.8438   26.5425 H   0  0  0  0  0  0
  -28.2577  -38.0103   24.7500 H   0  0  0  0  0  0
  -28.1084  -36.2627   24.6294 H   0  0  0  0  0  0
  -27.2298  -37.1446   25.8872 H   0  0  0  0  0  0
  -20.9363  -29.8771   21.6844 H   0  0  0  0  0  0
  -26.0155  -38.2825   24.1417 H   0  0  0  0  0  0
  -29.4867  -18.4512   16.8250 H   0  0  0  0  0  0
  -27.4862  -16.4824   23.1818 H   0  0  0  0  0  0
  -27.5178  -17.1963   21.4821 H   0  0  0  0  0  0
  -29.5863  -15.2891   22.7530 H   0  0  0  0  0  0
  -28.1921  -22.1551   19.3867 H   0  0  0  0  0  0
  -29.2994  -16.2283   16.7552 H   0  0  0  0  0  0
  -28.8756  -15.3383   18.1909 H   0  0  0  0  0  0
  -30.5845  -15.5347   17.7300 H   0  0  0  0  0  0
  -30.8614  -19.6491   22.2893 H   0  0  0  0  0  0
  -30.7922  -17.9238   22.5064 H   0  0  0  0  0  0
  -29.3307  -18.9078   22.7367 H   0  0  0  0  0  0
  -31.3341  -23.5413   20.8246 H   0  0  0  0  0  0
  -30.8393  -25.2244   20.7122 H   0  0  0  0  0  0
  -30.8971  -24.2271   19.2630 H   0  0  0  0  0  0
  -30.7369  -22.0871   16.5649 H   0  0  0  0  0  0
  -31.3725  -20.4594   16.7859 H   0  0  0  0  0  0
  -31.4103  -21.6143   18.1247 H   0  0  0  0  0  0
  -27.1853  -24.6152   20.2366 H   0  0  0  0  0  0
  -28.2044  -24.8077   18.8407 H   0  0  0  0  0  0
  -29.0158  -23.8289   21.6343 H   0  0  0  0  0  0
  1 25  1  0  0  0
  1 30  2  0  0  0
  1 87  1  0  0  0
  2  3  1  0  0  0
  2 25  1  0  0  0
  2 89  1  0  0  0
  2 90  1  0  0  0
  3  4  1  0  0  0
  3 91  1  0  0  0
  3 92  1  0  0  0
  4  5  1  0  0  0
  4 93  1  0  0  0
  4 94  1  0  0  0
  5  6  1  0  0  0
  5 26  1  0  0  0
  5 95  1  0  0  0
  6 25  1  0  0  0
  6 96  1  0  0  0
  6 97  1  0  0  0
  7  8  2  0  0  0
  7 26  1  0  0  0
  7 29  1  0  0  0
  8  9  1  0  0  0
  8 22  1  0  0  0
  9 10  1  0  0  0
  9 27  2  0  0  0
 10 11  2  0  0  0
 10 15  1  0  0  0
 11 12  1  0  0  0
 11 98  1  0  0  0
 12 13  2  0  0  0
 12 99  1  0  0  0
 13 14  1  0  0  0
 13 31  1  0  0  0
 14 15  2  0  0  0
 14100  1  0  0  0
 15101  1  0  0  0
 16 17  2  0  0  0
 16 21  1  0  0  0
 16 31  1  0  0  0
 17 18  1  0  0  0
 17102  1  0  0  0
 18 19  2  0  0  0
 18103  1  0  0  0
 19 20  1  0  0  0
 19 24  1  0  0  0
 20 21  2  0  0  0
 20104  1  0  0  0
 21 23  1  0  0  0
 22 28  1  0  0  0
 22 32  2  0  0  0
 26 27  1  0  0  0
 28105  1  0  0  0
 28106  1  0  0  0
 29107  1  0  0  0
 29108  1  0  0  0
 33 34  1  0  0  0
 33 66  1  0  0  0
 33 70  2  0  0  0
 34 36  1  0  0  0
 34 59  1  0  0  0
 34109  1  0  0  0
 35 44  2  0  0  0
 35 45  1  0  0  0
 35 68  1  0  0  0
 36 56  1  0  0  0
 36110  1  0  0  0
 37 39  1  0  0  0
 37 47  1  0  0  0
 37 66  1  0  0  0
 37111  1  0  0  0
 38 43  2  0  0  0
 38 46  1  0  0  0
 38 47  1  0  0  0
 39 64  1  0  0  0
 39 67  2  0  0  0
 40 52  1  0  0  0
 40 53  2  0  0  0
 40 58  1  0  0  0
 41112  1  0  0  0
 41113  1  0  0  0
 41114  1  0  0  0
 41 48  1  0  0  0
 42 43  1  0  0  0
 42 66  1  0  0  0
 42115  1  0  0  0
 42116  1  0  0  0
 43 44  1  0  0  0
 44117  1  0  0  0
 45 46  2  0  0  0
 45118  1  0  0  0
 46119  1  0  0  0
 47120  1  0  0  0
 47121  1  0  0  0
 48 56  1  0  0  0
 48 65  1  0  0  0
 48122  1  0  0  0
 49 50  1  0  0  0
 49 53  1  0  0  0
 49 64  1  0  0  0
 49123  1  0  0  0
 50 51  1  0  0  0
 50124  1  0  0  0
 50125  1  0  0  0
 51 52  1  0  0  0
 51126  1  0  0  0
 51127  1  0  0  0
 52128  1  0  0  0
 52129  1  0  0  0
 53 54  1  0  0  0
 54 55  2  0  0  0
 54130  1  0  0  0
 55 57  1  0  0  0
 55131  1  0  0  0
 56 69  2  0  0  0
 57 58  2  0  0  0
 57132  1  0  0  0
 58133  1  0  0  0
 59 60  1  0  0  0
 59 61  1  0  0  0
 59 62  1  0  0  0
 60134  1  0  0  0
 60135  1  0  0  0
 60136  1  0  0  0
 61137  1  0  0  0
 61138  1  0  0  0
 61139  1  0  0  0
 62140  1  0  0  0
 62141  1  0  0  0
 62142  1  0  0  0
 63 65  1  0  0  0
 63143  1  0  0  0
 63144  1  0  0  0
 63145  1  0  0  0
 64146  1  0  0  0
 65147  1  0  0  0
 68 84  1  0  0  0
 71 72  2  0  0  0
 71 76  1  0  0  0
 71148  1  0  0  0
 72 75  1  0  0  0
 72 80  1  0  0  0
 73 74  1  0  0  0
 73 75  2  0  0  0
 73 81  1  0  0  0
 74 76  2  0  0  0
 74 86  1  0  0  0
 75 87  1  0  0  0
 76 88  1  0  0  0
 77 78  2  0  0  0
 77149  1  0  0  0
 77150  1  0  0  0
 78 87  1  0  0  0
 78151  1  0  0  0
 79 85  1  0  0  0
 79 86  2  0  0  0
 79152  1  0  0  0
 80153  1  0  0  0
 80154  1  0  0  0
 80155  1  0  0  0
 81156  1  0  0  0
 81157  1  0  0  0
 81158  1  0  0  0
 82159  1  0  0  0
 82160  1  0  0  0
 82161  1  0  0  0
 82 85  1  0  0  0
 83 88  1  0  0  0
 83162  1  0  0  0
 83163  1  0  0  0
 83164  1  0  0  0
 84 85  1  0  0  0
 84165  1  0  0  0
 84166  1  0  0  0
 85167  1  0  0  0
M  ISO  4   1 100  68 101  84 101  87 100
M  END
> <chiral flag>
0

> <version>
0

> <s_m_source_file>
/data/baiqing/PycharmProjects/Reinvent-master-3.2/result/LINK_invent/BTK/process_docking_weight1_custom_product_contain_oxygen_bond_distance_aromatic_linkinvent_7_9_3/rearranged_h_0111.sdf

> <i_m_source_file_index>
58

> <r_mmod_Potential_Energy-OPLS-2005>
407.795013427734

> <r_mmod_Stretch_Energy-OPLS-2005>
160.292816162109

> <r_mmod_Bend_Energy-OPLS-2005>
181.302810668945

> <r_mmod_Torsional_Energy-OPLS-2005>
351.028747558594

> <r_mmod_Improper_Torsional_Energy-OPLS-2005>
4.99369144439697

> <r_mmod_Van_der_Waal_Energy-OPLS-2005>
168.766998291016

> <r_mmod_Electrostatic_Energy-OPLS-2005>
-343.921173095703

> <r_mmod_Solvation_Energy-OPLS-2005>
-200.44140625

> <b_mmod_Minimization_Converged-OPLS-2005>
0

> <r_mmod_RMS_Derivative-OPLS-2005>
2.56220459938049

$$$$
60
                    3D
 Structure written by MMmdl.
164173  0  0  1  0            999 V2000
  -30.6706  -14.6356   20.5842 C   0  0  0  0  0  0
  -30.4254  -12.4143   19.4618 C   0  0  0  0  0  0
  -29.5055  -12.5349   18.2279 C   0  0  0  0  0  0
  -28.0292  -12.3602   18.6301 C   0  0  0  0  0  0
  -27.6488  -13.2254   19.8592 C   0  0  2  0  0  0
  -28.6830  -13.0759   20.9911 C   0  0  0  0  0  0
  -25.2529  -13.8192   20.5680 C   0  0  0  0  0  0
  -24.1809  -13.0441   20.9171 C   0  0  0  0  0  0
  -24.6390  -11.6916   20.8712 C   0  0  0  0  0  0
  -23.9064  -10.4297   21.0395 C   0  0  0  0  0  0
  -24.3621   -9.4215   21.9175 C   0  0  0  0  0  0
  -23.6300   -8.2249   22.0752 C   0  0  0  0  0  0
  -22.4276   -8.0287   21.3550 C   0  0  0  0  0  0
  -21.9916   -9.0251   20.4639 C   0  0  0  0  0  0
  -22.7238  -10.2131   20.3042 C   0  0  0  0  0  0
  -21.6856   -6.0740   22.5289 C   0  0  0  0  0  0
  -21.4012   -6.5642   23.8222 C   0  0  0  0  0  0
  -21.3663   -5.6795   24.9186 C   0  0  0  0  0  0
  -21.6047   -4.3057   24.7234 C   0  0  0  0  0  0
  -21.8818   -3.8149   23.4352 C   0  0  0  0  0  0
  -21.9193   -4.6968   22.3407 C   0  0  0  0  0  0
  -22.7829  -13.5215   21.1865 C   0  0  0  0  0  0
  -22.1657   -4.2155   21.0984 F   0  0  0  0  0  0
  -21.5635   -3.4539   25.7744 F   0  0  0  0  0  0
  -30.0065  -13.4339   20.4510 N   0  0  0  0  0  0
  -26.2958  -12.9390   20.3270 N   0  0  0  0  0  0
  -25.9315  -11.6532   20.5705 N   0  0  0  0  0  0
  -22.0481  -12.8194   22.0422 N   0  0  0  0  0  0
  -25.4239  -15.1917   20.4183 N   0  0  0  0  0  0
  -31.7657  -14.8026   20.0368 O   0  0  0  0  0  0
  -21.6642   -6.8882   21.4249 O   0  0  0  0  0  0
  -22.3488  -14.5520   20.6734 O   0  0  0  0  0  0
  -24.6289  -31.8588   23.2020 C   0  0  0  0  0  0
  -25.9130  -32.4766   23.8350 C   0  0  1  0  0  0
  -27.2155  -27.2889   20.1276 C   0  0  0  0  0  0
  -25.5934  -33.8570   24.2266 N   0  0  0  0  0  0
  -23.4223  -30.4840   21.5445 C   0  0  2  0  0  0
  -24.8686  -28.9345   20.1123 C   0  0  0  0  0  0
  -22.7476  -29.4642   22.4927 C   0  0  0  0  0  0
  -18.0287  -28.1390   22.8497 C   0  0  0  0  0  0
  -24.1494  -36.7287   23.2636 C   0  0  0  0  0  0
  -25.9675  -30.7780   21.3806 C   0  0  0  0  0  0
  -26.0389  -29.4032   20.7231 C   0  0  0  0  0  0
  -27.2165  -28.5927   20.7200 C   0  0  0  0  0  0
  -26.0276  -26.8904   19.4742 C   0  0  0  0  0  0
  -24.8662  -27.6841   19.4782 C   0  0  0  0  0  0
  -23.6375  -29.8173   20.1611 C   0  0  0  0  0  0
  -25.4119  -36.3073   24.0325 C   0  0  1  0  0  0
  -20.5896  -28.3708   23.1276 C   0  0  2  0  0  0
  -20.6779  -26.9429   22.5409 C   0  0  0  0  0  0
  -19.5748  -26.6393   21.5218 C   0  0  0  0  0  0
  -18.1930  -26.7938   22.1631 C   0  0  0  0  0  0
  -19.1543  -28.8859   23.2882 C   0  0  0  0  0  0
  -18.9464  -30.1461   23.8902 C   0  0  0  0  0  0
  -17.6462  -30.6596   24.0570 C   0  0  0  0  0  0
  -25.9065  -34.9444   23.5097 C   0  0  0  0  0  0
  -16.5354  -29.9095   23.6333 C   0  0  0  0  0  0
  -16.7271  -28.6505   23.0368 C   0  0  0  0  0  0
  -26.4500  -31.6578   25.0732 C   0  0  0  0  0  0
  -25.3710  -31.3721   26.1434 C   0  0  0  0  0  0
  -27.0348  -30.2990   24.6227 C   0  0  0  0  0  0
  -27.6055  -32.4317   25.7505 C   0  0  0  0  0  0
  -27.5586  -37.1790   24.8458 C   0  0  0  0  0  0
  -21.4190  -29.3060   22.3655 N   0  0  0  0  0  0
  -26.4294  -37.3774   23.9411 N   0  0  0  0  0  0
  -24.6916  -31.0578   22.0986 N   0  0  0  0  0  0
  -23.4180  -28.8189   23.3024 O   0  0  0  0  0  0
  -28.3149  -26.4078   20.1627 O   0  0  0  0  0  0
  -26.5640  -34.8915   22.4668 O   0  0  0  0  0  0
  -23.5445  -32.1425   23.7321 O   0  0  0  0  0  0
  -31.0611  -19.3491   20.9544 C   0  0  0  0  0  0
  -31.1386  -17.9449   21.1792 C   0  0  0  0  0  0
  -28.8158  -19.1143   20.1574 C   0  0  0  0  0  0
  -29.8965  -19.9993   20.4485 C   0  0  0  0  0  0
  -30.0577  -17.0703   20.8987 C   0  0  0  0  0  0
  -28.8915  -17.6950   20.3700 C   0  0  0  0  0  0
  -29.0653  -23.8001   20.1536 C   0  0  0  0  0  0
  -28.9384  -22.4501   20.5016 C   0  0  0  0  0  0
  -30.2583  -24.1833   19.3620 C   0  0  0  0  0  0
  -26.5213  -22.0676   20.8547 C   0  0  0  0  0  0
  -29.6370  -16.3279   23.6442 C   0  0  0  0  0  0
  -27.7913  -22.0291   21.2872 C   0  0  0  0  0  0
  -30.0183  -15.4337   22.7122 C   0  0  0  0  0  0
  -30.9871  -23.0660   18.6256 C   0  0  0  0  0  0
  -31.1511  -21.8296   19.5188 C   0  0  0  0  0  0
  -28.0471  -24.9717   20.5071 C   0  0  0  0  0  0
  -29.8966  -21.4286   20.1684 N   0  0  0  0  0  0
  -30.0986  -15.6565   21.3193 N   0  0  0  0  0  0
  -30.6996  -25.3321   19.2658 O   0  0  0  0  0  0
  -27.8111  -16.9266   20.0864 F   0  0  0  0  0  0
  -31.4693  -12.5249   19.1646 H   0  0  0  0  0  0
  -30.3515  -11.4168   19.8979 H   0  0  0  0  0  0
  -29.7791  -11.7938   17.4761 H   0  0  0  0  0  0
  -29.6442  -13.5113   17.7613 H   0  0  0  0  0  0
  -27.8685  -11.3052   18.8558 H   0  0  0  0  0  0
  -27.3774  -12.5925   17.7872 H   0  0  0  0  0  0
  -27.6692  -14.2648   19.5302 H   0  0  0  0  0  0
  -28.6963  -12.0512   21.3644 H   0  0  0  0  0  0
  -28.3780  -13.6900   21.8351 H   0  0  0  0  0  0
  -25.2769   -9.5695   22.4745 H   0  0  0  0  0  0
  -24.0014   -7.4639   22.7474 H   0  0  0  0  0  0
  -21.0850   -8.8757   19.8940 H   0  0  0  0  0  0
  -22.3693  -10.9666   19.6145 H   0  0  0  0  0  0
  -21.1995   -7.6148   23.9728 H   0  0  0  0  0  0
  -21.1489   -6.0524   25.9091 H   0  0  0  0  0  0
  -22.0592   -2.7610   23.2856 H   0  0  0  0  0  0
  -22.4111  -11.9850   22.4794 H   0  0  0  0  0  0
  -21.1102  -13.1212   22.2655 H   0  0  0  0  0  0
  -24.6675  -15.8513   20.5586 H   0  0  0  0  0  0
  -26.3031  -15.6441   20.1866 H   0  0  0  0  0  0
  -26.7196  -32.5425   23.1092 H   0  0  0  0  0  0
  -25.0041  -33.9716   25.0382 H   0  0  0  0  0  0
  -22.7165  -31.3049   21.4006 H   0  0  0  0  0  0
  -23.3767  -35.9609   23.3288 H   0  0  0  0  0  0
  -24.3579  -36.8930   22.2052 H   0  0  0  0  0  0
  -23.7242  -37.6480   23.6674 H   0  0  0  0  0  0
  -26.1075  -31.5416   20.6138 H   0  0  0  0  0  0
  -26.8459  -30.8229   22.0135 H   0  0  0  0  0  0
  -28.1129  -28.9460   21.2090 H   0  0  0  0  0  0
  -25.9710  -25.9514   18.9454 H   0  0  0  0  0  0
  -23.9728  -27.3216   18.9874 H   0  0  0  0  0  0
  -23.7523  -30.5939   19.4045 H   0  0  0  0  0  0
  -22.7570  -29.2462   19.8604 H   0  0  0  0  0  0
  -25.1297  -36.1922   25.0817 H   0  0  0  0  0  0
  -20.9986  -28.3303   24.1401 H   0  0  0  0  0  0
  -20.5692  -26.2324   23.3616 H   0  0  0  0  0  0
  -21.6647  -26.7458   22.1200 H   0  0  0  0  0  0
  -19.6915  -25.6302   21.1253 H   0  0  0  0  0  0
  -19.6687  -27.3201   20.6745 H   0  0  0  0  0  0
  -17.4198  -26.6694   21.4036 H   0  0  0  0  0  0
  -18.0326  -26.0078   22.9020 H   0  0  0  0  0  0
  -19.7935  -30.7280   24.2279 H   0  0  0  0  0  0
  -17.5012  -31.6279   24.5170 H   0  0  0  0  0  0
  -15.5354  -30.2993   23.7651 H   0  0  0  0  0  0
  -15.8676  -28.0812   22.7093 H   0  0  0  0  0  0
  -24.5885  -30.7084   25.7734 H   0  0  0  0  0  0
  -24.8899  -32.2887   26.4855 H   0  0  0  0  0  0
  -25.8008  -30.8879   27.0212 H   0  0  0  0  0  0
  -26.2943  -29.6728   24.1237 H   0  0  0  0  0  0
  -27.4002  -29.7257   25.4760 H   0  0  0  0  0  0
  -27.8831  -30.4250   23.9496 H   0  0  0  0  0  0
  -27.2665  -33.3611   26.2091 H   0  0  0  0  0  0
  -28.3860  -32.6888   25.0331 H   0  0  0  0  0  0
  -28.0731  -31.8435   26.5413 H   0  0  0  0  0  0
  -28.2575  -38.0113   24.7533 H   0  0  0  0  0  0
  -28.1110  -36.2642   24.6251 H   0  0  0  0  0  0
  -27.2297  -37.1395   25.8857 H   0  0  0  0  0  0
  -20.9358  -29.8762   21.6856 H   0  0  0  0  0  0
  -26.0175  -38.2846   24.1423 H   0  0  0  0  0  0
  -31.9326  -19.9354   21.2069 H   0  0  0  0  0  0
  -32.0428  -17.5358   21.6063 H   0  0  0  0  0  0
  -27.9048  -19.5212   19.7448 H   0  0  0  0  0  0
  -25.7104  -21.7426   21.4918 H   0  0  0  0  0  0
  -26.2686  -22.4160   19.8641 H   0  0  0  0  0  0
  -29.6156  -16.0460   24.6879 H   0  0  0  0  0  0
  -29.3409  -17.3392   23.4071 H   0  0  0  0  0  0
  -27.9772  -21.6631   22.2883 H   0  0  0  0  0  0
  -30.2988  -14.4333   23.0208 H   0  0  0  0  0  0
  -31.9592  -23.4187   18.2818 H   0  0  0  0  0  0
  -30.4078  -22.8136   17.7385 H   0  0  0  0  0  0
  -31.8988  -22.0380   20.2861 H   0  0  0  0  0  0
  -31.5463  -21.0172   18.9064 H   0  0  0  0  0  0
  -27.8882  -24.9362   21.5850 H   0  0  0  0  0  0
  -27.1074  -24.6448   20.0745 H   0  0  0  0  0  0
  1 25  1  0  0  0
  1 30  2  0  0  0
  1 88  1  0  0  0
  2  3  1  0  0  0
  2 25  1  0  0  0
  2 91  1  0  0  0
  2 92  1  0  0  0
  3  4  1  0  0  0
  3 93  1  0  0  0
  3 94  1  0  0  0
  4  5  1  0  0  0
  4 95  1  0  0  0
  4 96  1  0  0  0
  5  6  1  0  0  0
  5 26  1  0  0  0
  5 97  1  0  0  0
  6 25  1  0  0  0
  6 98  1  0  0  0
  6 99  1  0  0  0
  7  8  2  0  0  0
  7 26  1  0  0  0
  7 29  1  0  0  0
  8  9  1  0  0  0
  8 22  1  0  0  0
  9 10  1  0  0  0
  9 27  2  0  0  0
 10 11  2  0  0  0
 10 15  1  0  0  0
 11 12  1  0  0  0
 11100  1  0  0  0
 12 13  2  0  0  0
 12101  1  0  0  0
 13 14  1  0  0  0
 13 31  1  0  0  0
 14 15  2  0  0  0
 14102  1  0  0  0
 15103  1  0  0  0
 16 17  2  0  0  0
 16 21  1  0  0  0
 16 31  1  0  0  0
 17 18  1  0  0  0
 17104  1  0  0  0
 18 19  2  0  0  0
 18105  1  0  0  0
 19 20  1  0  0  0
 19 24  1  0  0  0
 20 21  2  0  0  0
 20106  1  0  0  0
 21 23  1  0  0  0
 22 28  1  0  0  0
 22 32  2  0  0  0
 26 27  1  0  0  0
 28107  1  0  0  0
 28108  1  0  0  0
 29109  1  0  0  0
 29110  1  0  0  0
 33 34  1  0  0  0
 33 66  1  0  0  0
 33 70  2  0  0  0
 34 36  1  0  0  0
 34 59  1  0  0  0
 34111  1  0  0  0
 35 44  2  0  0  0
 35 45  1  0  0  0
 35 68  1  0  0  0
 36 56  1  0  0  0
 36112  1  0  0  0
 37 39  1  0  0  0
 37 47  1  0  0  0
 37 66  1  0  0  0
 37113  1  0  0  0
 38 43  2  0  0  0
 38 46  1  0  0  0
 38 47  1  0  0  0
 39 64  1  0  0  0
 39 67  2  0  0  0
 40 52  1  0  0  0
 40 53  2  0  0  0
 40 58  1  0  0  0
 41114  1  0  0  0
 41115  1  0  0  0
 41116  1  0  0  0
 41 48  1  0  0  0
 42 43  1  0  0  0
 42 66  1  0  0  0
 42117  1  0  0  0
 42118  1  0  0  0
 43 44  1  0  0  0
 44119  1  0  0  0
 45 46  2  0  0  0
 45120  1  0  0  0
 46121  1  0  0  0
 47122  1  0  0  0
 47123  1  0  0  0
 48 56  1  0  0  0
 48 65  1  0  0  0
 48124  1  0  0  0
 49 50  1  0  0  0
 49 53  1  0  0  0
 49 64  1  0  0  0
 49125  1  0  0  0
 50 51  1  0  0  0
 50126  1  0  0  0
 50127  1  0  0  0
 51 52  1  0  0  0
 51128  1  0  0  0
 51129  1  0  0  0
 52130  1  0  0  0
 52131  1  0  0  0
 53 54  1  0  0  0
 54 55  2  0  0  0
 54132  1  0  0  0
 55 57  1  0  0  0
 55133  1  0  0  0
 56 69  2  0  0  0
 57 58  2  0  0  0
 57134  1  0  0  0
 58135  1  0  0  0
 59 60  1  0  0  0
 59 61  1  0  0  0
 59 62  1  0  0  0
 60136  1  0  0  0
 60137  1  0  0  0
 60138  1  0  0  0
 61139  1  0  0  0
 61140  1  0  0  0
 61141  1  0  0  0
 62142  1  0  0  0
 62143  1  0  0  0
 62144  1  0  0  0
 63 65  1  0  0  0
 63145  1  0  0  0
 63146  1  0  0  0
 63147  1  0  0  0
 64148  1  0  0  0
 65149  1  0  0  0
 68 86  1  0  0  0
 71 72  2  0  0  0
 71 74  1  0  0  0
 71150  1  0  0  0
 72 75  1  0  0  0
 72151  1  0  0  0
 73 74  2  0  0  0
 73 76  1  0  0  0
 73152  1  0  0  0
 74 87  1  0  0  0
 75 76  2  0  0  0
 75 88  1  0  0  0
 76 90  1  0  0  0
 77 78  2  0  0  0
 77 79  1  0  0  0
 77 86  1  0  0  0
 78 82  1  0  0  0
 78 87  1  0  0  0
 79 84  1  0  0  0
 79 89  2  0  0  0
 80 82  2  0  0  0
 80153  1  0  0  0
 80154  1  0  0  0
 81 83  2  0  0  0
 81155  1  0  0  0
 81156  1  0  0  0
 82157  1  0  0  0
 83 88  1  0  0  0
 83158  1  0  0  0
 84 85  1  0  0  0
 84159  1  0  0  0
 84160  1  0  0  0
 85 87  1  0  0  0
 85161  1  0  0  0
 85162  1  0  0  0
 86163  1  0  0  0
 86164  1  0  0  0
M  ISO  4   1 100  68 101  86 101  88 100
M  END
> <chiral flag>
0

> <version>
0

> <s_m_source_file>
/data/baiqing/PycharmProjects/Reinvent-master-3.2/result/LINK_invent/BTK/process_docking_weight1_custom_product_contain_oxygen_bond_distance_aromatic_linkinvent_7_9_3/rearranged_h_0111.sdf

> <i_m_source_file_index>
59

> <r_mmod_Potential_Energy-OPLS-2005>
273.821075439453

> <r_mmod_Stretch_Energy-OPLS-2005>
107.674034118652

> <r_mmod_Bend_Energy-OPLS-2005>
149.18505859375

> <r_mmod_Torsional_Energy-OPLS-2005>
332.870361328125

> <r_mmod_Improper_Torsional_Energy-OPLS-2005>
4.28487300872803

> <r_mmod_Van_der_Waal_Energy-OPLS-2005>
169.649200439453

> <r_mmod_Electrostatic_Energy-OPLS-2005>
-339.091217041016

> <r_mmod_Solvation_Energy-OPLS-2005>
-204.568939208984

> <b_mmod_Minimization_Converged-OPLS-2005>
0

> <r_mmod_RMS_Derivative-OPLS-2005>
1.60995650291443

$$$$
61
                    3D
 Structure written by MMmdl.
156164  0  0  1  0            999 V2000
  -30.6514  -14.5631   20.5149 C   0  0  0  0  0  0
  -30.4362  -12.3338   19.4654 C   0  0  0  0  0  0
  -29.5071  -12.4476   18.2359 C   0  0  0  0  0  0
  -28.0250  -12.3308   18.6431 C   0  0  0  0  0  0
  -27.6598  -13.2061   19.8713 C   0  0  2  0  0  0
  -28.6995  -13.0435   21.0057 C   0  0  0  0  0  0
  -25.2586  -13.8151   20.5676 C   0  0  0  0  0  0
  -24.1837  -13.0450   20.9184 C   0  0  0  0  0  0
  -24.6386  -11.6904   20.8771 C   0  0  0  0  0  0
  -23.9050  -10.4295   21.0430 C   0  0  0  0  0  0
  -24.3604   -9.4208   21.9205 C   0  0  0  0  0  0
  -23.6283   -8.2239   22.0763 C   0  0  0  0  0  0
  -22.4270   -8.0274   21.3544 C   0  0  0  0  0  0
  -21.9907   -9.0250   20.4656 C   0  0  0  0  0  0
  -22.7225  -10.2139   20.3074 C   0  0  0  0  0  0
  -21.6858   -6.0722   22.5271 C   0  0  0  0  0  0
  -21.4016   -6.5630   23.8203 C   0  0  0  0  0  0
  -21.3669   -5.6793   24.9171 C   0  0  0  0  0  0
  -21.6055   -4.3052   24.7232 C   0  0  0  0  0  0
  -21.8810   -3.8133   23.4351 C   0  0  0  0  0  0
  -21.9187   -4.6945   22.3405 C   0  0  0  0  0  0
  -22.7861  -13.5253   21.1835 C   0  0  0  0  0  0
  -22.1647   -4.2123   21.0984 F   0  0  0  0  0  0
  -21.5645   -3.4546   25.7749 F   0  0  0  0  0  0
  -30.0257  -13.3522   20.4495 N   0  0  0  0  0  0
  -26.3021  -12.9325   20.3374 N   0  0  0  0  0  0
  -25.9320  -11.6494   20.5837 N   0  0  0  0  0  0
  -22.0498  -12.8261   22.0398 N   0  0  0  0  0  0
  -25.4355  -15.1858   20.4021 N   0  0  0  0  0  0
  -31.7935  -14.7441   20.0851 O   0  0  0  0  0  0
  -21.6646   -6.8862   21.4230 O   0  0  0  0  0  0
  -22.3554  -14.5560   20.6671 O   0  0  0  0  0  0
  -24.6155  -31.8658   23.2081 C   0  0  0  0  0  0
  -25.9043  -32.4807   23.8383 C   0  0  1  0  0  0
  -27.2366  -27.4002   20.1107 C   0  0  0  0  0  0
  -25.5899  -33.8609   24.2312 N   0  0  0  0  0  0
  -23.4044  -30.4887   21.5479 C   0  0  2  0  0  0
  -24.8499  -28.9487   20.1111 C   0  0  0  0  0  0
  -22.7413  -29.4642   22.4966 C   0  0  0  0  0  0
  -18.0279  -28.1375   22.8512 C   0  0  0  0  0  0
  -24.1483  -36.7302   23.2638 C   0  0  0  0  0  0
  -25.9323  -30.8231   21.3617 C   0  0  0  0  0  0
  -26.0087  -29.4543   20.7104 C   0  0  0  0  0  0
  -27.1992  -28.6878   20.7053 C   0  0  0  0  0  0
  -26.0529  -26.9130   19.5085 C   0  0  0  0  0  0
  -24.8688  -27.6790   19.5072 C   0  0  0  0  0  0
  -23.6123  -29.8197   20.1612 C   0  0  0  0  0  0
  -25.4107  -36.3102   24.0333 C   0  0  1  0  0  0
  -20.5867  -28.3688   23.1327 C   0  0  2  0  0  0
  -20.6775  -26.9407   22.5474 C   0  0  0  0  0  0
  -19.5807  -26.6471   21.5190 C   0  0  0  0  0  0
  -18.1985  -26.7932   22.1640 C   0  0  0  0  0  0
  -19.1516  -28.8863   23.2893 C   0  0  0  0  0  0
  -18.9427  -30.1503   23.8821 C   0  0  0  0  0  0
  -17.6421  -30.6616   24.0503 C   0  0  0  0  0  0
  -25.9042  -34.9471   23.5125 C   0  0  0  0  0  0
  -16.5320  -29.9071   23.6320 C   0  0  0  0  0  0
  -16.7256  -28.6479   23.0353 C   0  0  0  0  0  0
  -26.4479  -31.6606   25.0717 C   0  0  0  0  0  0
  -25.3758  -31.3696   26.1470 C   0  0  0  0  0  0
  -27.0297  -30.3051   24.6087 C   0  0  0  0  0  0
  -27.6064  -32.4326   25.7475 C   0  0  0  0  0  0
  -27.5570  -37.1804   24.8463 C   0  0  0  0  0  0
  -21.4145  -29.3019   22.3695 N   0  0  0  0  0  0
  -26.4285  -37.3794   23.9411 N   0  0  0  0  0  0
  -24.6694  -31.0742   22.0983 N   0  0  0  0  0  0
  -23.4179  -28.8203   23.3031 O   0  0  0  0  0  0
  -28.4249  -26.6846   20.1616 O   0  0  0  0  0  0
  -26.5606  -34.8923   22.4685 O   0  0  0  0  0  0
  -23.5345  -32.1431   23.7466 O   0  0  0  0  0  0
  -29.3327  -19.4662   19.2470 C   0  0  0  0  0  0
  -29.8151  -16.9425   20.3339 C   0  0  0  0  0  0
  -29.4470  -19.3858   20.6447 C   0  0  0  0  0  0
  -29.6984  -18.0856   21.1777 C   0  0  0  0  0  0
  -29.6894  -17.1819   18.9364 C   0  0  0  0  0  0
  -28.8518  -16.0757   16.8676 C   0  0  0  0  0  0
  -29.6923  -16.1241   17.9162 C   0  0  0  0  0  0
  -28.3209  -24.2151   20.6609 C   0  0  0  0  0  0
  -29.1351  -22.8925   20.5239 C   0  0  0  0  0  0
  -28.5561  -25.3446   19.6183 C   0  0  0  0  0  0
  -28.4483  -21.5973   21.0754 C   0  0  0  0  0  0
  -29.4449  -18.4079   18.4270 N   0  0  0  0  0  0
  -29.8841  -15.6087   20.9113 N   0  0  0  0  0  0
  -27.5184  -24.3715   21.5869 O   0  0  0  0  0  0
  -29.3309  -20.5092   21.4608 O   0  0  0  0  0  0
  -29.7872  -17.9253   22.5216 F   0  0  0  0  0  0
  -31.4780  -12.4475   19.1615 H   0  0  0  0  0  0
  -30.3663  -11.3401   19.9108 H   0  0  0  0  0  0
  -29.7527  -11.6716   17.5102 H   0  0  0  0  0  0
  -29.6755  -13.3876   17.7211 H   0  0  0  0  0  0
  -27.8361  -11.2817   18.8740 H   0  0  0  0  0  0
  -27.3818  -12.5765   17.7977 H   0  0  0  0  0  0
  -27.6906  -14.2424   19.5342 H   0  0  0  0  0  0
  -28.6889  -12.0252   21.3971 H   0  0  0  0  0  0
  -28.4528  -13.6879   21.8515 H   0  0  0  0  0  0
  -25.2745   -9.5687   22.4793 H   0  0  0  0  0  0
  -23.9986   -7.4636   22.7492 H   0  0  0  0  0  0
  -21.0837   -8.8767   19.8973 H   0  0  0  0  0  0
  -22.3671  -10.9679   19.6193 H   0  0  0  0  0  0
  -21.1999   -7.6139   23.9688 H   0  0  0  0  0  0
  -21.1518   -6.0537   25.9075 H   0  0  0  0  0  0
  -22.0584   -2.7591   23.2869 H   0  0  0  0  0  0
  -22.4097  -11.9907   22.4766 H   0  0  0  0  0  0
  -21.1141  -13.1331   22.2638 H   0  0  0  0  0  0
  -24.6626  -15.8393   20.4611 H   0  0  0  0  0  0
  -26.2856  -15.6078   20.0529 H   0  0  0  0  0  0
  -26.7092  -32.5518   23.1127 H   0  0  0  0  0  0
  -25.0035  -33.9776   25.0445 H   0  0  0  0  0  0
  -22.6929  -31.3061   21.4107 H   0  0  0  0  0  0
  -23.3743  -35.9639   23.3318 H   0  0  0  0  0  0
  -24.3570  -36.8905   22.2046 H   0  0  0  0  0  0
  -23.7237  -37.6509   23.6650 H   0  0  0  0  0  0
  -26.0448  -31.5871   20.5913 H   0  0  0  0  0  0
  -26.8202  -30.8803   21.9798 H   0  0  0  0  0  0
  -28.0913  -29.0752   21.1774 H   0  0  0  0  0  0
  -26.0129  -25.9369   19.0492 H   0  0  0  0  0  0
  -23.9749  -27.2803   19.0463 H   0  0  0  0  0  0
  -23.7203  -30.5970   19.4037 H   0  0  0  0  0  0
  -22.7333  -29.2422   19.8657 H   0  0  0  0  0  0
  -25.1284  -36.1960   25.0825 H   0  0  0  0  0  0
  -20.9946  -28.3291   24.1455 H   0  0  0  0  0  0
  -20.5548  -26.2316   23.3692 H   0  0  0  0  0  0
  -21.6678  -26.7374   22.1365 H   0  0  0  0  0  0
  -19.6990  -25.6431   21.1108 H   0  0  0  0  0  0
  -19.6744  -27.3392   20.6794 H   0  0  0  0  0  0
  -17.4237  -26.6630   21.4079 H   0  0  0  0  0  0
  -18.0454  -26.0097   22.9068 H   0  0  0  0  0  0
  -19.7911  -30.7376   24.2071 H   0  0  0  0  0  0
  -17.4974  -31.6330   24.5049 H   0  0  0  0  0  0
  -15.5311  -30.2966   23.7615 H   0  0  0  0  0  0
  -15.8667  -28.0801   22.7030 H   0  0  0  0  0  0
  -24.5933  -30.7043   25.7798 H   0  0  0  0  0  0
  -24.8946  -32.2836   26.4960 H   0  0  0  0  0  0
  -25.8130  -30.8833   27.0202 H   0  0  0  0  0  0
  -26.2819  -29.6819   24.1150 H   0  0  0  0  0  0
  -27.4065  -29.7289   25.4550 H   0  0  0  0  0  0
  -27.8672  -30.4361   23.9229 H   0  0  0  0  0  0
  -27.2690  -33.3609   26.2099 H   0  0  0  0  0  0
  -28.3849  -32.6914   25.0288 H   0  0  0  0  0  0
  -28.0758  -31.8420   26.5350 H   0  0  0  0  0  0
  -28.2605  -38.0086   24.7500 H   0  0  0  0  0  0
  -28.1055  -36.2618   24.6311 H   0  0  0  0  0  0
  -27.2289  -37.1478   25.8870 H   0  0  0  0  0  0
  -20.9333  -29.8690   21.6860 H   0  0  0  0  0  0
  -26.0168  -38.2870   24.1432 H   0  0  0  0  0  0
  -29.1520  -20.4108   18.7561 H   0  0  0  0  0  0
  -28.9160  -15.2877   16.1329 H   0  0  0  0  0  0
  -28.0850  -16.8251   16.7315 H   0  0  0  0  0  0
  -30.4567  -15.3712   17.9985 H   0  0  0  0  0  0
  -30.0649  -23.0526   21.0695 H   0  0  0  0  0  0
  -29.4141  -22.7577   19.4787 H   0  0  0  0  0  0
  -27.9256  -25.1917   18.7445 H   0  0  0  0  0  0
  -29.5830  -25.2482   19.2650 H   0  0  0  0  0  0
  -27.6851  -21.2563   20.3744 H   0  0  0  0  0  0
  -27.9000  -21.8455   21.9855 H   0  0  0  0  0  0
  -29.0938  -15.3565   21.4874 H   0  0  0  0  0  0
  1 25  1  0  0  0
  1 30  2  0  0  0
  1 83  1  0  0  0
  2  3  1  0  0  0
  2 25  1  0  0  0
  2 87  1  0  0  0
  2 88  1  0  0  0
  3  4  1  0  0  0
  3 89  1  0  0  0
  3 90  1  0  0  0
  4  5  1  0  0  0
  4 91  1  0  0  0
  4 92  1  0  0  0
  5  6  1  0  0  0
  5 26  1  0  0  0
  5 93  1  0  0  0
  6 25  1  0  0  0
  6 94  1  0  0  0
  6 95  1  0  0  0
  7  8  2  0  0  0
  7 26  1  0  0  0
  7 29  1  0  0  0
  8  9  1  0  0  0
  8 22  1  0  0  0
  9 10  1  0  0  0
  9 27  2  0  0  0
 10 11  2  0  0  0
 10 15  1  0  0  0
 11 12  1  0  0  0
 11 96  1  0  0  0
 12 13  2  0  0  0
 12 97  1  0  0  0
 13 14  1  0  0  0
 13 31  1  0  0  0
 14 15  2  0  0  0
 14 98  1  0  0  0
 15 99  1  0  0  0
 16 17  2  0  0  0
 16 21  1  0  0  0
 16 31  1  0  0  0
 17 18  1  0  0  0
 17100  1  0  0  0
 18 19  2  0  0  0
 18101  1  0  0  0
 19 20  1  0  0  0
 19 24  1  0  0  0
 20 21  2  0  0  0
 20102  1  0  0  0
 21 23  1  0  0  0
 22 28  1  0  0  0
 22 32  2  0  0  0
 26 27  1  0  0  0
 28103  1  0  0  0
 28104  1  0  0  0
 29105  1  0  0  0
 29106  1  0  0  0
 33 34  1  0  0  0
 33 66  1  0  0  0
 33 70  2  0  0  0
 34 36  1  0  0  0
 34 59  1  0  0  0
 34107  1  0  0  0
 35 44  2  0  0  0
 35 45  1  0  0  0
 35 68  1  0  0  0
 36 56  1  0  0  0
 36108  1  0  0  0
 37 39  1  0  0  0
 37 47  1  0  0  0
 37 66  1  0  0  0
 37109  1  0  0  0
 38 43  2  0  0  0
 38 46  1  0  0  0
 38 47  1  0  0  0
 39 64  1  0  0  0
 39 67  2  0  0  0
 40 52  1  0  0  0
 40 53  2  0  0  0
 40 58  1  0  0  0
 41110  1  0  0  0
 41111  1  0  0  0
 41112  1  0  0  0
 41 48  1  0  0  0
 42 43  1  0  0  0
 42 66  1  0  0  0
 42113  1  0  0  0
 42114  1  0  0  0
 43 44  1  0  0  0
 44115  1  0  0  0
 45 46  2  0  0  0
 45116  1  0  0  0
 46117  1  0  0  0
 47118  1  0  0  0
 47119  1  0  0  0
 48 56  1  0  0  0
 48 65  1  0  0  0
 48120  1  0  0  0
 49 50  1  0  0  0
 49 53  1  0  0  0
 49 64  1  0  0  0
 49121  1  0  0  0
 50 51  1  0  0  0
 50122  1  0  0  0
 50123  1  0  0  0
 51 52  1  0  0  0
 51124  1  0  0  0
 51125  1  0  0  0
 52126  1  0  0  0
 52127  1  0  0  0
 53 54  1  0  0  0
 54 55  2  0  0  0
 54128  1  0  0  0
 55 57  1  0  0  0
 55129  1  0  0  0
 56 69  2  0  0  0
 57 58  2  0  0  0
 57130  1  0  0  0
 58131  1  0  0  0
 59 60  1  0  0  0
 59 61  1  0  0  0
 59 62  1  0  0  0
 60132  1  0  0  0
 60133  1  0  0  0
 60134  1  0  0  0
 61135  1  0  0  0
 61136  1  0  0  0
 61137  1  0  0  0
 62138  1  0  0  0
 62139  1  0  0  0
 62140  1  0  0  0
 63 65  1  0  0  0
 63141  1  0  0  0
 63142  1  0  0  0
 63143  1  0  0  0
 64144  1  0  0  0
 65145  1  0  0  0
 68 80  1  0  0  0
 71 73  2  0  0  0
 71 82  1  0  0  0
 71146  1  0  0  0
 72 74  2  0  0  0
 72 75  1  0  0  0
 72 83  1  0  0  0
 73 74  1  0  0  0
 73 85  1  0  0  0
 74 86  1  0  0  0
 75 77  1  0  0  0
 75 82  2  0  0  0
 76 77  2  0  0  0
 76147  1  0  0  0
 76148  1  0  0  0
 77149  1  0  0  0
 78 79  1  0  0  0
 78 80  1  0  0  0
 78 84  2  0  0  0
 79 81  1  0  0  0
 79150  1  0  0  0
 79151  1  0  0  0
 80152  1  0  0  0
 80153  1  0  0  0
 81 85  1  0  0  0
 81154  1  0  0  0
 81155  1  0  0  0
 83156  1  0  0  0
M  ISO  4   1 100  68 101  80 101  83 100
M  END
> <chiral flag>
0

> <version>
0

> <s_m_source_file>
/data/baiqing/PycharmProjects/Reinvent-master-3.2/result/LINK_invent/BTK/process_docking_weight1_custom_product_contain_oxygen_bond_distance_aromatic_linkinvent_7_9_3/rearranged_h_0111.sdf

> <i_m_source_file_index>
60

> <r_mmod_Potential_Energy-OPLS-2005>
-172.652740478516

> <r_mmod_Stretch_Energy-OPLS-2005>
52.4811897277832

> <r_mmod_Bend_Energy-OPLS-2005>
126.292915344238

> <r_mmod_Torsional_Energy-OPLS-2005>
259.648681640625

> <r_mmod_Improper_Torsional_Energy-OPLS-2005>
6.53160190582275

> <r_mmod_Van_der_Waal_Energy-OPLS-2005>
152.874664306641

> <r_mmod_Electrostatic_Energy-OPLS-2005>
-558.382873535156

> <r_mmod_Solvation_Energy-OPLS-2005>
-237.345611572266

> <b_mmod_Minimization_Converged-OPLS-2005>
0

> <r_mmod_RMS_Derivative-OPLS-2005>
2.19362092018127

$$$$
62
                    3D
 Structure written by MMmdl.
163171  0  0  1  0            999 V2000
  -30.6998  -14.6798   20.5722 C   0  0  0  0  0  0
  -30.4274  -12.4369   19.4837 C   0  0  0  0  0  0
  -29.5166  -12.5290   18.2400 C   0  0  0  0  0  0
  -28.0418  -12.3379   18.6397 C   0  0  0  0  0  0
  -27.6442  -13.2217   19.8498 C   0  0  2  0  0  0
  -28.6822  -13.1270   20.9906 C   0  0  0  0  0  0
  -25.2401  -13.8085   20.5631 C   0  0  0  0  0  0
  -24.1746  -13.0330   20.9204 C   0  0  0  0  0  0
  -24.6389  -11.6844   20.8752 C   0  0  0  0  0  0
  -23.9076  -10.4241   21.0404 C   0  0  0  0  0  0
  -24.3621   -9.4163   21.9179 C   0  0  0  0  0  0
  -23.6290   -8.2203   22.0744 C   0  0  0  0  0  0
  -22.4274   -8.0256   21.3526 C   0  0  0  0  0  0
  -21.9914   -9.0232   20.4631 C   0  0  0  0  0  0
  -22.7252  -10.2097   20.3049 C   0  0  0  0  0  0
  -21.6845   -6.0735   22.5288 C   0  0  0  0  0  0
  -21.4001   -6.5631   23.8221 C   0  0  0  0  0  0
  -21.3655   -5.6777   24.9180 C   0  0  0  0  0  0
  -21.6057   -4.3046   24.7225 C   0  0  0  0  0  0
  -21.8814   -3.8142   23.4341 C   0  0  0  0  0  0
  -21.9183   -4.6967   22.3402 C   0  0  0  0  0  0
  -22.7757  -13.5137   21.1859 C   0  0  0  0  0  0
  -22.1653   -4.2156   21.0982 F   0  0  0  0  0  0
  -21.5623   -3.4529   25.7734 F   0  0  0  0  0  0
  -30.0111  -13.4820   20.4532 N   0  0  0  0  0  0
  -26.2909  -12.9345   20.3221 N   0  0  0  0  0  0
  -25.9326  -11.6494   20.5736 N   0  0  0  0  0  0
  -22.0399  -12.8162   22.0432 N   0  0  0  0  0  0
  -25.3794  -15.1788   20.3983 N   0  0  0  0  0  0
  -31.7875  -14.8111   20.0039 O   0  0  0  0  0  0
  -21.6619   -6.8878   21.4252 O   0  0  0  0  0  0
  -22.3442  -14.5428   20.6689 O   0  0  0  0  0  0
  -24.6231  -31.8611   23.2037 C   0  0  0  0  0  0
  -25.9077  -32.4789   23.8363 C   0  0  1  0  0  0
  -27.2295  -27.3268   20.1218 C   0  0  0  0  0  0
  -25.5907  -33.8592   24.2285 N   0  0  0  0  0  0
  -23.4169  -30.4848   21.5455 C   0  0  2  0  0  0
  -24.8666  -28.9430   20.1141 C   0  0  0  0  0  0
  -22.7455  -29.4620   22.4931 C   0  0  0  0  0  0
  -18.0274  -28.1373   22.8468 C   0  0  0  0  0  0
  -24.1489  -36.7293   23.2641 C   0  0  0  0  0  0
  -25.9588  -30.7945   21.3771 C   0  0  0  0  0  0
  -26.0360  -29.4239   20.7169 C   0  0  0  0  0  0
  -27.2211  -28.6307   20.7074 C   0  0  0  0  0  0
  -26.0388  -26.9003   19.4887 C   0  0  0  0  0  0
  -24.8713  -27.6862   19.4921 C   0  0  0  0  0  0
  -23.6313  -29.8182   20.1609 C   0  0  0  0  0  0
  -25.4120  -36.3090   24.0332 C   0  0  1  0  0  0
  -20.5873  -28.3671   23.1278 C   0  0  2  0  0  0
  -20.6758  -26.9392   22.5409 C   0  0  0  0  0  0
  -19.5747  -26.6367   21.5195 C   0  0  0  0  0  0
  -18.1932  -26.7919   22.1603 C   0  0  0  0  0  0
  -19.1531  -28.8837   23.2862 C   0  0  0  0  0  0
  -18.9461  -30.1440   23.8881 C   0  0  0  0  0  0
  -17.6466  -30.6584   24.0553 C   0  0  0  0  0  0
  -25.9059  -34.9463   23.5111 C   0  0  0  0  0  0
  -16.5348  -29.9088   23.6324 C   0  0  0  0  0  0
  -16.7263  -28.6501   23.0345 C   0  0  0  0  0  0
  -26.4472  -31.6608   25.0736 C   0  0  0  0  0  0
  -25.3704  -31.3773   26.1468 C   0  0  0  0  0  0
  -27.0309  -30.3026   24.6210 C   0  0  0  0  0  0
  -27.6019  -32.4359   25.7511 C   0  0  0  0  0  0
  -27.5583  -37.1801   24.8458 C   0  0  0  0  0  0
  -21.4170  -29.3029   22.3681 N   0  0  0  0  0  0
  -26.4295  -37.3785   23.9408 N   0  0  0  0  0  0
  -24.6844  -31.0625   22.0983 N   0  0  0  0  0  0
  -23.4202  -28.8159   23.2989 O   0  0  0  0  0  0
  -28.3553  -26.4862   20.1518 O   0  0  0  0  0  0
  -26.5624  -34.8921   22.4677 O   0  0  0  0  0  0
  -23.5397  -32.1411   23.7371 O   0  0  0  0  0  0
  -31.1594  -19.4843   21.0622 C   0  0  0  0  0  0
  -31.2405  -18.0776   21.2993 C   0  0  0  0  0  0
  -29.0877  -17.8146   20.2453 C   0  0  0  0  0  0
  -30.1960  -17.1817   20.8998 C   0  0  0  0  0  0
  -29.0260  -19.2353   20.0045 C   0  0  0  0  0  0
  -30.0523  -20.1195   20.4469 C   0  0  0  0  0  0
  -29.4495  -16.3676   23.5644 C   0  0  0  0  0  0
  -29.9713  -15.5010   22.6775 C   0  0  0  0  0  0
  -32.4772  -17.5812   22.0318 C   0  0  0  0  0  0
  -27.9244  -16.9430   19.8227 C   0  0  0  0  0  0
  -29.3229  -24.0045   20.2397 C   0  0  0  0  0  0
  -28.1377  -25.0478   20.4441 C   0  0  0  0  0  0
  -29.0192  -22.4574   20.5246 C   0  0  0  0  0  0
  -27.9593  -19.7667   19.2795 N   0  0  0  0  0  0
  -30.1738  -15.7425   21.3016 N   0  0  0  0  0  0
  -30.1110  -21.5182   20.2215 O   0  0  0  0  0  0
  -31.4736  -12.5347   19.1884 H   0  0  0  0  0  0
  -30.3442  -11.4496   19.9419 H   0  0  0  0  0  0
  -29.8087  -11.7791   17.5030 H   0  0  0  0  0  0
  -29.6465  -13.4988   17.7546 H   0  0  0  0  0  0
  -27.8982  -11.2861   18.8875 H   0  0  0  0  0  0
  -27.3936  -12.5443   17.7877 H   0  0  0  0  0  0
  -27.6471  -14.2439   19.4799 H   0  0  0  0  0  0
  -28.7038  -12.1177   21.4053 H   0  0  0  0  0  0
  -28.3629  -13.7717   21.8051 H   0  0  0  0  0  0
  -25.2770   -9.5631   22.4750 H   0  0  0  0  0  0
  -23.9983   -7.4600   22.7464 H   0  0  0  0  0  0
  -21.0834   -8.8782   19.8947 H   0  0  0  0  0  0
  -22.3738  -10.9637   19.6159 H   0  0  0  0  0  0
  -21.1989   -7.6142   23.9741 H   0  0  0  0  0  0
  -21.1481   -6.0499   25.9088 H   0  0  0  0  0  0
  -22.0599   -2.7607   23.2844 H   0  0  0  0  0  0
  -22.4005  -11.9861   22.4893 H   0  0  0  0  0  0
  -21.1016  -13.1209   22.2603 H   0  0  0  0  0  0
  -24.5975  -15.8113   20.5186 H   0  0  0  0  0  0
  -26.2182  -15.6348   20.0707 H   0  0  0  0  0  0
  -26.7135  -32.5456   23.1103 H   0  0  0  0  0  0
  -25.0015  -33.9751   25.0401 H   0  0  0  0  0  0
  -22.7096  -31.3043   21.4033 H   0  0  0  0  0  0
  -23.3768  -35.9603   23.3301 H   0  0  0  0  0  0
  -24.3575  -36.8920   22.2054 H   0  0  0  0  0  0
  -23.7226  -37.6491   23.6664 H   0  0  0  0  0  0
  -26.0974  -31.5628   20.6155 H   0  0  0  0  0  0
  -26.8354  -30.8358   22.0124 H   0  0  0  0  0  0
  -28.1178  -29.0035   21.1837 H   0  0  0  0  0  0
  -25.9807  -25.9519   18.9751 H   0  0  0  0  0  0
  -23.9750  -27.3168   19.0134 H   0  0  0  0  0  0
  -23.7478  -30.5948   19.4054 H   0  0  0  0  0  0
  -22.7536  -29.2425   19.8616 H   0  0  0  0  0  0
  -25.1308  -36.1949   25.0823 H   0  0  0  0  0  0
  -20.9945  -28.3239   24.1401 H   0  0  0  0  0  0
  -20.5630  -26.2279   23.3605 H   0  0  0  0  0  0
  -21.6637  -26.7412   22.1221 H   0  0  0  0  0  0
  -19.6917  -25.6277   21.1228 H   0  0  0  0  0  0
  -19.6710  -27.3164   20.6725 H   0  0  0  0  0  0
  -17.4196  -26.6634   21.4010 H   0  0  0  0  0  0
  -18.0352  -26.0069   22.9014 H   0  0  0  0  0  0
  -19.7947  -30.7240   24.2255 H   0  0  0  0  0  0
  -17.5039  -31.6271   24.5145 H   0  0  0  0  0  0
  -15.5356  -30.2993   23.7674 H   0  0  0  0  0  0
  -15.8655  -28.0827   22.7075 H   0  0  0  0  0  0
  -24.5839  -30.7171   25.7799 H   0  0  0  0  0  0
  -24.8950  -32.2957   26.4918 H   0  0  0  0  0  0
  -25.8020  -30.8920   27.0229 H   0  0  0  0  0  0
  -26.2892  -29.6804   24.1188 H   0  0  0  0  0  0
  -27.3939  -29.7273   25.4741 H   0  0  0  0  0  0
  -27.8793  -30.4313   23.9483 H   0  0  0  0  0  0
  -27.2595  -33.3632   26.2127 H   0  0  0  0  0  0
  -28.3805  -32.6982   25.0332 H   0  0  0  0  0  0
  -28.0713  -31.8472   26.5405 H   0  0  0  0  0  0
  -28.2600  -38.0102   24.7522 H   0  0  0  0  0  0
  -28.1086  -36.2637   24.6272 H   0  0  0  0  0  0
  -27.2296  -37.1433   25.8858 H   0  0  0  0  0  0
  -20.9349  -29.8773   21.6910 H   0  0  0  0  0  0
  -26.0187  -38.2855   24.1442 H   0  0  0  0  0  0
  -31.9821  -20.1092   21.3794 H   0  0  0  0  0  0
  -29.3437  -16.0837   24.6018 H   0  0  0  0  0  0
  -29.1170  -17.3581   23.2905 H   0  0  0  0  0  0
  -30.2814  -14.5171   23.0101 H   0  0  0  0  0  0
  -33.3672  -18.1069   21.6801 H   0  0  0  0  0  0
  -32.6546  -16.5177   21.8856 H   0  0  0  0  0  0
  -32.3805  -17.7660   23.1022 H   0  0  0  0  0  0
  -27.7287  -16.2244   20.6146 H   0  0  0  0  0  0
  -28.1678  -16.4176   18.9004 H   0  0  0  0  0  0
  -26.9967  -17.4940   19.6710 H   0  0  0  0  0  0
  -30.1665  -24.3142   20.8572 H   0  0  0  0  0  0
  -29.6687  -24.0963   19.2095 H   0  0  0  0  0  0
  -27.8125  -24.9910   21.4839 H   0  0  0  0  0  0
  -27.3068  -24.6527   19.8666 H   0  0  0  0  0  0
  -28.1278  -22.1943   19.9621 H   0  0  0  0  0  0
  -28.7619  -22.3384   21.5784 H   0  0  0  0  0  0
  -27.1445  -19.2168   19.0328 H   0  0  0  0  0  0
  -27.9332  -20.7464   19.0233 H   0  0  0  0  0  0
  1 25  1  0  0  0
  1 30  2  0  0  0
  1 85  1  0  0  0
  2  3  1  0  0  0
  2 25  1  0  0  0
  2 87  1  0  0  0
  2 88  1  0  0  0
  3  4  1  0  0  0
  3 89  1  0  0  0
  3 90  1  0  0  0
  4  5  1  0  0  0
  4 91  1  0  0  0
  4 92  1  0  0  0
  5  6  1  0  0  0
  5 26  1  0  0  0
  5 93  1  0  0  0
  6 25  1  0  0  0
  6 94  1  0  0  0
  6 95  1  0  0  0
  7  8  2  0  0  0
  7 26  1  0  0  0
  7 29  1  0  0  0
  8  9  1  0  0  0
  8 22  1  0  0  0
  9 10  1  0  0  0
  9 27  2  0  0  0
 10 11  2  0  0  0
 10 15  1  0  0  0
 11 12  1  0  0  0
 11 96  1  0  0  0
 12 13  2  0  0  0
 12 97  1  0  0  0
 13 14  1  0  0  0
 13 31  1  0  0  0
 14 15  2  0  0  0
 14 98  1  0  0  0
 15 99  1  0  0  0
 16 17  2  0  0  0
 16 21  1  0  0  0
 16 31  1  0  0  0
 17 18  1  0  0  0
 17100  1  0  0  0
 18 19  2  0  0  0
 18101  1  0  0  0
 19 20  1  0  0  0
 19 24  1  0  0  0
 20 21  2  0  0  0
 20102  1  0  0  0
 21 23  1  0  0  0
 22 28  1  0  0  0
 22 32  2  0  0  0
 26 27  1  0  0  0
 28103  1  0  0  0
 28104  1  0  0  0
 29105  1  0  0  0
 29106  1  0  0  0
 33 34  1  0  0  0
 33 66  1  0  0  0
 33 70  2  0  0  0
 34 36  1  0  0  0
 34 59  1  0  0  0
 34107  1  0  0  0
 35 44  2  0  0  0
 35 45  1  0  0  0
 35 68  1  0  0  0
 36 56  1  0  0  0
 36108  1  0  0  0
 37 39  1  0  0  0
 37 47  1  0  0  0
 37 66  1  0  0  0
 37109  1  0  0  0
 38 43  2  0  0  0
 38 46  1  0  0  0
 38 47  1  0  0  0
 39 64  1  0  0  0
 39 67  2  0  0  0
 40 52  1  0  0  0
 40 53  2  0  0  0
 40 58  1  0  0  0
 41110  1  0  0  0
 41111  1  0  0  0
 41112  1  0  0  0
 41 48  1  0  0  0
 42 43  1  0  0  0
 42 66  1  0  0  0
 42113  1  0  0  0
 42114  1  0  0  0
 43 44  1  0  0  0
 44115  1  0  0  0
 45 46  2  0  0  0
 45116  1  0  0  0
 46117  1  0  0  0
 47118  1  0  0  0
 47119  1  0  0  0
 48 56  1  0  0  0
 48 65  1  0  0  0
 48120  1  0  0  0
 49 50  1  0  0  0
 49 53  1  0  0  0
 49 64  1  0  0  0
 49121  1  0  0  0
 50 51  1  0  0  0
 50122  1  0  0  0
 50123  1  0  0  0
 51 52  1  0  0  0
 51124  1  0  0  0
 51125  1  0  0  0
 52126  1  0  0  0
 52127  1  0  0  0
 53 54  1  0  0  0
 54 55  2  0  0  0
 54128  1  0  0  0
 55 57  1  0  0  0
 55129  1  0  0  0
 56 69  2  0  0  0
 57 58  2  0  0  0
 57130  1  0  0  0
 58131  1  0  0  0
 59 60  1  0  0  0
 59 61  1  0  0  0
 59 62  1  0  0  0
 60132  1  0  0  0
 60133  1  0  0  0
 60134  1  0  0  0
 61135  1  0  0  0
 61136  1  0  0  0
 61137  1  0  0  0
 62138  1  0  0  0
 62139  1  0  0  0
 62140  1  0  0  0
 63 65  1  0  0  0
 63141  1  0  0  0
 63142  1  0  0  0
 63143  1  0  0  0
 64144  1  0  0  0
 65145  1  0  0  0
 68 82  1  0  0  0
 71 72  2  0  0  0
 71 76  1  0  0  0
 71146  1  0  0  0
 72 74  1  0  0  0
 72 79  1  0  0  0
 73 74  2  0  0  0
 73 75  1  0  0  0
 73 80  1  0  0  0
 74 85  1  0  0  0
 75 76  2  0  0  0
 75 84  1  0  0  0
 76 86  1  0  0  0
 77 78  2  0  0  0
 77147  1  0  0  0
 77148  1  0  0  0
 78 85  1  0  0  0
 78149  1  0  0  0
 79150  1  0  0  0
 79151  1  0  0  0
 79152  1  0  0  0
 80153  1  0  0  0
 80154  1  0  0  0
 80155  1  0  0  0
 81 82  1  0  0  0
 81 83  1  0  0  0
 81156  1  0  0  0
 81157  1  0  0  0
 82158  1  0  0  0
 82159  1  0  0  0
 83 86  1  0  0  0
 83160  1  0  0  0
 83161  1  0  0  0
 84162  1  0  0  0
 84163  1  0  0  0
M  ISO  4   1 100  68 101  82 101  85 100
M  END
> <chiral flag>
0

> <version>
0

> <s_m_source_file>
/data/baiqing/PycharmProjects/Reinvent-master-3.2/result/LINK_invent/BTK/process_docking_weight1_custom_product_contain_oxygen_bond_distance_aromatic_linkinvent_7_9_3/rearranged_h_0111.sdf

> <i_m_source_file_index>
61

> <r_mmod_Potential_Energy-OPLS-2005>
261.132019042969

> <r_mmod_Stretch_Energy-OPLS-2005>
101.472587585449

> <r_mmod_Bend_Energy-OPLS-2005>
166.3974609375

> <r_mmod_Torsional_Energy-OPLS-2005>
336.3115234375

> <r_mmod_Improper_Torsional_Energy-OPLS-2005>
4.02856922149658

> <r_mmod_Van_der_Waal_Energy-OPLS-2005>
160.386016845703

> <r_mmod_Electrostatic_Energy-OPLS-2005>
-357.491638183594

> <r_mmod_Solvation_Energy-OPLS-2005>
-202.975067138672

> <b_mmod_Minimization_Converged-OPLS-2005>
0

> <r_mmod_RMS_Derivative-OPLS-2005>
2.57619881629944

$$$$
63
                    3D
 Structure written by MMmdl.
159168  0  0  1  0            999 V2000
  -30.6455  -14.5742   20.5607 C   0  0  0  0  0  0
  -30.4477  -12.3661   19.4400 C   0  0  0  0  0  0
  -29.5099  -12.5119   18.2197 C   0  0  0  0  0  0
  -28.0319  -12.3557   18.6285 C   0  0  0  0  0  0
  -27.6637  -13.2081   19.8702 C   0  0  2  0  0  0
  -28.7066  -13.0117   20.9952 C   0  0  0  0  0  0
  -25.2615  -13.8175   20.5667 C   0  0  0  0  0  0
  -24.1874  -13.0459   20.9219 C   0  0  0  0  0  0
  -24.6411  -11.6918   20.8758 C   0  0  0  0  0  0
  -23.9071  -10.4299   21.0413 C   0  0  0  0  0  0
  -24.3621   -9.4210   21.9187 C   0  0  0  0  0  0
  -23.6294   -8.2246   22.0755 C   0  0  0  0  0  0
  -22.4274   -8.0285   21.3542 C   0  0  0  0  0  0
  -21.9907   -9.0260   20.4653 C   0  0  0  0  0  0
  -22.7243  -10.2135   20.3063 C   0  0  0  0  0  0
  -21.6850   -6.0726   22.5273 C   0  0  0  0  0  0
  -21.4013   -6.5632   23.8206 C   0  0  0  0  0  0
  -21.3659   -5.6783   24.9166 C   0  0  0  0  0  0
  -21.6045   -4.3046   24.7229 C   0  0  0  0  0  0
  -21.8822   -3.8136   23.4347 C   0  0  0  0  0  0
  -21.9197   -4.6950   22.3399 C   0  0  0  0  0  0
  -22.7887  -13.5253   21.1864 C   0  0  0  0  0  0
  -22.1676   -4.2133   21.0977 F   0  0  0  0  0  0
  -21.5627   -3.4541   25.7751 F   0  0  0  0  0  0
  -30.0348  -13.3543   20.4533 N   0  0  0  0  0  0
  -26.3039  -12.9337   20.3317 N   0  0  0  0  0  0
  -25.9335  -11.6501   20.5746 N   0  0  0  0  0  0
  -22.0486  -12.8268   22.0405 N   0  0  0  0  0  0
  -25.4343  -15.1889   20.3996 N   0  0  0  0  0  0
  -31.7495  -14.8075   20.0606 O   0  0  0  0  0  0
  -21.6633   -6.8883   21.4237 O   0  0  0  0  0  0
  -22.3590  -14.5545   20.6686 O   0  0  0  0  0  0
  -24.6211  -31.8647   23.2052 C   0  0  0  0  0  0
  -25.9074  -32.4808   23.8382 C   0  0  1  0  0  0
  -27.2402  -27.3803   20.1037 C   0  0  0  0  0  0
  -25.5912  -33.8606   24.2320 N   0  0  0  0  0  0
  -23.4155  -30.4842   21.5462 C   0  0  2  0  0  0
  -24.8677  -28.9461   20.1108 C   0  0  0  0  0  0
  -22.7461  -29.4634   22.4950 C   0  0  0  0  0  0
  -18.0296  -28.1390   22.8496 C   0  0  0  0  0  0
  -24.1485  -36.7295   23.2639 C   0  0  0  0  0  0
  -25.9514  -30.8107   21.3708 C   0  0  0  0  0  0
  -26.0322  -29.4424   20.7138 C   0  0  0  0  0  0
  -27.2243  -28.6670   20.7085 C   0  0  0  0  0  0
  -26.0594  -26.9165   19.4884 C   0  0  0  0  0  0
  -24.8789  -27.6837   19.4935 C   0  0  0  0  0  0
  -23.6296  -29.8168   20.1616 C   0  0  0  0  0  0
  -25.4107  -36.3101   24.0344 C   0  0  1  0  0  0
  -20.5890  -28.3692   23.1291 C   0  0  2  0  0  0
  -20.6784  -26.9418   22.5418 C   0  0  0  0  0  0
  -19.5758  -26.6393   21.5222 C   0  0  0  0  0  0
  -18.1935  -26.7942   22.1621 C   0  0  0  0  0  0
  -19.1545  -28.8857   23.2891 C   0  0  0  0  0  0
  -18.9469  -30.1457   23.8915 C   0  0  0  0  0  0
  -17.6466  -30.6587   24.0578 C   0  0  0  0  0  0
  -25.9040  -34.9468   23.5133 C   0  0  0  0  0  0
  -16.5360  -29.9093   23.6323 C   0  0  0  0  0  0
  -16.7282  -28.6507   23.0352 C   0  0  0  0  0  0
  -26.4476  -31.6599   25.0728 C   0  0  0  0  0  0
  -25.3734  -31.3748   26.1482 C   0  0  0  0  0  0
  -27.0280  -30.3020   24.6138 C   0  0  0  0  0  0
  -27.6075  -32.4307   25.7466 C   0  0  0  0  0  0
  -27.5585  -37.1799   24.8464 C   0  0  0  0  0  0
  -21.4179  -29.3043   22.3681 N   0  0  0  0  0  0
  -26.4295  -37.3784   23.9412 N   0  0  0  0  0  0
  -24.6807  -31.0685   22.0986 N   0  0  0  0  0  0
  -23.4195  -28.8191   23.3030 O   0  0  0  0  0  0
  -28.3329  -26.5232   20.1378 O   0  0  0  0  0  0
  -26.5602  -34.8930   22.4691 O   0  0  0  0  0  0
  -23.5382  -32.1431   23.7401 O   0  0  0  0  0  0
  -28.5497  -18.9737   21.6530 C   0  0  0  0  0  0
  -30.6942  -17.8141   20.3319 C   0  0  0  0  0  0
  -28.7307  -17.5718   21.7169 C   0  0  0  0  0  0
  -29.8224  -16.9570   21.0569 C   0  0  0  0  0  0
  -29.4369  -19.8036   20.9223 C   0  0  0  0  0  0
  -28.4380  -24.1137   20.8167 C   0  0  0  0  0  0
  -28.1763  -25.4444   21.0016 C   0  0  0  0  0  0
  -27.9815  -23.1140   21.8791 C   0  0  0  0  0  0
  -29.0199  -23.4250   19.5701 C   0  0  0  0  0  0
  -28.9519  -21.9330   22.1066 C   0  0  0  0  0  0
  -29.8443  -22.1027   19.8364 C   0  0  0  0  0  0
  -30.4674  -19.1693   20.2898 N   0  3  0  0  0  0
  -29.2521  -21.2267   20.8604 N   0  0  0  0  0  0
  -27.8288  -16.7743   22.4352 N   0  0  0  0  0  0
  -29.9211  -15.5213   21.2008 N   0  0  0  0  0  0
  -31.4872  -12.4986   19.1348 H   0  0  0  0  0  0
  -30.3869  -11.3596   19.8562 H   0  0  0  0  0  0
  -29.7653  -11.7723   17.4603 H   0  0  0  0  0  0
  -29.6606  -13.4887   17.7565 H   0  0  0  0  0  0
  -27.8543  -11.3010   18.8408 H   0  0  0  0  0  0
  -27.3818  -12.6085   17.7894 H   0  0  0  0  0  0
  -27.6993  -14.2506   19.5546 H   0  0  0  0  0  0
  -28.7071  -11.9751   21.3336 H   0  0  0  0  0  0
  -28.4446  -13.5998   21.8754 H   0  0  0  0  0  0
  -25.2776   -9.5673   22.4750 H   0  0  0  0  0  0
  -23.9982   -7.4639   22.7488 H   0  0  0  0  0  0
  -21.0822   -8.8804   19.8977 H   0  0  0  0  0  0
  -22.3720  -10.9673   19.6163 H   0  0  0  0  0  0
  -21.2000   -7.6137   23.9720 H   0  0  0  0  0  0
  -21.1473   -6.0500   25.9073 H   0  0  0  0  0  0
  -22.0597   -2.7594   23.2855 H   0  0  0  0  0  0
  -22.4063  -11.9929   22.4824 H   0  0  0  0  0  0
  -21.1108  -13.1333   22.2586 H   0  0  0  0  0  0
  -24.6237  -15.8003   20.4092 H   0  0  0  0  0  0
  -26.1961  -15.5677   19.8521 H   0  0  0  0  0  0
  -26.7153  -32.5504   23.1151 H   0  0  0  0  0  0
  -25.0068  -33.9766   25.0472 H   0  0  0  0  0  0
  -22.7064  -31.3016   21.4024 H   0  0  0  0  0  0
  -23.3753  -35.9622   23.3310 H   0  0  0  0  0  0
  -24.3589  -36.8894   22.2052 H   0  0  0  0  0  0
  -23.7228  -37.6500   23.6643 H   0  0  0  0  0  0
  -26.0752  -31.5749   20.6024 H   0  0  0  0  0  0
  -26.8342  -30.8632   21.9965 H   0  0  0  0  0  0
  -28.1179  -29.0338   21.1941 H   0  0  0  0  0  0
  -26.0514  -25.9393   19.0254 H   0  0  0  0  0  0
  -23.9857  -27.2920   19.0273 H   0  0  0  0  0  0
  -23.7409  -30.5933   19.4038 H   0  0  0  0  0  0
  -22.7530  -29.2391   19.8620 H   0  0  0  0  0  0
  -25.1277  -36.1975   25.0837 H   0  0  0  0  0  0
  -20.9988  -28.3290   24.1410 H   0  0  0  0  0  0
  -20.5694  -26.2306   23.3618 H   0  0  0  0  0  0
  -21.6657  -26.7456   22.1210 H   0  0  0  0  0  0
  -19.6917  -25.6309   21.1240 H   0  0  0  0  0  0
  -19.6692  -27.3215   20.6763 H   0  0  0  0  0  0
  -17.4207  -26.6713   21.4016 H   0  0  0  0  0  0
  -18.0311  -26.0077   22.9002 H   0  0  0  0  0  0
  -19.7943  -30.7275   24.2286 H   0  0  0  0  0  0
  -17.5017  -31.6263   24.5183 H   0  0  0  0  0  0
  -15.5359  -30.2997   23.7629 H   0  0  0  0  0  0
  -15.8687  -28.0820   22.7064 H   0  0  0  0  0  0
  -24.5892  -30.7103   25.7832 H   0  0  0  0  0  0
  -24.8944  -32.2922   26.4914 H   0  0  0  0  0  0
  -25.8077  -30.8929   27.0249 H   0  0  0  0  0  0
  -26.2813  -29.6801   24.1181 H   0  0  0  0  0  0
  -27.4002  -29.7248   25.4610 H   0  0  0  0  0  0
  -27.8683  -30.4303   23.9314 H   0  0  0  0  0  0
  -27.2727  -33.3616   26.2051 H   0  0  0  0  0  0
  -28.3864  -32.6847   25.0264 H   0  0  0  0  0  0
  -28.0757  -31.8420   26.5364 H   0  0  0  0  0  0
  -28.2622  -38.0081   24.7507 H   0  0  0  0  0  0
  -28.1065  -36.2617   24.6286 H   0  0  0  0  0  0
  -27.2314  -37.1450   25.8872 H   0  0  0  0  0  0
  -20.9353  -29.8738   21.6872 H   0  0  0  0  0  0
  -26.0189  -38.2865   24.1419 H   0  0  0  0  0  0
  -27.6982  -19.4153   22.1460 H   0  0  0  0  0  0
  -31.5626  -17.4593   19.7900 H   0  0  0  0  0  0
  -27.7084  -25.7757   21.9208 H   0  0  0  0  0  0
  -27.0159  -22.7167   21.5631 H   0  0  0  0  0  0
  -27.8017  -23.6272   22.8247 H   0  0  0  0  0  0
  -29.6081  -24.1351   18.9871 H   0  0  0  0  0  0
  -28.1682  -23.1611   18.9425 H   0  0  0  0  0  0
  -28.5449  -21.2711   22.8684 H   0  0  0  0  0  0
  -29.8910  -22.3065   22.5163 H   0  0  0  0  0  0
  -30.8484  -22.3679   20.1700 H   0  0  0  0  0  0
  -29.9695  -21.5527   18.9039 H   0  0  0  0  0  0
  -31.1311  -19.7424   19.7628 H   0  0  0  0  0  0
  -27.0933  -17.2877   22.9042 H   0  0  0  0  0  0
  -27.4030  -16.0297   21.8981 H   0  0  0  0  0  0
  -29.1516  -15.1509   21.7380 H   0  0  0  0  0  0
  1 25  1  0  0  0
  1 30  2  0  0  0
  1 85  1  0  0  0
  2  3  1  0  0  0
  2 25  1  0  0  0
  2 86  1  0  0  0
  2 87  1  0  0  0
  3  4  1  0  0  0
  3 88  1  0  0  0
  3 89  1  0  0  0
  4  5  1  0  0  0
  4 90  1  0  0  0
  4 91  1  0  0  0
  5  6  1  0  0  0
  5 26  1  0  0  0
  5 92  1  0  0  0
  6 25  1  0  0  0
  6 93  1  0  0  0
  6 94  1  0  0  0
  7  8  2  0  0  0
  7 26  1  0  0  0
  7 29  1  0  0  0
  8  9  1  0  0  0
  8 22  1  0  0  0
  9 10  1  0  0  0
  9 27  2  0  0  0
 10 11  2  0  0  0
 10 15  1  0  0  0
 11 12  1  0  0  0
 11 95  1  0  0  0
 12 13  2  0  0  0
 12 96  1  0  0  0
 13 14  1  0  0  0
 13 31  1  0  0  0
 14 15  2  0  0  0
 14 97  1  0  0  0
 15 98  1  0  0  0
 16 17  2  0  0  0
 16 21  1  0  0  0
 16 31  1  0  0  0
 17 18  1  0  0  0
 17 99  1  0  0  0
 18 19  2  0  0  0
 18100  1  0  0  0
 19 20  1  0  0  0
 19 24  1  0  0  0
 20 21  2  0  0  0
 20101  1  0  0  0
 21 23  1  0  0  0
 22 28  1  0  0  0
 22 32  2  0  0  0
 26 27  1  0  0  0
 28102  1  0  0  0
 28103  1  0  0  0
 29104  1  0  0  0
 29105  1  0  0  0
 33 34  1  0  0  0
 33 66  1  0  0  0
 33 70  2  0  0  0
 34 36  1  0  0  0
 34 59  1  0  0  0
 34106  1  0  0  0
 35 44  2  0  0  0
 35 45  1  0  0  0
 35 68  1  0  0  0
 36 56  1  0  0  0
 36107  1  0  0  0
 37 39  1  0  0  0
 37 47  1  0  0  0
 37 66  1  0  0  0
 37108  1  0  0  0
 38 43  2  0  0  0
 38 46  1  0  0  0
 38 47  1  0  0  0
 39 64  1  0  0  0
 39 67  2  0  0  0
 40 52  1  0  0  0
 40 53  2  0  0  0
 40 58  1  0  0  0
 41109  1  0  0  0
 41110  1  0  0  0
 41111  1  0  0  0
 41 48  1  0  0  0
 42 43  1  0  0  0
 42 66  1  0  0  0
 42112  1  0  0  0
 42113  1  0  0  0
 43 44  1  0  0  0
 44114  1  0  0  0
 45 46  2  0  0  0
 45115  1  0  0  0
 46116  1  0  0  0
 47117  1  0  0  0
 47118  1  0  0  0
 48 56  1  0  0  0
 48 65  1  0  0  0
 48119  1  0  0  0
 49 50  1  0  0  0
 49 53  1  0  0  0
 49 64  1  0  0  0
 49120  1  0  0  0
 50 51  1  0  0  0
 50121  1  0  0  0
 50122  1  0  0  0
 51 52  1  0  0  0
 51123  1  0  0  0
 51124  1  0  0  0
 52125  1  0  0  0
 52126  1  0  0  0
 53 54  1  0  0  0
 54 55  2  0  0  0
 54127  1  0  0  0
 55 57  1  0  0  0
 55128  1  0  0  0
 56 69  2  0  0  0
 57 58  2  0  0  0
 57129  1  0  0  0
 58130  1  0  0  0
 59 60  1  0  0  0
 59 61  1  0  0  0
 59 62  1  0  0  0
 60131  1  0  0  0
 60132  1  0  0  0
 60133  1  0  0  0
 61134  1  0  0  0
 61135  1  0  0  0
 61136  1  0  0  0
 62137  1  0  0  0
 62138  1  0  0  0
 62139  1  0  0  0
 63 65  1  0  0  0
 63140  1  0  0  0
 63141  1  0  0  0
 63142  1  0  0  0
 64143  1  0  0  0
 65144  1  0  0  0
 68 77  1  0  0  0
 71 73  2  0  0  0
 71 75  1  0  0  0
 71145  1  0  0  0
 72 74  2  0  0  0
 72 82  1  0  0  0
 72146  1  0  0  0
 73 74  1  0  0  0
 73 84  1  0  0  0
 74 85  1  0  0  0
 75 82  2  0  0  0
 75 83  1  0  0  0
 76 77  2  0  0  0
 76 78  1  0  0  0
 76 79  1  0  0  0
 77147  1  0  0  0
 78 80  1  0  0  0
 78148  1  0  0  0
 78149  1  0  0  0
 79 81  1  0  0  0
 79150  1  0  0  0
 79151  1  0  0  0
 80 83  1  0  0  0
 80152  1  0  0  0
 80153  1  0  0  0
 81 83  1  0  0  0
 81154  1  0  0  0
 81155  1  0  0  0
 82156  1  0  0  0
 84157  1  0  0  0
 84158  1  0  0  0
 85159  1  0  0  0
M  CHG  1  82   1
M  ISO  4   1 100  68 101  77 101  85 100
M  END
> <chiral flag>
0

> <version>
0

> <s_m_source_file>
/data/baiqing/PycharmProjects/Reinvent-master-3.2/result/LINK_invent/BTK/process_docking_weight1_custom_product_contain_oxygen_bond_distance_aromatic_linkinvent_7_9_3/rearranged_h_0111.sdf

> <i_m_source_file_index>
62

> <r_mmod_Potential_Energy-OPLS-2005>
-156.725051879883

> <r_mmod_Stretch_Energy-OPLS-2005>
56.5812149047852

> <r_mmod_Bend_Energy-OPLS-2005>
144.361846923828

> <r_mmod_Torsional_Energy-OPLS-2005>
258.393859863281

> <r_mmod_Improper_Torsional_Energy-OPLS-2005>
12.3629636764526

> <r_mmod_Van_der_Waal_Energy-OPLS-2005>
154.059585571289

> <r_mmod_Electrostatic_Energy-OPLS-2005>
-414.02978515625

> <r_mmod_Solvation_Energy-OPLS-2005>
-399.184051513672

> <b_mmod_Minimization_Converged-OPLS-2005>
0

> <r_mmod_RMS_Derivative-OPLS-2005>
2.03311228752136

$$$$
64
                    3D
 Structure written by MMmdl.
150158  0  0  1  0            999 V2000
  -30.6031  -14.6807   20.4724 C   0  0  0  0  0  0
  -30.4387  -12.4100   19.4584 C   0  0  0  0  0  0
  -29.5087  -12.5017   18.2268 C   0  0  0  0  0  0
  -28.0312  -12.3381   18.6392 C   0  0  0  0  0  0
  -27.6482  -13.2177   19.8587 C   0  0  2  0  0  0
  -28.6948  -13.0960   20.9900 C   0  0  0  0  0  0
  -25.2542  -13.8174   20.5701 C   0  0  0  0  0  0
  -24.1814  -13.0434   20.9205 C   0  0  0  0  0  0
  -24.6383  -11.6906   20.8748 C   0  0  0  0  0  0
  -23.9057  -10.4290   21.0416 C   0  0  0  0  0  0
  -24.3609   -9.4205   21.9192 C   0  0  0  0  0  0
  -23.6285   -8.2241   22.0760 C   0  0  0  0  0  0
  -22.4268   -8.0282   21.3552 C   0  0  0  0  0  0
  -21.9902   -9.0255   20.4656 C   0  0  0  0  0  0
  -22.7228  -10.2135   20.3066 C   0  0  0  0  0  0
  -21.6848   -6.0739   22.5285 C   0  0  0  0  0  0
  -21.4010   -6.5643   23.8218 C   0  0  0  0  0  0
  -21.3657   -5.6797   24.9180 C   0  0  0  0  0  0
  -21.6045   -4.3061   24.7228 C   0  0  0  0  0  0
  -21.8810   -3.8152   23.4349 C   0  0  0  0  0  0
  -21.9188   -4.6967   22.3406 C   0  0  0  0  0  0
  -22.7837  -13.5231   21.1869 C   0  0  0  0  0  0
  -22.1662   -4.2154   21.0981 F   0  0  0  0  0  0
  -21.5627   -3.4543   25.7743 F   0  0  0  0  0  0
  -30.0047  -13.4447   20.4196 N   0  0  0  0  0  0
  -26.2962  -12.9350   20.3311 N   0  0  0  0  0  0
  -25.9313  -11.6506   20.5759 N   0  0  0  0  0  0
  -22.0469  -12.8234   22.0420 N   0  0  0  0  0  0
  -25.4249  -15.1899   20.4152 N   0  0  0  0  0  0
  -31.7864  -14.8102   20.1350 O   0  0  0  0  0  0
  -21.6636   -6.8879   21.4248 O   0  0  0  0  0  0
  -22.3533  -14.5541   20.6712 O   0  0  0  0  0  0
  -24.6278  -31.8586   23.2028 C   0  0  0  0  0  0
  -25.9118  -32.4774   23.8361 C   0  0  1  0  0  0
  -27.2182  -27.3011   20.1148 C   0  0  0  0  0  0
  -25.5926  -33.8576   24.2285 N   0  0  0  0  0  0
  -23.4220  -30.4841   21.5447 C   0  0  2  0  0  0
  -24.8681  -28.9404   20.1091 C   0  0  0  0  0  0
  -22.7481  -29.4619   22.4913 C   0  0  0  0  0  0
  -18.0287  -28.1380   22.8480 C   0  0  0  0  0  0
  -24.1486  -36.7293   23.2638 C   0  0  0  0  0  0
  -25.9656  -30.7851   21.3764 C   0  0  0  0  0  0
  -26.0389  -29.4122   20.7154 C   0  0  0  0  0  0
  -27.2179  -28.6048   20.7074 C   0  0  0  0  0  0
  -26.0221  -26.8909   19.4813 C   0  0  0  0  0  0
  -24.8625  -27.6865   19.4824 C   0  0  0  0  0  0
  -23.6383  -29.8235   20.1586 C   0  0  0  0  0  0
  -25.4109  -36.3077   24.0329 C   0  0  1  0  0  0
  -20.5890  -28.3687   23.1269 C   0  0  2  0  0  0
  -20.6775  -26.9407   22.5402 C   0  0  0  0  0  0
  -19.5751  -26.6378   21.5203 C   0  0  0  0  0  0
  -18.1933  -26.7923   22.1619 C   0  0  0  0  0  0
  -19.1542  -28.8847   23.2875 C   0  0  0  0  0  0
  -18.9465  -30.1448   23.8896 C   0  0  0  0  0  0
  -17.6465  -30.6582   24.0556 C   0  0  0  0  0  0
  -25.9046  -34.9446   23.5105 C   0  0  0  0  0  0
  -16.5354  -29.9080   23.6324 C   0  0  0  0  0  0
  -16.7275  -28.6496   23.0348 C   0  0  0  0  0  0
  -26.4496  -31.6591   25.0739 C   0  0  0  0  0  0
  -25.3732  -31.3729   26.1469 C   0  0  0  0  0  0
  -27.0345  -30.3015   24.6207 C   0  0  0  0  0  0
  -27.6053  -32.4329   25.7512 C   0  0  0  0  0  0
  -27.5576  -37.1798   24.8461 C   0  0  0  0  0  0
  -21.4191  -29.3046   22.3664 N   0  0  0  0  0  0
  -26.4282  -37.3775   23.9412 N   0  0  0  0  0  0
  -24.6907  -31.0592   22.0980 N   0  0  0  0  0  0
  -23.4202  -28.8148   23.2985 O   0  0  0  0  0  0
  -28.3238  -26.4299   20.1702 O   0  0  0  0  0  0
  -26.5612  -34.8912   22.4669 O   0  0  0  0  0  0
  -23.5438  -32.1383   23.7350 O   0  0  0  0  0  0
  -30.8896  -19.1945   20.4281 C   0  0  0  0  0  0
  -29.7008  -19.9746   20.5006 C   0  0  0  0  0  0
  -28.5578  -19.1413   20.6236 C   0  0  0  0  0  0
  -29.7994  -17.1529   20.6088 C   0  0  0  0  0  0
  -28.9152  -22.3589   20.3012 C   0  0  0  0  0  0
  -29.2125  -23.9143   20.4178 C   0  0  0  0  0  0
  -28.0805  -24.9659   20.0143 C   0  0  0  0  0  0
  -30.9409  -17.8311   20.4766 N   0  0  0  0  0  0
  -28.6167  -17.7848   20.6813 N   0  0  0  0  0  0
  -29.8034  -21.4257   20.5181 N   0  0  0  0  0  0
  -27.2803  -19.6627   20.7441 N   0  0  0  0  0  0
  -29.7572  -15.7398   20.7199 N   0  0  0  0  0  0
  -31.4806  -12.5338   19.1575 H   0  0  0  0  0  0
  -30.3772  -11.4212   19.9151 H   0  0  0  0  0  0
  -29.7762  -11.7389   17.4948 H   0  0  0  0  0  0
  -29.6480  -13.4633   17.7300 H   0  0  0  0  0  0
  -27.8712  -11.2869   18.8809 H   0  0  0  0  0  0
  -27.3756  -12.5573   17.7953 H   0  0  0  0  0  0
  -27.6553  -14.2474   19.5026 H   0  0  0  0  0  0
  -28.7157  -12.0792   21.3845 H   0  0  0  0  0  0
  -28.4390  -13.7384   21.8347 H   0  0  0  0  0  0
  -25.2752   -9.5684   22.4770 H   0  0  0  0  0  0
  -24.0003   -7.4625   22.7466 H   0  0  0  0  0  0
  -21.0839   -8.8763   19.8957 H   0  0  0  0  0  0
  -22.3683  -10.9673   19.6178 H   0  0  0  0  0  0
  -21.2004   -7.6152   23.9723 H   0  0  0  0  0  0
  -21.1490   -6.0531   25.9084 H   0  0  0  0  0  0
  -22.0590   -2.7615   23.2848 H   0  0  0  0  0  0
  -22.4073  -11.9897   22.4827 H   0  0  0  0  0  0
  -21.1086  -13.1272   22.2608 H   0  0  0  0  0  0
  -24.6574  -15.8409   20.5413 H   0  0  0  0  0  0
  -26.2756  -15.6434   20.1060 H   0  0  0  0  0  0
  -26.7184  -32.5439   23.1107 H   0  0  0  0  0  0
  -25.0076  -33.9722   25.0431 H   0  0  0  0  0  0
  -22.7162  -31.3051   21.4023 H   0  0  0  0  0  0
  -23.3744  -35.9629   23.3293 H   0  0  0  0  0  0
  -24.3580  -36.8924   22.2055 H   0  0  0  0  0  0
  -23.7241  -37.6494   23.6666 H   0  0  0  0  0  0
  -26.1001  -31.5503   20.6108 H   0  0  0  0  0  0
  -26.8449  -30.8319   22.0074 H   0  0  0  0  0  0
  -28.1154  -28.9610   21.1933 H   0  0  0  0  0  0
  -25.9487  -25.9355   18.9848 H   0  0  0  0  0  0
  -23.9660  -27.3218   19.0002 H   0  0  0  0  0  0
  -23.7600  -30.6024   19.4048 H   0  0  0  0  0  0
  -22.7576  -29.2559   19.8530 H   0  0  0  0  0  0
  -25.1285  -36.1923   25.0820 H   0  0  0  0  0  0
  -20.9986  -28.3260   24.1388 H   0  0  0  0  0  0
  -20.5658  -26.2296   23.3603 H   0  0  0  0  0  0
  -21.6645  -26.7420   22.1204 H   0  0  0  0  0  0
  -19.6910  -25.6285   21.1242 H   0  0  0  0  0  0
  -19.6692  -27.3176   20.6723 H   0  0  0  0  0  0
  -17.4197  -26.6653   21.4032 H   0  0  0  0  0  0
  -18.0347  -26.0069   22.9021 H   0  0  0  0  0  0
  -19.7940  -30.7262   24.2274 H   0  0  0  0  0  0
  -17.5016  -31.6267   24.5149 H   0  0  0  0  0  0
  -15.5354  -30.2982   23.7649 H   0  0  0  0  0  0
  -15.8673  -28.0813   22.7069 H   0  0  0  0  0  0
  -24.5913  -30.7065   25.7806 H   0  0  0  0  0  0
  -24.8917  -32.2895   26.4888 H   0  0  0  0  0  0
  -25.8067  -30.8921   27.0249 H   0  0  0  0  0  0
  -26.2931  -29.6764   24.1220 H   0  0  0  0  0  0
  -27.4024  -29.7271   25.4719 H   0  0  0  0  0  0
  -27.8804  -30.4298   23.9451 H   0  0  0  0  0  0
  -27.2661  -33.3630   26.2085 H   0  0  0  0  0  0
  -28.3871  -32.6890   25.0348 H   0  0  0  0  0  0
  -28.0713  -31.8458   26.5438 H   0  0  0  0  0  0
  -28.2578  -38.0108   24.7516 H   0  0  0  0  0  0
  -28.1083  -36.2639   24.6267 H   0  0  0  0  0  0
  -27.2297  -37.1425   25.8864 H   0  0  0  0  0  0
  -20.9358  -29.8791   21.6901 H   0  0  0  0  0  0
  -26.0158  -38.2843   24.1429 H   0  0  0  0  0  0
  -31.8477  -19.6867   20.3472 H   0  0  0  0  0  0
  -27.8859  -22.1307   20.0158 H   0  0  0  0  0  0
  -30.0996  -24.1232   19.8205 H   0  0  0  0  0  0
  -29.4999  -24.1093   21.4505 H   0  0  0  0  0  0
  -27.1909  -24.7102   20.5931 H   0  0  0  0  0  0
  -27.8295  -24.7812   18.9693 H   0  0  0  0  0  0
  -27.1260  -20.6083   20.4270 H   0  0  0  0  0  0
  -26.5045  -19.0372   20.5734 H   0  0  0  0  0  0
  -28.8342  -15.4157   20.9487 H   0  0  0  0  0  0
  1 25  1  0  0  0
  1 30  2  0  0  0
  1 82  1  0  0  0
  2  3  1  0  0  0
  2 25  1  0  0  0
  2 83  1  0  0  0
  2 84  1  0  0  0
  3  4  1  0  0  0
  3 85  1  0  0  0
  3 86  1  0  0  0
  4  5  1  0  0  0
  4 87  1  0  0  0
  4 88  1  0  0  0
  5  6  1  0  0  0
  5 26  1  0  0  0
  5 89  1  0  0  0
  6 25  1  0  0  0
  6 90  1  0  0  0
  6 91  1  0  0  0
  7  8  2  0  0  0
  7 26  1  0  0  0
  7 29  1  0  0  0
  8  9  1  0  0  0
  8 22  1  0  0  0
  9 10  1  0  0  0
  9 27  2  0  0  0
 10 11  2  0  0  0
 10 15  1  0  0  0
 11 12  1  0  0  0
 11 92  1  0  0  0
 12 13  2  0  0  0
 12 93  1  0  0  0
 13 14  1  0  0  0
 13 31  1  0  0  0
 14 15  2  0  0  0
 14 94  1  0  0  0
 15 95  1  0  0  0
 16 17  2  0  0  0
 16 21  1  0  0  0
 16 31  1  0  0  0
 17 18  1  0  0  0
 17 96  1  0  0  0
 18 19  2  0  0  0
 18 97  1  0  0  0
 19 20  1  0  0  0
 19 24  1  0  0  0
 20 21  2  0  0  0
 20 98  1  0  0  0
 21 23  1  0  0  0
 22 28  1  0  0  0
 22 32  2  0  0  0
 26 27  1  0  0  0
 28 99  1  0  0  0
 28100  1  0  0  0
 29101  1  0  0  0
 29102  1  0  0  0
 33 34  1  0  0  0
 33 66  1  0  0  0
 33 70  2  0  0  0
 34 36  1  0  0  0
 34 59  1  0  0  0
 34103  1  0  0  0
 35 44  2  0  0  0
 35 45  1  0  0  0
 35 68  1  0  0  0
 36 56  1  0  0  0
 36104  1  0  0  0
 37 39  1  0  0  0
 37 47  1  0  0  0
 37 66  1  0  0  0
 37105  1  0  0  0
 38 43  2  0  0  0
 38 46  1  0  0  0
 38 47  1  0  0  0
 39 64  1  0  0  0
 39 67  2  0  0  0
 40 52  1  0  0  0
 40 53  2  0  0  0
 40 58  1  0  0  0
 41106  1  0  0  0
 41107  1  0  0  0
 41108  1  0  0  0
 41 48  1  0  0  0
 42 43  1  0  0  0
 42 66  1  0  0  0
 42109  1  0  0  0
 42110  1  0  0  0
 43 44  1  0  0  0
 44111  1  0  0  0
 45 46  2  0  0  0
 45112  1  0  0  0
 46113  1  0  0  0
 47114  1  0  0  0
 47115  1  0  0  0
 48 56  1  0  0  0
 48 65  1  0  0  0
 48116  1  0  0  0
 49 50  1  0  0  0
 49 53  1  0  0  0
 49 64  1  0  0  0
 49117  1  0  0  0
 50 51  1  0  0  0
 50118  1  0  0  0
 50119  1  0  0  0
 51 52  1  0  0  0
 51120  1  0  0  0
 51121  1  0  0  0
 52122  1  0  0  0
 52123  1  0  0  0
 53 54  1  0  0  0
 54 55  2  0  0  0
 54124  1  0  0  0
 55 57  1  0  0  0
 55125  1  0  0  0
 56 69  2  0  0  0
 57 58  2  0  0  0
 57126  1  0  0  0
 58127  1  0  0  0
 59 60  1  0  0  0
 59 61  1  0  0  0
 59 62  1  0  0  0
 60128  1  0  0  0
 60129  1  0  0  0
 60130  1  0  0  0
 61131  1  0  0  0
 61132  1  0  0  0
 61133  1  0  0  0
 62134  1  0  0  0
 62135  1  0  0  0
 62136  1  0  0  0
 63 65  1  0  0  0
 63137  1  0  0  0
 63138  1  0  0  0
 63139  1  0  0  0
 64140  1  0  0  0
 65141  1  0  0  0
 68 77  1  0  0  0
 71 72  2  0  0  0
 71 78  1  0  0  0
 71142  1  0  0  0
 72 73  1  0  0  0
 72 80  1  0  0  0
 73 79  2  0  0  0
 73 81  1  0  0  0
 74 78  2  0  0  0
 74 79  1  0  0  0
 74 82  1  0  0  0
 75 76  1  0  0  0
 75 80  2  0  0  0
 75143  1  0  0  0
 76 77  1  0  0  0
 76144  1  0  0  0
 76145  1  0  0  0
 77146  1  0  0  0
 77147  1  0  0  0
 81148  1  0  0  0
 81149  1  0  0  0
 82150  1  0  0  0
M  ISO  4   1 100  68 101  77 101  82 100
M  END
> <chiral flag>
0

> <version>
0

> <s_m_source_file>
/data/baiqing/PycharmProjects/Reinvent-master-3.2/result/LINK_invent/BTK/process_docking_weight1_custom_product_contain_oxygen_bond_distance_aromatic_linkinvent_7_9_3/rearranged_h_0111.sdf

> <i_m_source_file_index>
63

> <r_mmod_Potential_Energy-OPLS-2005>
-419.154205322266

> <r_mmod_Stretch_Energy-OPLS-2005>
87.7822723388672

> <r_mmod_Bend_Energy-OPLS-2005>
179.3427734375

> <r_mmod_Torsional_Energy-OPLS-2005>
206.818542480469

> <r_mmod_Improper_Torsional_Energy-OPLS-2005>
7.91745233535767

> <r_mmod_Van_der_Waal_Energy-OPLS-2005>
152.798919677734

> <r_mmod_Electrostatic_Energy-OPLS-2005>
-864.313781738281

> <r_mmod_Solvation_Energy-OPLS-2005>
-250.274566650391

> <b_mmod_Minimization_Converged-OPLS-2005>
0

> <r_mmod_RMS_Derivative-OPLS-2005>
1.0969649553299

$$$$
65
                    3D
 Structure written by MMmdl.
162170  0  0  1  0            999 V2000
  -30.6931  -14.5457   20.4855 C   0  0  0  0  0  0
  -30.4323  -12.3347   19.4474 C   0  0  0  0  0  0
  -29.5016  -12.4771   18.2246 C   0  0  0  0  0  0
  -28.0223  -12.3622   18.6286 C   0  0  0  0  0  0
  -27.6593  -13.2175   19.8714 C   0  0  2  0  0  0
  -28.7066  -13.0684   21.0008 C   0  0  0  0  0  0
  -25.2563  -13.8156   20.5696 C   0  0  0  0  0  0
  -24.1818  -13.0399   20.9199 C   0  0  0  0  0  0
  -24.6395  -11.6898   20.8760 C   0  0  0  0  0  0
  -23.9042  -10.4309   21.0430 C   0  0  0  0  0  0
  -24.3623   -9.4223   21.9202 C   0  0  0  0  0  0
  -23.6322   -8.2231   22.0753 C   0  0  0  0  0  0
  -22.4290   -8.0290   21.3531 C   0  0  0  0  0  0
  -21.9916   -9.0257   20.4630 C   0  0  0  0  0  0
  -22.7228  -10.2159   20.3065 C   0  0  0  0  0  0
  -21.6865   -6.0736   22.5288 C   0  0  0  0  0  0
  -21.4025   -6.5646   23.8222 C   0  0  0  0  0  0
  -21.3650   -5.6780   24.9165 C   0  0  0  0  0  0
  -21.6038   -4.3056   24.7214 C   0  0  0  0  0  0
  -21.8812   -3.8156   23.4347 C   0  0  0  0  0  0
  -21.9209   -4.6960   22.3404 C   0  0  0  0  0  0
  -22.7854  -13.5222   21.1870 C   0  0  0  0  0  0
  -22.1671   -4.2154   21.0969 F   0  0  0  0  0  0
  -21.5631   -3.4541   25.7729 F   0  0  0  0  0  0
  -30.0315  -13.3550   20.4280 N   0  0  0  0  0  0
  -26.3002  -12.9342   20.3360 N   0  0  0  0  0  0
  -25.9326  -11.6510   20.5802 N   0  0  0  0  0  0
  -22.0478  -12.8210   22.0447 N   0  0  0  0  0  0
  -25.4297  -15.1857   20.4168 N   0  0  0  0  0  0
  -31.8620  -14.6691   20.1149 O   0  0  0  0  0  0
  -21.6637   -6.8898   21.4257 O   0  0  0  0  0  0
  -22.3577  -14.5532   20.6739 O   0  0  0  0  0  0
  -24.6198  -31.8627   23.1966 C   0  0  0  0  0  0
  -25.9093  -32.4766   23.8264 C   0  0  1  0  0  0
  -27.2371  -27.4200   20.0837 C   0  0  0  0  0  0
  -25.5906  -33.8533   24.2229 N   0  0  0  0  0  0
  -23.4013  -30.4897   21.5352 C   0  0  2  0  0  0
  -24.8519  -28.9514   20.1024 C   0  0  0  0  0  0
  -22.7388  -29.4637   22.4835 C   0  0  0  0  0  0
  -18.0262  -28.1387   22.8468 C   0  0  0  0  0  0
  -24.1542  -36.7306   23.2617 C   0  0  0  0  0  0
  -25.9334  -30.8286   21.3423 C   0  0  0  0  0  0
  -26.0121  -29.4595   20.7007 C   0  0  0  0  0  0
  -27.2126  -28.7020   20.6806 C   0  0  0  0  0  0
  -26.0554  -26.9351   19.4779 C   0  0  0  0  0  0
  -24.8694  -27.6879   19.4899 C   0  0  0  0  0  0
  -23.6112  -29.8134   20.1519 C   0  0  0  0  0  0
  -25.4141  -36.3062   24.0297 C   0  0  1  0  0  0
  -20.5881  -28.3679   23.1271 C   0  0  2  0  0  0
  -20.6773  -26.9399   22.5404 C   0  0  0  0  0  0
  -19.5739  -26.6406   21.5185 C   0  0  0  0  0  0
  -18.1908  -26.7925   22.1593 C   0  0  0  0  0  0
  -19.1524  -28.8823   23.2890 C   0  0  0  0  0  0
  -18.9458  -30.1419   23.8929 C   0  0  0  0  0  0
  -17.6475  -30.6598   24.0558 C   0  0  0  0  0  0
  -25.9042  -34.9420   23.5062 C   0  0  0  0  0  0
  -16.5359  -29.9113   23.6332 C   0  0  0  0  0  0
  -16.7240  -28.6520   23.0336 C   0  0  0  0  0  0
  -26.4533  -31.6516   25.0562 C   0  0  0  0  0  0
  -25.3814  -31.3673   26.1324 C   0  0  0  0  0  0
  -27.0318  -30.2927   24.5899 C   0  0  0  0  0  0
  -27.6097  -32.4214   25.7372 C   0  0  0  0  0  0
  -27.5575  -37.1789   24.8433 C   0  0  0  0  0  0
  -21.4086  -29.3063   22.3674 N   0  0  0  0  0  0
  -26.4291  -37.3746   23.9388 N   0  0  0  0  0  0
  -24.6705  -31.0737   22.0840 N   0  0  0  0  0  0
  -23.4187  -28.8143   23.2834 O   0  0  0  0  0  0
  -28.4037  -26.6739   20.0668 O   0  0  0  0  0  0
  -26.5605  -34.8917   22.4621 O   0  0  0  0  0  0
  -23.5393  -32.1308   23.7427 O   0  0  0  0  0  0
  -29.9469  -19.3645   23.2947 C   0  0  0  0  0  0
  -29.8886  -19.5333   20.5252 C   0  0  0  0  0  0
  -30.0739  -18.1863   22.5337 C   0  0  0  0  0  0
  -30.0671  -18.2504   21.1187 C   0  0  0  0  0  0
  -29.7773  -20.6312   22.6965 C   0  0  0  0  0  0
  -29.7469  -20.7349   21.2760 C   0  0  0  0  0  0
  -29.1021  -16.4810   23.9851 C   0  0  0  0  0  0
  -30.1431  -16.9222   23.2642 C   0  0  0  0  0  0
  -30.4243  -22.0176   24.5360 C   0  0  0  0  0  0
  -30.2202  -17.0129   20.1927 C   0  0  0  0  0  0
  -29.5698  -24.4439   20.2425 C   0  0  0  0  0  0
  -28.2710  -25.2827   20.4389 C   0  0  0  0  0  0
  -29.7162  -23.2018   21.1798 C   0  0  0  0  0  0
  -29.9164  -15.6372   20.6782 N   0  0  0  0  0  0
  -29.5023  -21.7142   23.5001 O   0  0  0  0  0  0
  -29.5633  -21.9138   20.5457 O   0  0  0  0  0  0
  -31.4727  -12.4515   19.1375 H   0  0  0  0  0  0
  -30.3628  -11.3348   19.8835 H   0  0  0  0  0  0
  -29.7406  -11.7120   17.4787 H   0  0  0  0  0  0
  -29.6735  -13.4418   17.7431 H   0  0  0  0  0  0
  -27.8175  -11.3098   18.8260 H   0  0  0  0  0  0
  -27.3807  -12.6429   17.7923 H   0  0  0  0  0  0
  -27.6798  -14.2533   19.5424 H   0  0  0  0  0  0
  -28.6800  -12.0649   21.4206 H   0  0  0  0  0  0
  -28.4708  -13.7371   21.8287 H   0  0  0  0  0  0
  -25.2786   -9.5681   22.4767 H   0  0  0  0  0  0
  -24.0045   -7.4597   22.7459 H   0  0  0  0  0  0
  -21.0863   -8.8769   19.8937 H   0  0  0  0  0  0
  -22.3708  -10.9688   19.6181 H   0  0  0  0  0  0
  -21.2005   -7.6158   23.9720 H   0  0  0  0  0  0
  -21.1488   -6.0515   25.9060 H   0  0  0  0  0  0
  -22.0611   -2.7629   23.2824 H   0  0  0  0  0  0
  -22.4158  -11.9888   22.4796 H   0  0  0  0  0  0
  -21.1080  -13.1256   22.2609 H   0  0  0  0  0  0
  -24.6666  -15.8428   20.5496 H   0  0  0  0  0  0
  -26.2794  -15.6319   20.0866 H   0  0  0  0  0  0
  -26.7117  -32.5529   23.0996 H   0  0  0  0  0  0
  -25.0151  -33.9641   25.0435 H   0  0  0  0  0  0
  -22.6902  -31.3078   21.3892 H   0  0  0  0  0  0
  -23.3745  -35.9685   23.3274 H   0  0  0  0  0  0
  -24.3656  -36.8947   22.2025 H   0  0  0  0  0  0
  -23.7395  -37.6540   23.6653 H   0  0  0  0  0  0
  -26.0354  -31.5797   20.5619 H   0  0  0  0  0  0
  -26.8304  -30.9001   21.9459 H   0  0  0  0  0  0
  -28.1127  -29.0858   21.1384 H   0  0  0  0  0  0
  -26.0390  -25.9807   18.9730 H   0  0  0  0  0  0
  -23.9808  -27.3026   19.0104 H   0  0  0  0  0  0
  -23.7014  -30.5755   19.3771 H   0  0  0  0  0  0
  -22.7393  -29.2166   19.8765 H   0  0  0  0  0  0
  -25.1363  -36.1841   25.0778 H   0  0  0  0  0  0
  -21.0006  -28.3289   24.1357 H   0  0  0  0  0  0
  -20.5699  -26.2231   23.3587 H   0  0  0  0  0  0
  -21.6641  -26.7433   22.1185 H   0  0  0  0  0  0
  -19.6937  -25.6330   21.1143 H   0  0  0  0  0  0
  -19.6760  -27.3277   20.6771 H   0  0  0  0  0  0
  -17.4211  -26.6635   21.3990 H   0  0  0  0  0  0
  -18.0347  -26.0095   22.9006 H   0  0  0  0  0  0
  -19.7924  -30.7194   24.2348 H   0  0  0  0  0  0
  -17.5025  -31.6282   24.5154 H   0  0  0  0  0  0
  -15.5348  -30.3041   23.7633 H   0  0  0  0  0  0
  -15.8597  -28.0854   22.7046 H   0  0  0  0  0  0
  -24.6013  -30.6968   25.7721 H   0  0  0  0  0  0
  -24.8980  -32.2845   26.4664 H   0  0  0  0  0  0
  -25.8191  -30.8942   27.0113 H   0  0  0  0  0  0
  -26.2780  -29.6673   24.1070 H   0  0  0  0  0  0
  -27.4227  -29.7191   25.4325 H   0  0  0  0  0  0
  -27.8576  -30.4229   23.8913 H   0  0  0  0  0  0
  -27.2679  -33.3492   26.1971 H   0  0  0  0  0  0
  -28.3936  -32.6770   25.0231 H   0  0  0  0  0  0
  -28.0701  -31.8268   26.5291 H   0  0  0  0  0  0
  -28.2581  -38.0105   24.7482 H   0  0  0  0  0  0
  -28.1115  -36.2616   24.6277 H   0  0  0  0  0  0
  -27.2260  -37.1445   25.8835 H   0  0  0  0  0  0
  -20.9179  -29.8797   21.6951 H   0  0  0  0  0  0
  -26.0160  -38.2792   24.1434 H   0  0  0  0  0  0
  -29.9222  -19.2791   24.3721 H   0  0  0  0  0  0
  -29.8486  -19.6204   19.4515 H   0  0  0  0  0  0
  -29.1499  -15.5487   24.5209 H   0  0  0  0  0  0
  -28.1819  -17.0521   24.0300 H   0  0  0  0  0  0
  -31.0631  -16.3524   23.1935 H   0  0  0  0  0  0
  -30.1089  -22.9423   25.0226 H   0  0  0  0  0  0
  -31.4266  -22.1705   24.1251 H   0  0  0  0  0  0
  -30.4536  -21.2457   25.3080 H   0  0  0  0  0  0
  -31.2268  -17.0526   19.7721 H   0  0  0  0  0  0
  -29.5623  -17.1927   19.3440 H   0  0  0  0  0  0
  -29.6584  -24.1686   19.1919 H   0  0  0  0  0  0
  -30.4195  -25.0964   20.4451 H   0  0  0  0  0  0
  -27.4814  -24.7762   19.8859 H   0  0  0  0  0  0
  -27.9820  -25.2717   21.4892 H   0  0  0  0  0  0
  -28.9840  -23.3131   21.9770 H   0  0  0  0  0  0
  -30.7056  -23.2357   21.6411 H   0  0  0  0  0  0
  -28.9669  -15.4752   20.9746 H   0  0  0  0  0  0
  1 25  1  0  0  0
  1 30  2  0  0  0
  1 84  1  0  0  0
  2  3  1  0  0  0
  2 25  1  0  0  0
  2 87  1  0  0  0
  2 88  1  0  0  0
  3  4  1  0  0  0
  3 89  1  0  0  0
  3 90  1  0  0  0
  4  5  1  0  0  0
  4 91  1  0  0  0
  4 92  1  0  0  0
  5  6  1  0  0  0
  5 26  1  0  0  0
  5 93  1  0  0  0
  6 25  1  0  0  0
  6 94  1  0  0  0
  6 95  1  0  0  0
  7  8  2  0  0  0
  7 26  1  0  0  0
  7 29  1  0  0  0
  8  9  1  0  0  0
  8 22  1  0  0  0
  9 10  1  0  0  0
  9 27  2  0  0  0
 10 11  2  0  0  0
 10 15  1  0  0  0
 11 12  1  0  0  0
 11 96  1  0  0  0
 12 13  2  0  0  0
 12 97  1  0  0  0
 13 14  1  0  0  0
 13 31  1  0  0  0
 14 15  2  0  0  0
 14 98  1  0  0  0
 15 99  1  0  0  0
 16 17  2  0  0  0
 16 21  1  0  0  0
 16 31  1  0  0  0
 17 18  1  0  0  0
 17100  1  0  0  0
 18 19  2  0  0  0
 18101  1  0  0  0
 19 20  1  0  0  0
 19 24  1  0  0  0
 20 21  2  0  0  0
 20102  1  0  0  0
 21 23  1  0  0  0
 22 28  1  0  0  0
 22 32  2  0  0  0
 26 27  1  0  0  0
 28103  1  0  0  0
 28104  1  0  0  0
 29105  1  0  0  0
 29106  1  0  0  0
 33 34  1  0  0  0
 33 66  1  0  0  0
 33 70  2  0  0  0
 34 36  1  0  0  0
 34 59  1  0  0  0
 34107  1  0  0  0
 35 44  2  0  0  0
 35 45  1  0  0  0
 35 68  1  0  0  0
 36 56  1  0  0  0
 36108  1  0  0  0
 37 39  1  0  0  0
 37 47  1  0  0  0
 37 66  1  0  0  0
 37109  1  0  0  0
 38 43  2  0  0  0
 38 46  1  0  0  0
 38 47  1  0  0  0
 39 64  1  0  0  0
 39 67  2  0  0  0
 40 52  1  0  0  0
 40 53  2  0  0  0
 40 58  1  0  0  0
 41110  1  0  0  0
 41111  1  0  0  0
 41112  1  0  0  0
 41 48  1  0  0  0
 42 43  1  0  0  0
 42 66  1  0  0  0
 42113  1  0  0  0
 42114  1  0  0  0
 43 44  1  0  0  0
 44115  1  0  0  0
 45 46  2  0  0  0
 45116  1  0  0  0
 46117  1  0  0  0
 47118  1  0  0  0
 47119  1  0  0  0
 48 56  1  0  0  0
 48 65  1  0  0  0
 48120  1  0  0  0
 49 50  1  0  0  0
 49 53  1  0  0  0
 49 64  1  0  0  0
 49121  1  0  0  0
 50 51  1  0  0  0
 50122  1  0  0  0
 50123  1  0  0  0
 51 52  1  0  0  0
 51124  1  0  0  0
 51125  1  0  0  0
 52126  1  0  0  0
 52127  1  0  0  0
 53 54  1  0  0  0
 54 55  2  0  0  0
 54128  1  0  0  0
 55 57  1  0  0  0
 55129  1  0  0  0
 56 69  2  0  0  0
 57 58  2  0  0  0
 57130  1  0  0  0
 58131  1  0  0  0
 59 60  1  0  0  0
 59 61  1  0  0  0
 59 62  1  0  0  0
 60132  1  0  0  0
 60133  1  0  0  0
 60134  1  0  0  0
 61135  1  0  0  0
 61136  1  0  0  0
 61137  1  0  0  0
 62138  1  0  0  0
 62139  1  0  0  0
 62140  1  0  0  0
 63 65  1  0  0  0
 63141  1  0  0  0
 63142  1  0  0  0
 63143  1  0  0  0
 64144  1  0  0  0
 65145  1  0  0  0
 68 82  1  0  0  0
 71 73  2  0  0  0
 71 75  1  0  0  0
 71146  1  0  0  0
 72 74  2  0  0  0
 72 76  1  0  0  0
 72147  1  0  0  0
 73 74  1  0  0  0
 73 78  1  0  0  0
 74 80  1  0  0  0
 75 76  2  0  0  0
 75 85  1  0  0  0
 76 86  1  0  0  0
 77 78  2  0  0  0
 77148  1  0  0  0
 77149  1  0  0  0
 78150  1  0  0  0
 79 85  1  0  0  0
 79151  1  0  0  0
 79152  1  0  0  0
 79153  1  0  0  0
 80 84  1  0  0  0
 80154  1  0  0  0
 80155  1  0  0  0
 81 82  1  0  0  0
 81 83  1  0  0  0
 81156  1  0  0  0
 81157  1  0  0  0
 82158  1  0  0  0
 82159  1  0  0  0
 83 86  1  0  0  0
 83160  1  0  0  0
 83161  1  0  0  0
 84162  1  0  0  0
M  ISO  4   1 100  68 101  82 101  84 100
M  END
> <chiral flag>
0

> <version>
0

> <s_m_source_file>
/data/baiqing/PycharmProjects/Reinvent-master-3.2/result/LINK_invent/BTK/process_docking_weight1_custom_product_contain_oxygen_bond_distance_aromatic_linkinvent_7_9_3/rearranged_h_0111.sdf

> <i_m_source_file_index>
64

> <r_mmod_Potential_Energy-OPLS-2005>
16.8384304046631

> <r_mmod_Stretch_Energy-OPLS-2005>
49.9194564819336

> <r_mmod_Bend_Energy-OPLS-2005>
124.035804748535

> <r_mmod_Torsional_Energy-OPLS-2005>
281.991607666016

> <r_mmod_Improper_Torsional_Energy-OPLS-2005>
8.52041149139404

> <r_mmod_Van_der_Waal_Energy-OPLS-2005>
166.769332885742

> <r_mmod_Electrostatic_Energy-OPLS-2005>
-426.242736816406

> <r_mmod_Solvation_Energy-OPLS-2005>
-210.496185302734

> <b_mmod_Minimization_Converged-OPLS-2005>
0

> <r_mmod_RMS_Derivative-OPLS-2005>
8.75846099853516

$$$$
66
                    3D
 Structure written by MMmdl.
153161  0  0  1  0            999 V2000
  -30.5399  -14.8243   20.5477 C   0  0  0  0  0  0
  -30.4625  -12.5283   19.4918 C   0  0  0  0  0  0
  -29.5269  -12.5616   18.2613 C   0  0  0  0  0  0
  -28.0581  -12.3463   18.6705 C   0  0  0  0  0  0
  -27.6548  -13.2290   19.8799 C   0  0  2  0  0  0
  -28.6915  -13.1428   21.0232 C   0  0  0  0  0  0
  -25.2554  -13.8209   20.5677 C   0  0  0  0  0  0
  -24.1823  -13.0457   20.9129 C   0  0  0  0  0  0
  -24.6396  -11.6916   20.8729 C   0  0  0  0  0  0
  -23.9076  -10.4307   21.0409 C   0  0  0  0  0  0
  -24.3632   -9.4200   21.9168 C   0  0  0  0  0  0
  -23.6296   -8.2246   22.0755 C   0  0  0  0  0  0
  -22.4298   -8.0276   21.3525 C   0  0  0  0  0  0
  -21.9912   -9.0264   20.4644 C   0  0  0  0  0  0
  -22.7246  -10.2124   20.3043 C   0  0  0  0  0  0
  -21.6866   -6.0735   22.5265 C   0  0  0  0  0  0
  -21.4027   -6.5642   23.8194 C   0  0  0  0  0  0
  -21.3643   -5.6804   24.9163 C   0  0  0  0  0  0
  -21.6043   -4.3066   24.7227 C   0  0  0  0  0  0
  -21.8817   -3.8139   23.4349 C   0  0  0  0  0  0
  -21.9197   -4.6962   22.3399 C   0  0  0  0  0  0
  -22.7833  -13.5200   21.1845 C   0  0  0  0  0  0
  -22.1660   -4.2136   21.0986 F   0  0  0  0  0  0
  -21.5623   -3.4556   25.7736 F   0  0  0  0  0  0
  -29.9934  -13.5532   20.4674 N   0  0  0  0  0  0
  -26.2997  -12.9373   20.3394 N   0  0  0  0  0  0
  -25.9333  -11.6514   20.5764 N   0  0  0  0  0  0
  -22.0538  -12.8166   22.0399 N   0  0  0  0  0  0
  -25.4355  -15.1916   20.4084 N   0  0  0  0  0  0
  -31.6712  -15.0152   20.0835 O   0  0  0  0  0  0
  -21.6652   -6.8858   21.4215 O   0  0  0  0  0  0
  -22.3481  -14.5507   20.6716 O   0  0  0  0  0  0
  -24.6332  -31.8531   23.1934 C   0  0  0  0  0  0
  -25.9152  -32.4740   23.8289 C   0  0  1  0  0  0
  -27.2098  -27.2094   20.1574 C   0  0  0  0  0  0
  -25.5913  -33.8550   24.2236 N   0  0  0  0  0  0
  -23.4318  -30.4755   21.5414 C   0  0  2  0  0  0
  -24.8750  -28.9123   20.1166 C   0  0  0  0  0  0
  -22.7520  -29.4589   22.4914 C   0  0  0  0  0  0
  -18.0325  -28.1364   22.8503 C   0  0  0  0  0  0
  -24.1497  -36.7271   23.2653 C   0  0  0  0  0  0
  -25.9810  -30.7605   21.3701 C   0  0  0  0  0  0
  -26.0553  -29.3770   20.7138 C   0  0  0  0  0  0
  -27.2270  -28.5434   20.7100 C   0  0  0  0  0  0
  -26.0078  -26.8303   19.5161 C   0  0  0  0  0  0
  -24.8592  -27.6493   19.5055 C   0  0  0  0  0  0
  -23.6507  -29.8079   20.1603 C   0  0  0  0  0  0
  -25.4127  -36.3059   24.0318 C   0  0  1  0  0  0
  -20.5922  -28.3717   23.1290 C   0  0  2  0  0  0
  -20.6814  -26.9434   22.5463 C   0  0  0  0  0  0
  -19.5820  -26.6380   21.5255 C   0  0  0  0  0  0
  -18.1966  -26.7911   22.1616 C   0  0  0  0  0  0
  -19.1569  -28.8854   23.2885 C   0  0  0  0  0  0
  -18.9474  -30.1472   23.8888 C   0  0  0  0  0  0
  -17.6485  -30.6580   24.0547 C   0  0  0  0  0  0
  -25.9080  -34.9420   23.5095 C   0  0  0  0  0  0
  -16.5380  -29.9056   23.6336 C   0  0  0  0  0  0
  -16.7312  -28.6488   23.0359 C   0  0  0  0  0  0
  -26.4506  -31.6554   25.0675 C   0  0  0  0  0  0
  -25.3738  -31.3683   26.1404 C   0  0  0  0  0  0
  -27.0372  -30.2961   24.6157 C   0  0  0  0  0  0
  -27.6054  -32.4297   25.7465 C   0  0  0  0  0  0
  -27.5567  -37.1792   24.8463 C   0  0  0  0  0  0
  -21.4219  -29.3028   22.3611 N   0  0  0  0  0  0
  -26.4296  -37.3757   23.9400 N   0  0  0  0  0  0
  -24.7015  -31.0466   22.0897 N   0  0  0  0  0  0
  -23.4205  -28.8150   23.3012 O   0  0  0  0  0  0
  -28.2870  -26.2792   20.2604 O   0  0  0  0  0  0
  -26.5682  -34.8905   22.4686 O   0  0  0  0  0  0
  -23.5474  -32.1349   23.7220 O   0  0  0  0  0  0
  -30.2461  -18.3974   20.8141 C   0  0  0  0  0  0
  -29.3403  -19.5666   20.8637 C   0  0  0  0  0  0
  -28.1102  -19.0074   21.1111 C   0  0  0  0  0  0
  -29.4887  -17.2199   20.9641 C   0  0  0  0  0  0
  -28.8092  -22.0290   20.5885 C   0  0  0  0  0  0
  -26.7473  -19.5723   21.3490 C   0  0  0  0  0  0
  -30.5202  -23.9242   20.2306 C   0  0  0  0  0  0
  -28.0574  -24.7701   20.1387 C   0  0  0  0  0  0
  -29.0968  -23.6332   20.7288 C   0  0  1  0  0  0
  -29.6413  -21.0089   20.8085 N   0  0  0  0  0  0
  -29.7543  -15.8341   21.1196 N   0  0  0  0  0  0
  -28.1940  -17.6311   21.1692 O   0  0  0  0  0  0
  -31.4920  -12.7080   19.1659 H   0  0  0  0  0  0
  -30.4693  -11.5397   19.9517 H   0  0  0  0  0  0
  -29.8304  -11.8160   17.5244 H   0  0  0  0  0  0
  -29.6342  -13.5328   17.7761 H   0  0  0  0  0  0
  -27.9262  -11.2928   18.9186 H   0  0  0  0  0  0
  -27.3946  -12.5350   17.8263 H   0  0  0  0  0  0
  -27.6621  -14.2598   19.5235 H   0  0  0  0  0  0
  -28.7456  -12.1327   21.4328 H   0  0  0  0  0  0
  -28.3930  -13.7776   21.8605 H   0  0  0  0  0  0
  -25.2785   -9.5687   22.4728 H   0  0  0  0  0  0
  -24.0025   -7.4629   22.7464 H   0  0  0  0  0  0
  -21.0848   -8.8763   19.8946 H   0  0  0  0  0  0
  -22.3698  -10.9666   19.6158 H   0  0  0  0  0  0
  -21.2027   -7.6153   23.9683 H   0  0  0  0  0  0
  -21.1470   -6.0551   25.9063 H   0  0  0  0  0  0
  -22.0616   -2.7607   23.2866 H   0  0  0  0  0  0
  -22.4241  -11.9822   22.4738 H   0  0  0  0  0  0
  -21.1130  -13.1099   22.2659 H   0  0  0  0  0  0
  -24.6845  -15.8658   20.5194 H   0  0  0  0  0  0
  -26.3028  -15.6207   20.1144 H   0  0  0  0  0  0
  -26.7236  -32.5393   23.1058 H   0  0  0  0  0  0
  -24.9911  -33.9704   25.0263 H   0  0  0  0  0  0
  -22.7291  -31.2977   21.3950 H   0  0  0  0  0  0
  -23.3740  -35.9624   23.3318 H   0  0  0  0  0  0
  -24.3594  -36.8903   22.2070 H   0  0  0  0  0  0
  -23.7277  -37.6474   23.6691 H   0  0  0  0  0  0
  -26.1274  -31.5245   20.6053 H   0  0  0  0  0  0
  -26.8526  -30.8134   22.0082 H   0  0  0  0  0  0
  -28.1269  -28.9052   21.1782 H   0  0  0  0  0  0
  -25.9266  -25.8636   19.0403 H   0  0  0  0  0  0
  -23.9493  -27.2879   19.0447 H   0  0  0  0  0  0
  -23.7781  -30.5843   19.4029 H   0  0  0  0  0  0
  -22.7647  -29.2466   19.8557 H   0  0  0  0  0  0
  -25.1330  -36.1890   25.0806 H   0  0  0  0  0  0
  -21.0057  -28.3376   24.1389 H   0  0  0  0  0  0
  -20.5695  -26.2355   23.3680 H   0  0  0  0  0  0
  -21.6697  -26.7439   22.1295 H   0  0  0  0  0  0
  -19.7036  -25.6313   21.1286 H   0  0  0  0  0  0
  -19.6796  -27.3182   20.6799 H   0  0  0  0  0  0
  -17.4292  -26.6746   21.3952 H   0  0  0  0  0  0
  -18.0262  -25.9992   22.8914 H   0  0  0  0  0  0
  -19.7940  -30.7320   24.2221 H   0  0  0  0  0  0
  -17.5034  -31.6256   24.5113 H   0  0  0  0  0  0
  -15.5379  -30.2955   23.7665 H   0  0  0  0  0  0
  -15.8733  -28.0794   22.7045 H   0  0  0  0  0  0
  -24.5955  -30.6990   25.7715 H   0  0  0  0  0  0
  -24.8881  -32.2833   26.4784 H   0  0  0  0  0  0
  -25.8063  -30.8896   27.0206 H   0  0  0  0  0  0
  -26.2950  -29.6681   24.1215 H   0  0  0  0  0  0
  -27.4098  -29.7228   25.4660 H   0  0  0  0  0  0
  -27.8798  -30.4204   23.9366 H   0  0  0  0  0  0
  -27.2657  -33.3624   26.1984 H   0  0  0  0  0  0
  -28.3885  -32.6831   25.0305 H   0  0  0  0  0  0
  -28.0689  -31.8457   26.5437 H   0  0  0  0  0  0
  -28.2602  -38.0071   24.7503 H   0  0  0  0  0  0
  -28.1055  -36.2609   24.6309 H   0  0  0  0  0  0
  -27.2291  -37.1448   25.8870 H   0  0  0  0  0  0
  -20.9447  -29.8657   21.6725 H   0  0  0  0  0  0
  -26.0153  -38.2828   24.1393 H   0  0  0  0  0  0
  -31.3230  -18.4318   20.7161 H   0  0  0  0  0  0
  -27.7792  -21.8331   20.2862 H   0  0  0  0  0  0
  -26.7531  -20.2787   22.1814 H   0  0  0  0  0  0
  -26.0342  -18.7863   21.5936 H   0  0  0  0  0  0
  -26.3847  -20.0914   20.4597 H   0  0  0  0  0  0
  -31.2482  -23.2870   20.7358 H   0  0  0  0  0  0
  -30.8088  -24.9587   20.4222 H   0  0  0  0  0  0
  -30.6041  -23.7345   19.1603 H   0  0  0  0  0  0
  -27.0918  -24.5500   20.5975 H   0  0  0  0  0  0
  -27.9300  -24.5669   19.0737 H   0  0  0  0  0  0
  -29.0989  -23.8040   21.8059 H   0  0  0  0  0  0
  -28.9730  -15.3850   21.5705 H   0  0  0  0  0  0
  1 25  1  0  0  0
  1 30  2  0  0  0
  1 81  1  0  0  0
  2  3  1  0  0  0
  2 25  1  0  0  0
  2 83  1  0  0  0
  2 84  1  0  0  0
  3  4  1  0  0  0
  3 85  1  0  0  0
  3 86  1  0  0  0
  4  5  1  0  0  0
  4 87  1  0  0  0
  4 88  1  0  0  0
  5  6  1  0  0  0
  5 26  1  0  0  0
  5 89  1  0  0  0
  6 25  1  0  0  0
  6 90  1  0  0  0
  6 91  1  0  0  0
  7  8  2  0  0  0
  7 26  1  0  0  0
  7 29  1  0  0  0
  8  9  1  0  0  0
  8 22  1  0  0  0
  9 10  1  0  0  0
  9 27  2  0  0  0
 10 11  2  0  0  0
 10 15  1  0  0  0
 11 12  1  0  0  0
 11 92  1  0  0  0
 12 13  2  0  0  0
 12 93  1  0  0  0
 13 14  1  0  0  0
 13 31  1  0  0  0
 14 15  2  0  0  0
 14 94  1  0  0  0
 15 95  1  0  0  0
 16 17  2  0  0  0
 16 21  1  0  0  0
 16 31  1  0  0  0
 17 18  1  0  0  0
 17 96  1  0  0  0
 18 19  2  0  0  0
 18 97  1  0  0  0
 19 20  1  0  0  0
 19 24  1  0  0  0
 20 21  2  0  0  0
 20 98  1  0  0  0
 21 23  1  0  0  0
 22 28  1  0  0  0
 22 32  2  0  0  0
 26 27  1  0  0  0
 28 99  1  0  0  0
 28100  1  0  0  0
 29101  1  0  0  0
 29102  1  0  0  0
 33 34  1  0  0  0
 33 66  1  0  0  0
 33 70  2  0  0  0
 34 36  1  0  0  0
 34 59  1  0  0  0
 34103  1  0  0  0
 35 44  2  0  0  0
 35 45  1  0  0  0
 35 68  1  0  0  0
 36 56  1  0  0  0
 36104  1  0  0  0
 37 39  1  0  0  0
 37 47  1  0  0  0
 37 66  1  0  0  0
 37105  1  0  0  0
 38 43  2  0  0  0
 38 46  1  0  0  0
 38 47  1  0  0  0
 39 64  1  0  0  0
 39 67  2  0  0  0
 40 52  1  0  0  0
 40 53  2  0  0  0
 40 58  1  0  0  0
 41106  1  0  0  0
 41107  1  0  0  0
 41108  1  0  0  0
 41 48  1  0  0  0
 42 43  1  0  0  0
 42 66  1  0  0  0
 42109  1  0  0  0
 42110  1  0  0  0
 43 44  1  0  0  0
 44111  1  0  0  0
 45 46  2  0  0  0
 45112  1  0  0  0
 46113  1  0  0  0
 47114  1  0  0  0
 47115  1  0  0  0
 48 56  1  0  0  0
 48 65  1  0  0  0
 48116  1  0  0  0
 49 50  1  0  0  0
 49 53  1  0  0  0
 49 64  1  0  0  0
 49117  1  0  0  0
 50 51  1  0  0  0
 50118  1  0  0  0
 50119  1  0  0  0
 51 52  1  0  0  0
 51120  1  0  0  0
 51121  1  0  0  0
 52122  1  0  0  0
 52123  1  0  0  0
 53 54  1  0  0  0
 54 55  2  0  0  0
 54124  1  0  0  0
 55 57  1  0  0  0
 55125  1  0  0  0
 56 69  2  0  0  0
 57 58  2  0  0  0
 57126  1  0  0  0
 58127  1  0  0  0
 59 60  1  0  0  0
 59 61  1  0  0  0
 59 62  1  0  0  0
 60128  1  0  0  0
 60129  1  0  0  0
 60130  1  0  0  0
 61131  1  0  0  0
 61132  1  0  0  0
 61133  1  0  0  0
 62134  1  0  0  0
 62135  1  0  0  0
 62136  1  0  0  0
 63 65  1  0  0  0
 63137  1  0  0  0
 63138  1  0  0  0
 63139  1  0  0  0
 64140  1  0  0  0
 65141  1  0  0  0
 68 78  1  0  0  0
 71 72  1  0  0  0
 71 74  2  0  0  0
 71142  1  0  0  0
 72 73  2  0  0  0
 72 80  1  0  0  0
 73 76  1  0  0  0
 73 82  1  0  0  0
 74 81  1  0  0  0
 74 82  1  0  0  0
 75 79  1  0  0  0
 75 80  2  0  0  0
 75143  1  0  0  0
 76144  1  0  0  0
 76145  1  0  0  0
 76146  1  0  0  0
 77147  1  0  0  0
 77148  1  0  0  0
 77149  1  0  0  0
 77 79  1  0  0  0
 78 79  1  0  0  0
 78150  1  0  0  0
 78151  1  0  0  0
 79152  1  0  0  0
 81153  1  0  0  0
M  ISO  4   1 100  68 101  78 101  81 100
M  END
> <chiral flag>
0

> <version>
0

> <s_m_source_file>
/data/baiqing/PycharmProjects/Reinvent-master-3.2/result/LINK_invent/BTK/process_docking_weight1_custom_product_contain_oxygen_bond_distance_aromatic_linkinvent_7_9_3/rearranged_h_0111.sdf

> <i_m_source_file_index>
65

> <r_mmod_Potential_Energy-OPLS-2005>
255.706298828125

> <r_mmod_Stretch_Energy-OPLS-2005>
162.139999389648

> <r_mmod_Bend_Energy-OPLS-2005>
235.195587158203

> <r_mmod_Torsional_Energy-OPLS-2005>
224.545059204102

> <r_mmod_Improper_Torsional_Energy-OPLS-2005>
4.51698160171509

> <r_mmod_Van_der_Waal_Energy-OPLS-2005>
116.274208068848

> <r_mmod_Electrostatic_Energy-OPLS-2005>
-397.245300292969

> <r_mmod_Solvation_Energy-OPLS-2005>
-214.367370605469

> <b_mmod_Minimization_Converged-OPLS-2005>
0

> <r_mmod_RMS_Derivative-OPLS-2005>
6.67231893539429

$$$$
67
                    3D
 Structure written by MMmdl.
152161  0  0  1  0            999 V2000
  -30.4472  -14.9139   20.4568 C   0  0  0  0  0  0
  -30.4579  -12.5688   19.4979 C   0  0  0  0  0  0
  -29.5257  -12.5233   18.2622 C   0  0  0  0  0  0
  -28.0571  -12.2999   18.6772 C   0  0  0  0  0  0
  -27.6340  -13.2210   19.8498 C   0  0  2  0  0  0
  -28.6684  -13.1793   20.9932 C   0  0  0  0  0  0
  -25.2446  -13.8141   20.5616 C   0  0  0  0  0  0
  -24.1769  -13.0427   20.9215 C   0  0  0  0  0  0
  -24.6352  -11.6889   20.8762 C   0  0  0  0  0  0
  -23.9043  -10.4290   21.0433 C   0  0  0  0  0  0
  -24.3599   -9.4197   21.9204 C   0  0  0  0  0  0
  -23.6286   -8.2231   22.0763 C   0  0  0  0  0  0
  -22.4261   -8.0269   21.3551 C   0  0  0  0  0  0
  -21.9906   -9.0242   20.4652 C   0  0  0  0  0  0
  -22.7224  -10.2125   20.3075 C   0  0  0  0  0  0
  -21.6853   -6.0726   22.5273 C   0  0  0  0  0  0
  -21.4003   -6.5627   23.8210 C   0  0  0  0  0  0
  -21.3657   -5.6774   24.9176 C   0  0  0  0  0  0
  -21.6048   -4.3048   24.7220 C   0  0  0  0  0  0
  -21.8822   -3.8141   23.4349 C   0  0  0  0  0  0
  -21.9187   -4.6953   22.3399 C   0  0  0  0  0  0
  -22.7791  -13.5221   21.1876 C   0  0  0  0  0  0
  -22.1658   -4.2140   21.0977 F   0  0  0  0  0  0
  -21.5642   -3.4534   25.7737 F   0  0  0  0  0  0
  -29.9483  -13.6178   20.4226 N   0  0  0  0  0  0
  -26.2871  -12.9338   20.3240 N   0  0  0  0  0  0
  -25.9274  -11.6486   20.5758 N   0  0  0  0  0  0
  -22.0415  -12.8225   22.0410 N   0  0  0  0  0  0
  -25.4132  -15.1876   20.3919 N   0  0  0  0  0  0
  -31.6289  -15.0956   20.1318 O   0  0  0  0  0  0
  -21.6626   -6.8857   21.4234 O   0  0  0  0  0  0
  -22.3484  -14.5519   20.6697 O   0  0  0  0  0  0
  -24.6409  -31.8461   23.1878 C   0  0  0  0  0  0
  -25.9200  -32.4705   23.8257 C   0  0  1  0  0  0
  -27.2005  -27.1557   20.1611 C   0  0  0  0  0  0
  -25.5965  -33.8505   24.2190 N   0  0  0  0  0  0
  -23.4420  -30.4713   21.5311 C   0  0  2  0  0  0
  -24.8850  -28.8928   20.1174 C   0  0  0  0  0  0
  -22.7544  -29.4589   22.4811 C   0  0  0  0  0  0
  -18.0329  -28.1459   22.8500 C   0  0  0  0  0  0
  -24.1483  -36.7217   23.2640 C   0  0  0  0  0  0
  -25.9943  -30.7342   21.3727 C   0  0  0  0  0  0
  -26.0661  -29.3421   20.7250 C   0  0  0  0  0  0
  -27.2298  -28.4900   20.7269 C   0  0  0  0  0  0
  -25.9936  -26.7937   19.5273 C   0  0  0  0  0  0
  -24.8574  -27.6296   19.5093 C   0  0  0  0  0  0
  -23.6669  -29.8018   20.1510 C   0  0  0  0  0  0
  -25.4124  -36.3019   24.0315 C   0  0  1  0  0  0
  -20.5937  -28.3762   23.1242 C   0  0  2  0  0  0
  -20.6800  -26.9474   22.5412 C   0  0  0  0  0  0
  -19.5772  -26.6477   21.5212 C   0  0  0  0  0  0
  -18.1963  -26.8017   22.1637 C   0  0  0  0  0  0
  -19.1581  -28.8923   23.2881 C   0  0  0  0  0  0
  -18.9513  -30.1517   23.8906 C   0  0  0  0  0  0
  -17.6503  -30.6646   24.0609 C   0  0  0  0  0  0
  -25.9092  -34.9401   23.5075 C   0  0  0  0  0  0
  -16.5377  -29.9162   23.6372 C   0  0  0  0  0  0
  -16.7313  -28.6585   23.0381 C   0  0  0  0  0  0
  -26.4563  -31.6541   25.0640 C   0  0  0  0  0  0
  -25.3783  -31.3728   26.1347 C   0  0  0  0  0  0
  -27.0381  -30.2945   24.6132 C   0  0  0  0  0  0
  -27.6117  -32.4263   25.7434 C   0  0  0  0  0  0
  -27.5562  -37.1775   24.8480 C   0  0  0  0  0  0
  -21.4235  -29.3069   22.3562 N   0  0  0  0  0  0
  -26.4261  -37.3729   23.9429 N   0  0  0  0  0  0
  -24.7132  -31.0378   22.0869 N   0  0  0  0  0  0
  -23.4186  -28.8115   23.2947 O   0  0  0  0  0  0
  -28.2467  -26.1757   20.1585 O   0  0  0  0  0  0
  -26.5642  -34.8883   22.4631 O   0  0  0  0  0  0
  -23.5540  -32.1324   23.7153 O   0  0  0  0  0  0
  -30.1891  -18.5238   20.5298 C   0  0  0  0  0  0
  -29.5479  -19.8760   20.4239 C   0  0  0  0  0  0
  -28.1800  -19.7936   20.3385 C   0  0  0  0  0  0
  -29.3609  -17.3795   20.5531 C   0  0  0  0  0  0
  -29.6346  -22.6604   20.7635 C   0  0  0  0  0  0
  -28.4946  -23.3134   20.3453 C   0  0  0  0  0  0
  -30.2596  -21.2626   20.3251 C   0  0  0  0  0  0
  -27.1472  -20.9533   20.2223 C   0  0  0  0  0  0
  -27.4970  -22.3903   19.5871 C   0  0  0  0  0  0
  -28.0259  -24.8136   20.8461 C   0  0  0  0  0  0
  -29.5188  -15.9560   20.7023 N   0  0  0  0  0  0
  -27.7136  -18.0693   20.4328 S   0  0  0  0  0  0
  -31.4785  -12.7810   19.1776 H   0  0  0  0  0  0
  -30.4948  -11.6013   19.9982 H   0  0  0  0  0  0
  -29.8479  -11.7402   17.5733 H   0  0  0  0  0  0
  -29.6060  -13.4633   17.7124 H   0  0  0  0  0  0
  -27.9568  -11.2570   18.9793 H   0  0  0  0  0  0
  -27.3940  -12.4341   17.8235 H   0  0  0  0  0  0
  -27.6176  -14.2333   19.4433 H   0  0  0  0  0  0
  -28.7513  -12.1759   21.4105 H   0  0  0  0  0  0
  -28.3600  -13.8231   21.8179 H   0  0  0  0  0  0
  -25.2736   -9.5665   22.4765 H   0  0  0  0  0  0
  -23.9980   -7.4618   22.7486 H   0  0  0  0  0  0
  -21.0826   -8.8752   19.8956 H   0  0  0  0  0  0
  -22.3673  -10.9658   19.6164 H   0  0  0  0  0  0
  -21.1981   -7.6136   23.9696 H   0  0  0  0  0  0
  -21.1486   -6.0520   25.9070 H   0  0  0  0  0  0
  -22.0604   -2.7609   23.2841 H   0  0  0  0  0  0
  -22.4005  -11.9846   22.4750 H   0  0  0  0  0  0
  -21.1058  -13.1294   22.2668 H   0  0  0  0  0  0
  -24.6271  -15.8229   20.4599 H   0  0  0  0  0  0
  -26.2312  -15.6141   19.9815 H   0  0  0  0  0  0
  -26.7232  -32.5311   23.0951 H   0  0  0  0  0  0
  -25.0105  -33.9629   25.0336 H   0  0  0  0  0  0
  -22.7470  -31.2992   21.3784 H   0  0  0  0  0  0
  -23.3731  -35.9554   23.3341 H   0  0  0  0  0  0
  -24.3565  -36.8805   22.2042 H   0  0  0  0  0  0
  -23.7225  -37.6437   23.6626 H   0  0  0  0  0  0
  -26.1367  -31.4842   20.5930 H   0  0  0  0  0  0
  -26.8714  -30.7973   22.0048 H   0  0  0  0  0  0
  -28.1362  -28.8347   21.2097 H   0  0  0  0  0  0
  -25.9190  -25.8203   19.0656 H   0  0  0  0  0  0
  -23.9463  -27.2828   19.0401 H   0  0  0  0  0  0
  -23.8132  -30.5779   19.3981 H   0  0  0  0  0  0
  -22.7794  -29.2552   19.8319 H   0  0  0  0  0  0
  -25.1316  -36.1843   25.0790 H   0  0  0  0  0  0
  -21.0095  -28.3374   24.1334 H   0  0  0  0  0  0
  -20.5760  -26.2356   23.3623 H   0  0  0  0  0  0
  -21.6660  -26.7530   22.1151 H   0  0  0  0  0  0
  -19.6924  -25.6415   21.1227 H   0  0  0  0  0  0
  -19.6717  -27.3308   20.6758 H   0  0  0  0  0  0
  -17.4237  -26.6810   21.4037 H   0  0  0  0  0  0
  -18.0338  -26.0185   22.9057 H   0  0  0  0  0  0
  -19.7957  -30.7382   24.2256 H   0  0  0  0  0  0
  -17.5042  -31.6320   24.5252 H   0  0  0  0  0  0
  -15.5380  -30.3071   23.7697 H   0  0  0  0  0  0
  -15.8710  -28.0926   22.7052 H   0  0  0  0  0  0
  -24.5978  -30.7029   25.7707 H   0  0  0  0  0  0
  -24.8927  -32.2906   26.4681 H   0  0  0  0  0  0
  -25.8109  -30.9007   27.0176 H   0  0  0  0  0  0
  -26.2935  -29.6690   24.1175 H   0  0  0  0  0  0
  -27.4084  -29.7210   25.4646 H   0  0  0  0  0  0
  -27.8825  -30.4194   23.9335 H   0  0  0  0  0  0
  -27.2749  -33.3592   26.1963 H   0  0  0  0  0  0
  -28.3976  -32.6789   25.0295 H   0  0  0  0  0  0
  -28.0709  -31.8382   26.5398 H   0  0  0  0  0  0
  -28.2607  -38.0054   24.7506 H   0  0  0  0  0  0
  -28.1038  -36.2586   24.6345 H   0  0  0  0  0  0
  -27.2290  -37.1454   25.8888 H   0  0  0  0  0  0
  -20.9410  -29.8750   21.6736 H   0  0  0  0  0  0
  -26.0146  -38.2784   24.1467 H   0  0  0  0  0  0
  -31.2678  -18.4511   20.6062 H   0  0  0  0  0  0
  -30.2997  -23.2165   21.4097 H   0  0  0  0  0  0
  -30.5781  -21.3966   19.2881 H   0  0  0  0  0  0
  -31.2048  -21.1782   20.8685 H   0  0  0  0  0  0
  -26.6928  -21.1175   21.2036 H   0  0  0  0  0  0
  -26.3132  -20.5639   19.6261 H   0  0  0  0  0  0
  -27.8324  -22.2699   18.5552 H   0  0  0  0  0  0
  -26.5643  -22.9568   19.5109 H   0  0  0  0  0  0
  -28.5851  -24.9511   21.7705 H   0  0  0  0  0  0
  -26.9909  -24.7392   21.1846 H   0  0  0  0  0  0
  -28.6432  -15.5245   20.9626 H   0  0  0  0  0  0
  1 25  1  0  0  0
  1 30  2  0  0  0
  1 81  1  0  0  0
  2  3  1  0  0  0
  2 25  1  0  0  0
  2 83  1  0  0  0
  2 84  1  0  0  0
  3  4  1  0  0  0
  3 85  1  0  0  0
  3 86  1  0  0  0
  4  5  1  0  0  0
  4 87  1  0  0  0
  4 88  1  0  0  0
  5  6  1  0  0  0
  5 26  1  0  0  0
  5 89  1  0  0  0
  6 25  1  0  0  0
  6 90  1  0  0  0
  6 91  1  0  0  0
  7  8  2  0  0  0
  7 26  1  0  0  0
  7 29  1  0  0  0
  8  9  1  0  0  0
  8 22  1  0  0  0
  9 10  1  0  0  0
  9 27  2  0  0  0
 10 11  2  0  0  0
 10 15  1  0  0  0
 11 12  1  0  0  0
 11 92  1  0  0  0
 12 13  2  0  0  0
 12 93  1  0  0  0
 13 14  1  0  0  0
 13 31  1  0  0  0
 14 15  2  0  0  0
 14 94  1  0  0  0
 15 95  1  0  0  0
 16 17  2  0  0  0
 16 21  1  0  0  0
 16 31  1  0  0  0
 17 18  1  0  0  0
 17 96  1  0  0  0
 18 19  2  0  0  0
 18 97  1  0  0  0
 19 20  1  0  0  0
 19 24  1  0  0  0
 20 21  2  0  0  0
 20 98  1  0  0  0
 21 23  1  0  0  0
 22 28  1  0  0  0
 22 32  2  0  0  0
 26 27  1  0  0  0
 28 99  1  0  0  0
 28100  1  0  0  0
 29101  1  0  0  0
 29102  1  0  0  0
 33 34  1  0  0  0
 33 66  1  0  0  0
 33 70  2  0  0  0
 34 36  1  0  0  0
 34 59  1  0  0  0
 34103  1  0  0  0
 35 44  2  0  0  0
 35 45  1  0  0  0
 35 68  1  0  0  0
 36 56  1  0  0  0
 36104  1  0  0  0
 37 39  1  0  0  0
 37 47  1  0  0  0
 37 66  1  0  0  0
 37105  1  0  0  0
 38 43  2  0  0  0
 38 46  1  0  0  0
 38 47  1  0  0  0
 39 64  1  0  0  0
 39 67  2  0  0  0
 40 52  1  0  0  0
 40 53  2  0  0  0
 40 58  1  0  0  0
 41106  1  0  0  0
 41107  1  0  0  0
 41108  1  0  0  0
 41 48  1  0  0  0
 42 43  1  0  0  0
 42 66  1  0  0  0
 42109  1  0  0  0
 42110  1  0  0  0
 43 44  1  0  0  0
 44111  1  0  0  0
 45 46  2  0  0  0
 45112  1  0  0  0
 46113  1  0  0  0
 47114  1  0  0  0
 47115  1  0  0  0
 48 56  1  0  0  0
 48 65  1  0  0  0
 48116  1  0  0  0
 49 50  1  0  0  0
 49 53  1  0  0  0
 49 64  1  0  0  0
 49117  1  0  0  0
 50 51  1  0  0  0
 50118  1  0  0  0
 50119  1  0  0  0
 51 52  1  0  0  0
 51120  1  0  0  0
 51121  1  0  0  0
 52122  1  0  0  0
 52123  1  0  0  0
 53 54  1  0  0  0
 54 55  2  0  0  0
 54124  1  0  0  0
 55 57  1  0  0  0
 55125  1  0  0  0
 56 69  2  0  0  0
 57 58  2  0  0  0
 57126  1  0  0  0
 58127  1  0  0  0
 59 60  1  0  0  0
 59 61  1  0  0  0
 59 62  1  0  0  0
 60128  1  0  0  0
 60129  1  0  0  0
 60130  1  0  0  0
 61131  1  0  0  0
 61132  1  0  0  0
 61133  1  0  0  0
 62134  1  0  0  0
 62135  1  0  0  0
 62136  1  0  0  0
 63 65  1  0  0  0
 63137  1  0  0  0
 63138  1  0  0  0
 63139  1  0  0  0
 64140  1  0  0  0
 65141  1  0  0  0
 68 80  1  0  0  0
 71 72  1  0  0  0
 71 74  2  0  0  0
 71142  1  0  0  0
 72 73  2  0  0  0
 72 77  1  0  0  0
 73 78  1  0  0  0
 73 82  1  0  0  0
 74 81  1  0  0  0
 74 82  1  0  0  0
 75 76  2  0  0  0
 75 77  1  0  0  0
 75143  1  0  0  0
 76 79  1  0  0  0
 76 80  1  0  0  0
 77144  1  0  0  0
 77145  1  0  0  0
 78 79  1  0  0  0
 78146  1  0  0  0
 78147  1  0  0  0
 79148  1  0  0  0
 79149  1  0  0  0
 80150  1  0  0  0
 80151  1  0  0  0
 81152  1  0  0  0
M  ISO  4   1 100  68 101  80 101  81 100
M  END
> <chiral flag>
0

> <version>
0

> <s_m_source_file>
/data/baiqing/PycharmProjects/Reinvent-master-3.2/result/LINK_invent/BTK/process_docking_weight1_custom_product_contain_oxygen_bond_distance_aromatic_linkinvent_7_9_3/rearranged_h_0111.sdf

> <i_m_source_file_index>
66

> <r_mmod_Potential_Energy-OPLS-2005>
446.330780029297

> <r_mmod_Stretch_Energy-OPLS-2005>
188.436111450195

> <r_mmod_Bend_Energy-OPLS-2005>
270.295684814453

> <r_mmod_Torsional_Energy-OPLS-2005>
264.432586669922

> <r_mmod_Improper_Torsional_Energy-OPLS-2005>
5.42277002334595

> <r_mmod_Van_der_Waal_Energy-OPLS-2005>
106.978485107422

> <r_mmod_Electrostatic_Energy-OPLS-2005>
-366.717102050781

> <r_mmod_Solvation_Energy-OPLS-2005>
-201.740036010742

> <b_mmod_Minimization_Converged-OPLS-2005>
0

> <r_mmod_RMS_Derivative-OPLS-2005>
6.18097400665283

$$$$
68
                    3D
 Structure written by MMmdl.
157165  0  0  1  0            999 V2000
  -30.5248  -14.9914   20.4959 C   0  0  0  0  0  0
  -30.4551  -12.6312   19.5115 C   0  0  0  0  0  0
  -29.5358  -12.5566   18.2657 C   0  0  0  0  0  0
  -28.0632  -12.3339   18.6639 C   0  0  0  0  0  0
  -27.6349  -13.2425   19.8425 C   0  0  2  0  0  0
  -28.6715  -13.2059   20.9784 C   0  0  0  0  0  0
  -25.2487  -13.8198   20.5698 C   0  0  0  0  0  0
  -24.1783  -13.0431   20.9167 C   0  0  0  0  0  0
  -24.6388  -11.6909   20.8677 C   0  0  0  0  0  0
  -23.9064  -10.4288   21.0368 C   0  0  0  0  0  0
  -24.3610   -9.4211   21.9149 C   0  0  0  0  0  0
  -23.6271   -8.2261   22.0744 C   0  0  0  0  0  0
  -22.4241   -8.0298   21.3554 C   0  0  0  0  0  0
  -21.9877   -9.0269   20.4653 C   0  0  0  0  0  0
  -22.7220  -10.2142   20.3049 C   0  0  0  0  0  0
  -21.6860   -6.0737   22.5284 C   0  0  0  0  0  0
  -21.4018   -6.5641   23.8218 C   0  0  0  0  0  0
  -21.3658   -5.6795   24.9176 C   0  0  0  0  0  0
  -21.6039   -4.3060   24.7224 C   0  0  0  0  0  0
  -21.8810   -3.8140   23.4350 C   0  0  0  0  0  0
  -21.9193   -4.6963   22.3402 C   0  0  0  0  0  0
  -22.7814  -13.5225   21.1835 C   0  0  0  0  0  0
  -22.1655   -4.2149   21.0981 F   0  0  0  0  0  0
  -21.5619   -3.4541   25.7738 F   0  0  0  0  0  0
  -29.9478  -13.7063   20.4232 N   0  0  0  0  0  0
  -26.2899  -12.9404   20.3197 N   0  0  0  0  0  0
  -25.9316  -11.6542   20.5641 N   0  0  0  0  0  0
  -22.0476  -12.8248   22.0425 N   0  0  0  0  0  0
  -25.4200  -15.1933   20.4244 N   0  0  0  0  0  0
  -31.6819  -15.0828   20.0603 O   0  0  0  0  0  0
  -21.6627   -6.8879   21.4246 O   0  0  0  0  0  0
  -22.3491  -14.5523   20.6677 O   0  0  0  0  0  0
  -24.6445  -31.8413   23.1859 C   0  0  0  0  0  0
  -25.9210  -32.4680   23.8251 C   0  0  1  0  0  0
  -27.2232  -27.1203   20.1521 C   0  0  0  0  0  0
  -25.5951  -33.8490   24.2168 N   0  0  0  0  0  0
  -23.4487  -30.4587   21.5311 C   0  0  2  0  0  0
  -24.9000  -28.8801   20.1125 C   0  0  0  0  0  0
  -22.7564  -29.4523   22.4845 C   0  0  0  0  0  0
  -18.0304  -28.1400   22.8461 C   0  0  0  0  0  0
  -24.1495  -36.7253   23.2642 C   0  0  0  0  0  0
  -26.0056  -30.7110   21.3853 C   0  0  0  0  0  0
  -26.0780  -29.3191   20.7294 C   0  0  0  0  0  0
  -27.2406  -28.4577   20.7268 C   0  0  0  0  0  0
  -26.0147  -26.7819   19.5048 C   0  0  0  0  0  0
  -24.8811  -27.6248   19.4862 C   0  0  0  0  0  0
  -23.6773  -29.7846   20.1518 C   0  0  0  0  0  0
  -25.4127  -36.3020   24.0308 C   0  0  1  0  0  0
  -20.5915  -28.3722   23.1242 C   0  0  2  0  0  0
  -20.6791  -26.9424   22.5411 C   0  0  0  0  0  0
  -19.5771  -26.6381   21.5210 C   0  0  0  0  0  0
  -18.1949  -26.7938   22.1616 C   0  0  0  0  0  0
  -19.1560  -28.8877   23.2844 C   0  0  0  0  0  0
  -18.9476  -30.1472   23.8874 C   0  0  0  0  0  0
  -17.6476  -30.6591   24.0557 C   0  0  0  0  0  0
  -25.9072  -34.9398   23.5044 C   0  0  0  0  0  0
  -16.5369  -29.9085   23.6340 C   0  0  0  0  0  0
  -16.7287  -28.6510   23.0350 C   0  0  0  0  0  0
  -26.4538  -31.6556   25.0695 C   0  0  0  0  0  0
  -25.3723  -31.3764   26.1390 C   0  0  0  0  0  0
  -27.0401  -30.2945   24.6283 C   0  0  0  0  0  0
  -27.6050  -32.4340   25.7491 C   0  0  0  0  0  0
  -27.5574  -37.1786   24.8465 C   0  0  0  0  0  0
  -21.4248  -29.3041   22.3598 N   0  0  0  0  0  0
  -26.4289  -37.3731   23.9401 N   0  0  0  0  0  0
  -24.7194  -31.0256   22.0893 N   0  0  0  0  0  0
  -23.4196  -28.8065   23.3003 O   0  0  0  0  0  0
  -28.2960  -26.1502   20.1859 O   0  0  0  0  0  0
  -26.5655  -34.8900   22.4625 O   0  0  0  0  0  0
  -23.5564  -32.1309   23.7070 O   0  0  0  0  0  0
  -30.4197  -20.1035   21.2018 C   0  0  0  0  0  0
  -28.9380  -18.3484   19.6978 C   0  0  0  0  0  0
  -30.5777  -18.6636   21.3545 C   0  0  0  0  0  0
  -29.5225  -20.7847   20.3094 C   0  0  0  0  0  0
  -29.8476  -17.6708   20.5985 C   0  0  0  0  0  0
  -28.7930  -19.8019   19.5431 C   0  0  0  0  0  0
  -28.3021  -16.7664   22.8092 C   0  0  0  0  0  0
  -29.2540  -15.9905   22.2542 C   0  0  0  0  0  0
  -29.3502  -23.5435   19.9451 C   0  0  0  0  0  0
  -31.5751  -18.2050   22.4050 C   0  0  0  0  0  0
  -30.4520  -24.4303   19.3961 C   0  0  0  0  0  0
  -28.0908  -24.5888   20.2483 C   0  0  0  0  0  0
  -29.7619  -22.2389   20.0011 N   0  0  0  0  0  0
  -29.8125  -16.1569   20.9701 N   0  0  0  0  0  0
  -27.9457  -20.2531   18.5863 F   0  0  0  0  0  0
  -31.4833  -12.8142   19.1946 H   0  0  0  0  0  0
  -30.4839  -11.6704   20.0291 H   0  0  0  0  0  0
  -29.8677  -11.7598   17.5982 H   0  0  0  0  0  0
  -29.6218  -13.4857   17.6975 H   0  0  0  0  0  0
  -27.9541  -11.2865   18.9482 H   0  0  0  0  0  0
  -27.4094  -12.4862   17.8044 H   0  0  0  0  0  0
  -27.6146  -14.2594   19.4495 H   0  0  0  0  0  0
  -28.7819  -12.1906   21.3617 H   0  0  0  0  0  0
  -28.2999  -13.7723   21.8245 H   0  0  0  0  0  0
  -25.2771   -9.5692   22.4696 H   0  0  0  0  0  0
  -23.9988   -7.4665   22.7478 H   0  0  0  0  0  0
  -21.0794   -8.8807   19.8976 H   0  0  0  0  0  0
  -22.3675  -10.9678   19.6160 H   0  0  0  0  0  0
  -21.2014   -7.6156   23.9717 H   0  0  0  0  0  0
  -21.1480   -6.0525   25.9081 H   0  0  0  0  0  0
  -22.0580   -2.7604   23.2851 H   0  0  0  0  0  0
  -22.4134  -11.9938   22.4835 H   0  0  0  0  0  0
  -21.1123  -13.1338   22.2669 H   0  0  0  0  0  0
  -24.6594  -15.8488   20.5618 H   0  0  0  0  0  0
  -26.2925  -15.6433   20.1765 H   0  0  0  0  0  0
  -26.7263  -32.5284   23.0965 H   0  0  0  0  0  0
  -25.0072  -33.9594   25.0300 H   0  0  0  0  0  0
  -22.7525  -31.2848   21.3725 H   0  0  0  0  0  0
  -23.3748  -35.9593   23.3301 H   0  0  0  0  0  0
  -24.3573  -36.8888   22.2057 H   0  0  0  0  0  0
  -23.7265  -37.6453   23.6686 H   0  0  0  0  0  0
  -26.1611  -31.4631   20.6108 H   0  0  0  0  0  0
  -26.8768  -30.7648   22.0268 H   0  0  0  0  0  0
  -28.1425  -28.7919   21.2209 H   0  0  0  0  0  0
  -25.9169  -25.8287   19.0107 H   0  0  0  0  0  0
  -23.9822  -27.2838   18.9919 H   0  0  0  0  0  0
  -23.8161  -30.5575   19.3943 H   0  0  0  0  0  0
  -22.7924  -29.2257   19.8410 H   0  0  0  0  0  0
  -25.1319  -36.1835   25.0798 H   0  0  0  0  0  0
  -21.0009  -28.3317   24.1365 H   0  0  0  0  0  0
  -20.5687  -26.2326   23.3622 H   0  0  0  0  0  0
  -21.6658  -26.7426   22.1212 H   0  0  0  0  0  0
  -19.6935  -25.6283   21.1259 H   0  0  0  0  0  0
  -19.6723  -27.3177   20.6729 H   0  0  0  0  0  0
  -17.4215  -26.6668   21.4023 H   0  0  0  0  0  0
  -18.0352  -26.0093   22.9029 H   0  0  0  0  0  0
  -19.7951  -30.7290   24.2241 H   0  0  0  0  0  0
  -17.5030  -31.6272   24.5157 H   0  0  0  0  0  0
  -15.5369  -30.2983   23.7680 H   0  0  0  0  0  0
  -15.8684  -28.0824   22.7085 H   0  0  0  0  0  0
  -24.5880  -30.7131   25.7721 H   0  0  0  0  0  0
  -24.8943  -32.2960   26.4778 H   0  0  0  0  0  0
  -25.8010  -30.8956   27.0190 H   0  0  0  0  0  0
  -26.3016  -29.6662   24.1283 H   0  0  0  0  0  0
  -27.3998  -29.7253   25.4868 H   0  0  0  0  0  0
  -27.8934  -30.4175   23.9607 H   0  0  0  0  0  0
  -27.2606  -33.3648   26.2019 H   0  0  0  0  0  0
  -28.3890  -32.6895   25.0346 H   0  0  0  0  0  0
  -28.0679  -31.8497   26.5454 H   0  0  0  0  0  0
  -28.2590  -38.0084   24.7475 H   0  0  0  0  0  0
  -28.1065  -36.2599   24.6325 H   0  0  0  0  0  0
  -27.2278  -37.1475   25.8868 H   0  0  0  0  0  0
  -20.9457  -29.8749   21.6770 H   0  0  0  0  0  0
  -26.0145  -38.2794   24.1401 H   0  0  0  0  0  0
  -31.0740  -20.7323   21.7883 H   0  0  0  0  0  0
  -28.2915  -17.7304   19.0936 H   0  0  0  0  0  0
  -27.9550  -16.5751   23.8124 H   0  0  0  0  0  0
  -27.8484  -17.5989   22.2916 H   0  0  0  0  0  0
  -29.6815  -15.1730   22.8216 H   0  0  0  0  0  0
  -32.3991  -18.9126   22.5017 H   0  0  0  0  0  0
  -32.0091  -17.2375   22.1545 H   0  0  0  0  0  0
  -31.0818  -18.1214   23.3741 H   0  0  0  0  0  0
  -30.0814  -25.0234   18.5610 H   0  0  0  0  0  0
  -31.3033  -23.8509   19.0381 H   0  0  0  0  0  0
  -30.8070  -25.1092   20.1712 H   0  0  0  0  0  0
  -27.7061  -24.3593   21.2420 H   0  0  0  0  0  0
  -27.2987  -24.3081   19.5581 H   0  0  0  0  0  0
  1 25  1  0  0  0
  1 30  2  0  0  0
  1 84  1  0  0  0
  2  3  1  0  0  0
  2 25  1  0  0  0
  2 86  1  0  0  0
  2 87  1  0  0  0
  3  4  1  0  0  0
  3 88  1  0  0  0
  3 89  1  0  0  0
  4  5  1  0  0  0
  4 90  1  0  0  0
  4 91  1  0  0  0
  5  6  1  0  0  0
  5 26  1  0  0  0
  5 92  1  0  0  0
  6 25  1  0  0  0
  6 93  1  0  0  0
  6 94  1  0  0  0
  7  8  2  0  0  0
  7 26  1  0  0  0
  7 29  1  0  0  0
  8  9  1  0  0  0
  8 22  1  0  0  0
  9 10  1  0  0  0
  9 27  2  0  0  0
 10 11  2  0  0  0
 10 15  1  0  0  0
 11 12  1  0  0  0
 11 95  1  0  0  0
 12 13  2  0  0  0
 12 96  1  0  0  0
 13 14  1  0  0  0
 13 31  1  0  0  0
 14 15  2  0  0  0
 14 97  1  0  0  0
 15 98  1  0  0  0
 16 17  2  0  0  0
 16 21  1  0  0  0
 16 31  1  0  0  0
 17 18  1  0  0  0
 17 99  1  0  0  0
 18 19  2  0  0  0
 18100  1  0  0  0
 19 20  1  0  0  0
 19 24  1  0  0  0
 20 21  2  0  0  0
 20101  1  0  0  0
 21 23  1  0  0  0
 22 28  1  0  0  0
 22 32  2  0  0  0
 26 27  1  0  0  0
 28102  1  0  0  0
 28103  1  0  0  0
 29104  1  0  0  0
 29105  1  0  0  0
 33 34  1  0  0  0
 33 66  1  0  0  0
 33 70  2  0  0  0
 34 36  1  0  0  0
 34 59  1  0  0  0
 34106  1  0  0  0
 35 44  2  0  0  0
 35 45  1  0  0  0
 35 68  1  0  0  0
 36 56  1  0  0  0
 36107  1  0  0  0
 37 39  1  0  0  0
 37 47  1  0  0  0
 37 66  1  0  0  0
 37108  1  0  0  0
 38 43  2  0  0  0
 38 46  1  0  0  0
 38 47  1  0  0  0
 39 64  1  0  0  0
 39 67  2  0  0  0
 40 52  1  0  0  0
 40 53  2  0  0  0
 40 58  1  0  0  0
 41109  1  0  0  0
 41110  1  0  0  0
 41111  1  0  0  0
 41 48  1  0  0  0
 42 43  1  0  0  0
 42 66  1  0  0  0
 42112  1  0  0  0
 42113  1  0  0  0
 43 44  1  0  0  0
 44114  1  0  0  0
 45 46  2  0  0  0
 45115  1  0  0  0
 46116  1  0  0  0
 47117  1  0  0  0
 47118  1  0  0  0
 48 56  1  0  0  0
 48 65  1  0  0  0
 48119  1  0  0  0
 49 50  1  0  0  0
 49 53  1  0  0  0
 49 64  1  0  0  0
 49120  1  0  0  0
 50 51  1  0  0  0
 50121  1  0  0  0
 50122  1  0  0  0
 51 52  1  0  0  0
 51123  1  0  0  0
 51124  1  0  0  0
 52125  1  0  0  0
 52126  1  0  0  0
 53 54  1  0  0  0
 54 55  2  0  0  0
 54127  1  0  0  0
 55 57  1  0  0  0
 55128  1  0  0  0
 56 69  2  0  0  0
 57 58  2  0  0  0
 57129  1  0  0  0
 58130  1  0  0  0
 59 60  1  0  0  0
 59 61  1  0  0  0
 59 62  1  0  0  0
 60131  1  0  0  0
 60132  1  0  0  0
 60133  1  0  0  0
 61134  1  0  0  0
 61135  1  0  0  0
 61136  1  0  0  0
 62137  1  0  0  0
 62138  1  0  0  0
 62139  1  0  0  0
 63 65  1  0  0  0
 63140  1  0  0  0
 63141  1  0  0  0
 63142  1  0  0  0
 64143  1  0  0  0
 65144  1  0  0  0
 68 82  1  0  0  0
 71 73  2  0  0  0
 71 74  1  0  0  0
 71145  1  0  0  0
 72 75  2  0  0  0
 72 76  1  0  0  0
 72146  1  0  0  0
 73 75  1  0  0  0
 73 80  1  0  0  0
 74 76  2  0  0  0
 74 83  1  0  0  0
 75 84  1  0  0  0
 76 85  1  0  0  0
 77 78  2  0  0  0
 77147  1  0  0  0
 77148  1  0  0  0
 78 84  1  0  0  0
 78149  1  0  0  0
 79 81  1  0  0  0
 79 82  1  0  0  0
 79 83  2  0  0  0
 80150  1  0  0  0
 80151  1  0  0  0
 80152  1  0  0  0
 81153  1  0  0  0
 81154  1  0  0  0
 81155  1  0  0  0
 82156  1  0  0  0
 82157  1  0  0  0
M  ISO  4   1 100  68 101  82 101  84 100
M  END
> <chiral flag>
0

> <version>
0

> <s_m_source_file>
/data/baiqing/PycharmProjects/Reinvent-master-3.2/result/LINK_invent/BTK/process_docking_weight1_custom_product_contain_oxygen_bond_distance_aromatic_linkinvent_7_9_3/rearranged_h_0111.sdf

> <i_m_source_file_index>
67

> <r_mmod_Potential_Energy-OPLS-2005>
905.339599609375

> <r_mmod_Stretch_Energy-OPLS-2005>
277.612152099609

> <r_mmod_Bend_Energy-OPLS-2005>
415.754028320312

> <r_mmod_Torsional_Energy-OPLS-2005>
346.835205078125

> <r_mmod_Improper_Torsional_Energy-OPLS-2005>
10.6186904907227

> <r_mmod_Van_der_Waal_Energy-OPLS-2005>
146.753616333008

> <r_mmod_Electrostatic_Energy-OPLS-2005>
-304.420227050781

> <r_mmod_Solvation_Energy-OPLS-2005>
-191.360595703125

> <b_mmod_Minimization_Converged-OPLS-2005>
0

> <r_mmod_RMS_Derivative-OPLS-2005>
2.25315451622009

$$$$
69
                    3D
 Structure written by MMmdl.
158166  0  0  1  0            999 V2000
  -30.8366  -14.8332   20.3496 C   0  0  0  0  0  0
  -30.3744  -12.5664   19.4210 C   0  0  0  0  0  0
  -29.4665  -12.4642   18.1788 C   0  0  0  0  0  0
  -27.9801  -12.7040   18.5040 C   0  0  0  0  0  0
  -27.7205  -12.8170   20.0177 C   0  0  2  0  0  0
  -28.7008  -13.6048   20.8952 C   0  0  0  0  0  0
  -25.3094  -13.7736   20.5731 C   0  0  0  0  0  0
  -24.1913  -13.0492   20.9174 C   0  0  0  0  0  0
  -24.5847  -11.6810   20.8791 C   0  0  0  0  0  0
  -23.8566  -10.4301   21.0491 C   0  0  0  0  0  0
  -24.3299   -9.4270   21.9216 C   0  0  0  0  0  0
  -23.6112   -8.2236   22.0733 C   0  0  0  0  0  0
  -22.4079   -8.0220   21.3525 C   0  0  0  0  0  0
  -21.9621   -9.0181   20.4628 C   0  0  0  0  0  0
  -22.6855  -10.2117   20.3095 C   0  0  0  0  0  0
  -21.6806   -6.0632   22.5277 C   0  0  0  0  0  0
  -21.4011   -6.5573   23.8193 C   0  0  0  0  0  0
  -21.3616   -5.6752   24.9158 C   0  0  0  0  0  0
  -21.6041   -4.3026   24.7274 C   0  0  0  0  0  0
  -21.8871   -3.8098   23.4417 C   0  0  0  0  0  0
  -21.9247   -4.6867   22.3430 C   0  0  0  0  0  0
  -22.8018  -13.5545   21.1838 C   0  0  0  0  0  0
  -22.1679   -4.2022   21.1014 F   0  0  0  0  0  0
  -21.5630   -3.4558   25.7819 F   0  0  0  0  0  0
  -29.9682  -13.7841   20.1777 N   0  0  0  0  0  0
  -26.3142  -12.8213   20.3922 N   0  0  0  0  0  0
  -25.8531  -11.5750   20.5896 N   0  0  0  0  0  0
  -22.0520  -12.8466   22.0278 N   0  0  0  0  0  0
  -25.5197  -15.1419   20.4072 N   0  0  0  0  0  0
  -32.0257  -14.5349   20.4081 O   0  0  0  0  0  0
  -21.6584   -6.8760   21.4204 O   0  0  0  0  0  0
  -22.3780  -14.5873   20.6755 O   0  0  0  0  0  0
  -24.6340  -31.8533   23.1968 C   0  0  0  0  0  0
  -25.9165  -32.4733   23.8298 C   0  0  1  0  0  0
  -27.2062  -27.2316   20.1296 C   0  0  0  0  0  0
  -25.5952  -33.8528   24.2223 N   0  0  0  0  0  0
  -23.4301  -30.4764   21.5406 C   0  0  2  0  0  0
  -24.8788  -28.9275   20.1061 C   0  0  0  0  0  0
  -22.7530  -29.4589   22.4882 C   0  0  0  0  0  0
  -18.0290  -28.1392   22.8480 C   0  0  0  0  0  0
  -24.1499  -36.7283   23.2630 C   0  0  0  0  0  0
  -25.9788  -30.7558   21.3853 C   0  0  0  0  0  0
  -26.0514  -29.3768   20.7270 C   0  0  0  0  0  0
  -27.2208  -28.5412   20.7326 C   0  0  0  0  0  0
  -26.0192  -26.8766   19.4483 C   0  0  0  0  0  0
  -24.8703  -27.6882   19.4507 C   0  0  0  0  0  0
  -23.6498  -29.8141   20.1554 C   0  0  0  0  0  0
  -25.4123  -36.3051   24.0314 C   0  0  1  0  0  0
  -20.5905  -28.3705   23.1256 C   0  0  2  0  0  0
  -20.6780  -26.9421   22.5398 C   0  0  0  0  0  0
  -19.5747  -26.6398   21.5204 C   0  0  0  0  0  0
  -18.1930  -26.7926   22.1613 C   0  0  0  0  0  0
  -19.1553  -28.8863   23.2859 C   0  0  0  0  0  0
  -18.9467  -30.1458   23.8891 C   0  0  0  0  0  0
  -17.6470  -30.6597   24.0561 C   0  0  0  0  0  0
  -25.9069  -34.9424   23.5075 C   0  0  0  0  0  0
  -16.5358  -29.9103   23.6329 C   0  0  0  0  0  0
  -16.7276  -28.6514   23.0355 C   0  0  0  0  0  0
  -26.4544  -31.6554   25.0684 C   0  0  0  0  0  0
  -25.3745  -31.3718   26.1390 C   0  0  0  0  0  0
  -27.0398  -30.2961   24.6190 C   0  0  0  0  0  0
  -27.6084  -32.4311   25.7480 C   0  0  0  0  0  0
  -27.5583  -37.1779   24.8472 C   0  0  0  0  0  0
  -21.4243  -29.3057   22.3647 N   0  0  0  0  0  0
  -26.4286  -37.3760   23.9415 N   0  0  0  0  0  0
  -24.6986  -31.0476   22.0964 N   0  0  0  0  0  0
  -23.4208  -28.8112   23.2985 O   0  0  0  0  0  0
  -28.2508  -26.2702   20.1832 O   0  0  0  0  0  0
  -26.5636  -34.8922   22.4655 O   0  0  0  0  0  0
  -23.5497  -32.1363   23.7270 O   0  0  0  0  0  0
  -29.2797  -20.6208   22.6203 C   0  0  0  0  0  0
  -29.1547  -20.9940   21.3287 C   0  0  0  0  0  0
  -29.3752  -18.4796   20.8050 C   0  0  0  0  0  0
  -29.2570  -19.8113   20.3675 C   0  0  0  0  0  0
  -29.4674  -18.2288   22.2528 C   0  0  0  0  0  0
  -28.6950  -22.4538   21.2154 C   0  0  0  0  0  0
  -28.6339  -23.5134   20.3176 C   0  0  0  0  0  0
  -31.7250  -17.0524   19.6934 C   0  0  0  0  0  0
  -30.2696  -20.9585   18.5728 C   0  0  0  0  0  0
  -29.3564  -17.1151   19.9565 C   0  0  0  0  0  0
  -27.8516  -24.8775   20.6340 C   0  0  0  0  0  0
  -29.4677  -19.3094   23.0459 N   0  0  0  0  0  0
  -30.5625  -16.1869   20.0257 N   0  0  0  0  0  0
  -29.5550  -17.1029   22.7502 O   0  0  0  0  0  0
  -29.2885  -20.0219   19.0133 O   0  0  0  0  0  0
  -31.4100  -12.5841   19.0837 H   0  0  0  0  0  0
  -30.2826  -11.6765   20.0512 H   0  0  0  0  0  0
  -29.5853  -11.4882   17.7057 H   0  0  0  0  0  0
  -29.7741  -13.1879   17.4222 H   0  0  0  0  0  0
  -27.3813  -11.9066   18.0611 H   0  0  0  0  0  0
  -27.6524  -13.6286   18.0246 H   0  0  0  0  0  0
  -28.0535  -11.8155   20.3106 H   0  0  0  0  0  0
  -28.8773  -13.1171   21.8545 H   0  0  0  0  0  0
  -28.2825  -14.5833   21.1220 H   0  0  0  0  0  0
  -25.2416   -9.5849   22.4811 H   0  0  0  0  0  0
  -23.9912   -7.4638   22.7404 H   0  0  0  0  0  0
  -21.0607   -8.8717   19.8887 H   0  0  0  0  0  0
  -22.3327  -10.9703   19.6224 H   0  0  0  0  0  0
  -21.1958   -7.6095   23.9641 H   0  0  0  0  0  0
  -21.1298   -6.0484   25.9030 H   0  0  0  0  0  0
  -22.0654   -2.7537   23.3010 H   0  0  0  0  0  0
  -22.3920  -12.0063   22.4703 H   0  0  0  0  0  0
  -21.1169  -13.1607   22.2320 H   0  0  0  0  0  0
  -24.7927  -15.8049   20.6503 H   0  0  0  0  0  0
  -26.2751  -15.5533   19.8739 H   0  0  0  0  0  0
  -26.7211  -32.5392   23.1016 H   0  0  0  0  0  0
  -25.0074  -33.9646   25.0353 H   0  0  0  0  0  0
  -22.7297  -31.3018   21.3992 H   0  0  0  0  0  0
  -23.3764  -35.9612   23.3272 H   0  0  0  0  0  0
  -24.3595  -36.8936   22.2050 H   0  0  0  0  0  0
  -23.7258  -37.6480   23.6678 H   0  0  0  0  0  0
  -26.1202  -31.5112   20.6124 H   0  0  0  0  0  0
  -26.8580  -30.8087   22.0141 H   0  0  0  0  0  0
  -28.1130  -28.8686   21.2486 H   0  0  0  0  0  0
  -25.9535  -25.9419   18.9111 H   0  0  0  0  0  0
  -23.9799  -27.3594   18.9371 H   0  0  0  0  0  0
  -23.7720  -30.5947   19.4025 H   0  0  0  0  0  0
  -22.7681  -29.2450   19.8495 H   0  0  0  0  0  0
  -25.1307  -36.1880   25.0798 H   0  0  0  0  0  0
  -20.9971  -28.3272   24.1381 H   0  0  0  0  0  0
  -20.5707  -26.2288   23.3584 H   0  0  0  0  0  0
  -21.6636  -26.7458   22.1170 H   0  0  0  0  0  0
  -19.6919  -25.6323   21.1205 H   0  0  0  0  0  0
  -19.6689  -27.3228   20.6748 H   0  0  0  0  0  0
  -17.4196  -26.6670   21.4026 H   0  0  0  0  0  0
  -18.0355  -26.0075   22.9017 H   0  0  0  0  0  0
  -19.7953  -30.7274   24.2258 H   0  0  0  0  0  0
  -17.5035  -31.6277   24.5169 H   0  0  0  0  0  0
  -15.5364  -30.3007   23.7679 H   0  0  0  0  0  0
  -15.8658  -28.0843   22.7077 H   0  0  0  0  0  0
  -24.5924  -30.7074   25.7712 H   0  0  0  0  0  0
  -24.8926  -32.2886   26.4795 H   0  0  0  0  0  0
  -25.8030  -30.8898   27.0182 H   0  0  0  0  0  0
  -26.2962  -29.6676   24.1256 H   0  0  0  0  0  0
  -27.4134  -29.7275   25.4726 H   0  0  0  0  0  0
  -27.8841  -30.4257   23.9403 H   0  0  0  0  0  0
  -27.2673  -33.3628   26.2036 H   0  0  0  0  0  0
  -28.3910  -32.6846   25.0300 H   0  0  0  0  0  0
  -28.0732  -31.8424   26.5415 H   0  0  0  0  0  0
  -28.2597  -38.0077   24.7526 H   0  0  0  0  0  0
  -28.1070  -36.2611   24.6284 H   0  0  0  0  0  0
  -27.2288  -37.1416   25.8866 H   0  0  0  0  0  0
  -20.9425  -29.8715   21.6805 H   0  0  0  0  0  0
  -26.0167  -38.2829   24.1429 H   0  0  0  0  0  0
  -29.1766  -21.3020   23.4576 H   0  0  0  0  0  0
  -28.1973  -22.7509   22.1288 H   0  0  0  0  0  0
  -29.0561  -23.4276   19.3295 H   0  0  0  0  0  0
  -32.0371  -17.6368   20.5596 H   0  0  0  0  0  0
  -31.4842  -17.7461   18.8868 H   0  0  0  0  0  0
  -32.5996  -16.5164   19.3190 H   0  0  0  0  0  0
  -30.0263  -21.2948   17.5689 H   0  0  0  0  0  0
  -31.2564  -20.4887   18.5621 H   0  0  0  0  0  0
  -30.3785  -21.8491   19.1794 H   0  0  0  0  0  0
  -29.2222  -17.3871   18.9099 H   0  0  0  0  0  0
  -28.4573  -16.5515   20.2038 H   0  0  0  0  0  0
  -27.7590  -24.9433   21.7169 H   0  0  0  0  0  0
  -26.8447  -24.6323   20.2979 H   0  0  0  0  0  0
  -29.5334  -19.1511   24.0440 H   0  0  0  0  0  0
  1 25  1  0  0  0
  1 30  2  0  0  0
  1 83  1  0  0  0
  2  3  1  0  0  0
  2 25  1  0  0  0
  2 86  1  0  0  0
  2 87  1  0  0  0
  3  4  1  0  0  0
  3 88  1  0  0  0
  3 89  1  0  0  0
  4  5  1  0  0  0
  4 90  1  0  0  0
  4 91  1  0  0  0
  5  6  1  0  0  0
  5 26  1  0  0  0
  5 92  1  0  0  0
  6 25  1  0  0  0
  6 93  1  0  0  0
  6 94  1  0  0  0
  7  8  2  0  0  0
  7 26  1  0  0  0
  7 29  1  0  0  0
  8  9  1  0  0  0
  8 22  1  0  0  0
  9 10  1  0  0  0
  9 27  2  0  0  0
 10 11  2  0  0  0
 10 15  1  0  0  0
 11 12  1  0  0  0
 11 95  1  0  0  0
 12 13  2  0  0  0
 12 96  1  0  0  0
 13 14  1  0  0  0
 13 31  1  0  0  0
 14 15  2  0  0  0
 14 97  1  0  0  0
 15 98  1  0  0  0
 16 17  2  0  0  0
 16 21  1  0  0  0
 16 31  1  0  0  0
 17 18  1  0  0  0
 17 99  1  0  0  0
 18 19  2  0  0  0
 18100  1  0  0  0
 19 20  1  0  0  0
 19 24  1  0  0  0
 20 21  2  0  0  0
 20101  1  0  0  0
 21 23  1  0  0  0
 22 28  1  0  0  0
 22 32  2  0  0  0
 26 27  1  0  0  0
 28102  1  0  0  0
 28103  1  0  0  0
 29104  1  0  0  0
 29105  1  0  0  0
 33 34  1  0  0  0
 33 66  1  0  0  0
 33 70  2  0  0  0
 34 36  1  0  0  0
 34 59  1  0  0  0
 34106  1  0  0  0
 35 44  2  0  0  0
 35 45  1  0  0  0
 35 68  1  0  0  0
 36 56  1  0  0  0
 36107  1  0  0  0
 37 39  1  0  0  0
 37 47  1  0  0  0
 37 66  1  0  0  0
 37108  1  0  0  0
 38 43  2  0  0  0
 38 46  1  0  0  0
 38 47  1  0  0  0
 39 64  1  0  0  0
 39 67  2  0  0  0
 40 52  1  0  0  0
 40 53  2  0  0  0
 40 58  1  0  0  0
 41109  1  0  0  0
 41110  1  0  0  0
 41111  1  0  0  0
 41 48  1  0  0  0
 42 43  1  0  0  0
 42 66  1  0  0  0
 42112  1  0  0  0
 42113  1  0  0  0
 43 44  1  0  0  0
 44114  1  0  0  0
 45 46  2  0  0  0
 45115  1  0  0  0
 46116  1  0  0  0
 47117  1  0  0  0
 47118  1  0  0  0
 48 56  1  0  0  0
 48 65  1  0  0  0
 48119  1  0  0  0
 49 50  1  0  0  0
 49 53  1  0  0  0
 49 64  1  0  0  0
 49120  1  0  0  0
 50 51  1  0  0  0
 50121  1  0  0  0
 50122  1  0  0  0
 51 52  1  0  0  0
 51123  1  0  0  0
 51124  1  0  0  0
 52125  1  0  0  0
 52126  1  0  0  0
 53 54  1  0  0  0
 54 55  2  0  0  0
 54127  1  0  0  0
 55 57  1  0  0  0
 55128  1  0  0  0
 56 69  2  0  0  0
 57 58  2  0  0  0
 57129  1  0  0  0
 58130  1  0  0  0
 59 60  1  0  0  0
 59 61  1  0  0  0
 59 62  1  0  0  0
 60131  1  0  0  0
 60132  1  0  0  0
 60133  1  0  0  0
 61134  1  0  0  0
 61135  1  0  0  0
 61136  1  0  0  0
 62137  1  0  0  0
 62138  1  0  0  0
 62139  1  0  0  0
 63 65  1  0  0  0
 63140  1  0  0  0
 63141  1  0  0  0
 63142  1  0  0  0
 64143  1  0  0  0
 65144  1  0  0  0
 68 81  1  0  0  0
 71 72  2  0  0  0
 71 82  1  0  0  0
 71145  1  0  0  0
 72 74  1  0  0  0
 72 76  1  0  0  0
 73 74  2  0  0  0
 73 75  1  0  0  0
 73 80  1  0  0  0
 74 85  1  0  0  0
 75 82  1  0  0  0
 75 84  2  0  0  0
 76 77  2  0  0  0
 76146  1  0  0  0
 77 81  1  0  0  0
 77147  1  0  0  0
 78 83  1  0  0  0
 78148  1  0  0  0
 78149  1  0  0  0
 78150  1  0  0  0
 79 85  1  0  0  0
 79151  1  0  0  0
 79152  1  0  0  0
 79153  1  0  0  0
 80 83  1  0  0  0
 80154  1  0  0  0
 80155  1  0  0  0
 81156  1  0  0  0
 81157  1  0  0  0
 82158  1  0  0  0
M  ISO  4   1 100  68 101  81 101  83 100
M  END
> <chiral flag>
0

> <version>
0

> <s_m_source_file>
/data/baiqing/PycharmProjects/Reinvent-master-3.2/result/LINK_invent/BTK/process_docking_weight1_custom_product_contain_oxygen_bond_distance_aromatic_linkinvent_7_9_3/rearranged_h_0111.sdf

> <i_m_source_file_index>
68

> <r_mmod_Potential_Energy-OPLS-2005>
720.391174316406

> <r_mmod_Stretch_Energy-OPLS-2005>
151.231369018555

> <r_mmod_Bend_Energy-OPLS-2005>
324.249237060547

> <r_mmod_Torsional_Energy-OPLS-2005>
333.135437011719

> <r_mmod_Improper_Torsional_Energy-OPLS-2005>
16.1057529449463

> <r_mmod_Van_der_Waal_Energy-OPLS-2005>
176.439071655273

> <r_mmod_Electrostatic_Energy-OPLS-2005>
-302.110290527344

> <r_mmod_Solvation_Energy-OPLS-2005>
-216.354919433594

> <b_mmod_Minimization_Converged-OPLS-2005>
0

> <r_mmod_RMS_Derivative-OPLS-2005>
8.8331937789917

$$$$
70
                    3D
 Structure written by MMmdl.
153161  0  0  1  0            999 V2000
  -30.6855  -14.4733   20.4942 C   0  0  0  0  0  0
  -30.4193  -12.2826   19.4367 C   0  0  0  0  0  0
  -29.5029  -12.4915   18.2127 C   0  0  0  0  0  0
  -28.0213  -12.3594   18.6178 C   0  0  0  0  0  0
  -27.6628  -13.2015   19.8717 C   0  0  2  0  0  0
  -28.7047  -13.0043   20.9995 C   0  0  0  0  0  0
  -25.2614  -13.8132   20.5647 C   0  0  0  0  0  0
  -24.1857  -13.0431   20.9151 C   0  0  0  0  0  0
  -24.6397  -11.6889   20.8721 C   0  0  0  0  0  0
  -23.9057  -10.4289   21.0388 C   0  0  0  0  0  0
  -24.3619   -9.4218   21.9181 C   0  0  0  0  0  0
  -23.6302   -8.2248   22.0760 C   0  0  0  0  0  0
  -22.4282   -8.0280   21.3545 C   0  0  0  0  0  0
  -21.9906   -9.0254   20.4654 C   0  0  0  0  0  0
  -22.7219  -10.2135   20.3062 C   0  0  0  0  0  0
  -21.6866   -6.0745   22.5290 C   0  0  0  0  0  0
  -21.4017   -6.5646   23.8220 C   0  0  0  0  0  0
  -21.3660   -5.6793   24.9178 C   0  0  0  0  0  0
  -21.6048   -4.3060   24.7227 C   0  0  0  0  0  0
  -21.8821   -3.8157   23.4343 C   0  0  0  0  0  0
  -21.9189   -4.6974   22.3400 C   0  0  0  0  0  0
  -22.7886  -13.5247   21.1807 C   0  0  0  0  0  0
  -22.1667   -4.2160   21.0982 F   0  0  0  0  0  0
  -21.5624   -3.4542   25.7740 F   0  0  0  0  0  0
  -30.0380  -13.2806   20.4455 N   0  0  0  0  0  0
  -26.3038  -12.9294   20.3332 N   0  0  0  0  0  0
  -25.9328  -11.6469   20.5754 N   0  0  0  0  0  0
  -22.0511  -12.8273   22.0371 N   0  0  0  0  0  0
  -25.4308  -15.1858   20.4056 N   0  0  0  0  0  0
  -31.8538  -14.6183   20.1251 O   0  0  0  0  0  0
  -21.6641   -6.8883   21.4247 O   0  0  0  0  0  0
  -22.3592  -14.5560   20.6640 O   0  0  0  0  0  0
  -24.6146  -31.8662   23.2072 C   0  0  0  0  0  0
  -25.9043  -32.4809   23.8373 C   0  0  1  0  0  0
  -27.2406  -27.4343   20.1050 C   0  0  0  0  0  0
  -25.5902  -33.8600   24.2311 N   0  0  0  0  0  0
  -23.4024  -30.4890   21.5462 C   0  0  2  0  0  0
  -24.8522  -28.9486   20.1167 C   0  0  0  0  0  0
  -22.7401  -29.4674   22.4971 C   0  0  0  0  0  0
  -18.0273  -28.1377   22.8491 C   0  0  0  0  0  0
  -24.1486  -36.7311   23.2644 C   0  0  0  0  0  0
  -25.9299  -30.8368   21.3551 C   0  0  0  0  0  0
  -26.0115  -29.4691   20.7054 C   0  0  0  0  0  0
  -27.2112  -28.7217   20.6899 C   0  0  0  0  0  0
  -26.0655  -26.9221   19.5169 C   0  0  0  0  0  0
  -24.8733  -27.6731   19.5199 C   0  0  0  0  0  0
  -23.6110  -29.8139   20.1636 C   0  0  0  0  0  0
  -25.4107  -36.3087   24.0335 C   0  0  1  0  0  0
  -20.5863  -28.3662   23.1314 C   0  0  2  0  0  0
  -20.6754  -26.9393   22.5424 C   0  0  0  0  0  0
  -19.5729  -26.6384   21.5225 C   0  0  0  0  0  0
  -18.1909  -26.7923   22.1633 C   0  0  0  0  0  0
  -19.1527  -28.8835   23.2895 C   0  0  0  0  0  0
  -18.9457  -30.1443   23.8900 C   0  0  0  0  0  0
  -17.6465  -30.6580   24.0571 C   0  0  0  0  0  0
  -25.9037  -34.9461   23.5117 C   0  0  0  0  0  0
  -16.5348  -29.9087   23.6329 C   0  0  0  0  0  0
  -16.7268  -28.6503   23.0341 C   0  0  0  0  0  0
  -26.4477  -31.6584   25.0697 C   0  0  0  0  0  0
  -25.3754  -31.3703   26.1456 C   0  0  0  0  0  0
  -27.0311  -30.3023   24.6072 C   0  0  0  0  0  0
  -27.6042  -32.4314   25.7465 C   0  0  0  0  0  0
  -27.5569  -37.1802   24.8465 C   0  0  0  0  0  0
  -21.4127  -29.3029   22.3710 N   0  0  0  0  0  0
  -26.4290  -37.3776   23.9405 N   0  0  0  0  0  0
  -24.6672  -31.0777   22.0954 N   0  0  0  0  0  0
  -23.4172  -28.8212   23.3019 O   0  0  0  0  0  0
  -28.4126  -26.7091   20.0835 O   0  0  0  0  0  0
  -26.5603  -34.8923   22.4682 O   0  0  0  0  0  0
  -23.5342  -32.1407   23.7466 O   0  0  0  0  0  0
  -29.6956  -18.5696   21.4457 C   0  0  0  0  0  0
  -29.4542  -19.9865   21.5028 C   0  0  0  0  0  0
  -29.6564  -18.0439   20.1815 C   0  0  0  0  0  0
  -29.2008  -20.5398   20.2544 C   0  0  0  0  0  0
  -28.8007  -22.8763   20.4424 C   0  0  0  0  0  0
  -29.5314  -20.7219   22.8123 C   0  0  0  0  0  0
  -29.9613  -16.6611   19.6700 C   0  0  0  0  0  0
  -28.5911  -24.2366   19.7664 C   0  0  0  0  0  0
  -28.3944  -25.4256   20.7395 C   0  0  0  0  0  0
  -28.9586  -21.8102   19.7554 N   0  0  0  0  0  0
  -29.8728  -15.5394   20.6190 N   0  0  0  0  0  0
  -29.2602  -19.2897   19.0331 S   0  0  0  0  0  0
  -31.4700  -12.3585   19.1488 H   0  0  0  0  0  0
  -30.2969  -11.2767   19.8398 H   0  0  0  0  0  0
  -29.7436  -11.7680   17.4331 H   0  0  0  0  0  0
  -29.6818  -13.4782   17.7809 H   0  0  0  0  0  0
  -27.8229  -11.3042   18.8076 H   0  0  0  0  0  0
  -27.3776  -12.6398   17.7846 H   0  0  0  0  0  0
  -27.6995  -14.2434   19.5565 H   0  0  0  0  0  0
  -28.6725  -11.9807   21.3762 H   0  0  0  0  0  0
  -28.4893  -13.6470   21.8547 H   0  0  0  0  0  0
  -25.2761   -9.5714   22.4757 H   0  0  0  0  0  0
  -24.0020   -7.4659   22.7495 H   0  0  0  0  0  0
  -21.0836   -8.8759   19.8977 H   0  0  0  0  0  0
  -22.3660  -10.9674   19.6185 H   0  0  0  0  0  0
  -21.2018   -7.6160   23.9728 H   0  0  0  0  0  0
  -21.1481   -6.0523   25.9077 H   0  0  0  0  0  0
  -22.0595   -2.7620   23.2836 H   0  0  0  0  0  0
  -22.4095  -11.9948   22.4814 H   0  0  0  0  0  0
  -21.1141  -13.1344   22.2551 H   0  0  0  0  0  0
  -24.6569  -15.8313   20.5146 H   0  0  0  0  0  0
  -26.2768  -15.6352   20.0799 H   0  0  0  0  0  0
  -26.7113  -32.5548   23.1141 H   0  0  0  0  0  0
  -25.0011  -33.9747   25.0420 H   0  0  0  0  0  0
  -22.6916  -31.3057   21.4015 H   0  0  0  0  0  0
  -23.3724  -35.9676   23.3339 H   0  0  0  0  0  0
  -24.3568  -36.8895   22.2053 H   0  0  0  0  0  0
  -23.7275  -37.6540   23.6642 H   0  0  0  0  0  0
  -26.0403  -31.6036   20.5864 H   0  0  0  0  0  0
  -26.8198  -30.8939   21.9703 H   0  0  0  0  0  0
  -28.1118  -29.1250   21.1317 H   0  0  0  0  0  0
  -26.0740  -25.9471   19.0499 H   0  0  0  0  0  0
  -23.9811  -27.2644   19.0656 H   0  0  0  0  0  0
  -23.7121  -30.5851   19.3990 H   0  0  0  0  0  0
  -22.7355  -29.2292   19.8737 H   0  0  0  0  0  0
  -25.1283  -36.1950   25.0829 H   0  0  0  0  0  0
  -20.9974  -28.3246   24.1432 H   0  0  0  0  0  0
  -20.5664  -26.2274   23.3609 H   0  0  0  0  0  0
  -21.6617  -26.7423   22.1214 H   0  0  0  0  0  0
  -19.6885  -25.6308   21.1230 H   0  0  0  0  0  0
  -19.6674  -27.3210   20.6765 H   0  0  0  0  0  0
  -17.4177  -26.6688   21.4034 H   0  0  0  0  0  0
  -18.0288  -26.0075   22.9031 H   0  0  0  0  0  0
  -19.7941  -30.7255   24.2271 H   0  0  0  0  0  0
  -17.5020  -31.6264   24.5162 H   0  0  0  0  0  0
  -15.5345  -30.2983   23.7659 H   0  0  0  0  0  0
  -15.8665  -28.0832   22.7040 H   0  0  0  0  0  0
  -24.5887  -30.7095   25.7802 H   0  0  0  0  0  0
  -24.8999  -32.2871   26.4946 H   0  0  0  0  0  0
  -25.8119  -30.8828   27.0182 H   0  0  0  0  0  0
  -26.2848  -29.6766   24.1159 H   0  0  0  0  0  0
  -27.4106  -29.7278   25.4537 H   0  0  0  0  0  0
  -27.8676  -30.4329   23.9202 H   0  0  0  0  0  0
  -27.2631  -33.3576   26.2101 H   0  0  0  0  0  0
  -28.3829  -32.6943   25.0294 H   0  0  0  0  0  0
  -28.0742  -31.8412   26.5336 H   0  0  0  0  0  0
  -28.2602  -38.0078   24.7462 H   0  0  0  0  0  0
  -28.1039  -36.2597   24.6342 H   0  0  0  0  0  0
  -27.2270  -37.1525   25.8865 H   0  0  0  0  0  0
  -20.9270  -29.8753   21.6944 H   0  0  0  0  0  0
  -26.0170  -38.2857   24.1392 H   0  0  0  0  0  0
  -29.9322  -17.9934   22.3295 H   0  0  0  0  0  0
  -28.8069  -22.9020   21.5330 H   0  0  0  0  0  0
  -29.7008  -20.0363   23.6437 H   0  0  0  0  0  0
  -28.6108  -21.2581   23.0368 H   0  0  0  0  0  0
  -30.3551  -21.4361   22.8195 H   0  0  0  0  0  0
  -30.9394  -16.6944   19.1858 H   0  0  0  0  0  0
  -29.2645  -16.4277   18.8628 H   0  0  0  0  0  0
  -27.7378  -24.1614   19.0934 H   0  0  0  0  0  0
  -29.4600  -24.4340   19.1388 H   0  0  0  0  0  0
  -29.2208  -25.4340   21.4517 H   0  0  0  0  0  0
  -27.4888  -25.2875   21.3343 H   0  0  0  0  0  0
  -28.9523  -15.3443   20.9806 H   0  0  0  0  0  0
  1 25  1  0  0  0
  1 30  2  0  0  0
  1 81  1  0  0  0
  2  3  1  0  0  0
  2 25  1  0  0  0
  2 83  1  0  0  0
  2 84  1  0  0  0
  3  4  1  0  0  0
  3 85  1  0  0  0
  3 86  1  0  0  0
  4  5  1  0  0  0
  4 87  1  0  0  0
  4 88  1  0  0  0
  5  6  1  0  0  0
  5 26  1  0  0  0
  5 89  1  0  0  0
  6 25  1  0  0  0
  6 90  1  0  0  0
  6 91  1  0  0  0
  7  8  2  0  0  0
  7 26  1  0  0  0
  7 29  1  0  0  0
  8  9  1  0  0  0
  8 22  1  0  0  0
  9 10  1  0  0  0
  9 27  2  0  0  0
 10 11  2  0  0  0
 10 15  1  0  0  0
 11 12  1  0  0  0
 11 92  1  0  0  0
 12 13  2  0  0  0
 12 93  1  0  0  0
 13 14  1  0  0  0
 13 31  1  0  0  0
 14 15  2  0  0  0
 14 94  1  0  0  0
 15 95  1  0  0  0
 16 17  2  0  0  0
 16 21  1  0  0  0
 16 31  1  0  0  0
 17 18  1  0  0  0
 17 96  1  0  0  0
 18 19  2  0  0  0
 18 97  1  0  0  0
 19 20  1  0  0  0
 19 24  1  0  0  0
 20 21  2  0  0  0
 20 98  1  0  0  0
 21 23  1  0  0  0
 22 28  1  0  0  0
 22 32  2  0  0  0
 26 27  1  0  0  0
 28 99  1  0  0  0
 28100  1  0  0  0
 29101  1  0  0  0
 29102  1  0  0  0
 33 34  1  0  0  0
 33 66  1  0  0  0
 33 70  2  0  0  0
 34 36  1  0  0  0
 34 59  1  0  0  0
 34103  1  0  0  0
 35 44  2  0  0  0
 35 45  1  0  0  0
 35 68  1  0  0  0
 36 56  1  0  0  0
 36104  1  0  0  0
 37 39  1  0  0  0
 37 47  1  0  0  0
 37 66  1  0  0  0
 37105  1  0  0  0
 38 43  2  0  0  0
 38 46  1  0  0  0
 38 47  1  0  0  0
 39 64  1  0  0  0
 39 67  2  0  0  0
 40 52  1  0  0  0
 40 53  2  0  0  0
 40 58  1  0  0  0
 41106  1  0  0  0
 41107  1  0  0  0
 41108  1  0  0  0
 41 48  1  0  0  0
 42 43  1  0  0  0
 42 66  1  0  0  0
 42109  1  0  0  0
 42110  1  0  0  0
 43 44  1  0  0  0
 44111  1  0  0  0
 45 46  2  0  0  0
 45112  1  0  0  0
 46113  1  0  0  0
 47114  1  0  0  0
 47115  1  0  0  0
 48 56  1  0  0  0
 48 65  1  0  0  0
 48116  1  0  0  0
 49 50  1  0  0  0
 49 53  1  0  0  0
 49 64  1  0  0  0
 49117  1  0  0  0
 50 51  1  0  0  0
 50118  1  0  0  0
 50119  1  0  0  0
 51 52  1  0  0  0
 51120  1  0  0  0
 51121  1  0  0  0
 52122  1  0  0  0
 52123  1  0  0  0
 53 54  1  0  0  0
 54 55  2  0  0  0
 54124  1  0  0  0
 55 57  1  0  0  0
 55125  1  0  0  0
 56 69  2  0  0  0
 57 58  2  0  0  0
 57126  1  0  0  0
 58127  1  0  0  0
 59 60  1  0  0  0
 59 61  1  0  0  0
 59 62  1  0  0  0
 60128  1  0  0  0
 60129  1  0  0  0
 60130  1  0  0  0
 61131  1  0  0  0
 61132  1  0  0  0
 61133  1  0  0  0
 62134  1  0  0  0
 62135  1  0  0  0
 62136  1  0  0  0
 63 65  1  0  0  0
 63137  1  0  0  0
 63138  1  0  0  0
 63139  1  0  0  0
 64140  1  0  0  0
 65141  1  0  0  0
 68 79  1  0  0  0
 71 72  1  0  0  0
 71 73  2  0  0  0
 71142  1  0  0  0
 72 74  2  0  0  0
 72 76  1  0  0  0
 73 77  1  0  0  0
 73 82  1  0  0  0
 74 80  1  0  0  0
 74 82  1  0  0  0
 75 78  1  0  0  0
 75 80  2  0  0  0
 75143  1  0  0  0
 76144  1  0  0  0
 76145  1  0  0  0
 76146  1  0  0  0
 77 81  1  0  0  0
 77147  1  0  0  0
 77148  1  0  0  0
 78 79  1  0  0  0
 78149  1  0  0  0
 78150  1  0  0  0
 79151  1  0  0  0
 79152  1  0  0  0
 81153  1  0  0  0
M  ISO  4   1 100  68 101  79 101  81 100
M  END
> <chiral flag>
0

> <version>
0

> <s_m_source_file>
/data/baiqing/PycharmProjects/Reinvent-master-3.2/result/LINK_invent/BTK/process_docking_weight1_custom_product_contain_oxygen_bond_distance_aromatic_linkinvent_7_9_3/rearranged_h_0111.sdf

> <i_m_source_file_index>
69

> <r_mmod_Potential_Energy-OPLS-2005>
-100.013221740723

> <r_mmod_Stretch_Energy-OPLS-2005>
35.931209564209

> <r_mmod_Bend_Energy-OPLS-2005>
121.196769714355

> <r_mmod_Torsional_Energy-OPLS-2005>
238.069458007812

> <r_mmod_Improper_Torsional_Energy-OPLS-2005>
12.512336730957

> <r_mmod_Van_der_Waal_Energy-OPLS-2005>
127.775413513184

> <r_mmod_Electrostatic_Energy-OPLS-2005>
-431.401306152344

> <r_mmod_Solvation_Energy-OPLS-2005>
-219.242309570312

> <b_mmod_Minimization_Converged-OPLS-2005>
0

> <r_mmod_RMS_Derivative-OPLS-2005>
2.3574526309967

$$$$
71
                    3D
 Structure written by MMmdl.
165174  0  0  1  0            999 V2000
  -30.4811  -15.0425   20.4263 C   0  0  0  0  0  0
  -30.4555  -12.6627   19.4842 C   0  0  0  0  0  0
  -29.5254  -12.5224   18.2562 C   0  0  0  0  0  0
  -28.0653  -12.2860   18.6907 C   0  0  0  0  0  0
  -27.6228  -13.2437   19.8269 C   0  0  2  0  0  0
  -28.6688  -13.3020   20.9551 C   0  0  0  0  0  0
  -25.2457  -13.8225   20.5746 C   0  0  0  0  0  0
  -24.1753  -13.0451   20.9232 C   0  0  0  0  0  0
  -24.6372  -11.6927   20.8756 C   0  0  0  0  0  0
  -23.9061  -10.4304   21.0418 C   0  0  0  0  0  0
  -24.3612   -9.4217   21.9202 C   0  0  0  0  0  0
  -23.6278   -8.2252   22.0769 C   0  0  0  0  0  0
  -22.4262   -8.0284   21.3559 C   0  0  0  0  0  0
  -21.9907   -9.0264   20.4664 C   0  0  0  0  0  0
  -22.7238  -10.2139   20.3067 C   0  0  0  0  0  0
  -21.6836   -6.0731   22.5271 C   0  0  0  0  0  0
  -21.4008   -6.5636   23.8205 C   0  0  0  0  0  0
  -21.3665   -5.6791   24.9170 C   0  0  0  0  0  0
  -21.6046   -4.3052   24.7224 C   0  0  0  0  0  0
  -21.8813   -3.8142   23.4345 C   0  0  0  0  0  0
  -21.9192   -4.6961   22.3399 C   0  0  0  0  0  0
  -22.7771  -13.5216   21.1904 C   0  0  0  0  0  0
  -22.1655   -4.2147   21.0975 F   0  0  0  0  0  0
  -21.5641   -3.4539   25.7739 F   0  0  0  0  0  0
  -29.9197  -13.7621   20.3378 N   0  0  0  0  0  0
  -26.2858  -12.9433   20.3235 N   0  0  0  0  0  0
  -25.9297  -11.6576   20.5736 N   0  0  0  0  0  0
  -22.0396  -12.8208   22.0440 N   0  0  0  0  0  0
  -25.4184  -15.1968   20.4241 N   0  0  0  0  0  0
  -31.7069  -15.1130   20.2844 O   0  0  0  0  0  0
  -21.6634   -6.8876   21.4231 O   0  0  0  0  0  0
  -22.3472  -14.5532   20.6743 O   0  0  0  0  0  0
  -24.6495  -31.8384   23.1796 C   0  0  0  0  0  0
  -25.9227  -32.4666   23.8230 C   0  0  1  0  0  0
  -27.2228  -27.0655   20.1789 C   0  0  0  0  0  0
  -25.5954  -33.8467   24.2159 N   0  0  0  0  0  0
  -23.4570  -30.4511   21.5270 C   0  0  2  0  0  0
  -24.9089  -28.8535   20.1221 C   0  0  0  0  0  0
  -22.7613  -29.4488   22.4834 C   0  0  0  0  0  0
  -18.0329  -28.1385   22.8476 C   0  0  0  0  0  0
  -24.1491  -36.7229   23.2652 C   0  0  0  0  0  0
  -26.0152  -30.6947   21.3813 C   0  0  0  0  0  0
  -26.0883  -29.2916   20.7371 C   0  0  0  0  0  0
  -27.2469  -28.4166   20.7370 C   0  0  0  0  0  0
  -26.0121  -26.7317   19.5383 C   0  0  0  0  0  0
  -24.8848  -27.5886   19.5107 C   0  0  0  0  0  0
  -23.6891  -29.7671   20.1522 C   0  0  0  0  0  0
  -25.4124  -36.3009   24.0326 C   0  0  1  0  0  0
  -20.5945  -28.3706   23.1241 C   0  0  2  0  0  0
  -20.6801  -26.9399   22.5407 C   0  0  0  0  0  0
  -19.5761  -26.6380   21.5220 C   0  0  0  0  0  0
  -18.1952  -26.7928   22.1626 C   0  0  0  0  0  0
  -19.1587  -28.8857   23.2860 C   0  0  0  0  0  0
  -18.9496  -30.1457   23.8877 C   0  0  0  0  0  0
  -17.6486  -30.6573   24.0549 C   0  0  0  0  0  0
  -25.9084  -34.9386   23.5054 C   0  0  0  0  0  0
  -16.5380  -29.9068   23.6323 C   0  0  0  0  0  0
  -16.7313  -28.6491   23.0346 C   0  0  0  0  0  0
  -26.4559  -31.6545   25.0656 C   0  0  0  0  0  0
  -25.3730  -31.3694   26.1330 C   0  0  0  0  0  0
  -27.0432  -30.2964   24.6193 C   0  0  0  0  0  0
  -27.6108  -32.4301   25.7415 C   0  0  0  0  0  0
  -27.5576  -37.1752   24.8485 C   0  0  0  0  0  0
  -21.4298  -29.3037   22.3596 N   0  0  0  0  0  0
  -26.4290  -37.3724   23.9427 N   0  0  0  0  0  0
  -24.7281  -31.0193   22.0843 N   0  0  0  0  0  0
  -23.4239  -28.8041   23.3003 O   0  0  0  0  0  0
  -28.3077  -26.0972   20.1356 O   0  0  0  0  0  0
  -26.5666  -34.8892   22.4636 O   0  0  0  0  0  0
  -23.5602  -32.1260   23.7002 O   0  0  0  0  0  0
  -29.5252  -18.9768   20.1613 C   0  0  0  0  0  0
  -28.9154  -17.7644   22.1859 C   0  0  0  0  0  0
  -29.0735  -20.3244   20.6734 C   0  0  0  0  0  0
  -29.4730  -17.6505   20.8681 C   0  0  0  0  0  0
  -28.4508  -19.0300   22.6951 C   0  0  0  0  0  0
  -28.5231  -20.2542   21.9685 C   0  0  0  0  0  0
  -30.2889  -21.9290   19.2292 C   0  0  0  0  0  0
  -28.7879  -16.5254   23.0475 C   0  0  0  0  0  0
  -30.0948  -23.0677   18.2451 C   0  0  0  0  0  0
  -28.6114  -23.3928   18.3847 C   0  0  0  0  0  0
  -28.2878  -23.0564   19.8445 C   0  0  2  0  0  0
  -28.9134  -22.0308   23.4727 C   0  0  0  0  0  0
  -28.3368  -24.5869   20.6407 C   0  0  0  0  0  0
  -29.2299  -21.7492   20.0405 N   0  0  0  0  0  0
  -27.8577  -19.1347   23.9618 N   0  0  0  0  0  0
  -27.5513  -16.1245   23.3307 N   0  0  0  0  0  0
  -29.6417  -16.2082   20.2794 N   0  0  0  0  0  0
  -31.3314  -21.2676   19.2427 O   0  0  0  0  0  0
  -29.7738  -15.8970   23.4312 O   0  0  0  0  0  0
  -28.0377  -21.4104   22.5350 O   0  0  0  0  0  0
  -31.4698  -12.8802   19.1476 H   0  0  0  0  0  0
  -30.5165  -11.7276   20.0443 H   0  0  0  0  0  0
  -29.8669  -11.7050   17.6197 H   0  0  0  0  0  0
  -29.5815  -13.4270   17.6495 H   0  0  0  0  0  0
  -27.9933  -11.2552   19.0402 H   0  0  0  0  0  0
  -27.3949  -12.3642   17.8341 H   0  0  0  0  0  0
  -27.5706  -14.2354   19.3746 H   0  0  0  0  0  0
  -28.7852  -12.3329   21.4419 H   0  0  0  0  0  0
  -28.3499  -13.9963   21.7299 H   0  0  0  0  0  0
  -25.2750   -9.5673   22.4796 H   0  0  0  0  0  0
  -23.9974   -7.4633   22.7478 H   0  0  0  0  0  0
  -21.0847   -8.8773   19.8961 H   0  0  0  0  0  0
  -22.3694  -10.9674   19.6173 H   0  0  0  0  0  0
  -21.1976   -7.6140   23.9705 H   0  0  0  0  0  0
  -21.1503   -6.0523   25.9078 H   0  0  0  0  0  0
  -22.0589   -2.7603   23.2837 H   0  0  0  0  0  0
  -22.3957  -11.9823   22.4790 H   0  0  0  0  0  0
  -21.1015  -13.1249   22.2647 H   0  0  0  0  0  0
  -24.6564  -15.8543   20.5445 H   0  0  0  0  0  0
  -26.2673  -15.6352   20.0964 H   0  0  0  0  0  0
  -26.7270  -32.5294   23.0936 H   0  0  0  0  0  0
  -25.0050  -33.9583   25.0267 H   0  0  0  0  0  0
  -22.7603  -31.2773   21.3622 H   0  0  0  0  0  0
  -23.3772  -35.9541   23.3303 H   0  0  0  0  0  0
  -24.3586  -36.8882   22.2074 H   0  0  0  0  0  0
  -23.7234  -37.6412   23.6702 H   0  0  0  0  0  0
  -26.1632  -31.4400   20.5981 H   0  0  0  0  0  0
  -26.8883  -30.7658   22.0163 H   0  0  0  0  0  0
  -28.1571  -28.7570   21.2116 H   0  0  0  0  0  0
  -25.9305  -25.7676   19.0570 H   0  0  0  0  0  0
  -23.9806  -27.2508   19.0240 H   0  0  0  0  0  0
  -23.8374  -30.5364   19.3931 H   0  0  0  0  0  0
  -22.7999  -29.2183   19.8386 H   0  0  0  0  0  0
  -25.1308  -36.1825   25.0819 H   0  0  0  0  0  0
  -21.0064  -28.3299   24.1365 H   0  0  0  0  0  0
  -20.5739  -26.2296   23.3617 H   0  0  0  0  0  0
  -21.6650  -26.7412   22.1166 H   0  0  0  0  0  0
  -19.6914  -25.6308   21.1224 H   0  0  0  0  0  0
  -19.6710  -27.3201   20.6753 H   0  0  0  0  0  0
  -17.4229  -26.6714   21.4023 H   0  0  0  0  0  0
  -18.0327  -26.0061   22.9001 H   0  0  0  0  0  0
  -19.7968  -30.7281   24.2257 H   0  0  0  0  0  0
  -17.5031  -31.6253   24.5149 H   0  0  0  0  0  0
  -15.5376  -30.2949   23.7655 H   0  0  0  0  0  0
  -15.8721  -28.0803   22.7061 H   0  0  0  0  0  0
  -24.5936  -30.7040   25.7607 H   0  0  0  0  0  0
  -24.8869  -32.2841   26.4723 H   0  0  0  0  0  0
  -25.7984  -30.8858   27.0127 H   0  0  0  0  0  0
  -26.3033  -29.6658   24.1238 H   0  0  0  0  0  0
  -27.4161  -29.7281   25.4728 H   0  0  0  0  0  0
  -27.8882  -30.4277   23.9423 H   0  0  0  0  0  0
  -27.2772  -33.3665   26.1899 H   0  0  0  0  0  0
  -28.3931  -32.6767   25.0219 H   0  0  0  0  0  0
  -28.0737  -31.8464   26.5383 H   0  0  0  0  0  0
  -28.2572  -38.0063   24.7523 H   0  0  0  0  0  0
  -28.1083  -36.2583   24.6311 H   0  0  0  0  0  0
  -27.2282  -37.1394   25.8887 H   0  0  0  0  0  0
  -20.9525  -29.8766   21.6769 H   0  0  0  0  0  0
  -26.0150  -38.2779   24.1464 H   0  0  0  0  0  0
  -29.9223  -18.9512   19.1572 H   0  0  0  0  0  0
  -30.3541  -22.7635   17.2306 H   0  0  0  0  0  0
  -30.7244  -23.9095   18.5338 H   0  0  0  0  0  0
  -28.0357  -22.7569   17.7094 H   0  0  0  0  0  0
  -28.3867  -24.4246   18.1152 H   0  0  0  0  0  0
  -27.2527  -22.7148   19.8837 H   0  0  0  0  0  0
  -28.8391  -21.5634   24.4537 H   0  0  0  0  0  0
  -28.6275  -23.0758   23.5900 H   0  0  0  0  0  0
  -29.9555  -22.0009   23.1518 H   0  0  0  0  0  0
  -27.5869  -24.5364   21.4317 H   0  0  0  0  0  0
  -29.2826  -24.5593   21.1823 H   0  0  0  0  0  0
  -27.4132  -18.3121   24.3545 H   0  0  0  0  0  0
  -27.3421  -19.9904   24.1354 H   0  0  0  0  0  0
  -26.7598  -16.6264   22.9569 H   0  0  0  0  0  0
  -27.3964  -15.3112   23.9075 H   0  0  0  0  0  0
  -28.7458  -15.8710   19.9624 H   0  0  0  0  0  0
  1 25  1  0  0  0
  1 30  2  0  0  0
  1 87  1  0  0  0
  2  3  1  0  0  0
  2 25  1  0  0  0
  2 91  1  0  0  0
  2 92  1  0  0  0
  3  4  1  0  0  0
  3 93  1  0  0  0
  3 94  1  0  0  0
  4  5  1  0  0  0
  4 95  1  0  0  0
  4 96  1  0  0  0
  5  6  1  0  0  0
  5 26  1  0  0  0
  5 97  1  0  0  0
  6 25  1  0  0  0
  6 98  1  0  0  0
  6 99  1  0  0  0
  7  8  2  0  0  0
  7 26  1  0  0  0
  7 29  1  0  0  0
  8  9  1  0  0  0
  8 22  1  0  0  0
  9 10  1  0  0  0
  9 27  2  0  0  0
 10 11  2  0  0  0
 10 15  1  0  0  0
 11 12  1  0  0  0
 11100  1  0  0  0
 12 13  2  0  0  0
 12101  1  0  0  0
 13 14  1  0  0  0
 13 31  1  0  0  0
 14 15  2  0  0  0
 14102  1  0  0  0
 15103  1  0  0  0
 16 17  2  0  0  0
 16 21  1  0  0  0
 16 31  1  0  0  0
 17 18  1  0  0  0
 17104  1  0  0  0
 18 19  2  0  0  0
 18105  1  0  0  0
 19 20  1  0  0  0
 19 24  1  0  0  0
 20 21  2  0  0  0
 20106  1  0  0  0
 21 23  1  0  0  0
 22 28  1  0  0  0
 22 32  2  0  0  0
 26 27  1  0  0  0
 28107  1  0  0  0
 28108  1  0  0  0
 29109  1  0  0  0
 29110  1  0  0  0
 33 34  1  0  0  0
 33 66  1  0  0  0
 33 70  2  0  0  0
 34 36  1  0  0  0
 34 59  1  0  0  0
 34111  1  0  0  0
 35 44  2  0  0  0
 35 45  1  0  0  0
 35 68  1  0  0  0
 36 56  1  0  0  0
 36112  1  0  0  0
 37 39  1  0  0  0
 37 47  1  0  0  0
 37 66  1  0  0  0
 37113  1  0  0  0
 38 43  2  0  0  0
 38 46  1  0  0  0
 38 47  1  0  0  0
 39 64  1  0  0  0
 39 67  2  0  0  0
 40 52  1  0  0  0
 40 53  2  0  0  0
 40 58  1  0  0  0
 41114  1  0  0  0
 41115  1  0  0  0
 41116  1  0  0  0
 41 48  1  0  0  0
 42 43  1  0  0  0
 42 66  1  0  0  0
 42117  1  0  0  0
 42118  1  0  0  0
 43 44  1  0  0  0
 44119  1  0  0  0
 45 46  2  0  0  0
 45120  1  0  0  0
 46121  1  0  0  0
 47122  1  0  0  0
 47123  1  0  0  0
 48 56  1  0  0  0
 48 65  1  0  0  0
 48124  1  0  0  0
 49 50  1  0  0  0
 49 53  1  0  0  0
 49 64  1  0  0  0
 49125  1  0  0  0
 50 51  1  0  0  0
 50126  1  0  0  0
 50127  1  0  0  0
 51 52  1  0  0  0
 51128  1  0  0  0
 51129  1  0  0  0
 52130  1  0  0  0
 52131  1  0  0  0
 53 54  1  0  0  0
 54 55  2  0  0  0
 54132  1  0  0  0
 55 57  1  0  0  0
 55133  1  0  0  0
 56 69  2  0  0  0
 57 58  2  0  0  0
 57134  1  0  0  0
 58135  1  0  0  0
 59 60  1  0  0  0
 59 61  1  0  0  0
 59 62  1  0  0  0
 60136  1  0  0  0
 60137  1  0  0  0
 60138  1  0  0  0
 61139  1  0  0  0
 61140  1  0  0  0
 61141  1  0  0  0
 62142  1  0  0  0
 62143  1  0  0  0
 62144  1  0  0  0
 63 65  1  0  0  0
 63145  1  0  0  0
 63146  1  0  0  0
 63147  1  0  0  0
 64148  1  0  0  0
 65149  1  0  0  0
 68 83  1  0  0  0
 71 73  2  0  0  0
 71 74  1  0  0  0
 71150  1  0  0  0
 72 74  2  0  0  0
 72 75  1  0  0  0
 72 78  1  0  0  0
 73 76  1  0  0  0
 73 84  1  0  0  0
 74 87  1  0  0  0
 75 76  2  0  0  0
 75 85  1  0  0  0
 76 90  1  0  0  0
 77 79  1  0  0  0
 77 84  1  0  0  0
 77 88  2  0  0  0
 78 86  1  0  0  0
 78 89  2  0  0  0
 79 80  1  0  0  0
 79151  1  0  0  0
 79152  1  0  0  0
 80 81  1  0  0  0
 80153  1  0  0  0
 80154  1  0  0  0
 81 83  1  0  0  0
 81 84  1  0  0  0
 81155  1  0  0  0
 82 90  1  0  0  0
 82156  1  0  0  0
 82157  1  0  0  0
 82158  1  0  0  0
 83159  1  0  0  0
 83160  1  0  0  0
 85161  1  0  0  0
 85162  1  0  0  0
 86163  1  0  0  0
 86164  1  0  0  0
 87165  1  0  0  0
M  ISO  4   1 100  68 101  83 101  87 100
M  END
> <chiral flag>
0

> <version>
0

> <s_m_source_file>
/data/baiqing/PycharmProjects/Reinvent-master-3.2/result/LINK_invent/BTK/process_docking_weight1_custom_product_contain_oxygen_bond_distance_aromatic_linkinvent_7_9_3/rearranged_h_0111.sdf

> <i_m_source_file_index>
70

> <r_mmod_Potential_Energy-OPLS-2005>
950.973022460938

> <r_mmod_Stretch_Energy-OPLS-2005>
362.015319824219

> <r_mmod_Bend_Energy-OPLS-2005>
376.290954589844

> <r_mmod_Torsional_Energy-OPLS-2005>
419.320983886719

> <r_mmod_Improper_Torsional_Energy-OPLS-2005>
19.1543312072754

> <r_mmod_Van_der_Waal_Energy-OPLS-2005>
124.061866760254

> <r_mmod_Electrostatic_Energy-OPLS-2005>
-328.456939697266

> <r_mmod_Solvation_Energy-OPLS-2005>
-279.639221191406

> <b_mmod_Minimization_Converged-OPLS-2005>
0

> <r_mmod_RMS_Derivative-OPLS-2005>
3.37896060943604

$$$$
72
                    3D
 Structure written by MMmdl.
156164  0  0  1  0            999 V2000
  -30.6247  -14.8008   20.4374 C   0  0  0  0  0  0
  -30.4248  -12.4904   19.4818 C   0  0  0  0  0  0
  -29.5083  -12.5072   18.2404 C   0  0  0  0  0  0
  -28.0374  -12.3241   18.6572 C   0  0  0  0  0  0
  -27.6343  -13.2420   19.8425 C   0  0  2  0  0  0
  -28.6802  -13.2260   20.9780 C   0  0  0  0  0  0
  -25.2479  -13.8221   20.5709 C   0  0  0  0  0  0
  -24.1785  -13.0447   20.9217 C   0  0  0  0  0  0
  -24.6393  -11.6931   20.8754 C   0  0  0  0  0  0
  -23.9076  -10.4300   21.0407 C   0  0  0  0  0  0
  -24.3626   -9.4213   21.9183 C   0  0  0  0  0  0
  -23.6300   -8.2248   22.0752 C   0  0  0  0  0  0
  -22.4281   -8.0285   21.3544 C   0  0  0  0  0  0
  -21.9916   -9.0261   20.4647 C   0  0  0  0  0  0
  -22.7246  -10.2140   20.3057 C   0  0  0  0  0  0
  -21.6857   -6.0737   22.5279 C   0  0  0  0  0  0
  -21.4018   -6.5640   23.8213 C   0  0  0  0  0  0
  -21.3660   -5.6793   24.9175 C   0  0  0  0  0  0
  -21.6044   -4.3056   24.7225 C   0  0  0  0  0  0
  -21.8819   -3.8147   23.4347 C   0  0  0  0  0  0
  -21.9194   -4.6965   22.3402 C   0  0  0  0  0  0
  -22.7806  -13.5220   21.1876 C   0  0  0  0  0  0
  -22.1662   -4.2149   21.0980 F   0  0  0  0  0  0
  -21.5628   -3.4539   25.7739 F   0  0  0  0  0  0
  -29.9721  -13.5823   20.3810 N   0  0  0  0  0  0
  -26.2907  -12.9445   20.3270 N   0  0  0  0  0  0
  -25.9326  -11.6577   20.5754 N   0  0  0  0  0  0
  -22.0459  -12.8208   22.0434 N   0  0  0  0  0  0
  -25.4144  -15.1951   20.4146 N   0  0  0  0  0  0
  -31.8303  -14.8062   20.1726 O   0  0  0  0  0  0
  -21.6645   -6.8882   21.4240 O   0  0  0  0  0  0
  -22.3485  -14.5523   20.6722 O   0  0  0  0  0  0
  -24.6354  -31.8521   23.1959 C   0  0  0  0  0  0
  -25.9164  -32.4736   23.8317 C   0  0  1  0  0  0
  -27.2104  -27.2203   20.1422 C   0  0  0  0  0  0
  -25.5945  -33.8539   24.2239 N   0  0  0  0  0  0
  -23.4347  -30.4749   21.5398 C   0  0  2  0  0  0
  -24.8829  -28.9180   20.1096 C   0  0  0  0  0  0
  -22.7528  -29.4586   22.4888 C   0  0  0  0  0  0
  -18.0301  -28.1389   22.8481 C   0  0  0  0  0  0
  -24.1493  -36.7275   23.2638 C   0  0  0  0  0  0
  -25.9849  -30.7522   21.3838 C   0  0  0  0  0  0
  -26.0573  -29.3715   20.7257 C   0  0  0  0  0  0
  -27.2272  -28.5367   20.7287 C   0  0  0  0  0  0
  -26.0208  -26.8557   19.4768 C   0  0  0  0  0  0
  -24.8724  -27.6699   19.4708 C   0  0  0  0  0  0
  -23.6563  -29.8104   20.1562 C   0  0  0  0  0  0
  -25.4120  -36.3057   24.0323 C   0  0  1  0  0  0
  -20.5908  -28.3707   23.1252 C   0  0  2  0  0  0
  -20.6787  -26.9417   22.5406 C   0  0  0  0  0  0
  -19.5761  -26.6381   21.5212 C   0  0  0  0  0  0
  -18.1942  -26.7931   22.1625 C   0  0  0  0  0  0
  -19.1556  -28.8866   23.2861 C   0  0  0  0  0  0
  -18.9474  -30.1465   23.8882 C   0  0  0  0  0  0
  -17.6470  -30.6587   24.0561 C   0  0  0  0  0  0
  -25.9065  -34.9429   23.5085 C   0  0  0  0  0  0
  -16.5362  -29.9081   23.6330 C   0  0  0  0  0  0
  -16.7287  -28.6501   23.0351 C   0  0  0  0  0  0
  -26.4512  -31.6573   25.0723 C   0  0  0  0  0  0
  -25.3721  -31.3746   26.1436 C   0  0  0  0  0  0
  -27.0358  -30.2974   24.6252 C   0  0  0  0  0  0
  -27.6061  -32.4319   25.7497 C   0  0  0  0  0  0
  -27.5583  -37.1789   24.8461 C   0  0  0  0  0  0
  -21.4230  -29.3046   22.3632 N   0  0  0  0  0  0
  -26.4288  -37.3763   23.9411 N   0  0  0  0  0  0
  -24.7041  -31.0454   22.0955 N   0  0  0  0  0  0
  -23.4210  -28.8126   23.3003 O   0  0  0  0  0  0
  -28.2602  -26.2613   20.1866 O   0  0  0  0  0  0
  -26.5641  -34.8912   22.4657 O   0  0  0  0  0  0
  -23.5492  -32.1361   23.7227 O   0  0  0  0  0  0
  -29.7465  -19.9888   20.4915 C   0  0  0  0  0  0
  -29.3620  -18.5533   20.5002 C   0  0  0  0  0  0
  -28.5641  -20.7432   20.5053 C   0  0  0  0  0  0
  -28.2250  -22.2263   20.5686 C   0  0  0  0  0  0
  -28.7201  -23.5207   20.3845 C   0  0  0  0  0  0
  -30.3436  -17.3159   20.5173 C   0  0  0  0  0  0
  -31.1418  -20.5601   20.5052 C   0  0  0  0  0  0
  -25.5148  -19.9377   21.8331 C   0  0  0  0  0  0
  -27.9031  -24.8744   20.6994 C   0  0  0  0  0  0
  -26.1200  -19.9389   20.4238 C   0  0  0  0  0  0
  -28.0360  -18.4851   20.4725 N   0  0  0  0  0  0
  -27.5647  -19.7678   20.4597 N   0  0  0  0  0  0
  -29.8925  -15.9899   20.5633 N   0  0  0  0  0  0
  -31.5516  -17.5771   20.4877 O   0  0  0  0  0  0
  -31.4656  -12.6023   19.1741 H   0  0  0  0  0  0
  -30.3694  -11.5273   19.9920 H   0  0  0  0  0  0
  -29.8002  -11.7214   17.5425 H   0  0  0  0  0  0
  -29.6261  -13.4516   17.7064 H   0  0  0  0  0  0
  -27.9074  -11.2789   18.9405 H   0  0  0  0  0  0
  -27.3774  -12.4919   17.8053 H   0  0  0  0  0  0
  -27.6128  -14.2538   19.4373 H   0  0  0  0  0  0
  -28.7299  -12.2441   21.4513 H   0  0  0  0  0  0
  -28.4080  -13.9344   21.7622 H   0  0  0  0  0  0
  -25.2770   -9.5691   22.4758 H   0  0  0  0  0  0
  -24.0012   -7.4638   22.7469 H   0  0  0  0  0  0
  -21.0847   -8.8782   19.8953 H   0  0  0  0  0  0
  -22.3703  -10.9681   19.6170 H   0  0  0  0  0  0
  -21.2011   -7.6147   23.9717 H   0  0  0  0  0  0
  -21.1481   -6.0522   25.9077 H   0  0  0  0  0  0
  -22.0596   -2.7609   23.2849 H   0  0  0  0  0  0
  -22.4085  -11.9879   22.4831 H   0  0  0  0  0  0
  -21.1074  -13.1226   22.2638 H   0  0  0  0  0  0
  -24.6465  -15.8456   20.5379 H   0  0  0  0  0  0
  -26.2622  -15.6471   20.0972 H   0  0  0  0  0  0
  -26.7229  -32.5374   23.1054 H   0  0  0  0  0  0
  -25.0079  -33.9668   25.0376 H   0  0  0  0  0  0
  -22.7328  -31.2983   21.3920 H   0  0  0  0  0  0
  -23.3758  -35.9603   23.3285 H   0  0  0  0  0  0
  -24.3586  -36.8917   22.2057 H   0  0  0  0  0  0
  -23.7243  -37.6469   23.6676 H   0  0  0  0  0  0
  -26.1324  -31.5112   20.6144 H   0  0  0  0  0  0
  -26.8588  -30.7992   22.0218 H   0  0  0  0  0  0
  -28.1234  -28.8759   21.2292 H   0  0  0  0  0  0
  -25.9610  -25.9053   18.9665 H   0  0  0  0  0  0
  -23.9784  -27.3215   18.9720 H   0  0  0  0  0  0
  -23.7861  -30.5876   19.4021 H   0  0  0  0  0  0
  -22.7732  -29.2480   19.8473 H   0  0  0  0  0  0
  -25.1300  -36.1895   25.0814 H   0  0  0  0  0  0
  -21.0004  -28.3295   24.1371 H   0  0  0  0  0  0
  -20.5683  -26.2318   23.3617 H   0  0  0  0  0  0
  -21.6654  -26.7431   22.1200 H   0  0  0  0  0  0
  -19.6920  -25.6289   21.1248 H   0  0  0  0  0  0
  -19.6695  -27.3186   20.6736 H   0  0  0  0  0  0
  -17.4209  -26.6673   21.4031 H   0  0  0  0  0  0
  -18.0342  -26.0077   22.9026 H   0  0  0  0  0  0
  -19.7949  -30.7288   24.2240 H   0  0  0  0  0  0
  -17.5023  -31.6264   24.5169 H   0  0  0  0  0  0
  -15.5361  -30.2977   23.7662 H   0  0  0  0  0  0
  -15.8689  -28.0815   22.7067 H   0  0  0  0  0  0
  -24.5894  -30.7097   25.7764 H   0  0  0  0  0  0
  -24.8917  -32.2925   26.4833 H   0  0  0  0  0  0
  -25.8023  -30.8938   27.0231 H   0  0  0  0  0  0
  -26.2952  -29.6716   24.1259 H   0  0  0  0  0  0
  -27.3990  -29.7249   25.4798 H   0  0  0  0  0  0
  -27.8855  -30.4220   23.9536 H   0  0  0  0  0  0
  -27.2664  -33.3625   26.2055 H   0  0  0  0  0  0
  -28.3878  -32.6872   25.0330 H   0  0  0  0  0  0
  -28.0720  -31.8459   26.5429 H   0  0  0  0  0  0
  -28.2582  -38.0103   24.7525 H   0  0  0  0  0  0
  -28.1097  -36.2635   24.6259 H   0  0  0  0  0  0
  -27.2306  -37.1402   25.8865 H   0  0  0  0  0  0
  -20.9421  -29.8764   21.6828 H   0  0  0  0  0  0
  -26.0163  -38.2831   24.1424 H   0  0  0  0  0  0
  -27.2129  -22.3149   20.9326 H   0  0  0  0  0  0
  -29.7355  -23.6522   20.0406 H   0  0  0  0  0  0
  -31.6890  -20.2692   21.4022 H   0  0  0  0  0  0
  -31.1421  -21.6496   20.4763 H   0  0  0  0  0  0
  -31.7263  -20.2236   19.6486 H   0  0  0  0  0  0
  -24.4319  -20.0557   21.7909 H   0  0  0  0  0  0
  -25.9157  -20.7514   22.4375 H   0  0  0  0  0  0
  -25.7268  -19.0007   22.3492 H   0  0  0  0  0  0
  -27.9466  -24.9742   21.7843 H   0  0  0  0  0  0
  -26.8582  -24.6413   20.5019 H   0  0  0  0  0  0
  -25.8752  -20.8599   19.8945 H   0  0  0  0  0  0
  -25.6848  -19.1311   19.8335 H   0  0  0  0  0  0
  -28.8942  -15.9042   20.6514 H   0  0  0  0  0  0
  1 25  1  0  0  0
  1 30  2  0  0  0
  1 83  1  0  0  0
  2  3  1  0  0  0
  2 25  1  0  0  0
  2 85  1  0  0  0
  2 86  1  0  0  0
  3  4  1  0  0  0
  3 87  1  0  0  0
  3 88  1  0  0  0
  4  5  1  0  0  0
  4 89  1  0  0  0
  4 90  1  0  0  0
  5  6  1  0  0  0
  5 26  1  0  0  0
  5 91  1  0  0  0
  6 25  1  0  0  0
  6 92  1  0  0  0
  6 93  1  0  0  0
  7  8  2  0  0  0
  7 26  1  0  0  0
  7 29  1  0  0  0
  8  9  1  0  0  0
  8 22  1  0  0  0
  9 10  1  0  0  0
  9 27  2  0  0  0
 10 11  2  0  0  0
 10 15  1  0  0  0
 11 12  1  0  0  0
 11 94  1  0  0  0
 12 13  2  0  0  0
 12 95  1  0  0  0
 13 14  1  0  0  0
 13 31  1  0  0  0
 14 15  2  0  0  0
 14 96  1  0  0  0
 15 97  1  0  0  0
 16 17  2  0  0  0
 16 21  1  0  0  0
 16 31  1  0  0  0
 17 18  1  0  0  0
 17 98  1  0  0  0
 18 19  2  0  0  0
 18 99  1  0  0  0
 19 20  1  0  0  0
 19 24  1  0  0  0
 20 21  2  0  0  0
 20100  1  0  0  0
 21 23  1  0  0  0
 22 28  1  0  0  0
 22 32  2  0  0  0
 26 27  1  0  0  0
 28101  1  0  0  0
 28102  1  0  0  0
 29103  1  0  0  0
 29104  1  0  0  0
 33 34  1  0  0  0
 33 66  1  0  0  0
 33 70  2  0  0  0
 34 36  1  0  0  0
 34 59  1  0  0  0
 34105  1  0  0  0
 35 44  2  0  0  0
 35 45  1  0  0  0
 35 68  1  0  0  0
 36 56  1  0  0  0
 36106  1  0  0  0
 37 39  1  0  0  0
 37 47  1  0  0  0
 37 66  1  0  0  0
 37107  1  0  0  0
 38 43  2  0  0  0
 38 46  1  0  0  0
 38 47  1  0  0  0
 39 64  1  0  0  0
 39 67  2  0  0  0
 40 52  1  0  0  0
 40 53  2  0  0  0
 40 58  1  0  0  0
 41108  1  0  0  0
 41109  1  0  0  0
 41110  1  0  0  0
 41 48  1  0  0  0
 42 43  1  0  0  0
 42 66  1  0  0  0
 42111  1  0  0  0
 42112  1  0  0  0
 43 44  1  0  0  0
 44113  1  0  0  0
 45 46  2  0  0  0
 45114  1  0  0  0
 46115  1  0  0  0
 47116  1  0  0  0
 47117  1  0  0  0
 48 56  1  0  0  0
 48 65  1  0  0  0
 48118  1  0  0  0
 49 50  1  0  0  0
 49 53  1  0  0  0
 49 64  1  0  0  0
 49119  1  0  0  0
 50 51  1  0  0  0
 50120  1  0  0  0
 50121  1  0  0  0
 51 52  1  0  0  0
 51122  1  0  0  0
 51123  1  0  0  0
 52124  1  0  0  0
 52125  1  0  0  0
 53 54  1  0  0  0
 54 55  2  0  0  0
 54126  1  0  0  0
 55 57  1  0  0  0
 55127  1  0  0  0
 56 69  2  0  0  0
 57 58  2  0  0  0
 57128  1  0  0  0
 58129  1  0  0  0
 59 60  1  0  0  0
 59 61  1  0  0  0
 59 62  1  0  0  0
 60130  1  0  0  0
 60131  1  0  0  0
 60132  1  0  0  0
 61133  1  0  0  0
 61134  1  0  0  0
 61135  1  0  0  0
 62136  1  0  0  0
 62137  1  0  0  0
 62138  1  0  0  0
 63 65  1  0  0  0
 63139  1  0  0  0
 63140  1  0  0  0
 63141  1  0  0  0
 64142  1  0  0  0
 65143  1  0  0  0
 68 79  1  0  0  0
 71 72  1  0  0  0
 71 73  2  0  0  0
 71 77  1  0  0  0
 72 76  1  0  0  0
 72 81  2  0  0  0
 73 74  1  0  0  0
 73 82  1  0  0  0
 74 75  2  0  0  0
 74144  1  0  0  0
 75 79  1  0  0  0
 75145  1  0  0  0
 76 83  1  0  0  0
 76 84  2  0  0  0
 77146  1  0  0  0
 77147  1  0  0  0
 77148  1  0  0  0
 78 80  1  0  0  0
 78149  1  0  0  0
 78150  1  0  0  0
 78151  1  0  0  0
 79152  1  0  0  0
 79153  1  0  0  0
 80 82  1  0  0  0
 80154  1  0  0  0
 80155  1  0  0  0
 81 82  1  0  0  0
 83156  1  0  0  0
M  ISO  4   1 100  68 101  79 101  83 100
M  END
> <chiral flag>
0

> <version>
0

> <s_m_source_file>
/data/baiqing/PycharmProjects/Reinvent-master-3.2/result/LINK_invent/BTK/process_docking_weight1_custom_product_contain_oxygen_bond_distance_aromatic_linkinvent_7_9_3/rearranged_h_0111.sdf

> <i_m_source_file_index>
71

> <r_mmod_Potential_Energy-OPLS-2005>
213.781768798828

> <r_mmod_Stretch_Energy-OPLS-2005>
145.715728759766

> <r_mmod_Bend_Energy-OPLS-2005>
204.910079956055

> <r_mmod_Torsional_Energy-OPLS-2005>
250.682495117188

> <r_mmod_Improper_Torsional_Energy-OPLS-2005>
5.13695430755615

> <r_mmod_Van_der_Waal_Energy-OPLS-2005>
121.192161560059

> <r_mmod_Electrostatic_Energy-OPLS-2005>
-419.842407226562

> <r_mmod_Solvation_Energy-OPLS-2005>
-210.615692138672

> <b_mmod_Minimization_Converged-OPLS-2005>
0

> <r_mmod_RMS_Derivative-OPLS-2005>
0.417216062545776

$$$$
73
                    3D
 Structure written by MMmdl.
161169  0  0  1  0            999 V2000
  -30.5410  -14.8679   20.4667 C   0  0  0  0  0  0
  -30.4548  -12.5399   19.4850 C   0  0  0  0  0  0
  -29.5226  -12.5436   18.2489 C   0  0  0  0  0  0
  -28.0516  -12.3429   18.6635 C   0  0  0  0  0  0
  -27.6454  -13.2402   19.8615 C   0  0  2  0  0  0
  -28.6931  -13.1868   20.9971 C   0  0  0  0  0  0
  -25.2552  -13.8200   20.5840 C   0  0  0  0  0  0
  -24.1796  -13.0440   20.9165 C   0  0  0  0  0  0
  -24.6405  -11.6919   20.8681 C   0  0  0  0  0  0
  -23.9081  -10.4304   21.0362 C   0  0  0  0  0  0
  -24.3636   -9.4231   21.9142 C   0  0  0  0  0  0
  -23.6308   -8.2275   22.0734 C   0  0  0  0  0  0
  -22.4276   -8.0311   21.3558 C   0  0  0  0  0  0
  -21.9912   -9.0282   20.4655 C   0  0  0  0  0  0
  -22.7243  -10.2153   20.3042 C   0  0  0  0  0  0
  -21.6870   -6.0748   22.5266 C   0  0  0  0  0  0
  -21.4028   -6.5633   23.8202 C   0  0  0  0  0  0
  -21.3664   -5.6779   24.9159 C   0  0  0  0  0  0
  -21.6038   -4.3042   24.7207 C   0  0  0  0  0  0
  -21.8824   -3.8151   23.4325 C   0  0  0  0  0  0
  -21.9209   -4.6976   22.3389 C   0  0  0  0  0  0
  -22.7829  -13.5251   21.1823 C   0  0  0  0  0  0
  -22.1672   -4.2168   21.0967 F   0  0  0  0  0  0
  -21.5632   -3.4521   25.7716 F   0  0  0  0  0  0
  -29.9832  -13.5954   20.4205 N   0  0  0  0  0  0
  -26.2978  -12.9421   20.3374 N   0  0  0  0  0  0
  -25.9342  -11.6547   20.5719 N   0  0  0  0  0  0
  -22.0450  -12.8252   22.0351 N   0  0  0  0  0  0
  -25.4302  -15.1931   20.4611 N   0  0  0  0  0  0
  -31.7089  -15.0170   20.0944 O   0  0  0  0  0  0
  -21.6643   -6.8902   21.4245 O   0  0  0  0  0  0
  -22.3549  -14.5591   20.6702 O   0  0  0  0  0  0
  -24.6421  -31.8447   23.1895 C   0  0  0  0  0  0
  -25.9209  -32.4696   23.8269 C   0  0  1  0  0  0
  -27.2199  -27.1383   20.1549 C   0  0  0  0  0  0
  -25.5955  -33.8505   24.2194 N   0  0  0  0  0  0
  -23.4455  -30.4641   21.5354 C   0  0  2  0  0  0
  -24.8968  -28.8957   20.1105 C   0  0  0  0  0  0
  -22.7573  -29.4536   22.4880 C   0  0  0  0  0  0
  -18.0312  -28.1384   22.8478 C   0  0  0  0  0  0
  -24.1505  -36.7270   23.2624 C   0  0  0  0  0  0
  -26.0025  -30.7181   21.3915 C   0  0  0  0  0  0
  -26.0741  -29.3313   20.7312 C   0  0  0  0  0  0
  -27.2349  -28.4689   20.7378 C   0  0  0  0  0  0
  -26.0115  -26.8048   19.4986 C   0  0  0  0  0  0
  -24.8791  -27.6454   19.4779 C   0  0  0  0  0  0
  -23.6718  -29.7948   20.1537 C   0  0  0  0  0  0
  -25.4127  -36.3039   24.0309 C   0  0  1  0  0  0
  -20.5926  -28.3710   23.1272 C   0  0  2  0  0  0
  -20.6799  -26.9411   22.5450 C   0  0  0  0  0  0
  -19.5789  -26.6377   21.5232 C   0  0  0  0  0  0
  -18.1950  -26.7932   22.1608 C   0  0  0  0  0  0
  -19.1565  -28.8865   23.2866 C   0  0  0  0  0  0
  -18.9467  -30.1459   23.8893 C   0  0  0  0  0  0
  -17.6459  -30.6582   24.0552 C   0  0  0  0  0  0
  -25.9073  -34.9416   23.5067 C   0  0  0  0  0  0
  -16.5356  -29.9064   23.6321 C   0  0  0  0  0  0
  -16.7292  -28.6484   23.0340 C   0  0  0  0  0  0
  -26.4504  -31.6563   25.0721 C   0  0  0  0  0  0
  -25.3675  -31.3845   26.1430 C   0  0  0  0  0  0
  -27.0281  -30.2909   24.6337 C   0  0  0  0  0  0
  -27.6080  -32.4289   25.7464 C   0  0  0  0  0  0
  -27.5623  -37.1757   24.8413 C   0  0  0  0  0  0
  -21.4269  -29.3030   22.3638 N   0  0  0  0  0  0
  -26.4285  -37.3763   23.9427 N   0  0  0  0  0  0
  -24.7161  -31.0301   22.0930 N   0  0  0  0  0  0
  -23.4228  -28.8081   23.3020 O   0  0  0  0  0  0
  -28.2691  -26.1465   20.2337 O   0  0  0  0  0  0
  -26.5661  -34.8911   22.4644 O   0  0  0  0  0  0
  -23.5546  -32.1321   23.7120 O   0  0  0  0  0  0
  -28.2232  -19.5249   21.0854 C   0  0  0  0  0  0
  -30.5564  -18.3956   20.1627 C   0  0  0  0  0  0
  -29.0972  -20.4900   20.4892 C   0  0  0  0  0  0
  -30.3249  -19.8412   20.0559 C   0  0  0  0  0  0
  -29.6251  -17.4519   20.7065 C   0  0  0  0  0  0
  -28.4531  -18.0972   21.2026 C   0  0  0  0  0  0
  -28.5362  -21.9950   20.3933 C   0  0  0  0  0  0
  -28.9239  -23.3435   20.2059 C   0  0  0  0  0  0
  -31.8714  -20.0808   18.0527 C   0  0  0  0  0  0
  -32.6476  -20.7805   20.3620 C   0  0  0  0  0  0
  -26.5435  -17.8292   22.6332 C   0  0  0  0  0  0
  -27.9362  -24.6458   20.0132 C   0  0  0  0  0  0
  -31.4415  -20.6609   19.4146 C   0  0  0  0  0  0
  -29.7004  -15.9375   20.8186 N   0  0  0  0  0  0
  -27.5360  -17.2502   21.7939 O   0  0  0  0  0  0
  -31.4884  -12.6992   19.1744 H   0  0  0  0  0  0
  -30.4429  -11.5648   19.9732 H   0  0  0  0  0  0
  -29.8218  -11.7664   17.5447 H   0  0  0  0  0  0
  -29.6237  -13.4942   17.7211 H   0  0  0  0  0  0
  -27.9273  -11.2945   18.9356 H   0  0  0  0  0  0
  -27.3912  -12.5218   17.8137 H   0  0  0  0  0  0
  -27.6331  -14.2606   19.4769 H   0  0  0  0  0  0
  -28.7603  -12.1823   21.4179 H   0  0  0  0  0  0
  -28.4075  -13.8369   21.8238 H   0  0  0  0  0  0
  -25.2799   -9.5711   22.4689 H   0  0  0  0  0  0
  -24.0037   -7.4674   22.7451 H   0  0  0  0  0  0
  -21.0839   -8.8811   19.8978 H   0  0  0  0  0  0
  -22.3697  -10.9688   19.6152 H   0  0  0  0  0  0
  -21.2009   -7.6134   23.9706 H   0  0  0  0  0  0
  -21.1476   -6.0499   25.9053 H   0  0  0  0  0  0
  -22.0603   -2.7624   23.2798 H   0  0  0  0  0  0
  -22.4022  -11.9885   22.4719 H   0  0  0  0  0  0
  -21.1061  -13.1290   22.2516 H   0  0  0  0  0  0
  -24.6851  -15.8392   20.6905 H   0  0  0  0  0  0
  -26.3376  -15.6427   20.4175 H   0  0  0  0  0  0
  -26.7272  -32.5291   23.0987 H   0  0  0  0  0  0
  -25.0043  -33.9606   25.0300 H   0  0  0  0  0  0
  -22.7460  -31.2896   21.3839 H   0  0  0  0  0  0
  -23.3797  -35.9563   23.3177 H   0  0  0  0  0  0
  -24.3630  -36.9010   22.2066 H   0  0  0  0  0  0
  -23.7216  -37.6418   23.6721 H   0  0  0  0  0  0
  -26.1628  -31.4739   20.6218 H   0  0  0  0  0  0
  -26.8708  -30.7640   22.0378 H   0  0  0  0  0  0
  -28.1279  -28.7963   21.2527 H   0  0  0  0  0  0
  -25.8922  -25.8458   19.0170 H   0  0  0  0  0  0
  -23.9797  -27.3044   18.9856 H   0  0  0  0  0  0
  -23.8058  -30.5689   19.3970 H   0  0  0  0  0  0
  -22.7870  -29.2341   19.8464 H   0  0  0  0  0  0
  -25.1305  -36.1848   25.0793 H   0  0  0  0  0  0
  -21.0009  -28.3292   24.1396 H   0  0  0  0  0  0
  -20.5678  -26.2306   23.3656 H   0  0  0  0  0  0
  -21.6672  -26.7399   22.1272 H   0  0  0  0  0  0
  -19.6946  -25.6282   21.1269 H   0  0  0  0  0  0
  -19.6751  -27.3179   20.6757 H   0  0  0  0  0  0
  -17.4248  -26.6709   21.3972 H   0  0  0  0  0  0
  -18.0309  -26.0066   22.8993 H   0  0  0  0  0  0
  -19.7927  -30.7284   24.2278 H   0  0  0  0  0  0
  -17.4988  -31.6261   24.5147 H   0  0  0  0  0  0
  -15.5347  -30.2942   23.7638 H   0  0  0  0  0  0
  -15.8703  -28.0783   22.7052 H   0  0  0  0  0  0
  -24.5821  -30.7207   25.7791 H   0  0  0  0  0  0
  -24.8893  -32.3070   26.4738 H   0  0  0  0  0  0
  -25.7931  -30.9100   27.0281 H   0  0  0  0  0  0
  -26.2867  -29.6704   24.1284 H   0  0  0  0  0  0
  -27.3744  -29.7169   25.4944 H   0  0  0  0  0  0
  -27.8872  -30.4060   23.9724 H   0  0  0  0  0  0
  -27.2720  -33.3613   26.2013 H   0  0  0  0  0  0
  -28.3884  -32.6801   25.0268 H   0  0  0  0  0  0
  -28.0743  -31.8417   26.5386 H   0  0  0  0  0  0
  -28.2530  -38.0162   24.7612 H   0  0  0  0  0  0
  -28.1231  -36.2711   24.6005 H   0  0  0  0  0  0
  -27.2398  -37.1147   25.8822 H   0  0  0  0  0  0
  -20.9467  -29.8732   21.6815 H   0  0  0  0  0  0
  -26.0150  -38.2811   24.1514 H   0  0  0  0  0  0
  -27.2920  -19.9240   21.4557 H   0  0  0  0  0  0
  -31.4906  -17.9880   19.8032 H   0  0  0  0  0  0
  -27.4581  -21.9550   20.4583 H   0  0  0  0  0  0
  -29.9776  -23.5603   20.1225 H   0  0  0  0  0  0
  -31.0130  -19.9502   17.3941 H   0  0  0  0  0  0
  -32.3656  -19.1129   18.1455 H   0  0  0  0  0  0
  -32.5742  -20.7433   17.5476 H   0  0  0  0  0  0
  -32.3922  -21.3588   21.2505 H   0  0  0  0  0  0
  -33.4882  -21.2769   19.8749 H   0  0  0  0  0  0
  -32.9995  -19.8037   20.6979 H   0  0  0  0  0  0
  -25.9904  -17.0423   23.1441 H   0  0  0  0  0  0
  -25.8209  -18.4097   22.0585 H   0  0  0  0  0  0
  -26.9923  -18.4656   23.3990 H   0  0  0  0  0  0
  -27.0216  -24.4242   20.5669 H   0  0  0  0  0  0
  -27.6609  -24.5809   18.9594 H   0  0  0  0  0  0
  -31.0633  -21.6660   19.2284 H   0  0  0  0  0  0
  -28.8372  -15.5753   21.1947 H   0  0  0  0  0  0
  1 25  1  0  0  0
  1 30  2  0  0  0
  1 84  1  0  0  0
  2  3  1  0  0  0
  2 25  1  0  0  0
  2 86  1  0  0  0
  2 87  1  0  0  0
  3  4  1  0  0  0
  3 88  1  0  0  0
  3 89  1  0  0  0
  4  5  1  0  0  0
  4 90  1  0  0  0
  4 91  1  0  0  0
  5  6  1  0  0  0
  5 26  1  0  0  0
  5 92  1  0  0  0
  6 25  1  0  0  0
  6 93  1  0  0  0
  6 94  1  0  0  0
  7  8  2  0  0  0
  7 26  1  0  0  0
  7 29  1  0  0  0
  8  9  1  0  0  0
  8 22  1  0  0  0
  9 10  1  0  0  0
  9 27  2  0  0  0
 10 11  2  0  0  0
 10 15  1  0  0  0
 11 12  1  0  0  0
 11 95  1  0  0  0
 12 13  2  0  0  0
 12 96  1  0  0  0
 13 14  1  0  0  0
 13 31  1  0  0  0
 14 15  2  0  0  0
 14 97  1  0  0  0
 15 98  1  0  0  0
 16 17  2  0  0  0
 16 21  1  0  0  0
 16 31  1  0  0  0
 17 18  1  0  0  0
 17 99  1  0  0  0
 18 19  2  0  0  0
 18100  1  0  0  0
 19 20  1  0  0  0
 19 24  1  0  0  0
 20 21  2  0  0  0
 20101  1  0  0  0
 21 23  1  0  0  0
 22 28  1  0  0  0
 22 32  2  0  0  0
 26 27  1  0  0  0
 28102  1  0  0  0
 28103  1  0  0  0
 29104  1  0  0  0
 29105  1  0  0  0
 33 34  1  0  0  0
 33 66  1  0  0  0
 33 70  2  0  0  0
 34 36  1  0  0  0
 34 59  1  0  0  0
 34106  1  0  0  0
 35 44  2  0  0  0
 35 45  1  0  0  0
 35 68  1  0  0  0
 36 56  1  0  0  0
 36107  1  0  0  0
 37 39  1  0  0  0
 37 47  1  0  0  0
 37 66  1  0  0  0
 37108  1  0  0  0
 38 43  2  0  0  0
 38 46  1  0  0  0
 38 47  1  0  0  0
 39 64  1  0  0  0
 39 67  2  0  0  0
 40 52  1  0  0  0
 40 53  2  0  0  0
 40 58  1  0  0  0
 41109  1  0  0  0
 41110  1  0  0  0
 41111  1  0  0  0
 41 48  1  0  0  0
 42 43  1  0  0  0
 42 66  1  0  0  0
 42112  1  0  0  0
 42113  1  0  0  0
 43 44  1  0  0  0
 44114  1  0  0  0
 45 46  2  0  0  0
 45115  1  0  0  0
 46116  1  0  0  0
 47117  1  0  0  0
 47118  1  0  0  0
 48 56  1  0  0  0
 48 65  1  0  0  0
 48119  1  0  0  0
 49 50  1  0  0  0
 49 53  1  0  0  0
 49 64  1  0  0  0
 49120  1  0  0  0
 50 51  1  0  0  0
 50121  1  0  0  0
 50122  1  0  0  0
 51 52  1  0  0  0
 51123  1  0  0  0
 51124  1  0  0  0
 52125  1  0  0  0
 52126  1  0  0  0
 53 54  1  0  0  0
 54 55  2  0  0  0
 54127  1  0  0  0
 55 57  1  0  0  0
 55128  1  0  0  0
 56 69  2  0  0  0
 57 58  2  0  0  0
 57129  1  0  0  0
 58130  1  0  0  0
 59 60  1  0  0  0
 59 61  1  0  0  0
 59 62  1  0  0  0
 60131  1  0  0  0
 60132  1  0  0  0
 60133  1  0  0  0
 61134  1  0  0  0
 61135  1  0  0  0
 61136  1  0  0  0
 62137  1  0  0  0
 62138  1  0  0  0
 62139  1  0  0  0
 63 65  1  0  0  0
 63140  1  0  0  0
 63141  1  0  0  0
 63142  1  0  0  0
 64143  1  0  0  0
 65144  1  0  0  0
 68 82  1  0  0  0
 71 73  2  0  0  0
 71 76  1  0  0  0
 71145  1  0  0  0
 72 74  2  0  0  0
 72 75  1  0  0  0
 72146  1  0  0  0
 73 74  1  0  0  0
 73 77  1  0  0  0
 74 83  1  0  0  0
 75 76  2  0  0  0
 75 84  1  0  0  0
 76 85  1  0  0  0
 77 78  2  0  0  0
 77147  1  0  0  0
 78 82  1  0  0  0
 78148  1  0  0  0
 79149  1  0  0  0
 79150  1  0  0  0
 79151  1  0  0  0
 79 83  1  0  0  0
 80 83  1  0  0  0
 80152  1  0  0  0
 80153  1  0  0  0
 80154  1  0  0  0
 81 85  1  0  0  0
 81155  1  0  0  0
 81156  1  0  0  0
 81157  1  0  0  0
 82158  1  0  0  0
 82159  1  0  0  0
 83160  1  0  0  0
 84161  1  0  0  0
M  ISO  4   1 100  68 101  82 101  84 100
M  END
> <chiral flag>
0

> <version>
0

> <s_m_source_file>
/data/baiqing/PycharmProjects/Reinvent-master-3.2/result/LINK_invent/BTK/process_docking_weight1_custom_product_contain_oxygen_bond_distance_aromatic_linkinvent_7_9_3/rearranged_h_0111.sdf

> <i_m_source_file_index>
72

> <r_mmod_Potential_Energy-OPLS-2005>
395.253234863281

> <r_mmod_Stretch_Energy-OPLS-2005>
213.307342529297

> <r_mmod_Bend_Energy-OPLS-2005>
278.386047363281

> <r_mmod_Torsional_Energy-OPLS-2005>
223.068496704102

> <r_mmod_Improper_Torsional_Energy-OPLS-2005>
4.46990156173706

> <r_mmod_Van_der_Waal_Energy-OPLS-2005>
141.136001586914

> <r_mmod_Electrostatic_Energy-OPLS-2005>
-429.985412597656

> <r_mmod_Solvation_Energy-OPLS-2005>
-199.354446411133

> <b_mmod_Minimization_Converged-OPLS-2005>
0

> <r_mmod_RMS_Derivative-OPLS-2005>
3.11757230758667

$$$$
74
                    3D
 Structure written by MMmdl.
172181  0  0  1  0            999 V2000
  -30.7027  -14.5439   20.5723 C   0  0  0  0  0  0
  -30.4077  -12.3616   19.4326 C   0  0  0  0  0  0
  -29.4953  -12.5437   18.2033 C   0  0  0  0  0  0
  -28.0131  -12.3957   18.6054 C   0  0  0  0  0  0
  -27.6443  -13.2267   19.8655 C   0  0  2  0  0  0
  -28.6892  -13.0673   20.9940 C   0  0  0  0  0  0
  -25.2467  -13.8193   20.5639 C   0  0  0  0  0  0
  -24.1751  -13.0444   20.9199 C   0  0  0  0  0  0
  -24.6357  -11.6916   20.8750 C   0  0  0  0  0  0
  -23.9047  -10.4278   21.0406 C   0  0  0  0  0  0
  -24.3579   -9.4186   21.9190 C   0  0  0  0  0  0
  -23.6285   -8.2184   22.0749 C   0  0  0  0  0  0
  -22.4290   -8.0199   21.3495 C   0  0  0  0  0  0
  -21.9893   -9.0192   20.4621 C   0  0  0  0  0  0
  -22.7212  -10.2091   20.3063 C   0  0  0  0  0  0
  -21.6834   -6.0676   22.5233 C   0  0  0  0  0  0
  -21.3982   -6.5593   23.8168 C   0  0  0  0  0  0
  -21.3692   -5.6769   24.9150 C   0  0  0  0  0  0
  -21.6091   -4.3028   24.7220 C   0  0  0  0  0  0
  -21.8822   -3.8084   23.4337 C   0  0  0  0  0  0
  -21.9175   -4.6892   22.3385 C   0  0  0  0  0  0
  -22.7775  -13.5200   21.1896 C   0  0  0  0  0  0
  -22.1620   -4.2076   21.0961 F   0  0  0  0  0  0
  -21.5717   -3.4531   25.7747 F   0  0  0  0  0  0
  -30.0076  -13.3758   20.4279 N   0  0  0  0  0  0
  -26.2916  -12.9377   20.3311 N   0  0  0  0  0  0
  -25.9277  -11.6537   20.5725 N   0  0  0  0  0  0
  -22.0372  -12.8208   22.0430 N   0  0  0  0  0  0
  -25.4181  -15.1906   20.4008 N   0  0  0  0  0  0
  -31.8544  -14.6494   20.1473 O   0  0  0  0  0  0
  -21.6629   -6.8794   21.4193 O   0  0  0  0  0  0
  -22.3465  -14.5537   20.6778 O   0  0  0  0  0  0
  -24.6234  -31.8680   23.2072 C   0  0  0  0  0  0
  -25.9142  -32.4811   23.8374 C   0  0  1  0  0  0
  -27.2182  -27.3867   20.1274 C   0  0  0  0  0  0
  -25.6000  -33.8608   24.2336 N   0  0  0  0  0  0
  -23.4098  -30.4937   21.5503 C   0  0  2  0  0  0
  -24.8502  -28.9509   20.1165 C   0  0  0  0  0  0
  -22.7453  -29.4697   22.4995 C   0  0  0  0  0  0
  -18.0292  -28.1380   22.8530 C   0  0  0  0  0  0
  -24.1482  -36.7250   23.2643 C   0  0  0  0  0  0
  -25.9422  -30.8189   21.3659 C   0  0  0  0  0  0
  -26.0132  -29.4494   20.7178 C   0  0  0  0  0  0
  -27.2019  -28.6749   20.7219 C   0  0  0  0  0  0
  -26.0457  -26.9233   19.4961 C   0  0  0  0  0  0
  -24.8619  -27.6861   19.5018 C   0  0  0  0  0  0
  -23.6142  -29.8234   20.1644 C   0  0  0  0  0  0
  -25.4113  -36.3085   24.0342 C   0  0  1  0  0  0
  -20.5903  -28.3687   23.1315 C   0  0  2  0  0  0
  -20.6781  -26.9418   22.5412 C   0  0  0  0  0  0
  -19.5730  -26.6385   21.5247 C   0  0  0  0  0  0
  -18.1913  -26.7942   22.1645 C   0  0  0  0  0  0
  -19.1553  -28.8853   23.2915 C   0  0  0  0  0  0
  -18.9468  -30.1452   23.8911 C   0  0  0  0  0  0
  -17.6469  -30.6571   24.0581 C   0  0  0  0  0  0
  -25.9065  -34.9463   23.5126 C   0  0  0  0  0  0
  -16.5356  -29.9065   23.6357 C   0  0  0  0  0  0
  -16.7282  -28.6487   23.0389 C   0  0  0  0  0  0
  -26.4537  -31.6581   25.0687 C   0  0  0  0  0  0
  -25.3775  -31.3681   26.1400 C   0  0  0  0  0  0
  -27.0388  -30.3031   24.6066 C   0  0  0  0  0  0
  -27.6122  -32.4310   25.7451 C   0  0  0  0  0  0
  -27.5566  -37.1790   24.8491 C   0  0  0  0  0  0
  -21.4189  -29.3053   22.3728 N   0  0  0  0  0  0
  -26.4287  -37.3766   23.9438 N   0  0  0  0  0  0
  -24.6767  -31.0751   22.0990 N   0  0  0  0  0  0
  -23.4216  -28.8285   23.3084 O   0  0  0  0  0  0
  -28.3472  -26.5816   20.1450 O   0  0  0  0  0  0
  -26.5572  -34.8952   22.4650 O   0  0  0  0  0  0
  -23.5437  -32.1479   23.7455 O   0  0  0  0  0  0
  -29.0091  -19.1554   20.6117 C   0  0  0  0  0  0
  -30.8798  -19.5485   18.5854 C   0  0  0  0  0  0
  -29.6752  -18.0101   20.0693 C   0  0  0  0  0  0
  -29.2314  -20.4819   20.1198 C   0  0  0  0  0  0
  -30.6467  -18.2465   19.0619 C   0  0  0  0  0  0
  -30.1379  -20.6578   19.0465 C   0  0  0  0  0  0
  -30.0951  -22.9596   22.0038 C   0  0  0  0  0  0
  -31.1830  -15.3436   23.3609 C   0  0  0  0  0  0
  -30.5496  -16.0786   22.4245 C   0  0  0  0  0  0
  -30.9965  -24.1754   21.8642 C   0  0  0  0  0  0
  -30.6487  -24.6682   20.4556 C   0  0  0  0  0  0
  -29.2101  -24.1784   20.2238 C   0  0  2  0  0  0
  -31.4302  -17.1313   18.4002 C   0  0  0  0  0  0
  -30.7299  -21.9534   17.1166 C   0  0  0  0  0  0
  -28.4206  -21.6975   20.6495 C   0  0  0  0  0  0
  -29.2125  -16.5607   20.4226 C   0  0  0  0  0  0
  -28.1728  -25.2491   20.7117 C   0  0  0  0  0  0
  -29.1851  -22.9186   21.0159 N   0  0  0  0  0  0
  -30.0930  -15.6129   21.1768 N   0  0  0  0  0  0
  -30.2474  -22.1206   22.8971 O   0  0  0  0  0  0
  -30.2364  -21.8977   18.4547 O   0  0  0  0  0  0
  -31.4556  -12.4531   19.1414 H   0  0  0  0  0  0
  -30.2929  -11.3553   19.8424 H   0  0  0  0  0  0
  -29.7565  -11.8157   17.4328 H   0  0  0  0  0  0
  -29.6616  -13.5301   17.7636 H   0  0  0  0  0  0
  -27.8182  -11.3406   18.7900 H   0  0  0  0  0  0
  -27.3681  -12.6810   17.7709 H   0  0  0  0  0  0
  -27.6587  -14.2671   19.5546 H   0  0  0  0  0  0
  -28.6847  -12.0541   21.3962 H   0  0  0  0  0  0
  -28.4468  -13.7218   21.8315 H   0  0  0  0  0  0
  -25.2696   -9.5703   22.4809 H   0  0  0  0  0  0
  -24.0003   -7.4608   22.7513 H   0  0  0  0  0  0
  -21.0791   -8.8732   19.8955 H   0  0  0  0  0  0
  -22.3649  -10.9647   19.6195 H   0  0  0  0  0  0
  -21.1910   -7.6095   23.9662 H   0  0  0  0  0  0
  -21.1566   -6.0474   25.9073 H   0  0  0  0  0  0
  -22.0589   -2.7539   23.2848 H   0  0  0  0  0  0
  -22.3875  -11.9809   22.4828 H   0  0  0  0  0  0
  -21.1012  -13.1314   22.2648 H   0  0  0  0  0  0
  -24.6594  -15.8548   20.5153 H   0  0  0  0  0  0
  -26.2788  -15.6238   20.0954 H   0  0  0  0  0  0
  -26.7219  -32.5504   23.1151 H   0  0  0  0  0  0
  -25.0338  -33.9757   25.0620 H   0  0  0  0  0  0
  -22.6991  -31.3110   21.4115 H   0  0  0  0  0  0
  -23.3772  -35.9546   23.3312 H   0  0  0  0  0  0
  -24.3627  -36.8830   22.2056 H   0  0  0  0  0  0
  -23.7170  -37.6440   23.6642 H   0  0  0  0  0  0
  -26.0647  -31.5804   20.5952 H   0  0  0  0  0  0
  -26.8303  -30.8714   21.9837 H   0  0  0  0  0  0
  -28.0892  -29.0499   21.2139 H   0  0  0  0  0  0
  -26.0364  -25.9590   19.0043 H   0  0  0  0  0  0
  -23.9708  -27.2925   19.0310 H   0  0  0  0  0  0
  -23.7250  -30.5977   19.4045 H   0  0  0  0  0  0
  -22.7360  -29.2440   19.8724 H   0  0  0  0  0  0
  -25.1290  -36.1933   25.0822 H   0  0  0  0  0  0
  -21.0027  -28.3239   24.1440 H   0  0  0  0  0  0
  -20.5756  -26.2307   23.3616 H   0  0  0  0  0  0
  -21.6633  -26.7488   22.1165 H   0  0  0  0  0  0
  -19.6880  -25.6315   21.1230 H   0  0  0  0  0  0
  -19.6626  -27.3251   20.6823 H   0  0  0  0  0  0
  -17.4218  -26.6811   21.3980 H   0  0  0  0  0  0
  -18.0220  -26.0037   22.8977 H   0  0  0  0  0  0
  -19.7942  -30.7281   24.2263 H   0  0  0  0  0  0
  -17.5017  -31.6264   24.5158 H   0  0  0  0  0  0
  -15.5357  -30.2953   23.7656 H   0  0  0  0  0  0
  -15.8709  -28.0775   22.7104 H   0  0  0  0  0  0
  -24.6026  -30.6940   25.7727 H   0  0  0  0  0  0
  -24.8849  -32.2797   26.4769 H   0  0  0  0  0  0
  -25.8087  -30.8914   27.0200 H   0  0  0  0  0  0
  -26.2912  -29.6751   24.1179 H   0  0  0  0  0  0
  -27.4261  -29.7303   25.4506 H   0  0  0  0  0  0
  -27.8718  -30.4388   23.9164 H   0  0  0  0  0  0
  -27.2781  -33.3672   26.1952 H   0  0  0  0  0  0
  -28.3946  -32.6753   25.0249 H   0  0  0  0  0  0
  -28.0774  -31.8449   26.5388 H   0  0  0  0  0  0
  -28.2596  -38.0078   24.7565 H   0  0  0  0  0  0
  -28.1017  -36.2606   24.6277 H   0  0  0  0  0  0
  -27.2304  -37.1419   25.8898 H   0  0  0  0  0  0
  -20.9378  -29.8716   21.6875 H   0  0  0  0  0  0
  -26.0146  -38.2826   24.1445 H   0  0  0  0  0  0
  -28.2638  -19.0103   21.3797 H   0  0  0  0  0  0
  -31.6151  -19.6735   17.8039 H   0  0  0  0  0  0
  -31.5027  -15.7909   24.2929 H   0  0  0  0  0  0
  -31.3903  -14.2905   23.2301 H   0  0  0  0  0  0
  -30.3423  -17.1250   22.5942 H   0  0  0  0  0  0
  -32.0531  -23.9270   21.9796 H   0  0  0  0  0  0
  -30.7278  -24.9152   22.6187 H   0  0  0  0  0  0
  -31.3134  -24.1934   19.7332 H   0  0  0  0  0  0
  -30.7537  -25.7463   20.3367 H   0  0  0  0  0  0
  -29.0438  -23.9826   19.1641 H   0  0  0  0  0  0
  -31.8494  -17.4509   17.4451 H   0  0  0  0  0  0
  -30.8162  -16.2557   18.1929 H   0  0  0  0  0  0
  -32.2690  -16.8572   19.0373 H   0  0  0  0  0  0
  -30.4633  -22.9088   16.6635 H   0  0  0  0  0  0
  -30.2938  -21.1755   16.4840 H   0  0  0  0  0  0
  -31.8177  -21.8736   17.0918 H   0  0  0  0  0  0
  -27.8273  -21.3831   21.5098 H   0  0  0  0  0  0
  -27.6988  -21.9760   19.8799 H   0  0  0  0  0  0
  -28.9177  -16.1008   19.4786 H   0  0  0  0  0  0
  -28.2734  -16.6252   20.9747 H   0  0  0  0  0  0
  -28.2437  -25.3492   21.7968 H   0  0  0  0  0  0
  -27.1798  -24.8426   20.5241 H   0  0  0  0  0  0
  1 25  1  0  0  0
  1 30  2  0  0  0
  1 89  1  0  0  0
  2  3  1  0  0  0
  2 25  1  0  0  0
  2 92  1  0  0  0
  2 93  1  0  0  0
  3  4  1  0  0  0
  3 94  1  0  0  0
  3 95  1  0  0  0
  4  5  1  0  0  0
  4 96  1  0  0  0
  4 97  1  0  0  0
  5  6  1  0  0  0
  5 26  1  0  0  0
  5 98  1  0  0  0
  6 25  1  0  0  0
  6 99  1  0  0  0
  6100  1  0  0  0
  7  8  2  0  0  0
  7 26  1  0  0  0
  7 29  1  0  0  0
  8  9  1  0  0  0
  8 22  1  0  0  0
  9 10  1  0  0  0
  9 27  2  0  0  0
 10 11  2  0  0  0
 10 15  1  0  0  0
 11 12  1  0  0  0
 11101  1  0  0  0
 12 13  2  0  0  0
 12102  1  0  0  0
 13 14  1  0  0  0
 13 31  1  0  0  0
 14 15  2  0  0  0
 14103  1  0  0  0
 15104  1  0  0  0
 16 17  2  0  0  0
 16 21  1  0  0  0
 16 31  1  0  0  0
 17 18  1  0  0  0
 17105  1  0  0  0
 18 19  2  0  0  0
 18106  1  0  0  0
 19 20  1  0  0  0
 19 24  1  0  0  0
 20 21  2  0  0  0
 20107  1  0  0  0
 21 23  1  0  0  0
 22 28  1  0  0  0
 22 32  2  0  0  0
 26 27  1  0  0  0
 28108  1  0  0  0
 28109  1  0  0  0
 29110  1  0  0  0
 29111  1  0  0  0
 33 34  1  0  0  0
 33 66  1  0  0  0
 33 70  2  0  0  0
 34 36  1  0  0  0
 34 59  1  0  0  0
 34112  1  0  0  0
 35 44  2  0  0  0
 35 45  1  0  0  0
 35 68  1  0  0  0
 36 56  1  0  0  0
 36113  1  0  0  0
 37 39  1  0  0  0
 37 47  1  0  0  0
 37 66  1  0  0  0
 37114  1  0  0  0
 38 43  2  0  0  0
 38 46  1  0  0  0
 38 47  1  0  0  0
 39 64  1  0  0  0
 39 67  2  0  0  0
 40 52  1  0  0  0
 40 53  2  0  0  0
 40 58  1  0  0  0
 41115  1  0  0  0
 41116  1  0  0  0
 41117  1  0  0  0
 41 48  1  0  0  0
 42 43  1  0  0  0
 42 66  1  0  0  0
 42118  1  0  0  0
 42119  1  0  0  0
 43 44  1  0  0  0
 44120  1  0  0  0
 45 46  2  0  0  0
 45121  1  0  0  0
 46122  1  0  0  0
 47123  1  0  0  0
 47124  1  0  0  0
 48 56  1  0  0  0
 48 65  1  0  0  0
 48125  1  0  0  0
 49 50  1  0  0  0
 49 53  1  0  0  0
 49 64  1  0  0  0
 49126  1  0  0  0
 50 51  1  0  0  0
 50127  1  0  0  0
 50128  1  0  0  0
 51 52  1  0  0  0
 51129  1  0  0  0
 51130  1  0  0  0
 52131  1  0  0  0
 52132  1  0  0  0
 53 54  1  0  0  0
 54 55  2  0  0  0
 54133  1  0  0  0
 55 57  1  0  0  0
 55134  1  0  0  0
 56 69  2  0  0  0
 57 58  2  0  0  0
 57135  1  0  0  0
 58136  1  0  0  0
 59 60  1  0  0  0
 59 61  1  0  0  0
 59 62  1  0  0  0
 60137  1  0  0  0
 60138  1  0  0  0
 60139  1  0  0  0
 61140  1  0  0  0
 61141  1  0  0  0
 61142  1  0  0  0
 62143  1  0  0  0
 62144  1  0  0  0
 62145  1  0  0  0
 63 65  1  0  0  0
 63146  1  0  0  0
 63147  1  0  0  0
 63148  1  0  0  0
 64149  1  0  0  0
 65150  1  0  0  0
 68 87  1  0  0  0
 71 73  2  0  0  0
 71 74  1  0  0  0
 71151  1  0  0  0
 72 75  2  0  0  0
 72 76  1  0  0  0
 72152  1  0  0  0
 73 75  1  0  0  0
 73 86  1  0  0  0
 74 76  2  0  0  0
 74 85  1  0  0  0
 75 83  1  0  0  0
 76 91  1  0  0  0
 77 80  1  0  0  0
 77 88  1  0  0  0
 77 90  2  0  0  0
 78 79  2  0  0  0
 78153  1  0  0  0
 78154  1  0  0  0
 79 89  1  0  0  0
 79155  1  0  0  0
 80 81  1  0  0  0
 80156  1  0  0  0
 80157  1  0  0  0
 81 82  1  0  0  0
 81158  1  0  0  0
 81159  1  0  0  0
 82 87  1  0  0  0
 82 88  1  0  0  0
 82160  1  0  0  0
 83161  1  0  0  0
 83162  1  0  0  0
 83163  1  0  0  0
 84 91  1  0  0  0
 84164  1  0  0  0
 84165  1  0  0  0
 84166  1  0  0  0
 85 88  1  0  0  0
 85167  1  0  0  0
 85168  1  0  0  0
 86 89  1  0  0  0
 86169  1  0  0  0
 86170  1  0  0  0
 87171  1  0  0  0
 87172  1  0  0  0
M  ISO  4   1 100  68 101  87 101  89 100
M  END
> <chiral flag>
0

> <version>
0

> <s_m_source_file>
/data/baiqing/PycharmProjects/Reinvent-master-3.2/result/LINK_invent/BTK/process_docking_weight1_custom_product_contain_oxygen_bond_distance_aromatic_linkinvent_7_9_3/rearranged_h_0111.sdf

> <i_m_source_file_index>
73

> <r_mmod_Potential_Energy-OPLS-2005>
189.535552978516

> <r_mmod_Stretch_Energy-OPLS-2005>
60.9564933776855

> <r_mmod_Bend_Energy-OPLS-2005>
156.771728515625

> <r_mmod_Torsional_Energy-OPLS-2005>
349.404937744141

> <r_mmod_Improper_Torsional_Energy-OPLS-2005>
3.96367025375366

> <r_mmod_Van_der_Waal_Energy-OPLS-2005>
146.637969970703

> <r_mmod_Electrostatic_Energy-OPLS-2005>
-341.941314697266

> <r_mmod_Solvation_Energy-OPLS-2005>
-212.345275878906

> <b_mmod_Minimization_Converged-OPLS-2005>
0

> <r_mmod_RMS_Derivative-OPLS-2005>
5.46295213699341

$$$$
75
                    3D
 Structure written by MMmdl.
162171  0  0  1  0            999 V2000
  -30.5359  -14.9128   20.5141 C   0  0  0  0  0  0
  -30.4496  -12.5789   19.4977 C   0  0  0  0  0  0
  -29.5300  -12.5647   18.2504 C   0  0  0  0  0  0
  -28.0559  -12.3389   18.6484 C   0  0  0  0  0  0
  -27.6343  -13.2317   19.8432 C   0  0  2  0  0  0
  -28.6707  -13.1451   20.9756 C   0  0  0  0  0  0
  -25.2428  -13.8103   20.5719 C   0  0  0  0  0  0
  -24.1740  -13.0350   20.9184 C   0  0  0  0  0  0
  -24.6362  -11.6842   20.8687 C   0  0  0  0  0  0
  -23.9041  -10.4240   21.0377 C   0  0  0  0  0  0
  -24.3599   -9.4180   21.9176 C   0  0  0  0  0  0
  -23.6271   -8.2217   22.0753 C   0  0  0  0  0  0
  -22.4255   -8.0252   21.3546 C   0  0  0  0  0  0
  -21.9888   -9.0207   20.4637 C   0  0  0  0  0  0
  -22.7212  -10.2088   20.3027 C   0  0  0  0  0  0
  -21.6836   -6.0720   22.5295 C   0  0  0  0  0  0
  -21.4004   -6.5622   23.8226 C   0  0  0  0  0  0
  -21.3648   -5.6779   24.9181 C   0  0  0  0  0  0
  -21.6041   -4.3043   24.7231 C   0  0  0  0  0  0
  -21.8820   -3.8135   23.4352 C   0  0  0  0  0  0
  -21.9186   -4.6955   22.3415 C   0  0  0  0  0  0
  -22.7774  -13.5156   21.1877 C   0  0  0  0  0  0
  -22.1662   -4.2131   21.0996 F   0  0  0  0  0  0
  -21.5619   -3.4535   25.7747 F   0  0  0  0  0  0
  -29.9559  -13.6343   20.4337 N   0  0  0  0  0  0
  -26.2875  -12.9348   20.3190 N   0  0  0  0  0  0
  -25.9287  -11.6484   20.5649 N   0  0  0  0  0  0
  -22.0416  -12.8142   22.0427 N   0  0  0  0  0  0
  -25.4032  -15.1834   20.4309 N   0  0  0  0  0  0
  -31.6798  -15.0328   20.0588 O   0  0  0  0  0  0
  -21.6610   -6.8854   21.4254 O   0  0  0  0  0  0
  -22.3451  -14.5479   20.6755 O   0  0  0  0  0  0
  -24.6407  -31.8421   23.1894 C   0  0  0  0  0  0
  -25.9162  -32.4714   23.8259 C   0  0  1  0  0  0
  -27.2410  -27.1564   20.1544 C   0  0  0  0  0  0
  -25.5901  -33.8511   24.2178 N   0  0  0  0  0  0
  -23.4460  -30.4621   21.5329 C   0  0  2  0  0  0
  -24.9001  -28.8880   20.1151 C   0  0  0  0  0  0
  -22.7569  -29.4542   22.4857 C   0  0  0  0  0  0
  -18.0293  -28.1408   22.8469 C   0  0  0  0  0  0
  -24.1476  -36.7220   23.2653 C   0  0  0  0  0  0
  -26.0016  -30.7249   21.3861 C   0  0  0  0  0  0
  -26.0775  -29.3400   20.7260 C   0  0  0  0  0  0
  -27.2453  -28.4903   20.7233 C   0  0  0  0  0  0
  -26.0344  -26.7981   19.5112 C   0  0  0  0  0  0
  -24.8926  -27.6294   19.4930 C   0  0  0  0  0  0
  -23.6720  -29.7854   20.1558 C   0  0  0  0  0  0
  -25.4105  -36.3033   24.0340 C   0  0  1  0  0  0
  -20.5912  -28.3706   23.1242 C   0  0  2  0  0  0
  -20.6787  -26.9406   22.5420 C   0  0  0  0  0  0
  -19.5758  -26.6370   21.5237 C   0  0  0  0  0  0
  -18.1928  -26.7951   22.1625 C   0  0  0  0  0  0
  -19.1564  -28.8870   23.2846 C   0  0  0  0  0  0
  -18.9495  -30.1475   23.8872 C   0  0  0  0  0  0
  -17.6496  -30.6592   24.0572 C   0  0  0  0  0  0
  -25.9050  -34.9419   23.5064 C   0  0  0  0  0  0
  -16.5366  -29.9097   23.6356 C   0  0  0  0  0  0
  -16.7295  -28.6519   23.0356 C   0  0  0  0  0  0
  -26.4484  -31.6593   25.0692 C   0  0  0  0  0  0
  -25.3697  -31.3768   26.1403 C   0  0  0  0  0  0
  -27.0368  -30.3017   24.6259 C   0  0  0  0  0  0
  -27.6012  -32.4369   25.7474 C   0  0  0  0  0  0
  -27.5573  -37.1732   24.8459 C   0  0  0  0  0  0
  -21.4262  -29.3026   22.3606 N   0  0  0  0  0  0
  -26.4256  -37.3766   23.9453 N   0  0  0  0  0  0
  -24.7155  -31.0282   22.0927 N   0  0  0  0  0  0
  -23.4215  -28.8082   23.3003 O   0  0  0  0  0  0
  -28.3271  -26.2085   20.2115 O   0  0  0  0  0  0
  -26.5670  -34.8920   22.4666 O   0  0  0  0  0  0
  -23.5510  -32.1256   23.7119 O   0  0  0  0  0  0
  -28.5940  -19.6694   19.8922 C   0  0  0  0  0  0
  -30.4418  -19.9101   21.3333 C   0  0  0  0  0  0
  -28.8093  -18.2219   19.8710 C   0  0  0  0  0  0
  -29.3666  -20.6005   20.6683 C   0  0  0  0  0  0
  -29.8256  -17.5381   20.6381 C   0  0  0  0  0  0
  -30.6521  -18.4757   21.3394 C   0  0  0  0  0  0
  -28.9467  -22.2983   22.3461 C   0  0  0  0  0  0
  -28.1936  -16.5522   22.7851 C   0  0  0  0  0  0
  -29.2317  -15.8610   22.2749 C   0  0  0  0  0  0
  -29.7469  -23.5399   22.7287 C   0  0  0  0  0  0
  -30.3198  -23.9829   21.3845 C   0  0  0  0  0  0
  -29.2784  -23.4614   20.3810 C   0  0  2  0  0  0
  -27.8452  -17.3730   19.0652 C   0  0  0  0  0  0
  -28.1018  -24.6693   20.2518 C   0  0  0  0  0  0
  -28.9660  -22.0515   21.0149 N   0  0  0  0  0  0
  -29.8074  -16.0441   21.0036 N   0  0  0  0  0  0
  -28.3878  -21.6019   23.2004 O   0  0  0  0  0  0
  -31.6399  -17.9860   22.1260 F   0  0  0  0  0  0
  -31.4855  -12.7429   19.1969 H   0  0  0  0  0  0
  -30.4460  -11.6001   19.9818 H   0  0  0  0  0  0
  -29.8542  -11.7958   17.5475 H   0  0  0  0  0  0
  -29.6215  -13.5181   17.7264 H   0  0  0  0  0  0
  -27.9475  -11.2902   18.9228 H   0  0  0  0  0  0
  -27.3989  -12.5036   17.7930 H   0  0  0  0  0  0
  -27.6245  -14.2558   19.4734 H   0  0  0  0  0  0
  -28.7636  -12.1165   21.3280 H   0  0  0  0  0  0
  -28.3005  -13.6770   21.8430 H   0  0  0  0  0  0
  -25.2737   -9.5657   22.4744 H   0  0  0  0  0  0
  -23.9972   -7.4607   22.7475 H   0  0  0  0  0  0
  -21.0817   -8.8708   19.8940 H   0  0  0  0  0  0
  -22.3670  -10.9609   19.6113 H   0  0  0  0  0  0
  -21.1998   -7.6129   23.9725 H   0  0  0  0  0  0
  -21.1464   -6.0508   25.9082 H   0  0  0  0  0  0
  -22.0606   -2.7599   23.2864 H   0  0  0  0  0  0
  -22.4016  -11.9773   22.4781 H   0  0  0  0  0  0
  -21.1043  -13.1181   22.2649 H   0  0  0  0  0  0
  -24.6449  -15.8400   20.5683 H   0  0  0  0  0  0
  -26.2863  -15.6273   20.2257 H   0  0  0  0  0  0
  -26.7226  -32.5336   23.0979 H   0  0  0  0  0  0
  -25.0017  -33.9641   25.0293 H   0  0  0  0  0  0
  -22.7481  -31.2880   21.3756 H   0  0  0  0  0  0
  -23.3797  -35.9504   23.3284 H   0  0  0  0  0  0
  -24.3536  -36.8865   22.2072 H   0  0  0  0  0  0
  -23.7175  -37.6379   23.6693 H   0  0  0  0  0  0
  -26.1575  -31.4824   20.6166 H   0  0  0  0  0  0
  -26.8721  -30.7701   22.0318 H   0  0  0  0  0  0
  -28.1432  -28.8314   21.2190 H   0  0  0  0  0  0
  -25.9437  -25.8397   19.0245 H   0  0  0  0  0  0
  -23.9963  -27.2721   19.0047 H   0  0  0  0  0  0
  -23.8003  -30.5555   19.3952 H   0  0  0  0  0  0
  -22.7908  -29.2208   19.8480 H   0  0  0  0  0  0
  -25.1292  -36.1840   25.0836 H   0  0  0  0  0  0
  -21.0004  -28.3295   24.1362 H   0  0  0  0  0  0
  -20.5687  -26.2306   23.3622 H   0  0  0  0  0  0
  -21.6632  -26.7404   22.1193 H   0  0  0  0  0  0
  -19.6913  -25.6294   21.1231 H   0  0  0  0  0  0
  -19.6722  -27.3200   20.6798 H   0  0  0  0  0  0
  -17.4194  -26.6711   21.4028 H   0  0  0  0  0  0
  -18.0296  -26.0124   22.9042 H   0  0  0  0  0  0
  -19.7990  -30.7273   24.2230 H   0  0  0  0  0  0
  -17.5068  -31.6300   24.5135 H   0  0  0  0  0  0
  -15.5378  -30.2989   23.7731 H   0  0  0  0  0  0
  -15.8687  -28.0840   22.7114 H   0  0  0  0  0  0
  -24.5900  -30.7093   25.7704 H   0  0  0  0  0  0
  -24.8858  -32.2944   26.4760 H   0  0  0  0  0  0
  -25.7968  -30.8977   27.0221 H   0  0  0  0  0  0
  -26.2981  -29.6756   24.1258 H   0  0  0  0  0  0
  -27.4006  -29.7285   25.4785 H   0  0  0  0  0  0
  -27.8857  -30.4285   23.9559 H   0  0  0  0  0  0
  -27.2625  -33.3727   26.1928 H   0  0  0  0  0  0
  -28.3872  -32.6838   25.0334 H   0  0  0  0  0  0
  -28.0632  -31.8595   26.5478 H   0  0  0  0  0  0
  -28.2517  -38.0108   24.7606 H   0  0  0  0  0  0
  -28.1143  -36.2621   24.6158 H   0  0  0  0  0  0
  -27.2291  -37.1219   25.8863 H   0  0  0  0  0  0
  -20.9448  -29.8714   21.6782 H   0  0  0  0  0  0
  -26.0117  -38.2812   24.1580 H   0  0  0  0  0  0
  -27.7396  -20.0609   19.3582 H   0  0  0  0  0  0
  -31.0996  -20.4863   21.9678 H   0  0  0  0  0  0
  -27.8291  -16.3361   23.7791 H   0  0  0  0  0  0
  -27.6777  -17.3283   22.2377 H   0  0  0  0  0  0
  -29.7135  -15.0913   22.8659 H   0  0  0  0  0  0
  -30.5327  -23.3066   23.4513 H   0  0  0  0  0  0
  -29.0936  -24.2932   23.1646 H   0  0  0  0  0  0
  -31.2837  -23.4965   21.2181 H   0  0  0  0  0  0
  -30.5011  -25.0574   21.3278 H   0  0  0  0  0  0
  -29.7546  -23.3232   19.4089 H   0  0  0  0  0  0
  -26.9960  -17.9491   18.6997 H   0  0  0  0  0  0
  -27.4553  -16.5750   19.6848 H   0  0  0  0  0  0
  -28.3496  -16.9219   18.2123 H   0  0  0  0  0  0
  -27.4015  -24.5137   21.0723 H   0  0  0  0  0  0
  -27.5350  -24.4077   19.3575 H   0  0  0  0  0  0
  1 25  1  0  0  0
  1 30  2  0  0  0
  1 86  1  0  0  0
  2  3  1  0  0  0
  2 25  1  0  0  0
  2 89  1  0  0  0
  2 90  1  0  0  0
  3  4  1  0  0  0
  3 91  1  0  0  0
  3 92  1  0  0  0
  4  5  1  0  0  0
  4 93  1  0  0  0
  4 94  1  0  0  0
  5  6  1  0  0  0
  5 26  1  0  0  0
  5 95  1  0  0  0
  6 25  1  0  0  0
  6 96  1  0  0  0
  6 97  1  0  0  0
  7  8  2  0  0  0
  7 26  1  0  0  0
  7 29  1  0  0  0
  8  9  1  0  0  0
  8 22  1  0  0  0
  9 10  1  0  0  0
  9 27  2  0  0  0
 10 11  2  0  0  0
 10 15  1  0  0  0
 11 12  1  0  0  0
 11 98  1  0  0  0
 12 13  2  0  0  0
 12 99  1  0  0  0
 13 14  1  0  0  0
 13 31  1  0  0  0
 14 15  2  0  0  0
 14100  1  0  0  0
 15101  1  0  0  0
 16 17  2  0  0  0
 16 21  1  0  0  0
 16 31  1  0  0  0
 17 18  1  0  0  0
 17102  1  0  0  0
 18 19  2  0  0  0
 18103  1  0  0  0
 19 20  1  0  0  0
 19 24  1  0  0  0
 20 21  2  0  0  0
 20104  1  0  0  0
 21 23  1  0  0  0
 22 28  1  0  0  0
 22 32  2  0  0  0
 26 27  1  0  0  0
 28105  1  0  0  0
 28106  1  0  0  0
 29107  1  0  0  0
 29108  1  0  0  0
 33 34  1  0  0  0
 33 66  1  0  0  0
 33 70  2  0  0  0
 34 36  1  0  0  0
 34 59  1  0  0  0
 34109  1  0  0  0
 35 44  2  0  0  0
 35 45  1  0  0  0
 35 68  1  0  0  0
 36 56  1  0  0  0
 36110  1  0  0  0
 37 39  1  0  0  0
 37 47  1  0  0  0
 37 66  1  0  0  0
 37111  1  0  0  0
 38 43  2  0  0  0
 38 46  1  0  0  0
 38 47  1  0  0  0
 39 64  1  0  0  0
 39 67  2  0  0  0
 40 52  1  0  0  0
 40 53  2  0  0  0
 40 58  1  0  0  0
 41112  1  0  0  0
 41113  1  0  0  0
 41114  1  0  0  0
 41 48  1  0  0  0
 42 43  1  0  0  0
 42 66  1  0  0  0
 42115  1  0  0  0
 42116  1  0  0  0
 43 44  1  0  0  0
 44117  1  0  0  0
 45 46  2  0  0  0
 45118  1  0  0  0
 46119  1  0  0  0
 47120  1  0  0  0
 47121  1  0  0  0
 48 56  1  0  0  0
 48 65  1  0  0  0
 48122  1  0  0  0
 49 50  1  0  0  0
 49 53  1  0  0  0
 49 64  1  0  0  0
 49123  1  0  0  0
 50 51  1  0  0  0
 50124  1  0  0  0
 50125  1  0  0  0
 51 52  1  0  0  0
 51126  1  0  0  0
 51127  1  0  0  0
 52128  1  0  0  0
 52129  1  0  0  0
 53 54  1  0  0  0
 54 55  2  0  0  0
 54130  1  0  0  0
 55 57  1  0  0  0
 55131  1  0  0  0
 56 69  2  0  0  0
 57 58  2  0  0  0
 57132  1  0  0  0
 58133  1  0  0  0
 59 60  1  0  0  0
 59 61  1  0  0  0
 59 62  1  0  0  0
 60134  1  0  0  0
 60135  1  0  0  0
 60136  1  0  0  0
 61137  1  0  0  0
 61138  1  0  0  0
 61139  1  0  0  0
 62140  1  0  0  0
 62141  1  0  0  0
 62142  1  0  0  0
 63 65  1  0  0  0
 63143  1  0  0  0
 63144  1  0  0  0
 63145  1  0  0  0
 64146  1  0  0  0
 65147  1  0  0  0
 68 84  1  0  0  0
 71 73  2  0  0  0
 71 74  1  0  0  0
 71148  1  0  0  0
 72 74  2  0  0  0
 72 76  1  0  0  0
 72149  1  0  0  0
 73 75  1  0  0  0
 73 83  1  0  0  0
 74 85  1  0  0  0
 75 76  2  0  0  0
 75 86  1  0  0  0
 76 88  1  0  0  0
 77 80  1  0  0  0
 77 85  1  0  0  0
 77 87  2  0  0  0
 78 79  2  0  0  0
 78150  1  0  0  0
 78151  1  0  0  0
 79 86  1  0  0  0
 79152  1  0  0  0
 80 81  1  0  0  0
 80153  1  0  0  0
 80154  1  0  0  0
 81 82  1  0  0  0
 81155  1  0  0  0
 81156  1  0  0  0
 82 84  1  0  0  0
 82 85  1  0  0  0
 82157  1  0  0  0
 83158  1  0  0  0
 83159  1  0  0  0
 83160  1  0  0  0
 84161  1  0  0  0
 84162  1  0  0  0
M  ISO  4   1 100  68 101  84 101  86 100
M  END
> <chiral flag>
0

> <version>
0

> <s_m_source_file>
/data/baiqing/PycharmProjects/Reinvent-master-3.2/result/LINK_invent/BTK/process_docking_weight1_custom_product_contain_oxygen_bond_distance_aromatic_linkinvent_7_9_3/rearranged_h_0111.sdf

> <i_m_source_file_index>
74

> <r_mmod_Potential_Energy-OPLS-2005>
795.656433105469

> <r_mmod_Stretch_Energy-OPLS-2005>
248.762496948242

> <r_mmod_Bend_Energy-OPLS-2005>
294.917785644531

> <r_mmod_Torsional_Energy-OPLS-2005>
446.441497802734

> <r_mmod_Improper_Torsional_Energy-OPLS-2005>
10.9082069396973

> <r_mmod_Van_der_Waal_Energy-OPLS-2005>
141.51496887207

> <r_mmod_Electrostatic_Energy-OPLS-2005>
-299.110504150391

> <r_mmod_Solvation_Energy-OPLS-2005>
-209.594985961914

> <b_mmod_Minimization_Converged-OPLS-2005>
0

> <r_mmod_RMS_Derivative-OPLS-2005>
4.19849395751953

$$$$
76
                    3D
 Structure written by MMmdl.
164172  0  0  1  0            999 V2000
  -30.6789  -14.5874   20.5946 C   0  0  0  0  0  0
  -30.4277  -12.3879   19.4491 C   0  0  0  0  0  0
  -29.5015  -12.5390   18.2227 C   0  0  0  0  0  0
  -28.0226  -12.3790   18.6243 C   0  0  0  0  0  0
  -27.6564  -13.2205   19.8743 C   0  0  2  0  0  0
  -28.6936  -13.0197   20.9984 C   0  0  0  0  0  0
  -25.2551  -13.8195   20.5689 C   0  0  0  0  0  0
  -24.1818  -13.0443   20.9198 C   0  0  0  0  0  0
  -24.6400  -11.6919   20.8738 C   0  0  0  0  0  0
  -23.9069  -10.4291   21.0409 C   0  0  0  0  0  0
  -24.3617   -9.4208   21.9187 C   0  0  0  0  0  0
  -23.6299   -8.2246   22.0745 C   0  0  0  0  0  0
  -22.4283   -8.0287   21.3541 C   0  0  0  0  0  0
  -21.9922   -9.0258   20.4638 C   0  0  0  0  0  0
  -22.7247  -10.2136   20.3055 C   0  0  0  0  0  0
  -21.6850   -6.0742   22.5280 C   0  0  0  0  0  0
  -21.4007   -6.5637   23.8215 C   0  0  0  0  0  0
  -21.3651   -5.6789   24.9172 C   0  0  0  0  0  0
  -21.6053   -4.3056   24.7227 C   0  0  0  0  0  0
  -21.8816   -3.8147   23.4346 C   0  0  0  0  0  0
  -21.9191   -4.6966   22.3402 C   0  0  0  0  0  0
  -22.7840  -13.5225   21.1864 C   0  0  0  0  0  0
  -22.1664   -4.2156   21.0983 F   0  0  0  0  0  0
  -21.5624   -3.4535   25.7740 F   0  0  0  0  0  0
  -30.0192  -13.3838   20.4667 N   0  0  0  0  0  0
  -26.2994  -12.9383   20.3345 N   0  0  0  0  0  0
  -25.9330  -11.6526   20.5751 N   0  0  0  0  0  0
  -22.0495  -12.8206   22.0418 N   0  0  0  0  0  0
  -25.4239  -15.1916   20.4076 N   0  0  0  0  0  0
  -31.7518  -14.7861   20.0141 O   0  0  0  0  0  0
  -21.6639   -6.8894   21.4245 O   0  0  0  0  0  0
  -22.3528  -14.5535   20.6712 O   0  0  0  0  0  0
  -24.6249  -31.8616   23.2040 C   0  0  0  0  0  0
  -25.9109  -32.4785   23.8378 C   0  0  1  0  0  0
  -27.2260  -27.3326   20.1177 C   0  0  0  0  0  0
  -25.5918  -33.8593   24.2281 N   0  0  0  0  0  0
  -23.4185  -30.4881   21.5462 C   0  0  2  0  0  0
  -24.8665  -28.9472   20.1126 C   0  0  0  0  0  0
  -22.7481  -29.4635   22.4930 C   0  0  0  0  0  0
  -18.0270  -28.1397   22.8500 C   0  0  0  0  0  0
  -24.1461  -36.7267   23.2641 C   0  0  0  0  0  0
  -25.9613  -30.7960   21.3766 C   0  0  0  0  0  0
  -26.0370  -29.4267   20.7170 C   0  0  0  0  0  0
  -27.2208  -28.6336   20.7074 C   0  0  0  0  0  0
  -26.0368  -26.9109   19.4779 C   0  0  0  0  0  0
  -24.8672  -27.6919   19.4877 C   0  0  0  0  0  0
  -23.6344  -29.8282   20.1599 C   0  0  0  0  0  0
  -25.4101  -36.3089   24.0320 C   0  0  1  0  0  0
  -20.5879  -28.3710   23.1264 C   0  0  2  0  0  0
  -20.6766  -26.9435   22.5403 C   0  0  0  0  0  0
  -19.5747  -26.6397   21.5216 C   0  0  0  0  0  0
  -18.1919  -26.7938   22.1623 C   0  0  0  0  0  0
  -19.1527  -28.8869   23.2865 C   0  0  0  0  0  0
  -18.9458  -30.1450   23.8913 C   0  0  0  0  0  0
  -17.6464  -30.6609   24.0574 C   0  0  0  0  0  0
  -25.9063  -34.9459   23.5102 C   0  0  0  0  0  0
  -16.5346  -29.9116   23.6351 C   0  0  0  0  0  0
  -16.7253  -28.6515   23.0403 C   0  0  0  0  0  0
  -26.4522  -31.6611   25.0754 C   0  0  0  0  0  0
  -25.3751  -31.3696   26.1461 C   0  0  0  0  0  0
  -27.0437  -30.3051   24.6231 C   0  0  0  0  0  0
  -27.6058  -32.4393   25.7533 C   0  0  0  0  0  0
  -27.5579  -37.1775   24.8479 C   0  0  0  0  0  0
  -21.4192  -29.3051   22.3653 N   0  0  0  0  0  0
  -26.4280  -37.3787   23.9443 N   0  0  0  0  0  0
  -24.6870  -31.0648   22.0979 N   0  0  0  0  0  0
  -23.4206  -28.8170   23.3003 O   0  0  0  0  0  0
  -28.3402  -26.4823   20.1387 O   0  0  0  0  0  0
  -26.5634  -34.8911   22.4676 O   0  0  0  0  0  0
  -23.5421  -32.1424   23.7353 O   0  0  0  0  0  0
  -30.7990  -17.8307   20.2739 C   0  0  0  0  0  0
  -29.8474  -17.1464   21.0745 C   0  0  0  0  0  0
  -28.7220  -17.9511   21.4949 C   0  0  0  0  0  0
  -30.6832  -19.2094   19.9424 C   0  0  0  0  0  0
  -28.5828  -19.3345   21.1104 C   0  0  0  0  0  0
  -29.5915  -20.0154   20.3641 C   0  0  0  0  0  0
  -30.1065  -15.6925   21.5540 C   0  0  0  0  0  0
  -27.8227  -17.7929   23.8783 C   0  0  0  0  0  0
  -26.4025  -19.9571   20.5317 C   0  0  0  0  0  0
  -27.6322  -17.3749   22.4111 C   0  0  0  0  0  0
  -29.1009  -23.9253   20.0839 C   0  0  0  0  0  0
  -28.1100  -25.0762   20.5532 C   0  0  0  0  0  0
  -28.7339  -22.4307   20.5093 C   0  0  0  0  0  0
  -29.9156  -15.3989   22.7735 N   0  0  0  0  0  0
  -31.6894  -19.8051   19.1815 N   0  0  0  0  0  0
  -27.4552  -20.0181   21.4908 O   0  0  0  0  0  0
  -29.6208  -21.3852   19.9910 O   0  0  0  0  0  0
  -31.4705  -12.5028   19.1461 H   0  0  0  0  0  0
  -30.3569  -11.3799   19.8583 H   0  0  0  0  0  0
  -29.7627  -11.8077   17.4568 H   0  0  0  0  0  0
  -29.6532  -13.5209   17.7733 H   0  0  0  0  0  0
  -27.8411  -11.3219   18.8220 H   0  0  0  0  0  0
  -27.3750  -12.6486   17.7892 H   0  0  0  0  0  0
  -27.6938  -14.2685   19.5753 H   0  0  0  0  0  0
  -28.6996  -11.9766   21.3179 H   0  0  0  0  0  0
  -28.4027  -13.5832   21.8825 H   0  0  0  0  0  0
  -25.2760   -9.5675   22.4769 H   0  0  0  0  0  0
  -23.9994   -7.4636   22.7457 H   0  0  0  0  0  0
  -21.0860   -8.8788   19.8951 H   0  0  0  0  0  0
  -22.3719  -10.9679   19.6163 H   0  0  0  0  0  0
  -21.1997   -7.6147   23.9722 H   0  0  0  0  0  0
  -21.1473   -6.0519   25.9080 H   0  0  0  0  0  0
  -22.0603   -2.7614   23.2847 H   0  0  0  0  0  0
  -22.4112  -11.9878   22.4818 H   0  0  0  0  0  0
  -21.1117  -13.1229   22.2633 H   0  0  0  0  0  0
  -24.6453  -15.8359   20.4872 H   0  0  0  0  0  0
  -26.2681  -15.6276   20.0618 H   0  0  0  0  0  0
  -26.7175  -32.5463   23.1126 H   0  0  0  0  0  0
  -25.0077  -33.9779   25.0432 H   0  0  0  0  0  0
  -22.7073  -31.3049   21.4044 H   0  0  0  0  0  0
  -23.3751  -35.9572   23.3310 H   0  0  0  0  0  0
  -24.3530  -36.8943   22.2062 H   0  0  0  0  0  0
  -23.7193  -37.6441   23.6695 H   0  0  0  0  0  0
  -26.1031  -31.5609   20.6125 H   0  0  0  0  0  0
  -26.8375  -30.8366   22.0112 H   0  0  0  0  0  0
  -28.1196  -29.0008   21.1837 H   0  0  0  0  0  0
  -25.9981  -25.9647   18.9604 H   0  0  0  0  0  0
  -23.9716  -27.3245   19.0030 H   0  0  0  0  0  0
  -23.7496  -30.6100   19.4073 H   0  0  0  0  0  0
  -22.7545  -29.2574   19.8609 H   0  0  0  0  0  0
  -25.1274  -36.1929   25.0807 H   0  0  0  0  0  0
  -20.9947  -28.3309   24.1396 H   0  0  0  0  0  0
  -20.5704  -26.2331   23.3611 H   0  0  0  0  0  0
  -21.6630  -26.7482   22.1185 H   0  0  0  0  0  0
  -19.6934  -25.6309   21.1263 H   0  0  0  0  0  0
  -19.6704  -27.3182   20.6726 H   0  0  0  0  0  0
  -17.4196  -26.6691   21.4010 H   0  0  0  0  0  0
  -18.0286  -26.0068   22.8997 H   0  0  0  0  0  0
  -19.7926  -30.7234   24.2338 H   0  0  0  0  0  0
  -17.5034  -31.6308   24.5146 H   0  0  0  0  0  0
  -15.5356  -30.3041   23.7694 H   0  0  0  0  0  0
  -15.8625  -28.0834   22.7179 H   0  0  0  0  0  0
  -24.5932  -30.7055   25.7754 H   0  0  0  0  0  0
  -24.8894  -32.2822   26.4917 H   0  0  0  0  0  0
  -25.8069  -30.8851   27.0225 H   0  0  0  0  0  0
  -26.3042  -29.6697   24.1332 H   0  0  0  0  0  0
  -27.4259  -29.7407   25.4755 H   0  0  0  0  0  0
  -27.8831  -30.4382   23.9405 H   0  0  0  0  0  0
  -27.2671  -33.3726   26.2038 H   0  0  0  0  0  0
  -28.3889  -32.6934   25.0381 H   0  0  0  0  0  0
  -28.0678  -31.8576   26.5521 H   0  0  0  0  0  0
  -28.2561  -38.0100   24.7581 H   0  0  0  0  0  0
  -28.1134  -36.2648   24.6260 H   0  0  0  0  0  0
  -27.2312  -37.1354   25.8882 H   0  0  0  0  0  0
  -20.9364  -29.8778   21.6870 H   0  0  0  0  0  0
  -26.0163  -38.2859   24.1480 H   0  0  0  0  0  0
  -31.6799  -17.2979   19.9450 H   0  0  0  0  0  0
  -27.0377  -17.3749   24.5104 H   0  0  0  0  0  0
  -27.7787  -18.8779   23.9818 H   0  0  0  0  0  0
  -28.7840  -17.4688   24.2761 H   0  0  0  0  0  0
  -25.6046  -20.6370   20.8282 H   0  0  0  0  0  0
  -25.9716  -18.9602   20.4518 H   0  0  0  0  0  0
  -26.7385  -20.2498   19.5373 H   0  0  0  0  0  0
  -27.5563  -16.2927   22.3254 H   0  0  0  0  0  0
  -26.6489  -17.7106   22.0917 H   0  0  0  0  0  0
  -30.1016  -24.1551   20.4505 H   0  0  0  0  0  0
  -29.1708  -23.9622   18.9960 H   0  0  0  0  0  0
  -28.0915  -25.0775   21.6431 H   0  0  0  0  0  0
  -27.1157  -24.7399   20.2692 H   0  0  0  0  0  0
  -27.7281  -22.2395   20.1453 H   0  0  0  0  0  0
  -28.6922  -22.3641   21.5970 H   0  0  0  0  0  0
  -29.5761  -16.2020   23.2868 H   0  0  0  0  0  0
  -32.2832  -19.2128   18.6106 H   0  0  0  0  0  0
  -31.4364  -20.6748   18.7196 H   0  0  0  0  0  0
  1 25  1  0  0  0
  1 30  2  0  0  0
  1 77  1  0  0  0
  2  3  1  0  0  0
  2 25  1  0  0  0
  2 88  1  0  0  0
  2 89  1  0  0  0
  3  4  1  0  0  0
  3 90  1  0  0  0
  3 91  1  0  0  0
  4  5  1  0  0  0
  4 92  1  0  0  0
  4 93  1  0  0  0
  5  6  1  0  0  0
  5 26  1  0  0  0
  5 94  1  0  0  0
  6 25  1  0  0  0
  6 95  1  0  0  0
  6 96  1  0  0  0
  7  8  2  0  0  0
  7 26  1  0  0  0
  7 29  1  0  0  0
  8  9  1  0  0  0
  8 22  1  0  0  0
  9 10  1  0  0  0
  9 27  2  0  0  0
 10 11  2  0  0  0
 10 15  1  0  0  0
 11 12  1  0  0  0
 11 97  1  0  0  0
 12 13  2  0  0  0
 12 98  1  0  0  0
 13 14  1  0  0  0
 13 31  1  0  0  0
 14 15  2  0  0  0
 14 99  1  0  0  0
 15100  1  0  0  0
 16 17  2  0  0  0
 16 21  1  0  0  0
 16 31  1  0  0  0
 17 18  1  0  0  0
 17101  1  0  0  0
 18 19  2  0  0  0
 18102  1  0  0  0
 19 20  1  0  0  0
 19 24  1  0  0  0
 20 21  2  0  0  0
 20103  1  0  0  0
 21 23  1  0  0  0
 22 28  1  0  0  0
 22 32  2  0  0  0
 26 27  1  0  0  0
 28104  1  0  0  0
 28105  1  0  0  0
 29106  1  0  0  0
 29107  1  0  0  0
 33 34  1  0  0  0
 33 66  1  0  0  0
 33 70  2  0  0  0
 34 36  1  0  0  0
 34 59  1  0  0  0
 34108  1  0  0  0
 35 44  2  0  0  0
 35 45  1  0  0  0
 35 68  1  0  0  0
 36 56  1  0  0  0
 36109  1  0  0  0
 37 39  1  0  0  0
 37 47  1  0  0  0
 37 66  1  0  0  0
 37110  1  0  0  0
 38 43  2  0  0  0
 38 46  1  0  0  0
 38 47  1  0  0  0
 39 64  1  0  0  0
 39 67  2  0  0  0
 40 52  1  0  0  0
 40 53  2  0  0  0
 40 58  1  0  0  0
 41111  1  0  0  0
 41112  1  0  0  0
 41113  1  0  0  0
 41 48  1  0  0  0
 42 43  1  0  0  0
 42 66  1  0  0  0
 42114  1  0  0  0
 42115  1  0  0  0
 43 44  1  0  0  0
 44116  1  0  0  0
 45 46  2  0  0  0
 45117  1  0  0  0
 46118  1  0  0  0
 47119  1  0  0  0
 47120  1  0  0  0
 48 56  1  0  0  0
 48 65  1  0  0  0
 48121  1  0  0  0
 49 50  1  0  0  0
 49 53  1  0  0  0
 49 64  1  0  0  0
 49122  1  0  0  0
 50 51  1  0  0  0
 50123  1  0  0  0
 50124  1  0  0  0
 51 52  1  0  0  0
 51125  1  0  0  0
 51126  1  0  0  0
 52127  1  0  0  0
 52128  1  0  0  0
 53 54  1  0  0  0
 54 55  2  0  0  0
 54129  1  0  0  0
 55 57  1  0  0  0
 55130  1  0  0  0
 56 69  2  0  0  0
 57 58  2  0  0  0
 57131  1  0  0  0
 58132  1  0  0  0
 59 60  1  0  0  0
 59 61  1  0  0  0
 59 62  1  0  0  0
 60133  1  0  0  0
 60134  1  0  0  0
 60135  1  0  0  0
 61136  1  0  0  0
 61137  1  0  0  0
 61138  1  0  0  0
 62139  1  0  0  0
 62140  1  0  0  0
 62141  1  0  0  0
 63 65  1  0  0  0
 63142  1  0  0  0
 63143  1  0  0  0
 63144  1  0  0  0
 64145  1  0  0  0
 65146  1  0  0  0
 68 82  1  0  0  0
 71 72  2  0  0  0
 71 74  1  0  0  0
 71147  1  0  0  0
 72 73  1  0  0  0
 72 77  1  0  0  0
 73 75  2  0  0  0
 73 80  1  0  0  0
 74 76  2  0  0  0
 74 85  1  0  0  0
 75 76  1  0  0  0
 75 86  1  0  0  0
 76 87  1  0  0  0
 77 84  2  0  0  0
 78 80  1  0  0  0
 78148  1  0  0  0
 78149  1  0  0  0
 78150  1  0  0  0
 79 86  1  0  0  0
 79151  1  0  0  0
 79152  1  0  0  0
 79153  1  0  0  0
 80154  1  0  0  0
 80155  1  0  0  0
 81 82  1  0  0  0
 81 83  1  0  0  0
 81156  1  0  0  0
 81157  1  0  0  0
 82158  1  0  0  0
 82159  1  0  0  0
 83 87  1  0  0  0
 83160  1  0  0  0
 83161  1  0  0  0
 84162  1  0  0  0
 85163  1  0  0  0
 85164  1  0  0  0
M  ISO  4   1 100  68 101  77 100  82 101
M  END
> <chiral flag>
0

> <version>
0

> <s_m_source_file>
/data/baiqing/PycharmProjects/Reinvent-master-3.2/result/LINK_invent/BTK/process_docking_weight1_custom_product_contain_oxygen_bond_distance_aromatic_linkinvent_7_9_3/rearranged_h_0111.sdf

> <i_m_source_file_index>
75

> <r_mmod_Potential_Energy-OPLS-2005>
244.382583618164

> <r_mmod_Stretch_Energy-OPLS-2005>
96.4580459594727

> <r_mmod_Bend_Energy-OPLS-2005>
160.897308349609

> <r_mmod_Torsional_Energy-OPLS-2005>
258.758239746094

> <r_mmod_Improper_Torsional_Energy-OPLS-2005>
6.7743821144104

> <r_mmod_Van_der_Waal_Energy-OPLS-2005>
153.106216430664

> <r_mmod_Electrostatic_Energy-OPLS-2005>
-263.0068359375

> <r_mmod_Solvation_Energy-OPLS-2005>
-204.975463867188

> <b_mmod_Minimization_Converged-OPLS-2005>
0

> <r_mmod_RMS_Derivative-OPLS-2005>
2.98695397377014

$$$$
77
                    3D
 Structure written by MMmdl.
158166  0  0  1  0            999 V2000
  -30.6420  -14.7249   20.5035 C   0  0  0  0  0  0
  -30.4356  -12.4534   19.4546 C   0  0  0  0  0  0
  -29.5076  -12.5169   18.2214 C   0  0  0  0  0  0
  -28.0313  -12.3469   18.6297 C   0  0  0  0  0  0
  -27.6477  -13.2176   19.8560 C   0  0  2  0  0  0
  -28.6963  -13.0961   20.9787 C   0  0  0  0  0  0
  -25.2544  -13.8160   20.5688 C   0  0  0  0  0  0
  -24.1810  -13.0416   20.9178 C   0  0  0  0  0  0
  -24.6391  -11.6894   20.8712 C   0  0  0  0  0  0
  -23.9060  -10.4283   21.0366 C   0  0  0  0  0  0
  -24.3621   -9.4214   21.9137 C   0  0  0  0  0  0
  -23.6299   -8.2253   22.0729 C   0  0  0  0  0  0
  -22.4262   -8.0289   21.3542 C   0  0  0  0  0  0
  -21.9875   -9.0262   20.4650 C   0  0  0  0  0  0
  -22.7208  -10.2139   20.3044 C   0  0  0  0  0  0
  -21.6850   -6.0728   22.5279 C   0  0  0  0  0  0
  -21.4002   -6.5632   23.8210 C   0  0  0  0  0  0
  -21.3657   -5.6784   24.9170 C   0  0  0  0  0  0
  -21.6055   -4.3054   24.7225 C   0  0  0  0  0  0
  -21.8822   -3.8136   23.4349 C   0  0  0  0  0  0
  -21.9187   -4.6952   22.3399 C   0  0  0  0  0  0
  -22.7832  -13.5209   21.1855 C   0  0  0  0  0  0
  -22.1662   -4.2137   21.0970 F   0  0  0  0  0  0
  -21.5643   -3.4530   25.7730 F   0  0  0  0  0  0
  -30.0006  -13.4968   20.4167 N   0  0  0  0  0  0
  -26.2975  -12.9337   20.3316 N   0  0  0  0  0  0
  -25.9323  -11.6489   20.5751 N   0  0  0  0  0  0
  -22.0473  -12.8229   22.0467 N   0  0  0  0  0  0
  -25.4243  -15.1884   20.4164 N   0  0  0  0  0  0
  -31.7690  -14.8508   20.0160 O   0  0  0  0  0  0
  -21.6642   -6.8871   21.4235 O   0  0  0  0  0  0
  -22.3507  -14.5481   20.6662 O   0  0  0  0  0  0
  -24.6319  -31.8545   23.1986 C   0  0  0  0  0  0
  -25.9142  -32.4747   23.8328 C   0  0  1  0  0  0
  -27.2310  -27.2777   20.1148 C   0  0  0  0  0  0
  -25.5938  -33.8552   24.2254 N   0  0  0  0  0  0
  -23.4303  -30.4766   21.5405 C   0  0  2  0  0  0
  -24.8822  -28.9261   20.1062 C   0  0  0  0  0  0
  -22.7503  -29.4603   22.4907 C   0  0  0  0  0  0
  -18.0296  -28.1391   22.8481 C   0  0  0  0  0  0
  -24.1482  -36.7279   23.2640 C   0  0  0  0  0  0
  -25.9765  -30.7701   21.3785 C   0  0  0  0  0  0
  -26.0537  -29.3951   20.7164 C   0  0  0  0  0  0
  -27.2355  -28.5838   20.7105 C   0  0  0  0  0  0
  -26.0388  -26.8752   19.4770 C   0  0  0  0  0  0
  -24.8788  -27.6735   19.4737 C   0  0  0  0  0  0
  -23.6498  -29.8092   20.1564 C   0  0  0  0  0  0
  -25.4110  -36.3065   24.0324 C   0  0  1  0  0  0
  -20.5901  -28.3701   23.1264 C   0  0  2  0  0  0
  -20.6782  -26.9417   22.5406 C   0  0  0  0  0  0
  -19.5756  -26.6380   21.5209 C   0  0  0  0  0  0
  -18.1936  -26.7931   22.1626 C   0  0  0  0  0  0
  -19.1551  -28.8864   23.2863 C   0  0  0  0  0  0
  -18.9476  -30.1465   23.8876 C   0  0  0  0  0  0
  -17.6475  -30.6587   24.0564 C   0  0  0  0  0  0
  -25.9054  -34.9438   23.5087 C   0  0  0  0  0  0
  -16.5365  -29.9075   23.6341 C   0  0  0  0  0  0
  -16.7282  -28.6498   23.0350 C   0  0  0  0  0  0
  -26.4510  -31.6573   25.0725 C   0  0  0  0  0  0
  -25.3733  -31.3733   26.1451 C   0  0  0  0  0  0
  -27.0361  -30.2982   24.6235 C   0  0  0  0  0  0
  -27.6061  -32.4323   25.7502 C   0  0  0  0  0  0
  -27.5571  -37.1795   24.8465 C   0  0  0  0  0  0
  -21.4213  -29.3042   22.3647 N   0  0  0  0  0  0
  -26.4286  -37.3770   23.9412 N   0  0  0  0  0  0
  -24.6986  -31.0515   22.0954 N   0  0  0  0  0  0
  -23.4198  -28.8151   23.3019 O   0  0  0  0  0  0
  -28.2784  -26.3294   20.1613 O   0  0  0  0  0  0
  -26.5629  -34.8904   22.4658 O   0  0  0  0  0  0
  -23.5471  -32.1371   23.7271 O   0  0  0  0  0  0
  -28.7950  -19.0715   19.2866 C   0  0  0  0  0  0
  -30.5371  -18.3227   21.2769 C   0  0  0  0  0  0
  -29.0906  -17.6803   19.4896 C   0  0  0  0  0  0
  -29.9192  -17.2399   20.5677 C   0  0  0  0  0  0
  -30.2759  -19.7189   21.0387 C   0  0  0  0  0  0
  -29.3253  -20.1462   20.0593 C   0  0  0  0  0  0
  -28.9073  -16.4730   23.1790 C   0  0  0  0  0  0
  -28.3584  -23.7893   20.8278 C   0  0  0  0  0  0
  -29.7340  -15.6927   22.4585 C   0  0  0  0  0  0
  -27.9649  -25.1265   20.8486 C   0  0  0  0  0  0
  -28.4457  -16.6929   18.5359 C   0  0  0  0  0  0
  -29.3379  -22.8116   20.0704 C   0  0  0  0  0  0
  -30.9574  -20.6397   21.8313 N   0  0  0  0  0  0
  -29.9995  -15.8256   21.0788 N   0  0  0  0  0  0
  -28.7854  -21.4504   19.8106 O   0  0  0  0  0  0
  -31.4742  -12.5752   19.1466 H   0  0  0  0  0  0
  -30.3868  -11.4659   19.9154 H   0  0  0  0  0  0
  -29.7819  -11.7467   17.5010 H   0  0  0  0  0  0
  -29.6433  -13.4702   17.7111 H   0  0  0  0  0  0
  -27.8736  -11.2930   18.8633 H   0  0  0  0  0  0
  -27.3789  -12.5689   17.7838 H   0  0  0  0  0  0
  -27.6545  -14.2510   19.5225 H   0  0  0  0  0  0
  -28.7402  -12.0684   21.3434 H   0  0  0  0  0  0
  -28.3909  -13.6893   21.8358 H   0  0  0  0  0  0
  -25.2765   -9.5703   22.4698 H   0  0  0  0  0  0
  -24.0045   -7.4649   22.7431 H   0  0  0  0  0  0
  -21.0794   -8.8770   19.8966 H   0  0  0  0  0  0
  -22.3648  -10.9692   19.6178 H   0  0  0  0  0  0
  -21.1975   -7.6132   23.9713 H   0  0  0  0  0  0
  -21.1489   -6.0510   25.9080 H   0  0  0  0  0  0
  -22.0597   -2.7595   23.2860 H   0  0  0  0  0  0
  -22.4089  -11.9942   22.4946 H   0  0  0  0  0  0
  -21.1073  -13.1261   22.2615 H   0  0  0  0  0  0
  -24.6688  -15.8506   20.5591 H   0  0  0  0  0  0
  -26.2986  -15.6318   20.1669 H   0  0  0  0  0  0
  -26.7217  -32.5401   23.1076 H   0  0  0  0  0  0
  -25.0078  -33.9688   25.0395 H   0  0  0  0  0  0
  -22.7265  -31.2991   21.3922 H   0  0  0  0  0  0
  -23.3742  -35.9613   23.3302 H   0  0  0  0  0  0
  -24.3581  -36.8899   22.2056 H   0  0  0  0  0  0
  -23.7224  -37.6472   23.6669 H   0  0  0  0  0  0
  -26.1181  -31.5344   20.6131 H   0  0  0  0  0  0
  -26.8527  -30.8174   22.0144 H   0  0  0  0  0  0
  -28.1332  -28.9347   21.1999 H   0  0  0  0  0  0
  -25.9992  -25.9052   18.9999 H   0  0  0  0  0  0
  -23.9848  -27.3097   18.9870 H   0  0  0  0  0  0
  -23.7666  -30.5861   19.3993 H   0  0  0  0  0  0
  -22.7693  -29.2386   19.8549 H   0  0  0  0  0  0
  -25.1289  -36.1912   25.0817 H   0  0  0  0  0  0
  -21.0009  -28.3280   24.1380 H   0  0  0  0  0  0
  -20.5665  -26.2317   23.3613 H   0  0  0  0  0  0
  -21.6647  -26.7415   22.1212 H   0  0  0  0  0  0
  -19.6907  -25.6282   21.1244 H   0  0  0  0  0  0
  -19.6688  -27.3190   20.6737 H   0  0  0  0  0  0
  -17.4203  -26.6681   21.4027 H   0  0  0  0  0  0
  -18.0334  -26.0068   22.9023 H   0  0  0  0  0  0
  -19.7953  -30.7291   24.2222 H   0  0  0  0  0  0
  -17.5030  -31.6266   24.5174 H   0  0  0  0  0  0
  -15.5363  -30.2975   23.7677 H   0  0  0  0  0  0
  -15.8687  -28.0816   22.7066 H   0  0  0  0  0  0
  -24.5915  -30.7070   25.7787 H   0  0  0  0  0  0
  -24.8921  -32.2905   26.4856 H   0  0  0  0  0  0
  -25.8062  -30.8930   27.0232 H   0  0  0  0  0  0
  -26.2959  -29.6725   24.1248 H   0  0  0  0  0  0
  -27.4004  -29.7262   25.4771 H   0  0  0  0  0  0
  -27.8845  -30.4230   23.9511 H   0  0  0  0  0  0
  -27.2663  -33.3633   26.2051 H   0  0  0  0  0  0
  -28.3895  -32.6866   25.0351 H   0  0  0  0  0  0
  -28.0702  -31.8463   26.5442 H   0  0  0  0  0  0
  -28.2591  -38.0091   24.7516 H   0  0  0  0  0  0
  -28.1063  -36.2624   24.6287 H   0  0  0  0  0  0
  -27.2299  -37.1440   25.8869 H   0  0  0  0  0  0
  -20.9402  -29.8770   21.6856 H   0  0  0  0  0  0
  -26.0152  -38.2833   24.1431 H   0  0  0  0  0  0
  -28.0961  -19.3263   18.5018 H   0  0  0  0  0  0
  -31.2084  -18.0639   22.0825 H   0  0  0  0  0  0
  -28.3451  -17.2814   22.7355 H   0  0  0  0  0  0
  -28.7749  -16.3065   24.2381 H   0  0  0  0  0  0
  -27.8490  -23.2176   21.5894 H   0  0  0  0  0  0
  -30.2717  -14.8851   22.9418 H   0  0  0  0  0  0
  -27.2176  -25.3595   21.5983 H   0  0  0  0  0  0
  -28.4039  -17.1078   17.5276 H   0  0  0  0  0  0
  -27.4248  -16.4760   18.8429 H   0  0  0  0  0  0
  -29.0108  -15.7671   18.4666 H   0  0  0  0  0  0
  -30.2696  -22.7636   20.6239 H   0  0  0  0  0  0
  -29.5860  -23.2612   19.1088 H   0  0  0  0  0  0
  -31.8226  -20.3167   22.2536 H   0  0  0  0  0  0
  -31.0606  -21.5738   21.4533 H   0  0  0  0  0  0
  1 25  1  0  0  0
  1 30  2  0  0  0
  1 84  1  0  0  0
  2  3  1  0  0  0
  2 25  1  0  0  0
  2 86  1  0  0  0
  2 87  1  0  0  0
  3  4  1  0  0  0
  3 88  1  0  0  0
  3 89  1  0  0  0
  4  5  1  0  0  0
  4 90  1  0  0  0
  4 91  1  0  0  0
  5  6  1  0  0  0
  5 26  1  0  0  0
  5 92  1  0  0  0
  6 25  1  0  0  0
  6 93  1  0  0  0
  6 94  1  0  0  0
  7  8  2  0  0  0
  7 26  1  0  0  0
  7 29  1  0  0  0
  8  9  1  0  0  0
  8 22  1  0  0  0
  9 10  1  0  0  0
  9 27  2  0  0  0
 10 11  2  0  0  0
 10 15  1  0  0  0
 11 12  1  0  0  0
 11 95  1  0  0  0
 12 13  2  0  0  0
 12 96  1  0  0  0
 13 14  1  0  0  0
 13 31  1  0  0  0
 14 15  2  0  0  0
 14 97  1  0  0  0
 15 98  1  0  0  0
 16 17  2  0  0  0
 16 21  1  0  0  0
 16 31  1  0  0  0
 17 18  1  0  0  0
 17 99  1  0  0  0
 18 19  2  0  0  0
 18100  1  0  0  0
 19 20  1  0  0  0
 19 24  1  0  0  0
 20 21  2  0  0  0
 20101  1  0  0  0
 21 23  1  0  0  0
 22 28  1  0  0  0
 22 32  2  0  0  0
 26 27  1  0  0  0
 28102  1  0  0  0
 28103  1  0  0  0
 29104  1  0  0  0
 29105  1  0  0  0
 33 34  1  0  0  0
 33 66  1  0  0  0
 33 70  2  0  0  0
 34 36  1  0  0  0
 34 59  1  0  0  0
 34106  1  0  0  0
 35 44  2  0  0  0
 35 45  1  0  0  0
 35 68  1  0  0  0
 36 56  1  0  0  0
 36107  1  0  0  0
 37 39  1  0  0  0
 37 47  1  0  0  0
 37 66  1  0  0  0
 37108  1  0  0  0
 38 43  2  0  0  0
 38 46  1  0  0  0
 38 47  1  0  0  0
 39 64  1  0  0  0
 39 67  2  0  0  0
 40 52  1  0  0  0
 40 53  2  0  0  0
 40 58  1  0  0  0
 41109  1  0  0  0
 41110  1  0  0  0
 41111  1  0  0  0
 41 48  1  0  0  0
 42 43  1  0  0  0
 42 66  1  0  0  0
 42112  1  0  0  0
 42113  1  0  0  0
 43 44  1  0  0  0
 44114  1  0  0  0
 45 46  2  0  0  0
 45115  1  0  0  0
 46116  1  0  0  0
 47117  1  0  0  0
 47118  1  0  0  0
 48 56  1  0  0  0
 48 65  1  0  0  0
 48119  1  0  0  0
 49 50  1  0  0  0
 49 53  1  0  0  0
 49 64  1  0  0  0
 49120  1  0  0  0
 50 51  1  0  0  0
 50121  1  0  0  0
 50122  1  0  0  0
 51 52  1  0  0  0
 51123  1  0  0  0
 51124  1  0  0  0
 52125  1  0  0  0
 52126  1  0  0  0
 53 54  1  0  0  0
 54 55  2  0  0  0
 54127  1  0  0  0
 55 57  1  0  0  0
 55128  1  0  0  0
 56 69  2  0  0  0
 57 58  2  0  0  0
 57129  1  0  0  0
 58130  1  0  0  0
 59 60  1  0  0  0
 59 61  1  0  0  0
 59 62  1  0  0  0
 60131  1  0  0  0
 60132  1  0  0  0
 60133  1  0  0  0
 61134  1  0  0  0
 61135  1  0  0  0
 61136  1  0  0  0
 62137  1  0  0  0
 62138  1  0  0  0
 62139  1  0  0  0
 63 65  1  0  0  0
 63140  1  0  0  0
 63141  1  0  0  0
 63142  1  0  0  0
 64143  1  0  0  0
 65144  1  0  0  0
 68 80  1  0  0  0
 71 73  2  0  0  0
 71 76  1  0  0  0
 71145  1  0  0  0
 72 74  2  0  0  0
 72 75  1  0  0  0
 72146  1  0  0  0
 73 74  1  0  0  0
 73 81  1  0  0  0
 74 84  1  0  0  0
 75 76  2  0  0  0
 75 83  1  0  0  0
 76 85  1  0  0  0
 77 79  2  0  0  0
 77147  1  0  0  0
 77148  1  0  0  0
 78 80  2  0  0  0
 78 82  1  0  0  0
 78149  1  0  0  0
 79 84  1  0  0  0
 79150  1  0  0  0
 80151  1  0  0  0
 81152  1  0  0  0
 81153  1  0  0  0
 81154  1  0  0  0
 82 85  1  0  0  0
 82155  1  0  0  0
 82156  1  0  0  0
 83157  1  0  0  0
 83158  1  0  0  0
M  ISO  4   1 100  68 101  80 101  84 100
M  END
> <chiral flag>
0

> <version>
0

> <s_m_source_file>
/data/baiqing/PycharmProjects/Reinvent-master-3.2/result/LINK_invent/BTK/process_docking_weight1_custom_product_contain_oxygen_bond_distance_aromatic_linkinvent_7_9_3/rearranged_h_0111.sdf

> <i_m_source_file_index>
76

> <r_mmod_Potential_Energy-OPLS-2005>
418.746795654297

> <r_mmod_Stretch_Energy-OPLS-2005>
121.245414733887

> <r_mmod_Bend_Energy-OPLS-2005>
250.280319213867

> <r_mmod_Torsional_Energy-OPLS-2005>
333.52734375

> <r_mmod_Improper_Torsional_Energy-OPLS-2005>
8.55285263061523

> <r_mmod_Van_der_Waal_Energy-OPLS-2005>
146.84619140625

> <r_mmod_Electrostatic_Energy-OPLS-2005>
-317.731872558594

> <r_mmod_Solvation_Energy-OPLS-2005>
-202.004669189453

> <b_mmod_Minimization_Converged-OPLS-2005>
0

> <r_mmod_RMS_Derivative-OPLS-2005>
2.64326119422913

$$$$
78
                    3D
 Structure written by MMmdl.
165173  0  0  1  0            999 V2000
  -30.6671  -14.6720   20.2937 C   0  0  0  0  0  0
  -30.4200  -12.3716   19.4724 C   0  0  0  0  0  0
  -29.4954  -12.4320   18.2333 C   0  0  0  0  0  0
  -28.0210  -12.2726   18.6506 C   0  0  0  0  0  0
  -27.6222  -13.2017   19.8237 C   0  0  2  0  0  0
  -28.6837  -13.2098   20.9497 C   0  0  0  0  0  0
  -25.2490  -13.8107   20.5742 C   0  0  0  0  0  0
  -24.1762  -13.0389   20.9250 C   0  0  0  0  0  0
  -24.6328  -11.6863   20.8791 C   0  0  0  0  0  0
  -23.9011  -10.4261   21.0441 C   0  0  0  0  0  0
  -24.3578   -9.4181   21.9202 C   0  0  0  0  0  0
  -23.6266   -8.2212   22.0749 C   0  0  0  0  0  0
  -22.4249   -8.0255   21.3543 C   0  0  0  0  0  0
  -21.9882   -9.0225   20.4642 C   0  0  0  0  0  0
  -22.7199  -10.2112   20.3070 C   0  0  0  0  0  0
  -21.6842   -6.0724   22.5286 C   0  0  0  0  0  0
  -21.4011   -6.5633   23.8221 C   0  0  0  0  0  0
  -21.3647   -5.6788   24.9182 C   0  0  0  0  0  0
  -21.6030   -4.3049   24.7235 C   0  0  0  0  0  0
  -21.8814   -3.8143   23.4357 C   0  0  0  0  0  0
  -21.9193   -4.6956   22.3413 C   0  0  0  0  0  0
  -22.7795  -13.5207   21.1890 C   0  0  0  0  0  0
  -22.1656   -4.2143   21.0988 F   0  0  0  0  0  0
  -21.5628   -3.4528   25.7744 F   0  0  0  0  0  0
  -30.0210  -13.4618   20.3854 N   0  0  0  0  0  0
  -26.2853  -12.9233   20.3259 N   0  0  0  0  0  0
  -25.9243  -11.6421   20.5804 N   0  0  0  0  0  0
  -22.0435  -12.8200   22.0446 N   0  0  0  0  0  0
  -25.4155  -15.1831   20.4180 N   0  0  0  0  0  0
  -31.8978  -14.7182   20.2954 O   0  0  0  0  0  0
  -21.6617   -6.8852   21.4243 O   0  0  0  0  0  0
  -22.3502  -14.5515   20.6729 O   0  0  0  0  0  0
  -24.6211  -31.8646   23.2067 C   0  0  0  0  0  0
  -25.9077  -32.4806   23.8406 C   0  0  1  0  0  0
  -27.2364  -27.3446   20.1205 C   0  0  0  0  0  0
  -25.5913  -33.8612   24.2322 N   0  0  0  0  0  0
  -23.4167  -30.4868   21.5468 C   0  0  2  0  0  0
  -24.8680  -28.9452   20.1131 C   0  0  0  0  0  0
  -22.7458  -29.4654   22.4950 C   0  0  0  0  0  0
  -18.0292  -28.1390   22.8476 C   0  0  0  0  0  0
  -24.1489  -36.7304   23.2643 C   0  0  0  0  0  0
  -25.9551  -30.8013   21.3793 C   0  0  0  0  0  0
  -26.0319  -29.4306   20.7202 C   0  0  0  0  0  0
  -27.2164  -28.6400   20.7195 C   0  0  0  0  0  0
  -26.0520  -26.9138   19.4773 C   0  0  0  0  0  0
  -24.8773  -27.6900   19.4866 C   0  0  0  0  0  0
  -23.6329  -29.8196   20.1623 C   0  0  0  0  0  0
  -25.4121  -36.3108   24.0331 C   0  0  1  0  0  0
  -20.5881  -28.3703   23.1279 C   0  0  2  0  0  0
  -20.6784  -26.9431   22.5410 C   0  0  0  0  0  0
  -19.5769  -26.6390   21.5203 C   0  0  0  0  0  0
  -18.1941  -26.7935   22.1599 C   0  0  0  0  0  0
  -19.1536  -28.8866   23.2872 C   0  0  0  0  0  0
  -18.9463  -30.1460   23.8904 C   0  0  0  0  0  0
  -17.6470  -30.6601   24.0565 C   0  0  0  0  0  0
  -25.9045  -34.9470   23.5123 C   0  0  0  0  0  0
  -16.5363  -29.9102   23.6332 C   0  0  0  0  0  0
  -16.7277  -28.6512   23.0357 C   0  0  0  0  0  0
  -26.4470  -31.6615   25.0765 C   0  0  0  0  0  0
  -25.3726  -31.3749   26.1522 C   0  0  0  0  0  0
  -27.0294  -30.3033   24.6222 C   0  0  0  0  0  0
  -27.6069  -32.4338   25.7496 C   0  0  0  0  0  0
  -27.5585  -37.1821   24.8472 C   0  0  0  0  0  0
  -21.4176  -29.3052   22.3669 N   0  0  0  0  0  0
  -26.4307  -37.3793   23.9391 N   0  0  0  0  0  0
  -24.6820  -31.0676   22.1008 N   0  0  0  0  0  0
  -23.4182  -28.8208   23.3037 O   0  0  0  0  0  0
  -28.3699  -26.5221   20.1923 O   0  0  0  0  0  0
  -26.5612  -34.8922   22.4686 O   0  0  0  0  0  0
  -23.5373  -32.1446   23.7396 O   0  0  0  0  0  0
  -31.0437  -18.0470   20.5275 C   0  0  0  0  0  0
  -29.9177  -17.3043   20.0816 C   0  0  0  0  0  0
  -29.8185  -20.2234   20.6193 C   0  0  0  0  0  0
  -28.7223  -18.0827   19.9504 C   0  0  0  0  0  0
  -28.6565  -19.4850   20.2603 C   0  0  0  0  0  0
  -31.0031  -19.4504   20.7710 C   0  0  0  0  0  0
  -24.9973  -17.1229   17.1455 C   0  0  0  0  0  0
  -26.2625  -16.8930   17.5293 C   0  0  0  0  0  0
  -29.1621  -22.5800   20.3587 C   0  0  0  0  0  0
  -29.1944  -24.1162   20.6634 C   0  0  0  0  0  0
  -26.5354  -19.6960   21.2258 C   0  0  0  0  0  0
  -27.1619  -17.9209   18.1814 C   0  0  0  0  0  0
  -28.2283  -25.0815   19.8864 C   0  0  0  0  0  0
  -29.9753  -15.8651   19.5004 C   0  0  1  0  0  0
  -29.8618  -21.6336   20.9199 N   0  0  0  0  0  0
  -30.6719  -15.9736   18.2081 N   0  3  0  0  0  0
  -29.9544  -24.5850   21.5221 O   0  0  0  0  0  0
  -27.4504  -20.1403   20.2310 O   0  0  0  0  0  0
  -27.6083  -17.4470   19.4513 O   0  0  0  0  0  0
  -32.1488  -20.0707   21.1441 F   0  0  0  0  0  0
  -31.4655  -12.4499   19.1672 H   0  0  0  0  0  0
  -30.3251  -11.4070   19.9757 H   0  0  0  0  0  0
  -29.7639  -11.6425   17.5299 H   0  0  0  0  0  0
  -29.6265  -13.3683   17.6935 H   0  0  0  0  0  0
  -27.8782  -11.2305   18.9428 H   0  0  0  0  0  0
  -27.3631  -12.4341   17.7953 H   0  0  0  0  0  0
  -27.5399  -14.1842   19.3824 H   0  0  0  0  0  0
  -28.6832  -12.2555   21.4786 H   0  0  0  0  0  0
  -28.4349  -13.9712   21.6907 H   0  0  0  0  0  0
  -25.2714   -9.5665   22.4790 H   0  0  0  0  0  0
  -23.9969   -7.4604   22.7463 H   0  0  0  0  0  0
  -21.0817   -8.8757   19.8946 H   0  0  0  0  0  0
  -22.3655  -10.9667   19.6198 H   0  0  0  0  0  0
  -21.2002   -7.6139   23.9728 H   0  0  0  0  0  0
  -21.1470   -6.0515   25.9088 H   0  0  0  0  0  0
  -22.0602   -2.7604   23.2867 H   0  0  0  0  0  0
  -22.4044  -11.9868   22.4850 H   0  0  0  0  0  0
  -21.1054  -13.1242   22.2665 H   0  0  0  0  0  0
  -24.6226  -15.8100   20.4893 H   0  0  0  0  0  0
  -26.2427  -15.6475   20.0651 H   0  0  0  0  0  0
  -26.7157  -32.5491   23.1170 H   0  0  0  0  0  0
  -25.0072  -33.9779   25.0471 H   0  0  0  0  0  0
  -22.7082  -31.3046   21.4012 H   0  0  0  0  0  0
  -23.3769  -35.9619   23.3293 H   0  0  0  0  0  0
  -24.3579  -36.8946   22.2062 H   0  0  0  0  0  0
  -23.7219  -37.6487   23.6680 H   0  0  0  0  0  0
  -26.0890  -31.5711   20.6184 H   0  0  0  0  0  0
  -26.8323  -30.8478   22.0122 H   0  0  0  0  0  0
  -28.1066  -29.0057   21.2122 H   0  0  0  0  0  0
  -26.0008  -25.9659   18.9641 H   0  0  0  0  0  0
  -23.9853  -27.3112   19.0078 H   0  0  0  0  0  0
  -23.7491  -30.5954   19.4047 H   0  0  0  0  0  0
  -22.7551  -29.2452   19.8624 H   0  0  0  0  0  0
  -25.1301  -36.1983   25.0828 H   0  0  0  0  0  0
  -20.9963  -28.3293   24.1402 H   0  0  0  0  0  0
  -20.5691  -26.2322   23.3607 H   0  0  0  0  0  0
  -21.6658  -26.7479   22.1210 H   0  0  0  0  0  0
  -19.6943  -25.6295   21.1254 H   0  0  0  0  0  0
  -19.6718  -27.3177   20.6712 H   0  0  0  0  0  0
  -17.4218  -26.6686   21.3991 H   0  0  0  0  0  0
  -18.0339  -26.0075   22.8988 H   0  0  0  0  0  0
  -19.7943  -30.7257   24.2283 H   0  0  0  0  0  0
  -17.5038  -31.6280   24.5166 H   0  0  0  0  0  0
  -15.5363  -30.3012   23.7664 H   0  0  0  0  0  0
  -15.8666  -28.0837   22.7081 H   0  0  0  0  0  0
  -24.5824  -30.7197   25.7834 H   0  0  0  0  0  0
  -24.9010  -32.2918   26.5068 H   0  0  0  0  0  0
  -25.8050  -30.8806   27.0228 H   0  0  0  0  0  0
  -26.2856  -29.6790   24.1258 H   0  0  0  0  0  0
  -27.3982  -29.7294   25.4731 H   0  0  0  0  0  0
  -27.8745  -30.4299   23.9450 H   0  0  0  0  0  0
  -27.2747  -33.3682   26.2031 H   0  0  0  0  0  0
  -28.3881  -32.6826   25.0299 H   0  0  0  0  0  0
  -28.0736  -31.8488   26.5427 H   0  0  0  0  0  0
  -28.2637  -38.0083   24.7478 H   0  0  0  0  0  0
  -28.1042  -36.2610   24.6357 H   0  0  0  0  0  0
  -27.2293  -37.1564   25.8875 H   0  0  0  0  0  0
  -20.9361  -29.8758   21.6863 H   0  0  0  0  0  0
  -26.0198  -38.2878   24.1364 H   0  0  0  0  0  0
  -32.0005  -17.5531   20.6203 H   0  0  0  0  0  0
  -24.4056  -16.3437   16.6858 H   0  0  0  0  0  0
  -24.5307  -18.0887   17.2812 H   0  0  0  0  0  0
  -26.6872  -15.9115   17.3702 H   0  0  0  0  0  0
  -28.4628  -22.3098   19.5652 H   0  0  0  0  0  0
  -25.8686  -20.5157   21.4886 H   0  0  0  0  0  0
  -27.0414  -19.3810   22.1413 H   0  0  0  0  0  0
  -25.9231  -18.8675   20.8677 H   0  0  0  0  0  0
  -26.6279  -18.8658   18.2746 H   0  0  0  0  0  0
  -28.0070  -18.0954   17.5132 H   0  0  0  0  0  0
  -27.2221  -24.7383   20.1209 H   0  0  0  0  0  0
  -28.3851  -24.9366   18.8186 H   0  0  0  0  0  0
  -28.9758  -15.5539   19.2525 H   0  0  0  0  0  0
  -31.6540  -16.0775   18.3996 H   0  0  0  0  0  0
  -30.3442  -16.7557   17.6736 H   0  0  0  0  0  0
  -30.5576  -15.1334   17.6741 H   0  0  0  0  0  0
  1 25  1  0  0  0
  1 30  2  0  0  0
  1 84  1  0  0  0
  2  3  1  0  0  0
  2 25  1  0  0  0
  2 91  1  0  0  0
  2 92  1  0  0  0
  3  4  1  0  0  0
  3 93  1  0  0  0
  3 94  1  0  0  0
  4  5  1  0  0  0
  4 95  1  0  0  0
  4 96  1  0  0  0
  5  6  1  0  0  0
  5 26  1  0  0  0
  5 97  1  0  0  0
  6 25  1  0  0  0
  6 98  1  0  0  0
  6 99  1  0  0  0
  7  8  2  0  0  0
  7 26  1  0  0  0
  7 29  1  0  0  0
  8  9  1  0  0  0
  8 22  1  0  0  0
  9 10  1  0  0  0
  9 27  2  0  0  0
 10 11  2  0  0  0
 10 15  1  0  0  0
 11 12  1  0  0  0
 11100  1  0  0  0
 12 13  2  0  0  0
 12101  1  0  0  0
 13 14  1  0  0  0
 13 31  1  0  0  0
 14 15  2  0  0  0
 14102  1  0  0  0
 15103  1  0  0  0
 16 17  2  0  0  0
 16 21  1  0  0  0
 16 31  1  0  0  0
 17 18  1  0  0  0
 17104  1  0  0  0
 18 19  2  0  0  0
 18105  1  0  0  0
 19 20  1  0  0  0
 19 24  1  0  0  0
 20 21  2  0  0  0
 20106  1  0  0  0
 21 23  1  0  0  0
 22 28  1  0  0  0
 22 32  2  0  0  0
 26 27  1  0  0  0
 28107  1  0  0  0
 28108  1  0  0  0
 29109  1  0  0  0
 29110  1  0  0  0
 33 34  1  0  0  0
 33 66  1  0  0  0
 33 70  2  0  0  0
 34 36  1  0  0  0
 34 59  1  0  0  0
 34111  1  0  0  0
 35 44  2  0  0  0
 35 45  1  0  0  0
 35 68  1  0  0  0
 36 56  1  0  0  0
 36112  1  0  0  0
 37 39  1  0  0  0
 37 47  1  0  0  0
 37 66  1  0  0  0
 37113  1  0  0  0
 38 43  2  0  0  0
 38 46  1  0  0  0
 38 47  1  0  0  0
 39 64  1  0  0  0
 39 67  2  0  0  0
 40 52  1  0  0  0
 40 53  2  0  0  0
 40 58  1  0  0  0
 41114  1  0  0  0
 41115  1  0  0  0
 41116  1  0  0  0
 41 48  1  0  0  0
 42 43  1  0  0  0
 42 66  1  0  0  0
 42117  1  0  0  0
 42118  1  0  0  0
 43 44  1  0  0  0
 44119  1  0  0  0
 45 46  2  0  0  0
 45120  1  0  0  0
 46121  1  0  0  0
 47122  1  0  0  0
 47123  1  0  0  0
 48 56  1  0  0  0
 48 65  1  0  0  0
 48124  1  0  0  0
 49 50  1  0  0  0
 49 53  1  0  0  0
 49 64  1  0  0  0
 49125  1  0  0  0
 50 51  1  0  0  0
 50126  1  0  0  0
 50127  1  0  0  0
 51 52  1  0  0  0
 51128  1  0  0  0
 51129  1  0  0  0
 52130  1  0  0  0
 52131  1  0  0  0
 53 54  1  0  0  0
 54 55  2  0  0  0
 54132  1  0  0  0
 55 57  1  0  0  0
 55133  1  0  0  0
 56 69  2  0  0  0
 57 58  2  0  0  0
 57134  1  0  0  0
 58135  1  0  0  0
 59 60  1  0  0  0
 59 61  1  0  0  0
 59 62  1  0  0  0
 60136  1  0  0  0
 60137  1  0  0  0
 60138  1  0  0  0
 61139  1  0  0  0
 61140  1  0  0  0
 61141  1  0  0  0
 62142  1  0  0  0
 62143  1  0  0  0
 62144  1  0  0  0
 63 65  1  0  0  0
 63145  1  0  0  0
 63146  1  0  0  0
 63147  1  0  0  0
 64148  1  0  0  0
 65149  1  0  0  0
 68 83  1  0  0  0
 71 72  2  0  0  0
 71 76  1  0  0  0
 71150  1  0  0  0
 72 74  1  0  0  0
 72 84  1  0  0  0
 73 75  1  0  0  0
 73 76  2  0  0  0
 73 85  1  0  0  0
 74 75  2  0  0  0
 74 89  1  0  0  0
 75 88  1  0  0  0
 76 90  1  0  0  0
 77 78  2  0  0  0
 77151  1  0  0  0
 77152  1  0  0  0
 78 82  1  0  0  0
 78153  1  0  0  0
 79 80  1  0  0  0
 79 85  2  0  0  0
 79154  1  0  0  0
 80 83  1  0  0  0
 80 87  2  0  0  0
 81 88  1  0  0  0
 81155  1  0  0  0
 81156  1  0  0  0
 81157  1  0  0  0
 82 89  1  0  0  0
 82158  1  0  0  0
 82159  1  0  0  0
 83160  1  0  0  0
 83161  1  0  0  0
 84 86  1  0  0  0
 84162  1  0  0  0
 86163  1  0  0  0
 86164  1  0  0  0
 86165  1  0  0  0
M  CHG  1  86   1
M  ISO  4   1 100  68 101  83 101  84 100
M  END
> <chiral flag>
0

> <version>
0

> <s_m_source_file>
/data/baiqing/PycharmProjects/Reinvent-master-3.2/result/LINK_invent/BTK/process_docking_weight1_custom_product_contain_oxygen_bond_distance_aromatic_linkinvent_7_9_3/rearranged_h_0111.sdf

> <i_m_source_file_index>
77

> <r_mmod_Potential_Energy-OPLS-2005>
-26.9798316955566

> <r_mmod_Stretch_Energy-OPLS-2005>
86.1713485717773

> <r_mmod_Bend_Energy-OPLS-2005>
170.769546508789

> <r_mmod_Torsional_Energy-OPLS-2005>
293.898529052734

> <r_mmod_Improper_Torsional_Energy-OPLS-2005>
24.5209922790527

> <r_mmod_Van_der_Waal_Energy-OPLS-2005>
140.968566894531

> <r_mmod_Electrostatic_Energy-OPLS-2005>
-301.4267578125

> <r_mmod_Solvation_Energy-OPLS-2005>
-514.154296875

> <b_mmod_Minimization_Converged-OPLS-2005>
0

> <r_mmod_RMS_Derivative-OPLS-2005>
2.1478590965271

$$$$
79
                    3D
 Structure written by MMmdl.
170178  0  0  1  0            999 V2000
  -30.7224  -14.5022   20.7014 C   0  0  0  0  0  0
  -30.4445  -12.3698   19.4458 C   0  0  0  0  0  0
  -29.4970  -12.5079   18.2372 C   0  0  0  0  0  0
  -28.0375  -12.2843   18.6645 C   0  0  0  0  0  0
  -27.6597  -13.1835   19.8755 C   0  0  2  0  0  0
  -28.7028  -12.9775   20.9995 C   0  0  0  0  0  0
  -25.2585  -13.8139   20.5645 C   0  0  0  0  0  0
  -24.1800  -13.0446   20.9202 C   0  0  0  0  0  0
  -24.6369  -11.6922   20.8781 C   0  0  0  0  0  0
  -23.9040  -10.4286   21.0458 C   0  0  0  0  0  0
  -24.3638   -9.4195   21.9199 C   0  0  0  0  0  0
  -23.6344   -8.2219   22.0721 C   0  0  0  0  0  0
  -22.4324   -8.0287   21.3492 C   0  0  0  0  0  0
  -21.9953   -9.0245   20.4581 C   0  0  0  0  0  0
  -22.7266  -10.2123   20.3049 C   0  0  0  0  0  0
  -21.6829   -6.0780   22.5327 C   0  0  0  0  0  0
  -21.3961   -6.5666   23.8274 C   0  0  0  0  0  0
  -21.3672   -5.6791   24.9223 C   0  0  0  0  0  0
  -21.6093   -4.3063   24.7241 C   0  0  0  0  0  0
  -21.8807   -3.8176   23.4337 C   0  0  0  0  0  0
  -21.9172   -4.7010   22.3416 C   0  0  0  0  0  0
  -22.7836  -13.5259   21.1841 C   0  0  0  0  0  0
  -22.1640   -4.2211   21.0993 F   0  0  0  0  0  0
  -21.5649   -3.4554   25.7742 F   0  0  0  0  0  0
  -30.0274  -13.3446   20.4692 N   0  0  0  0  0  0
  -26.2991  -12.9221   20.3385 N   0  0  0  0  0  0
  -25.9285  -11.6403   20.5820 N   0  0  0  0  0  0
  -22.0455  -12.8224   22.0401 N   0  0  0  0  0  0
  -25.4257  -15.1858   20.3941 N   0  0  0  0  0  0
  -31.8206  -14.7124   20.1713 O   0  0  0  0  0  0
  -21.6621   -6.8928   21.4286 O   0  0  0  0  0  0
  -22.3504  -14.5556   20.6726 O   0  0  0  0  0  0
  -24.6132  -31.8683   23.2145 C   0  0  0  0  0  0
  -25.9025  -32.4819   23.8420 C   0  0  1  0  0  0
  -27.2068  -27.4095   20.1166 C   0  0  0  0  0  0
  -25.5921  -33.8641   24.2323 N   0  0  0  0  0  0
  -23.3965  -30.4971   21.5562 C   0  0  2  0  0  0
  -24.8415  -28.9676   20.1093 C   0  0  0  0  0  0
  -22.7399  -29.4654   22.4999 C   0  0  0  0  0  0
  -18.0241  -28.1387   22.8465 C   0  0  0  0  0  0
  -24.1460  -36.7315   23.2638 C   0  0  0  0  0  0
  -25.9323  -30.8289   21.3672 C   0  0  0  0  0  0
  -26.0022  -29.4714   20.7046 C   0  0  0  0  0  0
  -27.1892  -28.7006   20.7000 C   0  0  0  0  0  0
  -26.0335  -26.9408   19.4887 C   0  0  0  0  0  0
  -24.8525  -27.7064   19.4938 C   0  0  0  0  0  0
  -23.6051  -29.8350   20.1689 C   0  0  0  0  0  0
  -25.4073  -36.3120   24.0326 C   0  0  1  0  0  0
  -20.5842  -28.3657   23.1324 C   0  0  2  0  0  0
  -20.6716  -26.9390   22.5418 C   0  0  0  0  0  0
  -19.5709  -26.6375   21.5226 C   0  0  0  0  0  0
  -18.1893  -26.7931   22.1608 C   0  0  0  0  0  0
  -19.1505  -28.8833   23.2895 C   0  0  0  0  0  0
  -18.9421  -30.1446   23.8898 C   0  0  0  0  0  0
  -17.6424  -30.6595   24.0556 C   0  0  0  0  0  0
  -25.9016  -34.9491   23.5124 C   0  0  0  0  0  0
  -16.5312  -29.9076   23.6346 C   0  0  0  0  0  0
  -16.7226  -28.6500   23.0338 C   0  0  0  0  0  0
  -26.4465  -31.6592   25.0742 C   0  0  0  0  0  0
  -25.3750  -31.3655   26.1500 C   0  0  0  0  0  0
  -27.0323  -30.3042   24.6132 C   0  0  0  0  0  0
  -27.6067  -32.4333   25.7465 C   0  0  0  0  0  0
  -27.5545  -37.1786   24.8456 C   0  0  0  0  0  0
  -21.4120  -29.3026   22.3753 N   0  0  0  0  0  0
  -26.4257  -37.3799   23.9435 N   0  0  0  0  0  0
  -24.6663  -31.0782   22.1034 N   0  0  0  0  0  0
  -23.4167  -28.8182   23.3006 O   0  0  0  0  0  0
  -28.3484  -26.6285   20.1863 O   0  0  0  0  0  0
  -26.5590  -34.8929   22.4678 O   0  0  0  0  0  0
  -23.5341  -32.1403   23.7570 O   0  0  0  0  0  0
  -30.8071  -18.8173   23.0716 C   0  0  0  0  0  0
  -31.7860  -16.2140   23.1670 C   0  0  0  0  0  0
  -31.8945  -18.5234   23.8993 C   0  0  0  0  0  0
  -30.7539  -16.5184   22.2155 C   0  0  0  0  0  0
  -30.2908  -17.8848   22.1177 C   0  0  0  0  0  0
  -32.4538  -17.2393   23.8756 C   0  0  0  0  0  0
  -29.0350  -21.8348   19.7430 C   0  0  0  0  0  0
  -32.1797  -14.7976   23.5763 C   0  0  0  0  0  0
  -27.1588  -25.0215   21.7363 C   0  0  0  0  0  0
  -34.7509  -17.6745   24.2060 C   0  0  0  0  0  0
  -28.6196  -20.3352   19.7872 C   0  0  0  0  0  0
  -28.2518  -24.2252   19.4804 C   0  0  0  0  0  0
  -28.8022  -19.6515   21.1727 C   0  0  0  0  0  0
  -28.2459  -25.2549   20.6553 C   0  0  1  0  0  0
  -32.3916  -19.4715   24.8000 N   0  0  0  0  0  0
  -30.1193  -15.4476   21.4703 N   0  0  0  0  0  0
  -28.0949  -22.7989   19.8580 N   0  0  0  0  0  0
  -30.2180  -22.1129   19.5377 O   0  0  0  0  0  0
  -33.5814  -16.9522   24.6084 O   0  0  0  0  0  0
  -29.3463  -18.2903   21.1568 O   0  0  0  0  0  0
  -31.4763  -12.5170   19.1270 H   0  0  0  0  0  0
  -30.4011  -11.3587   19.8618 H   0  0  0  0  0  0
  -29.7787  -11.7970   17.4569 H   0  0  0  0  0  0
  -29.6077  -13.5112   17.8180 H   0  0  0  0  0  0
  -27.9385  -11.2284   18.9415 H   0  0  0  0  0  0
  -27.3614  -12.4370   17.8218 H   0  0  0  0  0  0
  -27.7045  -14.2247   19.5427 H   0  0  0  0  0  0
  -28.7078  -11.9229   21.2924 H   0  0  0  0  0  0
  -28.4558  -13.5263   21.9048 H   0  0  0  0  0  0
  -25.2792   -9.5678   22.4730 H   0  0  0  0  0  0
  -24.0105   -7.4592   22.7404 H   0  0  0  0  0  0
  -21.0913   -8.8778   19.8828 H   0  0  0  0  0  0
  -22.3809  -10.9673   19.6136 H   0  0  0  0  0  0
  -21.1889   -7.6167   23.9820 H   0  0  0  0  0  0
  -21.1517   -6.0478   25.9124 H   0  0  0  0  0  0
  -22.0553   -2.7656   23.2835 H   0  0  0  0  0  0
  -22.4123  -12.0052   22.5013 H   0  0  0  0  0  0
  -21.0989  -13.1111   22.2443 H   0  0  0  0  0  0
  -24.6606  -15.8404   20.5059 H   0  0  0  0  0  0
  -26.2762  -15.6340   20.0770 H   0  0  0  0  0  0
  -26.7084  -32.5499   23.1180 H   0  0  0  0  0  0
  -25.0105  -33.9842   25.0498 H   0  0  0  0  0  0
  -22.6811  -31.3129   21.4199 H   0  0  0  0  0  0
  -23.3736  -35.9639   23.3285 H   0  0  0  0  0  0
  -24.3533  -36.8954   22.2055 H   0  0  0  0  0  0
  -23.7200  -37.6498   23.6671 H   0  0  0  0  0  0
  -26.0528  -31.5997   20.6061 H   0  0  0  0  0  0
  -26.8179  -30.8779   21.9853 H   0  0  0  0  0  0
  -28.0797  -29.0807   21.1785 H   0  0  0  0  0  0
  -25.9989  -25.9751   19.0095 H   0  0  0  0  0  0
  -23.9582  -27.3140   19.0301 H   0  0  0  0  0  0
  -23.7134  -30.6141   19.4168 H   0  0  0  0  0  0
  -22.7257  -29.2621   19.8668 H   0  0  0  0  0  0
  -25.1242  -36.1969   25.0817 H   0  0  0  0  0  0
  -20.9873  -28.3200   24.1475 H   0  0  0  0  0  0
  -20.5649  -26.2248   23.3583 H   0  0  0  0  0  0
  -21.6586  -26.7460   22.1222 H   0  0  0  0  0  0
  -19.6897  -25.6322   21.1234 H   0  0  0  0  0  0
  -19.6685  -27.3174   20.6777 H   0  0  0  0  0  0
  -17.4163  -26.6656   21.4015 H   0  0  0  0  0  0
  -18.0298  -26.0087   22.9013 H   0  0  0  0  0  0
  -19.7910  -30.7265   24.2220 H   0  0  0  0  0  0
  -17.4998  -31.6283   24.5177 H   0  0  0  0  0  0
  -15.5340  -30.2970   23.7729 H   0  0  0  0  0  0
  -15.8600  -28.0864   22.7018 H   0  0  0  0  0  0
  -24.5950  -30.6971   25.7815 H   0  0  0  0  0  0
  -24.8920  -32.2787   26.4990 H   0  0  0  0  0  0
  -25.8142  -30.8795   27.0218 H   0  0  0  0  0  0
  -26.2871  -29.6741   24.1258 H   0  0  0  0  0  0
  -27.4146  -29.7343   25.4606 H   0  0  0  0  0  0
  -27.8669  -30.4338   23.9239 H   0  0  0  0  0  0
  -27.2700  -33.3642   26.2015 H   0  0  0  0  0  0
  -28.3840  -32.6854   25.0250 H   0  0  0  0  0  0
  -28.0733  -31.8463   26.5364 H   0  0  0  0  0  0
  -28.2555  -38.0094   24.7550 H   0  0  0  0  0  0
  -28.1045  -36.2638   24.6216 H   0  0  0  0  0  0
  -27.2275  -37.1340   25.8859 H   0  0  0  0  0  0
  -20.9242  -29.8767   21.7034 H   0  0  0  0  0  0
  -26.0129  -38.2860   24.1521 H   0  0  0  0  0  0
  -30.4112  -19.8041   23.2205 H   0  0  0  0  0  0
  -33.1990  -14.5807   23.2608 H   0  0  0  0  0  0
  -31.5116  -14.0088   23.2406 H   0  0  0  0  0  0
  -32.1497  -14.7457   24.6648 H   0  0  0  0  0  0
  -27.3324  -24.0843   22.2663 H   0  0  0  0  0  0
  -26.1587  -24.9543   21.3085 H   0  0  0  0  0  0
  -27.1501  -25.8222   22.4817 H   0  0  0  0  0  0
  -35.6262  -17.2790   24.7293 H   0  0  0  0  0  0
  -34.7146  -18.7369   24.4464 H   0  0  0  0  0  0
  -34.9287  -17.6014   23.1312 H   0  0  0  0  0  0
  -29.2718  -19.8201   19.0814 H   0  0  0  0  0  0
  -27.6127  -20.1925   19.3892 H   0  0  0  0  0  0
  -29.1625  -24.3856   18.8962 H   0  0  0  0  0  0
  -27.4332  -24.4376   18.7950 H   0  0  0  0  0  0
  -27.8479  -19.6284   21.6971 H   0  0  0  0  0  0
  -29.3883  -20.3762   21.7168 H   0  0  0  0  0  0
  -29.1820  -25.1035   21.1889 H   0  0  0  0  0  0
  -31.8695  -20.2961   25.0721 H   0  0  0  0  0  0
  -33.0133  -19.1278   25.5240 H   0  0  0  0  0  0
  -29.1382  -15.3034   21.6583 H   0  0  0  0  0  0
  -27.1496  -22.5022   20.0718 H   0  0  0  0  0  0
  1 25  1  0  0  0
  1 30  2  0  0  0
  1 86  1  0  0  0
  2  3  1  0  0  0
  2 25  1  0  0  0
  2 91  1  0  0  0
  2 92  1  0  0  0
  3  4  1  0  0  0
  3 93  1  0  0  0
  3 94  1  0  0  0
  4  5  1  0  0  0
  4 95  1  0  0  0
  4 96  1  0  0  0
  5  6  1  0  0  0
  5 26  1  0  0  0
  5 97  1  0  0  0
  6 25  1  0  0  0
  6 98  1  0  0  0
  6 99  1  0  0  0
  7  8  2  0  0  0
  7 26  1  0  0  0
  7 29  1  0  0  0
  8  9  1  0  0  0
  8 22  1  0  0  0
  9 10  1  0  0  0
  9 27  2  0  0  0
 10 11  2  0  0  0
 10 15  1  0  0  0
 11 12  1  0  0  0
 11100  1  0  0  0
 12 13  2  0  0  0
 12101  1  0  0  0
 13 14  1  0  0  0
 13 31  1  0  0  0
 14 15  2  0  0  0
 14102  1  0  0  0
 15103  1  0  0  0
 16 17  2  0  0  0
 16 21  1  0  0  0
 16 31  1  0  0  0
 17 18  1  0  0  0
 17104  1  0  0  0
 18 19  2  0  0  0
 18105  1  0  0  0
 19 20  1  0  0  0
 19 24  1  0  0  0
 20 21  2  0  0  0
 20106  1  0  0  0
 21 23  1  0  0  0
 22 28  1  0  0  0
 22 32  2  0  0  0
 26 27  1  0  0  0
 28107  1  0  0  0
 28108  1  0  0  0
 29109  1  0  0  0
 29110  1  0  0  0
 33 34  1  0  0  0
 33 66  1  0  0  0
 33 70  2  0  0  0
 34 36  1  0  0  0
 34 59  1  0  0  0
 34111  1  0  0  0
 35 44  2  0  0  0
 35 45  1  0  0  0
 35 68  1  0  0  0
 36 56  1  0  0  0
 36112  1  0  0  0
 37 39  1  0  0  0
 37 47  1  0  0  0
 37 66  1  0  0  0
 37113  1  0  0  0
 38 43  2  0  0  0
 38 46  1  0  0  0
 38 47  1  0  0  0
 39 64  1  0  0  0
 39 67  2  0  0  0
 40 52  1  0  0  0
 40 53  2  0  0  0
 40 58  1  0  0  0
 41114  1  0  0  0
 41115  1  0  0  0
 41116  1  0  0  0
 41 48  1  0  0  0
 42 43  1  0  0  0
 42 66  1  0  0  0
 42117  1  0  0  0
 42118  1  0  0  0
 43 44  1  0  0  0
 44119  1  0  0  0
 45 46  2  0  0  0
 45120  1  0  0  0
 46121  1  0  0  0
 47122  1  0  0  0
 47123  1  0  0  0
 48 56  1  0  0  0
 48 65  1  0  0  0
 48124  1  0  0  0
 49 50  1  0  0  0
 49 53  1  0  0  0
 49 64  1  0  0  0
 49125  1  0  0  0
 50 51  1  0  0  0
 50126  1  0  0  0
 50127  1  0  0  0
 51 52  1  0  0  0
 51128  1  0  0  0
 51129  1  0  0  0
 52130  1  0  0  0
 52131  1  0  0  0
 53 54  1  0  0  0
 54 55  2  0  0  0
 54132  1  0  0  0
 55 57  1  0  0  0
 55133  1  0  0  0
 56 69  2  0  0  0
 57 58  2  0  0  0
 57134  1  0  0  0
 58135  1  0  0  0
 59 60  1  0  0  0
 59 61  1  0  0  0
 59 62  1  0  0  0
 60136  1  0  0  0
 60137  1  0  0  0
 60138  1  0  0  0
 61139  1  0  0  0
 61140  1  0  0  0
 61141  1  0  0  0
 62142  1  0  0  0
 62143  1  0  0  0
 62144  1  0  0  0
 63 65  1  0  0  0
 63145  1  0  0  0
 63146  1  0  0  0
 63147  1  0  0  0
 64148  1  0  0  0
 65149  1  0  0  0
 68 84  1  0  0  0
 71 73  2  0  0  0
 71 75  1  0  0  0
 71150  1  0  0  0
 72 74  1  0  0  0
 72 76  2  0  0  0
 72 78  1  0  0  0
 73 76  1  0  0  0
 73 85  1  0  0  0
 74 75  2  0  0  0
 74 86  1  0  0  0
 75 90  1  0  0  0
 76 89  1  0  0  0
 77 81  1  0  0  0
 77 87  1  0  0  0
 77 88  2  0  0  0
 78151  1  0  0  0
 78152  1  0  0  0
 78153  1  0  0  0
 79154  1  0  0  0
 79155  1  0  0  0
 79156  1  0  0  0
 79 84  1  0  0  0
 80 89  1  0  0  0
 80157  1  0  0  0
 80158  1  0  0  0
 80159  1  0  0  0
 81 83  1  0  0  0
 81160  1  0  0  0
 81161  1  0  0  0
 82 84  1  0  0  0
 82 87  1  0  0  0
 82162  1  0  0  0
 82163  1  0  0  0
 83 90  1  0  0  0
 83164  1  0  0  0
 83165  1  0  0  0
 84166  1  0  0  0
 85167  1  0  0  0
 85168  1  0  0  0
 86169  1  0  0  0
 87170  1  0  0  0
M  ISO  4   1 100  68 101  84 101  86 100
M  END
> <chiral flag>
0

> <version>
0

> <s_m_source_file>
/data/baiqing/PycharmProjects/Reinvent-master-3.2/result/LINK_invent/BTK/process_docking_weight1_custom_product_contain_oxygen_bond_distance_aromatic_linkinvent_7_9_3/rearranged_h_0111.sdf

> <i_m_source_file_index>
78

> <r_mmod_Potential_Energy-OPLS-2005>
-58.9205169677734

> <r_mmod_Stretch_Energy-OPLS-2005>
64.3253173828125

> <r_mmod_Bend_Energy-OPLS-2005>
147.554504394531

> <r_mmod_Torsional_Energy-OPLS-2005>
301.637512207031

> <r_mmod_Improper_Torsional_Energy-OPLS-2005>
5.99793529510498

> <r_mmod_Van_der_Waal_Energy-OPLS-2005>
178.094482421875

> <r_mmod_Electrostatic_Energy-OPLS-2005>
-528.795654296875

> <r_mmod_Solvation_Energy-OPLS-2005>
-250.407867431641

> <b_mmod_Minimization_Converged-OPLS-2005>
0

> <r_mmod_RMS_Derivative-OPLS-2005>
8.89661598205566

$$$$
80
                    3D
 Structure written by MMmdl.
152160  0  0  1  0            999 V2000
  -30.6778  -14.5978   21.0878 C   0  0  0  0  0  0
  -31.2983  -13.8798   19.0766 C   0  0  0  0  0  0
  -28.6553  -14.1760   17.2622 C   0  0  0  0  0  0
  -27.3096  -13.4261   18.2689 C   0  0  0  0  0  0
  -27.5091  -13.1572   20.0298 C   0  0  2  0  0  0
  -29.0117  -12.7616   21.0165 C   0  0  0  0  0  0
  -25.1778  -13.7690   20.6443 C   0  0  0  0  0  0
  -24.1125  -12.9976   20.9589 C   0  0  0  0  0  0
  -24.5829  -11.6489   20.9142 C   0  0  0  0  0  0
  -23.8658  -10.3976   21.0575 C   0  0  0  0  0  0
  -24.3343   -9.3950   21.9298 C   0  0  0  0  0  0
  -23.6100   -8.1974   22.0763 C   0  0  0  0  0  0
  -22.4104   -8.0066   21.3516 C   0  0  0  0  0  0
  -21.9693   -9.0013   20.4618 C   0  0  0  0  0  0
  -22.6942  -10.1902   20.3097 C   0  0  0  0  0  0
  -21.6751   -6.0627   22.5292 C   0  0  0  0  0  0
  -21.3939   -6.5573   23.8212 C   0  0  0  0  0  0
  -21.3630   -5.6753   24.9191 C   0  0  0  0  0  0
  -21.6043   -4.3018   24.7262 C   0  0  0  0  0  0
  -21.8831   -3.8087   23.4392 C   0  0  0  0  0  0
  -21.9164   -4.6877   22.3433 C   0  0  0  0  0  0
  -22.7230  -13.4916   21.1967 C   0  0  0  0  0  0
  -22.1653   -4.2075   21.1010 F   0  0  0  0  0  0
  -21.5641   -3.4517   25.7782 F   0  0  0  0  0  0
  -30.6120  -13.3741   20.6436 N   0  0  0  0  0  0
  -26.2252  -12.8621   20.5055 N   0  0  0  0  0  0
  -25.8768  -11.5838   20.6543 N   0  0  0  0  0  0
  -21.9782  -12.8030   22.0507 N   0  0  0  0  0  0
  -25.3217  -15.1494   20.4502 N   0  0  0  0  0  0
  -31.7385  -15.2265   21.0852 O   0  0  0  0  0  0
  -21.6473   -6.8704   21.4229 O   0  0  0  0  0  0
  -22.3145  -14.5304   20.6767 O   0  0  0  0  0  0
  -24.6849  -31.8031   23.1539 C   0  0  0  0  0  0
  -25.9433  -32.4487   23.8075 C   0  0  1  0  0  0
  -27.2193  -26.7749   20.0534 C   0  0  0  0  0  0
  -25.6013  -33.8311   24.1964 N   0  0  0  0  0  0
  -23.5037  -30.4123   21.5139 C   0  0  2  0  0  0
  -24.9446  -28.7683   20.1062 C   0  0  0  0  0  0
  -22.7761  -29.4345   22.4752 C   0  0  0  0  0  0
  -18.0344  -28.1426   22.8466 C   0  0  0  0  0  0
  -24.1491  -36.7152   23.2646 C   0  0  0  0  0  0
  -26.0874  -30.5460   21.4060 C   0  0  0  0  0  0
  -26.1484  -29.1247   20.7266 C   0  0  0  0  0  0
  -27.2759  -28.1517   20.6733 C   0  0  0  0  0  0
  -25.9640  -26.6066   19.4311 C   0  0  0  0  0  0
  -24.8835  -27.5300   19.4501 C   0  0  0  0  0  0
  -23.7444  -29.7209   20.1458 C   0  0  0  0  0  0
  -25.4140  -36.2906   24.0284 C   0  0  1  0  0  0
  -20.5977  -28.3775   23.1163 C   0  0  2  0  0  0
  -20.6812  -26.9444   22.5399 C   0  0  0  0  0  0
  -19.5774  -26.6378   21.5223 C   0  0  0  0  0  0
  -18.1963  -26.7956   22.1636 C   0  0  0  0  0  0
  -19.1610  -28.8928   23.2793 C   0  0  0  0  0  0
  -18.9508  -30.1518   23.8828 C   0  0  0  0  0  0
  -17.6493  -30.6607   24.0554 C   0  0  0  0  0  0
  -25.9132  -34.9300   23.4959 C   0  0  0  0  0  0
  -16.5386  -29.9083   23.6354 C   0  0  0  0  0  0
  -16.7323  -28.6511   23.0367 C   0  0  0  0  0  0
  -26.4596  -31.6518   25.0696 C   0  0  0  0  0  0
  -25.3655  -31.3820   26.1303 C   0  0  0  0  0  0
  -27.0531  -30.2867   24.6579 C   0  0  0  0  0  0
  -27.6050  -32.4373   25.7515 C   0  0  0  0  0  0
  -27.5576  -37.1719   24.8455 C   0  0  0  0  0  0
  -21.4415  -29.3032   22.3501 N   0  0  0  0  0  0
  -26.4258  -37.3676   23.9435 N   0  0  0  0  0  0
  -24.7838  -30.9506   22.0772 N   0  0  0  0  0  0
  -23.4230  -28.7930   23.3061 O   0  0  0  0  0  0
  -28.1938  -25.5866   19.9637 O   0  0  0  0  0  0
  -26.5765  -34.8874   22.4572 O   0  0  0  0  0  0
  -23.5877  -32.1092   23.6521 O   0  0  0  0  0  0
  -29.5463  -12.6893   18.5892 C   0  0  0  0  0  0
  -30.4677  -12.6709   17.2220 C   0  0  0  0  0  0
  -30.6926  -15.5793   17.2725 C   0  0  0  0  0  0
  -29.8078  -16.0438   18.5160 C   0  0  0  0  0  0
  -29.2726  -14.7232   19.3157 C   0  0  0  0  0  0
  -31.0044  -14.1038   16.6690 C   0  0  0  0  0  0
  -29.3029  -17.7360   18.9808 C   0  0  0  0  0  0
  -28.9058  -22.4049   19.3726 C   0  0  0  0  0  0
  -28.5748  -20.5950   19.3982 C   0  0  0  0  0  0
  -27.8857  -23.8940   19.7387 C   0  0  0  0  0  0
  -29.4444  -19.1835   18.7923 N   0  0  0  0  0  0
  -29.5382  -15.1526   20.6713 N   0  0  0  0  0  0
  -30.0670  -22.6737   19.0453 O   0  0  0  0  0  0
  -31.7815  -14.0627   15.5616 F   0  0  0  0  0  0
  -32.0550  -14.6710   18.9921 H   0  0  0  0  0  0
  -31.9994  -13.0472   18.9126 H   0  0  0  0  0  0
  -28.5970  -13.7155   16.2651 H   0  0  0  0  0  0
  -28.2614  -15.1655   16.9965 H   0  0  0  0  0  0
  -27.0600  -12.4613   17.8223 H   0  0  0  0  0  0
  -26.4129  -14.0208   18.0974 H   0  0  0  0  0  0
  -27.4306  -14.1437   20.4490 H   0  0  0  0  0  0
  -29.0975  -11.6763   21.0855 H   0  0  0  0  0  0
  -28.7900  -13.0231   22.0540 H   0  0  0  0  0  0
  -25.2450   -9.5470   22.4918 H   0  0  0  0  0  0
  -23.9807   -7.4348   22.7453 H   0  0  0  0  0  0
  -21.0635   -8.8495   19.8920 H   0  0  0  0  0  0
  -22.3410  -10.9476   19.6241 H   0  0  0  0  0  0
  -21.1902   -7.6080   23.9692 H   0  0  0  0  0  0
  -21.1449   -6.0493   25.9090 H   0  0  0  0  0  0
  -22.0652   -2.7554   23.2912 H   0  0  0  0  0  0
  -22.3272  -11.9663   22.4938 H   0  0  0  0  0  0
  -21.0414  -13.1142   22.2633 H   0  0  0  0  0  0
  -24.5279  -15.7788   20.5053 H   0  0  0  0  0  0
  -26.1738  -15.6117   20.1608 H   0  0  0  0  0  0
  -26.7520  -32.4945   23.0789 H   0  0  0  0  0  0
  -25.0074  -33.9348   25.0060 H   0  0  0  0  0  0
  -22.8278  -31.2514   21.3349 H   0  0  0  0  0  0
  -23.3800  -35.9429   23.3209 H   0  0  0  0  0  0
  -24.3571  -36.8915   22.2080 H   0  0  0  0  0  0
  -23.7184  -37.6276   23.6783 H   0  0  0  0  0  0
  -26.2962  -31.2882   20.6347 H   0  0  0  0  0  0
  -26.9358  -30.5932   22.0767 H   0  0  0  0  0  0
  -28.1954  -28.4297   21.1688 H   0  0  0  0  0  0
  -25.7844  -25.6767   18.9125 H   0  0  0  0  0  0
  -23.9676  -27.2496   18.9477 H   0  0  0  0  0  0
  -23.9140  -30.4870   19.3882 H   0  0  0  0  0  0
  -22.8452  -29.1921   19.8243 H   0  0  0  0  0  0
  -25.1336  -36.1663   25.0769 H   0  0  0  0  0  0
  -21.0059  -28.3384   24.1288 H   0  0  0  0  0  0
  -20.5705  -26.2388   23.3647 H   0  0  0  0  0  0
  -21.6667  -26.7405   22.1189 H   0  0  0  0  0  0
  -19.6920  -25.6269   21.1295 H   0  0  0  0  0  0
  -19.6712  -27.3153   20.6723 H   0  0  0  0  0  0
  -17.4227  -26.6707   21.4045 H   0  0  0  0  0  0
  -18.0354  -26.0122   22.9054 H   0  0  0  0  0  0
  -19.7977  -30.7368   24.2160 H   0  0  0  0  0  0
  -17.5034  -31.6282   24.5165 H   0  0  0  0  0  0
  -15.5380  -30.2954   23.7720 H   0  0  0  0  0  0
  -15.8730  -28.0804   22.7108 H   0  0  0  0  0  0
  -24.5836  -30.7196   25.7568 H   0  0  0  0  0  0
  -24.8848  -32.3040   26.4587 H   0  0  0  0  0  0
  -25.7807  -30.9041   27.0186 H   0  0  0  0  0  0
  -26.3241  -29.6484   24.1578 H   0  0  0  0  0  0
  -27.3982  -29.7309   25.5309 H   0  0  0  0  0  0
  -27.9211  -30.4015   24.0086 H   0  0  0  0  0  0
  -27.2598  -33.3737   26.1913 H   0  0  0  0  0  0
  -28.3951  -32.6846   25.0409 H   0  0  0  0  0  0
  -28.0630  -31.8630   26.5580 H   0  0  0  0  0  0
  -28.2497  -38.0108   24.7619 H   0  0  0  0  0  0
  -28.1170  -36.2644   24.6138 H   0  0  0  0  0  0
  -27.2313  -37.1171   25.8855 H   0  0  0  0  0  0
  -20.9715  -29.8696   21.6580 H   0  0  0  0  0  0
  -26.0086  -38.2710   24.1510 H   0  0  0  0  0  0
  -29.3124  -11.7140   18.9938 H   0  0  0  0  0  0
  -30.7416  -11.7444   16.7393 H   0  0  0  0  0  0
  -31.1134  -16.3928   16.7006 H   0  0  0  0  0  0
  -28.5162  -17.5626   19.7203 H   0  0  0  0  0  0
  -27.5787  -20.5403   18.9580 H   0  0  0  0  0  0
  -28.3827  -20.4010   20.4544 H   0  0  0  0  0  0
  -27.3494  -23.6120   20.6451 H   0  0  0  0  0  0
  -27.1225  -23.8628   18.9622 H   0  0  0  0  0  0
  -28.7824  -14.9888   21.3183 H   0  0  0  0  0  0
  1 25  1  0  0  0
  1 30  2  0  0  0
  1 82  1  0  0  0
  2  3  1  0  0  0
  2 25  1  0  0  0
  2 85  1  0  0  0
  2 86  1  0  0  0
  3  4  1  0  0  0
  3 87  1  0  0  0
  3 88  1  0  0  0
  4  5  1  0  0  0
  4 89  1  0  0  0
  4 90  1  0  0  0
  5  6  1  0  0  0
  5 26  1  0  0  0
  5 91  1  0  0  0
  6 25  1  0  0  0
  6 92  1  0  0  0
  6 93  1  0  0  0
  7  8  2  0  0  0
  7 26  1  0  0  0
  7 29  1  0  0  0
  8  9  1  0  0  0
  8 22  1  0  0  0
  9 10  1  0  0  0
  9 27  2  0  0  0
 10 11  2  0  0  0
 10 15  1  0  0  0
 11 12  1  0  0  0
 11 94  1  0  0  0
 12 13  2  0  0  0
 12 95  1  0  0  0
 13 14  1  0  0  0
 13 31  1  0  0  0
 14 15  2  0  0  0
 14 96  1  0  0  0
 15 97  1  0  0  0
 16 17  2  0  0  0
 16 21  1  0  0  0
 16 31  1  0  0  0
 17 18  1  0  0  0
 17 98  1  0  0  0
 18 19  2  0  0  0
 18 99  1  0  0  0
 19 20  1  0  0  0
 19 24  1  0  0  0
 20 21  2  0  0  0
 20100  1  0  0  0
 21 23  1  0  0  0
 22 28  1  0  0  0
 22 32  2  0  0  0
 26 27  1  0  0  0
 28101  1  0  0  0
 28102  1  0  0  0
 29103  1  0  0  0
 29104  1  0  0  0
 33 34  1  0  0  0
 33 66  1  0  0  0
 33 70  2  0  0  0
 34 36  1  0  0  0
 34 59  1  0  0  0
 34105  1  0  0  0
 35 44  2  0  0  0
 35 45  1  0  0  0
 35 68  1  0  0  0
 36 56  1  0  0  0
 36106  1  0  0  0
 37 39  1  0  0  0
 37 47  1  0  0  0
 37 66  1  0  0  0
 37107  1  0  0  0
 38 43  2  0  0  0
 38 46  1  0  0  0
 38 47  1  0  0  0
 39 64  1  0  0  0
 39 67  2  0  0  0
 40 52  1  0  0  0
 40 53  2  0  0  0
 40 58  1  0  0  0
 41108  1  0  0  0
 41109  1  0  0  0
 41110  1  0  0  0
 41 48  1  0  0  0
 42 43  1  0  0  0
 42 66  1  0  0  0
 42111  1  0  0  0
 42112  1  0  0  0
 43 44  1  0  0  0
 44113  1  0  0  0
 45 46  2  0  0  0
 45114  1  0  0  0
 46115  1  0  0  0
 47116  1  0  0  0
 47117  1  0  0  0
 48 56  1  0  0  0
 48 65  1  0  0  0
 48118  1  0  0  0
 49 50  1  0  0  0
 49 53  1  0  0  0
 49 64  1  0  0  0
 49119  1  0  0  0
 50 51  1  0  0  0
 50120  1  0  0  0
 50121  1  0  0  0
 51 52  1  0  0  0
 51122  1  0  0  0
 51123  1  0  0  0
 52124  1  0  0  0
 52125  1  0  0  0
 53 54  1  0  0  0
 54 55  2  0  0  0
 54126  1  0  0  0
 55 57  1  0  0  0
 55127  1  0  0  0
 56 69  2  0  0  0
 57 58  2  0  0  0
 57128  1  0  0  0
 58129  1  0  0  0
 59 60  1  0  0  0
 59 61  1  0  0  0
 59 62  1  0  0  0
 60130  1  0  0  0
 60131  1  0  0  0
 60132  1  0  0  0
 61133  1  0  0  0
 61134  1  0  0  0
 61135  1  0  0  0
 62136  1  0  0  0
 62137  1  0  0  0
 62138  1  0  0  0
 63 65  1  0  0  0
 63139  1  0  0  0
 63140  1  0  0  0
 63141  1  0  0  0
 64142  1  0  0  0
 65143  1  0  0  0
 68 80  1  0  0  0
 71 72  2  0  0  0
 71 75  1  0  0  0
 71144  1  0  0  0
 72 76  1  0  0  0
 72145  1  0  0  0
 73 74  1  0  0  0
 73 76  2  0  0  0
 73146  1  0  0  0
 74 75  2  0  0  0
 74 77  1  0  0  0
 75 82  1  0  0  0
 76 84  1  0  0  0
 77 81  2  0  0  0
 77147  1  0  0  0
 78 79  1  0  0  0
 78 80  1  0  0  0
 78 83  2  0  0  0
 79 81  1  0  0  0
 79148  1  0  0  0
 79149  1  0  0  0
 80150  1  0  0  0
 80151  1  0  0  0
 82152  1  0  0  0
M  ISO  4   1 100  68 101  80 101  82 100
M  END
> <chiral flag>
0

> <version>
0

> <s_m_source_file>
/data/baiqing/PycharmProjects/Reinvent-master-3.2/result/LINK_invent/BTK/process_docking_weight1_custom_product_contain_oxygen_bond_distance_aromatic_linkinvent_7_9_3/rearranged_h_0111.sdf

> <i_m_source_file_index>
79

> <r_mmod_Potential_Energy-OPLS-2005>
11369.732421875

> <r_mmod_Stretch_Energy-OPLS-2005>
6432.65625

> <r_mmod_Bend_Energy-OPLS-2005>
857.051086425781

> <r_mmod_Torsional_Energy-OPLS-2005>
401.211761474609

> <r_mmod_Improper_Torsional_Energy-OPLS-2005>
59.5163345336914

> <r_mmod_Van_der_Waal_Energy-OPLS-2005>
2741.673828125

> <r_mmod_Electrostatic_Energy-OPLS-2005>
-314.799041748047

> <r_mmod_Solvation_Energy-OPLS-2005>
-280.286804199219

> <b_mmod_Minimization_Converged-OPLS-2005>
0

> <r_mmod_RMS_Derivative-OPLS-2005>
2.04931807518005

$$$$
81
                    3D
 Structure written by MMmdl.
163172  0  0  1  0            999 V2000
  -30.6134  -14.6545   20.4887 C   0  0  0  0  0  0
  -30.4410  -12.3998   19.4483 C   0  0  0  0  0  0
  -29.5050  -12.5048   18.2232 C   0  0  0  0  0  0
  -28.0289  -12.3350   18.6405 C   0  0  0  0  0  0
  -27.6498  -13.2081   19.8656 C   0  0  2  0  0  0
  -28.7006  -13.0721   20.9898 C   0  0  0  0  0  0
  -25.2554  -13.8123   20.5749 C   0  0  0  0  0  0
  -24.1816  -13.0386   20.9212 C   0  0  0  0  0  0
  -24.6385  -11.6866   20.8742 C   0  0  0  0  0  0
  -23.9036  -10.4262   21.0396 C   0  0  0  0  0  0
  -24.3591   -9.4184   21.9173 C   0  0  0  0  0  0
  -23.6278   -8.2219   22.0744 C   0  0  0  0  0  0
  -22.4261   -8.0267   21.3531 C   0  0  0  0  0  0
  -21.9886   -9.0234   20.4625 C   0  0  0  0  0  0
  -22.7209  -10.2119   20.3040 C   0  0  0  0  0  0
  -21.6844   -6.0723   22.5275 C   0  0  0  0  0  0
  -21.4009   -6.5633   23.8208 C   0  0  0  0  0  0
  -21.3649   -5.6789   24.9177 C   0  0  0  0  0  0
  -21.6038   -4.3052   24.7220 C   0  0  0  0  0  0
  -21.8825   -3.8137   23.4343 C   0  0  0  0  0  0
  -21.9187   -4.6951   22.3392 C   0  0  0  0  0  0
  -22.7841  -13.5188   21.1844 C   0  0  0  0  0  0
  -22.1663   -4.2140   21.0967 F   0  0  0  0  0  0
  -21.5613   -3.4525   25.7724 F   0  0  0  0  0  0
  -30.0120  -13.4231   20.4195 N   0  0  0  0  0  0
  -26.2976  -12.9301   20.3364 N   0  0  0  0  0  0
  -25.9311  -11.6461   20.5774 N   0  0  0  0  0  0
  -22.0487  -12.8180   22.0405 N   0  0  0  0  0  0
  -25.4211  -15.1843   20.4217 N   0  0  0  0  0  0
  -31.7896  -14.8170   20.1510 O   0  0  0  0  0  0
  -21.6637   -6.8863   21.4234 O   0  0  0  0  0  0
  -22.3529  -14.5489   20.6693 O   0  0  0  0  0  0
  -24.6258  -31.8600   23.2034 C   0  0  0  0  0  0
  -25.9106  -32.4777   23.8360 C   0  0  1  0  0  0
  -27.2176  -27.3125   20.1299 C   0  0  0  0  0  0
  -25.5923  -33.8583   24.2273 N   0  0  0  0  0  0
  -23.4194  -30.4831   21.5471 C   0  0  2  0  0  0
  -24.8659  -28.9411   20.1109 C   0  0  0  0  0  0
  -22.7465  -29.4618   22.4946 C   0  0  0  0  0  0
  -18.0284  -28.1396   22.8496 C   0  0  0  0  0  0
  -24.1492  -36.7284   23.2641 C   0  0  0  0  0  0
  -25.9613  -30.7888   21.3773 C   0  0  0  0  0  0
  -26.0354  -29.4173   20.7181 C   0  0  0  0  0  0
  -27.2162  -28.6160   20.7165 C   0  0  0  0  0  0
  -26.0304  -26.8988   19.4829 C   0  0  0  0  0  0
  -24.8671  -27.6884   19.4813 C   0  0  0  0  0  0
  -23.6328  -29.8189   20.1621 C   0  0  0  0  0  0
  -25.4123  -36.3083   24.0323 C   0  0  1  0  0  0
  -20.5880  -28.3696   23.1296 C   0  0  2  0  0  0
  -20.6772  -26.9419   22.5430 C   0  0  0  0  0  0
  -19.5742  -26.6393   21.5238 C   0  0  0  0  0  0
  -18.1918  -26.7938   22.1638 C   0  0  0  0  0  0
  -19.1536  -28.8866   23.2883 C   0  0  0  0  0  0
  -18.9456  -30.1474   23.8889 C   0  0  0  0  0  0
  -17.6453  -30.6595   24.0574 C   0  0  0  0  0  0
  -25.9056  -34.9455   23.5094 C   0  0  0  0  0  0
  -16.5348  -29.9083   23.6348 C   0  0  0  0  0  0
  -16.7271  -28.6506   23.0361 C   0  0  0  0  0  0
  -26.4497  -31.6587   25.0731 C   0  0  0  0  0  0
  -25.3729  -31.3721   26.1450 C   0  0  0  0  0  0
  -27.0354  -30.3010   24.6193 C   0  0  0  0  0  0
  -27.6049  -32.4337   25.7500 C   0  0  0  0  0  0
  -27.5585  -37.1797   24.8464 C   0  0  0  0  0  0
  -21.4182  -29.3036   22.3681 N   0  0  0  0  0  0
  -26.4298  -37.3780   23.9404 N   0  0  0  0  0  0
  -24.6876  -31.0605   22.0991 N   0  0  0  0  0  0
  -23.4181  -28.8149   23.3024 O   0  0  0  0  0  0
  -28.3220  -26.4477   20.1780 O   0  0  0  0  0  0
  -26.5618  -34.8922   22.4657 O   0  0  0  0  0  0
  -23.5425  -32.1398   23.7354 O   0  0  0  0  0  0
  -30.9286  -19.3185   21.2969 C   0  0  0  0  0  0
  -30.9120  -17.8922   21.2946 C   0  0  0  0  0  0
  -28.9654  -19.3640   19.9286 C   0  0  0  0  0  0
  -28.9436  -17.9323   19.8931 C   0  0  0  0  0  0
  -29.9461  -20.1101   20.6288 C   0  0  0  0  0  0
  -29.9128  -17.1573   20.6069 C   0  0  0  0  0  0
  -29.1625  -23.9173   20.4366 C   0  0  0  0  0  0
  -28.9763  -22.5576   20.6599 C   0  0  0  0  0  0
  -30.5194  -24.3594   20.0377 C   0  0  0  0  0  0
  -26.7128  -17.7911   18.7407 C   0  0  0  0  0  0
  -27.8891  -17.2573   19.1130 C   0  0  0  0  0  0
  -31.4612  -23.2860   19.5053 C   0  0  0  0  0  0
  -31.3917  -22.0084   20.3534 C   0  0  0  0  0  0
  -27.6189  -22.0357   21.1211 C   0  0  0  0  0  0
  -28.0513  -25.0352   20.5641 C   0  0  0  0  0  0
  -30.0118  -21.5579   20.5817 N   0  0  0  0  0  0
  -29.7679  -15.7039   20.7357 N   0  0  0  0  0  0
  -30.9333  -25.5198   20.1159 O   0  0  0  0  0  0
  -31.4790  -12.5335   19.1402 H   0  0  0  0  0  0
  -30.3842  -11.4069   19.8985 H   0  0  0  0  0  0
  -29.7649  -11.7520   17.4781 H   0  0  0  0  0  0
  -29.6408  -13.4731   17.7369 H   0  0  0  0  0  0
  -27.8723  -11.2824   18.8802 H   0  0  0  0  0  0
  -27.3710  -12.5525   17.7986 H   0  0  0  0  0  0
  -27.6584  -14.2370   19.5193 H   0  0  0  0  0  0
  -28.7193  -12.0503   21.3734 H   0  0  0  0  0  0
  -28.4506  -13.7038   21.8440 H   0  0  0  0  0  0
  -25.2732   -9.5652   22.4750 H   0  0  0  0  0  0
  -23.9976   -7.4601   22.7469 H   0  0  0  0  0  0
  -21.0816   -8.8746   19.8931 H   0  0  0  0  0  0
  -22.3664  -10.9659   19.6149 H   0  0  0  0  0  0
  -21.2020   -7.6143   23.9702 H   0  0  0  0  0  0
  -21.1471   -6.0525   25.9076 H   0  0  0  0  0  0
  -22.0620   -2.7593   23.2857 H   0  0  0  0  0  0
  -22.4150  -11.9855   22.4785 H   0  0  0  0  0  0
  -21.1099  -13.1201   22.2603 H   0  0  0  0  0  0
  -24.6459  -15.8275   20.5345 H   0  0  0  0  0  0
  -26.2568  -15.6421   20.0816 H   0  0  0  0  0  0
  -26.7166  -32.5459   23.1102 H   0  0  0  0  0  0
  -25.0091  -33.9744   25.0430 H   0  0  0  0  0  0
  -22.7139  -31.3043   21.4044 H   0  0  0  0  0  0
  -23.3769  -35.9597   23.3298 H   0  0  0  0  0  0
  -24.3576  -36.8923   22.2053 H   0  0  0  0  0  0
  -23.7230  -37.6477   23.6674 H   0  0  0  0  0  0
  -26.0959  -31.5523   20.6100 H   0  0  0  0  0  0
  -26.8406  -30.8347   22.0088 H   0  0  0  0  0  0
  -28.1115  -28.9735   21.2045 H   0  0  0  0  0  0
  -25.9772  -25.9525   18.9661 H   0  0  0  0  0  0
  -23.9760  -27.3223   18.9898 H   0  0  0  0  0  0
  -23.7449  -30.5954   19.4046 H   0  0  0  0  0  0
  -22.7532  -29.2453   19.8650 H   0  0  0  0  0  0
  -25.1299  -36.1938   25.0813 H   0  0  0  0  0  0
  -20.9979  -28.3286   24.1415 H   0  0  0  0  0  0
  -20.5713  -26.2295   23.3622 H   0  0  0  0  0  0
  -21.6635  -26.7465   22.1203 H   0  0  0  0  0  0
  -19.6900  -25.6306   21.1252 H   0  0  0  0  0  0
  -19.6679  -27.3220   20.6774 H   0  0  0  0  0  0
  -17.4191  -26.6717   21.4026 H   0  0  0  0  0  0
  -18.0285  -26.0075   22.9028 H   0  0  0  0  0  0
  -19.7931  -30.7317   24.2229 H   0  0  0  0  0  0
  -17.5000  -31.6272   24.5187 H   0  0  0  0  0  0
  -15.5344  -30.2980   23.7688 H   0  0  0  0  0  0
  -15.8673  -28.0842   22.7060 H   0  0  0  0  0  0
  -24.5904  -30.7070   25.7779 H   0  0  0  0  0  0
  -24.8920  -32.2888   26.4865 H   0  0  0  0  0  0
  -25.8050  -30.8906   27.0229 H   0  0  0  0  0  0
  -26.2937  -29.6752   24.1213 H   0  0  0  0  0  0
  -27.4047  -29.7268   25.4704 H   0  0  0  0  0  0
  -27.8802  -30.4289   23.9417 H   0  0  0  0  0  0
  -27.2643  -33.3638   26.2058 H   0  0  0  0  0  0
  -28.3864  -32.6905   25.0334 H   0  0  0  0  0  0
  -28.0705  -31.8479   26.5437 H   0  0  0  0  0  0
  -28.2598  -38.0106   24.7542 H   0  0  0  0  0  0
  -28.1098  -36.2637   24.6267 H   0  0  0  0  0  0
  -27.2294  -37.1411   25.8869 H   0  0  0  0  0  0
  -20.9352  -29.8739   21.6885 H   0  0  0  0  0  0
  -26.0183  -38.2847   24.1441 H   0  0  0  0  0  0
  -31.7183  -19.8054   21.8506 H   0  0  0  0  0  0
  -31.6667  -17.3651   21.8618 H   0  0  0  0  0  0
  -28.2307  -19.9215   19.3694 H   0  0  0  0  0  0
  -26.0132  -17.2227   18.1443 H   0  0  0  0  0  0
  -26.4139  -18.7923   19.0163 H   0  0  0  0  0  0
  -28.1097  -16.2550   18.7803 H   0  0  0  0  0  0
  -32.4834  -23.6637   19.4754 H   0  0  0  0  0  0
  -31.1694  -23.0656   18.4790 H   0  0  0  0  0  0
  -31.8781  -22.1767   21.3151 H   0  0  0  0  0  0
  -31.9725  -21.2438   19.8360 H   0  0  0  0  0  0
  -27.1692  -22.7093   21.8513 H   0  0  0  0  0  0
  -27.6740  -21.0623   21.6089 H   0  0  0  0  0  0
  -26.9342  -21.9526   20.2765 H   0  0  0  0  0  0
  -27.7427  -25.0522   21.6103 H   0  0  0  0  0  0
  -27.2000  -24.6368   20.0183 H   0  0  0  0  0  0
  -28.8183  -15.3977   20.8817 H   0  0  0  0  0  0
  1 25  1  0  0  0
  1 30  2  0  0  0
  1 87  1  0  0  0
  2  3  1  0  0  0
  2 25  1  0  0  0
  2 89  1  0  0  0
  2 90  1  0  0  0
  3  4  1  0  0  0
  3 91  1  0  0  0
  3 92  1  0  0  0
  4  5  1  0  0  0
  4 93  1  0  0  0
  4 94  1  0  0  0
  5  6  1  0  0  0
  5 26  1  0  0  0
  5 95  1  0  0  0
  6 25  1  0  0  0
  6 96  1  0  0  0
  6 97  1  0  0  0
  7  8  2  0  0  0
  7 26  1  0  0  0
  7 29  1  0  0  0
  8  9  1  0  0  0
  8 22  1  0  0  0
  9 10  1  0  0  0
  9 27  2  0  0  0
 10 11  2  0  0  0
 10 15  1  0  0  0
 11 12  1  0  0  0
 11 98  1  0  0  0
 12 13  2  0  0  0
 12 99  1  0  0  0
 13 14  1  0  0  0
 13 31  1  0  0  0
 14 15  2  0  0  0
 14100  1  0  0  0
 15101  1  0  0  0
 16 17  2  0  0  0
 16 21  1  0  0  0
 16 31  1  0  0  0
 17 18  1  0  0  0
 17102  1  0  0  0
 18 19  2  0  0  0
 18103  1  0  0  0
 19 20  1  0  0  0
 19 24  1  0  0  0
 20 21  2  0  0  0
 20104  1  0  0  0
 21 23  1  0  0  0
 22 28  1  0  0  0
 22 32  2  0  0  0
 26 27  1  0  0  0
 28105  1  0  0  0
 28106  1  0  0  0
 29107  1  0  0  0
 29108  1  0  0  0
 33 34  1  0  0  0
 33 66  1  0  0  0
 33 70  2  0  0  0
 34 36  1  0  0  0
 34 59  1  0  0  0
 34109  1  0  0  0
 35 44  2  0  0  0
 35 45  1  0  0  0
 35 68  1  0  0  0
 36 56  1  0  0  0
 36110  1  0  0  0
 37 39  1  0  0  0
 37 47  1  0  0  0
 37 66  1  0  0  0
 37111  1  0  0  0
 38 43  2  0  0  0
 38 46  1  0  0  0
 38 47  1  0  0  0
 39 64  1  0  0  0
 39 67  2  0  0  0
 40 52  1  0  0  0
 40 53  2  0  0  0
 40 58  1  0  0  0
 41112  1  0  0  0
 41113  1  0  0  0
 41114  1  0  0  0
 41 48  1  0  0  0
 42 43  1  0  0  0
 42 66  1  0  0  0
 42115  1  0  0  0
 42116  1  0  0  0
 43 44  1  0  0  0
 44117  1  0  0  0
 45 46  2  0  0  0
 45118  1  0  0  0
 46119  1  0  0  0
 47120  1  0  0  0
 47121  1  0  0  0
 48 56  1  0  0  0
 48 65  1  0  0  0
 48122  1  0  0  0
 49 50  1  0  0  0
 49 53  1  0  0  0
 49 64  1  0  0  0
 49123  1  0  0  0
 50 51  1  0  0  0
 50124  1  0  0  0
 50125  1  0  0  0
 51 52  1  0  0  0
 51126  1  0  0  0
 51127  1  0  0  0
 52128  1  0  0  0
 52129  1  0  0  0
 53 54  1  0  0  0
 54 55  2  0  0  0
 54130  1  0  0  0
 55 57  1  0  0  0
 55131  1  0  0  0
 56 69  2  0  0  0
 57 58  2  0  0  0
 57132  1  0  0  0
 58133  1  0  0  0
 59 60  1  0  0  0
 59 61  1  0  0  0
 59 62  1  0  0  0
 60134  1  0  0  0
 60135  1  0  0  0
 60136  1  0  0  0
 61137  1  0  0  0
 61138  1  0  0  0
 61139  1  0  0  0
 62140  1  0  0  0
 62141  1  0  0  0
 62142  1  0  0  0
 63 65  1  0  0  0
 63143  1  0  0  0
 63144  1  0  0  0
 63145  1  0  0  0
 64146  1  0  0  0
 65147  1  0  0  0
 68 85  1  0  0  0
 71 72  2  0  0  0
 71 75  1  0  0  0
 71148  1  0  0  0
 72 76  1  0  0  0
 72149  1  0  0  0
 73 74  1  0  0  0
 73 75  2  0  0  0
 73150  1  0  0  0
 74 76  2  0  0  0
 74 81  1  0  0  0
 75 86  1  0  0  0
 76 87  1  0  0  0
 77 78  2  0  0  0
 77 79  1  0  0  0
 77 85  1  0  0  0
 78 84  1  0  0  0
 78 86  1  0  0  0
 79 82  1  0  0  0
 79 88  2  0  0  0
 80 81  2  0  0  0
 80151  1  0  0  0
 80152  1  0  0  0
 81153  1  0  0  0
 82 83  1  0  0  0
 82154  1  0  0  0
 82155  1  0  0  0
 83 86  1  0  0  0
 83156  1  0  0  0
 83157  1  0  0  0
 84158  1  0  0  0
 84159  1  0  0  0
 84160  1  0  0  0
 85161  1  0  0  0
 85162  1  0  0  0
 87163  1  0  0  0
M  ISO  4   1 100  68 101  85 101  87 100
M  END
> <chiral flag>
0

> <version>
0

> <s_m_source_file>
/data/baiqing/PycharmProjects/Reinvent-master-3.2/result/LINK_invent/BTK/process_docking_weight1_custom_product_contain_oxygen_bond_distance_aromatic_linkinvent_7_9_3/rearranged_h_0111.sdf

> <i_m_source_file_index>
80

> <r_mmod_Potential_Energy-OPLS-2005>
86.2400665283203

> <r_mmod_Stretch_Energy-OPLS-2005>
90.289680480957

> <r_mmod_Bend_Energy-OPLS-2005>
135.206665039062

> <r_mmod_Torsional_Energy-OPLS-2005>
239.428329467773

> <r_mmod_Improper_Torsional_Energy-OPLS-2005>
6.5298638343811

> <r_mmod_Van_der_Waal_Energy-OPLS-2005>
165.299682617188

> <r_mmod_Electrostatic_Energy-OPLS-2005>
-382.903106689453

> <r_mmod_Solvation_Energy-OPLS-2005>
-221.802276611328

> <b_mmod_Minimization_Converged-OPLS-2005>
0

> <r_mmod_RMS_Derivative-OPLS-2005>
2.1280529499054

$$$$
82
                    3D
 Structure written by MMmdl.
162170  0  0  1  0            999 V2000
  -30.5975  -14.6462   20.5519 C   0  0  0  0  0  0
  -30.4636  -12.4155   19.4446 C   0  0  0  0  0  0
  -29.5226  -12.5443   18.2221 C   0  0  0  0  0  0
  -28.0424  -12.3486   18.6212 C   0  0  0  0  0  0
  -27.6643  -13.1847   19.8713 C   0  0  2  0  0  0
  -28.7122  -12.9383   20.9793 C   0  0  0  0  0  0
  -25.2675  -13.8090   20.5746 C   0  0  0  0  0  0
  -24.1849  -13.0394   20.9130 C   0  0  0  0  0  0
  -24.6393  -11.6861   20.8704 C   0  0  0  0  0  0
  -23.9054  -10.4270   21.0406 C   0  0  0  0  0  0
  -24.3597   -9.4187   21.9190 C   0  0  0  0  0  0
  -23.6267   -8.2226   22.0755 C   0  0  0  0  0  0
  -22.4243   -8.0292   21.3542 C   0  0  0  0  0  0
  -21.9911   -9.0264   20.4612 C   0  0  0  0  0  0
  -22.7245  -10.2137   20.3037 C   0  0  0  0  0  0
  -21.6829   -6.0755   22.5300 C   0  0  0  0  0  0
  -21.3998   -6.5653   23.8247 C   0  0  0  0  0  0
  -21.3661   -5.6793   24.9205 C   0  0  0  0  0  0
  -21.6048   -4.3054   24.7239 C   0  0  0  0  0  0
  -21.8813   -3.8154   23.4359 C   0  0  0  0  0  0
  -21.9177   -4.6972   22.3424 C   0  0  0  0  0  0
  -22.7890  -13.5227   21.1829 C   0  0  0  0  0  0
  -22.1642   -4.2169   21.0993 F   0  0  0  0  0  0
  -21.5658   -3.4527   25.7756 F   0  0  0  0  0  0
  -30.0148  -13.3947   20.4589 N   0  0  0  0  0  0
  -26.3043  -12.9188   20.3310 N   0  0  0  0  0  0
  -25.9287  -11.6375   20.5662 N   0  0  0  0  0  0
  -22.0496  -12.8195   22.0351 N   0  0  0  0  0  0
  -25.4623  -15.1796   20.4478 N   0  0  0  0  0  0
  -31.7568  -14.8212   20.1589 O   0  0  0  0  0  0
  -21.6591   -6.8901   21.4257 O   0  0  0  0  0  0
  -22.3579  -14.5539   20.6707 O   0  0  0  0  0  0
  -24.6225  -31.8602   23.2045 C   0  0  0  0  0  0
  -25.9078  -32.4797   23.8387 C   0  0  1  0  0  0
  -27.2369  -27.3462   20.1173 C   0  0  0  0  0  0
  -25.5917  -33.8598   24.2311 N   0  0  0  0  0  0
  -23.4210  -30.4794   21.5456 C   0  0  2  0  0  0
  -24.8726  -28.9370   20.1145 C   0  0  0  0  0  0
  -22.7488  -29.4594   22.4953 C   0  0  0  0  0  0
  -18.0287  -28.1371   22.8504 C   0  0  0  0  0  0
  -24.1487  -36.7295   23.2636 C   0  0  0  0  0  0
  -25.9591  -30.7967   21.3771 C   0  0  0  0  0  0
  -26.0368  -29.4253   20.7216 C   0  0  0  0  0  0
  -27.2245  -28.6388   20.7168 C   0  0  0  0  0  0
  -26.0530  -26.9018   19.4886 C   0  0  0  0  0  0
  -24.8794  -27.6789   19.4911 C   0  0  0  0  0  0
  -23.6383  -29.8113   20.1621 C   0  0  0  0  0  0
  -25.4123  -36.3105   24.0333 C   0  0  1  0  0  0
  -20.5888  -28.3663   23.1302 C   0  0  2  0  0  0
  -20.6762  -26.9381   22.5432 C   0  0  0  0  0  0
  -19.5748  -26.6367   21.5220 C   0  0  0  0  0  0
  -18.1915  -26.7927   22.1616 C   0  0  0  0  0  0
  -19.1537  -28.8841   23.2897 C   0  0  0  0  0  0
  -18.9457  -30.1446   23.8905 C   0  0  0  0  0  0
  -17.6454  -30.6575   24.0556 C   0  0  0  0  0  0
  -25.9055  -34.9460   23.5124 C   0  0  0  0  0  0
  -16.5347  -29.9067   23.6320 C   0  0  0  0  0  0
  -16.7279  -28.6482   23.0358 C   0  0  0  0  0  0
  -26.4491  -31.6596   25.0745 C   0  0  0  0  0  0
  -25.3725  -31.3671   26.1462 C   0  0  0  0  0  0
  -27.0348  -30.3034   24.6166 C   0  0  0  0  0  0
  -27.6052  -32.4324   25.7504 C   0  0  0  0  0  0
  -27.5601  -37.1792   24.8455 C   0  0  0  0  0  0
  -21.4198  -29.3023   22.3700 N   0  0  0  0  0  0
  -26.4309  -37.3793   23.9423 N   0  0  0  0  0  0
  -24.6856  -31.0626   22.0987 N   0  0  0  0  0  0
  -23.4219  -28.8131   23.3025 O   0  0  0  0  0  0
  -28.3578  -26.5134   20.1262 O   0  0  0  0  0  0
  -26.5622  -34.8918   22.4694 O   0  0  0  0  0  0
  -23.5387  -32.1393   23.7369 O   0  0  0  0  0  0
  -29.6825  -18.3313   21.6680 C   0  0  0  0  0  0
  -29.5409  -19.7203   21.4181 C   0  0  0  0  0  0
  -29.9447  -17.3602   20.6527 C   0  0  0  0  0  0
  -30.1735  -17.9089   19.3480 C   0  0  0  0  0  0
  -29.7018  -20.2538   20.1224 C   0  0  0  0  0  0
  -30.0722  -19.3238   19.1053 C   0  0  0  0  0  0
  -32.6214  -16.2348   16.9727 C   0  0  0  0  0  0
  -32.0208  -16.9696   17.9199 C   0  0  0  0  0  0
  -29.1126  -24.1628   20.3023 C   0  0  0  0  0  0
  -28.1849  -25.1569   20.4513 C   0  0  0  0  0  0
  -29.7009  -15.8788   21.0306 C   0  0  0  0  0  0
  -31.4821  -20.5394   17.6523 C   0  0  0  0  0  0
  -30.5230  -17.0204   18.1582 C   0  0  0  0  0  0
  -28.9590  -22.6682   20.7261 C   0  0  0  0  0  0
  -28.6875  -15.7219   21.7753 N   0  0  0  0  0  0
  -29.4979  -21.6353   19.8018 N   0  0  0  0  0  0
  -30.2876  -19.7823   17.8259 O   0  0  0  0  0  0
  -31.4995  -12.5760   19.1423 H   0  0  0  0  0  0
  -30.4305  -11.4026   19.8484 H   0  0  0  0  0  0
  -29.8105  -11.8314   17.4482 H   0  0  0  0  0  0
  -29.6448  -13.5369   17.7851 H   0  0  0  0  0  0
  -27.8898  -11.2873   18.8272 H   0  0  0  0  0  0
  -27.3900  -12.5955   17.7845 H   0  0  0  0  0  0
  -27.7041  -14.2318   19.5728 H   0  0  0  0  0  0
  -28.7555  -11.8725   21.2059 H   0  0  0  0  0  0
  -28.4404  -13.3654   21.9396 H   0  0  0  0  0  0
  -25.2745   -9.5658   22.4771 H   0  0  0  0  0  0
  -23.9972   -7.4605   22.7442 H   0  0  0  0  0  0
  -21.0891   -8.8806   19.8856 H   0  0  0  0  0  0
  -22.3751  -10.9712   19.6155 H   0  0  0  0  0  0
  -21.1974   -7.6145   23.9786 H   0  0  0  0  0  0
  -21.1500   -6.0495   25.9119 H   0  0  0  0  0  0
  -22.0582   -2.7621   23.2858 H   0  0  0  0  0  0
  -22.4052  -11.9825   22.4733 H   0  0  0  0  0  0
  -21.1118  -13.1266   22.2548 H   0  0  0  0  0  0
  -24.7664  -15.8430   20.7711 H   0  0  0  0  0  0
  -26.4053  -15.5503   20.4810 H   0  0  0  0  0  0
  -26.7152  -32.5485   23.1141 H   0  0  0  0  0  0
  -25.0090  -33.9757   25.0475 H   0  0  0  0  0  0
  -22.7137  -31.2978   21.3976 H   0  0  0  0  0  0
  -23.3789  -35.9580   23.3255 H   0  0  0  0  0  0
  -24.3568  -36.8979   22.2063 H   0  0  0  0  0  0
  -23.7183  -37.6453   23.6701 H   0  0  0  0  0  0
  -26.0884  -31.5603   20.6105 H   0  0  0  0  0  0
  -26.8393  -30.8472   22.0064 H   0  0  0  0  0  0
  -28.1220  -29.0054   21.1952 H   0  0  0  0  0  0
  -26.0299  -25.9350   19.0045 H   0  0  0  0  0  0
  -23.9883  -27.3008   19.0107 H   0  0  0  0  0  0
  -23.7570  -30.5846   19.4016 H   0  0  0  0  0  0
  -22.7630  -29.2334   19.8621 H   0  0  0  0  0  0
  -25.1286  -36.1972   25.0826 H   0  0  0  0  0  0
  -20.9983  -28.3218   24.1425 H   0  0  0  0  0  0
  -20.5651  -26.2253   23.3622 H   0  0  0  0  0  0
  -21.6623  -26.7386   22.1243 H   0  0  0  0  0  0
  -19.6893  -25.6282   21.1235 H   0  0  0  0  0  0
  -19.6698  -27.3175   20.6754 H   0  0  0  0  0  0
  -17.4212  -26.6746   21.3981 H   0  0  0  0  0  0
  -18.0254  -26.0039   22.8970 H   0  0  0  0  0  0
  -19.7921  -30.7263   24.2287 H   0  0  0  0  0  0
  -17.4994  -31.6257   24.5158 H   0  0  0  0  0  0
  -15.5342  -30.2972   23.7620 H   0  0  0  0  0  0
  -15.8686  -28.0788   22.7080 H   0  0  0  0  0  0
  -24.5989  -30.6923   25.7787 H   0  0  0  0  0  0
  -24.8800  -32.2790   26.4833 H   0  0  0  0  0  0
  -25.8087  -30.8926   27.0261 H   0  0  0  0  0  0
  -26.2913  -29.6774   24.1225 H   0  0  0  0  0  0
  -27.4108  -29.7301   25.4649 H   0  0  0  0  0  0
  -27.8748  -30.4359   23.9344 H   0  0  0  0  0  0
  -27.2691  -33.3637   26.2064 H   0  0  0  0  0  0
  -28.3861  -32.6861   25.0328 H   0  0  0  0  0  0
  -28.0716  -31.8456   26.5425 H   0  0  0  0  0  0
  -28.2576  -38.0134   24.7609 H   0  0  0  0  0  0
  -28.1156  -36.2676   24.6182 H   0  0  0  0  0  0
  -27.2322  -37.1320   25.8852 H   0  0  0  0  0  0
  -20.9371  -29.8796   21.6958 H   0  0  0  0  0  0
  -26.0199  -38.2855   24.1495 H   0  0  0  0  0  0
  -29.5091  -18.0015   22.6832 H   0  0  0  0  0  0
  -29.2708  -20.3626   22.2432 H   0  0  0  0  0  0
  -33.6959  -16.2503   16.8561 H   0  0  0  0  0  0
  -32.0531  -15.6077   16.3015 H   0  0  0  0  0  0
  -32.6276  -17.5821   18.5722 H   0  0  0  0  0  0
  -30.0736  -24.4299   19.8844 H   0  0  0  0  0  0
  -27.2093  -24.9551   20.8743 H   0  0  0  0  0  0
  -32.0374  -20.1505   16.7982 H   0  0  0  0  0  0
  -32.1457  -20.5083   18.5189 H   0  0  0  0  0  0
  -31.2454  -21.5830   17.4435 H   0  0  0  0  0  0
  -30.0425  -17.4074   17.2585 H   0  0  0  0  0  0
  -30.1245  -16.0148   18.2662 H   0  0  0  0  0  0
  -27.9074  -22.4622   20.9293 H   0  0  0  0  0  0
  -29.4758  -22.5606   21.6806 H   0  0  0  0  0  0
  -28.2497  -16.6151   21.9615 H   0  0  0  0  0  0
  -29.4149  -21.8303   18.8073 H   0  0  0  0  0  0
  1 25  1  0  0  0
  1 30  2  0  0  0
  1 81  1  0  0  0
  2  3  1  0  0  0
  2 25  1  0  0  0
  2 88  1  0  0  0
  2 89  1  0  0  0
  3  4  1  0  0  0
  3 90  1  0  0  0
  3 91  1  0  0  0
  4  5  1  0  0  0
  4 92  1  0  0  0
  4 93  1  0  0  0
  5  6  1  0  0  0
  5 26  1  0  0  0
  5 94  1  0  0  0
  6 25  1  0  0  0
  6 95  1  0  0  0
  6 96  1  0  0  0
  7  8  2  0  0  0
  7 26  1  0  0  0
  7 29  1  0  0  0
  8  9  1  0  0  0
  8 22  1  0  0  0
  9 10  1  0  0  0
  9 27  2  0  0  0
 10 11  2  0  0  0
 10 15  1  0  0  0
 11 12  1  0  0  0
 11 97  1  0  0  0
 12 13  2  0  0  0
 12 98  1  0  0  0
 13 14  1  0  0  0
 13 31  1  0  0  0
 14 15  2  0  0  0
 14 99  1  0  0  0
 15100  1  0  0  0
 16 17  2  0  0  0
 16 21  1  0  0  0
 16 31  1  0  0  0
 17 18  1  0  0  0
 17101  1  0  0  0
 18 19  2  0  0  0
 18102  1  0  0  0
 19 20  1  0  0  0
 19 24  1  0  0  0
 20 21  2  0  0  0
 20103  1  0  0  0
 21 23  1  0  0  0
 22 28  1  0  0  0
 22 32  2  0  0  0
 26 27  1  0  0  0
 28104  1  0  0  0
 28105  1  0  0  0
 29106  1  0  0  0
 29107  1  0  0  0
 33 34  1  0  0  0
 33 66  1  0  0  0
 33 70  2  0  0  0
 34 36  1  0  0  0
 34 59  1  0  0  0
 34108  1  0  0  0
 35 44  2  0  0  0
 35 45  1  0  0  0
 35 68  1  0  0  0
 36 56  1  0  0  0
 36109  1  0  0  0
 37 39  1  0  0  0
 37 47  1  0  0  0
 37 66  1  0  0  0
 37110  1  0  0  0
 38 43  2  0  0  0
 38 46  1  0  0  0
 38 47  1  0  0  0
 39 64  1  0  0  0
 39 67  2  0  0  0
 40 52  1  0  0  0
 40 53  2  0  0  0
 40 58  1  0  0  0
 41111  1  0  0  0
 41112  1  0  0  0
 41113  1  0  0  0
 41 48  1  0  0  0
 42 43  1  0  0  0
 42 66  1  0  0  0
 42114  1  0  0  0
 42115  1  0  0  0
 43 44  1  0  0  0
 44116  1  0  0  0
 45 46  2  0  0  0
 45117  1  0  0  0
 46118  1  0  0  0
 47119  1  0  0  0
 47120  1  0  0  0
 48 56  1  0  0  0
 48 65  1  0  0  0
 48121  1  0  0  0
 49 50  1  0  0  0
 49 53  1  0  0  0
 49 64  1  0  0  0
 49122  1  0  0  0
 50 51  1  0  0  0
 50123  1  0  0  0
 50124  1  0  0  0
 51 52  1  0  0  0
 51125  1  0  0  0
 51126  1  0  0  0
 52127  1  0  0  0
 52128  1  0  0  0
 53 54  1  0  0  0
 54 55  2  0  0  0
 54129  1  0  0  0
 55 57  1  0  0  0
 55130  1  0  0  0
 56 69  2  0  0  0
 57 58  2  0  0  0
 57131  1  0  0  0
 58132  1  0  0  0
 59 60  1  0  0  0
 59 61  1  0  0  0
 59 62  1  0  0  0
 60133  1  0  0  0
 60134  1  0  0  0
 60135  1  0  0  0
 61136  1  0  0  0
 61137  1  0  0  0
 61138  1  0  0  0
 62139  1  0  0  0
 62140  1  0  0  0
 62141  1  0  0  0
 63 65  1  0  0  0
 63142  1  0  0  0
 63143  1  0  0  0
 63144  1  0  0  0
 64145  1  0  0  0
 65146  1  0  0  0
 68 80  1  0  0  0
 71 72  2  0  0  0
 71 73  1  0  0  0
 71147  1  0  0  0
 72 75  1  0  0  0
 72148  1  0  0  0
 73 74  2  0  0  0
 73 81  1  0  0  0
 74 76  1  0  0  0
 74 83  1  0  0  0
 75 76  2  0  0  0
 75 86  1  0  0  0
 76 87  1  0  0  0
 77 78  2  0  0  0
 77149  1  0  0  0
 77150  1  0  0  0
 78 83  1  0  0  0
 78151  1  0  0  0
 79 80  2  0  0  0
 79 84  1  0  0  0
 79152  1  0  0  0
 80153  1  0  0  0
 81 85  2  0  0  0
 82 87  1  0  0  0
 82154  1  0  0  0
 82155  1  0  0  0
 82156  1  0  0  0
 83157  1  0  0  0
 83158  1  0  0  0
 84 86  1  0  0  0
 84159  1  0  0  0
 84160  1  0  0  0
 85161  1  0  0  0
 86162  1  0  0  0
M  ISO  4   1 100  68 101  80 101  81 100
M  END
> <chiral flag>
0

> <version>
0

> <s_m_source_file>
/data/baiqing/PycharmProjects/Reinvent-master-3.2/result/LINK_invent/BTK/process_docking_weight1_custom_product_contain_oxygen_bond_distance_aromatic_linkinvent_7_9_3/rearranged_h_0111.sdf

> <i_m_source_file_index>
81

> <r_mmod_Potential_Energy-OPLS-2005>
249.532821655273

> <r_mmod_Stretch_Energy-OPLS-2005>
86.2314910888672

> <r_mmod_Bend_Energy-OPLS-2005>
159.027786254883

> <r_mmod_Torsional_Energy-OPLS-2005>
230.60563659668

> <r_mmod_Improper_Torsional_Energy-OPLS-2005>
8.07154846191406

> <r_mmod_Van_der_Waal_Energy-OPLS-2005>
164.26806640625

> <r_mmod_Electrostatic_Energy-OPLS-2005>
-246.566802978516

> <r_mmod_Solvation_Energy-OPLS-2005>
-195.379806518555

> <b_mmod_Minimization_Converged-OPLS-2005>
0

> <r_mmod_RMS_Derivative-OPLS-2005>
3.44903659820557

$$$$
83
                    3D
 Structure written by MMmdl.
161169  0  0  1  0            999 V2000
  -30.6691  -14.5795   20.4855 C   0  0  0  0  0  0
  -30.4292  -12.3345   19.4670 C   0  0  0  0  0  0
  -29.5090  -12.4425   18.2324 C   0  0  0  0  0  0
  -28.0229  -12.3462   18.6328 C   0  0  0  0  0  0
  -27.6583  -13.2125   19.8675 C   0  0  2  0  0  0
  -28.7042  -13.0616   20.9966 C   0  0  0  0  0  0
  -25.2604  -13.8166   20.5678 C   0  0  0  0  0  0
  -24.1835  -13.0463   20.9163 C   0  0  0  0  0  0
  -24.6374  -11.6919   20.8723 C   0  0  0  0  0  0
  -23.9033  -10.4319   21.0394 C   0  0  0  0  0  0
  -24.3599   -9.4256   21.9189 C   0  0  0  0  0  0
  -23.6296   -8.2275   22.0731 C   0  0  0  0  0  0
  -22.4289   -8.0287   21.3523 C   0  0  0  0  0  0
  -21.9915   -9.0258   20.4627 C   0  0  0  0  0  0
  -22.7213  -10.2151   20.3045 C   0  0  0  0  0  0
  -21.6859   -6.0741   22.5269 C   0  0  0  0  0  0
  -21.4005   -6.5648   23.8196 C   0  0  0  0  0  0
  -21.3674   -5.6806   24.9164 C   0  0  0  0  0  0
  -21.6056   -4.3069   24.7220 C   0  0  0  0  0  0
  -21.8820   -3.8149   23.4344 C   0  0  0  0  0  0
  -21.9189   -4.6965   22.3399 C   0  0  0  0  0  0
  -22.7874  -13.5275   21.1829 C   0  0  0  0  0  0
  -22.1660   -4.2147   21.0980 F   0  0  0  0  0  0
  -21.5646   -3.4567   25.7735 F   0  0  0  0  0  0
  -30.0238  -13.3733   20.4321 N   0  0  0  0  0  0
  -26.3024  -12.9335   20.3353 N   0  0  0  0  0  0
  -25.9312  -11.6494   20.5788 N   0  0  0  0  0  0
  -22.0550  -12.8228   22.0376 N   0  0  0  0  0  0
  -25.4395  -15.1870   20.4081 N   0  0  0  0  0  0
  -31.8340  -14.7078   20.1044 O   0  0  0  0  0  0
  -21.6657   -6.8880   21.4226 O   0  0  0  0  0  0
  -22.3568  -14.5622   20.6721 O   0  0  0  0  0  0
  -24.6211  -31.8639   23.2061 C   0  0  0  0  0  0
  -25.9080  -32.4795   23.8375 C   0  0  1  0  0  0
  -27.2520  -27.3873   20.1069 C   0  0  0  0  0  0
  -25.5935  -33.8597   24.2337 N   0  0  0  0  0  0
  -23.4127  -30.4852   21.5467 C   0  0  2  0  0  0
  -24.8608  -28.9398   20.1174 C   0  0  0  0  0  0
  -22.7439  -29.4667   22.4988 C   0  0  0  0  0  0
  -18.0281  -28.1410   22.8488 C   0  0  0  0  0  0
  -24.1494  -36.7296   23.2645 C   0  0  0  0  0  0
  -25.9423  -30.8200   21.3602 C   0  0  0  0  0  0
  -26.0212  -29.4469   20.7131 C   0  0  0  0  0  0
  -27.2124  -28.6785   20.6997 C   0  0  0  0  0  0
  -26.0596  -26.8997   19.5173 C   0  0  0  0  0  0
  -24.8784  -27.6697   19.5186 C   0  0  0  0  0  0
  -23.6218  -29.8082   20.1641 C   0  0  0  0  0  0
  -25.4110  -36.3104   24.0359 C   0  0  1  0  0  0
  -20.5877  -28.3710   23.1317 C   0  0  2  0  0  0
  -20.6781  -26.9441   22.5428 C   0  0  0  0  0  0
  -19.5752  -26.6406   21.5236 C   0  0  0  0  0  0
  -18.1932  -26.7961   22.1622 C   0  0  0  0  0  0
  -19.1521  -28.8875   23.2899 C   0  0  0  0  0  0
  -18.9441  -30.1483   23.8910 C   0  0  0  0  0  0
  -17.6434  -30.6611   24.0586 C   0  0  0  0  0  0
  -25.9038  -34.9464   23.5146 C   0  0  0  0  0  0
  -16.5329  -29.9106   23.6336 C   0  0  0  0  0  0
  -16.7267  -28.6523   23.0356 C   0  0  0  0  0  0
  -26.4519  -31.6570   25.0701 C   0  0  0  0  0  0
  -25.3751  -31.3618   26.1401 C   0  0  0  0  0  0
  -27.0389  -30.3032   24.6091 C   0  0  0  0  0  0
  -27.6108  -32.4272   25.7449 C   0  0  0  0  0  0
  -27.5596  -37.1796   24.8467 C   0  0  0  0  0  0
  -21.4157  -29.3071   22.3708 N   0  0  0  0  0  0
  -26.4290  -37.3795   23.9429 N   0  0  0  0  0  0
  -24.6769  -31.0721   22.0959 N   0  0  0  0  0  0
  -23.4168  -28.8210   23.3063 O   0  0  0  0  0  0
  -28.4520  -26.6785   20.1526 O   0  0  0  0  0  0
  -26.5590  -34.8925   22.4708 O   0  0  0  0  0  0
  -23.5385  -32.1386   23.7448 O   0  0  0  0  0  0
  -30.0022  -18.3176   18.1163 C   0  0  0  0  0  0
  -30.1827  -18.1930   20.9051 C   0  0  0  0  0  0
  -30.2918  -19.4910   18.8378 C   0  0  0  0  0  0
  -29.8330  -17.0843   18.7659 C   0  0  0  0  0  0
  -30.0056  -16.9748   20.1704 C   0  0  0  0  0  0
  -30.3006  -19.4692   20.2553 C   0  0  0  0  0  0
  -30.7144  -20.6727   18.0498 C   0  0  0  0  0  0
  -29.7635  -21.1262   16.9544 C   0  0  0  0  0  0
  -29.0050  -24.2468   20.6760 C   0  0  0  0  0  0
  -29.4768  -22.8567   20.1124 C   0  0  0  0  0  0
  -28.6269  -25.3375   19.6144 C   0  0  0  0  0  0
  -29.5569  -21.6702   21.1460 C   0  0  0  0  0  0
  -29.4804  -15.9925   17.9771 N   0  0  0  0  0  0
  -29.9149  -15.6682   20.8013 N   0  0  0  0  0  0
  -31.7700  -21.2833   18.2351 O   0  0  0  0  0  0
  -30.5675  -20.6316   20.9785 O   0  0  0  0  0  0
  -31.4743  -12.4289   19.1643 H   0  0  0  0  0  0
  -30.3445  -11.3469   19.9231 H   0  0  0  0  0  0
  -29.7481  -11.6448   17.5273 H   0  0  0  0  0  0
  -29.6999  -13.3695   17.6974 H   0  0  0  0  0  0
  -27.8097  -11.2980   18.8452 H   0  0  0  0  0  0
  -27.3922  -12.6167   17.7848 H   0  0  0  0  0  0
  -27.6833  -14.2476   19.5305 H   0  0  0  0  0  0
  -28.7001  -12.0433   21.3895 H   0  0  0  0  0  0
  -28.4672  -13.7134   21.8390 H   0  0  0  0  0  0
  -25.2743   -9.5766   22.4762 H   0  0  0  0  0  0
  -24.0017   -7.4685   22.7463 H   0  0  0  0  0  0
  -21.0832   -8.8738   19.8957 H   0  0  0  0  0  0
  -22.3634  -10.9665   19.6136 H   0  0  0  0  0  0
  -21.1970   -7.6156   23.9694 H   0  0  0  0  0  0
  -21.1505   -6.0547   25.9064 H   0  0  0  0  0  0
  -22.0582   -2.7611   23.2854 H   0  0  0  0  0  0
  -22.4182  -11.9844   22.4671 H   0  0  0  0  0  0
  -21.1182  -13.1220   22.2664 H   0  0  0  0  0  0
  -24.6832  -15.8543   20.5052 H   0  0  0  0  0  0
  -26.2942  -15.6126   20.0717 H   0  0  0  0  0  0
  -26.7153  -32.5510   23.1134 H   0  0  0  0  0  0
  -25.0130  -33.9736   25.0517 H   0  0  0  0  0  0
  -22.7024  -31.3021   21.3988 H   0  0  0  0  0  0
  -23.3784  -35.9594   23.3251 H   0  0  0  0  0  0
  -24.3607  -36.8957   22.2069 H   0  0  0  0  0  0
  -23.7191  -37.6467   23.6683 H   0  0  0  0  0  0
  -26.0548  -31.5833   20.5888 H   0  0  0  0  0  0
  -26.8306  -30.8804   21.9766 H   0  0  0  0  0  0
  -28.1108  -29.0735   21.1539 H   0  0  0  0  0  0
  -25.9925  -25.9232   19.0650 H   0  0  0  0  0  0
  -23.9801  -27.2712   19.0660 H   0  0  0  0  0  0
  -23.7262  -30.5751   19.3956 H   0  0  0  0  0  0
  -22.7467  -29.2207   19.8760 H   0  0  0  0  0  0
  -25.1290  -36.1960   25.0854 H   0  0  0  0  0  0
  -20.9967  -28.3292   24.1438 H   0  0  0  0  0  0
  -20.5743  -26.2318   23.3624 H   0  0  0  0  0  0
  -21.6648  -26.7526   22.1176 H   0  0  0  0  0  0
  -19.6926  -25.6316   21.1275 H   0  0  0  0  0  0
  -19.6705  -27.3210   20.6767 H   0  0  0  0  0  0
  -17.4222  -26.6752   21.4010 H   0  0  0  0  0  0
  -18.0283  -26.0085   22.8989 H   0  0  0  0  0  0
  -19.7907  -30.7322   24.2265 H   0  0  0  0  0  0
  -17.4979  -31.6295   24.5188 H   0  0  0  0  0  0
  -15.5330  -30.3021   23.7664 H   0  0  0  0  0  0
  -15.8656  -28.0866   22.7064 H   0  0  0  0  0  0
  -24.6006  -30.6905   25.7692 H   0  0  0  0  0  0
  -24.8827  -32.2709   26.4850 H   0  0  0  0  0  0
  -25.8058  -30.8777   27.0168 H   0  0  0  0  0  0
  -26.2945  -29.6709   24.1233 H   0  0  0  0  0  0
  -27.4279  -29.7362   25.4569 H   0  0  0  0  0  0
  -27.8725  -30.4399   23.9188 H   0  0  0  0  0  0
  -27.2817  -33.3635   26.1974 H   0  0  0  0  0  0
  -28.3938  -32.6703   25.0248 H   0  0  0  0  0  0
  -28.0747  -31.8385   26.5373 H   0  0  0  0  0  0
  -28.2572  -38.0144   24.7602 H   0  0  0  0  0  0
  -28.1138  -36.2676   24.6181 H   0  0  0  0  0  0
  -27.2320  -37.1300   25.8870 H   0  0  0  0  0  0
  -20.9330  -29.8726   21.6856 H   0  0  0  0  0  0
  -26.0181  -38.2873   24.1441 H   0  0  0  0  0  0
  -29.9457  -18.3637   17.0371 H   0  0  0  0  0  0
  -30.2608  -18.1504   21.9825 H   0  0  0  0  0  0
  -29.9694  -20.5847   16.0319 H   0  0  0  0  0  0
  -29.8781  -22.1940   16.7754 H   0  0  0  0  0  0
  -28.7328  -20.9388   17.2526 H   0  0  0  0  0  0
  -29.8140  -24.6397   21.2945 H   0  0  0  0  0  0
  -28.1616  -24.1019   21.3499 H   0  0  0  0  0  0
  -30.4603  -23.0180   19.6738 H   0  0  0  0  0  0
  -28.8169  -22.5658   19.2935 H   0  0  0  0  0  0
  -27.7957  -24.9812   19.0129 H   0  0  0  0  0  0
  -29.4533  -25.4237   18.9074 H   0  0  0  0  0  0
  -28.5748  -21.2183   21.2884 H   0  0  0  0  0  0
  -29.8000  -22.1201   22.1089 H   0  0  0  0  0  0
  -29.5047  -16.0535   16.9662 H   0  0  0  0  0  0
  -29.5115  -15.0523   18.3439 H   0  0  0  0  0  0
  -29.0311  -15.4707   21.2459 H   0  0  0  0  0  0
  1 25  1  0  0  0
  1 30  2  0  0  0
  1 84  1  0  0  0
  2  3  1  0  0  0
  2 25  1  0  0  0
  2 87  1  0  0  0
  2 88  1  0  0  0
  3  4  1  0  0  0
  3 89  1  0  0  0
  3 90  1  0  0  0
  4  5  1  0  0  0
  4 91  1  0  0  0
  4 92  1  0  0  0
  5  6  1  0  0  0
  5 26  1  0  0  0
  5 93  1  0  0  0
  6 25  1  0  0  0
  6 94  1  0  0  0
  6 95  1  0  0  0
  7  8  2  0  0  0
  7 26  1  0  0  0
  7 29  1  0  0  0
  8  9  1  0  0  0
  8 22  1  0  0  0
  9 10  1  0  0  0
  9 27  2  0  0  0
 10 11  2  0  0  0
 10 15  1  0  0  0
 11 12  1  0  0  0
 11 96  1  0  0  0
 12 13  2  0  0  0
 12 97  1  0  0  0
 13 14  1  0  0  0
 13 31  1  0  0  0
 14 15  2  0  0  0
 14 98  1  0  0  0
 15 99  1  0  0  0
 16 17  2  0  0  0
 16 21  1  0  0  0
 16 31  1  0  0  0
 17 18  1  0  0  0
 17100  1  0  0  0
 18 19  2  0  0  0
 18101  1  0  0  0
 19 20  1  0  0  0
 19 24  1  0  0  0
 20 21  2  0  0  0
 20102  1  0  0  0
 21 23  1  0  0  0
 22 28  1  0  0  0
 22 32  2  0  0  0
 26 27  1  0  0  0
 28103  1  0  0  0
 28104  1  0  0  0
 29105  1  0  0  0
 29106  1  0  0  0
 33 34  1  0  0  0
 33 66  1  0  0  0
 33 70  2  0  0  0
 34 36  1  0  0  0
 34 59  1  0  0  0
 34107  1  0  0  0
 35 44  2  0  0  0
 35 45  1  0  0  0
 35 68  1  0  0  0
 36 56  1  0  0  0
 36108  1  0  0  0
 37 39  1  0  0  0
 37 47  1  0  0  0
 37 66  1  0  0  0
 37109  1  0  0  0
 38 43  2  0  0  0
 38 46  1  0  0  0
 38 47  1  0  0  0
 39 64  1  0  0  0
 39 67  2  0  0  0
 40 52  1  0  0  0
 40 53  2  0  0  0
 40 58  1  0  0  0
 41110  1  0  0  0
 41111  1  0  0  0
 41112  1  0  0  0
 41 48  1  0  0  0
 42 43  1  0  0  0
 42 66  1  0  0  0
 42113  1  0  0  0
 42114  1  0  0  0
 43 44  1  0  0  0
 44115  1  0  0  0
 45 46  2  0  0  0
 45116  1  0  0  0
 46117  1  0  0  0
 47118  1  0  0  0
 47119  1  0  0  0
 48 56  1  0  0  0
 48 65  1  0  0  0
 48120  1  0  0  0
 49 50  1  0  0  0
 49 53  1  0  0  0
 49 64  1  0  0  0
 49121  1  0  0  0
 50 51  1  0  0  0
 50122  1  0  0  0
 50123  1  0  0  0
 51 52  1  0  0  0
 51124  1  0  0  0
 51125  1  0  0  0
 52126  1  0  0  0
 52127  1  0  0  0
 53 54  1  0  0  0
 54 55  2  0  0  0
 54128  1  0  0  0
 55 57  1  0  0  0
 55129  1  0  0  0
 56 69  2  0  0  0
 57 58  2  0  0  0
 57130  1  0  0  0
 58131  1  0  0  0
 59 60  1  0  0  0
 59 61  1  0  0  0
 59 62  1  0  0  0
 60132  1  0  0  0
 60133  1  0  0  0
 60134  1  0  0  0
 61135  1  0  0  0
 61136  1  0  0  0
 61137  1  0  0  0
 62138  1  0  0  0
 62139  1  0  0  0
 62140  1  0  0  0
 63 65  1  0  0  0
 63141  1  0  0  0
 63142  1  0  0  0
 63143  1  0  0  0
 64144  1  0  0  0
 65145  1  0  0  0
 68 81  1  0  0  0
 71 73  2  0  0  0
 71 74  1  0  0  0
 71146  1  0  0  0
 72 75  1  0  0  0
 72 76  2  0  0  0
 72147  1  0  0  0
 73 76  1  0  0  0
 73 77  1  0  0  0
 74 75  2  0  0  0
 74 83  1  0  0  0
 75 84  1  0  0  0
 76 86  1  0  0  0
 77 78  1  0  0  0
 77 85  2  0  0  0
 78148  1  0  0  0
 78149  1  0  0  0
 78150  1  0  0  0
 79 80  1  0  0  0
 79 81  1  0  0  0
 79151  1  0  0  0
 79152  1  0  0  0
 80 82  1  0  0  0
 80153  1  0  0  0
 80154  1  0  0  0
 81155  1  0  0  0
 81156  1  0  0  0
 82 86  1  0  0  0
 82157  1  0  0  0
 82158  1  0  0  0
 83159  1  0  0  0
 83160  1  0  0  0
 84161  1  0  0  0
M  ISO  4   1 100  68 101  81 101  84 100
M  END
> <chiral flag>
0

> <version>
0

> <s_m_source_file>
/data/baiqing/PycharmProjects/Reinvent-master-3.2/result/LINK_invent/BTK/process_docking_weight1_custom_product_contain_oxygen_bond_distance_aromatic_linkinvent_7_9_3/rearranged_h_0111.sdf

> <i_m_source_file_index>
82

> <r_mmod_Potential_Energy-OPLS-2005>
-24.7540817260742

> <r_mmod_Stretch_Energy-OPLS-2005>
59.4947280883789

> <r_mmod_Bend_Energy-OPLS-2005>
142.583450317383

> <r_mmod_Torsional_Energy-OPLS-2005>
319.044647216797

> <r_mmod_Improper_Torsional_Energy-OPLS-2005>
7.68205118179321

> <r_mmod_Van_der_Waal_Energy-OPLS-2005>
146.379028320312

> <r_mmod_Electrostatic_Energy-OPLS-2005>
-493.804229736328

> <r_mmod_Solvation_Energy-OPLS-2005>
-234.557464599609

> <b_mmod_Minimization_Converged-OPLS-2005>
0

> <r_mmod_RMS_Derivative-OPLS-2005>
3.82196950912476

$$$$
84
                    3D
 Structure written by MMmdl.
161169  0  0  1  0            999 V2000
  -30.6491  -14.6381   20.4274 C   0  0  0  0  0  0
  -30.4325  -12.3469   19.5019 C   0  0  0  0  0  0
  -29.5240  -12.4139   18.2587 C   0  0  0  0  0  0
  -28.0344  -12.3262   18.6452 C   0  0  0  0  0  0
  -27.6545  -13.2224   19.8558 C   0  0  2  0  0  0
  -28.6950  -13.1188   20.9940 C   0  0  0  0  0  0
  -25.2571  -13.8197   20.5686 C   0  0  0  0  0  0
  -24.1840  -13.0460   20.9185 C   0  0  0  0  0  0
  -24.6411  -11.6929   20.8739 C   0  0  0  0  0  0
  -23.9078  -10.4304   21.0402 C   0  0  0  0  0  0
  -24.3624   -9.4215   21.9180 C   0  0  0  0  0  0
  -23.6300   -8.2249   22.0754 C   0  0  0  0  0  0
  -22.4283   -8.0288   21.3545 C   0  0  0  0  0  0
  -21.9923   -9.0262   20.4646 C   0  0  0  0  0  0
  -22.7252  -10.2141   20.3054 C   0  0  0  0  0  0
  -21.6859   -6.0735   22.5276 C   0  0  0  0  0  0
  -21.4017   -6.5639   23.8212 C   0  0  0  0  0  0
  -21.3663   -5.6792   24.9177 C   0  0  0  0  0  0
  -21.6046   -4.3052   24.7223 C   0  0  0  0  0  0
  -21.8822   -3.8144   23.4342 C   0  0  0  0  0  0
  -21.9197   -4.6960   22.3398 C   0  0  0  0  0  0
  -22.7858  -13.5236   21.1856 C   0  0  0  0  0  0
  -22.1667   -4.2144   21.0973 F   0  0  0  0  0  0
  -21.5628   -3.4541   25.7739 F   0  0  0  0  0  0
  -30.0153  -13.4216   20.4250 N   0  0  0  0  0  0
  -26.3004  -12.9396   20.3294 N   0  0  0  0  0  0
  -25.9345  -11.6546   20.5772 N   0  0  0  0  0  0
  -22.0509  -12.8216   22.0402 N   0  0  0  0  0  0
  -25.4291  -15.1923   20.4115 N   0  0  0  0  0  0
  -31.8243  -14.7462   20.0672 O   0  0  0  0  0  0
  -21.6647   -6.8886   21.4240 O   0  0  0  0  0  0
  -22.3534  -14.5544   20.6715 O   0  0  0  0  0  0
  -24.6243  -31.8599   23.2042 C   0  0  0  0  0  0
  -25.9090  -32.4788   23.8370 C   0  0  1  0  0  0
  -27.2301  -27.3538   20.1169 C   0  0  0  0  0  0
  -25.5914  -33.8592   24.2295 N   0  0  0  0  0  0
  -23.4194  -30.4841   21.5435 C   0  0  2  0  0  0
  -24.8729  -28.9512   20.0994 C   0  0  0  0  0  0
  -22.7471  -29.4624   22.4912 C   0  0  0  0  0  0
  -18.0286  -28.1398   22.8499 C   0  0  0  0  0  0
  -24.1481  -36.7298   23.2635 C   0  0  0  0  0  0
  -25.9579  -30.8042   21.3710 C   0  0  0  0  0  0
  -26.0388  -29.4366   20.7089 C   0  0  0  0  0  0
  -27.2245  -28.6462   20.7157 C   0  0  0  0  0  0
  -26.0533  -26.9195   19.4701 C   0  0  0  0  0  0
  -24.8803  -27.6965   19.4690 C   0  0  0  0  0  0
  -23.6351  -29.8221   20.1562 C   0  0  0  0  0  0
  -25.4107  -36.3097   24.0331 C   0  0  1  0  0  0
  -20.5886  -28.3704   23.1284 C   0  0  2  0  0  0
  -20.6771  -26.9419   22.5434 C   0  0  0  0  0  0
  -19.5754  -26.6396   21.5232 C   0  0  0  0  0  0
  -18.1922  -26.7950   22.1626 C   0  0  0  0  0  0
  -19.1540  -28.8868   23.2890 C   0  0  0  0  0  0
  -18.9464  -30.1475   23.8904 C   0  0  0  0  0  0
  -17.6461  -30.6599   24.0583 C   0  0  0  0  0  0
  -25.9047  -34.9459   23.5112 C   0  0  0  0  0  0
  -16.5355  -29.9106   23.6330 C   0  0  0  0  0  0
  -16.7276  -28.6521   23.0357 C   0  0  0  0  0  0
  -26.4479  -31.6590   25.0732 C   0  0  0  0  0  0
  -25.3720  -31.3708   26.1459 C   0  0  0  0  0  0
  -27.0317  -30.3019   24.6165 C   0  0  0  0  0  0
  -27.6047  -32.4319   25.7491 C   0  0  0  0  0  0
  -27.5590  -37.1786   24.8449 C   0  0  0  0  0  0
  -21.4184  -29.3045   22.3663 N   0  0  0  0  0  0
  -26.4277  -37.3803   23.9427 N   0  0  0  0  0  0
  -24.6858  -31.0634   22.0977 N   0  0  0  0  0  0
  -23.4197  -28.8160   23.2987 O   0  0  0  0  0  0
  -28.2634  -26.4241   20.2558 O   0  0  0  0  0  0
  -26.5620  -34.8922   22.4682 O   0  0  0  0  0  0
  -23.5414  -32.1370   23.7391 O   0  0  0  0  0  0
  -29.8895  -18.3129   20.5705 C   0  0  0  0  0  0
  -29.6188  -18.1808   17.8034 C   0  0  0  0  0  0
  -29.7856  -19.5521   19.8327 C   0  0  0  0  0  0
  -29.6630  -19.4429   18.4202 C   0  0  0  0  0  0
  -29.8757  -17.0129   19.9419 C   0  0  0  0  0  0
  -29.7096  -16.9704   18.5303 C   0  0  0  0  0  0
  -27.8865  -25.3457   21.0697 C   0  0  0  0  0  0
  -29.8813  -20.9574   20.4422 C   0  0  0  0  0  0
  -28.2285  -24.0144   21.1388 C   0  0  0  0  0  0
  -29.2529  -23.2768   20.3674 C   0  0  0  0  0  0
  -29.5925  -20.6628   17.5032 C   0  0  0  0  0  0
  -31.1806  -21.2014   21.1991 C   0  0  0  0  0  0
  -29.2974  -15.7134   16.5101 C   0  0  0  0  0  0
  -28.9850  -21.8858   20.2441 N   0  0  0  0  0  0
  -29.8964  -15.7527   20.6935 N   0  0  0  0  0  0
  -30.2462  -23.8307   19.8949 O   0  0  0  0  0  0
  -27.5507  -23.2836   22.0417 O   0  0  0  0  0  0
  -29.6121  -15.7444   17.9031 O   0  0  0  0  0  0
  -31.4810  -12.4318   19.2096 H   0  0  0  0  0  0
  -30.3377  -11.3760   19.9916 H   0  0  0  0  0  0
  -29.7751  -11.6110   17.5642 H   0  0  0  0  0  0
  -29.7293  -13.3330   17.7272 H   0  0  0  0  0  0
  -27.8300  -11.2822   18.8840 H   0  0  0  0  0  0
  -27.4061  -12.5660   17.7864 H   0  0  0  0  0  0
  -27.6662  -14.2498   19.4907 H   0  0  0  0  0  0
  -28.6911  -12.1183   21.4279 H   0  0  0  0  0  0
  -28.4509  -13.8015   21.8090 H   0  0  0  0  0  0
  -25.2774   -9.5684   22.4750 H   0  0  0  0  0  0
  -24.0010   -7.4639   22.7476 H   0  0  0  0  0  0
  -21.0857   -8.8789   19.8947 H   0  0  0  0  0  0
  -22.3721  -10.9681   19.6161 H   0  0  0  0  0  0
  -21.2011   -7.6151   23.9712 H   0  0  0  0  0  0
  -21.1483   -6.0527   25.9081 H   0  0  0  0  0  0
  -22.0594   -2.7605   23.2854 H   0  0  0  0  0  0
  -22.4148  -11.9884   22.4782 H   0  0  0  0  0  0
  -21.1119  -13.1217   22.2607 H   0  0  0  0  0  0
  -24.6647  -15.8498   20.5231 H   0  0  0  0  0  0
  -26.2827  -15.6280   20.0867 H   0  0  0  0  0  0
  -26.7173  -32.5471   23.1138 H   0  0  0  0  0  0
  -25.0049  -33.9741   25.0434 H   0  0  0  0  0  0
  -22.7135  -31.3048   21.4017 H   0  0  0  0  0  0
  -23.3768  -35.9601   23.3253 H   0  0  0  0  0  0
  -24.3581  -36.8975   22.2059 H   0  0  0  0  0  0
  -23.7180  -37.6466   23.6685 H   0  0  0  0  0  0
  -26.0806  -31.5703   20.6044 H   0  0  0  0  0  0
  -26.8395  -30.8551   21.9980 H   0  0  0  0  0  0
  -28.1081  -28.9963   21.2308 H   0  0  0  0  0  0
  -26.0281  -25.9406   19.0127 H   0  0  0  0  0  0
  -23.9873  -27.3155   18.9939 H   0  0  0  0  0  0
  -23.7460  -30.6005   19.4005 H   0  0  0  0  0  0
  -22.7585  -29.2470   19.8535 H   0  0  0  0  0  0
  -25.1271  -36.1956   25.0820 H   0  0  0  0  0  0
  -20.9990  -28.3292   24.1402 H   0  0  0  0  0  0
  -20.5680  -26.2307   23.3639 H   0  0  0  0  0  0
  -21.6639  -26.7443   22.1228 H   0  0  0  0  0  0
  -19.6905  -25.6313   21.1248 H   0  0  0  0  0  0
  -19.6694  -27.3220   20.6773 H   0  0  0  0  0  0
  -17.4205  -26.6744   21.4009 H   0  0  0  0  0  0
  -18.0285  -26.0081   22.9000 H   0  0  0  0  0  0
  -19.7940  -30.7303   24.2261 H   0  0  0  0  0  0
  -17.5011  -31.6261   24.5217 H   0  0  0  0  0  0
  -15.5358  -30.3016   23.7631 H   0  0  0  0  0  0
  -15.8679  -28.0847   22.7055 H   0  0  0  0  0  0
  -24.5979  -30.6943   25.7811 H   0  0  0  0  0  0
  -24.8804  -32.2856   26.4784 H   0  0  0  0  0  0
  -25.8077  -30.9004   27.0286 H   0  0  0  0  0  0
  -26.2885  -29.6782   24.1185 H   0  0  0  0  0  0
  -27.4017  -29.7256   25.4654 H   0  0  0  0  0  0
  -27.8752  -30.4313   23.9380 H   0  0  0  0  0  0
  -27.2675  -33.3638   26.2041 H   0  0  0  0  0  0
  -28.3866  -32.6844   25.0317 H   0  0  0  0  0  0
  -28.0699  -31.8455   26.5427 H   0  0  0  0  0  0
  -28.2556  -38.0139   24.7595 H   0  0  0  0  0  0
  -28.1141  -36.2673   24.6150 H   0  0  0  0  0  0
  -27.2324  -37.1298   25.8854 H   0  0  0  0  0  0
  -20.9358  -29.8779   21.6891 H   0  0  0  0  0  0
  -26.0160  -38.2859   24.1520 H   0  0  0  0  0  0
  -29.9914  -18.3648   21.6447 H   0  0  0  0  0  0
  -29.5091  -18.1724   16.7304 H   0  0  0  0  0  0
  -27.1335  -25.6873   21.7698 H   0  0  0  0  0  0
  -29.7122  -20.3944   16.4526 H   0  0  0  0  0  0
  -30.3787  -21.3833   17.7335 H   0  0  0  0  0  0
  -28.6266  -21.1596   17.6022 H   0  0  0  0  0  0
  -31.6475  -20.2618   21.4936 H   0  0  0  0  0  0
  -30.9990  -21.7756   22.1072 H   0  0  0  0  0  0
  -31.8912  -21.7410   20.5732 H   0  0  0  0  0  0
  -29.2318  -14.6899   16.1465 H   0  0  0  0  0  0
  -30.0624  -16.2051   15.9082 H   0  0  0  0  0  0
  -28.3292  -16.1762   16.3153 H   0  0  0  0  0  0
  -29.0481  -15.5585   21.2026 H   0  0  0  0  0  0
  -26.9242  -23.8530   22.4661 H   0  0  0  0  0  0
  1 25  1  0  0  0
  1 30  2  0  0  0
  1 85  1  0  0  0
  2  3  1  0  0  0
  2 25  1  0  0  0
  2 89  1  0  0  0
  2 90  1  0  0  0
  3  4  1  0  0  0
  3 91  1  0  0  0
  3 92  1  0  0  0
  4  5  1  0  0  0
  4 93  1  0  0  0
  4 94  1  0  0  0
  5  6  1  0  0  0
  5 26  1  0  0  0
  5 95  1  0  0  0
  6 25  1  0  0  0
  6 96  1  0  0  0
  6 97  1  0  0  0
  7  8  2  0  0  0
  7 26  1  0  0  0
  7 29  1  0  0  0
  8  9  1  0  0  0
  8 22  1  0  0  0
  9 10  1  0  0  0
  9 27  2  0  0  0
 10 11  2  0  0  0
 10 15  1  0  0  0
 11 12  1  0  0  0
 11 98  1  0  0  0
 12 13  2  0  0  0
 12 99  1  0  0  0
 13 14  1  0  0  0
 13 31  1  0  0  0
 14 15  2  0  0  0
 14100  1  0  0  0
 15101  1  0  0  0
 16 17  2  0  0  0
 16 21  1  0  0  0
 16 31  1  0  0  0
 17 18  1  0  0  0
 17102  1  0  0  0
 18 19  2  0  0  0
 18103  1  0  0  0
 19 20  1  0  0  0
 19 24  1  0  0  0
 20 21  2  0  0  0
 20104  1  0  0  0
 21 23  1  0  0  0
 22 28  1  0  0  0
 22 32  2  0  0  0
 26 27  1  0  0  0
 28105  1  0  0  0
 28106  1  0  0  0
 29107  1  0  0  0
 29108  1  0  0  0
 33 34  1  0  0  0
 33 66  1  0  0  0
 33 70  2  0  0  0
 34 36  1  0  0  0
 34 59  1  0  0  0
 34109  1  0  0  0
 35 44  2  0  0  0
 35 45  1  0  0  0
 35 68  1  0  0  0
 36 56  1  0  0  0
 36110  1  0  0  0
 37 39  1  0  0  0
 37 47  1  0  0  0
 37 66  1  0  0  0
 37111  1  0  0  0
 38 43  2  0  0  0
 38 46  1  0  0  0
 38 47  1  0  0  0
 39 64  1  0  0  0
 39 67  2  0  0  0
 40 52  1  0  0  0
 40 53  2  0  0  0
 40 58  1  0  0  0
 41112  1  0  0  0
 41113  1  0  0  0
 41114  1  0  0  0
 41 48  1  0  0  0
 42 43  1  0  0  0
 42 66  1  0  0  0
 42115  1  0  0  0
 42116  1  0  0  0
 43 44  1  0  0  0
 44117  1  0  0  0
 45 46  2  0  0  0
 45118  1  0  0  0
 46119  1  0  0  0
 47120  1  0  0  0
 47121  1  0  0  0
 48 56  1  0  0  0
 48 65  1  0  0  0
 48122  1  0  0  0
 49 50  1  0  0  0
 49 53  1  0  0  0
 49 64  1  0  0  0
 49123  1  0  0  0
 50 51  1  0  0  0
 50124  1  0  0  0
 50125  1  0  0  0
 51 52  1  0  0  0
 51126  1  0  0  0
 51127  1  0  0  0
 52128  1  0  0  0
 52129  1  0  0  0
 53 54  1  0  0  0
 54 55  2  0  0  0
 54130  1  0  0  0
 55 57  1  0  0  0
 55131  1  0  0  0
 56 69  2  0  0  0
 57 58  2  0  0  0
 57132  1  0  0  0
 58133  1  0  0  0
 59 60  1  0  0  0
 59 61  1  0  0  0
 59 62  1  0  0  0
 60134  1  0  0  0
 60135  1  0  0  0
 60136  1  0  0  0
 61137  1  0  0  0
 61138  1  0  0  0
 61139  1  0  0  0
 62140  1  0  0  0
 62141  1  0  0  0
 62142  1  0  0  0
 63 65  1  0  0  0
 63143  1  0  0  0
 63144  1  0  0  0
 63145  1  0  0  0
 64146  1  0  0  0
 65147  1  0  0  0
 68 77  1  0  0  0
 71 73  2  0  0  0
 71 75  1  0  0  0
 71148  1  0  0  0
 72 74  2  0  0  0
 72 76  1  0  0  0
 72149  1  0  0  0
 73 74  1  0  0  0
 73 78  1  0  0  0
 74 81  1  0  0  0
 75 76  2  0  0  0
 75 85  1  0  0  0
 76 88  1  0  0  0
 77 79  2  0  0  0
 77150  1  0  0  0
 78 82  1  0  0  0
 78 84  2  0  0  0
 79 80  1  0  0  0
 79 87  1  0  0  0
 80 84  1  0  0  0
 80 86  2  0  0  0
 81151  1  0  0  0
 81152  1  0  0  0
 81153  1  0  0  0
 82154  1  0  0  0
 82155  1  0  0  0
 82156  1  0  0  0
 83 88  1  0  0  0
 83157  1  0  0  0
 83158  1  0  0  0
 83159  1  0  0  0
 85160  1  0  0  0
 87161  1  0  0  0
M  ISO  4   1 100  68 101  77 101  85 100
M  END
> <chiral flag>
0

> <version>
0

> <s_m_source_file>
/data/baiqing/PycharmProjects/Reinvent-master-3.2/result/LINK_invent/BTK/process_docking_weight1_custom_product_contain_oxygen_bond_distance_aromatic_linkinvent_7_9_3/rearranged_h_0111.sdf

> <i_m_source_file_index>
83

> <r_mmod_Potential_Energy-OPLS-2005>
132.555267333984

> <r_mmod_Stretch_Energy-OPLS-2005>
80.3041381835938

> <r_mmod_Bend_Energy-OPLS-2005>
162.482803344727

> <r_mmod_Torsional_Energy-OPLS-2005>
304.028900146484

> <r_mmod_Improper_Torsional_Energy-OPLS-2005>
6.96904754638672

> <r_mmod_Van_der_Waal_Energy-OPLS-2005>
169.33740234375

> <r_mmod_Electrostatic_Energy-OPLS-2005>
-425.278961181641

> <r_mmod_Solvation_Energy-OPLS-2005>
-223.322799682617

> <b_mmod_Minimization_Converged-OPLS-2005>
0

> <r_mmod_RMS_Derivative-OPLS-2005>
1.48364663124084

$$$$
85
                    3D
 Structure written by MMmdl.
152161  0  0  1  0            999 V2000
  -30.6092  -14.8584   20.4519 C   0  0  0  0  0  0
  -30.4278  -12.5360   19.4817 C   0  0  0  0  0  0
  -29.5093  -12.5042   18.2419 C   0  0  0  0  0  0
  -28.0422  -12.3082   18.6662 C   0  0  0  0  0  0
  -27.6277  -13.2429   19.8336 C   0  0  2  0  0  0
  -28.6742  -13.2638   20.9672 C   0  0  0  0  0  0
  -25.2457  -13.8210   20.5715 C   0  0  0  0  0  0
  -24.1773  -13.0439   20.9239 C   0  0  0  0  0  0
  -24.6383  -11.6922   20.8771 C   0  0  0  0  0  0
  -23.9070  -10.4290   21.0416 C   0  0  0  0  0  0
  -24.3622   -9.4199   21.9183 C   0  0  0  0  0  0
  -23.6298   -8.2237   22.0750 C   0  0  0  0  0  0
  -22.4280   -8.0275   21.3539 C   0  0  0  0  0  0
  -21.9913   -9.0252   20.4645 C   0  0  0  0  0  0
  -22.7244  -10.2134   20.3057 C   0  0  0  0  0  0
  -21.6852   -6.0735   22.5278 C   0  0  0  0  0  0
  -21.4018   -6.5643   23.8213 C   0  0  0  0  0  0
  -21.3663   -5.6795   24.9175 C   0  0  0  0  0  0
  -21.6041   -4.3058   24.7229 C   0  0  0  0  0  0
  -21.8817   -3.8149   23.4351 C   0  0  0  0  0  0
  -21.9194   -4.6964   22.3405 C   0  0  0  0  0  0
  -22.7796  -13.5215   21.1894 C   0  0  0  0  0  0
  -22.1658   -4.2150   21.0982 F   0  0  0  0  0  0
  -21.5627   -3.4539   25.7741 F   0  0  0  0  0  0
  -29.9536  -13.6409   20.3561 N   0  0  0  0  0  0
  -26.2873  -12.9435   20.3242 N   0  0  0  0  0  0
  -25.9310  -11.6568   20.5752 N   0  0  0  0  0  0
  -22.0454  -12.8203   22.0455 N   0  0  0  0  0  0
  -25.4113  -15.1939   20.4141 N   0  0  0  0  0  0
  -31.8185  -14.8738   20.1993 O   0  0  0  0  0  0
  -21.6636   -6.8876   21.4238 O   0  0  0  0  0  0
  -22.3479  -14.5516   20.6732 O   0  0  0  0  0  0
  -24.6383  -31.8490   23.1926 C   0  0  0  0  0  0
  -25.9176  -32.4722   23.8300 C   0  0  1  0  0  0
  -27.2178  -27.1960   20.1429 C   0  0  0  0  0  0
  -25.5946  -33.8527   24.2218 N   0  0  0  0  0  0
  -23.4402  -30.4693   21.5368 C   0  0  2  0  0  0
  -24.8912  -28.9049   20.1119 C   0  0  0  0  0  0
  -22.7546  -29.4566   22.4875 C   0  0  0  0  0  0
  -18.0303  -28.1388   22.8479 C   0  0  0  0  0  0
  -24.1493  -36.7273   23.2641 C   0  0  0  0  0  0
  -25.9922  -30.7410   21.3843 C   0  0  0  0  0  0
  -26.0669  -29.3564   20.7282 C   0  0  0  0  0  0
  -27.2371  -28.5155   20.7315 C   0  0  0  0  0  0
  -26.0213  -26.8284   19.4968 C   0  0  0  0  0  0
  -24.8766  -27.6507   19.4828 C   0  0  0  0  0  0
  -23.6653  -29.8006   20.1551 C   0  0  0  0  0  0
  -25.4122  -36.3051   24.0319 C   0  0  1  0  0  0
  -20.5913  -28.3712   23.1245 C   0  0  2  0  0  0
  -20.6788  -26.9419   22.5404 C   0  0  0  0  0  0
  -19.5762  -26.6377   21.5211 C   0  0  0  0  0  0
  -18.1943  -26.7926   22.1625 C   0  0  0  0  0  0
  -19.1558  -28.8867   23.2856 C   0  0  0  0  0  0
  -18.9475  -30.1464   23.8879 C   0  0  0  0  0  0
  -17.6472  -30.6588   24.0558 C   0  0  0  0  0  0
  -25.9066  -34.9422   23.5075 C   0  0  0  0  0  0
  -16.5363  -29.9082   23.6332 C   0  0  0  0  0  0
  -16.7287  -28.6499   23.0356 C   0  0  0  0  0  0
  -26.4522  -31.6571   25.0717 C   0  0  0  0  0  0
  -25.3725  -31.3749   26.1426 C   0  0  0  0  0  0
  -27.0375  -30.2971   24.6257 C   0  0  0  0  0  0
  -27.6058  -32.4331   25.7499 C   0  0  0  0  0  0
  -27.5579  -37.1792   24.8465 C   0  0  0  0  0  0
  -21.4243  -29.3046   22.3622 N   0  0  0  0  0  0
  -26.4291  -37.3756   23.9406 N   0  0  0  0  0  0
  -24.7094  -31.0394   22.0935 N   0  0  0  0  0  0
  -23.4209  -28.8113   23.3009 O   0  0  0  0  0  0
  -28.2462  -26.2062   20.1573 O   0  0  0  0  0  0
  -26.5646  -34.8910   22.4649 O   0  0  0  0  0  0
  -23.5513  -32.1340   23.7174 O   0  0  0  0  0  0
  -31.0881  -19.3957   21.9465 C   0  0  0  0  0  0
  -30.1678  -18.7664   21.0351 C   0  0  0  0  0  0
  -30.3514  -17.3167   21.1095 C   0  0  0  0  0  0
  -28.2811  -23.6176   20.8651 C   0  0  0  0  0  0
  -28.0114  -25.0067   20.9176 C   0  0  0  0  0  0
  -29.4089  -19.8605   20.1526 C   0  0  0  0  0  0
  -27.8331  -22.7440   22.0199 C   0  0  0  0  0  0
  -28.9502  -22.5290   19.9216 C   0  0  0  0  0  0
  -28.6576  -21.4304   22.0111 C   0  0  0  0  0  0
  -31.8136  -18.6605   22.7502 N   0  0  0  0  0  0
  -29.1154  -21.1661   20.6411 N   0  0  0  0  0  0
  -29.9026  -16.0829   20.5528 N   0  0  0  0  0  0
  -29.1797  -19.5990   18.9690 O   0  0  0  0  0  0
  -31.4835  -17.0710   22.4303 S   0  0  0  0  0  0
  -31.4652  -12.6674   19.1708 H   0  0  0  0  0  0
  -30.3940  -11.5843   20.0147 H   0  0  0  0  0  0
  -29.8127  -11.7028   17.5665 H   0  0  0  0  0  0
  -29.6119  -13.4351   17.6824 H   0  0  0  0  0  0
  -27.9302  -11.2677   18.9738 H   0  0  0  0  0  0
  -27.3773  -12.4442   17.8129 H   0  0  0  0  0  0
  -27.5932  -14.2454   19.4070 H   0  0  0  0  0  0
  -28.7443  -12.2925   21.4585 H   0  0  0  0  0  0
  -28.3902  -13.9835   21.7370 H   0  0  0  0  0  0
  -25.2768   -9.5677   22.4760 H   0  0  0  0  0  0
  -24.0002   -7.4629   22.7476 H   0  0  0  0  0  0
  -21.0839   -8.8780   19.8961 H   0  0  0  0  0  0
  -22.3697  -10.9675   19.6174 H   0  0  0  0  0  0
  -21.2006   -7.6150   23.9721 H   0  0  0  0  0  0
  -21.1487   -6.0523   25.9080 H   0  0  0  0  0  0
  -22.0593   -2.7611   23.2855 H   0  0  0  0  0  0
  -22.4083  -11.9865   22.4828 H   0  0  0  0  0  0
  -21.1068  -13.1219   22.2662 H   0  0  0  0  0  0
  -24.6409  -15.8438   20.5281 H   0  0  0  0  0  0
  -26.2522  -15.6380   20.0701 H   0  0  0  0  0  0
  -26.7240  -32.5353   23.1034 H   0  0  0  0  0  0
  -25.0084  -33.9655   25.0359 H   0  0  0  0  0  0
  -22.7401  -31.2934   21.3846 H   0  0  0  0  0  0
  -23.3755  -35.9606   23.3297 H   0  0  0  0  0  0
  -24.3580  -36.8907   22.2056 H   0  0  0  0  0  0
  -23.7248  -37.6470   23.6676 H   0  0  0  0  0  0
  -26.1401  -31.4979   20.6129 H   0  0  0  0  0  0
  -26.8652  -30.7919   22.0231 H   0  0  0  0  0  0
  -28.1357  -28.8530   21.2282 H   0  0  0  0  0  0
  -25.9629  -25.8587   19.0228 H   0  0  0  0  0  0
  -23.9785  -27.2984   18.9942 H   0  0  0  0  0  0
  -23.7987  -30.5759   19.3997 H   0  0  0  0  0  0
  -22.7819  -29.2396   19.8444 H   0  0  0  0  0  0
  -25.1309  -36.1888   25.0811 H   0  0  0  0  0  0
  -21.0006  -28.3295   24.1366 H   0  0  0  0  0  0
  -20.5683  -26.2325   23.3619 H   0  0  0  0  0  0
  -21.6654  -26.7430   22.1200 H   0  0  0  0  0  0
  -19.6926  -25.6284   21.1253 H   0  0  0  0  0  0
  -19.6699  -27.3177   20.6731 H   0  0  0  0  0  0
  -17.4212  -26.6667   21.4029 H   0  0  0  0  0  0
  -18.0349  -26.0072   22.9027 H   0  0  0  0  0  0
  -19.7951  -30.7283   24.2242 H   0  0  0  0  0  0
  -17.5027  -31.6266   24.5163 H   0  0  0  0  0  0
  -15.5363  -30.2979   23.7666 H   0  0  0  0  0  0
  -15.8688  -28.0811   22.7084 H   0  0  0  0  0  0
  -24.5891  -30.7113   25.7749 H   0  0  0  0  0  0
  -24.8935  -32.2930   26.4833 H   0  0  0  0  0  0
  -25.8024  -30.8928   27.0214 H   0  0  0  0  0  0
  -26.2973  -29.6706   24.1264 H   0  0  0  0  0  0
  -27.4006  -29.7258   25.4811 H   0  0  0  0  0  0
  -27.8879  -30.4221   23.9550 H   0  0  0  0  0  0
  -27.2647  -33.3638   26.2046 H   0  0  0  0  0  0
  -28.3883  -32.6881   25.0339 H   0  0  0  0  0  0
  -28.0709  -31.8477   26.5440 H   0  0  0  0  0  0
  -28.2593  -38.0091   24.7506 H   0  0  0  0  0  0
  -28.1077  -36.2619   24.6299 H   0  0  0  0  0  0
  -27.2295  -37.1449   25.8868 H   0  0  0  0  0  0
  -20.9446  -29.8764   21.6811 H   0  0  0  0  0  0
  -26.0164  -38.2827   24.1407 H   0  0  0  0  0  0
  -31.2537  -20.4598   22.0217 H   0  0  0  0  0  0
  -27.4835  -25.3189   21.8095 H   0  0  0  0  0  0
  -26.7792  -22.5082   21.8648 H   0  0  0  0  0  0
  -27.9089  -23.2630   22.9768 H   0  0  0  0  0  0
  -29.9203  -22.8876   19.5775 H   0  0  0  0  0  0
  -28.3240  -22.3920   19.0396 H   0  0  0  0  0  0
  -28.0738  -20.5979   22.4080 H   0  0  0  0  0  0
  -29.5167  -21.5665   22.6663 H   0  0  0  0  0  0
  -28.9102  -16.0186   20.3869 H   0  0  0  0  0  0
  1 25  1  0  0  0
  1 30  2  0  0  0
  1 82  1  0  0  0
  2  3  1  0  0  0
  2 25  1  0  0  0
  2 85  1  0  0  0
  2 86  1  0  0  0
  3  4  1  0  0  0
  3 87  1  0  0  0
  3 88  1  0  0  0
  4  5  1  0  0  0
  4 89  1  0  0  0
  4 90  1  0  0  0
  5  6  1  0  0  0
  5 26  1  0  0  0
  5 91  1  0  0  0
  6 25  1  0  0  0
  6 92  1  0  0  0
  6 93  1  0  0  0
  7  8  2  0  0  0
  7 26  1  0  0  0
  7 29  1  0  0  0
  8  9  1  0  0  0
  8 22  1  0  0  0
  9 10  1  0  0  0
  9 27  2  0  0  0
 10 11  2  0  0  0
 10 15  1  0  0  0
 11 12  1  0  0  0
 11 94  1  0  0  0
 12 13  2  0  0  0
 12 95  1  0  0  0
 13 14  1  0  0  0
 13 31  1  0  0  0
 14 15  2  0  0  0
 14 96  1  0  0  0
 15 97  1  0  0  0
 16 17  2  0  0  0
 16 21  1  0  0  0
 16 31  1  0  0  0
 17 18  1  0  0  0
 17 98  1  0  0  0
 18 19  2  0  0  0
 18 99  1  0  0  0
 19 20  1  0  0  0
 19 24  1  0  0  0
 20 21  2  0  0  0
 20100  1  0  0  0
 21 23  1  0  0  0
 22 28  1  0  0  0
 22 32  2  0  0  0
 26 27  1  0  0  0
 28101  1  0  0  0
 28102  1  0  0  0
 29103  1  0  0  0
 29104  1  0  0  0
 33 34  1  0  0  0
 33 66  1  0  0  0
 33 70  2  0  0  0
 34 36  1  0  0  0
 34 59  1  0  0  0
 34105  1  0  0  0
 35 44  2  0  0  0
 35 45  1  0  0  0
 35 68  1  0  0  0
 36 56  1  0  0  0
 36106  1  0  0  0
 37 39  1  0  0  0
 37 47  1  0  0  0
 37 66  1  0  0  0
 37107  1  0  0  0
 38 43  2  0  0  0
 38 46  1  0  0  0
 38 47  1  0  0  0
 39 64  1  0  0  0
 39 67  2  0  0  0
 40 52  1  0  0  0
 40 53  2  0  0  0
 40 58  1  0  0  0
 41108  1  0  0  0
 41109  1  0  0  0
 41110  1  0  0  0
 41 48  1  0  0  0
 42 43  1  0  0  0
 42 66  1  0  0  0
 42111  1  0  0  0
 42112  1  0  0  0
 43 44  1  0  0  0
 44113  1  0  0  0
 45 46  2  0  0  0
 45114  1  0  0  0
 46115  1  0  0  0
 47116  1  0  0  0
 47117  1  0  0  0
 48 56  1  0  0  0
 48 65  1  0  0  0
 48118  1  0  0  0
 49 50  1  0  0  0
 49 53  1  0  0  0
 49 64  1  0  0  0
 49119  1  0  0  0
 50 51  1  0  0  0
 50120  1  0  0  0
 50121  1  0  0  0
 51 52  1  0  0  0
 51122  1  0  0  0
 51123  1  0  0  0
 52124  1  0  0  0
 52125  1  0  0  0
 53 54  1  0  0  0
 54 55  2  0  0  0
 54126  1  0  0  0
 55 57  1  0  0  0
 55127  1  0  0  0
 56 69  2  0  0  0
 57 58  2  0  0  0
 57128  1  0  0  0
 58129  1  0  0  0
 59 60  1  0  0  0
 59 61  1  0  0  0
 59 62  1  0  0  0
 60130  1  0  0  0
 60131  1  0  0  0
 60132  1  0  0  0
 61133  1  0  0  0
 61134  1  0  0  0
 61135  1  0  0  0
 62136  1  0  0  0
 62137  1  0  0  0
 62138  1  0  0  0
 63 65  1  0  0  0
 63139  1  0  0  0
 63140  1  0  0  0
 63141  1  0  0  0
 64142  1  0  0  0
 65143  1  0  0  0
 68 75  1  0  0  0
 71 72  1  0  0  0
 71 80  2  0  0  0
 71144  1  0  0  0
 72 73  2  0  0  0
 72 76  1  0  0  0
 73 82  1  0  0  0
 73 84  1  0  0  0
 74 75  2  0  0  0
 74 77  1  0  0  0
 74 78  1  0  0  0
 75145  1  0  0  0
 76 81  1  0  0  0
 76 83  2  0  0  0
 77 79  1  0  0  0
 77146  1  0  0  0
 77147  1  0  0  0
 78 81  1  0  0  0
 78148  1  0  0  0
 78149  1  0  0  0
 79 81  1  0  0  0
 79150  1  0  0  0
 79151  1  0  0  0
 80 84  1  0  0  0
 82152  1  0  0  0
M  ISO  4   1 100  68 101  75 101  82 100
M  END
> <chiral flag>
0

> <version>
0

> <s_m_source_file>
/data/baiqing/PycharmProjects/Reinvent-master-3.2/result/LINK_invent/BTK/process_docking_weight1_custom_product_contain_oxygen_bond_distance_aromatic_linkinvent_7_9_3/rearranged_h_0111.sdf

> <i_m_source_file_index>
84

> <r_mmod_Potential_Energy-OPLS-2005>
476.467163085938

> <r_mmod_Stretch_Energy-OPLS-2005>
182.157638549805

> <r_mmod_Bend_Energy-OPLS-2005>
312.987152099609

> <r_mmod_Torsional_Energy-OPLS-2005>
304.941131591797

> <r_mmod_Improper_Torsional_Energy-OPLS-2005>
9.19153594970703

> <r_mmod_Van_der_Waal_Energy-OPLS-2005>
120.578559875488

> <r_mmod_Electrostatic_Energy-OPLS-2005>
-358.922210693359

> <r_mmod_Solvation_Energy-OPLS-2005>
-239.669692993164

> <b_mmod_Minimization_Converged-OPLS-2005>
0

> <r_mmod_RMS_Derivative-OPLS-2005>
0.877950370311737

$$$$
86
                    3D
 Structure written by MMmdl.
169178  0  0  1  0            999 V2000
  -30.6385  -14.6886   20.5756 C   0  0  0  0  0  0
  -30.4476  -12.4555   19.4492 C   0  0  0  0  0  0
  -29.5108  -12.5419   18.2215 C   0  0  0  0  0  0
  -28.0322  -12.3605   18.6233 C   0  0  0  0  0  0
  -27.6500  -13.2123   19.8605 C   0  0  2  0  0  0
  -28.6942  -13.0274   20.9751 C   0  0  0  0  0  0
  -25.2520  -13.8094   20.5689 C   0  0  0  0  0  0
  -24.1795  -13.0373   20.9179 C   0  0  0  0  0  0
  -24.6375  -11.6856   20.8712 C   0  0  0  0  0  0
  -23.9044  -10.4254   21.0396 C   0  0  0  0  0  0
  -24.3602   -9.4184   21.9182 C   0  0  0  0  0  0
  -23.6279   -8.2221   22.0753 C   0  0  0  0  0  0
  -22.4260   -8.0260   21.3545 C   0  0  0  0  0  0
  -21.9889   -9.0231   20.4647 C   0  0  0  0  0  0
  -22.7216  -10.2106   20.3051 C   0  0  0  0  0  0
  -21.6844   -6.0728   22.5282 C   0  0  0  0  0  0
  -21.4008   -6.5633   23.8213 C   0  0  0  0  0  0
  -21.3660   -5.6785   24.9174 C   0  0  0  0  0  0
  -21.6043   -4.3049   24.7222 C   0  0  0  0  0  0
  -21.8820   -3.8144   23.4340 C   0  0  0  0  0  0
  -21.9192   -4.6959   22.3401 C   0  0  0  0  0  0
  -22.7828  -13.5194   21.1855 C   0  0  0  0  0  0
  -22.1661   -4.2152   21.0974 F   0  0  0  0  0  0
  -21.5630   -3.4527   25.7733 F   0  0  0  0  0  0
  -30.0020  -13.4634   20.4434 N   0  0  0  0  0  0
  -26.2957  -12.9293   20.3273 N   0  0  0  0  0  0
  -25.9298  -11.6448   20.5687 N   0  0  0  0  0  0
  -22.0467  -12.8207   22.0422 N   0  0  0  0  0  0
  -25.4157  -15.1804   20.4185 N   0  0  0  0  0  0
  -31.7611  -14.8473   20.0858 O   0  0  0  0  0  0
  -21.6623   -6.8866   21.4242 O   0  0  0  0  0  0
  -22.3523  -14.5506   20.6703 O   0  0  0  0  0  0
  -24.6303  -31.8584   23.2018 C   0  0  0  0  0  0
  -25.9140  -32.4770   23.8356 C   0  0  1  0  0  0
  -27.2274  -27.2944   20.1080 C   0  0  0  0  0  0
  -25.5945  -33.8571   24.2277 N   0  0  0  0  0  0
  -23.4251  -30.4840   21.5452 C   0  0  2  0  0  0
  -24.8710  -28.9378   20.1130 C   0  0  0  0  0  0
  -22.7494  -29.4633   22.4927 C   0  0  0  0  0  0
  -18.0291  -28.1385   22.8487 C   0  0  0  0  0  0
  -24.1487  -36.7282   23.2634 C   0  0  0  0  0  0
  -25.9710  -30.7809   21.3779 C   0  0  0  0  0  0
  -26.0446  -29.4076   20.7159 C   0  0  0  0  0  0
  -27.2251  -28.5996   20.7020 C   0  0  0  0  0  0
  -26.0201  -26.8856   19.4898 C   0  0  0  0  0  0
  -24.8620  -27.6821   19.4928 C   0  0  0  0  0  0
  -23.6405  -29.8205   20.1609 C   0  0  0  0  0  0
  -25.4109  -36.3073   24.0329 C   0  0  1  0  0  0
  -20.5895  -28.3700   23.1269 C   0  0  2  0  0  0
  -20.6777  -26.9419   22.5402 C   0  0  0  0  0  0
  -19.5751  -26.6382   21.5205 C   0  0  0  0  0  0
  -18.1932  -26.7930   22.1619 C   0  0  0  0  0  0
  -19.1543  -28.8857   23.2874 C   0  0  0  0  0  0
  -18.9466  -30.1456   23.8893 C   0  0  0  0  0  0
  -17.6464  -30.6591   24.0556 C   0  0  0  0  0  0
  -25.9057  -34.9449   23.5100 C   0  0  0  0  0  0
  -16.5354  -29.9086   23.6333 C   0  0  0  0  0  0
  -16.7279  -28.6496   23.0362 C   0  0  0  0  0  0
  -26.4507  -31.6590   25.0741 C   0  0  0  0  0  0
  -25.3728  -31.3751   26.1461 C   0  0  0  0  0  0
  -27.0343  -30.3001   24.6224 C   0  0  0  0  0  0
  -27.6067  -32.4332   25.7506 C   0  0  0  0  0  0
  -27.5593  -37.1774   24.8449 C   0  0  0  0  0  0
  -21.4203  -29.3060   22.3663 N   0  0  0  0  0  0
  -26.4276  -37.3784   23.9437 N   0  0  0  0  0  0
  -24.6944  -31.0579   22.0978 N   0  0  0  0  0  0
  -23.4205  -28.8165   23.3009 O   0  0  0  0  0  0
  -28.3401  -26.4227   20.1414 O   0  0  0  0  0  0
  -26.5621  -34.8925   22.4665 O   0  0  0  0  0  0
  -23.5458  -32.1394   23.7328 O   0  0  0  0  0  0
  -29.2022  -19.3099   19.7717 C   0  0  0  0  0  0
  -29.1994  -17.8781   19.8655 C   0  0  0  0  0  0
  -30.1069  -17.1959   20.7327 C   0  0  0  0  0  0
  -30.1085  -20.0976   20.5249 C   0  0  0  0  0  0
  -31.0281  -18.0629   21.3760 C   0  0  0  0  0  0
  -29.2625  -23.9034   20.0188 C   0  0  0  0  0  0
  -29.1179  -22.5603   20.3843 C   0  0  0  0  0  0
  -32.1160  -22.4689   19.3050 C   0  0  0  0  0  0
  -30.5708  -24.5222   19.5142 C   0  0  0  0  0  0
  -31.4305  -23.6292   18.5939 C   0  0  0  0  0  0
  -31.5395  -22.0432   20.6458 C   0  0  0  0  0  0
  -28.1809  -17.1016   19.0611 C   0  0  0  0  0  0
  -27.7391  -22.0658   20.8050 C   0  0  0  0  0  0
  -29.4339  -15.6321   22.4952 C   0  0  0  0  0  0
  -28.0835  -24.9622   19.9514 C   0  0  0  0  0  0
  -31.0168  -19.4202   21.2886 N   0  0  0  0  0  0
  -30.1594  -21.5579   20.4994 N   0  0  0  0  0  0
  -32.0111  -17.5543   22.2138 N   0  0  0  0  0  0
  -29.9641  -15.7734   21.1282 N   0  0  0  0  0  0
  -33.0780  -21.8863   18.7979 O   0  0  0  0  0  0
  -31.4820  -12.6083   19.1370 H   0  0  0  0  0  0
  -30.4250  -11.4537   19.8812 H   0  0  0  0  0  0
  -29.7919  -11.7929   17.4800 H   0  0  0  0  0  0
  -29.6366  -13.5115   17.7368 H   0  0  0  0  0  0
  -27.8744  -11.3032   18.8405 H   0  0  0  0  0  0
  -27.3792  -12.5987   17.7831 H   0  0  0  0  0  0
  -27.6732  -14.2546   19.5487 H   0  0  0  0  0  0
  -28.7426  -11.9762   21.2648 H   0  0  0  0  0  0
  -28.3685  -13.5236   21.8791 H   0  0  0  0  0  0
  -25.2749   -9.5664   22.4746 H   0  0  0  0  0  0
  -23.9996   -7.4608   22.7464 H   0  0  0  0  0  0
  -21.0824   -8.8740   19.8952 H   0  0  0  0  0  0
  -22.3677  -10.9639   19.6152 H   0  0  0  0  0  0
  -21.1994   -7.6142   23.9715 H   0  0  0  0  0  0
  -21.1483   -6.0514   25.9079 H   0  0  0  0  0  0
  -22.0601   -2.7607   23.2829 H   0  0  0  0  0  0
  -22.4076  -11.9866   22.4811 H   0  0  0  0  0  0
  -21.1093  -13.1255   22.2629 H   0  0  0  0  0  0
  -24.6494  -15.8337   20.5401 H   0  0  0  0  0  0
  -26.2780  -15.6222   20.1344 H   0  0  0  0  0  0
  -26.7211  -32.5432   23.1106 H   0  0  0  0  0  0
  -25.0100  -33.9714   25.0426 H   0  0  0  0  0  0
  -22.7210  -31.3061   21.4025 H   0  0  0  0  0  0
  -23.3774  -35.9583   23.3233 H   0  0  0  0  0  0
  -24.3601  -36.8966   22.2063 H   0  0  0  0  0  0
  -23.7197  -37.6447   23.6693 H   0  0  0  0  0  0
  -26.1107  -31.5453   20.6122 H   0  0  0  0  0  0
  -26.8482  -30.8251   22.0117 H   0  0  0  0  0  0
  -28.1250  -28.9585   21.1819 H   0  0  0  0  0  0
  -25.9245  -25.9296   19.0009 H   0  0  0  0  0  0
  -23.9624  -27.3136   19.0191 H   0  0  0  0  0  0
  -23.7623  -30.5971   19.4048 H   0  0  0  0  0  0
  -22.7595  -29.2512   19.8582 H   0  0  0  0  0  0
  -25.1277  -36.1908   25.0815 H   0  0  0  0  0  0
  -20.9998  -28.3275   24.1385 H   0  0  0  0  0  0
  -20.5671  -26.2313   23.3606 H   0  0  0  0  0  0
  -21.6648  -26.7441   22.1206 H   0  0  0  0  0  0
  -19.6912  -25.6286   21.1247 H   0  0  0  0  0  0
  -19.6687  -27.3177   20.6722 H   0  0  0  0  0  0
  -17.4205  -26.6687   21.4016 H   0  0  0  0  0  0
  -18.0330  -26.0068   22.9012 H   0  0  0  0  0  0
  -19.7940  -30.7264   24.2277 H   0  0  0  0  0  0
  -17.5022  -31.6278   24.5147 H   0  0  0  0  0  0
  -15.5355  -30.2982   23.7655 H   0  0  0  0  0  0
  -15.8682  -28.0803   22.7094 H   0  0  0  0  0  0
  -24.5901  -30.7100   25.7796 H   0  0  0  0  0  0
  -24.8920  -32.2924   26.4874 H   0  0  0  0  0  0
  -25.8042  -30.8942   27.0248 H   0  0  0  0  0  0
  -26.2919  -29.6757   24.1238 H   0  0  0  0  0  0
  -27.4001  -29.7265   25.4752 H   0  0  0  0  0  0
  -27.8815  -30.4265   23.9479 H   0  0  0  0  0  0
  -27.2680  -33.3642   26.2070 H   0  0  0  0  0  0
  -28.3882  -32.6880   25.0332 H   0  0  0  0  0  0
  -28.0732  -31.8466   26.5433 H   0  0  0  0  0  0
  -28.2540  -38.0142   24.7610 H   0  0  0  0  0  0
  -28.1157  -36.2682   24.6113 H   0  0  0  0  0  0
  -27.2341  -37.1234   25.8855 H   0  0  0  0  0  0
  -20.9376  -29.8784   21.6875 H   0  0  0  0  0  0
  -26.0146  -38.2838   24.1508 H   0  0  0  0  0  0
  -28.4901  -19.8079   19.1289 H   0  0  0  0  0  0
  -31.1466  -24.8908   20.3641 H   0  0  0  0  0  0
  -30.3285  -25.4110   18.9313 H   0  0  0  0  0  0
  -30.8152  -23.2283   17.7884 H   0  0  0  0  0  0
  -32.2049  -24.2341   18.1220 H   0  0  0  0  0  0
  -31.5478  -22.8924   21.3271 H   0  0  0  0  0  0
  -32.2413  -21.3416   21.0914 H   0  0  0  0  0  0
  -27.7838  -17.6990   18.2401 H   0  0  0  0  0  0
  -27.3533  -16.8191   19.7045 H   0  0  0  0  0  0
  -28.6250  -16.2033   18.6327 H   0  0  0  0  0  0
  -27.0375  -22.1531   19.9742 H   0  0  0  0  0  0
  -27.3627  -22.6664   21.6335 H   0  0  0  0  0  0
  -27.7193  -21.0346   21.1525 H   0  0  0  0  0  0
  -29.7041  -16.4737   23.1324 H   0  0  0  0  0  0
  -29.8075  -14.7447   23.0107 H   0  0  0  0  0  0
  -28.3435  -15.6062   22.4793 H   0  0  0  0  0  0
  -27.2794  -24.6656   20.6236 H   0  0  0  0  0  0
  -27.7095  -24.8343   18.9359 H   0  0  0  0  0  0
  -32.2590  -16.5814   22.0890 H   0  0  0  0  0  0
  -32.7915  -18.1545   22.4442 H   0  0  0  0  0  0
  1 25  1  0  0  0
  1 30  2  0  0  0
  1 89  1  0  0  0
  2  3  1  0  0  0
  2 25  1  0  0  0
  2 91  1  0  0  0
  2 92  1  0  0  0
  3  4  1  0  0  0
  3 93  1  0  0  0
  3 94  1  0  0  0
  4  5  1  0  0  0
  4 95  1  0  0  0
  4 96  1  0  0  0
  5  6  1  0  0  0
  5 26  1  0  0  0
  5 97  1  0  0  0
  6 25  1  0  0  0
  6 98  1  0  0  0
  6 99  1  0  0  0
  7  8  2  0  0  0
  7 26  1  0  0  0
  7 29  1  0  0  0
  8  9  1  0  0  0
  8 22  1  0  0  0
  9 10  1  0  0  0
  9 27  2  0  0  0
 10 11  2  0  0  0
 10 15  1  0  0  0
 11 12  1  0  0  0
 11100  1  0  0  0
 12 13  2  0  0  0
 12101  1  0  0  0
 13 14  1  0  0  0
 13 31  1  0  0  0
 14 15  2  0  0  0
 14102  1  0  0  0
 15103  1  0  0  0
 16 17  2  0  0  0
 16 21  1  0  0  0
 16 31  1  0  0  0
 17 18  1  0  0  0
 17104  1  0  0  0
 18 19  2  0  0  0
 18105  1  0  0  0
 19 20  1  0  0  0
 19 24  1  0  0  0
 20 21  2  0  0  0
 20106  1  0  0  0
 21 23  1  0  0  0
 22 28  1  0  0  0
 22 32  2  0  0  0
 26 27  1  0  0  0
 28107  1  0  0  0
 28108  1  0  0  0
 29109  1  0  0  0
 29110  1  0  0  0
 33 34  1  0  0  0
 33 66  1  0  0  0
 33 70  2  0  0  0
 34 36  1  0  0  0
 34 59  1  0  0  0
 34111  1  0  0  0
 35 44  2  0  0  0
 35 45  1  0  0  0
 35 68  1  0  0  0
 36 56  1  0  0  0
 36112  1  0  0  0
 37 39  1  0  0  0
 37 47  1  0  0  0
 37 66  1  0  0  0
 37113  1  0  0  0
 38 43  2  0  0  0
 38 46  1  0  0  0
 38 47  1  0  0  0
 39 64  1  0  0  0
 39 67  2  0  0  0
 40 52  1  0  0  0
 40 53  2  0  0  0
 40 58  1  0  0  0
 41114  1  0  0  0
 41115  1  0  0  0
 41116  1  0  0  0
 41 48  1  0  0  0
 42 43  1  0  0  0
 42 66  1  0  0  0
 42117  1  0  0  0
 42118  1  0  0  0
 43 44  1  0  0  0
 44119  1  0  0  0
 45 46  2  0  0  0
 45120  1  0  0  0
 46121  1  0  0  0
 47122  1  0  0  0
 47123  1  0  0  0
 48 56  1  0  0  0
 48 65  1  0  0  0
 48124  1  0  0  0
 49 50  1  0  0  0
 49 53  1  0  0  0
 49 64  1  0  0  0
 49125  1  0  0  0
 50 51  1  0  0  0
 50126  1  0  0  0
 50127  1  0  0  0
 51 52  1  0  0  0
 51128  1  0  0  0
 51129  1  0  0  0
 52130  1  0  0  0
 52131  1  0  0  0
 53 54  1  0  0  0
 54 55  2  0  0  0
 54132  1  0  0  0
 55 57  1  0  0  0
 55133  1  0  0  0
 56 69  2  0  0  0
 57 58  2  0  0  0
 57134  1  0  0  0
 58135  1  0  0  0
 59 60  1  0  0  0
 59 61  1  0  0  0
 59 62  1  0  0  0
 60136  1  0  0  0
 60137  1  0  0  0
 60138  1  0  0  0
 61139  1  0  0  0
 61140  1  0  0  0
 61141  1  0  0  0
 62142  1  0  0  0
 62143  1  0  0  0
 62144  1  0  0  0
 63 65  1  0  0  0
 63145  1  0  0  0
 63146  1  0  0  0
 63147  1  0  0  0
 64148  1  0  0  0
 65149  1  0  0  0
 68 85  1  0  0  0
 71 72  2  0  0  0
 71 74  1  0  0  0
 71150  1  0  0  0
 72 73  1  0  0  0
 72 82  1  0  0  0
 73 75  2  0  0  0
 73 89  1  0  0  0
 74 86  2  0  0  0
 74 87  1  0  0  0
 75 86  1  0  0  0
 75 88  1  0  0  0
 76 77  2  0  0  0
 76 79  1  0  0  0
 76 85  1  0  0  0
 77 83  1  0  0  0
 77 87  1  0  0  0
 78 80  1  0  0  0
 78 81  1  0  0  0
 78 90  2  0  0  0
 79 80  1  0  0  0
 79151  1  0  0  0
 79152  1  0  0  0
 80153  1  0  0  0
 80154  1  0  0  0
 81 87  1  0  0  0
 81155  1  0  0  0
 81156  1  0  0  0
 82157  1  0  0  0
 82158  1  0  0  0
 82159  1  0  0  0
 83160  1  0  0  0
 83161  1  0  0  0
 83162  1  0  0  0
 84 89  1  0  0  0
 84163  1  0  0  0
 84164  1  0  0  0
 84165  1  0  0  0
 85166  1  0  0  0
 85167  1  0  0  0
 88168  1  0  0  0
 88169  1  0  0  0
M  ISO  4   1 100  68 101  85 101  89 100
M  END
> <chiral flag>
0

> <version>
0

> <s_m_source_file>
/data/baiqing/PycharmProjects/Reinvent-master-3.2/result/LINK_invent/BTK/process_docking_weight1_custom_product_contain_oxygen_bond_distance_aromatic_linkinvent_7_9_3/rearranged_h_0111.sdf

> <i_m_source_file_index>
85

> <r_mmod_Potential_Energy-OPLS-2005>
1.19555425643921

> <r_mmod_Stretch_Energy-OPLS-2005>
115.247383117676

> <r_mmod_Bend_Energy-OPLS-2005>
175.039428710938

> <r_mmod_Torsional_Energy-OPLS-2005>
327.654968261719

> <r_mmod_Improper_Torsional_Energy-OPLS-2005>
9.02899074554443

> <r_mmod_Van_der_Waal_Energy-OPLS-2005>
179.463043212891

> <r_mmod_Electrostatic_Energy-OPLS-2005>
-647.022094726562

> <r_mmod_Solvation_Energy-OPLS-2005>
-217.408264160156

> <b_mmod_Minimization_Converged-OPLS-2005>
0

> <r_mmod_RMS_Derivative-OPLS-2005>
1.05217313766479

$$$$
87
                    3D
 Structure written by MMmdl.
156164  0  0  1  0            999 V2000
  -29.3919  -14.6177   21.0357 C   0  0  0  0  0  0
  -30.4032  -12.6335   19.6470 C   0  0  0  0  0  0
  -29.6470  -12.5664   18.2769 C   0  0  0  0  0  0
  -28.1748  -12.1435   18.4337 C   0  0  0  0  0  0
  -27.6358  -12.8765   19.6327 C   0  0  2  0  0  0
  -28.4152  -12.5160   20.8983 C   0  0  0  0  0  0
  -25.3647  -13.6824   19.7853 C   0  0  0  0  0  0
  -24.4073  -13.2367   20.5646 C   0  0  0  0  0  0
  -24.5984  -11.7910   20.7557 C   0  0  0  0  0  0
  -23.8208  -10.5611   21.0805 C   0  0  0  0  0  0
  -24.3191   -9.5283   21.9233 C   0  0  0  0  0  0
  -23.6274   -8.2995   22.0716 C   0  0  0  0  0  0
  -22.4241   -8.0734   21.3656 C   0  0  0  0  0  0
  -21.9537   -9.0763   20.4989 C   0  0  0  0  0  0
  -22.6413  -10.3002   20.3574 C   0  0  0  0  0  0
  -21.7032   -6.0863   22.5230 C   0  0  0  0  0  0
  -21.4143   -6.5741   23.8172 C   0  0  0  0  0  0
  -21.3677   -5.6870   24.9124 C   0  0  0  0  0  0
  -21.6011   -4.3126   24.7177 C   0  0  0  0  0  0
  -21.8783   -3.8227   23.4307 C   0  0  0  0  0  0
  -21.9227   -4.7056   22.3362 C   0  0  0  0  0  0
  -23.9179  -14.4219   21.3594 C   0  0  0  0  0  0
  -22.1656   -4.2188   21.0958 F   0  0  0  0  0  0
  -21.5628   -3.4622   25.7707 F   0  0  0  0  0  0
  -29.5507  -13.2952   20.7056 N   0  0  0  0  0  0
  -26.2818  -12.7001   19.8740 N   0  0  0  0  0  0
  -25.8350  -11.5334   20.3770 N   0  0  0  0  0  0
  -24.5278  -15.1962   23.1822 N   0  0  0  0  0  0
  -25.6113  -14.9747   19.3023 N   0  0  0  0  0  0
  -30.4761  -15.2181   20.7251 O   0  0  0  0  0  0
  -21.6973   -6.9049   21.4188 O   0  0  0  0  0  0
  -22.8827  -14.6760   20.6581 O   0  0  0  0  0  0
  -24.6645  -31.8262   23.1831 C   0  0  0  0  0  0
  -25.9347  -32.4582   23.8232 C   0  0  1  0  0  0
  -26.8778  -26.7609   20.2886 C   0  0  0  0  0  0
  -25.6040  -33.8417   24.2091 N   0  0  0  0  0  0
  -23.4686  -30.4606   21.5317 C   0  0  2  0  0  0
  -24.8790  -28.8754   20.0739 C   0  0  0  0  0  0
  -22.7654  -29.4444   22.4718 C   0  0  0  0  0  0
  -18.0303  -28.1413   22.8451 C   0  0  0  0  0  0
  -24.1485  -36.7196   23.2641 C   0  0  0  0  0  0
  -26.0428  -30.5708   21.4498 C   0  0  0  0  0  0
  -26.0497  -29.1619   20.7868 C   0  0  0  0  0  0
  -27.0651  -28.1063   20.8944 C   0  0  0  0  0  0
  -25.8200  -26.7304   19.3736 C   0  0  0  0  0  0
  -24.8088  -27.6991   19.3241 C   0  0  0  0  0  0
  -23.7002  -29.8339   20.1319 C   0  0  0  0  0  0
  -25.4131  -36.2976   24.0298 C   0  0  1  0  0  0
  -20.5938  -28.3746   23.1174 C   0  0  2  0  0  0
  -20.6785  -26.9420   22.5402 C   0  0  0  0  0  0
  -19.5766  -26.6357   21.5213 C   0  0  0  0  0  0
  -18.1945  -26.7941   22.1611 C   0  0  0  0  0  0
  -19.1571  -28.8897   23.2798 C   0  0  0  0  0  0
  -18.9481  -30.1484   23.8837 C   0  0  0  0  0  0
  -17.6478  -30.6598   24.0548 C   0  0  0  0  0  0
  -25.9116  -34.9360   23.5006 C   0  0  0  0  0  0
  -16.5359  -29.9088   23.6364 C   0  0  0  0  0  0
  -16.7283  -28.6516   23.0365 C   0  0  0  0  0  0
  -26.4562  -31.6580   25.0814 C   0  0  0  0  0  0
  -25.3658  -31.3862   26.1451 C   0  0  0  0  0  0
  -27.0487  -30.2932   24.6683 C   0  0  0  0  0  0
  -27.6053  -32.4417   25.7585 C   0  0  0  0  0  0
  -27.5579  -37.1750   24.8456 C   0  0  0  0  0  0
  -21.4327  -29.3031   22.3507 N   0  0  0  0  0  0
  -26.4264  -37.3724   23.9440 N   0  0  0  0  0  0
  -24.7493  -30.9865   22.1025 N   0  0  0  0  0  0
  -23.4236  -28.7952   23.2886 O   0  0  0  0  0  0
  -27.4239  -25.3892   20.5259 O   0  0  0  0  0  0
  -26.5700  -34.8897   22.4589 O   0  0  0  0  0  0
  -23.5722  -32.1309   23.6882 O   0  0  0  0  0  0
  -22.3655  -14.8966   23.1457 C   0  0  0  0  0  0
  -25.5901  -13.3318   22.8454 C   0  0  0  0  0  0
  -23.1536  -16.5955   22.2230 C   0  0  0  0  0  0
  -25.1174  -16.6737   21.6403 C   0  0  0  0  0  0
  -26.3623  -15.0201   21.9335 C   0  0  0  0  0  0
  -23.5935  -13.2412   23.4354 C   0  0  0  0  0  0
  -26.4409  -24.1899   20.7782 C   0  0  0  0  0  0
  -26.0738  -22.7205   20.9393 C   0  0  0  0  0  0
  -26.5725  -21.1490   20.9426 C   0  0  0  0  0  0
  -22.2824  -17.8087   22.0024 C   0  0  0  0  0  0
  -25.8732  -18.2197   21.0971 C   0  0  0  0  0  0
  -28.0267  -15.1871   21.5378 N   0  0  0  0  0  0
  -25.7221  -19.9220   21.2216 N   0  0  0  0  0  0
  -27.7520  -20.9134   20.6775 O   0  0  0  0  0  0
  -24.7503  -22.6382   21.1380 O   0  0  0  0  0  0
  -23.1056  -12.1278   24.0300 F   0  0  0  0  0  0
  -31.3523  -13.1574   19.5256 H   0  0  0  0  0  0
  -30.6646  -11.6265   19.9750 H   0  0  0  0  0  0
  -30.1620  -11.9035   17.5820 H   0  0  0  0  0  0
  -29.6794  -13.5571   17.8186 H   0  0  0  0  0  0
  -28.0986  -11.0642   18.5769 H   0  0  0  0  0  0
  -27.6092  -12.3825   17.5337 H   0  0  0  0  0  0
  -27.7501  -13.9072   19.3085 H   0  0  0  0  0  0
  -28.6356  -11.4484   20.9400 H   0  0  0  0  0  0
  -27.9178  -12.7224   21.8391 H   0  0  0  0  0  0
  -25.2555   -9.6740   22.4433 H   0  0  0  0  0  0
  -24.0414   -7.5323   22.7096 H   0  0  0  0  0  0
  -21.0541   -8.9052   19.9251 H   0  0  0  0  0  0
  -22.2658  -11.0415   19.6669 H   0  0  0  0  0  0
  -21.2226   -7.6267   23.9692 H   0  0  0  0  0  0
  -21.1502   -6.0631   25.9025 H   0  0  0  0  0  0
  -22.0539   -2.7705   23.2823 H   0  0  0  0  0  0
  -25.3540  -14.8481   23.6467 H   0  0  0  0  0  0
  -24.0256  -16.0014   23.5301 H   0  0  0  0  0  0
  -24.8883  -15.6839   19.2785 H   0  0  0  0  0  0
  -26.4401  -15.2325   18.7810 H   0  0  0  0  0  0
  -26.7400  -32.5005   23.0913 H   0  0  0  0  0  0
  -25.0165  -33.9493   25.0221 H   0  0  0  0  0  0
  -22.7811  -31.2979   21.3959 H   0  0  0  0  0  0
  -23.3799  -35.9470   23.3232 H   0  0  0  0  0  0
  -24.3558  -36.8916   22.2068 H   0  0  0  0  0  0
  -23.7158  -37.6335   23.6732 H   0  0  0  0  0  0
  -26.2646  -31.3017   20.6718 H   0  0  0  0  0  0
  -26.8970  -30.5986   22.1127 H   0  0  0  0  0  0
  -27.8919  -28.2600   21.5725 H   0  0  0  0  0  0
  -25.6481  -25.8293   18.8015 H   0  0  0  0  0  0
  -23.9412  -27.5089   18.7072 H   0  0  0  0  0  0
  -23.8909  -30.6312   19.4103 H   0  0  0  0  0  0
  -22.7930  -29.3360   19.7889 H   0  0  0  0  0  0
  -25.1302  -36.1781   25.0782 H   0  0  0  0  0  0
  -21.0013  -28.3355   24.1298 H   0  0  0  0  0  0
  -20.5708  -26.2335   23.3631 H   0  0  0  0  0  0
  -21.6638  -26.7417   22.1173 H   0  0  0  0  0  0
  -19.6933  -25.6256   21.1278 H   0  0  0  0  0  0
  -19.6727  -27.3132   20.6725 H   0  0  0  0  0  0
  -17.4207  -26.6657   21.4021 H   0  0  0  0  0  0
  -18.0348  -26.0107   22.9040 H   0  0  0  0  0  0
  -19.7950  -30.7319   24.2184 H   0  0  0  0  0  0
  -17.5024  -31.6281   24.5147 H   0  0  0  0  0  0
  -15.5358  -30.2969   23.7737 H   0  0  0  0  0  0
  -15.8673  -28.0823   22.7122 H   0  0  0  0  0  0
  -24.5842  -30.7206   25.7764 H   0  0  0  0  0  0
  -24.8832  -32.3069   26.4750 H   0  0  0  0  0  0
  -25.7859  -30.9110   27.0321 H   0  0  0  0  0  0
  -26.3173  -29.6548   24.1721 H   0  0  0  0  0  0
  -27.3969  -29.7401   25.5411 H   0  0  0  0  0  0
  -27.9151  -30.4094   24.0171 H   0  0  0  0  0  0
  -27.2633  -33.3779   26.2018 H   0  0  0  0  0  0
  -28.3928  -32.6891   25.0448 H   0  0  0  0  0  0
  -28.0672  -31.8660   26.5621 H   0  0  0  0  0  0
  -28.2518  -38.0124   24.7614 H   0  0  0  0  0  0
  -28.1165  -36.2665   24.6147 H   0  0  0  0  0  0
  -27.2328  -37.1218   25.8860 H   0  0  0  0  0  0
  -20.9549  -29.8787   21.6704 H   0  0  0  0  0  0
  -26.0124  -38.2776   24.1501 H   0  0  0  0  0  0
  -21.3326  -14.8747   23.4606 H   0  0  0  0  0  0
  -26.2236  -12.4865   23.0680 H   0  0  0  0  0  0
  -25.5170  -24.7359   20.9202 H   0  0  0  0  0  0
  -21.2394  -17.5134   21.8897 H   0  0  0  0  0  0
  -22.5948  -18.3289   21.0965 H   0  0  0  0  0  0
  -22.3671  -18.4941   22.8423 H   0  0  0  0  0  0
  -25.8520  -18.0819   20.0142 H   0  0  0  0  0  0
  -26.9213  -18.0641   21.3550 H   0  0  0  0  0  0
  -28.2278  -16.1747   21.5841 H   0  0  0  0  0  0
  -24.7831  -20.1561   21.5099 H   0  0  0  0  0  0
  -24.5183  -21.7259   21.0377 H   0  0  0  0  0  0
  1 25  1  0  0  0
  1 30  2  0  0  0
  1 82  1  0  0  0
  2  3  1  0  0  0
  2 25  1  0  0  0
  2 87  1  0  0  0
  2 88  1  0  0  0
  3  4  1  0  0  0
  3 89  1  0  0  0
  3 90  1  0  0  0
  4  5  1  0  0  0
  4 91  1  0  0  0
  4 92  1  0  0  0
  5  6  1  0  0  0
  5 26  1  0  0  0
  5 93  1  0  0  0
  6 25  1  0  0  0
  6 94  1  0  0  0
  6 95  1  0  0  0
  7  8  2  0  0  0
  7 26  1  0  0  0
  7 29  1  0  0  0
  8  9  1  0  0  0
  8 22  1  0  0  0
  9 10  1  0  0  0
  9 27  2  0  0  0
 10 11  2  0  0  0
 10 15  1  0  0  0
 11 12  1  0  0  0
 11 96  1  0  0  0
 12 13  2  0  0  0
 12 97  1  0  0  0
 13 14  1  0  0  0
 13 31  1  0  0  0
 14 15  2  0  0  0
 14 98  1  0  0  0
 15 99  1  0  0  0
 16 17  2  0  0  0
 16 21  1  0  0  0
 16 31  1  0  0  0
 17 18  1  0  0  0
 17100  1  0  0  0
 18 19  2  0  0  0
 18101  1  0  0  0
 19 20  1  0  0  0
 19 24  1  0  0  0
 20 21  2  0  0  0
 20102  1  0  0  0
 21 23  1  0  0  0
 22 28  1  0  0  0
 22 32  2  0  0  0
 26 27  1  0  0  0
 28103  1  0  0  0
 28104  1  0  0  0
 29105  1  0  0  0
 29106  1  0  0  0
 33 34  1  0  0  0
 33 66  1  0  0  0
 33 70  2  0  0  0
 34 36  1  0  0  0
 34 59  1  0  0  0
 34107  1  0  0  0
 35 44  2  0  0  0
 35 45  1  0  0  0
 35 68  1  0  0  0
 36 56  1  0  0  0
 36108  1  0  0  0
 37 39  1  0  0  0
 37 47  1  0  0  0
 37 66  1  0  0  0
 37109  1  0  0  0
 38 43  2  0  0  0
 38 46  1  0  0  0
 38 47  1  0  0  0
 39 64  1  0  0  0
 39 67  2  0  0  0
 40 52  1  0  0  0
 40 53  2  0  0  0
 40 58  1  0  0  0
 41110  1  0  0  0
 41111  1  0  0  0
 41112  1  0  0  0
 41 48  1  0  0  0
 42 43  1  0  0  0
 42 66  1  0  0  0
 42113  1  0  0  0
 42114  1  0  0  0
 43 44  1  0  0  0
 44115  1  0  0  0
 45 46  2  0  0  0
 45116  1  0  0  0
 46117  1  0  0  0
 47118  1  0  0  0
 47119  1  0  0  0
 48 56  1  0  0  0
 48 65  1  0  0  0
 48120  1  0  0  0
 49 50  1  0  0  0
 49 53  1  0  0  0
 49 64  1  0  0  0
 49121  1  0  0  0
 50 51  1  0  0  0
 50122  1  0  0  0
 50123  1  0  0  0
 51 52  1  0  0  0
 51124  1  0  0  0
 51125  1  0  0  0
 52126  1  0  0  0
 52127  1  0  0  0
 53 54  1  0  0  0
 54 55  2  0  0  0
 54128  1  0  0  0
 55 57  1  0  0  0
 55129  1  0  0  0
 56 69  2  0  0  0
 57 58  2  0  0  0
 57130  1  0  0  0
 58131  1  0  0  0
 59 60  1  0  0  0
 59 61  1  0  0  0
 59 62  1  0  0  0
 60132  1  0  0  0
 60133  1  0  0  0
 60134  1  0  0  0
 61135  1  0  0  0
 61136  1  0  0  0
 61137  1  0  0  0
 62138  1  0  0  0
 62139  1  0  0  0
 62140  1  0  0  0
 63 65  1  0  0  0
 63141  1  0  0  0
 63142  1  0  0  0
 63143  1  0  0  0
 64144  1  0  0  0
 65145  1  0  0  0
 68 77  1  0  0  0
 71 73  2  0  0  0
 71 76  1  0  0  0
 71146  1  0  0  0
 72 75  1  0  0  0
 72 76  2  0  0  0
 72147  1  0  0  0
 73 74  1  0  0  0
 73 80  1  0  0  0
 74 75  2  0  0  0
 74 81  1  0  0  0
 75 82  1  0  0  0
 76 86  1  0  0  0
 77 78  2  0  0  0
 77148  1  0  0  0
 78 79  1  0  0  0
 78 85  1  0  0  0
 79 83  1  0  0  0
 79 84  2  0  0  0
 80149  1  0  0  0
 80150  1  0  0  0
 80151  1  0  0  0
 81 83  1  0  0  0
 81152  1  0  0  0
 81153  1  0  0  0
 82154  1  0  0  0
 83155  1  0  0  0
 85156  1  0  0  0
M  ISO  4   1 100  68 101  77 101  82 100
M  END
> <chiral flag>
0

> <version>
0

> <s_m_source_file>
/data/baiqing/PycharmProjects/Reinvent-master-3.2/result/LINK_invent/BTK/process_docking_weight1_custom_product_contain_oxygen_bond_distance_aromatic_linkinvent_7_9_3/rearranged_h_0111.sdf

> <i_m_source_file_index>
86

> <r_mmod_Potential_Energy-OPLS-2005>
14054.634765625

> <r_mmod_Stretch_Energy-OPLS-2005>
7417.6123046875

> <r_mmod_Bend_Energy-OPLS-2005>
873.749633789062

> <r_mmod_Torsional_Energy-OPLS-2005>
356.772033691406

> <r_mmod_Improper_Torsional_Energy-OPLS-2005>
29.1461505889893

> <r_mmod_Van_der_Waal_Energy-OPLS-2005>
3126.81616210938

> <r_mmod_Electrostatic_Energy-OPLS-2005>
-368.443206787109

> <r_mmod_Solvation_Energy-OPLS-2005>
-247.308212280273

> <b_mmod_Minimization_Converged-OPLS-2005>
0

> <r_mmod_RMS_Derivative-OPLS-2005>
6.68129825592041

$$$$
88
                    3D
 Structure written by MMmdl.
164172  0  0  1  0            999 V2000
  -30.6247  -14.4622   20.6259 C   0  0  0  0  0  0
  -30.4471  -12.3208   19.3885 C   0  0  0  0  0  0
  -29.4988  -12.5249   18.1880 C   0  0  0  0  0  0
  -28.0169  -12.3664   18.5991 C   0  0  0  0  0  0
  -27.6613  -13.1791   19.8724 C   0  0  2  0  0  0
  -28.7043  -12.8923   20.9773 C   0  0  0  0  0  0
  -25.2552  -13.8070   20.5704 C   0  0  0  0  0  0
  -24.1792  -13.0385   20.9196 C   0  0  0  0  0  0
  -24.6356  -11.6860   20.8736 C   0  0  0  0  0  0
  -23.9038  -10.4271   21.0399 C   0  0  0  0  0  0
  -24.3600   -9.4200   21.9173 C   0  0  0  0  0  0
  -23.6271   -8.2248   22.0742 C   0  0  0  0  0  0
  -22.4254   -8.0291   21.3545 C   0  0  0  0  0  0
  -21.9893   -9.0258   20.4636 C   0  0  0  0  0  0
  -22.7226  -10.2135   20.3038 C   0  0  0  0  0  0
  -21.6846   -6.0746   22.5292 C   0  0  0  0  0  0
  -21.4002   -6.5638   23.8233 C   0  0  0  0  0  0
  -21.3649   -5.6782   24.9189 C   0  0  0  0  0  0
  -21.6043   -4.3054   24.7230 C   0  0  0  0  0  0
  -21.8808   -3.8151   23.4349 C   0  0  0  0  0  0
  -21.9188   -4.6980   22.3412 C   0  0  0  0  0  0
  -22.7808  -13.5212   21.1882 C   0  0  0  0  0  0
  -22.1655   -4.2173   21.0987 F   0  0  0  0  0  0
  -21.5650   -3.4535   25.7741 F   0  0  0  0  0  0
  -30.0295  -13.2513   20.4429 N   0  0  0  0  0  0
  -26.2982  -12.9203   20.3318 N   0  0  0  0  0  0
  -25.9257  -11.6398   20.5703 N   0  0  0  0  0  0
  -22.0414  -12.8227   22.0435 N   0  0  0  0  0  0
  -25.4209  -15.1775   20.4240 N   0  0  0  0  0  0
  -31.7329  -14.7354   20.1458 O   0  0  0  0  0  0
  -21.6611   -6.8893   21.4249 O   0  0  0  0  0  0
  -22.3497  -14.5536   20.6755 O   0  0  0  0  0  0
  -24.6159  -31.8692   23.2124 C   0  0  0  0  0  0
  -25.9062  -32.4830   23.8422 C   0  0  1  0  0  0
  -27.2295  -27.4330   20.0657 C   0  0  0  0  0  0
  -25.5920  -33.8636   24.2325 N   0  0  0  0  0  0
  -23.4029  -30.4968   21.5539 C   0  0  2  0  0  0
  -24.8458  -28.9711   20.1132 C   0  0  0  0  0  0
  -22.7416  -29.4679   22.4991 C   0  0  0  0  0  0
  -18.0272  -28.1399   22.8499 C   0  0  0  0  0  0
  -24.1487  -36.7324   23.2630 C   0  0  0  0  0  0
  -25.9356  -30.8285   21.3730 C   0  0  0  0  0  0
  -26.0086  -29.4646   20.7164 C   0  0  0  0  0  0
  -27.1998  -28.6992   20.6989 C   0  0  0  0  0  0
  -26.0395  -26.9639   19.4563 C   0  0  0  0  0  0
  -24.8569  -27.7195   19.4830 C   0  0  0  0  0  0
  -23.6098  -29.8382   20.1656 C   0  0  0  0  0  0
  -25.4115  -36.3112   24.0313 C   0  0  1  0  0  0
  -20.5857  -28.3693   23.1313 C   0  0  2  0  0  0
  -20.6771  -26.9428   22.5419 C   0  0  0  0  0  0
  -19.5743  -26.6400   21.5227 C   0  0  0  0  0  0
  -18.1924  -26.7952   22.1625 C   0  0  0  0  0  0
  -19.1521  -28.8866   23.2904 C   0  0  0  0  0  0
  -18.9447  -30.1474   23.8927 C   0  0  0  0  0  0
  -17.6447  -30.6599   24.0575 C   0  0  0  0  0  0
  -25.9056  -34.9483   23.5112 C   0  0  0  0  0  0
  -16.5338  -29.9105   23.6331 C   0  0  0  0  0  0
  -16.7262  -28.6516   23.0365 C   0  0  0  0  0  0
  -26.4471  -31.6621   25.0765 C   0  0  0  0  0  0
  -25.3723  -31.3732   26.1493 C   0  0  0  0  0  0
  -27.0299  -30.3059   24.6170 C   0  0  0  0  0  0
  -27.6043  -32.4357   25.7531 C   0  0  0  0  0  0
  -27.5595  -37.1799   24.8441 C   0  0  0  0  0  0
  -21.4142  -29.3050   22.3709 N   0  0  0  0  0  0
  -26.4284  -37.3810   23.9416 N   0  0  0  0  0  0
  -24.6695  -31.0784   22.1038 N   0  0  0  0  0  0
  -23.4170  -28.8209   23.3036 O   0  0  0  0  0  0
  -28.4059  -26.7014   20.0617 O   0  0  0  0  0  0
  -26.5614  -34.8919   22.4677 O   0  0  0  0  0  0
  -23.5347  -32.1451   23.7513 O   0  0  0  0  0  0
  -30.4345  -17.7681   22.3281 C   0  0  0  0  0  0
  -29.7421  -19.1518   19.9992 C   0  0  0  0  0  0
  -30.0676  -17.0302   21.1823 C   0  0  0  0  0  0
  -30.4234  -19.1769   22.3353 C   0  0  0  0  0  0
  -29.7424  -17.7373   19.9889 C   0  0  0  0  0  0
  -30.0587  -19.8866   21.1679 C   0  0  0  0  0  0
  -30.0912  -22.2232   20.2717 C   0  0  0  0  0  0
  -30.7690  -19.9103   23.6226 C   0  0  0  0  0  0
  -27.8122  -17.0168   18.4928 C   0  0  0  0  0  0
  -29.7952  -15.5317   21.3863 C   0  0  0  0  0  0
  -29.3288  -17.0416   18.6969 C   0  0  0  0  0  0
  -29.7223  -23.6744   20.6400 C   0  0  0  0  0  0
  -29.7445  -24.6970   19.4669 C   0  0  0  0  0  0
  -28.4350  -25.4893   19.2925 C   0  0  0  0  0  0
  -29.9225  -21.3056   21.2403 N   0  0  0  0  0  0
  -30.5495  -21.9502   19.1589 O   0  0  0  0  0  0
  -31.4833  -12.4782   19.0845 H   0  0  0  0  0  0
  -30.3927  -11.2921   19.7499 H   0  0  0  0  0  0
  -29.7424  -11.8203   17.3924 H   0  0  0  0  0  0
  -29.6582  -13.5179   17.7667 H   0  0  0  0  0  0
  -27.8344  -11.3033   18.7731 H   0  0  0  0  0  0
  -27.3645  -12.6542   17.7744 H   0  0  0  0  0  0
  -27.7135  -14.2299   19.5945 H   0  0  0  0  0  0
  -28.6917  -11.8304   21.2310 H   0  0  0  0  0  0
  -28.4579  -13.3981   21.9099 H   0  0  0  0  0  0
  -25.2759   -9.5683   22.4730 H   0  0  0  0  0  0
  -24.0010   -7.4627   22.7436 H   0  0  0  0  0  0
  -21.0851   -8.8773   19.8914 H   0  0  0  0  0  0
  -22.3715  -10.9672   19.6136 H   0  0  0  0  0  0
  -21.1963   -7.6131   23.9776 H   0  0  0  0  0  0
  -21.1476   -6.0483   25.9104 H   0  0  0  0  0  0
  -22.0585   -2.7611   23.2853 H   0  0  0  0  0  0
  -22.3993  -11.9892   22.4865 H   0  0  0  0  0  0
  -21.1019  -13.1236   22.2622 H   0  0  0  0  0  0
  -24.6487  -15.8270   20.5340 H   0  0  0  0  0  0
  -26.2757  -15.6262   20.1247 H   0  0  0  0  0  0
  -26.7144  -32.5522   23.1200 H   0  0  0  0  0  0
  -25.0058  -33.9818   25.0457 H   0  0  0  0  0  0
  -22.6929  -31.3143   21.4182 H   0  0  0  0  0  0
  -23.3761  -35.9642   23.3236 H   0  0  0  0  0  0
  -24.3591  -36.9016   22.2059 H   0  0  0  0  0  0
  -23.7202  -37.6485   23.6705 H   0  0  0  0  0  0
  -26.0544  -31.5976   20.6076 H   0  0  0  0  0  0
  -26.8196  -30.8758   21.9958 H   0  0  0  0  0  0
  -28.0995  -29.0803   21.1622 H   0  0  0  0  0  0
  -25.9835  -26.0207   18.9374 H   0  0  0  0  0  0
  -23.9679  -27.3390   19.0005 H   0  0  0  0  0  0
  -23.7190  -30.6159   19.4098 H   0  0  0  0  0  0
  -22.7328  -29.2606   19.8681 H   0  0  0  0  0  0
  -25.1291  -36.1964   25.0799 H   0  0  0  0  0  0
  -20.9965  -28.3277   24.1425 H   0  0  0  0  0  0
  -20.5701  -26.2312   23.3617 H   0  0  0  0  0  0
  -21.6634  -26.7497   22.1195 H   0  0  0  0  0  0
  -19.6909  -25.6303   21.1283 H   0  0  0  0  0  0
  -19.6696  -27.3205   20.6746 H   0  0  0  0  0  0
  -17.4195  -26.6735   21.4011 H   0  0  0  0  0  0
  -18.0301  -26.0082   22.9011 H   0  0  0  0  0  0
  -19.7911  -30.7303   24.2314 H   0  0  0  0  0  0
  -17.4980  -31.6285   24.5179 H   0  0  0  0  0  0
  -15.5343  -30.3024   23.7619 H   0  0  0  0  0  0
  -15.8661  -28.0844   22.7082 H   0  0  0  0  0  0
  -24.5870  -30.7125   25.7792 H   0  0  0  0  0  0
  -24.8950  -32.2892   26.4989 H   0  0  0  0  0  0
  -25.8040  -30.8835   27.0230 H   0  0  0  0  0  0
  -26.2850  -29.6836   24.1189 H   0  0  0  0  0  0
  -27.3992  -29.7287   25.4657 H   0  0  0  0  0  0
  -27.8726  -30.4355   23.9377 H   0  0  0  0  0  0
  -27.2661  -33.3656   26.2116 H   0  0  0  0  0  0
  -28.3851  -32.6922   25.0363 H   0  0  0  0  0  0
  -28.0712  -31.8482   26.5443 H   0  0  0  0  0  0
  -28.2539  -38.0169   24.7598 H   0  0  0  0  0  0
  -28.1159  -36.2703   24.6135 H   0  0  0  0  0  0
  -27.2323  -37.1289   25.8838 H   0  0  0  0  0  0
  -20.9303  -29.8785   21.6937 H   0  0  0  0  0  0
  -26.0158  -38.2860   24.1496 H   0  0  0  0  0  0
  -30.6548  -17.2415   23.2481 H   0  0  0  0  0  0
  -29.4364  -19.6715   19.1014 H   0  0  0  0  0  0
  -31.0168  -19.2154   24.4253 H   0  0  0  0  0  0
  -29.9278  -20.5124   23.9640 H   0  0  0  0  0  0
  -31.6270  -20.5650   23.4697 H   0  0  0  0  0  0
  -27.5431  -16.4408   17.6063 H   0  0  0  0  0  0
  -27.4017  -18.0197   18.3809 H   0  0  0  0  0  0
  -27.3248  -16.5601   19.3462 H   0  0  0  0  0  0
  -28.7419  -15.4423   21.1309 H   0  0  0  0  0  0
  -29.8572  -15.2872   22.4467 H   0  0  0  0  0  0
  -29.7217  -16.0288   18.6458 H   0  0  0  0  0  0
  -29.7897  -17.5653   17.8582 H   0  0  0  0  0  0
  -30.3964  -24.0199   21.4259 H   0  0  0  0  0  0
  -28.7307  -23.6524   21.0941 H   0  0  0  0  0  0
  -29.9259  -24.1895   18.5196 H   0  0  0  0  0  0
  -30.5865  -25.3785   19.5840 H   0  0  0  0  0  0
  -27.6055  -24.8283   19.5453 H   0  0  0  0  0  0
  -28.3211  -25.7538   18.2380 H   0  0  0  0  0  0
  -29.6699  -21.6732   22.1483 H   0  0  0  0  0  0
  1 25  1  0  0  0
  1 30  2  0  0  0
  1 80  1  0  0  0
  2  3  1  0  0  0
  2 25  1  0  0  0
  2 87  1  0  0  0
  2 88  1  0  0  0
  3  4  1  0  0  0
  3 89  1  0  0  0
  3 90  1  0  0  0
  4  5  1  0  0  0
  4 91  1  0  0  0
  4 92  1  0  0  0
  5  6  1  0  0  0
  5 26  1  0  0  0
  5 93  1  0  0  0
  6 25  1  0  0  0
  6 94  1  0  0  0
  6 95  1  0  0  0
  7  8  2  0  0  0
  7 26  1  0  0  0
  7 29  1  0  0  0
  8  9  1  0  0  0
  8 22  1  0  0  0
  9 10  1  0  0  0
  9 27  2  0  0  0
 10 11  2  0  0  0
 10 15  1  0  0  0
 11 12  1  0  0  0
 11 96  1  0  0  0
 12 13  2  0  0  0
 12 97  1  0  0  0
 13 14  1  0  0  0
 13 31  1  0  0  0
 14 15  2  0  0  0
 14 98  1  0  0  0
 15 99  1  0  0  0
 16 17  2  0  0  0
 16 21  1  0  0  0
 16 31  1  0  0  0
 17 18  1  0  0  0
 17100  1  0  0  0
 18 19  2  0  0  0
 18101  1  0  0  0
 19 20  1  0  0  0
 19 24  1  0  0  0
 20 21  2  0  0  0
 20102  1  0  0  0
 21 23  1  0  0  0
 22 28  1  0  0  0
 22 32  2  0  0  0
 26 27  1  0  0  0
 28103  1  0  0  0
 28104  1  0  0  0
 29105  1  0  0  0
 29106  1  0  0  0
 33 34  1  0  0  0
 33 66  1  0  0  0
 33 70  2  0  0  0
 34 36  1  0  0  0
 34 59  1  0  0  0
 34107  1  0  0  0
 35 44  2  0  0  0
 35 45  1  0  0  0
 35 68  1  0  0  0
 36 56  1  0  0  0
 36108  1  0  0  0
 37 39  1  0  0  0
 37 47  1  0  0  0
 37 66  1  0  0  0
 37109  1  0  0  0
 38 43  2  0  0  0
 38 46  1  0  0  0
 38 47  1  0  0  0
 39 64  1  0  0  0
 39 67  2  0  0  0
 40 52  1  0  0  0
 40 53  2  0  0  0
 40 58  1  0  0  0
 41110  1  0  0  0
 41111  1  0  0  0
 41112  1  0  0  0
 41 48  1  0  0  0
 42 43  1  0  0  0
 42 66  1  0  0  0
 42113  1  0  0  0
 42114  1  0  0  0
 43 44  1  0  0  0
 44115  1  0  0  0
 45 46  2  0  0  0
 45116  1  0  0  0
 46117  1  0  0  0
 47118  1  0  0  0
 47119  1  0  0  0
 48 56  1  0  0  0
 48 65  1  0  0  0
 48120  1  0  0  0
 49 50  1  0  0  0
 49 53  1  0  0  0
 49 64  1  0  0  0
 49121  1  0  0  0
 50 51  1  0  0  0
 50122  1  0  0  0
 50123  1  0  0  0
 51 52  1  0  0  0
 51124  1  0  0  0
 51125  1  0  0  0
 52126  1  0  0  0
 52127  1  0  0  0
 53 54  1  0  0  0
 54 55  2  0  0  0
 54128  1  0  0  0
 55 57  1  0  0  0
 55129  1  0  0  0
 56 69  2  0  0  0
 57 58  2  0  0  0
 57130  1  0  0  0
 58131  1  0  0  0
 59 60  1  0  0  0
 59 61  1  0  0  0
 59 62  1  0  0  0
 60132  1  0  0  0
 60133  1  0  0  0
 60134  1  0  0  0
 61135  1  0  0  0
 61136  1  0  0  0
 61137  1  0  0  0
 62138  1  0  0  0
 62139  1  0  0  0
 62140  1  0  0  0
 63 65  1  0  0  0
 63141  1  0  0  0
 63142  1  0  0  0
 63143  1  0  0  0
 64144  1  0  0  0
 65145  1  0  0  0
 68 84  1  0  0  0
 71 73  2  0  0  0
 71 74  1  0  0  0
 71146  1  0  0  0
 72 75  2  0  0  0
 72 76  1  0  0  0
 72147  1  0  0  0
 73 75  1  0  0  0
 73 80  1  0  0  0
 74 76  2  0  0  0
 74 78  1  0  0  0
 75 81  1  0  0  0
 76 85  1  0  0  0
 77 82  1  0  0  0
 77 85  1  0  0  0
 77 86  2  0  0  0
 78148  1  0  0  0
 78149  1  0  0  0
 78150  1  0  0  0
 79 81  1  0  0  0
 79151  1  0  0  0
 79152  1  0  0  0
 79153  1  0  0  0
 80154  1  0  0  0
 80155  1  0  0  0
 81156  1  0  0  0
 81157  1  0  0  0
 82 83  1  0  0  0
 82158  1  0  0  0
 82159  1  0  0  0
 83 84  1  0  0  0
 83160  1  0  0  0
 83161  1  0  0  0
 84162  1  0  0  0
 84163  1  0  0  0
 85164  1  0  0  0
M  ISO  4   1 100  68 101  80 100  84 101
M  END
> <chiral flag>
0

> <version>
0

> <s_m_source_file>
/data/baiqing/PycharmProjects/Reinvent-master-3.2/result/LINK_invent/BTK/process_docking_weight1_custom_product_contain_oxygen_bond_distance_aromatic_linkinvent_7_9_3/rearranged_h_0111.sdf

> <i_m_source_file_index>
87

> <r_mmod_Potential_Energy-OPLS-2005>
-64.8395538330078

> <r_mmod_Stretch_Energy-OPLS-2005>
39.2930793762207

> <r_mmod_Bend_Energy-OPLS-2005>
113.26245880127

> <r_mmod_Torsional_Energy-OPLS-2005>
196.374496459961

> <r_mmod_Improper_Torsional_Energy-OPLS-2005>
4.4179482460022

> <r_mmod_Van_der_Waal_Energy-OPLS-2005>
163.986038208008

> <r_mmod_Electrostatic_Energy-OPLS-2005>
-377.835662841797

> <r_mmod_Solvation_Energy-OPLS-2005>
-219.492736816406

> <b_mmod_Minimization_Converged-OPLS-2005>
0

> <r_mmod_RMS_Derivative-OPLS-2005>
3.20698046684265

$$$$
89
                    3D
 Structure written by MMmdl.
170178  0  0  1  0            999 V2000
  -30.6927  -14.5970   20.5920 C   0  0  0  0  0  0
  -30.4267  -12.3923   19.4594 C   0  0  0  0  0  0
  -29.5045  -12.5325   18.2298 C   0  0  0  0  0  0
  -28.0285  -12.3643   18.6352 C   0  0  0  0  0  0
  -27.6565  -13.2213   19.8734 C   0  0  2  0  0  0
  -28.6931  -13.0539   21.0053 C   0  0  0  0  0  0
  -25.2520  -13.8173   20.5558 C   0  0  0  0  0  0
  -24.1800  -13.0437   20.9102 C   0  0  0  0  0  0
  -24.6396  -11.6916   20.8719 C   0  0  0  0  0  0
  -23.9068  -10.4299   21.0405 C   0  0  0  0  0  0
  -24.3619   -9.4218   21.9187 C   0  0  0  0  0  0
  -23.6294   -8.2251   22.0758 C   0  0  0  0  0  0
  -22.4277   -8.0287   21.3546 C   0  0  0  0  0  0
  -21.9912   -9.0259   20.4648 C   0  0  0  0  0  0
  -22.7240  -10.2138   20.3055 C   0  0  0  0  0  0
  -21.6856   -6.0738   22.5280 C   0  0  0  0  0  0
  -21.4015   -6.5641   23.8214 C   0  0  0  0  0  0
  -21.3661   -5.6793   24.9176 C   0  0  0  0  0  0
  -21.6042   -4.3056   24.7224 C   0  0  0  0  0  0
  -21.8820   -3.8148   23.4347 C   0  0  0  0  0  0
  -21.9193   -4.6965   22.3403 C   0  0  0  0  0  0
  -22.7837  -13.5235   21.1827 C   0  0  0  0  0  0
  -22.1662   -4.2152   21.0982 F   0  0  0  0  0  0
  -21.5630   -3.4539   25.7737 F   0  0  0  0  0  0
  -30.0208  -13.4001   20.4658 N   0  0  0  0  0  0
  -26.2999  -12.9379   20.3348 N   0  0  0  0  0  0
  -25.9338  -11.6528   20.5786 N   0  0  0  0  0  0
  -22.0514  -12.8225   22.0413 N   0  0  0  0  0  0
  -25.4211  -15.1878   20.3929 N   0  0  0  0  0  0
  -31.7568  -14.7912   19.9944 O   0  0  0  0  0  0
  -21.6643   -6.8881   21.4242 O   0  0  0  0  0  0
  -22.3504  -14.5548   20.6714 O   0  0  0  0  0  0
  -24.6248  -31.8605   23.2025 C   0  0  0  0  0  0
  -25.9099  -32.4784   23.8354 C   0  0  1  0  0  0
  -27.2234  -27.3271   20.1260 C   0  0  0  0  0  0
  -25.5918  -33.8585   24.2285 N   0  0  0  0  0  0
  -23.4185  -30.4832   21.5446 C   0  0  2  0  0  0
  -24.8663  -28.9366   20.1132 C   0  0  0  0  0  0
  -22.7465  -29.4627   22.4934 C   0  0  0  0  0  0
  -18.0284  -28.1384   22.8484 C   0  0  0  0  0  0
  -24.1487  -36.7297   23.2638 C   0  0  0  0  0  0
  -25.9582  -30.7947   21.3720 C   0  0  0  0  0  0
  -26.0342  -29.4213   20.7171 C   0  0  0  0  0  0
  -27.2191  -28.6287   20.7114 C   0  0  0  0  0  0
  -26.0392  -26.8938   19.4927 C   0  0  0  0  0  0
  -24.8699  -27.6778   19.4907 C   0  0  0  0  0  0
  -23.6333  -29.8158   20.1606 C   0  0  0  0  0  0
  -25.4114  -36.3088   24.0330 C   0  0  1  0  0  0
  -20.5881  -28.3691   23.1282 C   0  0  2  0  0  0
  -20.6773  -26.9414   22.5409 C   0  0  0  0  0  0
  -19.5751  -26.6385   21.5209 C   0  0  0  0  0  0
  -18.1929  -26.7928   22.1621 C   0  0  0  0  0  0
  -19.1535  -28.8852   23.2881 C   0  0  0  0  0  0
  -18.9461  -30.1453   23.8902 C   0  0  0  0  0  0
  -17.6463  -30.6588   24.0562 C   0  0  0  0  0  0
  -25.9048  -34.9456   23.5109 C   0  0  0  0  0  0
  -16.5353  -29.9086   23.6330 C   0  0  0  0  0  0
  -16.7273  -28.6502   23.0355 C   0  0  0  0  0  0
  -26.4492  -31.6588   25.0719 C   0  0  0  0  0  0
  -25.3731  -31.3718   26.1449 C   0  0  0  0  0  0
  -27.0341  -30.3018   24.6163 C   0  0  0  0  0  0
  -27.6046  -32.4326   25.7493 C   0  0  0  0  0  0
  -27.5583  -37.1801   24.8466 C   0  0  0  0  0  0
  -21.4180  -29.3045   22.3675 N   0  0  0  0  0  0
  -26.4295  -37.3780   23.9411 N   0  0  0  0  0  0
  -24.6858  -31.0624   22.0970 N   0  0  0  0  0  0
  -23.4192  -28.8168   23.3012 O   0  0  0  0  0  0
  -28.3362  -26.4789   20.1445 O   0  0  0  0  0  0
  -26.5617  -34.8923   22.4676 O   0  0  0  0  0  0
  -23.5414  -32.1397   23.7358 O   0  0  0  0  0  0
  -30.4752  -17.7371   20.0443 C   0  0  0  0  0  0
  -29.8495  -17.1474   21.1773 C   0  0  0  0  0  0
  -28.9835  -18.0523   21.9110 C   0  0  0  0  0  0
  -30.3122  -19.1030   19.6805 C   0  0  0  0  0  0
  -28.7708  -19.4198   21.4941 C   0  0  0  0  0  0
  -29.4731  -19.9966   20.3965 C   0  0  0  0  0  0
  -30.1796  -15.6781   21.6067 C   0  0  0  0  0  0
  -26.8023  -15.9832   24.0192 C   0  0  0  0  0  0
  -25.8080  -14.8590   23.8163 C   0  0  0  0  0  0
  -27.1238  -16.3074   25.4741 C   0  0  0  0  0  0
  -26.5281  -20.0128   21.7638 C   0  0  0  0  0  0
  -28.2983  -17.6228   23.2193 C   0  0  0  0  0  0
  -28.9380  -23.8925   20.0077 C   0  0  0  0  0  0
  -28.1316  -25.1020   20.6521 C   0  0  0  0  0  0
  -28.7261  -22.4392   20.6340 C   0  0  0  0  0  0
  -30.1313  -15.3153   22.8205 N   0  0  0  0  0  0
  -27.3129  -16.5732   23.0086 N   0  0  0  0  0  0
  -31.0151  -19.5936   18.5797 N   0  0  0  0  0  0
  -27.8775  -20.2078   22.1754 O   0  0  0  0  0  0
  -29.4153  -21.3426   19.9466 O   0  0  0  0  0  0
  -31.4706  -12.4978   19.1592 H   0  0  0  0  0  0
  -30.3476  -11.3894   19.8822 H   0  0  0  0  0  0
  -29.7707  -11.7948   17.4716 H   0  0  0  0  0  0
  -29.6513  -13.5115   17.7712 H   0  0  0  0  0  0
  -27.8622  -11.3089   18.8532 H   0  0  0  0  0  0
  -27.3752  -12.6079   17.7968 H   0  0  0  0  0  0
  -27.6853  -14.2636   19.5547 H   0  0  0  0  0  0
  -28.6980  -12.0256   21.3698 H   0  0  0  0  0  0
  -28.4017  -13.6607   21.8606 H   0  0  0  0  0  0
  -25.2765   -9.5699   22.4760 H   0  0  0  0  0  0
  -24.0006   -7.4645   22.7479 H   0  0  0  0  0  0
  -21.0844   -8.8777   19.8952 H   0  0  0  0  0  0
  -22.3699  -10.9675   19.6161 H   0  0  0  0  0  0
  -21.2006   -7.6148   23.9718 H   0  0  0  0  0  0
  -21.1482   -6.0523   25.9080 H   0  0  0  0  0  0
  -22.0597   -2.7610   23.2847 H   0  0  0  0  0  0
  -22.4128  -11.9867   22.4762 H   0  0  0  0  0  0
  -21.1146  -13.1261   22.2657 H   0  0  0  0  0  0
  -24.6785  -15.8454   20.5984 H   0  0  0  0  0  0
  -26.3267  -15.6329   20.3142 H   0  0  0  0  0  0
  -26.7162  -32.5465   23.1100 H   0  0  0  0  0  0
  -25.0060  -33.9729   25.0427 H   0  0  0  0  0  0
  -22.7121  -31.3033   21.4011 H   0  0  0  0  0  0
  -23.3753  -35.9625   23.3299 H   0  0  0  0  0  0
  -24.3577  -36.8923   22.2054 H   0  0  0  0  0  0
  -23.7231  -37.6494   23.6664 H   0  0  0  0  0  0
  -26.0860  -31.5572   20.6028 H   0  0  0  0  0  0
  -26.8397  -30.8457   21.9994 H   0  0  0  0  0  0
  -28.1173  -28.9961   21.1874 H   0  0  0  0  0  0
  -26.0103  -25.9314   19.0017 H   0  0  0  0  0  0
  -23.9765  -27.3033   19.0107 H   0  0  0  0  0  0
  -23.7518  -30.5918   19.4035 H   0  0  0  0  0  0
  -22.7542  -29.2439   19.8583 H   0  0  0  0  0  0
  -25.1289  -36.1943   25.0821 H   0  0  0  0  0  0
  -20.9975  -28.3271   24.1403 H   0  0  0  0  0  0
  -20.5674  -26.2299   23.3608 H   0  0  0  0  0  0
  -21.6644  -26.7445   22.1203 H   0  0  0  0  0  0
  -19.6914  -25.6295   21.1239 H   0  0  0  0  0  0
  -19.6691  -27.3194   20.6737 H   0  0  0  0  0  0
  -17.4198  -26.6674   21.4024 H   0  0  0  0  0  0
  -18.0335  -26.0069   22.9017 H   0  0  0  0  0  0
  -19.7941  -30.7262   24.2276 H   0  0  0  0  0  0
  -17.5023  -31.6269   24.5164 H   0  0  0  0  0  0
  -15.5356  -30.2994   23.7653 H   0  0  0  0  0  0
  -15.8671  -28.0823   22.7075 H   0  0  0  0  0  0
  -24.5911  -30.7059   25.7779 H   0  0  0  0  0  0
  -24.8917  -32.2882   26.4873 H   0  0  0  0  0  0
  -25.8066  -30.8900   27.0222 H   0  0  0  0  0  0
  -26.2914  -29.6759   24.1202 H   0  0  0  0  0  0
  -27.4066  -29.7277   25.4656 H   0  0  0  0  0  0
  -27.8769  -30.4314   23.9368 H   0  0  0  0  0  0
  -27.2653  -33.3631   26.2057 H   0  0  0  0  0  0
  -28.3867  -32.6876   25.0330 H   0  0  0  0  0  0
  -28.0702  -31.8461   26.5425 H   0  0  0  0  0  0
  -28.2588  -38.0109   24.7527 H   0  0  0  0  0  0
  -28.1088  -36.2641   24.6274 H   0  0  0  0  0  0
  -27.2302  -37.1428   25.8867 H   0  0  0  0  0  0
  -20.9351  -29.8771   21.6893 H   0  0  0  0  0  0
  -26.0180  -38.2852   24.1422 H   0  0  0  0  0  0
  -31.1515  -17.1405   19.4511 H   0  0  0  0  0  0
  -25.4806  -14.4221   24.7591 H   0  0  0  0  0  0
  -26.2606  -14.0646   23.2237 H   0  0  0  0  0  0
  -24.9267  -15.2261   23.2905 H   0  0  0  0  0  0
  -26.4435  -15.8046   26.1608 H   0  0  0  0  0  0
  -27.0371  -17.3769   25.6650 H   0  0  0  0  0  0
  -28.1372  -15.9881   25.7185 H   0  0  0  0  0  0
  -25.8867  -20.7395   22.2622 H   0  0  0  0  0  0
  -26.1625  -19.0181   22.0180 H   0  0  0  0  0  0
  -26.4149  -20.1509   20.6874 H   0  0  0  0  0  0
  -27.8211  -18.4690   23.7123 H   0  0  0  0  0  0
  -29.0721  -17.3329   23.9306 H   0  0  0  0  0  0
  -30.0014  -24.1296   20.0422 H   0  0  0  0  0  0
  -28.6815  -23.8452   18.9495 H   0  0  0  0  0  0
  -28.3876  -25.1374   21.7112 H   0  0  0  0  0  0
  -27.0773  -24.8280   20.6413 H   0  0  0  0  0  0
  -27.6570  -22.2322   20.6270 H   0  0  0  0  0  0
  -29.0428  -22.4554   21.6773 H   0  0  0  0  0  0
  -29.8038  -16.0651   23.4113 H   0  0  0  0  0  0
  -31.3091  -18.9452   17.8566 H   0  0  0  0  0  0
  -30.7049  -20.4888   18.2130 H   0  0  0  0  0  0
  1 25  1  0  0  0
  1 30  2  0  0  0
  1 77  1  0  0  0
  2  3  1  0  0  0
  2 25  1  0  0  0
  2 91  1  0  0  0
  2 92  1  0  0  0
  3  4  1  0  0  0
  3 93  1  0  0  0
  3 94  1  0  0  0
  4  5  1  0  0  0
  4 95  1  0  0  0
  4 96  1  0  0  0
  5  6  1  0  0  0
  5 26  1  0  0  0
  5 97  1  0  0  0
  6 25  1  0  0  0
  6 98  1  0  0  0
  6 99  1  0  0  0
  7  8  2  0  0  0
  7 26  1  0  0  0
  7 29  1  0  0  0
  8  9  1  0  0  0
  8 22  1  0  0  0
  9 10  1  0  0  0
  9 27  2  0  0  0
 10 11  2  0  0  0
 10 15  1  0  0  0
 11 12  1  0  0  0
 11100  1  0  0  0
 12 13  2  0  0  0
 12101  1  0  0  0
 13 14  1  0  0  0
 13 31  1  0  0  0
 14 15  2  0  0  0
 14102  1  0  0  0
 15103  1  0  0  0
 16 17  2  0  0  0
 16 21  1  0  0  0
 16 31  1  0  0  0
 17 18  1  0  0  0
 17104  1  0  0  0
 18 19  2  0  0  0
 18105  1  0  0  0
 19 20  1  0  0  0
 19 24  1  0  0  0
 20 21  2  0  0  0
 20106  1  0  0  0
 21 23  1  0  0  0
 22 28  1  0  0  0
 22 32  2  0  0  0
 26 27  1  0  0  0
 28107  1  0  0  0
 28108  1  0  0  0
 29109  1  0  0  0
 29110  1  0  0  0
 33 34  1  0  0  0
 33 66  1  0  0  0
 33 70  2  0  0  0
 34 36  1  0  0  0
 34 59  1  0  0  0
 34111  1  0  0  0
 35 44  2  0  0  0
 35 45  1  0  0  0
 35 68  1  0  0  0
 36 56  1  0  0  0
 36112  1  0  0  0
 37 39  1  0  0  0
 37 47  1  0  0  0
 37 66  1  0  0  0
 37113  1  0  0  0
 38 43  2  0  0  0
 38 46  1  0  0  0
 38 47  1  0  0  0
 39 64  1  0  0  0
 39 67  2  0  0  0
 40 52  1  0  0  0
 40 53  2  0  0  0
 40 58  1  0  0  0
 41114  1  0  0  0
 41115  1  0  0  0
 41116  1  0  0  0
 41 48  1  0  0  0
 42 43  1  0  0  0
 42 66  1  0  0  0
 42117  1  0  0  0
 42118  1  0  0  0
 43 44  1  0  0  0
 44119  1  0  0  0
 45 46  2  0  0  0
 45120  1  0  0  0
 46121  1  0  0  0
 47122  1  0  0  0
 47123  1  0  0  0
 48 56  1  0  0  0
 48 65  1  0  0  0
 48124  1  0  0  0
 49 50  1  0  0  0
 49 53  1  0  0  0
 49 64  1  0  0  0
 49125  1  0  0  0
 50 51  1  0  0  0
 50126  1  0  0  0
 50127  1  0  0  0
 51 52  1  0  0  0
 51128  1  0  0  0
 51129  1  0  0  0
 52130  1  0  0  0
 52131  1  0  0  0
 53 54  1  0  0  0
 54 55  2  0  0  0
 54132  1  0  0  0
 55 57  1  0  0  0
 55133  1  0  0  0
 56 69  2  0  0  0
 57 58  2  0  0  0
 57134  1  0  0  0
 58135  1  0  0  0
 59 60  1  0  0  0
 59 61  1  0  0  0
 59 62  1  0  0  0
 60136  1  0  0  0
 60137  1  0  0  0
 60138  1  0  0  0
 61139  1  0  0  0
 61140  1  0  0  0
 61141  1  0  0  0
 62142  1  0  0  0
 62143  1  0  0  0
 62144  1  0  0  0
 63 65  1  0  0  0
 63145  1  0  0  0
 63146  1  0  0  0
 63147  1  0  0  0
 64148  1  0  0  0
 65149  1  0  0  0
 68 84  1  0  0  0
 71 72  2  0  0  0
 71 74  1  0  0  0
 71150  1  0  0  0
 72 73  1  0  0  0
 72 77  1  0  0  0
 73 75  2  0  0  0
 73 82  1  0  0  0
 74 76  2  0  0  0
 74 88  1  0  0  0
 75 76  1  0  0  0
 75 89  1  0  0  0
 76 90  1  0  0  0
 77 86  2  0  0  0
 78 79  1  0  0  0
 78 80  1  0  0  0
 78 87  2  0  0  0
 79151  1  0  0  0
 79152  1  0  0  0
 79153  1  0  0  0
 80154  1  0  0  0
 80155  1  0  0  0
 80156  1  0  0  0
 81 89  1  0  0  0
 81157  1  0  0  0
 81158  1  0  0  0
 81159  1  0  0  0
 82 87  1  0  0  0
 82160  1  0  0  0
 82161  1  0  0  0
 83 84  1  0  0  0
 83 85  1  0  0  0
 83162  1  0  0  0
 83163  1  0  0  0
 84164  1  0  0  0
 84165  1  0  0  0
 85 90  1  0  0  0
 85166  1  0  0  0
 85167  1  0  0  0
 86168  1  0  0  0
 88169  1  0  0  0
 88170  1  0  0  0
M  ISO  4   1 100  68 101  77 100  84 101
M  END
> <chiral flag>
0

> <version>
0

> <s_m_source_file>
/data/baiqing/PycharmProjects/Reinvent-master-3.2/result/LINK_invent/BTK/process_docking_weight1_custom_product_contain_oxygen_bond_distance_aromatic_linkinvent_7_9_3/rearranged_h_0111.sdf

> <i_m_source_file_index>
88

> <r_mmod_Potential_Energy-OPLS-2005>
211.341125488281

> <r_mmod_Stretch_Energy-OPLS-2005>
101.047790527344

> <r_mmod_Bend_Energy-OPLS-2005>
167.16162109375

> <r_mmod_Torsional_Energy-OPLS-2005>
257.004272460938

> <r_mmod_Improper_Torsional_Energy-OPLS-2005>
7.57151031494141

> <r_mmod_Van_der_Waal_Energy-OPLS-2005>
152.476745605469

> <r_mmod_Electrostatic_Energy-OPLS-2005>
-305.796752929688

> <r_mmod_Solvation_Energy-OPLS-2005>
-207.545135498047

> <b_mmod_Minimization_Converged-OPLS-2005>
0

> <r_mmod_RMS_Derivative-OPLS-2005>
0.572393357753754

$$$$
90
                    3D
 Structure written by MMmdl.
160169  0  0  1  0            999 V2000
  -30.7803  -14.4715   20.6320 C   0  0  0  0  0  0
  -30.4004  -12.3386   19.4308 C   0  0  0  0  0  0
  -29.4785  -12.4983   18.2086 C   0  0  0  0  0  0
  -28.0099  -12.3049   18.6252 C   0  0  0  0  0  0
  -27.6416  -13.1742   19.8490 C   0  0  2  0  0  0
  -28.6860  -13.0464   20.9881 C   0  0  0  0  0  0
  -25.2567  -13.8084   20.5684 C   0  0  0  0  0  0
  -24.1789  -13.0399   20.9182 C   0  0  0  0  0  0
  -24.6309  -11.6864   20.8753 C   0  0  0  0  0  0
  -23.8989  -10.4282   21.0432 C   0  0  0  0  0  0
  -24.3580   -9.4207   21.9196 C   0  0  0  0  0  0
  -23.6285   -8.2232   22.0750 C   0  0  0  0  0  0
  -22.4266   -8.0275   21.3543 C   0  0  0  0  0  0
  -21.9880   -9.0233   20.4639 C   0  0  0  0  0  0
  -22.7183  -10.2122   20.3064 C   0  0  0  0  0  0
  -21.6836   -6.0736   22.5288 C   0  0  0  0  0  0
  -21.3990   -6.5639   23.8223 C   0  0  0  0  0  0
  -21.3665   -5.6792   24.9186 C   0  0  0  0  0  0
  -21.6056   -4.3054   24.7232 C   0  0  0  0  0  0
  -21.8820   -3.8147   23.4352 C   0  0  0  0  0  0
  -21.9186   -4.6970   22.3405 C   0  0  0  0  0  0
  -22.7839  -13.5243   21.1887 C   0  0  0  0  0  0
  -22.1661   -4.2156   21.0985 F   0  0  0  0  0  0
  -21.5648   -3.4544   25.7743 F   0  0  0  0  0  0
  -30.0124  -13.3535   20.4330 N   0  0  0  0  0  0
  -26.2900  -12.9157   20.3274 N   0  0  0  0  0  0
  -25.9210  -11.6362   20.5763 N   0  0  0  0  0  0
  -22.0483  -12.8212   22.0432 N   0  0  0  0  0  0
  -25.4430  -15.1788   20.4192 N   0  0  0  0  0  0
  -31.8815  -14.5710   20.0808 O   0  0  0  0  0  0
  -21.6630   -6.8881   21.4245 O   0  0  0  0  0  0
  -22.3533  -14.5559   20.6757 O   0  0  0  0  0  0
  -24.6110  -31.8703   23.2094 C   0  0  0  0  0  0
  -25.9006  -32.4826   23.8398 C   0  0  1  0  0  0
  -27.2363  -27.4547   20.0940 C   0  0  0  0  0  0
  -25.5881  -33.8629   24.2324 N   0  0  0  0  0  0
  -23.3991  -30.4917   21.5496 C   0  0  2  0  0  0
  -24.8487  -28.9601   20.1168 C   0  0  0  0  0  0
  -22.7402  -29.4646   22.4985 C   0  0  0  0  0  0
  -18.0278  -28.1369   22.8489 C   0  0  0  0  0  0
  -24.1499  -36.7324   23.2635 C   0  0  0  0  0  0
  -25.9262  -30.8406   21.3626 C   0  0  0  0  0  0
  -26.0058  -29.4730   20.7169 C   0  0  0  0  0  0
  -27.2041  -28.7238   20.7118 C   0  0  0  0  0  0
  -26.0715  -26.9599   19.4724 C   0  0  0  0  0  0
  -24.8731  -27.6978   19.4972 C   0  0  0  0  0  0
  -23.6089  -29.8245   20.1656 C   0  0  0  0  0  0
  -25.4127  -36.3122   24.0331 C   0  0  1  0  0  0
  -20.5870  -28.3651   23.1338 C   0  0  2  0  0  0
  -20.6767  -26.9390   22.5431 C   0  0  0  0  0  0
  -19.5750  -26.6389   21.5219 C   0  0  0  0  0  0
  -18.1925  -26.7922   22.1623 C   0  0  0  0  0  0
  -19.1527  -28.8826   23.2902 C   0  0  0  0  0  0
  -18.9455  -30.1436   23.8902 C   0  0  0  0  0  0
  -17.6460  -30.6572   24.0570 C   0  0  0  0  0  0
  -25.9045  -34.9484   23.5122 C   0  0  0  0  0  0
  -16.5348  -29.9083   23.6321 C   0  0  0  0  0  0
  -16.7270  -28.6506   23.0330 C   0  0  0  0  0  0
  -26.4457  -31.6590   25.0697 C   0  0  0  0  0  0
  -25.3726  -31.3686   26.1448 C   0  0  0  0  0  0
  -27.0265  -30.3041   24.6018 C   0  0  0  0  0  0
  -27.6042  -32.4303   25.7462 C   0  0  0  0  0  0
  -27.5592  -37.1809   24.8460 C   0  0  0  0  0  0
  -21.4134  -29.3011   22.3729 N   0  0  0  0  0  0
  -26.4314  -37.3805   23.9394 N   0  0  0  0  0  0
  -24.6626  -31.0822   22.0986 N   0  0  0  0  0  0
  -23.4187  -28.8186   23.3017 O   0  0  0  0  0  0
  -28.3961  -26.7188   20.0436 O   0  0  0  0  0  0
  -26.5625  -34.8940   22.4694 O   0  0  0  0  0  0
  -23.5304  -32.1457   23.7486 O   0  0  0  0  0  0
  -28.8043  -18.7865   21.7238 C   0  0  0  0  0  0
  -30.6525  -19.9917   22.8045 C   0  0  0  0  0  0
  -29.5917  -17.6218   21.7985 C   0  0  0  0  0  0
  -30.8407  -17.6229   22.3680 C   0  0  0  0  0  0
  -31.4093  -18.7978   22.8948 C   0  0  0  0  0  0
  -29.3530  -19.9937   22.2232 C   0  0  0  0  0  0
  -29.2940  -16.2807   21.2379 C   0  0  0  0  0  0
  -28.9140  -22.4248   21.9093 C   0  0  0  0  0  0
  -31.3956  -16.2266   22.2523 C   0  0  0  0  0  0
  -32.7810  -18.7906   23.5392 C   0  0  0  0  0  0
  -27.8398  -23.5018   22.1133 C   0  0  0  0  0  0
  -27.7010  -24.5250   20.9664 C   0  0  0  0  0  0
  -28.5764  -25.7882   21.1155 C   0  0  0  0  0  0
  -30.3785  -15.4810   21.4528 N   0  0  0  0  0  0
  -28.5478  -21.1645   22.2033 N   0  0  0  0  0  0
  -28.2549  -16.0619   20.6182 O   0  0  0  0  0  0
  -30.0294  -22.7315   21.4821 O   0  0  0  0  0  0
  -31.4432  -12.4153   19.1186 H   0  0  0  0  0  0
  -30.3040  -11.3378   19.8562 H   0  0  0  0  0  0
  -29.7456  -11.7804   17.4313 H   0  0  0  0  0  0
  -29.6100  -13.4899   17.7727 H   0  0  0  0  0  0
  -27.8561  -11.2496   18.8533 H   0  0  0  0  0  0
  -27.3496  -12.5371   17.7888 H   0  0  0  0  0  0
  -27.6448  -14.1762   19.4388 H   0  0  0  0  0  0
  -28.6861  -12.0326   21.3879 H   0  0  0  0  0  0
  -28.4224  -13.6841   21.8320 H   0  0  0  0  0  0
  -25.2735   -9.5703   22.4753 H   0  0  0  0  0  0
  -24.0029   -7.4614   22.7432 H   0  0  0  0  0  0
  -21.0836   -8.8723   19.8928 H   0  0  0  0  0  0
  -22.3647  -10.9657   19.6177 H   0  0  0  0  0  0
  -21.1957   -7.6143   23.9734 H   0  0  0  0  0  0
  -21.1488   -6.0514   25.9094 H   0  0  0  0  0  0
  -22.0588   -2.7610   23.2841 H   0  0  0  0  0  0
  -22.4108  -11.9879   22.4827 H   0  0  0  0  0  0
  -21.1087  -13.1198   22.2630 H   0  0  0  0  0  0
  -24.7206  -15.8633   20.6121 H   0  0  0  0  0  0
  -26.3634  -15.5931   20.2763 H   0  0  0  0  0  0
  -26.7057  -32.5557   23.1151 H   0  0  0  0  0  0
  -24.9990  -33.9802   25.0441 H   0  0  0  0  0  0
  -22.6852  -31.3048   21.4079 H   0  0  0  0  0  0
  -23.3758  -35.9657   23.3320 H   0  0  0  0  0  0
  -24.3590  -36.8926   22.2040 H   0  0  0  0  0  0
  -23.7263  -37.6540   23.6646 H   0  0  0  0  0  0
  -26.0382  -31.6033   20.5904 H   0  0  0  0  0  0
  -26.8135  -30.8973   21.9783 H   0  0  0  0  0  0
  -28.0990  -29.1172   21.1735 H   0  0  0  0  0  0
  -26.0913  -26.0045   18.9691 H   0  0  0  0  0  0
  -23.9843  -27.3001   19.0269 H   0  0  0  0  0  0
  -23.7103  -30.5976   19.4034 H   0  0  0  0  0  0
  -22.7342  -29.2404   19.8723 H   0  0  0  0  0  0
  -25.1300  -36.1998   25.0826 H   0  0  0  0  0  0
  -20.9959  -28.3198   24.1460 H   0  0  0  0  0  0
  -20.5710  -26.2219   23.3600 H   0  0  0  0  0  0
  -21.6629  -26.7444   22.1193 H   0  0  0  0  0  0
  -19.6918  -25.6313   21.1213 H   0  0  0  0  0  0
  -19.6705  -27.3220   20.6777 H   0  0  0  0  0  0
  -17.4203  -26.6677   21.4017 H   0  0  0  0  0  0
  -18.0306  -26.0071   22.9027 H   0  0  0  0  0  0
  -19.7931  -30.7258   24.2258 H   0  0  0  0  0  0
  -17.5012  -31.6251   24.5172 H   0  0  0  0  0  0
  -15.5341  -30.2981   23.7651 H   0  0  0  0  0  0
  -15.8669  -28.0841   22.7010 H   0  0  0  0  0  0
  -24.5901  -30.7033   25.7785 H   0  0  0  0  0  0
  -24.8906  -32.2826   26.4922 H   0  0  0  0  0  0
  -25.8084  -30.8840   27.0192 H   0  0  0  0  0  0
  -26.2765  -29.6818   24.1114 H   0  0  0  0  0  0
  -27.4108  -29.7263   25.4434 H   0  0  0  0  0  0
  -27.8581  -30.4384   23.9091 H   0  0  0  0  0  0
  -27.2666  -33.3600   26.2078 H   0  0  0  0  0  0
  -28.3834  -32.6888   25.0263 H   0  0  0  0  0  0
  -28.0733  -31.8400   26.5344 H   0  0  0  0  0  0
  -28.2612  -38.0103   24.7522 H   0  0  0  0  0  0
  -28.1089  -36.2641   24.6282 H   0  0  0  0  0  0
  -27.2299  -37.1446   25.8858 H   0  0  0  0  0  0
  -20.9274  -29.8724   21.6955 H   0  0  0  0  0  0
  -26.0209  -38.2887   24.1405 H   0  0  0  0  0  0
  -27.8233  -18.7518   21.2701 H   0  0  0  0  0  0
  -31.0632  -20.9095   23.2011 H   0  0  0  0  0  0
  -31.5027  -15.7821   23.2422 H   0  0  0  0  0  0
  -32.3827  -16.2631   21.7921 H   0  0  0  0  0  0
  -32.7417  -18.2618   24.4912 H   0  0  0  0  0  0
  -33.1387  -19.8048   23.7251 H   0  0  0  0  0  0
  -33.5137  -18.2933   22.9044 H   0  0  0  0  0  0
  -28.0390  -24.0139   23.0550 H   0  0  0  0  0  0
  -26.8755  -23.0096   22.2437 H   0  0  0  0  0  0
  -26.6553  -24.8234   20.9433 H   0  0  0  0  0  0
  -27.8979  -24.0485   20.0056 H   0  0  0  0  0  0
  -29.6290  -25.5064   21.1242 H   0  0  0  0  0  0
  -28.3840  -26.2781   22.0717 H   0  0  0  0  0  0
  -27.5655  -21.0365   22.4059 H   0  0  0  0  0  0
  1 25  1  0  0  0
  1 30  2  0  0  0
  1 84  1  0  0  0
  2  3  1  0  0  0
  2 25  1  0  0  0
  2 88  1  0  0  0
  2 89  1  0  0  0
  3  4  1  0  0  0
  3 90  1  0  0  0
  3 91  1  0  0  0
  4  5  1  0  0  0
  4 92  1  0  0  0
  4 93  1  0  0  0
  5  6  1  0  0  0
  5 26  1  0  0  0
  5 94  1  0  0  0
  6 25  1  0  0  0
  6 95  1  0  0  0
  6 96  1  0  0  0
  7  8  2  0  0  0
  7 26  1  0  0  0
  7 29  1  0  0  0
  8  9  1  0  0  0
  8 22  1  0  0  0
  9 10  1  0  0  0
  9 27  2  0  0  0
 10 11  2  0  0  0
 10 15  1  0  0  0
 11 12  1  0  0  0
 11 97  1  0  0  0
 12 13  2  0  0  0
 12 98  1  0  0  0
 13 14  1  0  0  0
 13 31  1  0  0  0
 14 15  2  0  0  0
 14 99  1  0  0  0
 15100  1  0  0  0
 16 17  2  0  0  0
 16 21  1  0  0  0
 16 31  1  0  0  0
 17 18  1  0  0  0
 17101  1  0  0  0
 18 19  2  0  0  0
 18102  1  0  0  0
 19 20  1  0  0  0
 19 24  1  0  0  0
 20 21  2  0  0  0
 20103  1  0  0  0
 21 23  1  0  0  0
 22 28  1  0  0  0
 22 32  2  0  0  0
 26 27  1  0  0  0
 28104  1  0  0  0
 28105  1  0  0  0
 29106  1  0  0  0
 29107  1  0  0  0
 33 34  1  0  0  0
 33 66  1  0  0  0
 33 70  2  0  0  0
 34 36  1  0  0  0
 34 59  1  0  0  0
 34108  1  0  0  0
 35 44  2  0  0  0
 35 45  1  0  0  0
 35 68  1  0  0  0
 36 56  1  0  0  0
 36109  1  0  0  0
 37 39  1  0  0  0
 37 47  1  0  0  0
 37 66  1  0  0  0
 37110  1  0  0  0
 38 43  2  0  0  0
 38 46  1  0  0  0
 38 47  1  0  0  0
 39 64  1  0  0  0
 39 67  2  0  0  0
 40 52  1  0  0  0
 40 53  2  0  0  0
 40 58  1  0  0  0
 41111  1  0  0  0
 41112  1  0  0  0
 41113  1  0  0  0
 41 48  1  0  0  0
 42 43  1  0  0  0
 42 66  1  0  0  0
 42114  1  0  0  0
 42115  1  0  0  0
 43 44  1  0  0  0
 44116  1  0  0  0
 45 46  2  0  0  0
 45117  1  0  0  0
 46118  1  0  0  0
 47119  1  0  0  0
 47120  1  0  0  0
 48 56  1  0  0  0
 48 65  1  0  0  0
 48121  1  0  0  0
 49 50  1  0  0  0
 49 53  1  0  0  0
 49 64  1  0  0  0
 49122  1  0  0  0
 50 51  1  0  0  0
 50123  1  0  0  0
 50124  1  0  0  0
 51 52  1  0  0  0
 51125  1  0  0  0
 51126  1  0  0  0
 52127  1  0  0  0
 52128  1  0  0  0
 53 54  1  0  0  0
 54 55  2  0  0  0
 54129  1  0  0  0
 55 57  1  0  0  0
 55130  1  0  0  0
 56 69  2  0  0  0
 57 58  2  0  0  0
 57131  1  0  0  0
 58132  1  0  0  0
 59 60  1  0  0  0
 59 61  1  0  0  0
 59 62  1  0  0  0
 60133  1  0  0  0
 60134  1  0  0  0
 60135  1  0  0  0
 61136  1  0  0  0
 61137  1  0  0  0
 61138  1  0  0  0
 62139  1  0  0  0
 62140  1  0  0  0
 62141  1  0  0  0
 63 65  1  0  0  0
 63142  1  0  0  0
 63143  1  0  0  0
 63144  1  0  0  0
 64145  1  0  0  0
 65146  1  0  0  0
 68 83  1  0  0  0
 71 73  2  0  0  0
 71 76  1  0  0  0
 71147  1  0  0  0
 72 75  1  0  0  0
 72 76  2  0  0  0
 72148  1  0  0  0
 73 74  1  0  0  0
 73 77  1  0  0  0
 74 75  2  0  0  0
 74 79  1  0  0  0
 75 80  1  0  0  0
 76 85  1  0  0  0
 77 84  1  0  0  0
 77 86  2  0  0  0
 78 81  1  0  0  0
 78 85  1  0  0  0
 78 87  2  0  0  0
 79 84  1  0  0  0
 79149  1  0  0  0
 79150  1  0  0  0
 80151  1  0  0  0
 80152  1  0  0  0
 80153  1  0  0  0
 81 82  1  0  0  0
 81154  1  0  0  0
 81155  1  0  0  0
 82 83  1  0  0  0
 82156  1  0  0  0
 82157  1  0  0  0
 83158  1  0  0  0
 83159  1  0  0  0
 85160  1  0  0  0
M  ISO  4   1 100  68 101  83 101  84 100
M  END
> <chiral flag>
0

> <version>
0

> <s_m_source_file>
/data/baiqing/PycharmProjects/Reinvent-master-3.2/result/LINK_invent/BTK/process_docking_weight1_custom_product_contain_oxygen_bond_distance_aromatic_linkinvent_7_9_3/rearranged_h_0111.sdf

> <i_m_source_file_index>
89

> <r_mmod_Potential_Energy-OPLS-2005>
37.812068939209

> <r_mmod_Stretch_Energy-OPLS-2005>
41.8562164306641

> <r_mmod_Bend_Energy-OPLS-2005>
175.157440185547

> <r_mmod_Torsional_Energy-OPLS-2005>
305.866455078125

> <r_mmod_Improper_Torsional_Energy-OPLS-2005>
4.92023658752441

> <r_mmod_Van_der_Waal_Energy-OPLS-2005>
157.382751464844

> <r_mmod_Electrostatic_Energy-OPLS-2005>
-456.18408203125

> <r_mmod_Solvation_Energy-OPLS-2005>
-206.856063842773

> <b_mmod_Minimization_Converged-OPLS-2005>
0

> <r_mmod_RMS_Derivative-OPLS-2005>
2.93043518066406

$$$$
91
                    3D
 Structure written by MMmdl.
161169  0  0  1  0            999 V2000
  -30.6301  -14.6007   20.5503 C   0  0  0  0  0  0
  -30.4436  -12.3879   19.4284 C   0  0  0  0  0  0
  -29.5028  -12.4923   18.2092 C   0  0  0  0  0  0
  -28.0274  -12.3286   18.6293 C   0  0  0  0  0  0
  -27.6496  -13.2057   19.8534 C   0  0  2  0  0  0
  -28.6942  -13.0502   20.9769 C   0  0  0  0  0  0
  -25.2541  -13.8137   20.5635 C   0  0  0  0  0  0
  -24.1797  -13.0420   20.9180 C   0  0  0  0  0  0
  -24.6358  -11.6897   20.8743 C   0  0  0  0  0  0
  -23.9034  -10.4297   21.0419 C   0  0  0  0  0  0
  -24.3598   -9.4200   21.9184 C   0  0  0  0  0  0
  -23.6279   -8.2237   22.0735 C   0  0  0  0  0  0
  -22.4256   -8.0275   21.3540 C   0  0  0  0  0  0
  -21.9891   -9.0243   20.4636 C   0  0  0  0  0  0
  -22.7214  -10.2130   20.3051 C   0  0  0  0  0  0
  -21.6861   -6.0718   22.5276 C   0  0  0  0  0  0
  -21.4024   -6.5626   23.8206 C   0  0  0  0  0  0
  -21.3653   -5.6778   24.9171 C   0  0  0  0  0  0
  -21.6031   -4.3037   24.7222 C   0  0  0  0  0  0
  -21.8821   -3.8129   23.4348 C   0  0  0  0  0  0
  -21.9192   -4.6945   22.3404 C   0  0  0  0  0  0
  -22.7820  -13.5214   21.1862 C   0  0  0  0  0  0
  -22.1656   -4.2120   21.0978 F   0  0  0  0  0  0
  -21.5627   -3.4524   25.7743 F   0  0  0  0  0  0
  -30.0041  -13.3973   20.4057 N   0  0  0  0  0  0
  -26.2948  -12.9310   20.3254 N   0  0  0  0  0  0
  -25.9282  -11.6478   20.5738 N   0  0  0  0  0  0
  -22.0474  -12.8221   22.0446 N   0  0  0  0  0  0
  -25.4280  -15.1859   20.4032 N   0  0  0  0  0  0
  -31.8146  -14.7642   20.2606 O   0  0  0  0  0  0
  -21.6631   -6.8862   21.4245 O   0  0  0  0  0  0
  -22.3512  -14.5512   20.6686 O   0  0  0  0  0  0
  -24.6207  -31.8620   23.2035 C   0  0  0  0  0  0
  -25.9074  -32.4789   23.8345 C   0  0  1  0  0  0
  -27.2323  -27.3602   20.1174 C   0  0  0  0  0  0
  -25.5904  -33.8586   24.2286 N   0  0  0  0  0  0
  -23.4116  -30.4831   21.5455 C   0  0  2  0  0  0
  -24.8562  -28.9377   20.1140 C   0  0  0  0  0  0
  -22.7455  -29.4616   22.4979 C   0  0  0  0  0  0
  -18.0274  -28.1371   22.8497 C   0  0  0  0  0  0
  -24.1494  -36.7309   23.2650 C   0  0  0  0  0  0
  -25.9449  -30.8068   21.3625 C   0  0  0  0  0  0
  -26.0184  -29.4338   20.7153 C   0  0  0  0  0  0
  -27.2047  -28.6542   20.7103 C   0  0  0  0  0  0
  -26.0438  -26.8942   19.5112 C   0  0  0  0  0  0
  -24.8686  -27.6717   19.5050 C   0  0  0  0  0  0
  -23.6210  -29.8110   20.1623 C   0  0  0  0  0  0
  -25.4111  -36.3098   24.0344 C   0  0  1  0  0  0
  -20.5879  -28.3659   23.1314 C   0  0  2  0  0  0
  -20.6774  -26.9394   22.5412 C   0  0  0  0  0  0
  -19.5743  -26.6379   21.5227 C   0  0  0  0  0  0
  -18.1917  -26.7908   22.1631 C   0  0  0  0  0  0
  -19.1529  -28.8832   23.2895 C   0  0  0  0  0  0
  -18.9455  -30.1450   23.8895 C   0  0  0  0  0  0
  -17.6457  -30.6578   24.0567 C   0  0  0  0  0  0
  -25.9039  -34.9466   23.5120 C   0  0  0  0  0  0
  -16.5349  -29.9085   23.6326 C   0  0  0  0  0  0
  -16.7258  -28.6499   23.0340 C   0  0  0  0  0  0
  -26.4469  -31.6574   25.0688 C   0  0  0  0  0  0
  -25.3727  -31.3703   26.1431 C   0  0  0  0  0  0
  -27.0291  -30.3008   24.6071 C   0  0  0  0  0  0
  -27.6029  -32.4302   25.7452 C   0  0  0  0  0  0
  -27.5588  -37.1800   24.8474 C   0  0  0  0  0  0
  -21.4184  -29.3013   22.3725 N   0  0  0  0  0  0
  -26.4297  -37.3781   23.9426 N   0  0  0  0  0  0
  -24.6779  -31.0686   22.0947 N   0  0  0  0  0  0
  -23.4210  -28.8147   23.3038 O   0  0  0  0  0  0
  -28.4066  -26.6111   20.1713 O   0  0  0  0  0  0
  -26.5613  -34.8933   22.4694 O   0  0  0  0  0  0
  -23.5399  -32.1360   23.7422 O   0  0  0  0  0  0
  -32.2282  -19.8626   20.8167 C   0  0  0  0  0  0
  -31.8660  -18.5242   21.0583 C   0  0  0  0  0  0
  -31.2490  -20.8751   20.8340 C   0  0  0  0  0  0
  -30.4903  -18.2107   21.2224 C   0  0  0  0  0  0
  -29.8891  -20.5091   20.9713 C   0  0  0  0  0  0
  -32.9836  -17.5571   21.1798 C   0  0  0  0  0  0
  -33.1797  -16.8809   22.5337 C   0  0  0  0  0  0
  -30.0212  -16.8173   21.7441 C   0  0  0  0  0  0
  -28.5026  -24.0631   20.6936 C   0  0  0  0  0  0
  -28.7596  -22.6233   20.0906 C   0  0  0  0  0  0
  -28.5163  -25.2479   19.6527 C   0  0  0  0  0  0
  -29.5339  -19.2020   21.1576 N   0  0  0  0  0  0
  -31.6418  -22.2157   20.8311 N   0  0  0  0  0  0
  -28.8674  -21.4972   21.0593 N   0  0  0  0  0  0
  -29.8095  -15.6350   20.8674 N   0  0  0  0  0  0
  -33.8203  -17.3843   20.2906 O   0  0  0  0  0  0
  -31.4818  -12.5393   19.1236 H   0  0  0  0  0  0
  -30.3995  -11.3932   19.8730 H   0  0  0  0  0  0
  -29.7713  -11.7394   17.4664 H   0  0  0  0  0  0
  -29.6361  -13.4608   17.7260 H   0  0  0  0  0  0
  -27.8740  -11.2775   18.8757 H   0  0  0  0  0  0
  -27.3659  -12.5432   17.7887 H   0  0  0  0  0  0
  -27.6704  -14.2397   19.5068 H   0  0  0  0  0  0
  -28.7085  -12.0242   21.3479 H   0  0  0  0  0  0
  -28.4373  -13.6750   21.8362 H   0  0  0  0  0  0
  -25.2753   -9.5678   22.4733 H   0  0  0  0  0  0
  -23.9982   -7.4635   22.7448 H   0  0  0  0  0  0
  -21.0817   -8.8756   19.8957 H   0  0  0  0  0  0
  -22.3667  -10.9651   19.6137 H   0  0  0  0  0  0
  -21.2026   -7.6134   23.9703 H   0  0  0  0  0  0
  -21.1478   -6.0509   25.9066 H   0  0  0  0  0  0
  -22.0614   -2.7588   23.2860 H   0  0  0  0  0  0
  -22.4063  -11.9886   22.4867 H   0  0  0  0  0  0
  -21.1071  -13.1242   22.2611 H   0  0  0  0  0  0
  -24.6623  -15.8398   20.5182 H   0  0  0  0  0  0
  -26.2689  -15.6309   20.0607 H   0  0  0  0  0  0
  -26.7151  -32.5457   23.1114 H   0  0  0  0  0  0
  -25.0074  -33.9724   25.0445 H   0  0  0  0  0  0
  -22.7019  -31.3011   21.4046 H   0  0  0  0  0  0
  -23.3760  -35.9643   23.3304 H   0  0  0  0  0  0
  -24.3602  -36.8916   22.2070 H   0  0  0  0  0  0
  -23.7217  -37.6509   23.6639 H   0  0  0  0  0  0
  -26.0678  -31.5647   20.5878 H   0  0  0  0  0  0
  -26.8335  -30.8624   21.9795 H   0  0  0  0  0  0
  -28.1013  -29.0310   21.1814 H   0  0  0  0  0  0
  -25.9812  -25.9214   19.0491 H   0  0  0  0  0  0
  -23.9734  -27.2850   19.0392 H   0  0  0  0  0  0
  -23.7395  -30.5815   19.4016 H   0  0  0  0  0  0
  -22.7421  -29.2349   19.8643 H   0  0  0  0  0  0
  -25.1281  -36.1978   25.0829 H   0  0  0  0  0  0
  -20.9964  -28.3233   24.1444 H   0  0  0  0  0  0
  -20.5718  -26.2266   23.3596 H   0  0  0  0  0  0
  -21.6632  -26.7444   22.1181 H   0  0  0  0  0  0
  -19.6922  -25.6307   21.1216 H   0  0  0  0  0  0
  -19.6686  -27.3238   20.6802 H   0  0  0  0  0  0
  -17.4193  -26.6683   21.4025 H   0  0  0  0  0  0
  -18.0307  -26.0038   22.9016 H   0  0  0  0  0  0
  -19.7939  -30.7269   24.2247 H   0  0  0  0  0  0
  -17.5008  -31.6250   24.5190 H   0  0  0  0  0  0
  -15.5344  -30.2987   23.7641 H   0  0  0  0  0  0
  -15.8656  -28.0824   22.7041 H   0  0  0  0  0  0
  -24.5919  -30.7024   25.7788 H   0  0  0  0  0  0
  -24.8913  -32.2873   26.4836 H   0  0  0  0  0  0
  -25.8083  -30.8913   27.0209 H   0  0  0  0  0  0
  -26.2839  -29.6776   24.1118 H   0  0  0  0  0  0
  -27.4071  -29.7215   25.4509 H   0  0  0  0  0  0
  -27.8664  -30.4349   23.9218 H   0  0  0  0  0  0
  -27.2633  -33.3612   26.2005 H   0  0  0  0  0  0
  -28.3826  -32.6839   25.0260 H   0  0  0  0  0  0
  -28.0685  -31.8431   26.5375 H   0  0  0  0  0  0
  -28.2591  -38.0112   24.7506 H   0  0  0  0  0  0
  -28.1071  -36.2625   24.6281 H   0  0  0  0  0  0
  -27.2296  -37.1433   25.8874 H   0  0  0  0  0  0
  -20.9373  -29.8743   21.6930 H   0  0  0  0  0  0
  -26.0191  -38.2866   24.1406 H   0  0  0  0  0  0
  -33.2732  -20.1253   20.7178 H   0  0  0  0  0  0
  -34.2281  -16.9035   22.8311 H   0  0  0  0  0  0
  -32.8632  -15.8397   22.4940 H   0  0  0  0  0  0
  -32.6047  -17.3923   23.3039 H   0  0  0  0  0  0
  -30.6493  -16.5128   22.5747 H   0  0  0  0  0  0
  -29.0563  -16.9790   22.2271 H   0  0  0  0  0  0
  -29.2503  -24.2731   21.4602 H   0  0  0  0  0  0
  -27.5409  -24.0648   21.2056 H   0  0  0  0  0  0
  -27.9263  -22.3812   19.4295 H   0  0  0  0  0  0
  -29.6294  -22.6416   19.4381 H   0  0  0  0  0  0
  -27.8304  -25.0497   18.8345 H   0  0  0  0  0  0
  -29.4942  -25.2215   19.1723 H   0  0  0  0  0  0
  -32.5100  -22.4422   21.3057 H   0  0  0  0  0  0
  -30.8894  -22.8428   21.1066 H   0  0  0  0  0  0
  -27.9740  -21.0959   21.3168 H   0  0  0  0  0  0
  -28.8378  -15.3781   20.8140 H   0  0  0  0  0  0
  1 25  1  0  0  0
  1 30  2  0  0  0
  1 85  1  0  0  0
  2  3  1  0  0  0
  2 25  1  0  0  0
  2 87  1  0  0  0
  2 88  1  0  0  0
  3  4  1  0  0  0
  3 89  1  0  0  0
  3 90  1  0  0  0
  4  5  1  0  0  0
  4 91  1  0  0  0
  4 92  1  0  0  0
  5  6  1  0  0  0
  5 26  1  0  0  0
  5 93  1  0  0  0
  6 25  1  0  0  0
  6 94  1  0  0  0
  6 95  1  0  0  0
  7  8  2  0  0  0
  7 26  1  0  0  0
  7 29  1  0  0  0
  8  9  1  0  0  0
  8 22  1  0  0  0
  9 10  1  0  0  0
  9 27  2  0  0  0
 10 11  2  0  0  0
 10 15  1  0  0  0
 11 12  1  0  0  0
 11 96  1  0  0  0
 12 13  2  0  0  0
 12 97  1  0  0  0
 13 14  1  0  0  0
 13 31  1  0  0  0
 14 15  2  0  0  0
 14 98  1  0  0  0
 15 99  1  0  0  0
 16 17  2  0  0  0
 16 21  1  0  0  0
 16 31  1  0  0  0
 17 18  1  0  0  0
 17100  1  0  0  0
 18 19  2  0  0  0
 18101  1  0  0  0
 19 20  1  0  0  0
 19 24  1  0  0  0
 20 21  2  0  0  0
 20102  1  0  0  0
 21 23  1  0  0  0
 22 28  1  0  0  0
 22 32  2  0  0  0
 26 27  1  0  0  0
 28103  1  0  0  0
 28104  1  0  0  0
 29105  1  0  0  0
 29106  1  0  0  0
 33 34  1  0  0  0
 33 66  1  0  0  0
 33 70  2  0  0  0
 34 36  1  0  0  0
 34 59  1  0  0  0
 34107  1  0  0  0
 35 44  2  0  0  0
 35 45  1  0  0  0
 35 68  1  0  0  0
 36 56  1  0  0  0
 36108  1  0  0  0
 37 39  1  0  0  0
 37 47  1  0  0  0
 37 66  1  0  0  0
 37109  1  0  0  0
 38 43  2  0  0  0
 38 46  1  0  0  0
 38 47  1  0  0  0
 39 64  1  0  0  0
 39 67  2  0  0  0
 40 52  1  0  0  0
 40 53  2  0  0  0
 40 58  1  0  0  0
 41110  1  0  0  0
 41111  1  0  0  0
 41112  1  0  0  0
 41 48  1  0  0  0
 42 43  1  0  0  0
 42 66  1  0  0  0
 42113  1  0  0  0
 42114  1  0  0  0
 43 44  1  0  0  0
 44115  1  0  0  0
 45 46  2  0  0  0
 45116  1  0  0  0
 46117  1  0  0  0
 47118  1  0  0  0
 47119  1  0  0  0
 48 56  1  0  0  0
 48 65  1  0  0  0
 48120  1  0  0  0
 49 50  1  0  0  0
 49 53  1  0  0  0
 49 64  1  0  0  0
 49121  1  0  0  0
 50 51  1  0  0  0
 50122  1  0  0  0
 50123  1  0  0  0
 51 52  1  0  0  0
 51124  1  0  0  0
 51125  1  0  0  0
 52126  1  0  0  0
 52127  1  0  0  0
 53 54  1  0  0  0
 54 55  2  0  0  0
 54128  1  0  0  0
 55 57  1  0  0  0
 55129  1  0  0  0
 56 69  2  0  0  0
 57 58  2  0  0  0
 57130  1  0  0  0
 58131  1  0  0  0
 59 60  1  0  0  0
 59 61  1  0  0  0
 59 62  1  0  0  0
 60132  1  0  0  0
 60133  1  0  0  0
 60134  1  0  0  0
 61135  1  0  0  0
 61136  1  0  0  0
 61137  1  0  0  0
 62138  1  0  0  0
 62139  1  0  0  0
 62140  1  0  0  0
 63 65  1  0  0  0
 63141  1  0  0  0
 63142  1  0  0  0
 63143  1  0  0  0
 64144  1  0  0  0
 65145  1  0  0  0
 68 81  1  0  0  0
 71 72  2  0  0  0
 71 73  1  0  0  0
 71146  1  0  0  0
 72 74  1  0  0  0
 72 76  1  0  0  0
 73 75  2  0  0  0
 73 83  1  0  0  0
 74 78  1  0  0  0
 74 82  2  0  0  0
 75 82  1  0  0  0
 75 84  1  0  0  0
 76 77  1  0  0  0
 76 86  2  0  0  0
 77147  1  0  0  0
 77148  1  0  0  0
 77149  1  0  0  0
 78 85  1  0  0  0
 78150  1  0  0  0
 78151  1  0  0  0
 79 80  1  0  0  0
 79 81  1  0  0  0
 79152  1  0  0  0
 79153  1  0  0  0
 80 84  1  0  0  0
 80154  1  0  0  0
 80155  1  0  0  0
 81156  1  0  0  0
 81157  1  0  0  0
 83158  1  0  0  0
 83159  1  0  0  0
 84160  1  0  0  0
 85161  1  0  0  0
M  ISO  4   1 100  68 101  81 101  85 100
M  END
> <chiral flag>
0

> <version>
0

> <s_m_source_file>
/data/baiqing/PycharmProjects/Reinvent-master-3.2/result/LINK_invent/BTK/process_docking_weight1_custom_product_contain_oxygen_bond_distance_aromatic_linkinvent_7_9_3/rearranged_h_0111.sdf

> <i_m_source_file_index>
90

> <r_mmod_Potential_Energy-OPLS-2005>
-303.153411865234

> <r_mmod_Stretch_Energy-OPLS-2005>
60.3517608642578

> <r_mmod_Bend_Energy-OPLS-2005>
151.623764038086

> <r_mmod_Torsional_Energy-OPLS-2005>
269.303863525391

> <r_mmod_Improper_Torsional_Energy-OPLS-2005>
16.9463481903076

> <r_mmod_Van_der_Waal_Energy-OPLS-2005>
153.380477905273

> <r_mmod_Electrostatic_Energy-OPLS-2005>
-733.515502929688

> <r_mmod_Solvation_Energy-OPLS-2005>
-258.913696289062

> <b_mmod_Minimization_Converged-OPLS-2005>
0

> <r_mmod_RMS_Derivative-OPLS-2005>
3.4017653465271

$$$$
