0
                    3D
 Structure written by MMmdl.
159168  0  0  1  0            999 V2000
  -30.6369  -14.7310   20.3563 C   0  0  0  0  0  0
  -30.4385  -12.4111   19.4484 C   0  0  0  0  0  0
  -29.4863  -12.3420   18.2316 C   0  0  0  0  0  0
  -28.0090  -12.2637   18.6625 C   0  0  0  0  0  0
  -27.6315  -13.2078   19.8356 C   0  0  2  0  0  0
  -28.7001  -13.2014   20.9475 C   0  0  0  0  0  0
  -25.2525  -13.8153   20.5800 C   0  0  0  0  0  0
  -24.1768  -13.0424   20.9216 C   0  0  0  0  0  0
  -24.6330  -11.6899   20.8795 C   0  0  0  0  0  0
  -23.9011  -10.4284   21.0429 C   0  0  0  0  0  0
  -24.3583   -9.4204   21.9194 C   0  0  0  0  0  0
  -23.6281   -8.2229   22.0747 C   0  0  0  0  0  0
  -22.4263   -8.0264   21.3537 C   0  0  0  0  0  0
  -21.9892   -9.0234   20.4643 C   0  0  0  0  0  0
  -22.7198  -10.2125   20.3063 C   0  0  0  0  0  0
  -21.6851   -6.0722   22.5280 C   0  0  0  0  0  0
  -21.4010   -6.5626   23.8212 C   0  0  0  0  0  0
  -21.3664   -5.6781   24.9174 C   0  0  0  0  0  0
  -21.6047   -4.3043   24.7228 C   0  0  0  0  0  0
  -21.8819   -3.8137   23.4347 C   0  0  0  0  0  0
  -21.9197   -4.6952   22.3404 C   0  0  0  0  0  0
  -22.7797  -13.5237   21.1860 C   0  0  0  0  0  0
  -22.1666   -4.2138   21.0982 F   0  0  0  0  0  0
  -21.5633   -3.4529   25.7740 F   0  0  0  0  0  0
  -29.9880  -13.5155   20.3144 N   0  0  0  0  0  0
  -26.2917  -12.9310   20.3395 N   0  0  0  0  0  0
  -25.9264  -11.6483   20.5885 N   0  0  0  0  0  0
  -22.0427  -12.8245   22.0416 N   0  0  0  0  0  0
  -25.4253  -15.1885   20.4367 N   0  0  0  0  0  0
  -31.8682  -14.7684   20.3270 O   0  0  0  0  0  0
  -21.6632   -6.8861   21.4233 O   0  0  0  0  0  0
  -22.3501  -14.5553   20.6715 O   0  0  0  0  0  0
  -24.6268  -31.8603   23.2041 C   0  0  0  0  0  0
  -25.9103  -32.4782   23.8372 C   0  0  1  0  0  0
  -27.2166  -27.3044   20.1184 C   0  0  0  0  0  0
  -25.5914  -33.8585   24.2285 N   0  0  0  0  0  0
  -23.4218  -30.4867   21.5467 C   0  0  2  0  0  0
  -24.8691  -28.9510   20.1058 C   0  0  0  0  0  0
  -22.7487  -29.4619   22.4921 C   0  0  0  0  0  0
  -18.0282  -28.1386   22.8481 C   0  0  0  0  0  0
  -24.1489  -36.7296   23.2638 C   0  0  0  0  0  0
  -25.9667  -30.7856   21.3820 C   0  0  0  0  0  0
  -26.0392  -29.4146   20.7201 C   0  0  0  0  0  0
  -27.2150  -28.6022   20.7217 C   0  0  0  0  0  0
  -26.0270  -26.9198   19.4495 C   0  0  0  0  0  0
  -24.8665  -27.7099   19.4597 C   0  0  0  0  0  0
  -23.6379  -29.8301   20.1596 C   0  0  0  0  0  0
  -25.4111  -36.3088   24.0330 C   0  0  1  0  0  0
  -20.5882  -28.3682   23.1277 C   0  0  2  0  0  0
  -20.6759  -26.9403   22.5408 C   0  0  0  0  0  0
  -19.5737  -26.6380   21.5206 C   0  0  0  0  0  0
  -18.1918  -26.7929   22.1622 C   0  0  0  0  0  0
  -19.1535  -28.8850   23.2874 C   0  0  0  0  0  0
  -18.9458  -30.1450   23.8890 C   0  0  0  0  0  0
  -17.6459  -30.6585   24.0558 C   0  0  0  0  0  0
  -25.9051  -34.9456   23.5113 C   0  0  0  0  0  0
  -16.5348  -29.9083   23.6333 C   0  0  0  0  0  0
  -16.7270  -28.6504   23.0348 C   0  0  0  0  0  0
  -26.4480  -31.6589   25.0746 C   0  0  0  0  0  0
  -25.3714  -31.3735   26.1478 C   0  0  0  0  0  0
  -27.0305  -30.3002   24.6210 C   0  0  0  0  0  0
  -27.6047  -32.4319   25.7515 C   0  0  0  0  0  0
  -27.5583  -37.1795   24.8451 C   0  0  0  0  0  0
  -21.4195  -29.3041   22.3677 N   0  0  0  0  0  0
  -26.4280  -37.3787   23.9420 N   0  0  0  0  0  0
  -24.6905  -31.0607   22.1006 N   0  0  0  0  0  0
  -23.4214  -28.8144   23.2981 O   0  0  0  0  0  0
  -28.2990  -26.4028   20.2181 O   0  0  0  0  0  0
  -26.5626  -34.8921   22.4684 O   0  0  0  0  0  0
  -23.5423  -32.1403   23.7353 O   0  0  0  0  0  0
  -30.9235  -19.5059   20.2578 C   0  0  0  0  0  0
  -31.0445  -18.0931   20.1055 C   0  0  0  0  0  0
  -30.0077  -23.7711   21.3059 C   0  0  0  0  0  0
  -28.7165  -19.2245   21.1707 C   0  0  0  0  0  0
  -28.8649  -23.7707   20.4488 C   0  0  0  0  0  0
  -29.7416  -20.1177   20.7524 C   0  0  0  0  0  0
  -29.9838  -17.2045   20.4415 C   0  0  0  0  0  0
  -28.8351  -17.8070   21.0254 C   0  0  0  0  0  0
  -30.4216  -22.4715   21.4987 C   0  0  0  0  0  0
  -28.6673  -22.4157   20.1774 C   0  0  0  0  0  0
  -29.5795  -15.8716   18.5772 C   0  0  0  0  0  0
  -28.3483  -16.6756   18.1486 C   0  0  0  0  0  0
  -27.9822  -24.9724   19.9578 C   0  0  0  0  0  0
  -29.6068  -21.5768   20.8106 N   0  0  0  0  0  0
  -29.9322  -15.8394   19.8938 N   0  0  0  0  0  0
  -30.2865  -15.4187   17.6712 O   0  0  0  0  0  0
  -31.4636  -22.0201   22.2495 O   0  0  0  0  0  0
  -27.7089  -21.8430   19.3946 O   0  0  0  0  0  0
  -27.7840  -17.0169   21.3538 F   0  0  0  0  0  0
  -31.4672  -12.5498   19.1115 H   0  0  0  0  0  0
  -30.4217  -11.4717   20.0036 H   0  0  0  0  0  0
  -29.7278  -11.4604   17.6360 H   0  0  0  0  0  0
  -29.6284  -13.1701   17.5499 H   0  0  0  0  0  0
  -27.8328  -11.2300   18.9607 H   0  0  0  0  0  0
  -27.3540  -12.4426   17.8087 H   0  0  0  0  0  0
  -27.5916  -14.2064   19.4138 H   0  0  0  0  0  0
  -28.7402  -12.2343   21.4515 H   0  0  0  0  0  0
  -28.4577  -13.9451   21.7096 H   0  0  0  0  0  0
  -25.2718   -9.5706   22.4772 H   0  0  0  0  0  0
  -24.0000   -7.4624   22.7470 H   0  0  0  0  0  0
  -21.0820   -8.8757   19.8953 H   0  0  0  0  0  0
  -22.3645  -10.9672   19.6186 H   0  0  0  0  0  0
  -21.1989   -7.6133   23.9714 H   0  0  0  0  0  0
  -21.1489   -6.0505   25.9078 H   0  0  0  0  0  0
  -22.0591   -2.7601   23.2847 H   0  0  0  0  0  0
  -22.4024  -11.9894   22.4798 H   0  0  0  0  0  0
  -21.1043  -13.1290   22.2607 H   0  0  0  0  0  0
  -24.6707  -15.8340   20.6388 H   0  0  0  0  0  0
  -26.3268  -15.6467   20.3864 H   0  0  0  0  0  0
  -26.7178  -32.5447   23.1128 H   0  0  0  0  0  0
  -25.0025  -33.9742   25.0404 H   0  0  0  0  0  0
  -22.7147  -31.3072   21.4070 H   0  0  0  0  0  0
  -23.3762  -35.9613   23.3272 H   0  0  0  0  0  0
  -24.3587  -36.8951   22.2059 H   0  0  0  0  0  0
  -23.7224  -37.6483   23.6680 H   0  0  0  0  0  0
  -26.1032  -31.5492   20.6153 H   0  0  0  0  0  0
  -26.8458  -30.8311   22.0133 H   0  0  0  0  0  0
  -28.1050  -28.9468   21.2293 H   0  0  0  0  0  0
  -25.9435  -25.9828   18.9206 H   0  0  0  0  0  0
  -23.9745  -27.3560   18.9617 H   0  0  0  0  0  0
  -23.7592  -30.6099   19.4072 H   0  0  0  0  0  0
  -22.7575  -29.2615   19.8547 H   0  0  0  0  0  0
  -25.1283  -36.1943   25.0824 H   0  0  0  0  0  0
  -20.9972  -28.3257   24.1398 H   0  0  0  0  0  0
  -20.5639  -26.2295   23.3609 H   0  0  0  0  0  0
  -21.6635  -26.7423   22.1214 H   0  0  0  0  0  0
  -19.6894  -25.6294   21.1228 H   0  0  0  0  0  0
  -19.6674  -27.3197   20.6738 H   0  0  0  0  0  0
  -17.4186  -26.6672   21.4029 H   0  0  0  0  0  0
  -18.0324  -26.0075   22.9028 H   0  0  0  0  0  0
  -19.7932  -30.7260   24.2271 H   0  0  0  0  0  0
  -17.5017  -31.6267   24.5155 H   0  0  0  0  0  0
  -15.5346  -30.2980   23.7666 H   0  0  0  0  0  0
  -15.8669  -28.0826   22.7062 H   0  0  0  0  0  0
  -24.5869  -30.7107   25.7809 H   0  0  0  0  0  0
  -24.8923  -32.2900   26.4929 H   0  0  0  0  0  0
  -25.8038  -30.8888   27.0239 H   0  0  0  0  0  0
  -26.2871  -29.6776   24.1214 H   0  0  0  0  0  0
  -27.3955  -29.7246   25.4726 H   0  0  0  0  0  0
  -27.8775  -30.4268   23.9465 H   0  0  0  0  0  0
  -27.2670  -33.3634   26.2076 H   0  0  0  0  0  0
  -28.3867  -32.6853   25.0346 H   0  0  0  0  0  0
  -28.0696  -31.8445   26.5444 H   0  0  0  0  0  0
  -28.2564  -38.0129   24.7546 H   0  0  0  0  0  0
  -28.1114  -36.2659   24.6205 H   0  0  0  0  0  0
  -27.2313  -37.1367   25.8856 H   0  0  0  0  0  0
  -20.9366  -29.8799   21.6923 H   0  0  0  0  0  0
  -26.0160  -38.2855   24.1443 H   0  0  0  0  0  0
  -31.7406  -20.1376   19.9398 H   0  0  0  0  0  0
  -31.9353  -17.7036   19.6332 H   0  0  0  0  0  0
  -30.4707  -24.6447   21.7443 H   0  0  0  0  0  0
  -27.8014  -19.6334   21.5713 H   0  0  0  0  0  0
  -27.5269  -16.5499   18.8516 H   0  0  0  0  0  0
  -27.9961  -16.3371   17.1744 H   0  0  0  0  0  0
  -28.5852  -17.7361   18.0659 H   0  0  0  0  0  0
  -27.0127  -24.7455   20.4035 H   0  0  0  0  0  0
  -27.8744  -24.8474   18.8797 H   0  0  0  0  0  0
  -31.8824  -22.7769   22.6483 H   0  0  0  0  0  0
  -27.2574  -22.5316   18.9193 H   0  0  0  0  0  0
  1 25  1  0  0  0
  1 30  2  0  0  0
  1 85  1  0  0  0
  2  3  1  0  0  0
  2 25  1  0  0  0
  2 90  1  0  0  0
  2 91  1  0  0  0
  3  4  1  0  0  0
  3 92  1  0  0  0
  3 93  1  0  0  0
  4  5  1  0  0  0
  4 94  1  0  0  0
  4 95  1  0  0  0
  5  6  1  0  0  0
  5 26  1  0  0  0
  5 96  1  0  0  0
  6 25  1  0  0  0
  6 97  1  0  0  0
  6 98  1  0  0  0
  7  8  2  0  0  0
  7 26  1  0  0  0
  7 29  1  0  0  0
  8  9  1  0  0  0
  8 22  1  0  0  0
  9 10  1  0  0  0
  9 27  2  0  0  0
 10 11  2  0  0  0
 10 15  1  0  0  0
 11 12  1  0  0  0
 11 99  1  0  0  0
 12 13  2  0  0  0
 12100  1  0  0  0
 13 14  1  0  0  0
 13 31  1  0  0  0
 14 15  2  0  0  0
 14101  1  0  0  0
 15102  1  0  0  0
 16 17  2  0  0  0
 16 21  1  0  0  0
 16 31  1  0  0  0
 17 18  1  0  0  0
 17103  1  0  0  0
 18 19  2  0  0  0
 18104  1  0  0  0
 19 20  1  0  0  0
 19 24  1  0  0  0
 20 21  2  0  0  0
 20105  1  0  0  0
 21 23  1  0  0  0
 22 28  1  0  0  0
 22 32  2  0  0  0
 26 27  1  0  0  0
 28106  1  0  0  0
 28107  1  0  0  0
 29108  1  0  0  0
 29109  1  0  0  0
 33 34  1  0  0  0
 33 66  1  0  0  0
 33 70  2  0  0  0
 34 36  1  0  0  0
 34 59  1  0  0  0
 34110  1  0  0  0
 35 44  2  0  0  0
 35 45  1  0  0  0
 35 68  1  0  0  0
 36 56  1  0  0  0
 36111  1  0  0  0
 37 39  1  0  0  0
 37 47  1  0  0  0
 37 66  1  0  0  0
 37112  1  0  0  0
 38 43  2  0  0  0
 38 46  1  0  0  0
 38 47  1  0  0  0
 39 64  1  0  0  0
 39 67  2  0  0  0
 40 52  1  0  0  0
 40 53  2  0  0  0
 40 58  1  0  0  0
 41113  1  0  0  0
 41114  1  0  0  0
 41115  1  0  0  0
 41 48  1  0  0  0
 42 43  1  0  0  0
 42 66  1  0  0  0
 42116  1  0  0  0
 42117  1  0  0  0
 43 44  1  0  0  0
 44118  1  0  0  0
 45 46  2  0  0  0
 45119  1  0  0  0
 46120  1  0  0  0
 47121  1  0  0  0
 47122  1  0  0  0
 48 56  1  0  0  0
 48 65  1  0  0  0
 48123  1  0  0  0
 49 50  1  0  0  0
 49 53  1  0  0  0
 49 64  1  0  0  0
 49124  1  0  0  0
 50 51  1  0  0  0
 50125  1  0  0  0
 50126  1  0  0  0
 51 52  1  0  0  0
 51127  1  0  0  0
 51128  1  0  0  0
 52129  1  0  0  0
 52130  1  0  0  0
 53 54  1  0  0  0
 54 55  2  0  0  0
 54131  1  0  0  0
 55 57  1  0  0  0
 55132  1  0  0  0
 56 69  2  0  0  0
 57 58  2  0  0  0
 57133  1  0  0  0
 58134  1  0  0  0
 59 60  1  0  0  0
 59 61  1  0  0  0
 59 62  1  0  0  0
 60135  1  0  0  0
 60136  1  0  0  0
 60137  1  0  0  0
 61138  1  0  0  0
 61139  1  0  0  0
 61140  1  0  0  0
 62141  1  0  0  0
 62142  1  0  0  0
 62143  1  0  0  0
 63 65  1  0  0  0
 63144  1  0  0  0
 63145  1  0  0  0
 63146  1  0  0  0
 64147  1  0  0  0
 65148  1  0  0  0
 68 83  1  0  0  0
 71 72  2  0  0  0
 71 76  1  0  0  0
 71149  1  0  0  0
 72 77  1  0  0  0
 72150  1  0  0  0
 73 75  1  0  0  0
 73 79  2  0  0  0
 73151  1  0  0  0
 74 76  2  0  0  0
 74 78  1  0  0  0
 74152  1  0  0  0
 75 80  2  0  0  0
 75 83  1  0  0  0
 76 84  1  0  0  0
 77 78  2  0  0  0
 77 85  1  0  0  0
 78 89  1  0  0  0
 79 84  1  0  0  0
 79 87  1  0  0  0
 80 84  1  0  0  0
 80 88  1  0  0  0
 81 82  1  0  0  0
 81 85  1  0  0  0
 81 86  2  0  0  0
 82153  1  0  0  0
 82154  1  0  0  0
 82155  1  0  0  0
 83156  1  0  0  0
 83157  1  0  0  0
 87158  1  0  0  0
 88159  1  0  0  0
M  ISO  4   1 100  68 101  83 101  85 100
M  END
> <chiral flag>
0

> <version>
0

> <s_m_source_file>
/data/baiqing/PycharmProjects/Reinvent-master-3.2/result/LINK_invent/BTK/process_docking_weight1_custom_product_contain_oxygen_bond_distance_aromatic_linkinvent_7_9_3/rearranged_h_0073.sdf

> <i_m_source_file_index>
1

> <r_mmod_Potential_Energy-OPLS-2005>
269.454559326172

> <r_mmod_Stretch_Energy-OPLS-2005>
86.8484725952148

> <r_mmod_Bend_Energy-OPLS-2005>
143.608276367188

> <r_mmod_Torsional_Energy-OPLS-2005>
375.664215087891

> <r_mmod_Improper_Torsional_Energy-OPLS-2005>
25.1347789764404

> <r_mmod_Van_der_Waal_Energy-OPLS-2005>
151.05908203125

> <r_mmod_Electrostatic_Energy-OPLS-2005>
-387.179382324219

> <r_mmod_Solvation_Energy-OPLS-2005>
-220.888000488281

> <b_mmod_Minimization_Converged-OPLS-2005>
0

> <r_mmod_RMS_Derivative-OPLS-2005>
1.45691919326782

$$$$
1
                    3D
 Structure written by MMmdl.
155164  0  0  1  0            999 V2000
  -30.6200  -14.7815   20.4904 C   0  0  0  0  0  0
  -30.4382  -12.4879   19.4866 C   0  0  0  0  0  0
  -29.5161  -12.5009   18.2512 C   0  0  0  0  0  0
  -28.0467  -12.3000   18.6683 C   0  0  0  0  0  0
  -27.6357  -13.2259   19.8442 C   0  0  2  0  0  0
  -28.6798  -13.2078   20.9820 C   0  0  0  0  0  0
  -25.2531  -13.8163   20.5746 C   0  0  0  0  0  0
  -24.1800  -13.0428   20.9195 C   0  0  0  0  0  0
  -24.6363  -11.6894   20.8713 C   0  0  0  0  0  0
  -23.9044  -10.4287   21.0368 C   0  0  0  0  0  0
  -24.3614   -9.4240   21.9167 C   0  0  0  0  0  0
  -23.6292   -8.2291   22.0779 C   0  0  0  0  0  0
  -22.4280   -8.0291   21.3558 C   0  0  0  0  0  0
  -21.9888   -9.0267   20.4669 C   0  0  0  0  0  0
  -22.7209  -10.2155   20.3052 C   0  0  0  0  0  0
  -21.6861   -6.0740   22.5278 C   0  0  0  0  0  0
  -21.4011   -6.5649   23.8205 C   0  0  0  0  0  0
  -21.3663   -5.6798   24.9165 C   0  0  0  0  0  0
  -21.6054   -4.3064   24.7221 C   0  0  0  0  0  0
  -21.8814   -3.8157   23.4336 C   0  0  0  0  0  0
  -21.9200   -4.6959   22.3389 C   0  0  0  0  0  0
  -22.7849  -13.5233   21.1869 C   0  0  0  0  0  0
  -22.1653   -4.2137   21.0959 F   0  0  0  0  0  0
  -21.5652   -3.4545   25.7733 F   0  0  0  0  0  0
  -29.9787  -13.5646   20.3948 N   0  0  0  0  0  0
  -26.2913  -12.9347   20.3276 N   0  0  0  0  0  0
  -25.9279  -11.6486   20.5699 N   0  0  0  0  0  0
  -22.0483  -12.8232   22.0405 N   0  0  0  0  0  0
  -25.4301  -15.1898   20.4266 N   0  0  0  0  0  0
  -31.8150  -14.8498   20.1908 O   0  0  0  0  0  0
  -21.6659   -6.8891   21.4246 O   0  0  0  0  0  0
  -22.3545  -14.5548   20.6706 O   0  0  0  0  0  0
  -24.6351  -31.8533   23.1956 C   0  0  0  0  0  0
  -25.9158  -32.4749   23.8316 C   0  0  1  0  0  0
  -27.2136  -27.2280   20.1635 C   0  0  0  0  0  0
  -25.5940  -33.8555   24.2219 N   0  0  0  0  0  0
  -23.4363  -30.4752   21.5405 C   0  0  2  0  0  0
  -24.8842  -28.9201   20.1155 C   0  0  0  0  0  0
  -22.7549  -29.4620   22.4916 C   0  0  0  0  0  0
  -18.0324  -28.1396   22.8424 C   0  0  0  0  0  0
  -24.1506  -36.7283   23.2635 C   0  0  0  0  0  0
  -25.9848  -30.7616   21.3811 C   0  0  0  0  0  0
  -26.0591  -29.3823   20.7252 C   0  0  0  0  0  0
  -27.2320  -28.5519   20.7321 C   0  0  0  0  0  0
  -26.0181  -26.8465   19.5192 C   0  0  0  0  0  0
  -24.8717  -27.6612   19.4989 C   0  0  0  0  0  0
  -23.6580  -29.8095   20.1573 C   0  0  0  0  0  0
  -25.4126  -36.3048   24.0315 C   0  0  1  0  0  0
  -20.5942  -28.3686   23.1229 C   0  0  2  0  0  0
  -20.6822  -26.9486   22.5135 C   0  0  0  0  0  0
  -19.5775  -26.6677   21.4906 C   0  0  0  0  0  0
  -18.1983  -26.8012   22.1399 C   0  0  0  0  0  0
  -19.1572  -28.8818   23.2885 C   0  0  0  0  0  0
  -18.9493  -30.1388   23.8948 C   0  0  0  0  0  0
  -17.6507  -30.6534   24.0642 C   0  0  0  0  0  0
  -25.9064  -34.9428   23.5054 C   0  0  0  0  0  0
  -16.5385  -29.9063   23.6364 C   0  0  0  0  0  0
  -16.7311  -28.6526   23.0302 C   0  0  0  0  0  0
  -26.4506  -31.6592   25.0727 C   0  0  0  0  0  0
  -25.3736  -31.3797   26.1455 C   0  0  0  0  0  0
  -27.0361  -30.2990   24.6296 C   0  0  0  0  0  0
  -27.6038  -32.4342   25.7532 C   0  0  0  0  0  0
  -27.5574  -37.1786   24.8459 C   0  0  0  0  0  0
  -21.4240  -29.3115   22.3692 N   0  0  0  0  0  0
  -26.4285  -37.3740   23.9405 N   0  0  0  0  0  0
  -24.7040  -31.0483   22.0947 N   0  0  0  0  0  0
  -23.4244  -28.8107   23.2986 O   0  0  0  0  0  0
  -28.2688  -26.2774   20.2035 O   0  0  0  0  0  0
  -26.5634  -34.8918   22.4636 O   0  0  0  0  0  0
  -23.5485  -32.1345   23.7228 O   0  0  0  0  0  0
  -31.8945  -18.9752   21.7747 C   0  0  0  0  0  0
  -31.0508  -20.0811   21.5343 C   0  0  0  0  0  0
  -31.5009  -17.6572   21.4623 C   0  0  0  0  0  0
  -29.3905  -18.5497   20.6459 C   0  0  0  0  0  0
  -29.7793  -19.9344   20.9385 C   0  0  0  0  0  0
  -30.2366  -17.3737   20.8964 C   0  0  0  0  0  0
  -29.1280  -22.5212   21.1124 C   0  0  0  0  0  0
  -28.4301  -23.4888   20.4202 C   0  0  0  0  0  0
  -27.8138  -22.7056   19.3620 C   0  0  0  0  0  0
  -27.1205  -23.2177   18.3362 C   0  0  0  0  0  0
  -28.0918  -21.2068   19.5356 C   0  0  0  0  0  0
  -27.9953  -24.9673   20.9180 C   0  0  0  0  0  0
  -29.0208  -21.1567   20.6585 N   0  0  0  0  0  0
  -29.8525  -15.9376   20.6744 N   0  0  0  0  0  0
  -31.4726  -12.6310   19.1684 H   0  0  0  0  0  0
  -30.4090  -11.5237   19.9973 H   0  0  0  0  0  0
  -29.8145  -11.7175   17.5520 H   0  0  0  0  0  0
  -29.6189  -13.4511   17.7247 H   0  0  0  0  0  0
  -27.9305  -11.2578   18.9634 H   0  0  0  0  0  0
  -27.3862  -12.4448   17.8116 H   0  0  0  0  0  0
  -27.6125  -14.2339   19.4340 H   0  0  0  0  0  0
  -28.7308  -12.2240   21.4512 H   0  0  0  0  0  0
  -28.4052  -13.9124   21.7721 H   0  0  0  0  0  0
  -25.2755   -9.5743   22.4731 H   0  0  0  0  0  0
  -24.0007   -7.4699   22.7522 H   0  0  0  0  0  0
  -21.0830   -8.8811   19.8976 H   0  0  0  0  0  0
  -22.3654  -10.9709   19.6203 H   0  0  0  0  0  0
  -21.1990   -7.6150   23.9676 H   0  0  0  0  0  0
  -21.1485   -6.0546   25.9054 H   0  0  0  0  0  0
  -22.0577   -2.7609   23.2845 H   0  0  0  0  0  0
  -22.4095  -11.9851   22.4737 H   0  0  0  0  0  0
  -21.1145  -13.1348   22.2667 H   0  0  0  0  0  0
  -24.6735  -15.8519   20.5470 H   0  0  0  0  0  0
  -26.3073  -15.6296   20.1793 H   0  0  0  0  0  0
  -26.7245  -32.5402   23.1066 H   0  0  0  0  0  0
  -25.0084  -33.9691   25.0359 H   0  0  0  0  0  0
  -22.7370  -31.3008   21.3893 H   0  0  0  0  0  0
  -23.3753  -35.9621   23.3280 H   0  0  0  0  0  0
  -24.3603  -36.8915   22.2048 H   0  0  0  0  0  0
  -23.7283  -37.6492   23.6676 H   0  0  0  0  0  0
  -26.1331  -31.5249   20.6164 H   0  0  0  0  0  0
  -26.8592  -30.8053   22.0216 H   0  0  0  0  0  0
  -28.1283  -28.9045   21.2202 H   0  0  0  0  0  0
  -25.9435  -25.8768   19.0571 H   0  0  0  0  0  0
  -23.9700  -27.2984   19.0266 H   0  0  0  0  0  0
  -23.7938  -30.5869   19.4054 H   0  0  0  0  0  0
  -22.7760  -29.2451   19.8482 H   0  0  0  0  0  0
  -25.1307  -36.1864   25.0800 H   0  0  0  0  0  0
  -21.0059  -28.3117   24.1350 H   0  0  0  0  0  0
  -20.5805  -26.2156   23.3161 H   0  0  0  0  0  0
  -21.6657  -26.7671   22.0780 H   0  0  0  0  0  0
  -19.6985  -25.6777   21.0511 H   0  0  0  0  0  0
  -19.6669  -27.3823   20.6716 H   0  0  0  0  0  0
  -17.4253  -26.6923   21.3766 H   0  0  0  0  0  0
  -18.0430  -25.9945   22.8581 H   0  0  0  0  0  0
  -19.7991  -30.7134   24.2419 H   0  0  0  0  0  0
  -17.5059  -31.6162   24.5342 H   0  0  0  0  0  0
  -15.5372  -30.2914   23.7739 H   0  0  0  0  0  0
  -15.8718  -28.0862   22.6942 H   0  0  0  0  0  0
  -24.5884  -30.7151   25.7826 H   0  0  0  0  0  0
  -24.8960  -32.2994   26.4841 H   0  0  0  0  0  0
  -25.8046  -30.9012   27.0256 H   0  0  0  0  0  0
  -26.2963  -29.6748   24.1269 H   0  0  0  0  0  0
  -27.3935  -29.7248   25.4856 H   0  0  0  0  0  0
  -27.8890  -30.4218   23.9625 H   0  0  0  0  0  0
  -27.2599  -33.3624   26.2109 H   0  0  0  0  0  0
  -28.3874  -32.6929   25.0404 H   0  0  0  0  0  0
  -28.0694  -31.8483   26.5460 H   0  0  0  0  0  0
  -28.2573  -38.0090   24.7472 H   0  0  0  0  0  0
  -28.1069  -36.2614   24.6297 H   0  0  0  0  0  0
  -27.2299  -37.1458   25.8860 H   0  0  0  0  0  0
  -20.9398  -29.8880   21.6954 H   0  0  0  0  0  0
  -26.0157  -38.2809   24.1376 H   0  0  0  0  0  0
  -32.8707  -19.1368   22.2147 H   0  0  0  0  0  0
  -31.4102  -21.0666   21.7982 H   0  0  0  0  0  0
  -32.1926  -16.8592   21.6980 H   0  0  0  0  0  0
  -28.4068  -18.3803   20.2311 H   0  0  0  0  0  0
  -29.6011  -22.6783   22.0736 H   0  0  0  0  0  0
  -26.9976  -24.2785   18.2148 H   0  0  0  0  0  0
  -26.6949  -22.5759   17.5799 H   0  0  0  0  0  0
  -28.5336  -20.7776   18.6323 H   0  0  0  0  0  0
  -27.1747  -20.6627   19.7670 H   0  0  0  0  0  0
  -28.4229  -25.0877   21.9127 H   0  0  0  0  0  0
  -26.9231  -24.8940   21.1024 H   0  0  0  0  0  0
  -28.8618  -15.7597   20.6778 H   0  0  0  0  0  0
  1 25  1  0  0  0
  1 30  2  0  0  0
  1 84  1  0  0  0
  2  3  1  0  0  0
  2 25  1  0  0  0
  2 85  1  0  0  0
  2 86  1  0  0  0
  3  4  1  0  0  0
  3 87  1  0  0  0
  3 88  1  0  0  0
  4  5  1  0  0  0
  4 89  1  0  0  0
  4 90  1  0  0  0
  5  6  1  0  0  0
  5 26  1  0  0  0
  5 91  1  0  0  0
  6 25  1  0  0  0
  6 92  1  0  0  0
  6 93  1  0  0  0
  7  8  2  0  0  0
  7 26  1  0  0  0
  7 29  1  0  0  0
  8  9  1  0  0  0
  8 22  1  0  0  0
  9 10  1  0  0  0
  9 27  2  0  0  0
 10 11  2  0  0  0
 10 15  1  0  0  0
 11 12  1  0  0  0
 11 94  1  0  0  0
 12 13  2  0  0  0
 12 95  1  0  0  0
 13 14  1  0  0  0
 13 31  1  0  0  0
 14 15  2  0  0  0
 14 96  1  0  0  0
 15 97  1  0  0  0
 16 17  2  0  0  0
 16 21  1  0  0  0
 16 31  1  0  0  0
 17 18  1  0  0  0
 17 98  1  0  0  0
 18 19  2  0  0  0
 18 99  1  0  0  0
 19 20  1  0  0  0
 19 24  1  0  0  0
 20 21  2  0  0  0
 20100  1  0  0  0
 21 23  1  0  0  0
 22 28  1  0  0  0
 22 32  2  0  0  0
 26 27  1  0  0  0
 28101  1  0  0  0
 28102  1  0  0  0
 29103  1  0  0  0
 29104  1  0  0  0
 33 34  1  0  0  0
 33 66  1  0  0  0
 33 70  2  0  0  0
 34 36  1  0  0  0
 34 59  1  0  0  0
 34105  1  0  0  0
 35 44  2  0  0  0
 35 45  1  0  0  0
 35 68  1  0  0  0
 36 56  1  0  0  0
 36106  1  0  0  0
 37 39  1  0  0  0
 37 47  1  0  0  0
 37 66  1  0  0  0
 37107  1  0  0  0
 38 43  2  0  0  0
 38 46  1  0  0  0
 38 47  1  0  0  0
 39 64  1  0  0  0
 39 67  2  0  0  0
 40 52  1  0  0  0
 40 53  2  0  0  0
 40 58  1  0  0  0
 41108  1  0  0  0
 41109  1  0  0  0
 41110  1  0  0  0
 41 48  1  0  0  0
 42 43  1  0  0  0
 42 66  1  0  0  0
 42111  1  0  0  0
 42112  1  0  0  0
 43 44  1  0  0  0
 44113  1  0  0  0
 45 46  2  0  0  0
 45114  1  0  0  0
 46115  1  0  0  0
 47116  1  0  0  0
 47117  1  0  0  0
 48 56  1  0  0  0
 48 65  1  0  0  0
 48118  1  0  0  0
 49 50  1  0  0  0
 49 53  1  0  0  0
 49 64  1  0  0  0
 49119  1  0  0  0
 50 51  1  0  0  0
 50120  1  0  0  0
 50121  1  0  0  0
 51 52  1  0  0  0
 51122  1  0  0  0
 51123  1  0  0  0
 52124  1  0  0  0
 52125  1  0  0  0
 53 54  1  0  0  0
 54 55  2  0  0  0
 54126  1  0  0  0
 55 57  1  0  0  0
 55127  1  0  0  0
 56 69  2  0  0  0
 57 58  2  0  0  0
 57128  1  0  0  0
 58129  1  0  0  0
 59 60  1  0  0  0
 59 61  1  0  0  0
 59 62  1  0  0  0
 60130  1  0  0  0
 60131  1  0  0  0
 60132  1  0  0  0
 61133  1  0  0  0
 61134  1  0  0  0
 61135  1  0  0  0
 62136  1  0  0  0
 62137  1  0  0  0
 62138  1  0  0  0
 63 65  1  0  0  0
 63139  1  0  0  0
 63140  1  0  0  0
 63141  1  0  0  0
 64142  1  0  0  0
 65143  1  0  0  0
 68 82  1  0  0  0
 71 72  2  0  0  0
 71 73  1  0  0  0
 71144  1  0  0  0
 72 75  1  0  0  0
 72145  1  0  0  0
 73 76  2  0  0  0
 73146  1  0  0  0
 74 75  2  0  0  0
 74 76  1  0  0  0
 74147  1  0  0  0
 75 83  1  0  0  0
 76 84  1  0  0  0
 77 78  2  0  0  0
 77 83  1  0  0  0
 77148  1  0  0  0
 78 79  1  0  0  0
 78 82  1  0  0  0
 79 80  2  0  0  0
 79 81  1  0  0  0
 80149  1  0  0  0
 80150  1  0  0  0
 81 83  1  0  0  0
 81151  1  0  0  0
 81152  1  0  0  0
 82153  1  0  0  0
 82154  1  0  0  0
 84155  1  0  0  0
M  ISO  4   1 100  68 101  82 101  84 100
M  END
> <chiral flag>
0

> <version>
0

> <s_m_source_file>
/data/baiqing/PycharmProjects/Reinvent-master-3.2/result/LINK_invent/BTK/process_docking_weight1_custom_product_contain_oxygen_bond_distance_aromatic_linkinvent_7_9_3/rearranged_h_0073.sdf

> <i_m_source_file_index>
2

> <r_mmod_Potential_Energy-OPLS-2005>
348.430633544922

> <r_mmod_Stretch_Energy-OPLS-2005>
142.166732788086

> <r_mmod_Bend_Energy-OPLS-2005>
261.381774902344

> <r_mmod_Torsional_Energy-OPLS-2005>
240.30387878418

> <r_mmod_Improper_Torsional_Energy-OPLS-2005>
7.65624856948853

> <r_mmod_Van_der_Waal_Energy-OPLS-2005>
133.428848266602

> <r_mmod_Electrostatic_Energy-OPLS-2005>
-334.602813720703

> <r_mmod_Solvation_Energy-OPLS-2005>
-212.450164794922

> <b_mmod_Minimization_Converged-OPLS-2005>
0

> <r_mmod_RMS_Derivative-OPLS-2005>
5.06523704528809

$$$$
2
                    3D
 Structure written by MMmdl.
161170  0  0  1  0            999 V2000
  -30.6584  -14.5204   20.5683 C   0  0  0  0  0  0
  -30.4346  -12.3390   19.4121 C   0  0  0  0  0  0
  -29.4968  -12.5150   18.1989 C   0  0  0  0  0  0
  -28.0172  -12.3661   18.6117 C   0  0  0  0  0  0
  -27.6570  -13.2042   19.8673 C   0  0  2  0  0  0
  -28.7044  -13.0007   20.9845 C   0  0  0  0  0  0
  -25.2586  -13.8148   20.5677 C   0  0  0  0  0  0
  -24.1836  -13.0426   20.9158 C   0  0  0  0  0  0
  -24.6383  -11.6884   20.8714 C   0  0  0  0  0  0
  -23.9044  -10.4274   21.0383 C   0  0  0  0  0  0
  -24.3599   -9.4204   21.9163 C   0  0  0  0  0  0
  -23.6271   -8.2246   22.0753 C   0  0  0  0  0  0
  -22.4259   -8.0268   21.3552 C   0  0  0  0  0  0
  -21.9893   -9.0232   20.4654 C   0  0  0  0  0  0
  -22.7215  -10.2110   20.3048 C   0  0  0  0  0  0
  -21.6854   -6.0712   22.5268 C   0  0  0  0  0  0
  -21.4009   -6.5623   23.8195 C   0  0  0  0  0  0
  -21.3671   -5.6782   24.9162 C   0  0  0  0  0  0
  -21.6052   -4.3044   24.7222 C   0  0  0  0  0  0
  -21.8818   -3.8133   23.4343 C   0  0  0  0  0  0
  -21.9189   -4.6940   22.3396 C   0  0  0  0  0  0
  -22.7864  -13.5236   21.1809 C   0  0  0  0  0  0
  -22.1658   -4.2124   21.0975 F   0  0  0  0  0  0
  -21.5641   -3.4532   25.7742 F   0  0  0  0  0  0
  -30.0224  -13.3268   20.4183 N   0  0  0  0  0  0
  -26.3006  -12.9307   20.3330 N   0  0  0  0  0  0
  -25.9321  -11.6463   20.5744 N   0  0  0  0  0  0
  -22.0506  -12.8243   22.0370 N   0  0  0  0  0  0
  -25.4252  -15.1867   20.4124 N   0  0  0  0  0  0
  -31.8268  -14.7105   20.2202 O   0  0  0  0  0  0
  -21.6641   -6.8859   21.4236 O   0  0  0  0  0  0
  -22.3550  -14.5534   20.6647 O   0  0  0  0  0  0
  -24.6178  -31.8655   23.2071 C   0  0  0  0  0  0
  -25.9076  -32.4776   23.8370 C   0  0  1  0  0  0
  -27.2246  -27.3883   20.0954 C   0  0  0  0  0  0
  -25.5946  -33.8586   24.2305 N   0  0  0  0  0  0
  -23.4073  -30.4912   21.5459 C   0  0  2  0  0  0
  -24.8545  -28.9595   20.1044 C   0  0  0  0  0  0
  -22.7453  -29.4636   22.4930 C   0  0  0  0  0  0
  -18.0278  -28.1378   22.8423 C   0  0  0  0  0  0
  -24.1497  -36.7299   23.2621 C   0  0  0  0  0  0
  -25.9402  -30.8160   21.3689 C   0  0  0  0  0  0
  -26.0182  -29.4493   20.7130 C   0  0  0  0  0  0
  -27.2061  -28.6704   20.7071 C   0  0  0  0  0  0
  -26.0435  -26.9438   19.4551 C   0  0  0  0  0  0
  -24.8676  -27.7116   19.4652 C   0  0  0  0  0  0
  -23.6212  -29.8336   20.1577 C   0  0  0  0  0  0
  -25.4113  -36.3066   24.0319 C   0  0  1  0  0  0
  -20.5874  -28.3669   23.1275 C   0  0  2  0  0  0
  -20.6785  -26.9420   22.5355 C   0  0  0  0  0  0
  -19.5761  -26.6380   21.5154 C   0  0  0  0  0  0
  -18.1936  -26.7899   22.1581 C   0  0  0  0  0  0
  -19.1533  -28.8838   23.2841 C   0  0  0  0  0  0
  -18.9469  -30.1432   23.8873 C   0  0  0  0  0  0
  -17.6477  -30.6582   24.0548 C   0  0  0  0  0  0
  -25.9044  -34.9439   23.5098 C   0  0  0  0  0  0
  -16.5360  -29.9080   23.6332 C   0  0  0  0  0  0
  -16.7263  -28.6516   23.0304 C   0  0  0  0  0  0
  -26.4484  -31.6559   25.0722 C   0  0  0  0  0  0
  -25.3713  -31.3736   26.1461 C   0  0  0  0  0  0
  -27.0274  -30.2962   24.6119 C   0  0  0  0  0  0
  -27.6127  -32.4211   25.7454 C   0  0  0  0  0  0
  -27.5572  -37.1794   24.8461 C   0  0  0  0  0  0
  -21.4170  -29.3055   22.3720 N   0  0  0  0  0  0
  -26.4289  -37.3760   23.9395 N   0  0  0  0  0  0
  -24.6723  -31.0736   22.0980 N   0  0  0  0  0  0
  -23.4210  -28.8141   23.2951 O   0  0  0  0  0  0
  -28.3618  -26.5874   20.1392 O   0  0  0  0  0  0
  -26.5586  -34.8903   22.4632 O   0  0  0  0  0  0
  -23.5357  -32.1438   23.7445 O   0  0  0  0  0  0
  -30.6148  -17.8823   23.6493 C   0  0  0  0  0  0
  -30.5922  -16.7188   22.8602 C   0  0  0  0  0  0
  -29.6320  -18.0171   21.0382 C   0  0  0  0  0  0
  -30.1232  -19.1181   23.1657 C   0  0  0  0  0  0
  -29.6708  -19.2227   21.8104 C   0  0  0  0  0  0
  -30.0730  -16.7682   21.5534 C   0  0  0  0  0  0
  -27.9353  -22.0725   20.2318 C   0  0  0  0  0  0
  -29.0230  -22.7343   20.6323 C   0  0  0  0  0  0
  -28.0469  -20.6695   20.5829 C   0  0  0  0  0  0
  -30.0962  -20.2202   24.1709 C   0  0  0  0  0  0
  -29.9843  -21.7560   21.2745 C   0  0  0  0  0  0
  -28.7655  -20.9371   24.3912 C   0  0  0  0  0  0
  -29.3153  -24.2524   20.5439 C   0  0  0  0  0  0
  -28.1545  -25.1498   20.0178 C   0  0  0  0  0  0
  -29.2337  -20.4786   21.2148 N   0  0  0  0  0  0
  -29.8240  -15.5492   20.8461 N   0  0  0  0  0  0
  -27.1922  -19.8035   20.3740 O   0  0  0  0  0  0
  -31.0581  -20.4975   24.8937 O   0  0  0  0  0  0
  -31.4771  -12.4619   19.1115 H   0  0  0  0  0  0
  -30.3544  -11.3292   19.8188 H   0  0  0  0  0  0
  -29.7462  -11.7918   17.4206 H   0  0  0  0  0  0
  -29.6559  -13.5016   17.7587 H   0  0  0  0  0  0
  -27.8292  -11.3094   18.8019 H   0  0  0  0  0  0
  -27.3694  -12.6432   17.7803 H   0  0  0  0  0  0
  -27.6897  -14.2487   19.5575 H   0  0  0  0  0  0
  -28.7002  -11.9705   21.3399 H   0  0  0  0  0  0
  -28.4733  -13.6130   21.8585 H   0  0  0  0  0  0
  -25.2737   -9.5691   22.4738 H   0  0  0  0  0  0
  -23.9970   -7.4658   22.7499 H   0  0  0  0  0  0
  -21.0813   -8.8751   19.8976 H   0  0  0  0  0  0
  -22.3651  -10.9645   19.6165 H   0  0  0  0  0  0
  -21.1996   -7.6131   23.9692 H   0  0  0  0  0  0
  -21.1505   -6.0516   25.9066 H   0  0  0  0  0  0
  -22.0592   -2.7592   23.2851 H   0  0  0  0  0  0
  -22.4085  -11.9887   22.4750 H   0  0  0  0  0  0
  -21.1141  -13.1293   22.2603 H   0  0  0  0  0  0
  -24.6535  -15.8332   20.5384 H   0  0  0  0  0  0
  -26.2706  -15.6462   20.1021 H   0  0  0  0  0  0
  -26.7167  -32.5471   23.1142 H   0  0  0  0  0  0
  -25.0181  -33.9800   25.0499 H   0  0  0  0  0  0
  -22.6945  -31.3071   21.4091 H   0  0  0  0  0  0
  -23.3741  -35.9648   23.3265 H   0  0  0  0  0  0
  -24.3625  -36.8931   22.2049 H   0  0  0  0  0  0
  -23.7295  -37.6504   23.6662 H   0  0  0  0  0  0
  -26.0610  -31.5816   20.6019 H   0  0  0  0  0  0
  -26.8254  -30.8670   21.9911 H   0  0  0  0  0  0
  -28.0994  -29.0380   21.1939 H   0  0  0  0  0  0
  -26.0056  -26.0001   18.9308 H   0  0  0  0  0  0
  -23.9843  -27.3374   18.9634 H   0  0  0  0  0  0
  -23.7389  -30.6156   19.4069 H   0  0  0  0  0  0
  -22.7427  -29.2628   19.8508 H   0  0  0  0  0  0
  -25.1286  -36.1918   25.0816 H   0  0  0  0  0  0
  -20.9948  -28.3229   24.1399 H   0  0  0  0  0  0
  -20.5662  -26.2300   23.3545 H   0  0  0  0  0  0
  -21.6661  -26.7454   22.1154 H   0  0  0  0  0  0
  -19.6959  -25.6292   21.1194 H   0  0  0  0  0  0
  -19.6694  -27.3194   20.6668 H   0  0  0  0  0  0
  -17.4192  -26.6570   21.4009 H   0  0  0  0  0  0
  -18.0407  -26.0054   22.8999 H   0  0  0  0  0  0
  -19.7954  -30.7230   24.2241 H   0  0  0  0  0  0
  -17.5050  -31.6273   24.5153 H   0  0  0  0  0  0
  -15.5369  -30.2987   23.7704 H   0  0  0  0  0  0
  -15.8639  -28.0878   22.6977 H   0  0  0  0  0  0
  -24.6060  -30.6837   25.7883 H   0  0  0  0  0  0
  -24.8672  -32.2875   26.4601 H   0  0  0  0  0  0
  -25.8055  -30.9222   27.0399 H   0  0  0  0  0  0
  -26.2811  -29.6733   24.1167 H   0  0  0  0  0  0
  -27.4017  -29.7207   25.4601 H   0  0  0  0  0  0
  -27.8650  -30.4221   23.9267 H   0  0  0  0  0  0
  -27.2911  -33.3659   26.1850 H   0  0  0  0  0  0
  -28.4038  -32.6478   25.0291 H   0  0  0  0  0  0
  -28.0633  -31.8364   26.5495 H   0  0  0  0  0  0
  -28.2580  -38.0092   24.7505 H   0  0  0  0  0  0
  -28.1087  -36.2636   24.6277 H   0  0  0  0  0  0
  -27.2327  -37.1449   25.8876 H   0  0  0  0  0  0
  -20.9346  -29.8839   21.6999 H   0  0  0  0  0  0
  -26.0149  -38.2809   24.1419 H   0  0  0  0  0  0
  -30.9570  -17.8074   24.6738 H   0  0  0  0  0  0
  -30.9052  -15.7797   23.2943 H   0  0  0  0  0  0
  -29.2397  -18.0447   20.0316 H   0  0  0  0  0  0
  -27.0714  -22.5039   19.7528 H   0  0  0  0  0  0
  -30.2155  -22.0904   22.2836 H   0  0  0  0  0  0
  -30.9108  -21.6868   20.7027 H   0  0  0  0  0  0
  -28.0496  -20.2490   24.8376 H   0  0  0  0  0  0
  -28.3410  -21.3181   23.4653 H   0  0  0  0  0  0
  -28.8967  -21.7797   25.0691 H   0  0  0  0  0  0
  -30.1972  -24.3972   19.9223 H   0  0  0  0  0  0
  -29.5871  -24.5976   21.5402 H   0  0  0  0  0  0
  -27.2507  -24.8695   20.5640 H   0  0  0  0  0  0
  -27.9827  -24.9054   18.9668 H   0  0  0  0  0  0
  -28.8499  -15.3074   20.7514 H   0  0  0  0  0  0
  1 25  1  0  0  0
  1 30  2  0  0  0
  1 86  1  0  0  0
  2  3  1  0  0  0
  2 25  1  0  0  0
  2 89  1  0  0  0
  2 90  1  0  0  0
  3  4  1  0  0  0
  3 91  1  0  0  0
  3 92  1  0  0  0
  4  5  1  0  0  0
  4 93  1  0  0  0
  4 94  1  0  0  0
  5  6  1  0  0  0
  5 26  1  0  0  0
  5 95  1  0  0  0
  6 25  1  0  0  0
  6 96  1  0  0  0
  6 97  1  0  0  0
  7  8  2  0  0  0
  7 26  1  0  0  0
  7 29  1  0  0  0
  8  9  1  0  0  0
  8 22  1  0  0  0
  9 10  1  0  0  0
  9 27  2  0  0  0
 10 11  2  0  0  0
 10 15  1  0  0  0
 11 12  1  0  0  0
 11 98  1  0  0  0
 12 13  2  0  0  0
 12 99  1  0  0  0
 13 14  1  0  0  0
 13 31  1  0  0  0
 14 15  2  0  0  0
 14100  1  0  0  0
 15101  1  0  0  0
 16 17  2  0  0  0
 16 21  1  0  0  0
 16 31  1  0  0  0
 17 18  1  0  0  0
 17102  1  0  0  0
 18 19  2  0  0  0
 18103  1  0  0  0
 19 20  1  0  0  0
 19 24  1  0  0  0
 20 21  2  0  0  0
 20104  1  0  0  0
 21 23  1  0  0  0
 22 28  1  0  0  0
 22 32  2  0  0  0
 26 27  1  0  0  0
 28105  1  0  0  0
 28106  1  0  0  0
 29107  1  0  0  0
 29108  1  0  0  0
 33 34  1  0  0  0
 33 66  1  0  0  0
 33 70  2  0  0  0
 34 36  1  0  0  0
 34 59  1  0  0  0
 34109  1  0  0  0
 35 44  2  0  0  0
 35 45  1  0  0  0
 35 68  1  0  0  0
 36 56  1  0  0  0
 36110  1  0  0  0
 37 39  1  0  0  0
 37 47  1  0  0  0
 37 66  1  0  0  0
 37111  1  0  0  0
 38 43  2  0  0  0
 38 46  1  0  0  0
 38 47  1  0  0  0
 39 64  1  0  0  0
 39 67  2  0  0  0
 40 52  1  0  0  0
 40 53  2  0  0  0
 40 58  1  0  0  0
 41112  1  0  0  0
 41113  1  0  0  0
 41114  1  0  0  0
 41 48  1  0  0  0
 42 43  1  0  0  0
 42 66  1  0  0  0
 42115  1  0  0  0
 42116  1  0  0  0
 43 44  1  0  0  0
 44117  1  0  0  0
 45 46  2  0  0  0
 45118  1  0  0  0
 46119  1  0  0  0
 47120  1  0  0  0
 47121  1  0  0  0
 48 56  1  0  0  0
 48 65  1  0  0  0
 48122  1  0  0  0
 49 50  1  0  0  0
 49 53  1  0  0  0
 49 64  1  0  0  0
 49123  1  0  0  0
 50 51  1  0  0  0
 50124  1  0  0  0
 50125  1  0  0  0
 51 52  1  0  0  0
 51126  1  0  0  0
 51127  1  0  0  0
 52128  1  0  0  0
 52129  1  0  0  0
 53 54  1  0  0  0
 54 55  2  0  0  0
 54130  1  0  0  0
 55 57  1  0  0  0
 55131  1  0  0  0
 56 69  2  0  0  0
 57 58  2  0  0  0
 57132  1  0  0  0
 58133  1  0  0  0
 59 60  1  0  0  0
 59 61  1  0  0  0
 59 62  1  0  0  0
 60134  1  0  0  0
 60135  1  0  0  0
 60136  1  0  0  0
 61137  1  0  0  0
 61138  1  0  0  0
 61139  1  0  0  0
 62140  1  0  0  0
 62141  1  0  0  0
 62142  1  0  0  0
 63 65  1  0  0  0
 63143  1  0  0  0
 63144  1  0  0  0
 63145  1  0  0  0
 64146  1  0  0  0
 65147  1  0  0  0
 68 84  1  0  0  0
 71 72  2  0  0  0
 71 74  1  0  0  0
 71148  1  0  0  0
 72 76  1  0  0  0
 72149  1  0  0  0
 73 75  1  0  0  0
 73 76  2  0  0  0
 73150  1  0  0  0
 74 75  2  0  0  0
 74 80  1  0  0  0
 75 85  1  0  0  0
 76 86  1  0  0  0
 77 78  2  0  0  0
 77 79  1  0  0  0
 77151  1  0  0  0
 78 81  1  0  0  0
 78 83  1  0  0  0
 79 85  1  0  0  0
 79 87  2  0  0  0
 80 82  1  0  0  0
 80 88  2  0  0  0
 81 85  1  0  0  0
 81152  1  0  0  0
 81153  1  0  0  0
 82154  1  0  0  0
 82155  1  0  0  0
 82156  1  0  0  0
 83 84  1  0  0  0
 83157  1  0  0  0
 83158  1  0  0  0
 84159  1  0  0  0
 84160  1  0  0  0
 86161  1  0  0  0
M  ISO  4   1 100  68 101  84 101  86 100
M  END
> <chiral flag>
0

> <version>
0

> <s_m_source_file>
/data/baiqing/PycharmProjects/Reinvent-master-3.2/result/LINK_invent/BTK/process_docking_weight1_custom_product_contain_oxygen_bond_distance_aromatic_linkinvent_7_9_3/rearranged_h_0073.sdf

> <i_m_source_file_index>
3

> <r_mmod_Potential_Energy-OPLS-2005>
154.761611938477

> <r_mmod_Stretch_Energy-OPLS-2005>
53.0208396911621

> <r_mmod_Bend_Energy-OPLS-2005>
155.073257446289

> <r_mmod_Torsional_Energy-OPLS-2005>
330.733551025391

> <r_mmod_Improper_Torsional_Energy-OPLS-2005>
9.47898006439209

> <r_mmod_Van_der_Waal_Energy-OPLS-2005>
150.031311035156

> <r_mmod_Electrostatic_Energy-OPLS-2005>
-336.978759765625

> <r_mmod_Solvation_Energy-OPLS-2005>
-231.397430419922

> <b_mmod_Minimization_Converged-OPLS-2005>
0

> <r_mmod_RMS_Derivative-OPLS-2005>
3.85365152359009

$$$$
3
                    3D
 Structure written by MMmdl.
162171  0  0  1  0            999 V2000
  -30.6365  -14.7379   20.3313 C   0  0  0  0  0  0
  -30.4271  -12.4370   19.4336 C   0  0  0  0  0  0
  -29.4880  -12.4504   18.2083 C   0  0  0  0  0  0
  -28.0183  -12.3040   18.6460 C   0  0  0  0  0  0
  -27.6353  -13.2207   19.8393 C   0  0  2  0  0  0
  -28.7013  -13.2078   20.9512 C   0  0  0  0  0  0
  -25.2535  -13.8146   20.5818 C   0  0  0  0  0  0
  -24.1793  -13.0415   20.9226 C   0  0  0  0  0  0
  -24.6372  -11.6875   20.8757 C   0  0  0  0  0  0
  -23.9055  -10.4260   21.0406 C   0  0  0  0  0  0
  -24.3605   -9.4167   21.9183 C   0  0  0  0  0  0
  -23.6283   -8.2205   22.0755 C   0  0  0  0  0  0
  -22.4266   -8.0249   21.3541 C   0  0  0  0  0  0
  -21.9891   -9.0222   20.4640 C   0  0  0  0  0  0
  -22.7228  -10.2101   20.3049 C   0  0  0  0  0  0
  -21.6838   -6.0715   22.5278 C   0  0  0  0  0  0
  -21.4003   -6.5631   23.8204 C   0  0  0  0  0  0
  -21.3660   -5.6795   24.9179 C   0  0  0  0  0  0
  -21.6046   -4.3053   24.7241 C   0  0  0  0  0  0
  -21.8824   -3.8137   23.4365 C   0  0  0  0  0  0
  -21.9191   -4.6946   22.3410 C   0  0  0  0  0  0
  -22.7817  -13.5187   21.1884 C   0  0  0  0  0  0
  -22.1664   -4.2130   21.0990 F   0  0  0  0  0  0
  -21.5626   -3.4539   25.7754 F   0  0  0  0  0  0
  -29.9815  -13.5316   20.3121 N   0  0  0  0  0  0
  -26.2937  -12.9338   20.3350 N   0  0  0  0  0  0
  -25.9313  -11.6488   20.5798 N   0  0  0  0  0  0
  -22.0460  -12.8179   22.0436 N   0  0  0  0  0  0
  -25.4286  -15.1871   20.4438 N   0  0  0  0  0  0
  -31.8683  -14.7447   20.4055 O   0  0  0  0  0  0
  -21.6624   -6.8855   21.4237 O   0  0  0  0  0  0
  -22.3513  -14.5500   20.6729 O   0  0  0  0  0  0
  -24.6297  -31.8584   23.2020 C   0  0  0  0  0  0
  -25.9146  -32.4747   23.8357 C   0  0  1  0  0  0
  -27.2091  -27.2929   20.1336 C   0  0  0  0  0  0
  -25.5990  -33.8556   24.2294 N   0  0  0  0  0  0
  -23.4243  -30.4845   21.5416 C   0  0  2  0  0  0
  -24.8727  -28.9369   20.1050 C   0  0  0  0  0  0
  -22.7480  -29.4626   22.4876 C   0  0  0  0  0  0
  -18.0287  -28.1379   22.8482 C   0  0  0  0  0  0
  -24.1494  -36.7236   23.2633 C   0  0  0  0  0  0
  -25.9678  -30.7804   21.3784 C   0  0  0  0  0  0
  -26.0385  -29.4031   20.7284 C   0  0  0  0  0  0
  -27.2137  -28.5898   20.7384 C   0  0  0  0  0  0
  -26.0418  -26.9010   19.4561 C   0  0  0  0  0  0
  -24.8781  -27.6922   19.4560 C   0  0  0  0  0  0
  -23.6418  -29.8215   20.1550 C   0  0  0  0  0  0
  -25.4126  -36.3051   24.0331 C   0  0  1  0  0  0
  -20.5892  -28.3706   23.1239 C   0  0  2  0  0  0
  -20.6773  -26.9417   22.5396 C   0  0  0  0  0  0
  -19.5737  -26.6382   21.5201 C   0  0  0  0  0  0
  -18.1920  -26.7920   22.1620 C   0  0  0  0  0  0
  -19.1544  -28.8854   23.2867 C   0  0  0  0  0  0
  -18.9471  -30.1451   23.8890 C   0  0  0  0  0  0
  -17.6472  -30.6581   24.0562 C   0  0  0  0  0  0
  -25.9069  -34.9427   23.5096 C   0  0  0  0  0  0
  -16.5360  -29.9094   23.6318 C   0  0  0  0  0  0
  -16.7276  -28.6504   23.0353 C   0  0  0  0  0  0
  -26.4533  -31.6514   25.0703 C   0  0  0  0  0  0
  -25.3755  -31.3667   26.1416 C   0  0  0  0  0  0
  -27.0384  -30.2933   24.6160 C   0  0  0  0  0  0
  -27.6104  -32.4240   25.7478 C   0  0  0  0  0  0
  -27.5569  -37.1777   24.8477 C   0  0  0  0  0  0
  -21.4192  -29.3045   22.3607 N   0  0  0  0  0  0
  -26.4278  -37.3757   23.9420 N   0  0  0  0  0  0
  -24.6925  -31.0615   22.0957 N   0  0  0  0  0  0
  -23.4187  -28.8149   23.2951 O   0  0  0  0  0  0
  -28.2883  -26.3978   20.1259 O   0  0  0  0  0  0
  -26.5621  -34.8894   22.4649 O   0  0  0  0  0  0
  -23.5457  -32.1387   23.7341 O   0  0  0  0  0  0
  -29.8596  -19.4177   20.8059 C   0  0  0  0  0  0
  -30.2339  -18.0298   20.7125 C   0  0  0  0  0  0
  -28.0159  -19.0002   19.3506 C   0  0  0  0  0  0
  -28.4003  -17.6307   19.2142 C   0  0  0  0  0  0
  -28.7336  -19.9614   20.1165 C   0  0  0  0  0  0
  -29.5297  -17.0823   19.9065 C   0  0  0  0  0  0
  -27.9593  -23.7213   20.4225 C   0  0  0  0  0  0
  -26.7602  -23.1599   20.2098 C   0  0  0  0  0  0
  -28.9199  -22.5720   20.4258 C   0  0  0  0  0  0
  -26.8549  -21.6858   19.9153 C   0  0  0  0  0  0
  -27.5682  -16.8163   18.2296 C   0  0  0  0  0  0
  -25.3829  -23.7827   20.3454 C   0  0  0  0  0  0
  -30.7263  -15.8324   18.2281 C   0  0  0  0  0  0
  -28.2161  -25.1850   20.9905 C   0  0  0  0  0  0
  -28.2612  -21.3751   20.1796 N   0  0  0  0  0  0
  -30.0648  -15.7435   19.5490 N   0  0  0  0  0  0
  -30.1342  -22.6564   20.6369 O   0  0  0  0  0  0
  -31.4642  -12.5632   19.1168 H   0  0  0  0  0  0
  -30.3775  -11.4810   19.9566 H   0  0  0  0  0  0
  -29.7547  -11.6455   17.5206 H   0  0  0  0  0  0
  -29.6026  -13.3727   17.6407 H   0  0  0  0  0  0
  -27.8719  -11.2610   18.9266 H   0  0  0  0  0  0
  -27.3528  -12.4826   17.8004 H   0  0  0  0  0  0
  -27.6076  -14.2308   19.4482 H   0  0  0  0  0  0
  -28.7467  -12.2353   21.4456 H   0  0  0  0  0  0
  -28.4605  -13.9458   21.7170 H   0  0  0  0  0  0
  -25.2743   -9.5635   22.4771 H   0  0  0  0  0  0
  -23.9975   -7.4597   22.7481 H   0  0  0  0  0  0
  -21.0820   -8.8748   19.8952 H   0  0  0  0  0  0
  -22.3687  -10.9647   19.6163 H   0  0  0  0  0  0
  -21.1987   -7.6135   23.9706 H   0  0  0  0  0  0
  -21.1481   -6.0523   25.9082 H   0  0  0  0  0  0
  -22.0602   -2.7599   23.2874 H   0  0  0  0  0  0
  -22.4055  -11.9811   22.4791 H   0  0  0  0  0  0
  -21.1078  -13.1198   22.2673 H   0  0  0  0  0  0
  -24.6742  -15.8481   20.5887 H   0  0  0  0  0  0
  -26.3124  -15.6276   20.2261 H   0  0  0  0  0  0
  -26.7226  -32.5411   23.1134 H   0  0  0  0  0  0
  -25.0246  -33.9731   25.0514 H   0  0  0  0  0  0
  -22.7172  -31.3050   21.3978 H   0  0  0  0  0  0
  -23.3771  -35.9549   23.3307 H   0  0  0  0  0  0
  -24.3568  -36.8831   22.2032 H   0  0  0  0  0  0
  -23.7224  -37.6438   23.6636 H   0  0  0  0  0  0
  -26.1077  -31.5397   20.6068 H   0  0  0  0  0  0
  -26.8466  -30.8289   22.0111 H   0  0  0  0  0  0
  -28.1075  -28.9416   21.2341 H   0  0  0  0  0  0
  -26.0295  -25.9612   18.9244 H   0  0  0  0  0  0
  -23.9947  -27.3439   18.9386 H   0  0  0  0  0  0
  -23.7628  -30.5989   19.3982 H   0  0  0  0  0  0
  -22.7602  -29.2533   19.8502 H   0  0  0  0  0  0
  -25.1308  -36.1889   25.0822 H   0  0  0  0  0  0
  -21.0023  -28.3311   24.1347 H   0  0  0  0  0  0
  -20.5651  -26.2340   23.3622 H   0  0  0  0  0  0
  -21.6646  -26.7409   22.1203 H   0  0  0  0  0  0
  -19.6912  -25.6298   21.1219 H   0  0  0  0  0  0
  -19.6668  -27.3206   20.6729 H   0  0  0  0  0  0
  -17.4197  -26.6669   21.4014 H   0  0  0  0  0  0
  -18.0318  -26.0059   22.9005 H   0  0  0  0  0  0
  -19.7958  -30.7261   24.2251 H   0  0  0  0  0  0
  -17.5037  -31.6248   24.5190 H   0  0  0  0  0  0
  -15.5368  -30.3015   23.7627 H   0  0  0  0  0  0
  -15.8662  -28.0822   22.7080 H   0  0  0  0  0  0
  -24.6002  -30.6936   25.7757 H   0  0  0  0  0  0
  -24.8873  -32.2822   26.4752 H   0  0  0  0  0  0
  -25.8080  -30.8930   27.0233 H   0  0  0  0  0  0
  -26.2952  -29.6663   24.1230 H   0  0  0  0  0  0
  -27.4147  -29.7204   25.4641 H   0  0  0  0  0  0
  -27.8795  -30.4231   23.9356 H   0  0  0  0  0  0
  -27.2744  -33.3578   26.2010 H   0  0  0  0  0  0
  -28.3943  -32.6725   25.0303 H   0  0  0  0  0  0
  -28.0734  -31.8366   26.5424 H   0  0  0  0  0  0
  -28.2606  -38.0056   24.7521 H   0  0  0  0  0  0
  -28.1047  -36.2590   24.6318 H   0  0  0  0  0  0
  -27.2275  -37.1429   25.8876 H   0  0  0  0  0  0
  -20.9364  -29.8764   21.6819 H   0  0  0  0  0  0
  -26.0150  -38.2822   24.1450 H   0  0  0  0  0  0
  -30.4665  -20.0698   21.4179 H   0  0  0  0  0  0
  -31.1310  -17.7129   21.2243 H   0  0  0  0  0  0
  -27.1483  -19.3188   18.7918 H   0  0  0  0  0  0
  -26.5723  -21.4907   18.8792 H   0  0  0  0  0  0
  -26.2048  -21.1108   20.5773 H   0  0  0  0  0  0
  -26.5321  -16.7641   18.5595 H   0  0  0  0  0  0
  -27.9229  -15.8030   18.0700 H   0  0  0  0  0  0
  -27.5631  -17.3022   17.2539 H   0  0  0  0  0  0
  -25.4140  -24.7483   20.8463 H   0  0  0  0  0  0
  -24.7386  -23.1428   20.9489 H   0  0  0  0  0  0
  -24.9177  -23.9008   19.3669 H   0  0  0  0  0  0
  -30.0241  -16.0493   17.4267 H   0  0  0  0  0  0
  -31.2568  -14.9262   17.9260 H   0  0  0  0  0  0
  -31.4652  -16.6362   18.2390 H   0  0  0  0  0  0
  -29.1645  -25.1433   21.5280 H   0  0  0  0  0  0
  -27.4735  -25.3655   21.7673 H   0  0  0  0  0  0
  1 25  1  0  0  0
  1 30  2  0  0  0
  1 86  1  0  0  0
  2  3  1  0  0  0
  2 25  1  0  0  0
  2 88  1  0  0  0
  2 89  1  0  0  0
  3  4  1  0  0  0
  3 90  1  0  0  0
  3 91  1  0  0  0
  4  5  1  0  0  0
  4 92  1  0  0  0
  4 93  1  0  0  0
  5  6  1  0  0  0
  5 26  1  0  0  0
  5 94  1  0  0  0
  6 25  1  0  0  0
  6 95  1  0  0  0
  6 96  1  0  0  0
  7  8  2  0  0  0
  7 26  1  0  0  0
  7 29  1  0  0  0
  8  9  1  0  0  0
  8 22  1  0  0  0
  9 10  1  0  0  0
  9 27  2  0  0  0
 10 11  2  0  0  0
 10 15  1  0  0  0
 11 12  1  0  0  0
 11 97  1  0  0  0
 12 13  2  0  0  0
 12 98  1  0  0  0
 13 14  1  0  0  0
 13 31  1  0  0  0
 14 15  2  0  0  0
 14 99  1  0  0  0
 15100  1  0  0  0
 16 17  2  0  0  0
 16 21  1  0  0  0
 16 31  1  0  0  0
 17 18  1  0  0  0
 17101  1  0  0  0
 18 19  2  0  0  0
 18102  1  0  0  0
 19 20  1  0  0  0
 19 24  1  0  0  0
 20 21  2  0  0  0
 20103  1  0  0  0
 21 23  1  0  0  0
 22 28  1  0  0  0
 22 32  2  0  0  0
 26 27  1  0  0  0
 28104  1  0  0  0
 28105  1  0  0  0
 29106  1  0  0  0
 29107  1  0  0  0
 33 34  1  0  0  0
 33 66  1  0  0  0
 33 70  2  0  0  0
 34 36  1  0  0  0
 34 59  1  0  0  0
 34108  1  0  0  0
 35 44  2  0  0  0
 35 45  1  0  0  0
 35 68  1  0  0  0
 36 56  1  0  0  0
 36109  1  0  0  0
 37 39  1  0  0  0
 37 47  1  0  0  0
 37 66  1  0  0  0
 37110  1  0  0  0
 38 43  2  0  0  0
 38 46  1  0  0  0
 38 47  1  0  0  0
 39 64  1  0  0  0
 39 67  2  0  0  0
 40 52  1  0  0  0
 40 53  2  0  0  0
 40 58  1  0  0  0
 41111  1  0  0  0
 41112  1  0  0  0
 41113  1  0  0  0
 41 48  1  0  0  0
 42 43  1  0  0  0
 42 66  1  0  0  0
 42114  1  0  0  0
 42115  1  0  0  0
 43 44  1  0  0  0
 44116  1  0  0  0
 45 46  2  0  0  0
 45117  1  0  0  0
 46118  1  0  0  0
 47119  1  0  0  0
 47120  1  0  0  0
 48 56  1  0  0  0
 48 65  1  0  0  0
 48121  1  0  0  0
 49 50  1  0  0  0
 49 53  1  0  0  0
 49 64  1  0  0  0
 49122  1  0  0  0
 50 51  1  0  0  0
 50123  1  0  0  0
 50124  1  0  0  0
 51 52  1  0  0  0
 51125  1  0  0  0
 51126  1  0  0  0
 52127  1  0  0  0
 52128  1  0  0  0
 53 54  1  0  0  0
 54 55  2  0  0  0
 54129  1  0  0  0
 55 57  1  0  0  0
 55130  1  0  0  0
 56 69  2  0  0  0
 57 58  2  0  0  0
 57131  1  0  0  0
 58132  1  0  0  0
 59 60  1  0  0  0
 59 61  1  0  0  0
 59 62  1  0  0  0
 60133  1  0  0  0
 60134  1  0  0  0
 60135  1  0  0  0
 61136  1  0  0  0
 61137  1  0  0  0
 61138  1  0  0  0
 62139  1  0  0  0
 62140  1  0  0  0
 62141  1  0  0  0
 63 65  1  0  0  0
 63142  1  0  0  0
 63143  1  0  0  0
 63144  1  0  0  0
 64145  1  0  0  0
 65146  1  0  0  0
 68 84  1  0  0  0
 71 72  2  0  0  0
 71 75  1  0  0  0
 71147  1  0  0  0
 72 76  1  0  0  0
 72148  1  0  0  0
 73 74  1  0  0  0
 73 75  2  0  0  0
 73149  1  0  0  0
 74 76  2  0  0  0
 74 81  1  0  0  0
 75 85  1  0  0  0
 76 86  1  0  0  0
 77 78  2  0  0  0
 77 79  1  0  0  0
 77 84  1  0  0  0
 78 80  1  0  0  0
 78 82  1  0  0  0
 79 85  1  0  0  0
 79 87  2  0  0  0
 80 85  1  0  0  0
 80150  1  0  0  0
 80151  1  0  0  0
 81152  1  0  0  0
 81153  1  0  0  0
 81154  1  0  0  0
 82155  1  0  0  0
 82156  1  0  0  0
 82157  1  0  0  0
 83 86  1  0  0  0
 83158  1  0  0  0
 83159  1  0  0  0
 83160  1  0  0  0
 84161  1  0  0  0
 84162  1  0  0  0
M  ISO  4   1 100  68 101  84 101  86 100
M  END
> <chiral flag>
0

> <version>
0

> <s_m_source_file>
/data/baiqing/PycharmProjects/Reinvent-master-3.2/result/LINK_invent/BTK/process_docking_weight1_custom_product_contain_oxygen_bond_distance_aromatic_linkinvent_7_9_3/rearranged_h_0073.sdf

> <i_m_source_file_index>
4

> <r_mmod_Potential_Energy-OPLS-2005>
519.655090332031

> <r_mmod_Stretch_Energy-OPLS-2005>
108.452285766602

> <r_mmod_Bend_Energy-OPLS-2005>
229.356369018555

> <r_mmod_Torsional_Energy-OPLS-2005>
382.175354003906

> <r_mmod_Improper_Torsional_Energy-OPLS-2005>
35.8392639160156

> <r_mmod_Van_der_Waal_Energy-OPLS-2005>
134.566986083984

> <r_mmod_Electrostatic_Energy-OPLS-2005>
-270.869995117188

> <r_mmod_Solvation_Energy-OPLS-2005>
-198.639389038086

> <b_mmod_Minimization_Converged-OPLS-2005>
0

> <r_mmod_RMS_Derivative-OPLS-2005>
3.17398023605347

$$$$
4
                    3D
 Structure written by MMmdl.
168177  0  0  1  0            999 V2000
  -30.6997  -14.4829   20.4851 C   0  0  0  0  0  0
  -30.4166  -12.2840   19.4477 C   0  0  0  0  0  0
  -29.5034  -12.4702   18.2184 C   0  0  0  0  0  0
  -28.0192  -12.3531   18.6175 C   0  0  0  0  0  0
  -27.6569  -13.2073   19.8627 C   0  0  2  0  0  0
  -28.6980  -13.0352   20.9944 C   0  0  0  0  0  0
  -25.2562  -13.8158   20.5655 C   0  0  0  0  0  0
  -24.1822  -13.0436   20.9173 C   0  0  0  0  0  0
  -24.6375  -11.6903   20.8713 C   0  0  0  0  0  0
  -23.9048  -10.4288   21.0391 C   0  0  0  0  0  0
  -24.3603   -9.4207   21.9173 C   0  0  0  0  0  0
  -23.6288   -8.2243   22.0747 C   0  0  0  0  0  0
  -22.4272   -8.0275   21.3538 C   0  0  0  0  0  0
  -21.9895   -9.0246   20.4644 C   0  0  0  0  0  0
  -22.7217  -10.2132   20.3046 C   0  0  0  0  0  0
  -21.6857   -6.0726   22.5275 C   0  0  0  0  0  0
  -21.4021   -6.5629   23.8207 C   0  0  0  0  0  0
  -21.3659   -5.6782   24.9165 C   0  0  0  0  0  0
  -21.6042   -4.3044   24.7218 C   0  0  0  0  0  0
  -21.8822   -3.8137   23.4337 C   0  0  0  0  0  0
  -21.9196   -4.6957   22.3394 C   0  0  0  0  0  0
  -22.7844  -13.5243   21.1829 C   0  0  0  0  0  0
  -22.1660   -4.2141   21.0975 F   0  0  0  0  0  0
  -21.5628   -3.4531   25.7731 F   0  0  0  0  0  0
  -30.0324  -13.3009   20.4383 N   0  0  0  0  0  0
  -26.2993  -12.9332   20.3287 N   0  0  0  0  0  0
  -25.9305  -11.6496   20.5726 N   0  0  0  0  0  0
  -22.0466  -12.8266   22.0395 N   0  0  0  0  0  0
  -25.4264  -15.1879   20.4084 N   0  0  0  0  0  0
  -31.8816  -14.5942   20.1500 O   0  0  0  0  0  0
  -21.6633   -6.8872   21.4238 O   0  0  0  0  0  0
  -22.3535  -14.5541   20.6654 O   0  0  0  0  0  0
  -24.6106  -31.8685   23.2096 C   0  0  0  0  0  0
  -25.9014  -32.4825   23.8384 C   0  0  1  0  0  0
  -27.2462  -27.4488   20.1057 C   0  0  0  0  0  0
  -25.5873  -33.8624   24.2321 N   0  0  0  0  0  0
  -23.3976  -30.4904   21.5498 C   0  0  2  0  0  0
  -24.8449  -28.9515   20.1186 C   0  0  0  0  0  0
  -22.7384  -29.4662   22.5007 C   0  0  0  0  0  0
  -18.0274  -28.1373   22.8502 C   0  0  0  0  0  0
  -24.1487  -36.7325   23.2645 C   0  0  0  0  0  0
  -25.9209  -30.8413   21.3559 C   0  0  0  0  0  0
  -25.9994  -29.4721   20.7131 C   0  0  0  0  0  0
  -27.1956  -28.7273   20.7036 C   0  0  0  0  0  0
  -26.0722  -26.9370   19.5010 C   0  0  0  0  0  0
  -24.8758  -27.6831   19.5110 C   0  0  0  0  0  0
  -23.6060  -29.8170   20.1656 C   0  0  0  0  0  0
  -25.4107  -36.3117   24.0343 C   0  0  1  0  0  0
  -20.5859  -28.3653   23.1344 C   0  0  2  0  0  0
  -20.6750  -26.9398   22.5428 C   0  0  0  0  0  0
  -19.5725  -26.6391   21.5222 C   0  0  0  0  0  0
  -18.1907  -26.7921   22.1638 C   0  0  0  0  0  0
  -19.1517  -28.8833   23.2924 C   0  0  0  0  0  0
  -18.9444  -30.1443   23.8934 C   0  0  0  0  0  0
  -17.6440  -30.6580   24.0581 C   0  0  0  0  0  0
  -25.9028  -34.9475   23.5133 C   0  0  0  0  0  0
  -16.5335  -29.9085   23.6329 C   0  0  0  0  0  0
  -16.7263  -28.6503   23.0354 C   0  0  0  0  0  0
  -26.4458  -31.6590   25.0692 C   0  0  0  0  0  0
  -25.3742  -31.3670   26.1452 C   0  0  0  0  0  0
  -27.0279  -30.3039   24.6028 C   0  0  0  0  0  0
  -27.6036  -32.4302   25.7450 C   0  0  0  0  0  0
  -27.5586  -37.1821   24.8467 C   0  0  0  0  0  0
  -21.4115  -29.3028   22.3749 N   0  0  0  0  0  0
  -26.4299  -37.3793   23.9411 N   0  0  0  0  0  0
  -24.6616  -31.0803   22.0982 N   0  0  0  0  0  0
  -23.4168  -28.8218   23.3049 O   0  0  0  0  0  0
  -28.4660  -26.8071   20.1229 O   0  0  0  0  0  0
  -26.5605  -34.8915   22.4702 O   0  0  0  0  0  0
  -23.5304  -32.1427   23.7495 O   0  0  0  0  0  0
  -29.2387  -18.4718   21.2478 C   0  0  0  0  0  0
  -29.0526  -19.8277   21.6031 C   0  0  0  0  0  0
  -30.4769  -20.5043   19.7703 C   0  0  0  0  0  0
  -30.0266  -18.1188   20.1304 C   0  0  0  0  0  0
  -30.6767  -19.1573   19.4117 C   0  0  0  0  0  0
  -29.6444  -20.8778   20.8535 C   0  0  0  0  0  0
  -29.9277  -23.3756   20.6473 C   0  0  0  0  0  0
  -29.1711  -16.1032   17.2894 C   0  0  0  0  0  0
  -28.9715  -16.5280   18.5459 C   0  0  0  0  0  0
  -28.1794  -24.1588   22.0869 C   0  0  0  0  0  0
  -28.3032  -22.6279   22.1091 C   0  0  0  0  0  0
  -29.2406  -24.6717   21.1009 C   0  0  1  0  0  0
  -31.5760  -18.8765   18.2153 C   0  0  0  0  0  0
  -30.2835  -25.5655   21.8136 C   0  0  0  0  0  0
  -28.6167  -25.4046   19.8714 C   0  0  0  0  0  0
  -30.0574  -16.6799   19.5947 C   0  0  2  0  0  0
  -29.3550  -22.2627   21.1638 N   0  0  0  0  0  0
  -29.9107  -15.5736   20.5606 N   0  0  0  0  0  0
  -30.9276  -23.4242   19.9222 O   0  0  0  0  0  0
  -31.4647  -12.3592   19.1529 H   0  0  0  0  0  0
  -30.2994  -11.2854   19.8703 H   0  0  0  0  0  0
  -29.7439  -11.7269   17.4570 H   0  0  0  0  0  0
  -29.6907  -13.4417   17.7622 H   0  0  0  0  0  0
  -27.8180  -11.3020   18.8199 H   0  0  0  0  0  0
  -27.3817  -12.6264   17.7748 H   0  0  0  0  0  0
  -27.6811  -14.2443   19.5344 H   0  0  0  0  0  0
  -28.6631  -12.0218   21.3958 H   0  0  0  0  0  0
  -28.4763  -13.6991   21.8313 H   0  0  0  0  0  0
  -25.2753   -9.5691   22.4742 H   0  0  0  0  0  0
  -23.9996   -7.4636   22.7476 H   0  0  0  0  0  0
  -21.0819   -8.8763   19.8957 H   0  0  0  0  0  0
  -22.3669  -10.9665   19.6149 H   0  0  0  0  0  0
  -21.2014   -7.6141   23.9715 H   0  0  0  0  0  0
  -21.1479   -6.0504   25.9070 H   0  0  0  0  0  0
  -22.0603   -2.7607   23.2833 H   0  0  0  0  0  0
  -22.4078  -11.9962   22.4845 H   0  0  0  0  0  0
  -21.1074  -13.1298   22.2543 H   0  0  0  0  0  0
  -24.6553  -15.8379   20.5125 H   0  0  0  0  0  0
  -26.2720  -15.6292   20.0727 H   0  0  0  0  0  0
  -26.7088  -32.5558   23.1157 H   0  0  0  0  0  0
  -24.9985  -33.9777   25.0441 H   0  0  0  0  0  0
  -22.6864  -31.3078   21.4103 H   0  0  0  0  0  0
  -23.3723  -35.9685   23.3310 H   0  0  0  0  0  0
  -24.3582  -36.8928   22.2056 H   0  0  0  0  0  0
  -23.7256  -37.6541   23.6650 H   0  0  0  0  0  0
  -26.0210  -31.6013   20.5789 H   0  0  0  0  0  0
  -26.8143  -30.9045   21.9648 H   0  0  0  0  0  0
  -28.0896  -29.1338   21.1570 H   0  0  0  0  0  0
  -26.0566  -25.9839   18.9958 H   0  0  0  0  0  0
  -23.9895  -27.2813   19.0406 H   0  0  0  0  0  0
  -23.7104  -30.5887   19.4017 H   0  0  0  0  0  0
  -22.7313  -29.2326   19.8739 H   0  0  0  0  0  0
  -25.1282  -36.1987   25.0837 H   0  0  0  0  0  0
  -20.9978  -28.3214   24.1454 H   0  0  0  0  0  0
  -20.5654  -26.2254   23.3608 H   0  0  0  0  0  0
  -21.6622  -26.7434   22.1231 H   0  0  0  0  0  0
  -19.6869  -25.6309   21.1234 H   0  0  0  0  0  0
  -19.6662  -27.3226   20.6767 H   0  0  0  0  0  0
  -17.4185  -26.6704   21.4030 H   0  0  0  0  0  0
  -18.0294  -26.0048   22.9016 H   0  0  0  0  0  0
  -19.7914  -30.7261   24.2305 H   0  0  0  0  0  0
  -17.4992  -31.6264   24.5172 H   0  0  0  0  0  0
  -15.5334  -30.3003   23.7608 H   0  0  0  0  0  0
  -15.8669  -28.0836   22.7040 H   0  0  0  0  0  0
  -24.5923  -30.7010   25.7794 H   0  0  0  0  0  0
  -24.8918  -32.2806   26.4929 H   0  0  0  0  0  0
  -25.8113  -30.8828   27.0192 H   0  0  0  0  0  0
  -26.2800  -29.6807   24.1113 H   0  0  0  0  0  0
  -27.4093  -29.7265   25.4457 H   0  0  0  0  0  0
  -27.8608  -30.4356   23.9119 H   0  0  0  0  0  0
  -27.2673  -33.3590   26.2059 H   0  0  0  0  0  0
  -28.3828  -32.6880   25.0273 H   0  0  0  0  0  0
  -28.0725  -31.8409   26.5334 H   0  0  0  0  0  0
  -28.2619  -38.0106   24.7506 H   0  0  0  0  0  0
  -28.1063  -36.2633   24.6296 H   0  0  0  0  0  0
  -27.2304  -37.1490   25.8872 H   0  0  0  0  0  0
  -20.9250  -29.8746   21.6988 H   0  0  0  0  0  0
  -26.0178  -38.2874   24.1393 H   0  0  0  0  0  0
  -28.7247  -17.7065   21.8127 H   0  0  0  0  0  0
  -28.4120  -20.0421   22.4467 H   0  0  0  0  0  0
  -30.9554  -21.2447   19.1509 H   0  0  0  0  0  0
  -28.3496  -16.0203   16.5930 H   0  0  0  0  0  0
  -30.1559  -15.8307   16.9363 H   0  0  0  0  0  0
  -27.9707  -16.7957   18.8563 H   0  0  0  0  0  0
  -28.3318  -24.5624   23.0896 H   0  0  0  0  0  0
  -27.1755  -24.4571   21.7855 H   0  0  0  0  0  0
  -27.3591  -22.1605   21.8250 H   0  0  0  0  0  0
  -28.5699  -22.2820   23.1098 H   0  0  0  0  0  0
  -31.9970  -19.7949   17.8040 H   0  0  0  0  0  0
  -31.0228  -18.3869   17.4137 H   0  0  0  0  0  0
  -32.4149  -18.2434   18.5079 H   0  0  0  0  0  0
  -30.8310  -25.0126   22.5789 H   0  0  0  0  0  0
  -29.8103  -26.4142   22.3061 H   0  0  0  0  0  0
  -31.0151  -25.9640   21.1096 H   0  0  0  0  0  0
  -27.7116  -24.8920   19.5584 H   0  0  0  0  0  0
  -29.2912  -25.3392   19.0162 H   0  0  0  0  0  0
  -31.0079  -16.5577   19.0783 H   0  0  0  0  0  0
  -28.9775  -15.4089   20.9010 H   0  0  0  0  0  0
  1 25  1  0  0  0
  1 30  2  0  0  0
  1 88  1  0  0  0
  2  3  1  0  0  0
  2 25  1  0  0  0
  2 90  1  0  0  0
  2 91  1  0  0  0
  3  4  1  0  0  0
  3 92  1  0  0  0
  3 93  1  0  0  0
  4  5  1  0  0  0
  4 94  1  0  0  0
  4 95  1  0  0  0
  5  6  1  0  0  0
  5 26  1  0  0  0
  5 96  1  0  0  0
  6 25  1  0  0  0
  6 97  1  0  0  0
  6 98  1  0  0  0
  7  8  2  0  0  0
  7 26  1  0  0  0
  7 29  1  0  0  0
  8  9  1  0  0  0
  8 22  1  0  0  0
  9 10  1  0  0  0
  9 27  2  0  0  0
 10 11  2  0  0  0
 10 15  1  0  0  0
 11 12  1  0  0  0
 11 99  1  0  0  0
 12 13  2  0  0  0
 12100  1  0  0  0
 13 14  1  0  0  0
 13 31  1  0  0  0
 14 15  2  0  0  0
 14101  1  0  0  0
 15102  1  0  0  0
 16 17  2  0  0  0
 16 21  1  0  0  0
 16 31  1  0  0  0
 17 18  1  0  0  0
 17103  1  0  0  0
 18 19  2  0  0  0
 18104  1  0  0  0
 19 20  1  0  0  0
 19 24  1  0  0  0
 20 21  2  0  0  0
 20105  1  0  0  0
 21 23  1  0  0  0
 22 28  1  0  0  0
 22 32  2  0  0  0
 26 27  1  0  0  0
 28106  1  0  0  0
 28107  1  0  0  0
 29108  1  0  0  0
 29109  1  0  0  0
 33 34  1  0  0  0
 33 66  1  0  0  0
 33 70  2  0  0  0
 34 36  1  0  0  0
 34 59  1  0  0  0
 34110  1  0  0  0
 35 44  2  0  0  0
 35 45  1  0  0  0
 35 68  1  0  0  0
 36 56  1  0  0  0
 36111  1  0  0  0
 37 39  1  0  0  0
 37 47  1  0  0  0
 37 66  1  0  0  0
 37112  1  0  0  0
 38 43  2  0  0  0
 38 46  1  0  0  0
 38 47  1  0  0  0
 39 64  1  0  0  0
 39 67  2  0  0  0
 40 52  1  0  0  0
 40 53  2  0  0  0
 40 58  1  0  0  0
 41113  1  0  0  0
 41114  1  0  0  0
 41115  1  0  0  0
 41 48  1  0  0  0
 42 43  1  0  0  0
 42 66  1  0  0  0
 42116  1  0  0  0
 42117  1  0  0  0
 43 44  1  0  0  0
 44118  1  0  0  0
 45 46  2  0  0  0
 45119  1  0  0  0
 46120  1  0  0  0
 47121  1  0  0  0
 47122  1  0  0  0
 48 56  1  0  0  0
 48 65  1  0  0  0
 48123  1  0  0  0
 49 50  1  0  0  0
 49 53  1  0  0  0
 49 64  1  0  0  0
 49124  1  0  0  0
 50 51  1  0  0  0
 50125  1  0  0  0
 50126  1  0  0  0
 51 52  1  0  0  0
 51127  1  0  0  0
 51128  1  0  0  0
 52129  1  0  0  0
 52130  1  0  0  0
 53 54  1  0  0  0
 54 55  2  0  0  0
 54131  1  0  0  0
 55 57  1  0  0  0
 55132  1  0  0  0
 56 69  2  0  0  0
 57 58  2  0  0  0
 57133  1  0  0  0
 58134  1  0  0  0
 59 60  1  0  0  0
 59 61  1  0  0  0
 59 62  1  0  0  0
 60135  1  0  0  0
 60136  1  0  0  0
 60137  1  0  0  0
 61138  1  0  0  0
 61139  1  0  0  0
 61140  1  0  0  0
 62141  1  0  0  0
 62142  1  0  0  0
 62143  1  0  0  0
 63 65  1  0  0  0
 63144  1  0  0  0
 63145  1  0  0  0
 63146  1  0  0  0
 64147  1  0  0  0
 65148  1  0  0  0
 68 85  1  0  0  0
 71 72  2  0  0  0
 71 74  1  0  0  0
 71149  1  0  0  0
 72 76  1  0  0  0
 72150  1  0  0  0
 73 75  1  0  0  0
 73 76  2  0  0  0
 73151  1  0  0  0
 74 75  2  0  0  0
 74 86  1  0  0  0
 75 83  1  0  0  0
 76 87  1  0  0  0
 77 82  1  0  0  0
 77 87  1  0  0  0
 77 89  2  0  0  0
 78 79  2  0  0  0
 78152  1  0  0  0
 78153  1  0  0  0
 79 86  1  0  0  0
 79154  1  0  0  0
 80 81  1  0  0  0
 80 82  1  0  0  0
 80155  1  0  0  0
 80156  1  0  0  0
 81 87  1  0  0  0
 81157  1  0  0  0
 81158  1  0  0  0
 82 84  1  0  0  0
 82 85  1  0  0  0
 83159  1  0  0  0
 83160  1  0  0  0
 83161  1  0  0  0
 84162  1  0  0  0
 84163  1  0  0  0
 84164  1  0  0  0
 85165  1  0  0  0
 85166  1  0  0  0
 86 88  1  0  0  0
 86167  1  0  0  0
 88168  1  0  0  0
M  ISO  4   1 100  68 101  85 101  88 100
M  END
> <chiral flag>
0

> <version>
0

> <s_m_source_file>
/data/baiqing/PycharmProjects/Reinvent-master-3.2/result/LINK_invent/BTK/process_docking_weight1_custom_product_contain_oxygen_bond_distance_aromatic_linkinvent_7_9_3/rearranged_h_0073.sdf

> <i_m_source_file_index>
5

> <r_mmod_Potential_Energy-OPLS-2005>
69.5020370483398

> <r_mmod_Stretch_Energy-OPLS-2005>
41.1469535827637

> <r_mmod_Bend_Energy-OPLS-2005>
135.988235473633

> <r_mmod_Torsional_Energy-OPLS-2005>
298.297973632812

> <r_mmod_Improper_Torsional_Energy-OPLS-2005>
13.1348390579224

> <r_mmod_Van_der_Waal_Energy-OPLS-2005>
162.65446472168

> <r_mmod_Electrostatic_Energy-OPLS-2005>
-384.951904296875

> <r_mmod_Solvation_Energy-OPLS-2005>
-215.560562133789

> <b_mmod_Minimization_Converged-OPLS-2005>
0

> <r_mmod_RMS_Derivative-OPLS-2005>
1.93489551544189

$$$$
5
                    3D
 Structure written by MMmdl.
151159  0  0  1  0            999 V2000
  -30.6347  -14.7472   20.4426 C   0  0  0  0  0  0
  -30.4248  -12.4533   19.4779 C   0  0  0  0  0  0
  -29.5108  -12.5079   18.2349 C   0  0  0  0  0  0
  -28.0353  -12.3349   18.6463 C   0  0  0  0  0  0
  -27.6401  -13.2383   19.8456 C   0  0  2  0  0  0
  -28.6839  -13.1925   20.9825 C   0  0  0  0  0  0
  -25.2505  -13.8217   20.5683 C   0  0  0  0  0  0
  -24.1808  -13.0455   20.9205 C   0  0  0  0  0  0
  -24.6411  -11.6938   20.8747 C   0  0  0  0  0  0
  -23.9095  -10.4308   21.0402 C   0  0  0  0  0  0
  -24.3643   -9.4222   21.9173 C   0  0  0  0  0  0
  -23.6321   -8.2253   22.0748 C   0  0  0  0  0  0
  -22.4301   -8.0290   21.3542 C   0  0  0  0  0  0
  -21.9932   -9.0264   20.4645 C   0  0  0  0  0  0
  -22.7268  -10.2140   20.3049 C   0  0  0  0  0  0
  -21.6861   -6.0750   22.5284 C   0  0  0  0  0  0
  -21.4027   -6.5648   23.8218 C   0  0  0  0  0  0
  -21.3648   -5.6795   24.9170 C   0  0  0  0  0  0
  -21.6037   -4.3059   24.7215 C   0  0  0  0  0  0
  -21.8823   -3.8157   23.4336 C   0  0  0  0  0  0
  -21.9196   -4.6978   22.3402 C   0  0  0  0  0  0
  -22.7823  -13.5221   21.1858 C   0  0  0  0  0  0
  -22.1665   -4.2168   21.0977 F   0  0  0  0  0  0
  -21.5616   -3.4537   25.7721 F   0  0  0  0  0  0
  -29.9855  -13.5318   20.3964 N   0  0  0  0  0  0
  -26.2935  -12.9435   20.3259 N   0  0  0  0  0  0
  -25.9340  -11.6572   20.5740 N   0  0  0  0  0  0
  -22.0472  -12.8213   22.0421 N   0  0  0  0  0  0
  -25.4189  -15.1936   20.4095 N   0  0  0  0  0  0
  -31.8287  -14.7782   20.1427 O   0  0  0  0  0  0
  -21.6656   -6.8893   21.4247 O   0  0  0  0  0  0
  -22.3505  -14.5525   20.6701 O   0  0  0  0  0  0
  -24.6301  -31.8528   23.1964 C   0  0  0  0  0  0
  -25.9124  -32.4741   23.8309 C   0  0  1  0  0  0
  -27.2267  -27.2613   20.1244 C   0  0  0  0  0  0
  -25.5914  -33.8538   24.2238 N   0  0  0  0  0  0
  -23.4273  -30.4722   21.5410 C   0  0  2  0  0  0
  -24.8738  -28.9159   20.1093 C   0  0  0  0  0  0
  -22.7505  -29.4571   22.4936 C   0  0  0  0  0  0
  -18.0278  -28.1381   22.8478 C   0  0  0  0  0  0
  -24.1487  -36.7286   23.2640 C   0  0  0  0  0  0
  -25.9709  -30.7641   21.3770 C   0  0  0  0  0  0
  -26.0428  -29.3863   20.7190 C   0  0  0  0  0  0
  -27.2159  -28.5690   20.7182 C   0  0  0  0  0  0
  -26.0306  -26.8509   19.4945 C   0  0  0  0  0  0
  -24.8725  -27.6562   19.4894 C   0  0  0  0  0  0
  -23.6435  -29.8012   20.1575 C   0  0  0  0  0  0
  -25.4112  -36.3069   24.0330 C   0  0  1  0  0  0
  -20.5884  -28.3684   23.1281 C   0  0  2  0  0  0
  -20.6775  -26.9405   22.5417 C   0  0  0  0  0  0
  -19.5749  -26.6374   21.5223 C   0  0  0  0  0  0
  -18.1927  -26.7921   22.1633 C   0  0  0  0  0  0
  -19.1529  -28.8856   23.2870 C   0  0  0  0  0  0
  -18.9460  -30.1467   23.8875 C   0  0  0  0  0  0
  -17.6454  -30.6585   24.0553 C   0  0  0  0  0  0
  -25.9045  -34.9432   23.5094 C   0  0  0  0  0  0
  -16.5344  -29.9076   23.6338 C   0  0  0  0  0  0
  -16.7267  -28.6498   23.0348 C   0  0  0  0  0  0
  -26.4487  -31.6577   25.0717 C   0  0  0  0  0  0
  -25.3705  -31.3741   26.1443 C   0  0  0  0  0  0
  -27.0349  -30.2987   24.6237 C   0  0  0  0  0  0
  -27.6037  -32.4326   25.7491 C   0  0  0  0  0  0
  -27.5586  -37.1786   24.8450 C   0  0  0  0  0  0
  -21.4208  -29.3026   22.3680 N   0  0  0  0  0  0
  -26.4278  -37.3771   23.9420 N   0  0  0  0  0  0
  -24.6953  -31.0483   22.0944 N   0  0  0  0  0  0
  -23.4208  -28.8120   23.3041 O   0  0  0  0  0  0
  -28.3505  -26.4083   20.2138 O   0  0  0  0  0  0
  -26.5635  -34.8911   22.4677 O   0  0  0  0  0  0
  -23.5454  -32.1348   23.7276 O   0  0  0  0  0  0
  -31.5724  -17.7565   20.1403 C   0  0  0  0  0  0
  -31.9389  -19.1071   19.9752 C   0  0  0  0  0  0
  -29.3080  -18.4775   20.5973 C   0  0  0  0  0  0
  -29.6624  -19.8876   20.4347 C   0  0  0  0  0  0
  -30.2467  -17.3659   20.4553 C   0  0  0  0  0  0
  -31.0113  -20.1556   20.1187 C   0  0  0  0  0  0
  -28.3627  -23.7343   20.4906 C   0  0  0  0  0  0
  -28.6598  -21.1107   20.6716 C   0  0  0  0  0  0
  -28.4594  -25.0497   19.5755 C   0  0  0  0  0  0
  -29.8924  -15.9176   20.6209 N   0  0  0  0  0  0
  -28.8601  -22.5069   20.0692 N   0  0  0  0  0  0
  -27.7885  -23.8218   21.5785 O   0  0  0  0  0  0
  -31.4436  -21.4297   19.9643 F   0  0  0  0  0  0
  -31.4696  -12.5536   19.1793 H   0  0  0  0  0  0
  -30.3494  -11.4815   19.9678 H   0  0  0  0  0  0
  -29.7974  -11.7331   17.5223 H   0  0  0  0  0  0
  -29.6394  -13.4615   17.7197 H   0  0  0  0  0  0
  -27.8910  -11.2864   18.9107 H   0  0  0  0  0  0
  -27.3798  -12.5246   17.7957 H   0  0  0  0  0  0
  -27.6279  -14.2575   19.4581 H   0  0  0  0  0  0
  -28.7169  -12.2050   21.4452 H   0  0  0  0  0  0
  -28.4203  -13.8928   21.7745 H   0  0  0  0  0  0
  -25.2780   -9.5700   22.4747 H   0  0  0  0  0  0
  -24.0031   -7.4641   22.7465 H   0  0  0  0  0  0
  -21.0855   -8.8805   19.8954 H   0  0  0  0  0  0
  -22.3737  -10.9685   19.6160 H   0  0  0  0  0  0
  -21.2047   -7.6159   23.9733 H   0  0  0  0  0  0
  -21.1451   -6.0517   25.9076 H   0  0  0  0  0  0
  -22.0614   -2.7626   23.2828 H   0  0  0  0  0  0
  -22.4095  -11.9893   22.4834 H   0  0  0  0  0  0
  -21.1079  -13.1231   22.2598 H   0  0  0  0  0  0
  -24.6517  -15.8474   20.5200 H   0  0  0  0  0  0
  -26.2600  -15.6329   20.0595 H   0  0  0  0  0  0
  -26.7190  -32.5381   23.1053 H   0  0  0  0  0  0
  -25.0038  -33.9660   25.0369 H   0  0  0  0  0  0
  -22.7226  -31.2933   21.3937 H   0  0  0  0  0  0
  -23.3755  -35.9611   23.3263 H   0  0  0  0  0  0
  -24.3587  -36.8951   22.2061 H   0  0  0  0  0  0
  -23.7226  -37.6470   23.6689 H   0  0  0  0  0  0
  -26.1101  -31.5246   20.6066 H   0  0  0  0  0  0
  -26.8482  -30.8111   22.0118 H   0  0  0  0  0  0
  -28.1096  -28.9229   21.2120 H   0  0  0  0  0  0
  -25.9439  -25.8814   19.0311 H   0  0  0  0  0  0
  -23.9739  -27.2847   19.0162 H   0  0  0  0  0  0
  -23.7646  -30.5733   19.3969 H   0  0  0  0  0  0
  -22.7632  -29.2304   19.8598 H   0  0  0  0  0  0
  -25.1288  -36.1904   25.0822 H   0  0  0  0  0  0
  -20.9959  -28.3249   24.1413 H   0  0  0  0  0  0
  -20.5685  -26.2285   23.3615 H   0  0  0  0  0  0
  -21.6641  -26.7444   22.1199 H   0  0  0  0  0  0
  -19.6906  -25.6284   21.1252 H   0  0  0  0  0  0
  -19.6683  -27.3186   20.6754 H   0  0  0  0  0  0
  -17.4202  -26.6660   21.4035 H   0  0  0  0  0  0
  -18.0324  -26.0067   22.9036 H   0  0  0  0  0  0
  -19.7934  -30.7294   24.2218 H   0  0  0  0  0  0
  -17.5006  -31.6259   24.5172 H   0  0  0  0  0  0
  -15.5343  -30.2970   23.7682 H   0  0  0  0  0  0
  -15.8667  -28.0825   22.7063 H   0  0  0  0  0  0
  -24.5859  -30.7123   25.7768 H   0  0  0  0  0  0
  -24.8933  -32.2927   26.4871 H   0  0  0  0  0  0
  -25.8013  -30.8899   27.0224 H   0  0  0  0  0  0
  -26.2957  -29.6717   24.1250 H   0  0  0  0  0  0
  -27.3993  -29.7273   25.4786 H   0  0  0  0  0  0
  -27.8843  -30.4244   23.9522 H   0  0  0  0  0  0
  -27.2631  -33.3624   26.2067 H   0  0  0  0  0  0
  -28.3850  -32.6893   25.0323 H   0  0  0  0  0  0
  -28.0710  -31.8456   26.5413 H   0  0  0  0  0  0
  -28.2558  -38.0123   24.7565 H   0  0  0  0  0  0
  -28.1121  -36.2664   24.6184 H   0  0  0  0  0  0
  -27.2316  -37.1329   25.8848 H   0  0  0  0  0  0
  -20.9400  -29.8741   21.6876 H   0  0  0  0  0  0
  -26.0151  -38.2840   24.1449 H   0  0  0  0  0  0
  -32.3654  -17.0375   20.0169 H   0  0  0  0  0  0
  -32.9677  -19.3468   19.7446 H   0  0  0  0  0  0
  -28.2816  -18.2483   20.8481 H   0  0  0  0  0  0
  -28.5953  -21.2330   21.7535 H   0  0  0  0  0  0
  -27.6723  -20.7708   20.3607 H   0  0  0  0  0  0
  -27.7833  -24.9385   18.7310 H   0  0  0  0  0  0
  -29.4511  -25.0241   19.1231 H   0  0  0  0  0  0
  -28.9233  -15.7397   20.8370 H   0  0  0  0  0  0
  -29.3616  -22.5221   19.1913 H   0  0  0  0  0  0
  1 25  1  0  0  0
  1 30  2  0  0  0
  1 80  1  0  0  0
  2  3  1  0  0  0
  2 25  1  0  0  0
  2 84  1  0  0  0
  2 85  1  0  0  0
  3  4  1  0  0  0
  3 86  1  0  0  0
  3 87  1  0  0  0
  4  5  1  0  0  0
  4 88  1  0  0  0
  4 89  1  0  0  0
  5  6  1  0  0  0
  5 26  1  0  0  0
  5 90  1  0  0  0
  6 25  1  0  0  0
  6 91  1  0  0  0
  6 92  1  0  0  0
  7  8  2  0  0  0
  7 26  1  0  0  0
  7 29  1  0  0  0
  8  9  1  0  0  0
  8 22  1  0  0  0
  9 10  1  0  0  0
  9 27  2  0  0  0
 10 11  2  0  0  0
 10 15  1  0  0  0
 11 12  1  0  0  0
 11 93  1  0  0  0
 12 13  2  0  0  0
 12 94  1  0  0  0
 13 14  1  0  0  0
 13 31  1  0  0  0
 14 15  2  0  0  0
 14 95  1  0  0  0
 15 96  1  0  0  0
 16 17  2  0  0  0
 16 21  1  0  0  0
 16 31  1  0  0  0
 17 18  1  0  0  0
 17 97  1  0  0  0
 18 19  2  0  0  0
 18 98  1  0  0  0
 19 20  1  0  0  0
 19 24  1  0  0  0
 20 21  2  0  0  0
 20 99  1  0  0  0
 21 23  1  0  0  0
 22 28  1  0  0  0
 22 32  2  0  0  0
 26 27  1  0  0  0
 28100  1  0  0  0
 28101  1  0  0  0
 29102  1  0  0  0
 29103  1  0  0  0
 33 34  1  0  0  0
 33 66  1  0  0  0
 33 70  2  0  0  0
 34 36  1  0  0  0
 34 59  1  0  0  0
 34104  1  0  0  0
 35 44  2  0  0  0
 35 45  1  0  0  0
 35 68  1  0  0  0
 36 56  1  0  0  0
 36105  1  0  0  0
 37 39  1  0  0  0
 37 47  1  0  0  0
 37 66  1  0  0  0
 37106  1  0  0  0
 38 43  2  0  0  0
 38 46  1  0  0  0
 38 47  1  0  0  0
 39 64  1  0  0  0
 39 67  2  0  0  0
 40 52  1  0  0  0
 40 53  2  0  0  0
 40 58  1  0  0  0
 41107  1  0  0  0
 41108  1  0  0  0
 41109  1  0  0  0
 41 48  1  0  0  0
 42 43  1  0  0  0
 42 66  1  0  0  0
 42110  1  0  0  0
 42111  1  0  0  0
 43 44  1  0  0  0
 44112  1  0  0  0
 45 46  2  0  0  0
 45113  1  0  0  0
 46114  1  0  0  0
 47115  1  0  0  0
 47116  1  0  0  0
 48 56  1  0  0  0
 48 65  1  0  0  0
 48117  1  0  0  0
 49 50  1  0  0  0
 49 53  1  0  0  0
 49 64  1  0  0  0
 49118  1  0  0  0
 50 51  1  0  0  0
 50119  1  0  0  0
 50120  1  0  0  0
 51 52  1  0  0  0
 51121  1  0  0  0
 51122  1  0  0  0
 52123  1  0  0  0
 52124  1  0  0  0
 53 54  1  0  0  0
 54 55  2  0  0  0
 54125  1  0  0  0
 55 57  1  0  0  0
 55126  1  0  0  0
 56 69  2  0  0  0
 57 58  2  0  0  0
 57127  1  0  0  0
 58128  1  0  0  0
 59 60  1  0  0  0
 59 61  1  0  0  0
 59 62  1  0  0  0
 60129  1  0  0  0
 60130  1  0  0  0
 60131  1  0  0  0
 61132  1  0  0  0
 61133  1  0  0  0
 61134  1  0  0  0
 62135  1  0  0  0
 62136  1  0  0  0
 62137  1  0  0  0
 63 65  1  0  0  0
 63138  1  0  0  0
 63139  1  0  0  0
 63140  1  0  0  0
 64141  1  0  0  0
 65142  1  0  0  0
 68 79  1  0  0  0
 71 72  2  0  0  0
 71 75  1  0  0  0
 71143  1  0  0  0
 72 76  1  0  0  0
 72144  1  0  0  0
 73 74  1  0  0  0
 73 75  2  0  0  0
 73145  1  0  0  0
 74 76  2  0  0  0
 74 78  1  0  0  0
 75 80  1  0  0  0
 76 83  1  0  0  0
 77 79  1  0  0  0
 77 81  1  0  0  0
 77 82  2  0  0  0
 78 81  1  0  0  0
 78146  1  0  0  0
 78147  1  0  0  0
 79148  1  0  0  0
 79149  1  0  0  0
 80150  1  0  0  0
 81151  1  0  0  0
M  ISO  4   1 100  68 101  79 101  80 100
M  END
> <chiral flag>
0

> <version>
0

> <s_m_source_file>
/data/baiqing/PycharmProjects/Reinvent-master-3.2/result/LINK_invent/BTK/process_docking_weight1_custom_product_contain_oxygen_bond_distance_aromatic_linkinvent_7_9_3/rearranged_h_0073.sdf

> <i_m_source_file_index>
6

> <r_mmod_Potential_Energy-OPLS-2005>
94.8561630249023

> <r_mmod_Stretch_Energy-OPLS-2005>
129.114517211914

> <r_mmod_Bend_Energy-OPLS-2005>
174.038467407227

> <r_mmod_Torsional_Energy-OPLS-2005>
203.060409545898

> <r_mmod_Improper_Torsional_Energy-OPLS-2005>
5.01637649536133

> <r_mmod_Van_der_Waal_Energy-OPLS-2005>
142.786148071289

> <r_mmod_Electrostatic_Energy-OPLS-2005>
-402.129547119141

> <r_mmod_Solvation_Energy-OPLS-2005>
-241.592239379883

> <b_mmod_Minimization_Converged-OPLS-2005>
0

> <r_mmod_RMS_Derivative-OPLS-2005>
2.09344601631165

$$$$
6
                    3D
 Structure written by MMmdl.
157166  0  0  1  0            999 V2000
  -30.4058  -15.3419   20.3679 C   0  0  0  0  0  0
  -30.4357  -12.8565   19.5460 C   0  0  0  0  0  0
  -29.5424  -12.6098   18.3004 C   0  0  0  0  0  0
  -28.0942  -12.3082   18.7227 C   0  0  0  0  0  0
  -27.6079  -13.2828   19.8221 C   0  0  2  0  0  0
  -28.6313  -13.4888   20.9557 C   0  0  0  0  0  0
  -25.2410  -13.8286   20.5773 C   0  0  0  0  0  0
  -24.1737  -13.0462   20.9223 C   0  0  0  0  0  0
  -24.6387  -11.6953   20.8731 C   0  0  0  0  0  0
  -23.9079  -10.4319   21.0406 C   0  0  0  0  0  0
  -24.3627   -9.4242   21.9201 C   0  0  0  0  0  0
  -23.6313   -8.2273   22.0764 C   0  0  0  0  0  0
  -22.4302   -8.0295   21.3551 C   0  0  0  0  0  0
  -21.9934   -9.0255   20.4650 C   0  0  0  0  0  0
  -22.7248  -10.2146   20.3063 C   0  0  0  0  0  0
  -21.6864   -6.0743   22.5274 C   0  0  0  0  0  0
  -21.4025   -6.5653   23.8197 C   0  0  0  0  0  0
  -21.3665   -5.6807   24.9167 C   0  0  0  0  0  0
  -21.6033   -4.3063   24.7221 C   0  0  0  0  0  0
  -21.8824   -3.8149   23.4347 C   0  0  0  0  0  0
  -21.9206   -4.6967   22.3406 C   0  0  0  0  0  0
  -22.7762  -13.5199   21.1901 C   0  0  0  0  0  0
  -22.1685   -4.2151   21.0988 F   0  0  0  0  0  0
  -21.5628   -3.4556   25.7744 F   0  0  0  0  0  0
  -29.8626  -14.0131   20.3392 N   0  0  0  0  0  0
  -26.2803  -12.9534   20.3208 N   0  0  0  0  0  0
  -25.9321  -11.6632   20.5690 N   0  0  0  0  0  0
  -22.0443  -12.8132   22.0429 N   0  0  0  0  0  0
  -25.4158  -15.2021   20.4381 N   0  0  0  0  0  0
  -31.6339  -15.3213   20.1835 O   0  0  0  0  0  0
  -21.6676   -6.8885   21.4240 O   0  0  0  0  0  0
  -22.3437  -14.5523   20.6811 O   0  0  0  0  0  0
  -24.6671  -31.8186   23.1662 C   0  0  0  0  0  0
  -25.9340  -32.4558   23.8118 C   0  0  1  0  0  0
  -27.2211  -26.8757   20.2053 C   0  0  0  0  0  0
  -25.5999  -33.8374   24.2042 N   0  0  0  0  0  0
  -23.4828  -30.4279   21.5169 C   0  0  2  0  0  0
  -24.9382  -28.8006   20.1182 C   0  0  0  0  0  0
  -22.7671  -29.4414   22.4767 C   0  0  0  0  0  0
  -18.0315  -28.1406   22.8449 C   0  0  0  0  0  0
  -24.1504  -36.7203   23.2643 C   0  0  0  0  0  0
  -26.0541  -30.6094   21.4053 C   0  0  0  0  0  0
  -26.1223  -29.1910   20.7560 C   0  0  0  0  0  0
  -27.2561  -28.2513   20.7732 C   0  0  0  0  0  0
  -26.0089  -26.6526   19.5122 C   0  0  0  0  0  0
  -24.9091  -27.5525   19.4750 C   0  0  0  0  0  0
  -23.7273  -29.7379   20.1454 C   0  0  0  0  0  0
  -25.4145  -36.2957   24.0293 C   0  0  1  0  0  0
  -20.5937  -28.3763   23.1177 C   0  0  2  0  0  0
  -20.6783  -26.9440   22.5403 C   0  0  0  0  0  0
  -19.5770  -26.6371   21.5197 C   0  0  0  0  0  0
  -18.1951  -26.7938   22.1602 C   0  0  0  0  0  0
  -19.1576  -28.8903   23.2799 C   0  0  0  0  0  0
  -18.9488  -30.1485   23.8841 C   0  0  0  0  0  0
  -17.6481  -30.6591   24.0552 C   0  0  0  0  0  0
  -25.9109  -34.9338   23.4991 C   0  0  0  0  0  0
  -16.5371  -29.9081   23.6341 C   0  0  0  0  0  0
  -16.7295  -28.6501   23.0355 C   0  0  0  0  0  0
  -26.4580  -31.6509   25.0650 C   0  0  0  0  0  0
  -25.3702  -31.3753   26.1301 C   0  0  0  0  0  0
  -27.0471  -30.2854   24.6426 C   0  0  0  0  0  0
  -27.6056  -32.4325   25.7473 C   0  0  0  0  0  0
  -27.5585  -37.1763   24.8461 C   0  0  0  0  0  0
  -21.4334  -29.3047   22.3516 N   0  0  0  0  0  0
  -26.4291  -37.3703   23.9408 N   0  0  0  0  0  0
  -24.7566  -30.9804   22.0829 N   0  0  0  0  0  0
  -23.4199  -28.7996   23.3031 O   0  0  0  0  0  0
  -28.2321  -25.7587   20.2258 O   0  0  0  0  0  0
  -26.5719  -34.8886   22.4582 O   0  0  0  0  0  0
  -23.5738  -32.1180   23.6740 O   0  0  0  0  0  0
  -30.3886  -21.0933   16.5294 C   0  0  0  0  0  0
  -29.5716  -21.0816   17.6815 C   0  0  0  0  0  0
  -31.5869  -20.3436   16.4937 C   0  0  0  0  0  0
  -31.1578  -19.5713   18.7462 C   0  0  0  0  0  0
  -29.9898  -20.3298   18.8014 C   0  0  0  0  0  0
  -31.9772  -19.5656   17.6035 C   0  0  0  0  0  0
  -28.0377  -24.2251   20.4037 C   0  0  0  0  0  0
  -28.8954  -23.0142   20.2500 C   0  0  0  0  0  0
  -29.4891  -16.9142   20.4168 C   0  0  0  0  0  0
  -28.6781  -21.4088   20.6188 C   0  0  0  0  0  0
  -31.3621  -18.7566   19.9911 C   0  0  0  0  0  0
  -29.9382  -18.6653   20.5963 C   0  0  1  0  0  0
  -30.3058  -23.3441   19.7870 C   0  0  0  0  0  0
  -28.2315  -16.7833   20.3326 N   0  0  0  0  0  0
  -29.3310  -20.1726   20.0448 N   0  0  0  0  0  0
  -27.9054  -21.1729   21.5513 O   0  0  0  0  0  0
  -33.1088  -18.8230   17.5637 F   0  0  0  0  0  0
  -31.4598  -13.0557   19.2252 H   0  0  0  0  0  0
  -30.4950  -11.9564   20.1613 H   0  0  0  0  0  0
  -29.9394  -11.7928   17.6974 H   0  0  0  0  0  0
  -29.5583  -13.4968   17.6635 H   0  0  0  0  0  0
  -28.0623  -11.2862   19.1009 H   0  0  0  0  0  0
  -27.4273  -12.3403   17.8602 H   0  0  0  0  0  0
  -27.5137  -14.2421   19.3122 H   0  0  0  0  0  0
  -28.8088  -12.5698   21.5157 H   0  0  0  0  0  0
  -28.2530  -14.2169   21.6748 H   0  0  0  0  0  0
  -25.2787   -9.5745   22.4758 H   0  0  0  0  0  0
  -24.0041   -7.4682   22.7486 H   0  0  0  0  0  0
  -21.0882   -8.8750   19.8960 H   0  0  0  0  0  0
  -22.3699  -10.9670   19.6158 H   0  0  0  0  0  0
  -21.2012   -7.6155   23.9689 H   0  0  0  0  0  0
  -21.1488   -6.0559   25.9075 H   0  0  0  0  0  0
  -22.0597   -2.7610   23.2851 H   0  0  0  0  0  0
  -22.4120  -11.9789   22.4759 H   0  0  0  0  0  0
  -21.1076  -13.1149   22.2714 H   0  0  0  0  0  0
  -24.6770  -15.8749   20.6119 H   0  0  0  0  0  0
  -26.3182  -15.6399   20.2570 H   0  0  0  0  0  0
  -26.7407  -32.5094   23.0828 H   0  0  0  0  0  0
  -25.0108  -33.9426   25.0171 H   0  0  0  0  0  0
  -22.7983  -31.2613   21.3405 H   0  0  0  0  0  0
  -23.3786  -35.9509   23.3249 H   0  0  0  0  0  0
  -24.3586  -36.8913   22.2071 H   0  0  0  0  0  0
  -23.7239  -37.6361   23.6738 H   0  0  0  0  0  0
  -26.2340  -31.3483   20.6242 H   0  0  0  0  0  0
  -26.9138  -30.6712   22.0598 H   0  0  0  0  0  0
  -28.1552  -28.5544   21.2918 H   0  0  0  0  0  0
  -25.8863  -25.7024   19.0122 H   0  0  0  0  0  0
  -24.0128  -27.2481   18.9529 H   0  0  0  0  0  0
  -23.8939  -30.5059   19.3881 H   0  0  0  0  0  0
  -22.8328  -29.2019   19.8225 H   0  0  0  0  0  0
  -25.1349  -36.1740   25.0783 H   0  0  0  0  0  0
  -21.0017  -28.3379   24.1299 H   0  0  0  0  0  0
  -20.5650  -26.2376   23.3640 H   0  0  0  0  0  0
  -21.6646  -26.7403   22.1223 H   0  0  0  0  0  0
  -19.6936  -25.6261   21.1269 H   0  0  0  0  0  0
  -19.6718  -27.3137   20.6689 H   0  0  0  0  0  0
  -17.4215  -26.6668   21.4013 H   0  0  0  0  0  0
  -18.0366  -26.0096   22.9017 H   0  0  0  0  0  0
  -19.7960  -30.7315   24.2196 H   0  0  0  0  0  0
  -17.5029  -31.6265   24.5164 H   0  0  0  0  0  0
  -15.5367  -30.2968   23.7689 H   0  0  0  0  0  0
  -15.8692  -28.0804   22.7103 H   0  0  0  0  0  0
  -24.5895  -30.7097   25.7604 H   0  0  0  0  0  0
  -24.8873  -32.2946   26.4616 H   0  0  0  0  0  0
  -25.7932  -30.8980   27.0150 H   0  0  0  0  0  0
  -26.3125  -29.6515   24.1446 H   0  0  0  0  0  0
  -27.3982  -29.7237   25.5095 H   0  0  0  0  0  0
  -27.9090  -30.3987   23.9846 H   0  0  0  0  0  0
  -27.2599  -33.3666   26.1920 H   0  0  0  0  0  0
  -28.3943  -32.6838   25.0365 H   0  0  0  0  0  0
  -28.0643  -31.8534   26.5502 H   0  0  0  0  0  0
  -28.2558  -38.0106   24.7543 H   0  0  0  0  0  0
  -28.1130  -36.2629   24.6249 H   0  0  0  0  0  0
  -27.2298  -37.1361   25.8861 H   0  0  0  0  0  0
  -20.9576  -29.8751   21.6659 H   0  0  0  0  0  0
  -26.0136  -38.2756   24.1415 H   0  0  0  0  0  0
  -30.0924  -21.6714   15.6648 H   0  0  0  0  0  0
  -28.6495  -21.6467   17.6952 H   0  0  0  0  0  0
  -32.2014  -20.3523   15.6063 H   0  0  0  0  0  0
  -27.0292  -24.0592   20.7571 H   0  0  0  0  0  0
  -32.0325  -19.3042   20.6551 H   0  0  0  0  0  0
  -31.8380  -17.8072   19.7597 H   0  0  0  0  0  0
  -30.0353  -18.7969   21.6744 H   0  0  0  0  0  0
  -30.6456  -24.2724   20.2481 H   0  0  0  0  0  0
  -30.3353  -23.4762   18.7060 H   0  0  0  0  0  0
  -31.0232  -22.5723   20.0690 H   0  0  0  0  0  0
  -27.7715  -17.6846   20.3853 H   0  0  0  0  0  0
  1 25  1  0  0  0
  1 30  2  0  0  0
  1 79  1  0  0  0
  2  3  1  0  0  0
  2 25  1  0  0  0
  2 88  1  0  0  0
  2 89  1  0  0  0
  3  4  1  0  0  0
  3 90  1  0  0  0
  3 91  1  0  0  0
  4  5  1  0  0  0
  4 92  1  0  0  0
  4 93  1  0  0  0
  5  6  1  0  0  0
  5 26  1  0  0  0
  5 94  1  0  0  0
  6 25  1  0  0  0
  6 95  1  0  0  0
  6 96  1  0  0  0
  7  8  2  0  0  0
  7 26  1  0  0  0
  7 29  1  0  0  0
  8  9  1  0  0  0
  8 22  1  0  0  0
  9 10  1  0  0  0
  9 27  2  0  0  0
 10 11  2  0  0  0
 10 15  1  0  0  0
 11 12  1  0  0  0
 11 97  1  0  0  0
 12 13  2  0  0  0
 12 98  1  0  0  0
 13 14  1  0  0  0
 13 31  1  0  0  0
 14 15  2  0  0  0
 14 99  1  0  0  0
 15100  1  0  0  0
 16 17  2  0  0  0
 16 21  1  0  0  0
 16 31  1  0  0  0
 17 18  1  0  0  0
 17101  1  0  0  0
 18 19  2  0  0  0
 18102  1  0  0  0
 19 20  1  0  0  0
 19 24  1  0  0  0
 20 21  2  0  0  0
 20103  1  0  0  0
 21 23  1  0  0  0
 22 28  1  0  0  0
 22 32  2  0  0  0
 26 27  1  0  0  0
 28104  1  0  0  0
 28105  1  0  0  0
 29106  1  0  0  0
 29107  1  0  0  0
 33 34  1  0  0  0
 33 66  1  0  0  0
 33 70  2  0  0  0
 34 36  1  0  0  0
 34 59  1  0  0  0
 34108  1  0  0  0
 35 44  2  0  0  0
 35 45  1  0  0  0
 35 68  1  0  0  0
 36 56  1  0  0  0
 36109  1  0  0  0
 37 39  1  0  0  0
 37 47  1  0  0  0
 37 66  1  0  0  0
 37110  1  0  0  0
 38 43  2  0  0  0
 38 46  1  0  0  0
 38 47  1  0  0  0
 39 64  1  0  0  0
 39 67  2  0  0  0
 40 52  1  0  0  0
 40 53  2  0  0  0
 40 58  1  0  0  0
 41111  1  0  0  0
 41112  1  0  0  0
 41113  1  0  0  0
 41 48  1  0  0  0
 42 43  1  0  0  0
 42 66  1  0  0  0
 42114  1  0  0  0
 42115  1  0  0  0
 43 44  1  0  0  0
 44116  1  0  0  0
 45 46  2  0  0  0
 45117  1  0  0  0
 46118  1  0  0  0
 47119  1  0  0  0
 47120  1  0  0  0
 48 56  1  0  0  0
 48 65  1  0  0  0
 48121  1  0  0  0
 49 50  1  0  0  0
 49 53  1  0  0  0
 49 64  1  0  0  0
 49122  1  0  0  0
 50 51  1  0  0  0
 50123  1  0  0  0
 50124  1  0  0  0
 51 52  1  0  0  0
 51125  1  0  0  0
 51126  1  0  0  0
 52127  1  0  0  0
 52128  1  0  0  0
 53 54  1  0  0  0
 54 55  2  0  0  0
 54129  1  0  0  0
 55 57  1  0  0  0
 55130  1  0  0  0
 56 69  2  0  0  0
 57 58  2  0  0  0
 57131  1  0  0  0
 58132  1  0  0  0
 59 60  1  0  0  0
 59 61  1  0  0  0
 59 62  1  0  0  0
 60133  1  0  0  0
 60134  1  0  0  0
 60135  1  0  0  0
 61136  1  0  0  0
 61137  1  0  0  0
 61138  1  0  0  0
 62139  1  0  0  0
 62140  1  0  0  0
 62141  1  0  0  0
 63 65  1  0  0  0
 63142  1  0  0  0
 63143  1  0  0  0
 63144  1  0  0  0
 64145  1  0  0  0
 65146  1  0  0  0
 68 77  1  0  0  0
 71 72  2  0  0  0
 71 73  1  0  0  0
 71147  1  0  0  0
 72 75  1  0  0  0
 72148  1  0  0  0
 73 76  2  0  0  0
 73149  1  0  0  0
 74 75  2  0  0  0
 74 76  1  0  0  0
 74 81  1  0  0  0
 75 85  1  0  0  0
 76 87  1  0  0  0
 77 78  2  0  0  0
 77150  1  0  0  0
 78 80  1  0  0  0
 78 83  1  0  0  0
 79 84  2  0  0  0
 79 82  1  0  0  0
 80 85  1  0  0  0
 80 86  2  0  0  0
 81 82  1  0  0  0
 81151  1  0  0  0
 81152  1  0  0  0
 82 85  1  0  0  0
 82153  1  0  0  0
 83154  1  0  0  0
 83155  1  0  0  0
 83156  1  0  0  0
 84157  1  0  0  0
M  ISO  4   1 100  68 101  77 101  79 100
M  END
> <chiral flag>
0

> <version>
0

> <s_m_source_file>
/data/baiqing/PycharmProjects/Reinvent-master-3.2/result/LINK_invent/BTK/process_docking_weight1_custom_product_contain_oxygen_bond_distance_aromatic_linkinvent_7_9_3/rearranged_h_0073.sdf

> <i_m_source_file_index>
7

> <r_mmod_Potential_Energy-OPLS-2005>
1713.65014648438

> <r_mmod_Stretch_Energy-OPLS-2005>
735.0791015625

> <r_mmod_Bend_Energy-OPLS-2005>
523.988586425781

> <r_mmod_Torsional_Energy-OPLS-2005>
258.380889892578

> <r_mmod_Improper_Torsional_Energy-OPLS-2005>
6.77647972106934

> <r_mmod_Van_der_Waal_Energy-OPLS-2005>
123.813095092773

> <r_mmod_Electrostatic_Energy-OPLS-2005>
-268.197357177734

> <r_mmod_Solvation_Energy-OPLS-2005>
-198.571838378906

> <b_mmod_Minimization_Converged-OPLS-2005>
0

> <r_mmod_RMS_Derivative-OPLS-2005>
2.45383906364441

$$$$
7
                    3D
 Structure written by MMmdl.
161169  0  0  1  0            999 V2000
  -30.6299  -14.6334   20.5098 C   0  0  0  0  0  0
  -30.4405  -12.3914   19.4486 C   0  0  0  0  0  0
  -29.5070  -12.5084   18.2224 C   0  0  0  0  0  0
  -28.0305  -12.3436   18.6356 C   0  0  0  0  0  0
  -27.6542  -13.2136   19.8637 C   0  0  2  0  0  0
  -28.7009  -13.0668   20.9927 C   0  0  0  0  0  0
  -25.2571  -13.8161   20.5690 C   0  0  0  0  0  0
  -24.1834  -13.0436   20.9206 C   0  0  0  0  0  0
  -24.6394  -11.6905   20.8741 C   0  0  0  0  0  0
  -23.9061  -10.4290   21.0405 C   0  0  0  0  0  0
  -24.3611   -9.4204   21.9183 C   0  0  0  0  0  0
  -23.6287   -8.2240   22.0752 C   0  0  0  0  0  0
  -22.4268   -8.0277   21.3545 C   0  0  0  0  0  0
  -21.9906   -9.0252   20.4645 C   0  0  0  0  0  0
  -22.7235  -10.2131   20.3055 C   0  0  0  0  0  0
  -21.6854   -6.0733   22.5280 C   0  0  0  0  0  0
  -21.4015   -6.5638   23.8211 C   0  0  0  0  0  0
  -21.3660   -5.6791   24.9174 C   0  0  0  0  0  0
  -21.6046   -4.3055   24.7225 C   0  0  0  0  0  0
  -21.8819   -3.8146   23.4348 C   0  0  0  0  0  0
  -21.9192   -4.6963   22.3401 C   0  0  0  0  0  0
  -22.7855  -13.5229   21.1861 C   0  0  0  0  0  0
  -22.1659   -4.2146   21.0981 F   0  0  0  0  0  0
  -21.5630   -3.4539   25.7739 F   0  0  0  0  0  0
  -30.0176  -13.4097   20.4301 N   0  0  0  0  0  0
  -26.2992  -12.9332   20.3322 N   0  0  0  0  0  0
  -25.9323  -11.6491   20.5763 N   0  0  0  0  0  0
  -22.0493  -12.8220   22.0408 N   0  0  0  0  0  0
  -25.4285  -15.1882   20.4065 N   0  0  0  0  0  0
  -31.7931  -14.7942   20.1279 O   0  0  0  0  0  0
  -21.6639   -6.8872   21.4236 O   0  0  0  0  0  0
  -22.3550  -14.5542   20.6714 O   0  0  0  0  0  0
  -24.6287  -31.8613   23.2069 C   0  0  0  0  0  0
  -25.9138  -32.4783   23.8386 C   0  0  1  0  0  0
  -27.2062  -27.3051   20.1174 C   0  0  0  0  0  0
  -25.5949  -33.8582   24.2309 N   0  0  0  0  0  0
  -23.4206  -30.4918   21.5509 C   0  0  2  0  0  0
  -24.8623  -28.9592   20.1114 C   0  0  0  0  0  0
  -22.7482  -29.4649   22.4950 C   0  0  0  0  0  0
  -18.0288  -28.1382   22.8497 C   0  0  0  0  0  0
  -24.1493  -36.7299   23.2637 C   0  0  0  0  0  0
  -25.9665  -30.7900   21.3811 C   0  0  0  0  0  0
  -26.0358  -29.4207   20.7181 C   0  0  0  0  0  0
  -27.2112  -28.6070   20.7124 C   0  0  0  0  0  0
  -26.0065  -26.9248   19.4661 C   0  0  0  0  0  0
  -24.8495  -27.7144   19.4785 C   0  0  0  0  0  0
  -23.6336  -29.8399   20.1631 C   0  0  0  0  0  0
  -25.4111  -36.3085   24.0335 C   0  0  1  0  0  0
  -20.5888  -28.3690   23.1276 C   0  0  2  0  0  0
  -20.6781  -26.9413   22.5406 C   0  0  0  0  0  0
  -19.5757  -26.6389   21.5211 C   0  0  0  0  0  0
  -18.1936  -26.7932   22.1618 C   0  0  0  0  0  0
  -19.1540  -28.8852   23.2884 C   0  0  0  0  0  0
  -18.9462  -30.1453   23.8912 C   0  0  0  0  0  0
  -17.6459  -30.6585   24.0562 C   0  0  0  0  0  0
  -25.9050  -34.9455   23.5117 C   0  0  0  0  0  0
  -16.5354  -29.9080   23.6331 C   0  0  0  0  0  0
  -16.7274  -28.6490   23.0370 C   0  0  0  0  0  0
  -26.4517  -31.6569   25.0742 C   0  0  0  0  0  0
  -25.3750  -31.3692   26.1462 C   0  0  0  0  0  0
  -27.0349  -30.2988   24.6196 C   0  0  0  0  0  0
  -27.6090  -32.4293   25.7505 C   0  0  0  0  0  0
  -27.5585  -37.1800   24.8463 C   0  0  0  0  0  0
  -21.4195  -29.3053   22.3678 N   0  0  0  0  0  0
  -26.4295  -37.3775   23.9412 N   0  0  0  0  0  0
  -24.6911  -31.0637   22.1028 N   0  0  0  0  0  0
  -23.4205  -28.8174   23.3017 O   0  0  0  0  0  0
  -28.3143  -26.4276   20.1993 O   0  0  0  0  0  0
  -26.5607  -34.8923   22.4677 O   0  0  0  0  0  0
  -23.5446  -32.1416   23.7386 O   0  0  0  0  0  0
  -31.1871  -19.2707   20.5217 C   0  0  0  0  0  0
  -31.1431  -17.8425   20.5111 C   0  0  0  0  0  0
  -28.8015  -17.9448   21.0442 C   0  0  0  0  0  0
  -30.0490  -20.0798   20.8102 C   0  0  0  0  0  0
  -29.9459  -17.1338   20.7946 C   0  0  0  0  0  0
  -28.8417  -19.3728   21.0498 C   0  0  0  0  0  0
  -30.1911  -21.5864   20.9420 C   0  0  0  0  0  0
  -27.8934  -24.5142   18.6550 C   0  0  0  0  0  0
  -28.5030  -25.3713   17.5517 C   0  0  0  0  0  0
  -27.0325  -24.4755   21.1068 C   0  0  0  0  0  0
  -29.4240  -24.0760   20.5782 C   0  0  0  0  0  0
  -28.1513  -24.9309   20.1255 C   0  0  2  0  0  0
  -31.2895  -22.0438   21.5442 N   0  0  0  0  0  0
  -29.8140  -15.6755   20.8626 N   0  0  0  0  0  0
  -29.3154  -22.5466   20.5090 N   0  3  0  0  0  0
  -27.2112  -23.5250   18.3672 O   0  0  0  0  0  0
  -27.7042  -20.0590   21.3207 F   0  0  0  0  0  0
  -31.4808  -12.5198   19.1448 H   0  0  0  0  0  0
  -30.3794  -11.3943   19.8878 H   0  0  0  0  0  0
  -29.7708  -11.7586   17.4752 H   0  0  0  0  0  0
  -29.6478  -13.4785   17.7428 H   0  0  0  0  0  0
  -27.8696  -11.2904   18.8678 H   0  0  0  0  0  0
  -27.3744  -12.5718   17.7950 H   0  0  0  0  0  0
  -27.6714  -14.2487   19.5219 H   0  0  0  0  0  0
  -28.7123  -12.0448   21.3745 H   0  0  0  0  0  0
  -28.4476  -13.6966   21.8468 H   0  0  0  0  0  0
  -25.2755   -9.5683   22.4760 H   0  0  0  0  0  0
  -23.9999   -7.4634   22.7471 H   0  0  0  0  0  0
  -21.0837   -8.8763   19.8953 H   0  0  0  0  0  0
  -22.3687  -10.9667   19.6164 H   0  0  0  0  0  0
  -21.2005   -7.6145   23.9716 H   0  0  0  0  0  0
  -21.1484   -6.0521   25.9076 H   0  0  0  0  0  0
  -22.0599   -2.7608   23.2850 H   0  0  0  0  0  0
  -22.4096  -11.9869   22.4787 H   0  0  0  0  0  0
  -21.1113  -13.1252   22.2609 H   0  0  0  0  0  0
  -24.6513  -15.8338   20.4958 H   0  0  0  0  0  0
  -26.2496  -15.6163   20.0001 H   0  0  0  0  0  0
  -26.7206  -32.5437   23.1131 H   0  0  0  0  0  0
  -25.0108  -33.9734   25.0462 H   0  0  0  0  0  0
  -22.7152  -31.3138   21.4129 H   0  0  0  0  0  0
  -23.3765  -35.9619   23.3280 H   0  0  0  0  0  0
  -24.3604  -36.8937   22.2059 H   0  0  0  0  0  0
  -23.7241  -37.6498   23.6659 H   0  0  0  0  0  0
  -26.1035  -31.5568   20.6169 H   0  0  0  0  0  0
  -26.8470  -30.8309   22.0109 H   0  0  0  0  0  0
  -28.1081  -28.9547   21.2053 H   0  0  0  0  0  0
  -25.8882  -25.9846   18.9594 H   0  0  0  0  0  0
  -23.9497  -27.3516   19.0008 H   0  0  0  0  0  0
  -23.7572  -30.6223   19.4132 H   0  0  0  0  0  0
  -22.7508  -29.2763   19.8553 H   0  0  0  0  0  0
  -25.1288  -36.1940   25.0826 H   0  0  0  0  0  0
  -20.9973  -28.3260   24.1393 H   0  0  0  0  0  0
  -20.5681  -26.2307   23.3611 H   0  0  0  0  0  0
  -21.6653  -26.7446   22.1198 H   0  0  0  0  0  0
  -19.6923  -25.6301   21.1245 H   0  0  0  0  0  0
  -19.6692  -27.3200   20.6743 H   0  0  0  0  0  0
  -17.4204  -26.6699   21.4018 H   0  0  0  0  0  0
  -18.0324  -26.0060   22.8997 H   0  0  0  0  0  0
  -19.7930  -30.7264   24.2309 H   0  0  0  0  0  0
  -17.5006  -31.6271   24.5147 H   0  0  0  0  0  0
  -15.5355  -30.2984   23.7655 H   0  0  0  0  0  0
  -15.8673  -28.0803   22.7106 H   0  0  0  0  0  0
  -24.5963  -30.6994   25.7801 H   0  0  0  0  0  0
  -24.8895  -32.2840   26.4863 H   0  0  0  0  0  0
  -25.8089  -30.8905   27.0247 H   0  0  0  0  0  0
  -26.2915  -29.6742   24.1234 H   0  0  0  0  0  0
  -27.4059  -29.7240   25.4694 H   0  0  0  0  0  0
  -27.8784  -30.4285   23.9414 H   0  0  0  0  0  0
  -27.2730  -33.3612   26.2062 H   0  0  0  0  0  0
  -28.3906  -32.6818   25.0324 H   0  0  0  0  0  0
  -28.0741  -31.8415   26.5427 H   0  0  0  0  0  0
  -28.2583  -38.0118   24.7522 H   0  0  0  0  0  0
  -28.1103  -36.2649   24.6257 H   0  0  0  0  0  0
  -27.2306  -37.1399   25.8868 H   0  0  0  0  0  0
  -20.9366  -29.8789   21.6904 H   0  0  0  0  0  0
  -26.0181  -38.2850   24.1411 H   0  0  0  0  0  0
  -32.1359  -19.7494   20.3223 H   0  0  0  0  0  0
  -32.0560  -17.3034   20.3007 H   0  0  0  0  0  0
  -27.8543  -17.4724   21.2575 H   0  0  0  0  0  0
  -29.3587  -25.9316   17.9271 H   0  0  0  0  0  0
  -27.7630  -26.0773   17.1743 H   0  0  0  0  0  0
  -28.8397  -24.7450   16.7269 H   0  0  0  0  0  0
  -26.9199  -23.3923   21.1244 H   0  0  0  0  0  0
  -26.0424  -24.8596   20.8810 H   0  0  0  0  0  0
  -27.2691  -24.7865   22.1246 H   0  0  0  0  0  0
  -29.6744  -24.3553   21.6026 H   0  0  0  0  0  0
  -30.2823  -24.3795   19.9772 H   0  0  0  0  0  0
  -31.9435  -21.3864   21.9422 H   0  0  0  0  0  0
  -31.4637  -23.0235   21.6841 H   0  0  0  0  0  0
  -28.8994  -15.3537   21.1366 H   0  0  0  0  0  0
  -28.4834  -22.1899   20.0501 H   0  0  0  0  0  0
  1 25  1  0  0  0
  1 30  2  0  0  0
  1 84  1  0  0  0
  2  3  1  0  0  0
  2 25  1  0  0  0
  2 88  1  0  0  0
  2 89  1  0  0  0
  3  4  1  0  0  0
  3 90  1  0  0  0
  3 91  1  0  0  0
  4  5  1  0  0  0
  4 92  1  0  0  0
  4 93  1  0  0  0
  5  6  1  0  0  0
  5 26  1  0  0  0
  5 94  1  0  0  0
  6 25  1  0  0  0
  6 95  1  0  0  0
  6 96  1  0  0  0
  7  8  2  0  0  0
  7 26  1  0  0  0
  7 29  1  0  0  0
  8  9  1  0  0  0
  8 22  1  0  0  0
  9 10  1  0  0  0
  9 27  2  0  0  0
 10 11  2  0  0  0
 10 15  1  0  0  0
 11 12  1  0  0  0
 11 97  1  0  0  0
 12 13  2  0  0  0
 12 98  1  0  0  0
 13 14  1  0  0  0
 13 31  1  0  0  0
 14 15  2  0  0  0
 14 99  1  0  0  0
 15100  1  0  0  0
 16 17  2  0  0  0
 16 21  1  0  0  0
 16 31  1  0  0  0
 17 18  1  0  0  0
 17101  1  0  0  0
 18 19  2  0  0  0
 18102  1  0  0  0
 19 20  1  0  0  0
 19 24  1  0  0  0
 20 21  2  0  0  0
 20103  1  0  0  0
 21 23  1  0  0  0
 22 28  1  0  0  0
 22 32  2  0  0  0
 26 27  1  0  0  0
 28104  1  0  0  0
 28105  1  0  0  0
 29106  1  0  0  0
 29107  1  0  0  0
 33 34  1  0  0  0
 33 66  1  0  0  0
 33 70  2  0  0  0
 34 36  1  0  0  0
 34 59  1  0  0  0
 34108  1  0  0  0
 35 44  2  0  0  0
 35 45  1  0  0  0
 35 68  1  0  0  0
 36 56  1  0  0  0
 36109  1  0  0  0
 37 39  1  0  0  0
 37 47  1  0  0  0
 37 66  1  0  0  0
 37110  1  0  0  0
 38 43  2  0  0  0
 38 46  1  0  0  0
 38 47  1  0  0  0
 39 64  1  0  0  0
 39 67  2  0  0  0
 40 52  1  0  0  0
 40 53  2  0  0  0
 40 58  1  0  0  0
 41111  1  0  0  0
 41112  1  0  0  0
 41113  1  0  0  0
 41 48  1  0  0  0
 42 43  1  0  0  0
 42 66  1  0  0  0
 42114  1  0  0  0
 42115  1  0  0  0
 43 44  1  0  0  0
 44116  1  0  0  0
 45 46  2  0  0  0
 45117  1  0  0  0
 46118  1  0  0  0
 47119  1  0  0  0
 47120  1  0  0  0
 48 56  1  0  0  0
 48 65  1  0  0  0
 48121  1  0  0  0
 49 50  1  0  0  0
 49 53  1  0  0  0
 49 64  1  0  0  0
 49122  1  0  0  0
 50 51  1  0  0  0
 50123  1  0  0  0
 50124  1  0  0  0
 51 52  1  0  0  0
 51125  1  0  0  0
 51126  1  0  0  0
 52127  1  0  0  0
 52128  1  0  0  0
 53 54  1  0  0  0
 54 55  2  0  0  0
 54129  1  0  0  0
 55 57  1  0  0  0
 55130  1  0  0  0
 56 69  2  0  0  0
 57 58  2  0  0  0
 57131  1  0  0  0
 58132  1  0  0  0
 59 60  1  0  0  0
 59 61  1  0  0  0
 59 62  1  0  0  0
 60133  1  0  0  0
 60134  1  0  0  0
 60135  1  0  0  0
 61136  1  0  0  0
 61137  1  0  0  0
 61138  1  0  0  0
 62139  1  0  0  0
 62140  1  0  0  0
 62141  1  0  0  0
 63 65  1  0  0  0
 63142  1  0  0  0
 63143  1  0  0  0
 63144  1  0  0  0
 64145  1  0  0  0
 65146  1  0  0  0
 68 82  1  0  0  0
 71 72  2  0  0  0
 71 74  1  0  0  0
 71147  1  0  0  0
 72 75  1  0  0  0
 72148  1  0  0  0
 73 75  2  0  0  0
 73 76  1  0  0  0
 73149  1  0  0  0
 74 76  2  0  0  0
 74 77  1  0  0  0
 75 84  1  0  0  0
 76 87  1  0  0  0
 77 83  1  0  0  0
 77 85  2  0  0  0
 78 79  1  0  0  0
 78 86  2  0  0  0
 78 82  1  0  0  0
 79150  1  0  0  0
 79151  1  0  0  0
 79152  1  0  0  0
 80153  1  0  0  0
 80154  1  0  0  0
 80155  1  0  0  0
 80 82  1  0  0  0
 81 82  1  0  0  0
 81 85  1  0  0  0
 81156  1  0  0  0
 81157  1  0  0  0
 83158  1  0  0  0
 83159  1  0  0  0
 84160  1  0  0  0
 85161  1  0  0  0
M  CHG  1  85   1
M  ISO  4   1 100  68 101  82 101  84 100
M  END
> <chiral flag>
0

> <version>
0

> <s_m_source_file>
/data/baiqing/PycharmProjects/Reinvent-master-3.2/result/LINK_invent/BTK/process_docking_weight1_custom_product_contain_oxygen_bond_distance_aromatic_linkinvent_7_9_3/rearranged_h_0073.sdf

> <i_m_source_file_index>
8

> <r_mmod_Potential_Energy-OPLS-2005>
-90.1727600097656

> <r_mmod_Stretch_Energy-OPLS-2005>
91.1125030517578

> <r_mmod_Bend_Energy-OPLS-2005>
150.006774902344

> <r_mmod_Torsional_Energy-OPLS-2005>
207.62825012207

> <r_mmod_Improper_Torsional_Energy-OPLS-2005>
4.87548065185547

> <r_mmod_Van_der_Waal_Energy-OPLS-2005>
162.218032836914

> <r_mmod_Electrostatic_Energy-OPLS-2005>
-346.658813476562

> <r_mmod_Solvation_Energy-OPLS-2005>
-412.145935058594

> <b_mmod_Minimization_Converged-OPLS-2005>
0

> <r_mmod_RMS_Derivative-OPLS-2005>
1.30001473426819

$$$$
8
                    3D
 Structure written by MMmdl.
164173  0  0  1  0            999 V2000
  -30.6226  -14.7486   20.4519 C   0  0  0  0  0  0
  -30.4456  -12.4570   19.4856 C   0  0  0  0  0  0
  -29.5294  -12.5179   18.2442 C   0  0  0  0  0  0
  -28.0522  -12.3411   18.6485 C   0  0  0  0  0  0
  -27.6538  -13.2363   19.8540 C   0  0  2  0  0  0
  -28.6945  -13.1694   20.9942 C   0  0  0  0  0  0
  -25.2588  -13.8226   20.5688 C   0  0  0  0  0  0
  -24.1870  -13.0476   20.9170 C   0  0  0  0  0  0
  -24.6462  -11.6950   20.8757 C   0  0  0  0  0  0
  -23.9140  -10.4326   21.0431 C   0  0  0  0  0  0
  -24.3683   -9.4221   21.9199 C   0  0  0  0  0  0
  -23.6331   -8.2269   22.0776 C   0  0  0  0  0  0
  -22.4285   -8.0328   21.3590 C   0  0  0  0  0  0
  -21.9930   -9.0308   20.4680 C   0  0  0  0  0  0
  -22.7303  -10.2170   20.3075 C   0  0  0  0  0  0
  -21.6841   -6.0781   22.5308 C   0  0  0  0  0  0
  -21.4022   -6.5682   23.8249 C   0  0  0  0  0  0
  -21.3654   -5.6805   24.9200 C   0  0  0  0  0  0
  -21.6035   -4.3075   24.7222 C   0  0  0  0  0  0
  -21.8815   -3.8194   23.4330 C   0  0  0  0  0  0
  -21.9188   -4.7018   22.3409 C   0  0  0  0  0  0
  -22.7886  -13.5275   21.1811 C   0  0  0  0  0  0
  -22.1665   -4.2238   21.0969 F   0  0  0  0  0  0
  -21.5594   -3.4537   25.7720 F   0  0  0  0  0  0
  -30.0066  -13.5156   20.4278 N   0  0  0  0  0  0
  -26.3020  -12.9437   20.3284 N   0  0  0  0  0  0
  -25.9387  -11.6581   20.5725 N   0  0  0  0  0  0
  -22.0494  -12.8298   22.0358 N   0  0  0  0  0  0
  -25.4293  -15.1947   20.4159 N   0  0  0  0  0  0
  -31.7792  -14.8628   20.0392 O   0  0  0  0  0  0
  -21.6632   -6.8919   21.4270 O   0  0  0  0  0  0
  -22.3580  -14.5585   20.6648 O   0  0  0  0  0  0
  -24.6327  -31.8550   23.1961 C   0  0  0  0  0  0
  -25.9156  -32.4763   23.8302 C   0  0  1  0  0  0
  -27.2231  -27.2756   20.1206 C   0  0  0  0  0  0
  -25.5927  -33.8558   24.2205 N   0  0  0  0  0  0
  -23.4240  -30.4779   21.5459 C   0  0  2  0  0  0
  -24.8659  -28.9246   20.1145 C   0  0  0  0  0  0
  -22.7474  -29.4604   22.4963 C   0  0  0  0  0  0
  -18.0284  -28.1421   22.8457 C   0  0  0  0  0  0
  -24.1482  -36.7282   23.2634 C   0  0  0  0  0  0
  -25.9665  -30.7780   21.3629 C   0  0  0  0  0  0
  -26.0418  -29.3996   20.7103 C   0  0  0  0  0  0
  -27.2226  -28.5895   20.6999 C   0  0  0  0  0  0
  -26.0166  -26.8636   19.5037 C   0  0  0  0  0  0
  -24.8554  -27.6600   19.5098 C   0  0  0  0  0  0
  -23.6336  -29.8066   20.1640 C   0  0  0  0  0  0
  -25.4115  -36.3069   24.0302 C   0  0  1  0  0  0
  -20.5875  -28.3707   23.1269 C   0  0  2  0  0  0
  -20.6768  -26.9419   22.5423 C   0  0  0  0  0  0
  -19.5751  -26.6390   21.5214 C   0  0  0  0  0  0
  -18.1920  -26.7958   22.1606 C   0  0  0  0  0  0
  -19.1539  -28.8882   23.2854 C   0  0  0  0  0  0
  -18.9485  -30.1481   23.8876 C   0  0  0  0  0  0
  -17.6490  -30.6609   24.0571 C   0  0  0  0  0  0
  -25.9066  -34.9456   23.5064 C   0  0  0  0  0  0
  -16.5370  -29.9116   23.6349 C   0  0  0  0  0  0
  -16.7273  -28.6550   23.0328 C   0  0  0  0  0  0
  -26.4488  -31.6617   25.0719 C   0  0  0  0  0  0
  -25.3679  -31.3853   26.1430 C   0  0  0  0  0  0
  -27.0307  -30.3025   24.6224 C   0  0  0  0  0  0
  -27.6044  -32.4354   25.7508 C   0  0  0  0  0  0
  -27.5572  -37.1782   24.8445 C   0  0  0  0  0  0
  -21.4189  -29.3055   22.3678 N   0  0  0  0  0  0
  -26.4269  -37.3788   23.9417 N   0  0  0  0  0  0
  -24.6946  -31.0528   22.0924 N   0  0  0  0  0  0
  -23.4182  -28.8159   23.3065 O   0  0  0  0  0  0
  -28.3303  -26.3950   20.1875 O   0  0  0  0  0  0
  -26.5665  -34.8932   22.4647 O   0  0  0  0  0  0
  -23.5478  -32.1384   23.7259 O   0  0  0  0  0  0
  -29.0417  -19.5552   18.7159 C   0  0  0  0  0  0
  -29.7667  -18.4886   20.7665 C   0  0  0  0  0  0
  -28.9258  -18.2904   18.0980 C   0  0  0  0  0  0
  -29.4502  -19.7315   20.0588 C   0  0  0  0  0  0
  -29.7268  -17.1674   20.1498 C   0  0  0  0  0  0
  -29.2922  -17.1188   18.8044 C   0  0  0  0  0  0
  -28.3149  -18.1549   16.7563 C   0  0  0  0  0  0
  -27.5768  -19.0940   16.1290 C   0  0  0  0  0  0
  -29.6101  -21.2738   22.0348 C   0  0  0  0  0  0
  -28.8058  -22.2684   19.9090 C   0  0  0  0  0  0
  -29.9868  -22.7277   22.4204 C   0  0  0  0  0  0
  -29.1071  -23.7560   20.4595 C   0  0  1  0  0  0
  -26.9290  -18.9265   14.7724 C   0  0  0  0  0  0
  -28.1069  -24.9281   19.9657 C   0  0  0  0  0  0
  -29.5011  -21.0963   20.5841 N   0  0  0  0  0  0
  -29.9042  -15.8657   20.8524 N   0  0  0  0  0  0
  -29.0576  -23.6792   21.8851 O   0  0  0  0  0  0
  -29.1397  -15.9170   18.1971 F   0  0  0  0  0  0
  -31.4924  -12.5674   19.1910 H   0  0  0  0  0  0
  -30.3751  -11.4811   19.9662 H   0  0  0  0  0  0
  -29.8145  -11.7515   17.5212 H   0  0  0  0  0  0
  -29.6688  -13.4704   17.7324 H   0  0  0  0  0  0
  -27.9034  -11.2908   18.9029 H   0  0  0  0  0  0
  -27.4069  -12.5493   17.7955 H   0  0  0  0  0  0
  -27.6469  -14.2578   19.4743 H   0  0  0  0  0  0
  -28.7258  -12.1746   21.4418 H   0  0  0  0  0  0
  -28.4264  -13.8572   21.7984 H   0  0  0  0  0  0
  -25.2855   -9.5678   22.4769 H   0  0  0  0  0  0
  -24.0064   -7.4632   22.7461 H   0  0  0  0  0  0
  -21.0870   -8.8850   19.8965 H   0  0  0  0  0  0
  -22.3811  -10.9718   19.6172 H   0  0  0  0  0  0
  -21.2056   -7.6197   23.9788 H   0  0  0  0  0  0
  -21.1451   -6.0534   25.9105 H   0  0  0  0  0  0
  -22.0592   -2.7657   23.2802 H   0  0  0  0  0  0
  -22.4050  -11.9990   22.4843 H   0  0  0  0  0  0
  -21.1129  -13.1376   22.2490 H   0  0  0  0  0  0
  -24.6561  -15.8449   20.5126 H   0  0  0  0  0  0
  -26.2864  -15.6385   20.1117 H   0  0  0  0  0  0
  -26.7227  -32.5410   23.1047 H   0  0  0  0  0  0
  -24.9992  -33.9673   25.0295 H   0  0  0  0  0  0
  -22.7223  -31.3017   21.4021 H   0  0  0  0  0  0
  -23.3745  -35.9606   23.3274 H   0  0  0  0  0  0
  -24.3573  -36.8945   22.2051 H   0  0  0  0  0  0
  -23.7236  -37.6466   23.6697 H   0  0  0  0  0  0
  -26.0831  -31.5307   20.5811 H   0  0  0  0  0  0
  -26.8527  -30.8405   21.9830 H   0  0  0  0  0  0
  -28.1249  -28.9522   21.1723 H   0  0  0  0  0  0
  -25.9339  -25.8956   19.0319 H   0  0  0  0  0  0
  -23.9485  -27.2778   19.0618 H   0  0  0  0  0  0
  -23.7431  -30.5777   19.4008 H   0  0  0  0  0  0
  -22.7506  -29.2337   19.8753 H   0  0  0  0  0  0
  -25.1295  -36.1875   25.0787 H   0  0  0  0  0  0
  -20.9951  -28.3305   24.1392 H   0  0  0  0  0  0
  -20.5633  -26.2326   23.3640 H   0  0  0  0  0  0
  -21.6649  -26.7423   22.1258 H   0  0  0  0  0  0
  -19.6902  -25.6286   21.1286 H   0  0  0  0  0  0
  -19.6706  -27.3166   20.6715 H   0  0  0  0  0  0
  -17.4185  -26.6674   21.4014 H   0  0  0  0  0  0
  -18.0314  -26.0128   22.9030 H   0  0  0  0  0  0
  -19.7965  -30.7298   24.2222 H   0  0  0  0  0  0
  -17.5060  -31.6283   24.5182 H   0  0  0  0  0  0
  -15.5378  -30.3022   23.7707 H   0  0  0  0  0  0
  -15.8664  -28.0900   22.7021 H   0  0  0  0  0  0
  -24.5806  -30.7237   25.7789 H   0  0  0  0  0  0
  -24.8908  -32.3057   26.4795 H   0  0  0  0  0  0
  -25.7934  -30.9075   27.0251 H   0  0  0  0  0  0
  -26.2889  -29.6807   24.1186 H   0  0  0  0  0  0
  -27.3893  -29.7280   25.4773 H   0  0  0  0  0  0
  -27.8804  -30.4283   23.9515 H   0  0  0  0  0  0
  -27.2633  -33.3625   26.2119 H   0  0  0  0  0  0
  -28.3835  -32.6949   25.0338 H   0  0  0  0  0  0
  -28.0717  -31.8460   26.5397 H   0  0  0  0  0  0
  -28.2573  -38.0097   24.7522 H   0  0  0  0  0  0
  -28.1077  -36.2627   24.6209 H   0  0  0  0  0  0
  -27.2302  -37.1376   25.8852 H   0  0  0  0  0  0
  -20.9377  -29.8781   21.6885 H   0  0  0  0  0  0
  -26.0122  -38.2830   24.1499 H   0  0  0  0  0  0
  -28.7810  -20.4117   18.1233 H   0  0  0  0  0  0
  -30.0313  -18.5419   21.8095 H   0  0  0  0  0  0
  -28.4828  -17.2138   16.2505 H   0  0  0  0  0  0
  -27.3912  -20.0523   16.5891 H   0  0  0  0  0  0
  -28.6651  -21.0067   22.5096 H   0  0  0  0  0  0
  -30.3724  -20.6121   22.4492 H   0  0  0  0  0  0
  -29.0563  -22.2951   18.8477 H   0  0  0  0  0  0
  -27.7295  -22.0870   19.9566 H   0  0  0  0  0  0
  -31.0017  -22.9746   22.1055 H   0  0  0  0  0  0
  -29.9827  -22.8233   23.5081 H   0  0  0  0  0  0
  -30.1208  -24.0331   20.1626 H   0  0  0  0  0  0
  -27.1105  -17.9351   14.3572 H   0  0  0  0  0  0
  -27.3138  -19.6730   14.0777 H   0  0  0  0  0  0
  -25.8506  -19.0708   14.8578 H   0  0  0  0  0  0
  -27.1364  -24.6658   20.3873 H   0  0  0  0  0  0
  -28.0093  -24.8126   18.8858 H   0  0  0  0  0  0
  -29.1289  -15.6387   21.4577 H   0  0  0  0  0  0
  1 25  1  0  0  0
  1 30  2  0  0  0
  1 86  1  0  0  0
  2  3  1  0  0  0
  2 25  1  0  0  0
  2 89  1  0  0  0
  2 90  1  0  0  0
  3  4  1  0  0  0
  3 91  1  0  0  0
  3 92  1  0  0  0
  4  5  1  0  0  0
  4 93  1  0  0  0
  4 94  1  0  0  0
  5  6  1  0  0  0
  5 26  1  0  0  0
  5 95  1  0  0  0
  6 25  1  0  0  0
  6 96  1  0  0  0
  6 97  1  0  0  0
  7  8  2  0  0  0
  7 26  1  0  0  0
  7 29  1  0  0  0
  8  9  1  0  0  0
  8 22  1  0  0  0
  9 10  1  0  0  0
  9 27  2  0  0  0
 10 11  2  0  0  0
 10 15  1  0  0  0
 11 12  1  0  0  0
 11 98  1  0  0  0
 12 13  2  0  0  0
 12 99  1  0  0  0
 13 14  1  0  0  0
 13 31  1  0  0  0
 14 15  2  0  0  0
 14100  1  0  0  0
 15101  1  0  0  0
 16 17  2  0  0  0
 16 21  1  0  0  0
 16 31  1  0  0  0
 17 18  1  0  0  0
 17102  1  0  0  0
 18 19  2  0  0  0
 18103  1  0  0  0
 19 20  1  0  0  0
 19 24  1  0  0  0
 20 21  2  0  0  0
 20104  1  0  0  0
 21 23  1  0  0  0
 22 28  1  0  0  0
 22 32  2  0  0  0
 26 27  1  0  0  0
 28105  1  0  0  0
 28106  1  0  0  0
 29107  1  0  0  0
 29108  1  0  0  0
 33 34  1  0  0  0
 33 66  1  0  0  0
 33 70  2  0  0  0
 34 36  1  0  0  0
 34 59  1  0  0  0
 34109  1  0  0  0
 35 44  2  0  0  0
 35 45  1  0  0  0
 35 68  1  0  0  0
 36 56  1  0  0  0
 36110  1  0  0  0
 37 39  1  0  0  0
 37 47  1  0  0  0
 37 66  1  0  0  0
 37111  1  0  0  0
 38 43  2  0  0  0
 38 46  1  0  0  0
 38 47  1  0  0  0
 39 64  1  0  0  0
 39 67  2  0  0  0
 40 52  1  0  0  0
 40 53  2  0  0  0
 40 58  1  0  0  0
 41112  1  0  0  0
 41113  1  0  0  0
 41114  1  0  0  0
 41 48  1  0  0  0
 42 43  1  0  0  0
 42 66  1  0  0  0
 42115  1  0  0  0
 42116  1  0  0  0
 43 44  1  0  0  0
 44117  1  0  0  0
 45 46  2  0  0  0
 45118  1  0  0  0
 46119  1  0  0  0
 47120  1  0  0  0
 47121  1  0  0  0
 48 56  1  0  0  0
 48 65  1  0  0  0
 48122  1  0  0  0
 49 50  1  0  0  0
 49 53  1  0  0  0
 49 64  1  0  0  0
 49123  1  0  0  0
 50 51  1  0  0  0
 50124  1  0  0  0
 50125  1  0  0  0
 51 52  1  0  0  0
 51126  1  0  0  0
 51127  1  0  0  0
 52128  1  0  0  0
 52129  1  0  0  0
 53 54  1  0  0  0
 54 55  2  0  0  0
 54130  1  0  0  0
 55 57  1  0  0  0
 55131  1  0  0  0
 56 69  2  0  0  0
 57 58  2  0  0  0
 57132  1  0  0  0
 58133  1  0  0  0
 59 60  1  0  0  0
 59 61  1  0  0  0
 59 62  1  0  0  0
 60134  1  0  0  0
 60135  1  0  0  0
 60136  1  0  0  0
 61137  1  0  0  0
 61138  1  0  0  0
 61139  1  0  0  0
 62140  1  0  0  0
 62141  1  0  0  0
 62142  1  0  0  0
 63 65  1  0  0  0
 63143  1  0  0  0
 63144  1  0  0  0
 63145  1  0  0  0
 64146  1  0  0  0
 65147  1  0  0  0
 68 84  1  0  0  0
 71 73  2  0  0  0
 71 74  1  0  0  0
 71148  1  0  0  0
 72 74  2  0  0  0
 72 75  1  0  0  0
 72149  1  0  0  0
 73 76  1  0  0  0
 73 77  1  0  0  0
 74 85  1  0  0  0
 75 76  2  0  0  0
 75 86  1  0  0  0
 76 88  1  0  0  0
 77 78  2  0  0  0
 77150  1  0  0  0
 78 83  1  0  0  0
 78151  1  0  0  0
 79 81  1  0  0  0
 79 85  1  0  0  0
 79152  1  0  0  0
 79153  1  0  0  0
 80 82  1  0  0  0
 80 85  1  0  0  0
 80154  1  0  0  0
 80155  1  0  0  0
 81 87  1  0  0  0
 81156  1  0  0  0
 81157  1  0  0  0
 82 84  1  0  0  0
 82 87  1  0  0  0
 82158  1  0  0  0
 83159  1  0  0  0
 83160  1  0  0  0
 83161  1  0  0  0
 84162  1  0  0  0
 84163  1  0  0  0
 86164  1  0  0  0
M  ISO  4   1 100  68 101  84 101  86 100
M  END
> <chiral flag>
0

> <version>
0

> <s_m_source_file>
/data/baiqing/PycharmProjects/Reinvent-master-3.2/result/LINK_invent/BTK/process_docking_weight1_custom_product_contain_oxygen_bond_distance_aromatic_linkinvent_7_9_3/rearranged_h_0073.sdf

> <i_m_source_file_index>
9

> <r_mmod_Potential_Energy-OPLS-2005>
278.465454101562

> <r_mmod_Stretch_Energy-OPLS-2005>
126.516105651855

> <r_mmod_Bend_Energy-OPLS-2005>
166.36067199707

> <r_mmod_Torsional_Energy-OPLS-2005>
272.777801513672

> <r_mmod_Improper_Torsional_Energy-OPLS-2005>
8.03319072723389

> <r_mmod_Van_der_Waal_Energy-OPLS-2005>
155.531692504883

> <r_mmod_Electrostatic_Energy-OPLS-2005>
-291.460876464844

> <r_mmod_Solvation_Energy-OPLS-2005>
-241.286117553711

> <b_mmod_Minimization_Converged-OPLS-2005>
0

> <r_mmod_RMS_Derivative-OPLS-2005>
4.92697715759277

$$$$
9
                    3D
 Structure written by MMmdl.
159168  0  0  1  0            999 V2000
  -30.5936  -14.8298   20.4098 C   0  0  0  0  0  0
  -30.4366  -12.4992   19.4920 C   0  0  0  0  0  0
  -29.5112  -12.4530   18.2536 C   0  0  0  0  0  0
  -28.0383  -12.3019   18.6702 C   0  0  0  0  0  0
  -27.6353  -13.2382   19.8411 C   0  0  2  0  0  0
  -28.6786  -13.2330   20.9783 C   0  0  0  0  0  0
  -25.2506  -13.8230   20.5732 C   0  0  0  0  0  0
  -24.1802  -13.0458   20.9227 C   0  0  0  0  0  0
  -24.6386  -11.6929   20.8747 C   0  0  0  0  0  0
  -23.9069  -10.4295   21.0402 C   0  0  0  0  0  0
  -24.3618   -9.4208   21.9174 C   0  0  0  0  0  0
  -23.6299   -8.2243   22.0750 C   0  0  0  0  0  0
  -22.4280   -8.0282   21.3544 C   0  0  0  0  0  0
  -21.9904   -9.0258   20.4651 C   0  0  0  0  0  0
  -22.7233  -10.2140   20.3053 C   0  0  0  0  0  0
  -21.6864   -6.0726   22.5270 C   0  0  0  0  0  0
  -21.4017   -6.5632   23.8199 C   0  0  0  0  0  0
  -21.3655   -5.6784   24.9161 C   0  0  0  0  0  0
  -21.6046   -4.3050   24.7216 C   0  0  0  0  0  0
  -21.8827   -3.8137   23.4337 C   0  0  0  0  0  0
  -21.9204   -4.6954   22.3392 C   0  0  0  0  0  0
  -22.7830  -13.5236   21.1891 C   0  0  0  0  0  0
  -22.1685   -4.2138   21.0972 F   0  0  0  0  0  0
  -21.5612   -3.4528   25.7726 F   0  0  0  0  0  0
  -29.9716  -13.5933   20.3841 N   0  0  0  0  0  0
  -26.2919  -12.9439   20.3282 N   0  0  0  0  0  0
  -25.9323  -11.6574   20.5773 N   0  0  0  0  0  0
  -22.0481  -12.8221   22.0443 N   0  0  0  0  0  0
  -25.4213  -15.1965   20.4169 N   0  0  0  0  0  0
  -31.8023  -14.8832   20.1686 O   0  0  0  0  0  0
  -21.6659   -6.8876   21.4231 O   0  0  0  0  0  0
  -22.3517  -14.5545   20.6748 O   0  0  0  0  0  0
  -24.6363  -31.8506   23.1951 C   0  0  0  0  0  0
  -25.9162  -32.4736   23.8307 C   0  0  1  0  0  0
  -27.2228  -27.2197   20.1352 C   0  0  0  0  0  0
  -25.5939  -33.8538   24.2230 N   0  0  0  0  0  0
  -23.4360  -30.4717   21.5404 C   0  0  2  0  0  0
  -24.8851  -28.9164   20.1075 C   0  0  0  0  0  0
  -22.7542  -29.4563   22.4897 C   0  0  0  0  0  0
  -18.0298  -28.1392   22.8478 C   0  0  0  0  0  0
  -24.1491  -36.7273   23.2638 C   0  0  0  0  0  0
  -25.9869  -30.7509   21.3818 C   0  0  0  0  0  0
  -26.0593  -29.3715   20.7202 C   0  0  0  0  0  0
  -27.2314  -28.5389   20.7177 C   0  0  0  0  0  0
  -26.0243  -26.8485   19.4834 C   0  0  0  0  0  0
  -24.8769  -27.6661   19.4730 C   0  0  0  0  0  0
  -23.6566  -29.8069   20.1563 C   0  0  0  0  0  0
  -25.4118  -36.3058   24.0322 C   0  0  1  0  0  0
  -20.5907  -28.3700   23.1263 C   0  0  2  0  0  0
  -20.6787  -26.9410   22.5413 C   0  0  0  0  0  0
  -19.5756  -26.6379   21.5221 C   0  0  0  0  0  0
  -18.1936  -26.7932   22.1631 C   0  0  0  0  0  0
  -19.1556  -28.8866   23.2862 C   0  0  0  0  0  0
  -18.9466  -30.1469   23.8880 C   0  0  0  0  0  0
  -17.6462  -30.6584   24.0560 C   0  0  0  0  0  0
  -25.9066  -34.9429   23.5083 C   0  0  0  0  0  0
  -16.5356  -29.9079   23.6333 C   0  0  0  0  0  0
  -16.7282  -28.6505   23.0343 C   0  0  0  0  0  0
  -26.4505  -31.6578   25.0720 C   0  0  0  0  0  0
  -25.3712  -31.3739   26.1426 C   0  0  0  0  0  0
  -27.0356  -30.2990   24.6240 C   0  0  0  0  0  0
  -27.6054  -32.4326   25.7487 C   0  0  0  0  0  0
  -27.5580  -37.1787   24.8457 C   0  0  0  0  0  0
  -21.4241  -29.3031   22.3648 N   0  0  0  0  0  0
  -26.4289  -37.3766   23.9407 N   0  0  0  0  0  0
  -24.7055  -31.0435   22.0949 N   0  0  0  0  0  0
  -23.4220  -28.8099   23.3009 O   0  0  0  0  0  0
  -28.2994  -26.2867   20.2106 O   0  0  0  0  0  0
  -26.5644  -34.8914   22.4658 O   0  0  0  0  0  0
  -23.5500  -32.1334   23.7228 O   0  0  0  0  0  0
  -30.4676  -18.6922   17.8517 C   0  0  0  0  0  0
  -30.1723  -19.9000   18.4919 C   0  0  0  0  0  0
  -29.6018  -18.6717   20.4611 C   0  0  0  0  0  0
  -30.3322  -17.4444   18.4812 C   0  0  0  0  0  0
  -29.6801  -20.0045   19.8142 C   0  0  0  0  0  0
  -29.9570  -17.3638   19.8571 C   0  0  0  0  0  0
  -28.4034  -22.1688   20.9636 C   0  0  0  0  0  0
  -29.6660  -22.6019   19.4075 C   0  0  0  0  0  0
  -29.0452  -23.5764   20.4783 C   0  0  2  0  0  0
  -29.9854  -24.1110   21.5653 C   0  0  0  0  0  0
  -30.5106  -16.2529   17.5513 C   0  0  0  0  0  0
  -28.0242  -24.7921   20.0604 C   0  0  0  0  0  0
  -29.3868  -21.4226   20.2677 N   0  0  0  0  0  0
  -29.8254  -16.0041   20.5171 N   0  0  0  0  0  0
  -27.4262  -21.8086   21.5850 O   0  0  0  0  0  0
  -31.8662  -15.9486   17.2891 O   0  0  0  0  0  0
  -31.4697  -12.6441   19.1723 H   0  0  0  0  0  0
  -30.4192  -11.5451   20.0210 H   0  0  0  0  0  0
  -29.7951  -11.6195   17.6099 H   0  0  0  0  0  0
  -29.6338  -13.3410   17.6414 H   0  0  0  0  0  0
  -27.9061  -11.2622   18.9720 H   0  0  0  0  0  0
  -27.3813  -12.4554   17.8128 H   0  0  0  0  0  0
  -27.6129  -14.2465   19.4276 H   0  0  0  0  0  0
  -28.7269  -12.2560   21.4605 H   0  0  0  0  0  0
  -28.4003  -13.9485   21.7540 H   0  0  0  0  0  0
  -25.2762   -9.5686   22.4754 H   0  0  0  0  0  0
  -24.0000   -7.4634   22.7471 H   0  0  0  0  0  0
  -21.0823   -8.8779   19.8974 H   0  0  0  0  0  0
  -22.3679  -10.9679   19.6167 H   0  0  0  0  0  0
  -21.2016   -7.6140   23.9696 H   0  0  0  0  0  0
  -21.1474   -6.0520   25.9067 H   0  0  0  0  0  0
  -22.0614   -2.7598   23.2846 H   0  0  0  0  0  0
  -22.4094  -11.9867   22.4808 H   0  0  0  0  0  0
  -21.1105  -13.1248   22.2657 H   0  0  0  0  0  0
  -24.6539  -15.8513   20.5274 H   0  0  0  0  0  0
  -26.2683  -15.6363   20.0812 H   0  0  0  0  0  0
  -26.7229  -32.5362   23.1045 H   0  0  0  0  0  0
  -25.0062  -33.9664   25.0361 H   0  0  0  0  0  0
  -22.7338  -31.2947   21.3937 H   0  0  0  0  0  0
  -23.3757  -35.9601   23.3299 H   0  0  0  0  0  0
  -24.3579  -36.8900   22.2054 H   0  0  0  0  0  0
  -23.7242  -37.6472   23.6668 H   0  0  0  0  0  0
  -26.1361  -31.5114   20.6139 H   0  0  0  0  0  0
  -26.8607  -30.7961   22.0202 H   0  0  0  0  0  0
  -28.1295  -28.8850   21.2098 H   0  0  0  0  0  0
  -25.9394  -25.8947   18.9855 H   0  0  0  0  0  0
  -23.9822  -27.3156   18.9771 H   0  0  0  0  0  0
  -23.7835  -30.5845   19.4024 H   0  0  0  0  0  0
  -22.7737  -29.2434   19.8492 H   0  0  0  0  0  0
  -25.1304  -36.1902   25.0814 H   0  0  0  0  0  0
  -20.9997  -28.3282   24.1386 H   0  0  0  0  0  0
  -20.5700  -26.2299   23.3618 H   0  0  0  0  0  0
  -21.6649  -26.7429   22.1197 H   0  0  0  0  0  0
  -19.6915  -25.6290   21.1247 H   0  0  0  0  0  0
  -19.6700  -27.3194   20.6756 H   0  0  0  0  0  0
  -17.4208  -26.6674   21.4033 H   0  0  0  0  0  0
  -18.0331  -26.0083   22.9035 H   0  0  0  0  0  0
  -19.7938  -30.7296   24.2238 H   0  0  0  0  0  0
  -17.5006  -31.6264   24.5164 H   0  0  0  0  0  0
  -15.5352  -30.2969   23.7670 H   0  0  0  0  0  0
  -15.8686  -28.0826   22.7051 H   0  0  0  0  0  0
  -24.5901  -30.7077   25.7743 H   0  0  0  0  0  0
  -24.8891  -32.2911   26.4823 H   0  0  0  0  0  0
  -25.8017  -30.8929   27.0220 H   0  0  0  0  0  0
  -26.2951  -29.6729   24.1254 H   0  0  0  0  0  0
  -27.4001  -29.7269   25.4781 H   0  0  0  0  0  0
  -27.8845  -30.4250   23.9519 H   0  0  0  0  0  0
  -27.2664  -33.3629   26.2055 H   0  0  0  0  0  0
  -28.3867  -32.6880   25.0317 H   0  0  0  0  0  0
  -28.0721  -31.8457   26.5411 H   0  0  0  0  0  0
  -28.2586  -38.0097   24.7535 H   0  0  0  0  0  0
  -28.1093  -36.2635   24.6251 H   0  0  0  0  0  0
  -27.2301  -37.1390   25.8858 H   0  0  0  0  0  0
  -20.9443  -29.8741   21.6834 H   0  0  0  0  0  0
  -26.0164  -38.2833   24.1430 H   0  0  0  0  0  0
  -30.7690  -18.7322   16.8140 H   0  0  0  0  0  0
  -30.3129  -20.7765   17.8778 H   0  0  0  0  0  0
  -29.2575  -18.6558   21.4860 H   0  0  0  0  0  0
  -30.7262  -22.7738   19.2138 H   0  0  0  0  0  0
  -29.0948  -22.5908   18.4747 H   0  0  0  0  0  0
  -30.6814  -23.3495   21.9197 H   0  0  0  0  0  0
  -29.4307  -24.4720   22.4318 H   0  0  0  0  0  0
  -30.5839  -24.9431   21.1937 H   0  0  0  0  0  0
  -30.0293  -16.4827   16.5999 H   0  0  0  0  0  0
  -29.9694  -15.3913   17.9166 H   0  0  0  0  0  0
  -27.0864  -24.6043   20.5852 H   0  0  0  0  0  0
  -27.7855  -24.6494   19.0059 H   0  0  0  0  0  0
  -28.9327  -15.8512   20.9616 H   0  0  0  0  0  0
  -32.2684  -16.7212   16.9068 H   0  0  0  0  0  0
  1 25  1  0  0  0
  1 30  2  0  0  0
  1 84  1  0  0  0
  2  3  1  0  0  0
  2 25  1  0  0  0
  2 87  1  0  0  0
  2 88  1  0  0  0
  3  4  1  0  0  0
  3 89  1  0  0  0
  3 90  1  0  0  0
  4  5  1  0  0  0
  4 91  1  0  0  0
  4 92  1  0  0  0
  5  6  1  0  0  0
  5 26  1  0  0  0
  5 93  1  0  0  0
  6 25  1  0  0  0
  6 94  1  0  0  0
  6 95  1  0  0  0
  7  8  2  0  0  0
  7 26  1  0  0  0
  7 29  1  0  0  0
  8  9  1  0  0  0
  8 22  1  0  0  0
  9 10  1  0  0  0
  9 27  2  0  0  0
 10 11  2  0  0  0
 10 15  1  0  0  0
 11 12  1  0  0  0
 11 96  1  0  0  0
 12 13  2  0  0  0
 12 97  1  0  0  0
 13 14  1  0  0  0
 13 31  1  0  0  0
 14 15  2  0  0  0
 14 98  1  0  0  0
 15 99  1  0  0  0
 16 17  2  0  0  0
 16 21  1  0  0  0
 16 31  1  0  0  0
 17 18  1  0  0  0
 17100  1  0  0  0
 18 19  2  0  0  0
 18101  1  0  0  0
 19 20  1  0  0  0
 19 24  1  0  0  0
 20 21  2  0  0  0
 20102  1  0  0  0
 21 23  1  0  0  0
 22 28  1  0  0  0
 22 32  2  0  0  0
 26 27  1  0  0  0
 28103  1  0  0  0
 28104  1  0  0  0
 29105  1  0  0  0
 29106  1  0  0  0
 33 34  1  0  0  0
 33 66  1  0  0  0
 33 70  2  0  0  0
 34 36  1  0  0  0
 34 59  1  0  0  0
 34107  1  0  0  0
 35 44  2  0  0  0
 35 45  1  0  0  0
 35 68  1  0  0  0
 36 56  1  0  0  0
 36108  1  0  0  0
 37 39  1  0  0  0
 37 47  1  0  0  0
 37 66  1  0  0  0
 37109  1  0  0  0
 38 43  2  0  0  0
 38 46  1  0  0  0
 38 47  1  0  0  0
 39 64  1  0  0  0
 39 67  2  0  0  0
 40 52  1  0  0  0
 40 53  2  0  0  0
 40 58  1  0  0  0
 41110  1  0  0  0
 41111  1  0  0  0
 41112  1  0  0  0
 41 48  1  0  0  0
 42 43  1  0  0  0
 42 66  1  0  0  0
 42113  1  0  0  0
 42114  1  0  0  0
 43 44  1  0  0  0
 44115  1  0  0  0
 45 46  2  0  0  0
 45116  1  0  0  0
 46117  1  0  0  0
 47118  1  0  0  0
 47119  1  0  0  0
 48 56  1  0  0  0
 48 65  1  0  0  0
 48120  1  0  0  0
 49 50  1  0  0  0
 49 53  1  0  0  0
 49 64  1  0  0  0
 49121  1  0  0  0
 50 51  1  0  0  0
 50122  1  0  0  0
 50123  1  0  0  0
 51 52  1  0  0  0
 51124  1  0  0  0
 51125  1  0  0  0
 52126  1  0  0  0
 52127  1  0  0  0
 53 54  1  0  0  0
 54 55  2  0  0  0
 54128  1  0  0  0
 55 57  1  0  0  0
 55129  1  0  0  0
 56 69  2  0  0  0
 57 58  2  0  0  0
 57130  1  0  0  0
 58131  1  0  0  0
 59 60  1  0  0  0
 59 61  1  0  0  0
 59 62  1  0  0  0
 60132  1  0  0  0
 60133  1  0  0  0
 60134  1  0  0  0
 61135  1  0  0  0
 61136  1  0  0  0
 61137  1  0  0  0
 62138  1  0  0  0
 62139  1  0  0  0
 62140  1  0  0  0
 63 65  1  0  0  0
 63141  1  0  0  0
 63142  1  0  0  0
 63143  1  0  0  0
 64144  1  0  0  0
 65145  1  0  0  0
 68 82  1  0  0  0
 71 72  2  0  0  0
 71 74  1  0  0  0
 71146  1  0  0  0
 72 75  1  0  0  0
 72147  1  0  0  0
 73 75  2  0  0  0
 73 76  1  0  0  0
 73148  1  0  0  0
 74 76  2  0  0  0
 74 81  1  0  0  0
 75 83  1  0  0  0
 76 84  1  0  0  0
 77 79  1  0  0  0
 77 83  1  0  0  0
 77 85  2  0  0  0
 78 79  1  0  0  0
 78 83  1  0  0  0
 78149  1  0  0  0
 78150  1  0  0  0
 79 80  1  0  0  0
 79 82  1  0  0  0
 80151  1  0  0  0
 80152  1  0  0  0
 80153  1  0  0  0
 81 86  1  0  0  0
 81154  1  0  0  0
 81155  1  0  0  0
 82156  1  0  0  0
 82157  1  0  0  0
 84158  1  0  0  0
 86159  1  0  0  0
M  ISO  4   1 100  68 101  82 101  84 100
M  END
> <chiral flag>
0

> <version>
0

> <s_m_source_file>
/data/baiqing/PycharmProjects/Reinvent-master-3.2/result/LINK_invent/BTK/process_docking_weight1_custom_product_contain_oxygen_bond_distance_aromatic_linkinvent_7_9_3/rearranged_h_0073.sdf

> <i_m_source_file_index>
10

> <r_mmod_Potential_Energy-OPLS-2005>
369.118286132812

> <r_mmod_Stretch_Energy-OPLS-2005>
176.540115356445

> <r_mmod_Bend_Energy-OPLS-2005>
225.67366027832

> <r_mmod_Torsional_Energy-OPLS-2005>
276.733978271484

> <r_mmod_Improper_Torsional_Energy-OPLS-2005>
8.25629234313965

> <r_mmod_Van_der_Waal_Energy-OPLS-2005>
144.447967529297

> <r_mmod_Electrostatic_Energy-OPLS-2005>
-336.265502929688

> <r_mmod_Solvation_Energy-OPLS-2005>
-250.983123779297

> <b_mmod_Minimization_Converged-OPLS-2005>
0

> <r_mmod_RMS_Derivative-OPLS-2005>
1.73975586891174

$$$$
10
                    3D
 Structure written by MMmdl.
161169  0  0  1  0            999 V2000
  -30.6698  -14.5005   20.5667 C   0  0  0  0  0  0
  -30.4405  -12.3244   19.4156 C   0  0  0  0  0  0
  -29.5015  -12.5088   18.2046 C   0  0  0  0  0  0
  -28.0219  -12.3651   18.6181 C   0  0  0  0  0  0
  -27.6675  -13.1994   19.8767 C   0  0  2  0  0  0
  -28.7108  -12.9640   20.9927 C   0  0  0  0  0  0
  -25.2630  -13.8148   20.5678 C   0  0  0  0  0  0
  -24.1859  -13.0450   20.9168 C   0  0  0  0  0  0
  -24.6387  -11.6907   20.8713 C   0  0  0  0  0  0
  -23.9039  -10.4306   21.0382 C   0  0  0  0  0  0
  -24.3592   -9.4227   21.9166 C   0  0  0  0  0  0
  -23.6272   -8.2256   22.0751 C   0  0  0  0  0  0
  -22.4253   -8.0285   21.3541 C   0  0  0  0  0  0
  -21.9870   -9.0261   20.4653 C   0  0  0  0  0  0
  -22.7194  -10.2142   20.3053 C   0  0  0  0  0  0
  -21.6855   -6.0715   22.5269 C   0  0  0  0  0  0
  -21.4023   -6.5622   23.8199 C   0  0  0  0  0  0
  -21.3668   -5.6780   24.9163 C   0  0  0  0  0  0
  -21.6037   -4.3038   24.7219 C   0  0  0  0  0  0
  -21.8827   -3.8130   23.4339 C   0  0  0  0  0  0
  -21.9201   -4.6942   22.3389 C   0  0  0  0  0  0
  -22.7884  -13.5272   21.1813 C   0  0  0  0  0  0
  -22.1663   -4.2125   21.0967 F   0  0  0  0  0  0
  -21.5628   -3.4527   25.7734 F   0  0  0  0  0  0
  -30.0415  -13.2960   20.4472 N   0  0  0  0  0  0
  -26.3059  -12.9297   20.3372 N   0  0  0  0  0  0
  -25.9313  -11.6464   20.5748 N   0  0  0  0  0  0
  -22.0487  -12.8314   22.0378 N   0  0  0  0  0  0
  -25.4393  -15.1859   20.4078 N   0  0  0  0  0  0
  -31.7873  -14.7177   20.0912 O   0  0  0  0  0  0
  -21.6637   -6.8862   21.4231 O   0  0  0  0  0  0
  -22.3592  -14.5566   20.6630 O   0  0  0  0  0  0
  -24.6149  -31.8652   23.2097 C   0  0  0  0  0  0
  -25.9041  -32.4805   23.8388 C   0  0  1  0  0  0
  -27.2392  -27.4294   20.0971 C   0  0  0  0  0  0
  -25.5901  -33.8602   24.2328 N   0  0  0  0  0  0
  -23.4053  -30.4872   21.5486 C   0  0  2  0  0  0
  -24.8556  -28.9512   20.1155 C   0  0  0  0  0  0
  -22.7409  -29.4636   22.4974 C   0  0  0  0  0  0
  -18.0274  -28.1383   22.8467 C   0  0  0  0  0  0
  -24.1487  -36.7311   23.2626 C   0  0  0  0  0  0
  -25.9350  -30.8272   21.3685 C   0  0  0  0  0  0
  -26.0145  -29.4602   20.7172 C   0  0  0  0  0  0
  -27.2104  -28.7041   20.7110 C   0  0  0  0  0  0
  -26.0702  -26.9383   19.4837 C   0  0  0  0  0  0
  -24.8780  -27.6882   19.4970 C   0  0  0  0  0  0
  -23.6160  -29.8174   20.1635 C   0  0  0  0  0  0
  -25.4097  -36.3096   24.0334 C   0  0  1  0  0  0
  -20.5858  -28.3672   23.1310 C   0  0  2  0  0  0
  -20.6766  -26.9406   22.5422 C   0  0  0  0  0  0
  -19.5761  -26.6384   21.5202 C   0  0  0  0  0  0
  -18.1927  -26.7936   22.1590 C   0  0  0  0  0  0
  -19.1519  -28.8844   23.2884 C   0  0  0  0  0  0
  -18.9448  -30.1443   23.8913 C   0  0  0  0  0  0
  -17.6451  -30.6581   24.0570 C   0  0  0  0  0  0
  -25.9028  -34.9460   23.5127 C   0  0  0  0  0  0
  -16.5344  -29.9084   23.6329 C   0  0  0  0  0  0
  -16.7262  -28.6502   23.0342 C   0  0  0  0  0  0
  -26.4475  -31.6591   25.0717 C   0  0  0  0  0  0
  -25.3753  -31.3736   26.1493 C   0  0  0  0  0  0
  -27.0316  -30.3026   24.6121 C   0  0  0  0  0  0
  -27.6071  -32.4311   25.7448 C   0  0  0  0  0  0
  -27.5593  -37.1783   24.8428 C   0  0  0  0  0  0
  -21.4136  -29.3031   22.3712 N   0  0  0  0  0  0
  -26.4276  -37.3788   23.9418 N   0  0  0  0  0  0
  -24.6695  -31.0743   22.1008 N   0  0  0  0  0  0
  -23.4167  -28.8164   23.3016 O   0  0  0  0  0  0
  -28.3781  -26.6534   20.0682 O   0  0  0  0  0  0
  -26.5586  -34.8916   22.4687 O   0  0  0  0  0  0
  -23.5344  -32.1409   23.7490 O   0  0  0  0  0  0
  -28.7445  -17.5471   21.4748 C   0  0  0  0  0  0
  -28.6198  -18.9493   21.3861 C   0  0  0  0  0  0
  -30.9575  -17.6708   20.5042 C   0  0  0  0  0  0
  -30.8427  -19.0855   20.4225 C   0  0  0  0  0  0
  -29.9074  -16.8812   21.0341 C   0  0  0  0  0  0
  -29.6663  -19.7512   20.8634 C   0  0  0  0  0  0
  -30.1239  -26.0115   21.6440 C   0  0  0  0  0  0
  -28.6737  -22.0651   21.2007 C   0  0  0  0  0  0
  -32.0094  -19.8841   19.8605 C   0  0  0  0  0  0
  -30.4961  -25.7714   23.1009 C   0  0  0  0  0  0
  -28.0360  -24.4765   21.2849 C   0  0  0  0  0  0
  -28.6315  -25.9283   21.2855 C   0  0  2  0  0  0
  -29.9213  -15.4516   21.1668 N   0  0  0  0  0  0
  -29.5908  -21.1874   20.7360 N   0  0  0  0  0  0
  -28.8989  -23.3477   20.8540 N   0  0  0  0  0  0
  -30.9927  -26.2678   20.8034 O   0  0  0  0  0  0
  -27.7103  -21.7558   21.9015 O   0  0  0  0  0  0
  -31.4796  -12.4507   19.1075 H   0  0  0  0  0  0
  -30.3690  -11.3095   19.8073 H   0  0  0  0  0  0
  -29.7419  -11.7800   17.4288 H   0  0  0  0  0  0
  -29.6666  -13.4913   17.7596 H   0  0  0  0  0  0
  -27.8323  -11.3091   18.8110 H   0  0  0  0  0  0
  -27.3739  -12.6440   17.7867 H   0  0  0  0  0  0
  -27.7169  -14.2476   19.5855 H   0  0  0  0  0  0
  -28.6971  -11.9189   21.3039 H   0  0  0  0  0  0
  -28.4631  -13.5297   21.8908 H   0  0  0  0  0  0
  -25.2724   -9.5705   22.4741 H   0  0  0  0  0  0
  -23.9976   -7.4655   22.7476 H   0  0  0  0  0  0
  -21.0788   -8.8784   19.8969 H   0  0  0  0  0  0
  -22.3636  -10.9682   19.6174 H   0  0  0  0  0  0
  -21.2021   -7.6130   23.9692 H   0  0  0  0  0  0
  -21.1476   -6.0506   25.9059 H   0  0  0  0  0  0
  -22.0597   -2.7592   23.2852 H   0  0  0  0  0  0
  -22.4061  -12.0002   22.4839 H   0  0  0  0  0  0
  -21.1104  -13.1393   22.2513 H   0  0  0  0  0  0
  -24.6734  -15.8428   20.5024 H   0  0  0  0  0  0
  -26.2872  -15.6157   20.0589 H   0  0  0  0  0  0
  -26.7103  -32.5518   23.1141 H   0  0  0  0  0  0
  -25.0101  -33.9754   25.0513 H   0  0  0  0  0  0
  -22.6950  -31.3043   21.4071 H   0  0  0  0  0  0
  -23.3754  -35.9635   23.3242 H   0  0  0  0  0  0
  -24.3615  -36.8977   22.2054 H   0  0  0  0  0  0
  -23.7237  -37.6495   23.6685 H   0  0  0  0  0  0
  -26.0510  -31.5938   20.6013 H   0  0  0  0  0  0
  -26.8213  -30.8793   21.9894 H   0  0  0  0  0  0
  -28.1072  -29.0921   21.1737 H   0  0  0  0  0  0
  -26.0805  -25.9721   18.9998 H   0  0  0  0  0  0
  -23.9897  -27.2928   19.0242 H   0  0  0  0  0  0
  -23.7247  -30.5911   19.4022 H   0  0  0  0  0  0
  -22.7407  -29.2352   19.8688 H   0  0  0  0  0  0
  -25.1275  -36.1943   25.0826 H   0  0  0  0  0  0
  -20.9945  -28.3255   24.1430 H   0  0  0  0  0  0
  -20.5659  -26.2278   23.3602 H   0  0  0  0  0  0
  -21.6647  -26.7450   22.1236 H   0  0  0  0  0  0
  -19.6929  -25.6299   21.1221 H   0  0  0  0  0  0
  -19.6713  -27.3196   20.6732 H   0  0  0  0  0  0
  -17.4208  -26.6689   21.3978 H   0  0  0  0  0  0
  -18.0313  -26.0070   22.8974 H   0  0  0  0  0  0
  -19.7922  -30.7251   24.2294 H   0  0  0  0  0  0
  -17.5009  -31.6263   24.5162 H   0  0  0  0  0  0
  -15.5350  -30.2991   23.7650 H   0  0  0  0  0  0
  -15.8653  -28.0826   22.7067 H   0  0  0  0  0  0
  -24.5887  -30.7111   25.7866 H   0  0  0  0  0  0
  -24.8991  -32.2913   26.4955 H   0  0  0  0  0  0
  -25.8117  -30.8899   27.0239 H   0  0  0  0  0  0
  -26.2870  -29.6758   24.1199 H   0  0  0  0  0  0
  -27.4103  -29.7302   25.4599 H   0  0  0  0  0  0
  -27.8695  -30.4345   23.9271 H   0  0  0  0  0  0
  -27.2718  -33.3609   26.2054 H   0  0  0  0  0  0
  -28.3843  -32.6869   25.0234 H   0  0  0  0  0  0
  -28.0772  -31.8413   26.5326 H   0  0  0  0  0  0
  -28.2546  -38.0144   24.7583 H   0  0  0  0  0  0
  -28.1161  -36.2694   24.6104 H   0  0  0  0  0  0
  -27.2347  -37.1251   25.8833 H   0  0  0  0  0  0
  -20.9299  -29.8751   21.6932 H   0  0  0  0  0  0
  -26.0155  -38.2842   24.1506 H   0  0  0  0  0  0
  -27.9183  -16.9797   21.8792 H   0  0  0  0  0  0
  -27.6900  -19.3786   21.7266 H   0  0  0  0  0  0
  -31.8671  -17.2045   20.1547 H   0  0  0  0  0  0
  -32.8595  -19.2435   19.6259 H   0  0  0  0  0  0
  -32.3468  -20.6237   20.5877 H   0  0  0  0  0  0
  -31.7224  -20.4034   18.9451 H   0  0  0  0  0  0
  -29.7563  -25.1353   23.5859 H   0  0  0  0  0  0
  -30.5314  -26.7199   23.6362 H   0  0  0  0  0  0
  -31.4687  -25.2856   23.1769 H   0  0  0  0  0  0
  -27.1219  -24.4560   20.6924 H   0  0  0  0  0  0
  -27.7161  -24.2812   22.3110 H   0  0  0  0  0  0
  -28.1241  -26.4687   22.0863 H   0  0  0  0  0  0
  -29.0877  -15.0649   21.5821 H   0  0  0  0  0  0
  -30.3607  -21.6008   20.2327 H   0  0  0  0  0  0
  -29.6791  -23.5637   20.2476 H   0  0  0  0  0  0
  1 25  1  0  0  0
  1 30  2  0  0  0
  1 83  1  0  0  0
  2  3  1  0  0  0
  2 25  1  0  0  0
  2 88  1  0  0  0
  2 89  1  0  0  0
  3  4  1  0  0  0
  3 90  1  0  0  0
  3 91  1  0  0  0
  4  5  1  0  0  0
  4 92  1  0  0  0
  4 93  1  0  0  0
  5  6  1  0  0  0
  5 26  1  0  0  0
  5 94  1  0  0  0
  6 25  1  0  0  0
  6 95  1  0  0  0
  6 96  1  0  0  0
  7  8  2  0  0  0
  7 26  1  0  0  0
  7 29  1  0  0  0
  8  9  1  0  0  0
  8 22  1  0  0  0
  9 10  1  0  0  0
  9 27  2  0  0  0
 10 11  2  0  0  0
 10 15  1  0  0  0
 11 12  1  0  0  0
 11 97  1  0  0  0
 12 13  2  0  0  0
 12 98  1  0  0  0
 13 14  1  0  0  0
 13 31  1  0  0  0
 14 15  2  0  0  0
 14 99  1  0  0  0
 15100  1  0  0  0
 16 17  2  0  0  0
 16 21  1  0  0  0
 16 31  1  0  0  0
 17 18  1  0  0  0
 17101  1  0  0  0
 18 19  2  0  0  0
 18102  1  0  0  0
 19 20  1  0  0  0
 19 24  1  0  0  0
 20 21  2  0  0  0
 20103  1  0  0  0
 21 23  1  0  0  0
 22 28  1  0  0  0
 22 32  2  0  0  0
 26 27  1  0  0  0
 28104  1  0  0  0
 28105  1  0  0  0
 29106  1  0  0  0
 29107  1  0  0  0
 33 34  1  0  0  0
 33 66  1  0  0  0
 33 70  2  0  0  0
 34 36  1  0  0  0
 34 59  1  0  0  0
 34108  1  0  0  0
 35 44  2  0  0  0
 35 45  1  0  0  0
 35 68  1  0  0  0
 36 56  1  0  0  0
 36109  1  0  0  0
 37 39  1  0  0  0
 37 47  1  0  0  0
 37 66  1  0  0  0
 37110  1  0  0  0
 38 43  2  0  0  0
 38 46  1  0  0  0
 38 47  1  0  0  0
 39 64  1  0  0  0
 39 67  2  0  0  0
 40 52  1  0  0  0
 40 53  2  0  0  0
 40 58  1  0  0  0
 41111  1  0  0  0
 41112  1  0  0  0
 41113  1  0  0  0
 41 48  1  0  0  0
 42 43  1  0  0  0
 42 66  1  0  0  0
 42114  1  0  0  0
 42115  1  0  0  0
 43 44  1  0  0  0
 44116  1  0  0  0
 45 46  2  0  0  0
 45117  1  0  0  0
 46118  1  0  0  0
 47119  1  0  0  0
 47120  1  0  0  0
 48 56  1  0  0  0
 48 65  1  0  0  0
 48121  1  0  0  0
 49 50  1  0  0  0
 49 53  1  0  0  0
 49 64  1  0  0  0
 49122  1  0  0  0
 50 51  1  0  0  0
 50123  1  0  0  0
 50124  1  0  0  0
 51 52  1  0  0  0
 51125  1  0  0  0
 51126  1  0  0  0
 52127  1  0  0  0
 52128  1  0  0  0
 53 54  1  0  0  0
 54 55  2  0  0  0
 54129  1  0  0  0
 55 57  1  0  0  0
 55130  1  0  0  0
 56 69  2  0  0  0
 57 58  2  0  0  0
 57131  1  0  0  0
 58132  1  0  0  0
 59 60  1  0  0  0
 59 61  1  0  0  0
 59 62  1  0  0  0
 60133  1  0  0  0
 60134  1  0  0  0
 60135  1  0  0  0
 61136  1  0  0  0
 61137  1  0  0  0
 61138  1  0  0  0
 62139  1  0  0  0
 62140  1  0  0  0
 62141  1  0  0  0
 63 65  1  0  0  0
 63142  1  0  0  0
 63143  1  0  0  0
 63144  1  0  0  0
 64145  1  0  0  0
 65146  1  0  0  0
 68 82  1  0  0  0
 71 72  2  0  0  0
 71 75  1  0  0  0
 71147  1  0  0  0
 72 76  1  0  0  0
 72148  1  0  0  0
 73 74  1  0  0  0
 73 75  2  0  0  0
 73149  1  0  0  0
 74 76  2  0  0  0
 74 79  1  0  0  0
 75 83  1  0  0  0
 76 84  1  0  0  0
 77 80  1  0  0  0
 77 82  1  0  0  0
 77 86  2  0  0  0
 78 84  1  0  0  0
 78 85  1  0  0  0
 78 87  2  0  0  0
 79150  1  0  0  0
 79151  1  0  0  0
 79152  1  0  0  0
 80153  1  0  0  0
 80154  1  0  0  0
 80155  1  0  0  0
 81 85  1  0  0  0
 81156  1  0  0  0
 81157  1  0  0  0
 81 82  1  0  0  0
 82158  1  0  0  0
 83159  1  0  0  0
 84160  1  0  0  0
 85161  1  0  0  0
M  ISO  4   1 100  68 101  82 101  83 100
M  END
> <chiral flag>
0

> <version>
0

> <s_m_source_file>
/data/baiqing/PycharmProjects/Reinvent-master-3.2/result/LINK_invent/BTK/process_docking_weight1_custom_product_contain_oxygen_bond_distance_aromatic_linkinvent_7_9_3/rearranged_h_0073.sdf

> <i_m_source_file_index>
11

> <r_mmod_Potential_Energy-OPLS-2005>
-188.338470458984

> <r_mmod_Stretch_Energy-OPLS-2005>
44.557445526123

> <r_mmod_Bend_Energy-OPLS-2005>
119.534156799316

> <r_mmod_Torsional_Energy-OPLS-2005>
236.099594116211

> <r_mmod_Improper_Torsional_Energy-OPLS-2005>
3.57859659194946

> <r_mmod_Van_der_Waal_Energy-OPLS-2005>
151.231735229492

> <r_mmod_Electrostatic_Energy-OPLS-2005>
-506.17822265625

> <r_mmod_Solvation_Energy-OPLS-2005>
-251.621688842773

> <b_mmod_Minimization_Converged-OPLS-2005>
0

> <r_mmod_RMS_Derivative-OPLS-2005>
2.46425580978394

$$$$
11
                    3D
 Structure written by MMmdl.
156164  0  0  1  0            999 V2000
  -30.6875  -14.5140   20.5423 C   0  0  0  0  0  0
  -30.4231  -12.3191   19.4395 C   0  0  0  0  0  0
  -29.5004  -12.5068   18.2162 C   0  0  0  0  0  0
  -28.0208  -12.3637   18.6236 C   0  0  0  0  0  0
  -27.6595  -13.2117   19.8727 C   0  0  2  0  0  0
  -28.7013  -13.0161   20.9990 C   0  0  0  0  0  0
  -25.2586  -13.8165   20.5691 C   0  0  0  0  0  0
  -24.1836  -13.0439   20.9183 C   0  0  0  0  0  0
  -24.6395  -11.6904   20.8723 C   0  0  0  0  0  0
  -23.9056  -10.4290   21.0391 C   0  0  0  0  0  0
  -24.3610   -9.4214   21.9176 C   0  0  0  0  0  0
  -23.6285   -8.2248   22.0747 C   0  0  0  0  0  0
  -22.4264   -8.0280   21.3542 C   0  0  0  0  0  0
  -21.9899   -9.0250   20.4638 C   0  0  0  0  0  0
  -22.7227  -10.2134   20.3039 C   0  0  0  0  0  0
  -21.6856   -6.0740   22.5288 C   0  0  0  0  0  0
  -21.4017   -6.5649   23.8222 C   0  0  0  0  0  0
  -21.3651   -5.6797   24.9181 C   0  0  0  0  0  0
  -21.6039   -4.3062   24.7232 C   0  0  0  0  0  0
  -21.8815   -3.8151   23.4355 C   0  0  0  0  0  0
  -21.9196   -4.6968   22.3413 C   0  0  0  0  0  0
  -22.7859  -13.5239   21.1852 C   0  0  0  0  0  0
  -22.1660   -4.2156   21.0993 F   0  0  0  0  0  0
  -21.5620   -3.4541   25.7740 F   0  0  0  0  0  0
  -30.0318  -13.3215   20.4458 N   0  0  0  0  0  0
  -26.3017  -12.9342   20.3352 N   0  0  0  0  0  0
  -25.9325  -11.6498   20.5757 N   0  0  0  0  0  0
  -22.0498  -12.8222   22.0405 N   0  0  0  0  0  0
  -25.4332  -15.1883   20.4115 N   0  0  0  0  0  0
  -31.8284  -14.6641   20.0981 O   0  0  0  0  0  0
  -21.6635   -6.8877   21.4244 O   0  0  0  0  0  0
  -22.3555  -14.5564   20.6729 O   0  0  0  0  0  0
  -24.6170  -31.8650   23.2083 C   0  0  0  0  0  0
  -25.9059  -32.4804   23.8383 C   0  0  1  0  0  0
  -27.2388  -27.4192   20.0998 C   0  0  0  0  0  0
  -25.5922  -33.8607   24.2328 N   0  0  0  0  0  0
  -23.4083  -30.4869   21.5483 C   0  0  2  0  0  0
  -24.8600  -28.9525   20.1132 C   0  0  0  0  0  0
  -22.7420  -29.4636   22.4968 C   0  0  0  0  0  0
  -18.0256  -28.1372   22.8480 C   0  0  0  0  0  0
  -24.1489  -36.7298   23.2625 C   0  0  0  0  0  0
  -25.9403  -30.8255   21.3666 C   0  0  0  0  0  0
  -26.0213  -29.4603   20.7119 C   0  0  0  0  0  0
  -27.2177  -28.7010   20.7035 C   0  0  0  0  0  0
  -26.0649  -26.9312   19.4938 C   0  0  0  0  0  0
  -24.8770  -27.6872   19.5010 C   0  0  0  0  0  0
  -23.6210  -29.8185   20.1641 C   0  0  0  0  0  0
  -25.4099  -36.3094   24.0341 C   0  0  1  0  0  0
  -20.5854  -28.3656   23.1306 C   0  0  2  0  0  0
  -20.6764  -26.9394   22.5413 C   0  0  0  0  0  0
  -19.5755  -26.6377   21.5204 C   0  0  0  0  0  0
  -18.1921  -26.7923   22.1597 C   0  0  0  0  0  0
  -19.1511  -28.8829   23.2897 C   0  0  0  0  0  0
  -18.9441  -30.1437   23.8909 C   0  0  0  0  0  0
  -17.6447  -30.6597   24.0540 C   0  0  0  0  0  0
  -25.9046  -34.9469   23.5132 C   0  0  0  0  0  0
  -16.5334  -29.9090   23.6332 C   0  0  0  0  0  0
  -16.7246  -28.6503   23.0358 C   0  0  0  0  0  0
  -26.4494  -31.6577   25.0706 C   0  0  0  0  0  0
  -25.3768  -31.3670   26.1460 C   0  0  0  0  0  0
  -27.0304  -30.3008   24.6081 C   0  0  0  0  0  0
  -27.6087  -32.4278   25.7461 C   0  0  0  0  0  0
  -27.5617  -37.1748   24.8427 C   0  0  0  0  0  0
  -21.4142  -29.3019   22.3707 N   0  0  0  0  0  0
  -26.4264  -37.3806   23.9476 N   0  0  0  0  0  0
  -24.6734  -31.0735   22.0990 N   0  0  0  0  0  0
  -23.4174  -28.8168   23.3017 O   0  0  0  0  0  0
  -28.3499  -26.6021   20.1264 O   0  0  0  0  0  0
  -26.5595  -34.8931   22.4685 O   0  0  0  0  0  0
  -23.5354  -32.1391   23.7472 O   0  0  0  0  0  0
  -31.3928  -19.0097   20.3174 C   0  0  0  0  0  0
  -29.1239  -19.2262   21.1238 C   0  0  0  0  0  0
  -31.3121  -17.6017   20.4347 C   0  0  0  0  0  0
  -29.0405  -17.8144   21.2393 C   0  0  0  0  0  0
  -30.3002  -19.8508   20.6428 C   0  0  0  0  0  0
  -30.1256  -16.9718   20.8913 C   0  0  0  0  0  0
  -28.7316  -24.3892   21.1327 C   0  0  0  0  0  0
  -28.3583  -25.6939   21.1661 C   0  0  0  0  0  0
  -30.4405  -21.3630   20.5268 C   0  0  0  0  0  0
  -28.4055  -23.5824   18.7006 C   0  0  0  0  0  0
  -29.2553  -23.5308   19.9758 C   0  0  2  0  0  0
  -28.8144  -24.3694   17.7164 N   0  0  0  0  0  0
  -29.9535  -15.5443   21.0291 N   0  0  0  0  0  0
  -29.3277  -22.1004   20.3506 N   0  0  0  0  0  0
  -31.5607  -21.8759   20.5326 O   0  0  0  0  0  0
  -27.3796  -22.9089   18.5965 O   0  0  0  0  0  0
  -31.4705  -12.4093   19.1449 H   0  0  0  0  0  0
  -30.3172  -11.3137   19.8499 H   0  0  0  0  0  0
  -29.7458  -11.7794   17.4415 H   0  0  0  0  0  0
  -29.6667  -13.4920   17.7762 H   0  0  0  0  0  0
  -27.8351  -11.3085   18.8267 H   0  0  0  0  0  0
  -27.3713  -12.6278   17.7883 H   0  0  0  0  0  0
  -27.6956  -14.2559   19.5627 H   0  0  0  0  0  0
  -28.6801  -11.9864   21.3605 H   0  0  0  0  0  0
  -28.4586  -13.6327   21.8652 H   0  0  0  0  0  0
  -25.2750   -9.5700   22.4760 H   0  0  0  0  0  0
  -23.9989   -7.4646   22.7472 H   0  0  0  0  0  0
  -21.0827   -8.8769   19.8950 H   0  0  0  0  0  0
  -22.3678  -10.9669   19.6147 H   0  0  0  0  0  0
  -21.2009   -7.6160   23.9731 H   0  0  0  0  0  0
  -21.1472   -6.0529   25.9090 H   0  0  0  0  0  0
  -22.0600   -2.7610   23.2857 H   0  0  0  0  0  0
  -22.4099  -11.9864   22.4762 H   0  0  0  0  0  0
  -21.1127  -13.1267   22.2620 H   0  0  0  0  0  0
  -24.6687  -15.8459   20.5193 H   0  0  0  0  0  0
  -26.2858  -15.6241   20.0848 H   0  0  0  0  0  0
  -26.7124  -32.5510   23.1140 H   0  0  0  0  0  0
  -25.0104  -33.9770   25.0495 H   0  0  0  0  0  0
  -22.6975  -31.3034   21.4052 H   0  0  0  0  0  0
  -23.3811  -35.9560   23.3156 H   0  0  0  0  0  0
  -24.3621  -36.9044   22.2066 H   0  0  0  0  0  0
  -23.7147  -37.6426   23.6714 H   0  0  0  0  0  0
  -26.0568  -31.5924   20.5995 H   0  0  0  0  0  0
  -26.8269  -30.8743   21.9877 H   0  0  0  0  0  0
  -28.1131  -29.0810   21.1752 H   0  0  0  0  0  0
  -26.0709  -25.9533   19.0327 H   0  0  0  0  0  0
  -23.9834  -27.2880   19.0415 H   0  0  0  0  0  0
  -23.7290  -30.5923   19.4032 H   0  0  0  0  0  0
  -22.7473  -29.2358   19.8672 H   0  0  0  0  0  0
  -25.1254  -36.1916   25.0821 H   0  0  0  0  0  0
  -20.9917  -28.3211   24.1432 H   0  0  0  0  0  0
  -20.5659  -26.2256   23.3589 H   0  0  0  0  0  0
  -21.6639  -26.7451   22.1190 H   0  0  0  0  0  0
  -19.6920  -25.6288   21.1235 H   0  0  0  0  0  0
  -19.6719  -27.3188   20.6739 H   0  0  0  0  0  0
  -17.4192  -26.6652   21.4000 H   0  0  0  0  0  0
  -18.0341  -26.0065   22.8991 H   0  0  0  0  0  0
  -19.7918  -30.7238   24.2296 H   0  0  0  0  0  0
  -17.5010  -31.6292   24.5113 H   0  0  0  0  0  0
  -15.5337  -30.2997   23.7695 H   0  0  0  0  0  0
  -15.8626  -28.0838   22.7095 H   0  0  0  0  0  0
  -24.5931  -30.7032   25.7794 H   0  0  0  0  0  0
  -24.8980  -32.2814   26.4969 H   0  0  0  0  0  0
  -25.8130  -30.8782   27.0179 H   0  0  0  0  0  0
  -26.2822  -29.6759   24.1189 H   0  0  0  0  0  0
  -27.4119  -29.7248   25.4524 H   0  0  0  0  0  0
  -27.8649  -30.4311   23.9188 H   0  0  0  0  0  0
  -27.2748  -33.3595   26.2046 H   0  0  0  0  0  0
  -28.3910  -32.6805   25.0288 H   0  0  0  0  0  0
  -28.0739  -31.8377   26.5368 H   0  0  0  0  0  0
  -28.2457  -38.0221   24.7762 H   0  0  0  0  0  0
  -28.1294  -36.2787   24.5876 H   0  0  0  0  0  0
  -27.2392  -37.0912   25.8822 H   0  0  0  0  0  0
  -20.9297  -29.8735   21.6931 H   0  0  0  0  0  0
  -26.0137  -38.2838   24.1651 H   0  0  0  0  0  0
  -32.3196  -19.4475   19.9713 H   0  0  0  0  0  0
  -28.2736  -19.8258   21.4175 H   0  0  0  0  0  0
  -32.1873  -17.0304   20.1656 H   0  0  0  0  0  0
  -28.1183  -17.3819   21.6032 H   0  0  0  0  0  0
  -28.6582  -23.8580   22.0705 H   0  0  0  0  0  0
  -28.0069  -26.1433   22.0858 H   0  0  0  0  0  0
  -30.2557  -23.9003   19.7398 H   0  0  0  0  0  0
  -29.6566  -24.9173   17.8220 H   0  0  0  0  0  0
  -28.2909  -24.4240   16.8556 H   0  0  0  0  0  0
  -29.0608  -15.2547   21.3970 H   0  0  0  0  0  0
  -28.4551  -21.5985   20.2702 H   0  0  0  0  0  0
  1 25  1  0  0  0
  1 30  2  0  0  0
  1 83  1  0  0  0
  2  3  1  0  0  0
  2 25  1  0  0  0
  2 87  1  0  0  0
  2 88  1  0  0  0
  3  4  1  0  0  0
  3 89  1  0  0  0
  3 90  1  0  0  0
  4  5  1  0  0  0
  4 91  1  0  0  0
  4 92  1  0  0  0
  5  6  1  0  0  0
  5 26  1  0  0  0
  5 93  1  0  0  0
  6 25  1  0  0  0
  6 94  1  0  0  0
  6 95  1  0  0  0
  7  8  2  0  0  0
  7 26  1  0  0  0
  7 29  1  0  0  0
  8  9  1  0  0  0
  8 22  1  0  0  0
  9 10  1  0  0  0
  9 27  2  0  0  0
 10 11  2  0  0  0
 10 15  1  0  0  0
 11 12  1  0  0  0
 11 96  1  0  0  0
 12 13  2  0  0  0
 12 97  1  0  0  0
 13 14  1  0  0  0
 13 31  1  0  0  0
 14 15  2  0  0  0
 14 98  1  0  0  0
 15 99  1  0  0  0
 16 17  2  0  0  0
 16 21  1  0  0  0
 16 31  1  0  0  0
 17 18  1  0  0  0
 17100  1  0  0  0
 18 19  2  0  0  0
 18101  1  0  0  0
 19 20  1  0  0  0
 19 24  1  0  0  0
 20 21  2  0  0  0
 20102  1  0  0  0
 21 23  1  0  0  0
 22 28  1  0  0  0
 22 32  2  0  0  0
 26 27  1  0  0  0
 28103  1  0  0  0
 28104  1  0  0  0
 29105  1  0  0  0
 29106  1  0  0  0
 33 34  1  0  0  0
 33 66  1  0  0  0
 33 70  2  0  0  0
 34 36  1  0  0  0
 34 59  1  0  0  0
 34107  1  0  0  0
 35 44  2  0  0  0
 35 45  1  0  0  0
 35 68  1  0  0  0
 36 56  1  0  0  0
 36108  1  0  0  0
 37 39  1  0  0  0
 37 47  1  0  0  0
 37 66  1  0  0  0
 37109  1  0  0  0
 38 43  2  0  0  0
 38 46  1  0  0  0
 38 47  1  0  0  0
 39 64  1  0  0  0
 39 67  2  0  0  0
 40 52  1  0  0  0
 40 53  2  0  0  0
 40 58  1  0  0  0
 41110  1  0  0  0
 41111  1  0  0  0
 41112  1  0  0  0
 41 48  1  0  0  0
 42 43  1  0  0  0
 42 66  1  0  0  0
 42113  1  0  0  0
 42114  1  0  0  0
 43 44  1  0  0  0
 44115  1  0  0  0
 45 46  2  0  0  0
 45116  1  0  0  0
 46117  1  0  0  0
 47118  1  0  0  0
 47119  1  0  0  0
 48 56  1  0  0  0
 48 65  1  0  0  0
 48120  1  0  0  0
 49 50  1  0  0  0
 49 53  1  0  0  0
 49 64  1  0  0  0
 49121  1  0  0  0
 50 51  1  0  0  0
 50122  1  0  0  0
 50123  1  0  0  0
 51 52  1  0  0  0
 51124  1  0  0  0
 51125  1  0  0  0
 52126  1  0  0  0
 52127  1  0  0  0
 53 54  1  0  0  0
 54 55  2  0  0  0
 54128  1  0  0  0
 55 57  1  0  0  0
 55129  1  0  0  0
 56 69  2  0  0  0
 57 58  2  0  0  0
 57130  1  0  0  0
 58131  1  0  0  0
 59 60  1  0  0  0
 59 61  1  0  0  0
 59 62  1  0  0  0
 60132  1  0  0  0
 60133  1  0  0  0
 60134  1  0  0  0
 61135  1  0  0  0
 61136  1  0  0  0
 61137  1  0  0  0
 62138  1  0  0  0
 62139  1  0  0  0
 62140  1  0  0  0
 63 65  1  0  0  0
 63141  1  0  0  0
 63142  1  0  0  0
 63143  1  0  0  0
 64144  1  0  0  0
 65145  1  0  0  0
 68 78  1  0  0  0
 71 73  2  0  0  0
 71 75  1  0  0  0
 71146  1  0  0  0
 72 74  1  0  0  0
 72 75  2  0  0  0
 72147  1  0  0  0
 73 76  1  0  0  0
 73148  1  0  0  0
 74 76  2  0  0  0
 74149  1  0  0  0
 75 79  1  0  0  0
 76 83  1  0  0  0
 77 78  2  0  0  0
 77 81  1  0  0  0
 77150  1  0  0  0
 78151  1  0  0  0
 79 84  1  0  0  0
 79 85  2  0  0  0
 80 81  1  0  0  0
 80 82  1  0  0  0
 80 86  2  0  0  0
 81 84  1  0  0  0
 81152  1  0  0  0
 82153  1  0  0  0
 82154  1  0  0  0
 83155  1  0  0  0
 84156  1  0  0  0
M  ISO  4   1 100  68 101  78 101  83 100
M  END
> <chiral flag>
0

> <version>
0

> <s_m_source_file>
/data/baiqing/PycharmProjects/Reinvent-master-3.2/result/LINK_invent/BTK/process_docking_weight1_custom_product_contain_oxygen_bond_distance_aromatic_linkinvent_7_9_3/rearranged_h_0073.sdf

> <i_m_source_file_index>
12

> <r_mmod_Potential_Energy-OPLS-2005>
-319.385833740234

> <r_mmod_Stretch_Energy-OPLS-2005>
43.8212394714355

> <r_mmod_Bend_Energy-OPLS-2005>
111.993003845215

> <r_mmod_Torsional_Energy-OPLS-2005>
209.020080566406

> <r_mmod_Improper_Torsional_Energy-OPLS-2005>
4.54235553741455

> <r_mmod_Van_der_Waal_Energy-OPLS-2005>
148.693344116211

> <r_mmod_Electrostatic_Energy-OPLS-2005>
-606.447082519531

> <r_mmod_Solvation_Energy-OPLS-2005>
-249.812515258789

> <b_mmod_Minimization_Converged-OPLS-2005>
0

> <r_mmod_RMS_Derivative-OPLS-2005>
1.75500500202179

$$$$
12
                    3D
 Structure written by MMmdl.
175185  0  0  1  0            999 V2000
  -30.7912  -14.3129   20.6998 C   0  0  0  0  0  0
  -30.4124  -12.2624   19.3892 C   0  0  0  0  0  0
  -29.4789  -12.5190   18.1919 C   0  0  0  0  0  0
  -28.0046  -12.3741   18.6102 C   0  0  0  0  0  0
  -27.6703  -13.1975   19.8795 C   0  0  2  0  0  0
  -28.7058  -12.9358   20.9966 C   0  0  0  0  0  0
  -25.2642  -13.8146   20.5697 C   0  0  0  0  0  0
  -24.1863  -13.0445   20.9168 C   0  0  0  0  0  0
  -24.6404  -11.6898   20.8723 C   0  0  0  0  0  0
  -23.9063  -10.4305   21.0410 C   0  0  0  0  0  0
  -24.3613   -9.4216   21.9193 C   0  0  0  0  0  0
  -23.6297   -8.2243   22.0739 C   0  0  0  0  0  0
  -22.4273   -8.0289   21.3544 C   0  0  0  0  0  0
  -21.9918   -9.0267   20.4640 C   0  0  0  0  0  0
  -22.7234  -10.2150   20.3044 C   0  0  0  0  0  0
  -21.6862   -6.0738   22.5299 C   0  0  0  0  0  0
  -21.4013   -6.5628   23.8235 C   0  0  0  0  0  0
  -21.3645   -5.6777   24.9182 C   0  0  0  0  0  0
  -21.6036   -4.3037   24.7218 C   0  0  0  0  0  0
  -21.8816   -3.8151   23.4332 C   0  0  0  0  0  0
  -21.9197   -4.6983   22.3395 C   0  0  0  0  0  0
  -22.7899  -13.5255   21.1830 C   0  0  0  0  0  0
  -22.1673   -4.2179   21.0981 F   0  0  0  0  0  0
  -21.5608   -3.4507   25.7715 F   0  0  0  0  0  0
  -30.0591  -13.1969   20.4661 N   0  0  0  0  0  0
  -26.3073  -12.9313   20.3389 N   0  0  0  0  0  0
  -25.9340  -11.6474   20.5767 N   0  0  0  0  0  0
  -22.0523  -12.8258   22.0381 N   0  0  0  0  0  0
  -25.4374  -15.1857   20.4116 N   0  0  0  0  0  0
  -31.7566  -14.6450   20.0060 O   0  0  0  0  0  0
  -21.6629   -6.8894   21.4255 O   0  0  0  0  0  0
  -22.3615  -14.5591   20.6702 O   0  0  0  0  0  0
  -24.6046  -31.8711   23.2132 C   0  0  0  0  0  0
  -25.8968  -32.4831   23.8418 C   0  0  1  0  0  0
  -27.2633  -27.4872   20.1060 C   0  0  0  0  0  0
  -25.5872  -33.8625   24.2359 N   0  0  0  0  0  0
  -23.3886  -30.4931   21.5511 C   0  0  2  0  0  0
  -24.8424  -28.9568   20.1200 C   0  0  0  0  0  0
  -22.7353  -29.4660   22.5016 C   0  0  0  0  0  0
  -18.0249  -28.1382   22.8470 C   0  0  0  0  0  0
  -24.1458  -36.7287   23.2642 C   0  0  0  0  0  0
  -25.9089  -30.8544   21.3571 C   0  0  0  0  0  0
  -25.9908  -29.4903   20.7124 C   0  0  0  0  0  0
  -27.1956  -28.7658   20.7097 C   0  0  0  0  0  0
  -26.0905  -26.9456   19.5371 C   0  0  0  0  0  0
  -24.8829  -27.6769   19.5348 C   0  0  0  0  0  0
  -23.5981  -29.8164   20.1676 C   0  0  0  0  0  0
  -25.4063  -36.3117   24.0384 C   0  0  1  0  0  0
  -20.5822  -28.3629   23.1335 C   0  0  2  0  0  0
  -20.6732  -26.9377   22.5431 C   0  0  0  0  0  0
  -19.5740  -26.6382   21.5188 C   0  0  0  0  0  0
  -18.1899  -26.7938   22.1552 C   0  0  0  0  0  0
  -19.1498  -28.8815   23.2897 C   0  0  0  0  0  0
  -18.9448  -30.1431   23.8892 C   0  0  0  0  0  0
  -17.6472  -30.6611   24.0518 C   0  0  0  0  0  0
  -25.9014  -34.9489   23.5178 C   0  0  0  0  0  0
  -16.5351  -29.9112   23.6313 C   0  0  0  0  0  0
  -16.7243  -28.6515   23.0356 C   0  0  0  0  0  0
  -26.4443  -31.6606   25.0722 C   0  0  0  0  0  0
  -25.3756  -31.3780   26.1532 C   0  0  0  0  0  0
  -27.0254  -30.3044   24.6068 C   0  0  0  0  0  0
  -27.6042  -32.4338   25.7443 C   0  0  0  0  0  0
  -27.5616  -37.1728   24.8420 C   0  0  0  0  0  0
  -21.4082  -29.3022   22.3772 N   0  0  0  0  0  0
  -26.4224  -37.3834   23.9530 N   0  0  0  0  0  0
  -24.6511  -31.0891   22.0978 N   0  0  0  0  0  0
  -23.4166  -28.8202   23.3008 O   0  0  0  0  0  0
  -28.4196  -26.7346   20.0374 O   0  0  0  0  0  0
  -26.5574  -34.8947   22.4731 O   0  0  0  0  0  0
  -23.5256  -32.1439   23.7579 O   0  0  0  0  0  0
  -31.8097  -18.4369   22.0927 C   0  0  0  0  0  0
  -31.6950  -17.0990   21.6850 C   0  0  0  0  0  0
  -29.7655  -16.8356   23.1480 C   0  0  0  0  0  0
  -29.8927  -18.1718   23.5835 C   0  0  0  0  0  0
  -30.9201  -18.9875   23.0461 C   0  0  0  0  0  0
  -30.6571  -16.2928   22.2003 C   0  0  0  0  0  0
  -31.0733  -25.6037   21.3626 C   0  0  0  0  0  0
  -32.0853  -23.4158   21.7727 C   0  0  0  0  0  0
  -31.0280  -25.5788   18.9717 C   0  0  0  0  0  0
  -32.4520  -22.2716   24.0986 C   0  0  0  0  0  0
  -30.1450  -22.6249   23.2226 C   0  0  0  0  0  0
  -31.8546  -24.4155   19.5361 C   0  0  0  0  0  0
  -32.4023  -20.7942   23.6694 C   0  0  0  0  0  0
  -30.1423  -21.1923   22.6588 C   0  0  0  0  0  0
  -30.8970  -26.5225   20.1593 C   0  0  1  0  0  0
  -31.5751  -23.2094   23.2294 C   0  0  0  0  0  0
  -28.9349  -18.6927   24.6488 C   0  0  0  0  0  0
  -29.6565  -27.4347   20.2060 C   0  0  0  0  0  0
  -31.0283  -20.3319   23.4448 N   0  0  0  0  0  0
  -31.6700  -24.4493   20.9955 N   0  0  0  0  0  0
  -30.4567  -14.9392   21.8365 N   0  0  0  0  0  0
  -30.7318  -25.9600   22.4944 O   0  0  0  0  0  0
  -32.8503  -22.5718   21.2922 O   0  0  0  0  0  0
  -31.4568  -12.3479   19.0831 H   0  0  0  0  0  0
  -30.2934  -11.2387   19.7480 H   0  0  0  0  0  0
  -29.7057  -11.8255   17.3808 H   0  0  0  0  0  0
  -29.6582  -13.5206   17.7998 H   0  0  0  0  0  0
  -27.8078  -11.3154   18.7881 H   0  0  0  0  0  0
  -27.3474  -12.6672   17.7901 H   0  0  0  0  0  0
  -27.7372  -14.2510   19.6086 H   0  0  0  0  0  0
  -28.6514  -11.8967   21.3262 H   0  0  0  0  0  0
  -28.4486  -13.5319   21.8741 H   0  0  0  0  0  0
  -25.2761   -9.5686   22.4750 H   0  0  0  0  0  0
  -24.0019   -7.4619   22.7429 H   0  0  0  0  0  0
  -21.0855   -8.8785   19.8935 H   0  0  0  0  0  0
  -22.3721  -10.9671   19.6124 H   0  0  0  0  0  0
  -21.2016   -7.6131   23.9750 H   0  0  0  0  0  0
  -21.1447   -6.0481   25.9091 H   0  0  0  0  0  0
  -22.0595   -2.7611   23.2814 H   0  0  0  0  0  0
  -22.4094  -11.9857   22.4697 H   0  0  0  0  0  0
  -21.1163  -13.1341   22.2595 H   0  0  0  0  0  0
  -24.6772  -15.8465   20.5292 H   0  0  0  0  0  0
  -26.3037  -15.6198   20.1174 H   0  0  0  0  0  0
  -26.7010  -32.5569   23.1172 H   0  0  0  0  0  0
  -25.0095  -33.9766   25.0557 H   0  0  0  0  0  0
  -22.6704  -31.3050   21.4155 H   0  0  0  0  0  0
  -23.3791  -35.9534   23.3174 H   0  0  0  0  0  0
  -24.3620  -36.9019   22.2089 H   0  0  0  0  0  0
  -23.7078  -37.6412   23.6691 H   0  0  0  0  0  0
  -26.0148  -31.6157   20.5834 H   0  0  0  0  0  0
  -26.7989  -30.9122   21.9712 H   0  0  0  0  0  0
  -28.0500  -29.2229   21.1851 H   0  0  0  0  0  0
  -26.1171  -25.9597   19.0924 H   0  0  0  0  0  0
  -23.9942  -27.2499   19.0911 H   0  0  0  0  0  0
  -23.6958  -30.5873   19.4025 H   0  0  0  0  0  0
  -22.7247  -29.2284   19.8793 H   0  0  0  0  0  0
  -25.1180  -36.1957   25.0863 H   0  0  0  0  0  0
  -20.9904  -28.3211   24.1456 H   0  0  0  0  0  0
  -20.5585  -26.2251   23.3623 H   0  0  0  0  0  0
  -21.6615  -26.7435   22.1280 H   0  0  0  0  0  0
  -19.6901  -25.6291   21.1235 H   0  0  0  0  0  0
  -19.6713  -27.3175   20.6709 H   0  0  0  0  0  0
  -17.4200  -26.6724   21.3919 H   0  0  0  0  0  0
  -18.0263  -26.0074   22.8918 H   0  0  0  0  0  0
  -19.7946  -30.7199   24.2295 H   0  0  0  0  0  0
  -17.5056  -31.6289   24.5133 H   0  0  0  0  0  0
  -15.5357  -30.3013   23.7658 H   0  0  0  0  0  0
  -15.8632  -28.0828   22.7102 H   0  0  0  0  0  0
  -24.5865  -30.7147   25.7963 H   0  0  0  0  0  0
  -24.8993  -32.2961   26.4971 H   0  0  0  0  0  0
  -25.8160  -30.8998   27.0286 H   0  0  0  0  0  0
  -26.2758  -29.6816   24.1152 H   0  0  0  0  0  0
  -27.4069  -29.7277   25.4506 H   0  0  0  0  0  0
  -27.8584  -30.4368   23.9161 H   0  0  0  0  0  0
  -27.2670  -33.3657   26.1989 H   0  0  0  0  0  0
  -28.3832  -32.6877   25.0244 H   0  0  0  0  0  0
  -28.0711  -31.8490   26.5370 H   0  0  0  0  0  0
  -28.2448  -38.0214   24.7804 H   0  0  0  0  0  0
  -28.1300  -36.2795   24.5754 H   0  0  0  0  0  0
  -27.2448  -37.0815   25.8830 H   0  0  0  0  0  0
  -20.9226  -29.8804   21.7071 H   0  0  0  0  0  0
  -26.0112  -38.2868   24.1739 H   0  0  0  0  0  0
  -32.5979  -19.0182   21.6376 H   0  0  0  0  0  0
  -32.4208  -16.7260   20.9771 H   0  0  0  0  0  0
  -28.9707  -16.2208   23.5480 H   0  0  0  0  0  0
  -30.0483  -25.2226   18.6455 H   0  0  0  0  0  0
  -31.5084  -26.0487   18.1142 H   0  0  0  0  0  0
  -33.4867  -22.6140   24.1066 H   0  0  0  0  0  0
  -32.1115  -22.3285   25.1329 H   0  0  0  0  0  0
  -29.7446  -22.6160   24.2386 H   0  0  0  0  0  0
  -29.4667  -23.2559   22.6456 H   0  0  0  0  0  0
  -32.9129  -24.5372   19.2991 H   0  0  0  0  0  0
  -31.5287  -23.4675   19.1040 H   0  0  0  0  0  0
  -32.8482  -20.1807   24.4556 H   0  0  0  0  0  0
  -33.0336  -20.6548   22.7940 H   0  0  0  0  0  0
  -30.4572  -21.1921   21.6139 H   0  0  0  0  0  0
  -29.1238  -20.8011   22.6616 H   0  0  0  0  0  0
  -31.7721  -27.1740   20.1664 H   0  0  0  0  0  0
  -31.5882  -24.1593   23.7585 H   0  0  0  0  0  0
  -28.3596  -17.8822   25.0981 H   0  0  0  0  0  0
  -28.2261  -19.4075   24.2304 H   0  0  0  0  0  0
  -29.4853  -19.1848   25.4520 H   0  0  0  0  0  0
  -29.7412  -28.1990   19.4318 H   0  0  0  0  0  0
  -29.6805  -27.9580   21.1617 H   0  0  0  0  0  0
  -29.7637  -14.4425   22.3728 H   0  0  0  0  0  0
  1 25  1  0  0  0
  1 30  2  0  0  0
  1 91  1  0  0  0
  2  3  1  0  0  0
  2 25  1  0  0  0
  2 94  1  0  0  0
  2 95  1  0  0  0
  3  4  1  0  0  0
  3 96  1  0  0  0
  3 97  1  0  0  0
  4  5  1  0  0  0
  4 98  1  0  0  0
  4 99  1  0  0  0
  5  6  1  0  0  0
  5 26  1  0  0  0
  5100  1  0  0  0
  6 25  1  0  0  0
  6101  1  0  0  0
  6102  1  0  0  0
  7  8  2  0  0  0
  7 26  1  0  0  0
  7 29  1  0  0  0
  8  9  1  0  0  0
  8 22  1  0  0  0
  9 10  1  0  0  0
  9 27  2  0  0  0
 10 11  2  0  0  0
 10 15  1  0  0  0
 11 12  1  0  0  0
 11103  1  0  0  0
 12 13  2  0  0  0
 12104  1  0  0  0
 13 14  1  0  0  0
 13 31  1  0  0  0
 14 15  2  0  0  0
 14105  1  0  0  0
 15106  1  0  0  0
 16 17  2  0  0  0
 16 21  1  0  0  0
 16 31  1  0  0  0
 17 18  1  0  0  0
 17107  1  0  0  0
 18 19  2  0  0  0
 18108  1  0  0  0
 19 20  1  0  0  0
 19 24  1  0  0  0
 20 21  2  0  0  0
 20109  1  0  0  0
 21 23  1  0  0  0
 22 28  1  0  0  0
 22 32  2  0  0  0
 26 27  1  0  0  0
 28110  1  0  0  0
 28111  1  0  0  0
 29112  1  0  0  0
 29113  1  0  0  0
 33 34  1  0  0  0
 33 66  1  0  0  0
 33 70  2  0  0  0
 34 36  1  0  0  0
 34 59  1  0  0  0
 34114  1  0  0  0
 35 44  2  0  0  0
 35 45  1  0  0  0
 35 68  1  0  0  0
 36 56  1  0  0  0
 36115  1  0  0  0
 37 39  1  0  0  0
 37 47  1  0  0  0
 37 66  1  0  0  0
 37116  1  0  0  0
 38 43  2  0  0  0
 38 46  1  0  0  0
 38 47  1  0  0  0
 39 64  1  0  0  0
 39 67  2  0  0  0
 40 52  1  0  0  0
 40 53  2  0  0  0
 40 58  1  0  0  0
 41117  1  0  0  0
 41118  1  0  0  0
 41119  1  0  0  0
 41 48  1  0  0  0
 42 43  1  0  0  0
 42 66  1  0  0  0
 42120  1  0  0  0
 42121  1  0  0  0
 43 44  1  0  0  0
 44122  1  0  0  0
 45 46  2  0  0  0
 45123  1  0  0  0
 46124  1  0  0  0
 47125  1  0  0  0
 47126  1  0  0  0
 48 56  1  0  0  0
 48 65  1  0  0  0
 48127  1  0  0  0
 49 50  1  0  0  0
 49 53  1  0  0  0
 49 64  1  0  0  0
 49128  1  0  0  0
 50 51  1  0  0  0
 50129  1  0  0  0
 50130  1  0  0  0
 51 52  1  0  0  0
 51131  1  0  0  0
 51132  1  0  0  0
 52133  1  0  0  0
 52134  1  0  0  0
 53 54  1  0  0  0
 54 55  2  0  0  0
 54135  1  0  0  0
 55 57  1  0  0  0
 55136  1  0  0  0
 56 69  2  0  0  0
 57 58  2  0  0  0
 57137  1  0  0  0
 58138  1  0  0  0
 59 60  1  0  0  0
 59 61  1  0  0  0
 59 62  1  0  0  0
 60139  1  0  0  0
 60140  1  0  0  0
 60141  1  0  0  0
 61142  1  0  0  0
 61143  1  0  0  0
 61144  1  0  0  0
 62145  1  0  0  0
 62146  1  0  0  0
 62147  1  0  0  0
 63 65  1  0  0  0
 63148  1  0  0  0
 63149  1  0  0  0
 63150  1  0  0  0
 64151  1  0  0  0
 65152  1  0  0  0
 68 88  1  0  0  0
 71 72  2  0  0  0
 71 75  1  0  0  0
 71153  1  0  0  0
 72 76  1  0  0  0
 72154  1  0  0  0
 73 74  1  0  0  0
 73 76  2  0  0  0
 73155  1  0  0  0
 74 75  2  0  0  0
 74 87  1  0  0  0
 75 89  1  0  0  0
 76 91  1  0  0  0
 77 85  1  0  0  0
 77 90  1  0  0  0
 77 92  2  0  0  0
 78 90  1  0  0  0
 78 93  2  0  0  0
 78 86  1  0  0  0
 79 82  1  0  0  0
 79 85  1  0  0  0
 79156  1  0  0  0
 79157  1  0  0  0
 80 83  1  0  0  0
 80 86  1  0  0  0
 80158  1  0  0  0
 80159  1  0  0  0
 81 84  1  0  0  0
 81 86  1  0  0  0
 81160  1  0  0  0
 81161  1  0  0  0
 82 90  1  0  0  0
 82162  1  0  0  0
 82163  1  0  0  0
 83 89  1  0  0  0
 83164  1  0  0  0
 83165  1  0  0  0
 84 89  1  0  0  0
 84166  1  0  0  0
 84167  1  0  0  0
 85 88  1  0  0  0
 85168  1  0  0  0
 86169  1  0  0  0
 87170  1  0  0  0
 87171  1  0  0  0
 87172  1  0  0  0
 88173  1  0  0  0
 88174  1  0  0  0
 91175  1  0  0  0
M  ISO  4   1 100  68 101  88 101  91 100
M  END
> <chiral flag>
0

> <version>
0

> <s_m_source_file>
/data/baiqing/PycharmProjects/Reinvent-master-3.2/result/LINK_invent/BTK/process_docking_weight1_custom_product_contain_oxygen_bond_distance_aromatic_linkinvent_7_9_3/rearranged_h_0073.sdf

> <i_m_source_file_index>
13

> <r_mmod_Potential_Energy-OPLS-2005>
-49.7170906066895

> <r_mmod_Stretch_Energy-OPLS-2005>
38.3896255493164

> <r_mmod_Bend_Energy-OPLS-2005>
146.464645385742

> <r_mmod_Torsional_Energy-OPLS-2005>
274.133575439453

> <r_mmod_Improper_Torsional_Energy-OPLS-2005>
8.18525981903076

> <r_mmod_Van_der_Waal_Energy-OPLS-2005>
190.325622558594

> <r_mmod_Electrostatic_Energy-OPLS-2005>
-486.862121582031

> <r_mmod_Solvation_Energy-OPLS-2005>
-226.970199584961

> <b_mmod_Minimization_Converged-OPLS-2005>
0

> <r_mmod_RMS_Derivative-OPLS-2005>
4.28185606002808

$$$$
13
                    3D
 Structure written by MMmdl.
162171  0  0  1  0            999 V2000
  -30.6019  -14.7141   20.4575 C   0  0  0  0  0  0
  -30.4343  -12.4433   19.4437 C   0  0  0  0  0  0
  -29.5007  -12.5124   18.2134 C   0  0  0  0  0  0
  -28.0198  -12.3681   18.6225 C   0  0  0  0  0  0
  -27.6400  -13.2370   19.8484 C   0  0  2  0  0  0
  -28.6943  -13.1344   20.9749 C   0  0  0  0  0  0
  -25.2487  -13.8192   20.5773 C   0  0  0  0  0  0
  -24.1799  -13.0443   20.9262 C   0  0  0  0  0  0
  -24.6385  -11.6921   20.8755 C   0  0  0  0  0  0
  -23.9037  -10.4275   21.0350 C   0  0  0  0  0  0
  -24.3569   -9.4189   21.9134 C   0  0  0  0  0  0
  -23.6275   -8.2215   22.0705 C   0  0  0  0  0  0
  -22.4256   -8.0245   21.3514 C   0  0  0  0  0  0
  -21.9864   -9.0198   20.4611 C   0  0  0  0  0  0
  -22.7186  -10.2078   20.3016 C   0  0  0  0  0  0
  -21.6849   -6.0675   22.5273 C   0  0  0  0  0  0
  -21.4008   -6.5581   23.8205 C   0  0  0  0  0  0
  -21.3689   -5.6750   24.9182 C   0  0  0  0  0  0
  -21.6062   -4.3016   24.7226 C   0  0  0  0  0  0
  -21.8836   -3.8096   23.4350 C   0  0  0  0  0  0
  -21.9190   -4.6906   22.3400 C   0  0  0  0  0  0
  -22.7799  -13.5191   21.1939 C   0  0  0  0  0  0
  -22.1672   -4.2091   21.0982 F   0  0  0  0  0  0
  -21.5657   -3.4502   25.7734 F   0  0  0  0  0  0
  -29.9874  -13.4896   20.3829 N   0  0  0  0  0  0
  -26.2929  -12.9430   20.3284 N   0  0  0  0  0  0
  -25.9313  -11.6583   20.5719 N   0  0  0  0  0  0
  -22.0425  -12.8191   22.0492 N   0  0  0  0  0  0
  -25.4119  -15.1942   20.4227 N   0  0  0  0  0  0
  -31.8004  -14.8199   20.1922 O   0  0  0  0  0  0
  -21.6663   -6.8814   21.4229 O   0  0  0  0  0  0
  -22.3452  -14.5473   20.6750 O   0  0  0  0  0  0
  -24.6322  -31.8568   23.1940 C   0  0  0  0  0  0
  -25.9215  -32.4704   23.8197 C   0  0  1  0  0  0
  -27.2027  -27.2527   20.1415 C   0  0  0  0  0  0
  -25.6007  -33.8486   24.2132 N   0  0  0  0  0  0
  -23.4184  -30.4909   21.5333 C   0  0  2  0  0  0
  -24.8651  -28.9345   20.0894 C   0  0  0  0  0  0
  -22.7471  -29.4661   22.4789 C   0  0  0  0  0  0
  -18.0332  -28.1461   22.8469 C   0  0  0  0  0  0
  -24.1524  -36.7286   23.2624 C   0  0  0  0  0  0
  -25.9633  -30.7695   21.3768 C   0  0  0  0  0  0
  -26.0306  -29.3920   20.7162 C   0  0  0  0  0  0
  -27.1973  -28.5664   20.7311 C   0  0  0  0  0  0
  -26.0242  -26.8669   19.4667 C   0  0  0  0  0  0
  -24.8724  -27.6832   19.4442 C   0  0  0  0  0  0
  -23.6380  -29.8337   20.1410 C   0  0  0  0  0  0
  -25.4159  -36.3004   24.0268 C   0  0  1  0  0  0
  -20.5920  -28.3742   23.1234 C   0  0  2  0  0  0
  -20.6821  -26.9461   22.5385 C   0  0  0  0  0  0
  -19.5738  -26.6384   21.5264 C   0  0  0  0  0  0
  -18.1921  -26.8011   22.1612 C   0  0  0  0  0  0
  -19.1577  -28.8911   23.2859 C   0  0  0  0  0  0
  -18.9485  -30.1470   23.8965 C   0  0  0  0  0  0
  -17.6489  -30.6599   24.0645 C   0  0  0  0  0  0
  -25.9081  -34.9401   23.4987 C   0  0  0  0  0  0
  -16.5377  -29.9146   23.6364 C   0  0  0  0  0  0
  -16.7300  -28.6604   23.0306 C   0  0  0  0  0  0
  -26.4611  -31.6534   25.0601 C   0  0  0  0  0  0
  -25.3775  -31.3673   26.1245 C   0  0  0  0  0  0
  -27.0416  -30.2896   24.6165 C   0  0  0  0  0  0
  -27.6169  -32.4250   25.7426 C   0  0  0  0  0  0
  -27.5594  -37.1801   24.8441 C   0  0  0  0  0  0
  -21.4178  -29.3069   22.3577 N   0  0  0  0  0  0
  -26.4305  -37.3740   23.9360 N   0  0  0  0  0  0
  -24.6894  -31.0570   22.0897 N   0  0  0  0  0  0
  -23.4226  -28.8265   23.2887 O   0  0  0  0  0  0
  -28.3101  -26.3786   20.2601 O   0  0  0  0  0  0
  -26.5636  -34.8929   22.4544 O   0  0  0  0  0  0
  -23.5521  -32.1371   23.7311 O   0  0  0  0  0  0
  -30.6987  -19.9665   21.5441 C   0  0  0  0  0  0
  -29.2595  -18.3814   20.4077 C   0  0  0  0  0  0
  -31.1930  -17.5594   21.6341 C   0  0  0  0  0  0
  -29.5522  -19.7775   20.7389 C   0  0  0  0  0  0
  -31.4964  -18.8890   21.9906 C   0  0  0  0  0  0
  -30.0831  -17.2535   20.8244 C   0  0  0  0  0  0
  -27.5522  -20.6970   19.5747 C   0  0  0  0  0  0
  -29.2380  -22.3813   20.2631 C   0  0  0  0  0  0
  -26.8453  -22.0029   19.1095 C   0  0  0  0  0  0
  -28.1370  -23.5672   20.4868 C   0  0  1  0  0  0
  -27.9189  -23.8343   21.9844 C   0  0  0  0  0  0
  -28.3870  -24.9797   19.7014 C   0  0  0  0  0  0
  -28.7540  -20.9462   20.3667 N   0  0  0  0  0  0
  -32.5926  -19.1128   22.8221 N   0  0  0  0  0  0
  -29.7801  -15.8311   20.5420 N   0  0  0  0  0  0
  -26.8556  -23.0430   20.0975 O   0  0  0  0  0  0
  -31.4705  -12.5943   19.1295 H   0  0  0  0  0  0
  -30.3989  -11.4575   19.9094 H   0  0  0  0  0  0
  -29.7684  -11.7352   17.4966 H   0  0  0  0  0  0
  -29.6507  -13.4613   17.6952 H   0  0  0  0  0  0
  -27.8459  -11.3166   18.8453 H   0  0  0  0  0  0
  -27.3724  -12.6150   17.7783 H   0  0  0  0  0  0
  -27.6379  -14.2682   19.4963 H   0  0  0  0  0  0
  -28.7241  -12.1295   21.4011 H   0  0  0  0  0  0
  -28.4429  -13.8047   21.7971 H   0  0  0  0  0  0
  -25.2673   -9.5713   22.4749 H   0  0  0  0  0  0
  -24.0008   -7.4601   22.7399 H   0  0  0  0  0  0
  -21.0804   -8.8673   19.8930 H   0  0  0  0  0  0
  -22.3591  -10.9607   19.6150 H   0  0  0  0  0  0
  -21.2003   -7.6094   23.9690 H   0  0  0  0  0  0
  -21.1529   -6.0478   25.9077 H   0  0  0  0  0  0
  -22.0603   -2.7551   23.2861 H   0  0  0  0  0  0
  -22.3956  -11.9854   22.4975 H   0  0  0  0  0  0
  -21.1007  -13.1175   22.2616 H   0  0  0  0  0  0
  -24.6379  -15.8425   20.5209 H   0  0  0  0  0  0
  -26.2560  -15.6432   20.0918 H   0  0  0  0  0  0
  -26.7254  -32.5374   23.0888 H   0  0  0  0  0  0
  -25.0134  -33.9551   25.0270 H   0  0  0  0  0  0
  -22.7086  -31.3113   21.3993 H   0  0  0  0  0  0
  -23.3743  -35.9650   23.3266 H   0  0  0  0  0  0
  -24.3584  -36.8959   22.2032 H   0  0  0  0  0  0
  -23.7339  -37.6504   23.6690 H   0  0  0  0  0  0
  -26.1128  -31.5416   20.6215 H   0  0  0  0  0  0
  -26.8346  -30.7964   22.0192 H   0  0  0  0  0  0
  -28.0844  -28.9267   21.2358 H   0  0  0  0  0  0
  -25.9625  -25.9093   18.9716 H   0  0  0  0  0  0
  -23.9944  -27.3356   18.9168 H   0  0  0  0  0  0
  -23.7574  -30.6256   19.3972 H   0  0  0  0  0  0
  -22.7493  -29.2848   19.8301 H   0  0  0  0  0  0
  -25.1381  -36.1783   25.0764 H   0  0  0  0  0  0
  -21.0037  -28.3341   24.1341 H   0  0  0  0  0  0
  -20.5889  -26.2293   23.3542 H   0  0  0  0  0  0
  -21.6653  -26.7542   22.1034 H   0  0  0  0  0  0
  -19.6804  -25.6256   21.1390 H   0  0  0  0  0  0
  -19.6749  -27.3131   20.6759 H   0  0  0  0  0  0
  -17.4194  -26.6795   21.4024 H   0  0  0  0  0  0
  -18.0210  -26.0177   22.9011 H   0  0  0  0  0  0
  -19.7941  -30.7258   24.2362 H   0  0  0  0  0  0
  -17.5067  -31.6242   24.5300 H   0  0  0  0  0  0
  -15.5380  -30.3063   23.7708 H   0  0  0  0  0  0
  -15.8684  -28.0968   22.6935 H   0  0  0  0  0  0
  -24.6046  -30.6958   25.7516 H   0  0  0  0  0  0
  -24.8872  -32.2806   26.4611 H   0  0  0  0  0  0
  -25.8058  -30.8873   27.0038 H   0  0  0  0  0  0
  -26.2955  -29.6579   24.1331 H   0  0  0  0  0  0
  -27.4133  -29.7300   25.4778 H   0  0  0  0  0  0
  -27.8860  -30.4048   23.9337 H   0  0  0  0  0  0
  -27.2812  -33.3577   26.1960 H   0  0  0  0  0  0
  -28.4062  -32.6738   25.0313 H   0  0  0  0  0  0
  -28.0701  -31.8324   26.5365 H   0  0  0  0  0  0
  -28.2599  -38.0130   24.7499 H   0  0  0  0  0  0
  -28.1105  -36.2651   24.6267 H   0  0  0  0  0  0
  -27.2251  -37.1444   25.8828 H   0  0  0  0  0  0
  -20.9251  -29.8769   21.6844 H   0  0  0  0  0  0
  -26.0151  -38.2790   24.1394 H   0  0  0  0  0  0
  -30.9768  -20.9584   21.8580 H   0  0  0  0  0  0
  -28.4012  -18.1458   19.8002 H   0  0  0  0  0  0
  -31.8119  -16.7642   22.0143 H   0  0  0  0  0  0
  -27.8314  -20.1237   18.6901 H   0  0  0  0  0  0
  -26.8709  -20.0730   20.1554 H   0  0  0  0  0  0
  -30.1259  -22.5787   20.8639 H   0  0  0  0  0  0
  -29.5967  -22.4685   19.2358 H   0  0  0  0  0  0
  -25.8073  -21.7871   18.8596 H   0  0  0  0  0  0
  -27.3144  -22.3643   18.1944 H   0  0  0  0  0  0
  -28.7633  -24.3495   22.4430 H   0  0  0  0  0  0
  -27.7694  -22.8954   22.5210 H   0  0  0  0  0  0
  -27.0342  -24.4482   22.1487 H   0  0  0  0  0  0
  -27.8692  -24.9414   18.7446 H   0  0  0  0  0  0
  -29.4322  -24.9209   19.3982 H   0  0  0  0  0  0
  -32.5369  -19.8990   23.4592 H   0  0  0  0  0  0
  -32.9555  -18.2929   23.2982 H   0  0  0  0  0  0
  -28.8059  -15.6250   20.4064 H   0  0  0  0  0  0
  1 25  1  0  0  0
  1 30  2  0  0  0
  1 85  1  0  0  0
  2  3  1  0  0  0
  2 25  1  0  0  0
  2 87  1  0  0  0
  2 88  1  0  0  0
  3  4  1  0  0  0
  3 89  1  0  0  0
  3 90  1  0  0  0
  4  5  1  0  0  0
  4 91  1  0  0  0
  4 92  1  0  0  0
  5  6  1  0  0  0
  5 26  1  0  0  0
  5 93  1  0  0  0
  6 25  1  0  0  0
  6 94  1  0  0  0
  6 95  1  0  0  0
  7  8  2  0  0  0
  7 26  1  0  0  0
  7 29  1  0  0  0
  8  9  1  0  0  0
  8 22  1  0  0  0
  9 10  1  0  0  0
  9 27  2  0  0  0
 10 11  2  0  0  0
 10 15  1  0  0  0
 11 12  1  0  0  0
 11 96  1  0  0  0
 12 13  2  0  0  0
 12 97  1  0  0  0
 13 14  1  0  0  0
 13 31  1  0  0  0
 14 15  2  0  0  0
 14 98  1  0  0  0
 15 99  1  0  0  0
 16 17  2  0  0  0
 16 21  1  0  0  0
 16 31  1  0  0  0
 17 18  1  0  0  0
 17100  1  0  0  0
 18 19  2  0  0  0
 18101  1  0  0  0
 19 20  1  0  0  0
 19 24  1  0  0  0
 20 21  2  0  0  0
 20102  1  0  0  0
 21 23  1  0  0  0
 22 28  1  0  0  0
 22 32  2  0  0  0
 26 27  1  0  0  0
 28103  1  0  0  0
 28104  1  0  0  0
 29105  1  0  0  0
 29106  1  0  0  0
 33 34  1  0  0  0
 33 66  1  0  0  0
 33 70  2  0  0  0
 34 36  1  0  0  0
 34 59  1  0  0  0
 34107  1  0  0  0
 35 44  2  0  0  0
 35 45  1  0  0  0
 35 68  1  0  0  0
 36 56  1  0  0  0
 36108  1  0  0  0
 37 39  1  0  0  0
 37 47  1  0  0  0
 37 66  1  0  0  0
 37109  1  0  0  0
 38 43  2  0  0  0
 38 46  1  0  0  0
 38 47  1  0  0  0
 39 64  1  0  0  0
 39 67  2  0  0  0
 40 52  1  0  0  0
 40 53  2  0  0  0
 40 58  1  0  0  0
 41110  1  0  0  0
 41111  1  0  0  0
 41112  1  0  0  0
 41 48  1  0  0  0
 42 43  1  0  0  0
 42 66  1  0  0  0
 42113  1  0  0  0
 42114  1  0  0  0
 43 44  1  0  0  0
 44115  1  0  0  0
 45 46  2  0  0  0
 45116  1  0  0  0
 46117  1  0  0  0
 47118  1  0  0  0
 47119  1  0  0  0
 48 56  1  0  0  0
 48 65  1  0  0  0
 48120  1  0  0  0
 49 50  1  0  0  0
 49 53  1  0  0  0
 49 64  1  0  0  0
 49121  1  0  0  0
 50 51  1  0  0  0
 50122  1  0  0  0
 50123  1  0  0  0
 51 52  1  0  0  0
 51124  1  0  0  0
 51125  1  0  0  0
 52126  1  0  0  0
 52127  1  0  0  0
 53 54  1  0  0  0
 54 55  2  0  0  0
 54128  1  0  0  0
 55 57  1  0  0  0
 55129  1  0  0  0
 56 69  2  0  0  0
 57 58  2  0  0  0
 57130  1  0  0  0
 58131  1  0  0  0
 59 60  1  0  0  0
 59 61  1  0  0  0
 59 62  1  0  0  0
 60132  1  0  0  0
 60133  1  0  0  0
 60134  1  0  0  0
 61135  1  0  0  0
 61136  1  0  0  0
 61137  1  0  0  0
 62138  1  0  0  0
 62139  1  0  0  0
 62140  1  0  0  0
 63 65  1  0  0  0
 63141  1  0  0  0
 63142  1  0  0  0
 63143  1  0  0  0
 64144  1  0  0  0
 65145  1  0  0  0
 68 82  1  0  0  0
 71 74  2  0  0  0
 71 75  1  0  0  0
 71146  1  0  0  0
 72 74  1  0  0  0
 72 76  2  0  0  0
 72147  1  0  0  0
 73 75  2  0  0  0
 73 76  1  0  0  0
 73148  1  0  0  0
 74 83  1  0  0  0
 75 84  1  0  0  0
 76 85  1  0  0  0
 77 79  1  0  0  0
 77 83  1  0  0  0
 77149  1  0  0  0
 77150  1  0  0  0
 78 80  1  0  0  0
 78 83  1  0  0  0
 78151  1  0  0  0
 78152  1  0  0  0
 79 86  1  0  0  0
 79153  1  0  0  0
 79154  1  0  0  0
 80 81  1  0  0  0
 80 82  1  0  0  0
 80 86  1  0  0  0
 81155  1  0  0  0
 81156  1  0  0  0
 81157  1  0  0  0
 82158  1  0  0  0
 82159  1  0  0  0
 84160  1  0  0  0
 84161  1  0  0  0
 85162  1  0  0  0
M  ISO  4   1 100  68 101  82 101  85 100
M  END
> <chiral flag>
0

> <version>
0

> <s_m_source_file>
/data/baiqing/PycharmProjects/Reinvent-master-3.2/result/LINK_invent/BTK/process_docking_weight1_custom_product_contain_oxygen_bond_distance_aromatic_linkinvent_7_9_3/rearranged_h_0073.sdf

> <i_m_source_file_index>
14

> <r_mmod_Potential_Energy-OPLS-2005>
374.066192626953

> <r_mmod_Stretch_Energy-OPLS-2005>
131.216735839844

> <r_mmod_Bend_Energy-OPLS-2005>
198.236465454102

> <r_mmod_Torsional_Energy-OPLS-2005>
280.118469238281

> <r_mmod_Improper_Torsional_Energy-OPLS-2005>
13.1332864761353

> <r_mmod_Van_der_Waal_Energy-OPLS-2005>
146.840698242188

> <r_mmod_Electrostatic_Energy-OPLS-2005>
-233.380462646484

> <r_mmod_Solvation_Energy-OPLS-2005>
-245.861877441406

> <b_mmod_Minimization_Converged-OPLS-2005>
0

> <r_mmod_RMS_Derivative-OPLS-2005>
7.90005350112915

$$$$
14
                    3D
 Structure written by MMmdl.
167175  0  0  1  0            999 V2000
  -30.6675  -14.5438   20.5514 C   0  0  0  0  0  0
  -30.4368  -12.3438   19.4337 C   0  0  0  0  0  0
  -29.5046  -12.5111   18.2140 C   0  0  0  0  0  0
  -28.0240  -12.3664   18.6237 C   0  0  0  0  0  0
  -27.6605  -13.2099   19.8750 C   0  0  2  0  0  0
  -28.7074  -13.0077   20.9957 C   0  0  0  0  0  0
  -25.2520  -13.8110   20.5671 C   0  0  0  0  0  0
  -24.1790  -13.0384   20.9147 C   0  0  0  0  0  0
  -24.6383  -11.6873   20.8716 C   0  0  0  0  0  0
  -23.9047  -10.4274   21.0389 C   0  0  0  0  0  0
  -24.3603   -9.4202   21.9175 C   0  0  0  0  0  0
  -23.6276   -8.2241   22.0745 C   0  0  0  0  0  0
  -22.4261   -8.0277   21.3531 C   0  0  0  0  0  0
  -21.9890   -9.0247   20.4633 C   0  0  0  0  0  0
  -22.7211  -10.2129   20.3043 C   0  0  0  0  0  0
  -21.6859   -6.0731   22.5277 C   0  0  0  0  0  0
  -21.4021   -6.5635   23.8211 C   0  0  0  0  0  0
  -21.3649   -5.6779   24.9167 C   0  0  0  0  0  0
  -21.6041   -4.3045   24.7210 C   0  0  0  0  0  0
  -21.8825   -3.8138   23.4333 C   0  0  0  0  0  0
  -21.9194   -4.6956   22.3394 C   0  0  0  0  0  0
  -22.7816  -13.5201   21.1813 C   0  0  0  0  0  0
  -22.1661   -4.2144   21.0969 F   0  0  0  0  0  0
  -21.5618   -3.4525   25.7722 F   0  0  0  0  0  0
  -30.0348  -13.3377   20.4444 N   0  0  0  0  0  0
  -26.3013  -12.9331   20.3385 N   0  0  0  0  0  0
  -25.9326  -11.6479   20.5779 N   0  0  0  0  0  0
  -22.0460  -12.8241   22.0408 N   0  0  0  0  0  0
  -25.4079  -15.1819   20.4149 N   0  0  0  0  0  0
  -31.8018  -14.7423   20.1060 O   0  0  0  0  0  0
  -21.6629   -6.8872   21.4240 O   0  0  0  0  0  0
  -22.3498  -14.5500   20.6649 O   0  0  0  0  0  0
  -24.6171  -31.8649   23.2055 C   0  0  0  0  0  0
  -25.9049  -32.4811   23.8375 C   0  0  1  0  0  0
  -27.2419  -27.4014   20.1067 C   0  0  0  0  0  0
  -25.5884  -33.8609   24.2301 N   0  0  0  0  0  0
  -23.4100  -30.4845   21.5457 C   0  0  2  0  0  0
  -24.8625  -28.9460   20.1137 C   0  0  0  0  0  0
  -22.7435  -29.4633   22.4964 C   0  0  0  0  0  0
  -18.0271  -28.1381   22.8491 C   0  0  0  0  0  0
  -24.1475  -36.7314   23.2635 C   0  0  0  0  0  0
  -25.9417  -30.8205   21.3650 C   0  0  0  0  0  0
  -26.0237  -29.4504   20.7147 C   0  0  0  0  0  0
  -27.2182  -28.6853   20.7113 C   0  0  0  0  0  0
  -26.0665  -26.9205   19.4964 C   0  0  0  0  0  0
  -24.8798  -27.6807   19.5005 C   0  0  0  0  0  0
  -23.6230  -29.8142   20.1622 C   0  0  0  0  0  0
  -25.4100  -36.3105   24.0327 C   0  0  1  0  0  0
  -20.5867  -28.3672   23.1302 C   0  0  2  0  0  0
  -20.6757  -26.9403   22.5418 C   0  0  0  0  0  0
  -19.5738  -26.6379   21.5213 C   0  0  0  0  0  0
  -18.1912  -26.7924   22.1620 C   0  0  0  0  0  0
  -19.1524  -28.8843   23.2889 C   0  0  0  0  0  0
  -18.9455  -30.1445   23.8907 C   0  0  0  0  0  0
  -17.6461  -30.6590   24.0565 C   0  0  0  0  0  0
  -25.9036  -34.9475   23.5119 C   0  0  0  0  0  0
  -16.5348  -29.9094   23.6336 C   0  0  0  0  0  0
  -16.7262  -28.6506   23.0364 C   0  0  0  0  0  0
  -26.4463  -31.6597   25.0717 C   0  0  0  0  0  0
  -25.3721  -31.3736   26.1468 C   0  0  0  0  0  0
  -27.0278  -30.3021   24.6115 C   0  0  0  0  0  0
  -27.6034  -32.4326   25.7479 C   0  0  0  0  0  0
  -27.5579  -37.1799   24.8453 C   0  0  0  0  0  0
  -21.4158  -29.3027   22.3697 N   0  0  0  0  0  0
  -26.4281  -37.3799   23.9412 N   0  0  0  0  0  0
  -24.6742  -31.0725   22.0969 N   0  0  0  0  0  0
  -23.4187  -28.8200   23.3043 O   0  0  0  0  0  0
  -28.3525  -26.5761   20.1185 O   0  0  0  0  0  0
  -26.5621  -34.8935   22.4694 O   0  0  0  0  0  0
  -23.5349  -32.1419   23.7421 O   0  0  0  0  0  0
  -28.5394  -18.8521   20.0077 C   0  0  0  0  0  0
  -30.9945  -17.8354   20.9127 C   0  0  0  0  0  0
  -29.6142  -19.7576   20.1617 C   0  0  0  0  0  0
  -29.9054  -16.9397   20.7490 C   0  0  0  0  0  0
  -28.6805  -17.4814   20.3086 C   0  0  0  0  0  0
  -30.8511  -19.2264   20.6262 C   0  0  0  0  0  0
  -28.4744  -25.7659   21.2333 C   0  0  0  0  0  0
  -29.4287  -21.1957   19.6980 C   0  0  0  0  0  0
  -29.0512  -24.5324   21.3432 C   0  0  0  0  0  0
  -29.0808  -23.8785   22.7169 C   0  0  0  0  0  0
  -32.8833  -25.8492   19.3584 C   0  0  0  0  0  0
  -30.8110  -25.6396   17.9387 C   0  0  0  0  0  0
  -31.1565  -24.0998   19.9569 C   0  0  0  0  0  0
  -29.6885  -23.6781   20.2175 C   0  0  1  0  0  0
  -31.3860  -25.5050   19.3590 C   0  0  0  0  0  0
  -29.9201  -15.5369   21.0833 N   0  0  0  0  0  0
  -29.7099  -22.2177   20.5359 N   0  0  0  0  0  0
  -28.9772  -21.3978   18.5675 O   0  0  0  0  0  0
  -27.6200  -16.6608   20.1554 F   0  0  0  0  0  0
  -31.9262  -20.0381   20.7759 F   0  0  0  0  0  0
  -31.4788  -12.4605   19.1330 H   0  0  0  0  0  0
  -30.3563  -11.3361   19.8440 H   0  0  0  0  0  0
  -29.7525  -11.7757   17.4465 H   0  0  0  0  0  0
  -29.6673  -13.4909   17.7620 H   0  0  0  0  0  0
  -27.8372  -11.3109   18.8228 H   0  0  0  0  0  0
  -27.3766  -12.6372   17.7884 H   0  0  0  0  0  0
  -27.6928  -14.2530   19.5653 H   0  0  0  0  0  0
  -28.6993  -11.9707   21.3343 H   0  0  0  0  0  0
  -28.4611  -13.6023   21.8765 H   0  0  0  0  0  0
  -25.2760   -9.5677   22.4740 H   0  0  0  0  0  0
  -23.9968   -7.4644   22.7488 H   0  0  0  0  0  0
  -21.0802   -8.8768   19.8960 H   0  0  0  0  0  0
  -22.3660  -10.9669   19.6145 H   0  0  0  0  0  0
  -21.2035   -7.6148   23.9715 H   0  0  0  0  0  0
  -21.1453   -6.0509   25.9068 H   0  0  0  0  0  0
  -22.0613   -2.7599   23.2838 H   0  0  0  0  0  0
  -22.4041  -11.9906   22.4827 H   0  0  0  0  0  0
  -21.1099  -13.1329   22.2607 H   0  0  0  0  0  0
  -24.6340  -15.8273   20.5232 H   0  0  0  0  0  0
  -26.2833  -15.6551   20.1988 H   0  0  0  0  0  0
  -26.7130  -32.5526   23.1149 H   0  0  0  0  0  0
  -24.9966  -33.9759   25.0398 H   0  0  0  0  0  0
  -22.6983  -31.2997   21.4020 H   0  0  0  0  0  0
  -23.3731  -35.9651   23.3297 H   0  0  0  0  0  0
  -24.3563  -36.8940   22.2052 H   0  0  0  0  0  0
  -23.7234  -37.6514   23.6664 H   0  0  0  0  0  0
  -26.0546  -31.5826   20.5931 H   0  0  0  0  0  0
  -26.8293  -30.8791   21.9832 H   0  0  0  0  0  0
  -28.1133  -29.0629   21.1852 H   0  0  0  0  0  0
  -26.0693  -25.9430   19.0358 H   0  0  0  0  0  0
  -23.9883  -27.2839   19.0355 H   0  0  0  0  0  0
  -23.7311  -30.5884   19.4014 H   0  0  0  0  0  0
  -22.7483  -29.2317   19.8679 H   0  0  0  0  0  0
  -25.1272  -36.1958   25.0816 H   0  0  0  0  0  0
  -20.9942  -28.3258   24.1430 H   0  0  0  0  0  0
  -20.5636  -26.2297   23.3615 H   0  0  0  0  0  0
  -21.6636  -26.7420   22.1238 H   0  0  0  0  0  0
  -19.6899  -25.6293   21.1232 H   0  0  0  0  0  0
  -19.6682  -27.3200   20.6753 H   0  0  0  0  0  0
  -17.4181  -26.6677   21.4019 H   0  0  0  0  0  0
  -18.0304  -26.0065   22.9015 H   0  0  0  0  0  0
  -19.7935  -30.7246   24.2292 H   0  0  0  0  0  0
  -17.5022  -31.6271   24.5161 H   0  0  0  0  0  0
  -15.5351  -30.3005   23.7654 H   0  0  0  0  0  0
  -15.8659  -28.0821   22.7098 H   0  0  0  0  0  0
  -24.5878  -30.7096   25.7816 H   0  0  0  0  0  0
  -24.8937  -32.2911   26.4912 H   0  0  0  0  0  0
  -25.8061  -30.8903   27.0230 H   0  0  0  0  0  0
  -26.2827  -29.6800   24.1136 H   0  0  0  0  0  0
  -27.3983  -29.7243   25.4593 H   0  0  0  0  0  0
  -27.8698  -30.4309   23.9310 H   0  0  0  0  0  0
  -27.2635  -33.3610   26.2082 H   0  0  0  0  0  0
  -28.3830  -32.6912   25.0302 H   0  0  0  0  0  0
  -28.0718  -31.8440   26.5374 H   0  0  0  0  0  0
  -28.2588  -38.0105   24.7514 H   0  0  0  0  0  0
  -28.1078  -36.2640   24.6243 H   0  0  0  0  0  0
  -27.2304  -37.1412   25.8856 H   0  0  0  0  0  0
  -20.9325  -29.8729   21.6896 H   0  0  0  0  0  0
  -26.0160  -38.2861   24.1446 H   0  0  0  0  0  0
  -27.5871  -19.2102   19.6428 H   0  0  0  0  0  0
  -31.9468  -17.4663   21.2633 H   0  0  0  0  0  0
  -28.0438  -26.2450   22.1025 H   0  0  0  0  0  0
  -28.7448  -24.5638   23.4950 H   0  0  0  0  0  0
  -30.0936  -23.5654   22.9735 H   0  0  0  0  0  0
  -28.4249  -23.0074   22.7474 H   0  0  0  0  0  0
  -33.0590  -26.8501   18.9626 H   0  0  0  0  0  0
  -33.4535  -25.1456   18.7502 H   0  0  0  0  0  0
  -33.2959  -25.8219   20.3679 H   0  0  0  0  0  0
  -31.0021  -26.6321   17.5293 H   0  0  0  0  0  0
  -29.7309  -25.4942   17.9235 H   0  0  0  0  0  0
  -31.2555  -24.9097   17.2607 H   0  0  0  0  0  0
  -31.6305  -23.3712   19.2961 H   0  0  0  0  0  0
  -31.6990  -24.0302   20.9018 H   0  0  0  0  0  0
  -29.0992  -23.8402   19.3142 H   0  0  0  0  0  0
  -30.8989  -26.2423   19.9957 H   0  0  0  0  0  0
  -29.0207  -15.1927   21.3832 H   0  0  0  0  0  0
  -30.0277  -21.9650   21.4610 H   0  0  0  0  0  0
  1 25  1  0  0  0
  1 30  2  0  0  0
  1 86  1  0  0  0
  2  3  1  0  0  0
  2 25  1  0  0  0
  2 91  1  0  0  0
  2 92  1  0  0  0
  3  4  1  0  0  0
  3 93  1  0  0  0
  3 94  1  0  0  0
  4  5  1  0  0  0
  4 95  1  0  0  0
  4 96  1  0  0  0
  5  6  1  0  0  0
  5 26  1  0  0  0
  5 97  1  0  0  0
  6 25  1  0  0  0
  6 98  1  0  0  0
  6 99  1  0  0  0
  7  8  2  0  0  0
  7 26  1  0  0  0
  7 29  1  0  0  0
  8  9  1  0  0  0
  8 22  1  0  0  0
  9 10  1  0  0  0
  9 27  2  0  0  0
 10 11  2  0  0  0
 10 15  1  0  0  0
 11 12  1  0  0  0
 11100  1  0  0  0
 12 13  2  0  0  0
 12101  1  0  0  0
 13 14  1  0  0  0
 13 31  1  0  0  0
 14 15  2  0  0  0
 14102  1  0  0  0
 15103  1  0  0  0
 16 17  2  0  0  0
 16 21  1  0  0  0
 16 31  1  0  0  0
 17 18  1  0  0  0
 17104  1  0  0  0
 18 19  2  0  0  0
 18105  1  0  0  0
 19 20  1  0  0  0
 19 24  1  0  0  0
 20 21  2  0  0  0
 20106  1  0  0  0
 21 23  1  0  0  0
 22 28  1  0  0  0
 22 32  2  0  0  0
 26 27  1  0  0  0
 28107  1  0  0  0
 28108  1  0  0  0
 29109  1  0  0  0
 29110  1  0  0  0
 33 34  1  0  0  0
 33 66  1  0  0  0
 33 70  2  0  0  0
 34 36  1  0  0  0
 34 59  1  0  0  0
 34111  1  0  0  0
 35 44  2  0  0  0
 35 45  1  0  0  0
 35 68  1  0  0  0
 36 56  1  0  0  0
 36112  1  0  0  0
 37 39  1  0  0  0
 37 47  1  0  0  0
 37 66  1  0  0  0
 37113  1  0  0  0
 38 43  2  0  0  0
 38 46  1  0  0  0
 38 47  1  0  0  0
 39 64  1  0  0  0
 39 67  2  0  0  0
 40 52  1  0  0  0
 40 53  2  0  0  0
 40 58  1  0  0  0
 41114  1  0  0  0
 41115  1  0  0  0
 41116  1  0  0  0
 41 48  1  0  0  0
 42 43  1  0  0  0
 42 66  1  0  0  0
 42117  1  0  0  0
 42118  1  0  0  0
 43 44  1  0  0  0
 44119  1  0  0  0
 45 46  2  0  0  0
 45120  1  0  0  0
 46121  1  0  0  0
 47122  1  0  0  0
 47123  1  0  0  0
 48 56  1  0  0  0
 48 65  1  0  0  0
 48124  1  0  0  0
 49 50  1  0  0  0
 49 53  1  0  0  0
 49 64  1  0  0  0
 49125  1  0  0  0
 50 51  1  0  0  0
 50126  1  0  0  0
 50127  1  0  0  0
 51 52  1  0  0  0
 51128  1  0  0  0
 51129  1  0  0  0
 52130  1  0  0  0
 52131  1  0  0  0
 53 54  1  0  0  0
 54 55  2  0  0  0
 54132  1  0  0  0
 55 57  1  0  0  0
 55133  1  0  0  0
 56 69  2  0  0  0
 57 58  2  0  0  0
 57134  1  0  0  0
 58135  1  0  0  0
 59 60  1  0  0  0
 59 61  1  0  0  0
 59 62  1  0  0  0
 60136  1  0  0  0
 60137  1  0  0  0
 60138  1  0  0  0
 61139  1  0  0  0
 61140  1  0  0  0
 61141  1  0  0  0
 62142  1  0  0  0
 62143  1  0  0  0
 62144  1  0  0  0
 63 65  1  0  0  0
 63145  1  0  0  0
 63146  1  0  0  0
 63147  1  0  0  0
 64148  1  0  0  0
 65149  1  0  0  0
 68 77  1  0  0  0
 71 73  2  0  0  0
 71 75  1  0  0  0
 71150  1  0  0  0
 72 74  1  0  0  0
 72 76  2  0  0  0
 72151  1  0  0  0
 73 76  1  0  0  0
 73 78  1  0  0  0
 74 75  2  0  0  0
 74 86  1  0  0  0
 75 89  1  0  0  0
 76 90  1  0  0  0
 77 79  2  0  0  0
 77152  1  0  0  0
 78 87  1  0  0  0
 78 88  2  0  0  0
 79 80  1  0  0  0
 79 84  1  0  0  0
 80153  1  0  0  0
 80154  1  0  0  0
 80155  1  0  0  0
 81156  1  0  0  0
 81157  1  0  0  0
 81158  1  0  0  0
 81 85  1  0  0  0
 82 85  1  0  0  0
 82159  1  0  0  0
 82160  1  0  0  0
 82161  1  0  0  0
 83 85  1  0  0  0
 83162  1  0  0  0
 83163  1  0  0  0
 83 84  1  0  0  0
 84 87  1  0  0  0
 84164  1  0  0  0
 85165  1  0  0  0
 86166  1  0  0  0
 87167  1  0  0  0
M  ISO  4   1 100  68 101  77 101  86 100
M  END
> <chiral flag>
0

> <version>
0

> <s_m_source_file>
/data/baiqing/PycharmProjects/Reinvent-master-3.2/result/LINK_invent/BTK/process_docking_weight1_custom_product_contain_oxygen_bond_distance_aromatic_linkinvent_7_9_3/rearranged_h_0073.sdf

> <i_m_source_file_index>
15

> <r_mmod_Potential_Energy-OPLS-2005>
-74.0875473022461

> <r_mmod_Stretch_Energy-OPLS-2005>
50.2887573242188

> <r_mmod_Bend_Energy-OPLS-2005>
123.216003417969

> <r_mmod_Torsional_Energy-OPLS-2005>
262.554901123047

> <r_mmod_Improper_Torsional_Energy-OPLS-2005>
5.82988739013672

> <r_mmod_Van_der_Waal_Energy-OPLS-2005>
143.189575195312

> <r_mmod_Electrostatic_Energy-OPLS-2005>
-484.696899414062

> <r_mmod_Solvation_Energy-OPLS-2005>
-196.940490722656

> <b_mmod_Minimization_Converged-OPLS-2005>
0

> <r_mmod_RMS_Derivative-OPLS-2005>
1.9906450510025

$$$$
15
                    3D
 Structure written by MMmdl.
151159  0  0  1  0            999 V2000
  -30.6501  -14.5797   20.5185 C   0  0  0  0  0  0
  -30.4341  -12.3584   19.4398 C   0  0  0  0  0  0
  -29.5042  -12.5060   18.2164 C   0  0  0  0  0  0
  -28.0255  -12.3549   18.6267 C   0  0  0  0  0  0
  -27.6571  -13.2122   19.8668 C   0  0  2  0  0  0
  -28.7019  -13.0377   20.9927 C   0  0  0  0  0  0
  -25.2577  -13.8165   20.5683 C   0  0  0  0  0  0
  -24.1833  -13.0437   20.9176 C   0  0  0  0  0  0
  -24.6392  -11.6906   20.8724 C   0  0  0  0  0  0
  -23.9060  -10.4288   21.0394 C   0  0  0  0  0  0
  -24.3609   -9.4203   21.9172 C   0  0  0  0  0  0
  -23.6279   -8.2244   22.0752 C   0  0  0  0  0  0
  -22.4261   -8.0279   21.3548 C   0  0  0  0  0  0
  -21.9890   -9.0257   20.4656 C   0  0  0  0  0  0
  -22.7227  -10.2130   20.3053 C   0  0  0  0  0  0
  -21.6855   -6.0723   22.5271 C   0  0  0  0  0  0
  -21.4021   -6.5631   23.8205 C   0  0  0  0  0  0
  -21.3659   -5.6787   24.9169 C   0  0  0  0  0  0
  -21.6040   -4.3047   24.7226 C   0  0  0  0  0  0
  -21.8821   -3.8137   23.4350 C   0  0  0  0  0  0
  -21.9195   -4.6950   22.3401 C   0  0  0  0  0  0
  -22.7856  -13.5237   21.1838 C   0  0  0  0  0  0
  -22.1661   -4.2136   21.0979 F   0  0  0  0  0  0
  -21.5626   -3.4531   25.7738 F   0  0  0  0  0  0
  -30.0242  -13.3666   20.4343 N   0  0  0  0  0  0
  -26.3005  -12.9339   20.3324 N   0  0  0  0  0  0
  -25.9319  -11.6499   20.5747 N   0  0  0  0  0  0
  -22.0498  -12.8243   22.0410 N   0  0  0  0  0  0
  -25.4304  -15.1888   20.4109 N   0  0  0  0  0  0
  -31.8027  -14.7432   20.1110 O   0  0  0  0  0  0
  -21.6636   -6.8869   21.4235 O   0  0  0  0  0  0
  -22.3540  -14.5537   20.6677 O   0  0  0  0  0  0
  -24.6229  -31.8630   23.2047 C   0  0  0  0  0  0
  -25.9091  -32.4794   23.8363 C   0  0  1  0  0  0
  -27.2312  -27.3579   20.1027 C   0  0  0  0  0  0
  -25.5919  -33.8596   24.2292 N   0  0  0  0  0  0
  -23.4144  -30.4871   21.5472 C   0  0  2  0  0  0
  -24.8607  -28.9470   20.1127 C   0  0  0  0  0  0
  -22.7453  -29.4644   22.4953 C   0  0  0  0  0  0
  -18.0284  -28.1382   22.8488 C   0  0  0  0  0  0
  -24.1489  -36.7299   23.2638 C   0  0  0  0  0  0
  -25.9529  -30.8050   21.3709 C   0  0  0  0  0  0
  -26.0286  -29.4362   20.7109 C   0  0  0  0  0  0
  -27.2169  -28.6534   20.6953 C   0  0  0  0  0  0
  -26.0356  -26.9086   19.4925 C   0  0  0  0  0  0
  -24.8637  -27.6863   19.4982 C   0  0  0  0  0  0
  -23.6265  -29.8221   20.1626 C   0  0  0  0  0  0
  -25.4111  -36.3093   24.0332 C   0  0  1  0  0  0
  -20.5881  -28.3684   23.1293 C   0  0  2  0  0  0
  -20.6774  -26.9410   22.5416 C   0  0  0  0  0  0
  -19.5751  -26.6383   21.5214 C   0  0  0  0  0  0
  -18.1930  -26.7927   22.1623 C   0  0  0  0  0  0
  -19.1535  -28.8849   23.2888 C   0  0  0  0  0  0
  -18.9460  -30.1452   23.8904 C   0  0  0  0  0  0
  -17.6460  -30.6584   24.0566 C   0  0  0  0  0  0
  -25.9045  -34.9460   23.5111 C   0  0  0  0  0  0
  -16.5352  -29.9084   23.6327 C   0  0  0  0  0  0
  -16.7270  -28.6501   23.0348 C   0  0  0  0  0  0
  -26.4482  -31.6598   25.0727 C   0  0  0  0  0  0
  -25.3720  -31.3753   26.1463 C   0  0  0  0  0  0
  -27.0311  -30.3015   24.6176 C   0  0  0  0  0  0
  -27.6051  -32.4328   25.7488 C   0  0  0  0  0  0
  -27.5583  -37.1802   24.8460 C   0  0  0  0  0  0
  -21.4171  -29.3042   22.3688 N   0  0  0  0  0  0
  -26.4291  -37.3782   23.9410 N   0  0  0  0  0  0
  -24.6819  -31.0671   22.0982 N   0  0  0  0  0  0
  -23.4191  -28.8183   23.3019 O   0  0  0  0  0  0
  -28.3719  -26.5504   20.1365 O   0  0  0  0  0  0
  -26.5608  -34.8924   22.4675 O   0  0  0  0  0  0
  -23.5401  -32.1419   23.7390 O   0  0  0  0  0  0
  -29.0083  -17.8813   21.4347 C   0  0  0  0  0  0
  -31.0876  -17.7443   20.2259 C   0  0  0  0  0  0
  -30.0128  -17.0628   20.8547 C   0  0  0  0  0  0
  -29.0951  -19.3022   21.4509 C   0  0  0  0  0  0
  -31.1850  -19.1656   20.2346 C   0  0  0  0  0  0
  -30.2001  -19.9756   20.8730 C   0  0  0  0  0  0
  -29.4598  -24.2422   20.2676 C   0  0  0  0  0  0
  -28.1855  -25.0989   19.9796 C   0  0  0  0  0  0
  -29.8627  -15.6139   20.9321 N   0  0  0  0  0  0
  -29.3171  -22.8309   20.4271 N   0  0  0  0  0  0
  -30.5581  -24.7970   20.3724 O   0  0  0  0  0  0
  -31.8056  -22.1441   20.6474 O   0  0  0  0  0  0
  -30.3057  -22.0001   22.6650 O   0  0  0  0  0  0
  -28.1142  -20.0061   22.0699 F   0  0  0  0  0  0
  -32.2740  -19.7206   19.6476 F   0  0  0  0  0  0
  -30.4957  -21.7840   21.2191 S   0  0  0  0  0  0
  -31.4770  -12.4706   19.1388 H   0  0  0  0  0  0
  -30.3541  -11.3560   19.8635 H   0  0  0  0  0  0
  -29.7581  -11.7635   17.4589 H   0  0  0  0  0  0
  -29.6592  -13.4811   17.7513 H   0  0  0  0  0  0
  -27.8478  -11.3002   18.8411 H   0  0  0  0  0  0
  -27.3754  -12.6076   17.7884 H   0  0  0  0  0  0
  -27.6853  -14.2523   19.5415 H   0  0  0  0  0  0
  -28.6989  -12.0092   21.3568 H   0  0  0  0  0  0
  -28.4542  -13.6548   21.8578 H   0  0  0  0  0  0
  -25.2756   -9.5673   22.4743 H   0  0  0  0  0  0
  -23.9989   -7.4632   22.7468 H   0  0  0  0  0  0
  -21.0818   -8.8778   19.8967 H   0  0  0  0  0  0
  -22.3683  -10.9665   19.6162 H   0  0  0  0  0  0
  -21.2019   -7.6139   23.9704 H   0  0  0  0  0  0
  -21.1477   -6.0518   25.9071 H   0  0  0  0  0  0
  -22.0602   -2.7599   23.2856 H   0  0  0  0  0  0
  -22.4114  -11.9914   22.4816 H   0  0  0  0  0  0
  -21.1122  -13.1283   22.2618 H   0  0  0  0  0  0
  -24.6636  -15.8432   20.5202 H   0  0  0  0  0  0
  -26.2738  -15.6252   20.0616 H   0  0  0  0  0  0
  -26.7164  -32.5476   23.1120 H   0  0  0  0  0  0
  -25.0067  -33.9743   25.0438 H   0  0  0  0  0  0
  -22.7069  -31.3069   21.4056 H   0  0  0  0  0  0
  -23.3749  -35.9635   23.3309 H   0  0  0  0  0  0
  -24.3582  -36.8905   22.2051 H   0  0  0  0  0  0
  -23.7247  -37.6508   23.6649 H   0  0  0  0  0  0
  -26.0823  -31.5728   20.6070 H   0  0  0  0  0  0
  -26.8340  -30.8506   21.9995 H   0  0  0  0  0  0
  -28.1164  -29.0272   21.1646 H   0  0  0  0  0  0
  -25.9748  -25.9466   19.0074 H   0  0  0  0  0  0
  -23.9663  -27.3045   19.0307 H   0  0  0  0  0  0
  -23.7410  -30.5977   19.4045 H   0  0  0  0  0  0
  -22.7481  -29.2472   19.8630 H   0  0  0  0  0  0
  -25.1290  -36.1948   25.0824 H   0  0  0  0  0  0
  -20.9972  -28.3262   24.1414 H   0  0  0  0  0  0
  -20.5672  -26.2293   23.3612 H   0  0  0  0  0  0
  -21.6647  -26.7444   22.1218 H   0  0  0  0  0  0
  -19.6914  -25.6293   21.1244 H   0  0  0  0  0  0
  -19.6688  -27.3192   20.6742 H   0  0  0  0  0  0
  -17.4200  -26.6676   21.4026 H   0  0  0  0  0  0
  -18.0329  -26.0068   22.9017 H   0  0  0  0  0  0
  -19.7936  -30.7270   24.2276 H   0  0  0  0  0  0
  -17.5014  -31.6264   24.5168 H   0  0  0  0  0  0
  -15.5354  -30.2988   23.7646 H   0  0  0  0  0  0
  -15.8671  -28.0820   22.7061 H   0  0  0  0  0  0
  -24.5886  -30.7102   25.7809 H   0  0  0  0  0  0
  -24.8917  -32.2929   26.4873 H   0  0  0  0  0  0
  -25.8046  -30.8951   27.0248 H   0  0  0  0  0  0
  -26.2880  -29.6784   24.1184 H   0  0  0  0  0  0
  -27.3983  -29.7257   25.4683 H   0  0  0  0  0  0
  -27.8761  -30.4290   23.9405 H   0  0  0  0  0  0
  -27.2662  -33.3619   26.2085 H   0  0  0  0  0  0
  -28.3843  -32.6910   25.0305 H   0  0  0  0  0  0
  -28.0740  -31.8447   26.5387 H   0  0  0  0  0  0
  -28.2605  -38.0095   24.7510 H   0  0  0  0  0  0
  -28.1074  -36.2631   24.6275 H   0  0  0  0  0  0
  -27.2308  -37.1442   25.8864 H   0  0  0  0  0  0
  -20.9338  -29.8762   21.6904 H   0  0  0  0  0  0
  -26.0179  -38.2859   24.1412 H   0  0  0  0  0  0
  -28.1554  -17.4221   21.9132 H   0  0  0  0  0  0
  -31.8799  -17.1924   19.7432 H   0  0  0  0  0  0
  -27.3920  -24.7532   20.6431 H   0  0  0  0  0  0
  -27.8868  -24.8777   18.9548 H   0  0  0  0  0  0
  -28.9731  -15.2971   21.2868 H   0  0  0  0  0  0
  -28.3767  -22.4481   20.5144 H   0  0  0  0  0  0
  1 25  1  0  0  0
  1 30  2  0  0  0
  1 79  1  0  0  0
  2  3  1  0  0  0
  2 25  1  0  0  0
  2 87  1  0  0  0
  2 88  1  0  0  0
  3  4  1  0  0  0
  3 89  1  0  0  0
  3 90  1  0  0  0
  4  5  1  0  0  0
  4 91  1  0  0  0
  4 92  1  0  0  0
  5  6  1  0  0  0
  5 26  1  0  0  0
  5 93  1  0  0  0
  6 25  1  0  0  0
  6 94  1  0  0  0
  6 95  1  0  0  0
  7  8  2  0  0  0
  7 26  1  0  0  0
  7 29  1  0  0  0
  8  9  1  0  0  0
  8 22  1  0  0  0
  9 10  1  0  0  0
  9 27  2  0  0  0
 10 11  2  0  0  0
 10 15  1  0  0  0
 11 12  1  0  0  0
 11 96  1  0  0  0
 12 13  2  0  0  0
 12 97  1  0  0  0
 13 14  1  0  0  0
 13 31  1  0  0  0
 14 15  2  0  0  0
 14 98  1  0  0  0
 15 99  1  0  0  0
 16 17  2  0  0  0
 16 21  1  0  0  0
 16 31  1  0  0  0
 17 18  1  0  0  0
 17100  1  0  0  0
 18 19  2  0  0  0
 18101  1  0  0  0
 19 20  1  0  0  0
 19 24  1  0  0  0
 20 21  2  0  0  0
 20102  1  0  0  0
 21 23  1  0  0  0
 22 28  1  0  0  0
 22 32  2  0  0  0
 26 27  1  0  0  0
 28103  1  0  0  0
 28104  1  0  0  0
 29105  1  0  0  0
 29106  1  0  0  0
 33 34  1  0  0  0
 33 66  1  0  0  0
 33 70  2  0  0  0
 34 36  1  0  0  0
 34 59  1  0  0  0
 34107  1  0  0  0
 35 44  2  0  0  0
 35 45  1  0  0  0
 35 68  1  0  0  0
 36 56  1  0  0  0
 36108  1  0  0  0
 37 39  1  0  0  0
 37 47  1  0  0  0
 37 66  1  0  0  0
 37109  1  0  0  0
 38 43  2  0  0  0
 38 46  1  0  0  0
 38 47  1  0  0  0
 39 64  1  0  0  0
 39 67  2  0  0  0
 40 52  1  0  0  0
 40 53  2  0  0  0
 40 58  1  0  0  0
 41110  1  0  0  0
 41111  1  0  0  0
 41112  1  0  0  0
 41 48  1  0  0  0
 42 43  1  0  0  0
 42 66  1  0  0  0
 42113  1  0  0  0
 42114  1  0  0  0
 43 44  1  0  0  0
 44115  1  0  0  0
 45 46  2  0  0  0
 45116  1  0  0  0
 46117  1  0  0  0
 47118  1  0  0  0
 47119  1  0  0  0
 48 56  1  0  0  0
 48 65  1  0  0  0
 48120  1  0  0  0
 49 50  1  0  0  0
 49 53  1  0  0  0
 49 64  1  0  0  0
 49121  1  0  0  0
 50 51  1  0  0  0
 50122  1  0  0  0
 50123  1  0  0  0
 51 52  1  0  0  0
 51124  1  0  0  0
 51125  1  0  0  0
 52126  1  0  0  0
 52127  1  0  0  0
 53 54  1  0  0  0
 54 55  2  0  0  0
 54128  1  0  0  0
 55 57  1  0  0  0
 55129  1  0  0  0
 56 69  2  0  0  0
 57 58  2  0  0  0
 57130  1  0  0  0
 58131  1  0  0  0
 59 60  1  0  0  0
 59 61  1  0  0  0
 59 62  1  0  0  0
 60132  1  0  0  0
 60133  1  0  0  0
 60134  1  0  0  0
 61135  1  0  0  0
 61136  1  0  0  0
 61137  1  0  0  0
 62138  1  0  0  0
 62139  1  0  0  0
 62140  1  0  0  0
 63 65  1  0  0  0
 63141  1  0  0  0
 63142  1  0  0  0
 63143  1  0  0  0
 64144  1  0  0  0
 65145  1  0  0  0
 68 78  1  0  0  0
 71 73  2  0  0  0
 71 74  1  0  0  0
 71146  1  0  0  0
 72 73  1  0  0  0
 72 75  2  0  0  0
 72147  1  0  0  0
 73 79  1  0  0  0
 74 76  2  0  0  0
 74 84  1  0  0  0
 75 76  1  0  0  0
 75 85  1  0  0  0
 76 86  1  0  0  0
 77 78  1  0  0  0
 77 80  1  0  0  0
 77 81  2  0  0  0
 78148  1  0  0  0
 78149  1  0  0  0
 79150  1  0  0  0
 80151  1  0  0  0
 80 86  1  0  0  0
 82 86  2  0  0  0
 83 86  2  0  0  0
M  ISO  4   1 100  68 101  78 101  79 100
M  END
> <chiral flag>
0

> <version>
0

> <s_m_source_file>
/data/baiqing/PycharmProjects/Reinvent-master-3.2/result/LINK_invent/BTK/process_docking_weight1_custom_product_contain_oxygen_bond_distance_aromatic_linkinvent_7_9_3/rearranged_h_0073.sdf

> <i_m_source_file_index>
16

> <r_mmod_Potential_Energy-OPLS-2005>
-51.1014022827148

> <r_mmod_Stretch_Energy-OPLS-2005>
64.9773101806641

> <r_mmod_Bend_Energy-OPLS-2005>
130.885070800781

> <r_mmod_Torsional_Energy-OPLS-2005>
240.599700927734

> <r_mmod_Improper_Torsional_Energy-OPLS-2005>
7.05880928039551

> <r_mmod_Van_der_Waal_Energy-OPLS-2005>
144.90087890625

> <r_mmod_Electrostatic_Energy-OPLS-2005>
-368.543548583984

> <r_mmod_Solvation_Energy-OPLS-2005>
-302.367004394531

> <b_mmod_Minimization_Converged-OPLS-2005>
0

> <r_mmod_RMS_Derivative-OPLS-2005>
0.968171179294586

$$$$
16
                    3D
 Structure written by MMmdl.
161170  0  0  1  0            999 V2000
  -30.6005  -14.7487   20.4764 C   0  0  0  0  0  0
  -30.4423  -12.4554   19.4971 C   0  0  0  0  0  0
  -29.5286  -12.5247   18.2518 C   0  0  0  0  0  0
  -28.0504  -12.3500   18.6520 C   0  0  0  0  0  0
  -27.6516  -13.2336   19.8657 C   0  0  2  0  0  0
  -28.6886  -13.1483   21.0076 C   0  0  0  0  0  0
  -25.2540  -13.8195   20.5681 C   0  0  0  0  0  0
  -24.1818  -13.0442   20.9157 C   0  0  0  0  0  0
  -24.6410  -11.6927   20.8713 C   0  0  0  0  0  0
  -23.9082  -10.4308   21.0397 C   0  0  0  0  0  0
  -24.3633   -9.4227   21.9180 C   0  0  0  0  0  0
  -23.6301   -8.2266   22.0752 C   0  0  0  0  0  0
  -22.4270   -8.0304   21.3550 C   0  0  0  0  0  0
  -21.9905   -9.0277   20.4648 C   0  0  0  0  0  0
  -22.7243  -10.2146   20.3061 C   0  0  0  0  0  0
  -21.6858   -6.0741   22.5278 C   0  0  0  0  0  0
  -21.4022   -6.5639   23.8208 C   0  0  0  0  0  0
  -21.3654   -5.6781   24.9170 C   0  0  0  0  0  0
  -21.6038   -4.3048   24.7210 C   0  0  0  0  0  0
  -21.8826   -3.8148   23.4330 C   0  0  0  0  0  0
  -21.9192   -4.6973   22.3382 C   0  0  0  0  0  0
  -22.7845  -13.5246   21.1845 C   0  0  0  0  0  0
  -22.1663   -4.2166   21.0966 F   0  0  0  0  0  0
  -21.5626   -3.4524   25.7717 F   0  0  0  0  0  0
  -29.9973  -13.5079   20.4446 N   0  0  0  0  0  0
  -26.2986  -12.9404   20.3306 N   0  0  0  0  0  0
  -25.9349  -11.6540   20.5725 N   0  0  0  0  0  0
  -22.0487  -12.8245   22.0396 N   0  0  0  0  0  0
  -25.4253  -15.1915   20.4167 N   0  0  0  0  0  0
  -31.7550  -14.8738   20.0582 O   0  0  0  0  0  0
  -21.6645   -6.8894   21.4239 O   0  0  0  0  0  0
  -22.3530  -14.5557   20.6687 O   0  0  0  0  0  0
  -24.6341  -31.8540   23.1965 C   0  0  0  0  0  0
  -25.9158  -32.4745   23.8322 C   0  0  1  0  0  0
  -27.2158  -27.2313   20.1349 C   0  0  0  0  0  0
  -25.5936  -33.8548   24.2231 N   0  0  0  0  0  0
  -23.4313  -30.4759   21.5426 C   0  0  2  0  0  0
  -24.8784  -28.9222   20.1084 C   0  0  0  0  0  0
  -22.7519  -29.4587   22.4925 C   0  0  0  0  0  0
  -18.0289  -28.1402   22.8486 C   0  0  0  0  0  0
  -24.1476  -36.7272   23.2642 C   0  0  0  0  0  0
  -25.9801  -30.7572   21.3817 C   0  0  0  0  0  0
  -26.0517  -29.3782   20.7219 C   0  0  0  0  0  0
  -27.2213  -28.5452   20.7258 C   0  0  0  0  0  0
  -26.0230  -26.8650   19.4670 C   0  0  0  0  0  0
  -24.8712  -27.6750   19.4688 C   0  0  0  0  0  0
  -23.6496  -29.8112   20.1584 C   0  0  0  0  0  0
  -25.4111  -36.3062   24.0317 C   0  0  1  0  0  0
  -20.5897  -28.3704   23.1267 C   0  0  2  0  0  0
  -20.6774  -26.9416   22.5419 C   0  0  0  0  0  0
  -19.5748  -26.6384   21.5221 C   0  0  0  0  0  0
  -18.1926  -26.7940   22.1626 C   0  0  0  0  0  0
  -19.1545  -28.8873   23.2865 C   0  0  0  0  0  0
  -18.9473  -30.1470   23.8888 C   0  0  0  0  0  0
  -17.6472  -30.6601   24.0563 C   0  0  0  0  0  0
  -25.9063  -34.9438   23.5082 C   0  0  0  0  0  0
  -16.5360  -29.9094   23.6336 C   0  0  0  0  0  0
  -16.7275  -28.6510   23.0358 C   0  0  0  0  0  0
  -26.4499  -31.6593   25.0735 C   0  0  0  0  0  0
  -25.3695  -31.3798   26.1440 C   0  0  0  0  0  0
  -27.0360  -30.2998   24.6276 C   0  0  0  0  0  0
  -27.6042  -32.4356   25.7516 C   0  0  0  0  0  0
  -27.5574  -37.1786   24.8460 C   0  0  0  0  0  0
  -21.4230  -29.3039   22.3652 N   0  0  0  0  0  0
  -26.4277  -37.3773   23.9415 N   0  0  0  0  0  0
  -24.7014  -31.0472   22.0962 N   0  0  0  0  0  0
  -23.4205  -28.8139   23.3042 O   0  0  0  0  0  0
  -28.2884  -26.2990   20.2292 O   0  0  0  0  0  0
  -26.5649  -34.8924   22.4658 O   0  0  0  0  0  0
  -23.5482  -32.1385   23.7239 O   0  0  0  0  0  0
  -29.1387  -16.9804   18.8319 C   0  0  0  0  0  0
  -29.6251  -18.4935   20.6696 C   0  0  0  0  0  0
  -28.7360  -18.0802   18.0496 C   0  0  0  0  0  0
  -28.8171  -19.4113   18.5452 C   0  0  0  0  0  0
  -29.2240  -19.6683   19.8894 C   0  0  0  0  0  0
  -29.6083  -17.1265   20.1486 C   0  0  0  0  0  0
  -28.3117  -22.0717   20.4002 C   0  0  0  0  0  0
  -30.3034  -23.3133   20.2556 C   0  0  0  0  0  0
  -30.5735  -21.7926   20.4876 C   0  0  0  0  0  0
  -28.8344  -23.5545   20.6350 C   0  0  1  0  0  0
  -28.1942  -17.7816   16.6585 C   0  0  0  0  0  0
  -28.4875  -20.5652   17.5954 C   0  0  0  0  0  0
  -28.0342  -24.8212   19.9733 C   0  0  0  0  0  0
  -29.2936  -21.0964   20.3503 N   0  0  0  0  0  0
  -29.8652  -15.8576   20.8812 N   0  0  0  0  0  0
  -27.1034  -21.8363   20.3063 O   0  0  0  0  0  0
  -31.4878  -12.5719   19.2058 H   0  0  0  0  0  0
  -30.3794  -11.4742   19.9694 H   0  0  0  0  0  0
  -29.8180  -11.7629   17.5263 H   0  0  0  0  0  0
  -29.6627  -13.4834   17.7500 H   0  0  0  0  0  0
  -27.8982  -11.2975   18.8926 H   0  0  0  0  0  0
  -27.4034  -12.5626   17.8000 H   0  0  0  0  0  0
  -27.6552  -14.2628   19.5095 H   0  0  0  0  0  0
  -28.7165  -12.1400   21.4232 H   0  0  0  0  0  0
  -28.4154  -13.8090   21.8318 H   0  0  0  0  0  0
  -25.2795   -9.5694   22.4733 H   0  0  0  0  0  0
  -24.0007   -7.4655   22.7467 H   0  0  0  0  0  0
  -21.0831   -8.8816   19.8953 H   0  0  0  0  0  0
  -22.3729  -10.9685   19.6166 H   0  0  0  0  0  0
  -21.2036   -7.6144   23.9719 H   0  0  0  0  0  0
  -21.1458   -6.0510   25.9069 H   0  0  0  0  0  0
  -22.0611   -2.7613   23.2823 H   0  0  0  0  0  0
  -22.4077  -11.9901   22.4792 H   0  0  0  0  0  0
  -21.1123  -13.1308   22.2624 H   0  0  0  0  0  0
  -24.6631  -15.8475   20.5470 H   0  0  0  0  0  0
  -26.2833  -15.6390   20.1197 H   0  0  0  0  0  0
  -26.7229  -32.5386   23.1068 H   0  0  0  0  0  0
  -25.0041  -33.9672   25.0345 H   0  0  0  0  0  0
  -22.7284  -31.2986   21.3968 H   0  0  0  0  0  0
  -23.3745  -35.9594   23.3294 H   0  0  0  0  0  0
  -24.3570  -36.8915   22.2061 H   0  0  0  0  0  0
  -23.7220  -37.6462   23.6684 H   0  0  0  0  0  0
  -26.1245  -31.5175   20.6126 H   0  0  0  0  0  0
  -26.8551  -30.8053   22.0182 H   0  0  0  0  0  0
  -28.1144  -28.8870   21.2303 H   0  0  0  0  0  0
  -25.9401  -25.9210   18.9493 H   0  0  0  0  0  0
  -23.9752  -27.3238   18.9765 H   0  0  0  0  0  0
  -23.7749  -30.5883   19.4035 H   0  0  0  0  0  0
  -22.7662  -29.2473   19.8535 H   0  0  0  0  0  0
  -25.1285  -36.1907   25.0806 H   0  0  0  0  0  0
  -20.9969  -28.3295   24.1393 H   0  0  0  0  0  0
  -20.5672  -26.2316   23.3631 H   0  0  0  0  0  0
  -21.6645  -26.7442   22.1217 H   0  0  0  0  0  0
  -19.6906  -25.6290   21.1262 H   0  0  0  0  0  0
  -19.6680  -27.3180   20.6739 H   0  0  0  0  0  0
  -17.4194  -26.6685   21.4030 H   0  0  0  0  0  0
  -18.0313  -26.0092   22.9028 H   0  0  0  0  0  0
  -19.7954  -30.7286   24.2250 H   0  0  0  0  0  0
  -17.5032  -31.6277   24.5166 H   0  0  0  0  0  0
  -15.5365  -30.2992   23.7670 H   0  0  0  0  0  0
  -15.8670  -28.0821   22.7086 H   0  0  0  0  0  0
  -24.5832  -30.7186   25.7771 H   0  0  0  0  0  0
  -24.8924  -32.2995   26.4837 H   0  0  0  0  0  0
  -25.7962  -30.8985   27.0241 H   0  0  0  0  0  0
  -26.2973  -29.6743   24.1243 H   0  0  0  0  0  0
  -27.3950  -29.7277   25.4842 H   0  0  0  0  0  0
  -27.8883  -30.4253   23.9594 H   0  0  0  0  0  0
  -27.2621  -33.3648   26.2084 H   0  0  0  0  0  0
  -28.3847  -32.6935   25.0346 H   0  0  0  0  0  0
  -28.0705  -31.8498   26.5444 H   0  0  0  0  0  0
  -28.2581  -38.0095   24.7529 H   0  0  0  0  0  0
  -28.1078  -36.2631   24.6243 H   0  0  0  0  0  0
  -27.2305  -37.1394   25.8866 H   0  0  0  0  0  0
  -20.9430  -29.8745   21.6837 H   0  0  0  0  0  0
  -26.0150  -38.2836   24.1445 H   0  0  0  0  0  0
  -29.0488  -15.9879   18.4118 H   0  0  0  0  0  0
  -29.9507  -18.6473   21.6891 H   0  0  0  0  0  0
  -30.4634  -23.5614   19.2058 H   0  0  0  0  0  0
  -30.9849  -23.9346   20.8373 H   0  0  0  0  0  0
  -30.9536  -21.6180   21.4958 H   0  0  0  0  0  0
  -31.3113  -21.4079   19.7822 H   0  0  0  0  0  0
  -28.7918  -23.6919   21.7157 H   0  0  0  0  0  0
  -27.9443  -16.7262   16.5410 H   0  0  0  0  0  0
  -28.9305  -18.0319   15.8948 H   0  0  0  0  0  0
  -27.2796  -18.3437   16.4651 H   0  0  0  0  0  0
  -28.6224  -20.3018   16.5477 H   0  0  0  0  0  0
  -29.1438  -21.4197   17.7578 H   0  0  0  0  0  0
  -27.4548  -20.8876   17.7310 H   0  0  0  0  0  0
  -27.0099  -24.6292   20.2915 H   0  0  0  0  0  0
  -28.0337  -24.6857   18.8913 H   0  0  0  0  0  0
  -29.1006  -15.5962   21.4860 H   0  0  0  0  0  0
  1 25  1  0  0  0
  1 30  2  0  0  0
  1 85  1  0  0  0
  2  3  1  0  0  0
  2 25  1  0  0  0
  2 87  1  0  0  0
  2 88  1  0  0  0
  3  4  1  0  0  0
  3 89  1  0  0  0
  3 90  1  0  0  0
  4  5  1  0  0  0
  4 91  1  0  0  0
  4 92  1  0  0  0
  5  6  1  0  0  0
  5 26  1  0  0  0
  5 93  1  0  0  0
  6 25  1  0  0  0
  6 94  1  0  0  0
  6 95  1  0  0  0
  7  8  2  0  0  0
  7 26  1  0  0  0
  7 29  1  0  0  0
  8  9  1  0  0  0
  8 22  1  0  0  0
  9 10  1  0  0  0
  9 27  2  0  0  0
 10 11  2  0  0  0
 10 15  1  0  0  0
 11 12  1  0  0  0
 11 96  1  0  0  0
 12 13  2  0  0  0
 12 97  1  0  0  0
 13 14  1  0  0  0
 13 31  1  0  0  0
 14 15  2  0  0  0
 14 98  1  0  0  0
 15 99  1  0  0  0
 16 17  2  0  0  0
 16 21  1  0  0  0
 16 31  1  0  0  0
 17 18  1  0  0  0
 17100  1  0  0  0
 18 19  2  0  0  0
 18101  1  0  0  0
 19 20  1  0  0  0
 19 24  1  0  0  0
 20 21  2  0  0  0
 20102  1  0  0  0
 21 23  1  0  0  0
 22 28  1  0  0  0
 22 32  2  0  0  0
 26 27  1  0  0  0
 28103  1  0  0  0
 28104  1  0  0  0
 29105  1  0  0  0
 29106  1  0  0  0
 33 34  1  0  0  0
 33 66  1  0  0  0
 33 70  2  0  0  0
 34 36  1  0  0  0
 34 59  1  0  0  0
 34107  1  0  0  0
 35 44  2  0  0  0
 35 45  1  0  0  0
 35 68  1  0  0  0
 36 56  1  0  0  0
 36108  1  0  0  0
 37 39  1  0  0  0
 37 47  1  0  0  0
 37 66  1  0  0  0
 37109  1  0  0  0
 38 43  2  0  0  0
 38 46  1  0  0  0
 38 47  1  0  0  0
 39 64  1  0  0  0
 39 67  2  0  0  0
 40 52  1  0  0  0
 40 53  2  0  0  0
 40 58  1  0  0  0
 41110  1  0  0  0
 41111  1  0  0  0
 41112  1  0  0  0
 41 48  1  0  0  0
 42 43  1  0  0  0
 42 66  1  0  0  0
 42113  1  0  0  0
 42114  1  0  0  0
 43 44  1  0  0  0
 44115  1  0  0  0
 45 46  2  0  0  0
 45116  1  0  0  0
 46117  1  0  0  0
 47118  1  0  0  0
 47119  1  0  0  0
 48 56  1  0  0  0
 48 65  1  0  0  0
 48120  1  0  0  0
 49 50  1  0  0  0
 49 53  1  0  0  0
 49 64  1  0  0  0
 49121  1  0  0  0
 50 51  1  0  0  0
 50122  1  0  0  0
 50123  1  0  0  0
 51 52  1  0  0  0
 51124  1  0  0  0
 51125  1  0  0  0
 52126  1  0  0  0
 52127  1  0  0  0
 53 54  1  0  0  0
 54 55  2  0  0  0
 54128  1  0  0  0
 55 57  1  0  0  0
 55129  1  0  0  0
 56 69  2  0  0  0
 57 58  2  0  0  0
 57130  1  0  0  0
 58131  1  0  0  0
 59 60  1  0  0  0
 59 61  1  0  0  0
 59 62  1  0  0  0
 60132  1  0  0  0
 60133  1  0  0  0
 60134  1  0  0  0
 61135  1  0  0  0
 61136  1  0  0  0
 61137  1  0  0  0
 62138  1  0  0  0
 62139  1  0  0  0
 62140  1  0  0  0
 63 65  1  0  0  0
 63141  1  0  0  0
 63142  1  0  0  0
 63143  1  0  0  0
 64144  1  0  0  0
 65145  1  0  0  0
 68 83  1  0  0  0
 71 73  2  0  0  0
 71 76  1  0  0  0
 71146  1  0  0  0
 72 75  1  0  0  0
 72 76  2  0  0  0
 72147  1  0  0  0
 73 74  1  0  0  0
 73 81  1  0  0  0
 74 75  2  0  0  0
 74 82  1  0  0  0
 75 84  1  0  0  0
 76 85  1  0  0  0
 77 80  1  0  0  0
 77 84  1  0  0  0
 77 86  2  0  0  0
 78 79  1  0  0  0
 78 80  1  0  0  0
 78148  1  0  0  0
 78149  1  0  0  0
 79 84  1  0  0  0
 79150  1  0  0  0
 79151  1  0  0  0
 80 83  1  0  0  0
 80152  1  0  0  0
 81153  1  0  0  0
 81154  1  0  0  0
 81155  1  0  0  0
 82156  1  0  0  0
 82157  1  0  0  0
 82158  1  0  0  0
 83159  1  0  0  0
 83160  1  0  0  0
 85161  1  0  0  0
M  ISO  4   1 100  68 101  83 101  85 100
M  END
> <chiral flag>
0

> <version>
0

> <s_m_source_file>
/data/baiqing/PycharmProjects/Reinvent-master-3.2/result/LINK_invent/BTK/process_docking_weight1_custom_product_contain_oxygen_bond_distance_aromatic_linkinvent_7_9_3/rearranged_h_0073.sdf

> <i_m_source_file_index>
17

> <r_mmod_Potential_Energy-OPLS-2005>
337.107299804688

> <r_mmod_Stretch_Energy-OPLS-2005>
141.383178710938

> <r_mmod_Bend_Energy-OPLS-2005>
205.130142211914

> <r_mmod_Torsional_Energy-OPLS-2005>
325.254577636719

> <r_mmod_Improper_Torsional_Energy-OPLS-2005>
6.46656847000122

> <r_mmod_Van_der_Waal_Energy-OPLS-2005>
137.76887512207

> <r_mmod_Electrostatic_Energy-OPLS-2005>
-352.938537597656

> <r_mmod_Solvation_Energy-OPLS-2005>
-222.554916381836

> <b_mmod_Minimization_Converged-OPLS-2005>
0

> <r_mmod_RMS_Derivative-OPLS-2005>
2.48163652420044

$$$$
17
                    3D
 Structure written by MMmdl.
160169  0  0  1  0            999 V2000
  -30.6129  -14.6528   20.5152 C   0  0  0  0  0  0
  -30.4450  -12.4013   19.4599 C   0  0  0  0  0  0
  -29.5156  -12.5151   18.2303 C   0  0  0  0  0  0
  -28.0368  -12.3522   18.6371 C   0  0  0  0  0  0
  -27.6578  -13.2180   19.8683 C   0  0  2  0  0  0
  -28.7004  -13.0634   20.9990 C   0  0  0  0  0  0
  -25.2573  -13.8169   20.5681 C   0  0  0  0  0  0
  -24.1837  -13.0433   20.9173 C   0  0  0  0  0  0
  -24.6407  -11.6905   20.8723 C   0  0  0  0  0  0
  -23.9071  -10.4290   21.0393 C   0  0  0  0  0  0
  -24.3620   -9.4207   21.9176 C   0  0  0  0  0  0
  -23.6293   -8.2244   22.0753 C   0  0  0  0  0  0
  -22.4275   -8.0281   21.3544 C   0  0  0  0  0  0
  -21.9909   -9.0254   20.4646 C   0  0  0  0  0  0
  -22.7240  -10.2129   20.3048 C   0  0  0  0  0  0
  -21.6856   -6.0731   22.5279 C   0  0  0  0  0  0
  -21.4016   -6.5635   23.8212 C   0  0  0  0  0  0
  -21.3660   -5.6789   24.9175 C   0  0  0  0  0  0
  -21.6046   -4.3052   24.7225 C   0  0  0  0  0  0
  -21.8819   -3.8140   23.4348 C   0  0  0  0  0  0
  -21.9194   -4.6957   22.3402 C   0  0  0  0  0  0
  -22.7857  -13.5229   21.1830 C   0  0  0  0  0  0
  -22.1660   -4.2139   21.0979 F   0  0  0  0  0  0
  -21.5630   -3.4538   25.7739 F   0  0  0  0  0  0
  -30.0189  -13.4168   20.4451 N   0  0  0  0  0  0
  -26.3013  -12.9355   20.3327 N   0  0  0  0  0  0
  -25.9340  -11.6508   20.5749 N   0  0  0  0  0  0
  -22.0492  -12.8234   22.0393 N   0  0  0  0  0  0
  -25.4287  -15.1890   20.4105 N   0  0  0  0  0  0
  -31.7516  -14.8436   20.0774 O   0  0  0  0  0  0
  -21.6640   -6.8876   21.4244 O   0  0  0  0  0  0
  -22.3543  -14.5532   20.6669 O   0  0  0  0  0  0
  -24.6266  -31.8592   23.2013 C   0  0  0  0  0  0
  -25.9111  -32.4769   23.8348 C   0  0  1  0  0  0
  -27.2260  -27.3093   20.1166 C   0  0  0  0  0  0
  -25.5920  -33.8570   24.2268 N   0  0  0  0  0  0
  -23.4205  -30.4832   21.5443 C   0  0  2  0  0  0
  -24.8676  -28.9372   20.1109 C   0  0  0  0  0  0
  -22.7467  -29.4626   22.4924 C   0  0  0  0  0  0
  -18.0286  -28.1384   22.8491 C   0  0  0  0  0  0
  -24.1488  -36.7297   23.2641 C   0  0  0  0  0  0
  -25.9636  -30.7852   21.3763 C   0  0  0  0  0  0
  -26.0374  -29.4133   20.7164 C   0  0  0  0  0  0
  -27.2181  -28.6108   20.7099 C   0  0  0  0  0  0
  -26.0305  -26.8895   19.4865 C   0  0  0  0  0  0
  -24.8668  -27.6802   19.4888 C   0  0  0  0  0  0
  -23.6359  -29.8182   20.1599 C   0  0  0  0  0  0
  -25.4112  -36.3079   24.0329 C   0  0  1  0  0  0
  -20.5886  -28.3695   23.1278 C   0  0  2  0  0  0
  -20.6772  -26.9415   22.5412 C   0  0  0  0  0  0
  -19.5748  -26.6386   21.5213 C   0  0  0  0  0  0
  -18.1929  -26.7927   22.1628 C   0  0  0  0  0  0
  -19.1538  -28.8856   23.2881 C   0  0  0  0  0  0
  -18.9464  -30.1456   23.8898 C   0  0  0  0  0  0
  -17.6465  -30.6591   24.0565 C   0  0  0  0  0  0
  -25.9055  -34.9450   23.5103 C   0  0  0  0  0  0
  -16.5355  -29.9092   23.6327 C   0  0  0  0  0  0
  -16.7273  -28.6507   23.0355 C   0  0  0  0  0  0
  -26.4489  -31.6585   25.0729 C   0  0  0  0  0  0
  -25.3719  -31.3743   26.1457 C   0  0  0  0  0  0
  -27.0332  -30.2998   24.6216 C   0  0  0  0  0  0
  -27.6039  -32.4332   25.7505 C   0  0  0  0  0  0
  -27.5576  -37.1805   24.8464 C   0  0  0  0  0  0
  -21.4180  -29.3048   22.3665 N   0  0  0  0  0  0
  -26.4289  -37.3773   23.9406 N   0  0  0  0  0  0
  -24.6889  -31.0594   22.0971 N   0  0  0  0  0  0
  -23.4188  -28.8163   23.3002 O   0  0  0  0  0  0
  -28.3445  -26.4566   20.1759 O   0  0  0  0  0  0
  -26.5634  -34.8917   22.4675 O   0  0  0  0  0  0
  -23.5426  -32.1404   23.7329 O   0  0  0  0  0  0
  -28.8528  -19.2676   21.7030 C   0  0  0  0  0  0
  -30.5538  -17.9148   19.9285 C   0  0  0  0  0  0
  -29.5554  -20.0523   20.7540 C   0  0  0  0  0  0
  -29.8363  -17.1299   20.8780 C   0  0  0  0  0  0
  -28.9809  -17.8506   21.7516 C   0  0  0  0  0  0
  -30.4145  -19.3432   19.8657 C   0  0  0  0  0  0
  -29.1099  -22.4854   19.8522 C   0  0  0  0  0  0
  -29.4146  -23.7033   21.8479 C   0  0  0  0  0  0
  -29.8312  -22.2239   22.0419 C   0  0  0  0  0  0
  -29.2997  -23.9520   20.3263 C   0  0  1  0  0  0
  -30.6363  -24.4068   19.7202 C   0  0  0  0  0  0
  -28.1560  -25.0011   19.9243 C   0  0  0  0  0  0
  -29.4633  -21.5526   20.7910 N   0  0  0  0  0  0
  -29.8271  -15.6660   20.9956 N   0  0  0  0  0  0
  -28.7008  -22.1767   18.6075 N   0  3  0  0  0  0
  -28.2589  -17.1582   22.6662 F   0  0  0  0  0  0
  -31.1343  -20.0329   18.9477 F   0  0  0  0  0  0
  -31.4864  -12.5312   19.1600 H   0  0  0  0  0  0
  -30.3848  -11.4027   19.8961 H   0  0  0  0  0  0
  -29.7832  -11.7642   17.4856 H   0  0  0  0  0  0
  -29.6594  -13.4847   17.7507 H   0  0  0  0  0  0
  -27.8717  -11.2984   18.8632 H   0  0  0  0  0  0
  -27.3855  -12.5871   17.7948 H   0  0  0  0  0  0
  -27.6800  -14.2558   19.5346 H   0  0  0  0  0  0
  -28.7117  -12.0372   21.3695 H   0  0  0  0  0  0
  -28.4367  -13.6813   21.8582 H   0  0  0  0  0  0
  -25.2765   -9.5684   22.4752 H   0  0  0  0  0  0
  -23.9997   -7.4641   22.7482 H   0  0  0  0  0  0
  -21.0832   -8.8777   19.8964 H   0  0  0  0  0  0
  -22.3697  -10.9667   19.6155 H   0  0  0  0  0  0
  -21.2010   -7.6143   23.9713 H   0  0  0  0  0  0
  -21.1482   -6.0518   25.9078 H   0  0  0  0  0  0
  -22.0598   -2.7602   23.2850 H   0  0  0  0  0  0
  -22.4098  -11.9902   22.4797 H   0  0  0  0  0  0
  -21.1111  -13.1274   22.2586 H   0  0  0  0  0  0
  -24.6643  -15.8447   20.5296 H   0  0  0  0  0  0
  -26.2854  -15.6308   20.1028 H   0  0  0  0  0  0
  -26.7178  -32.5431   23.1094 H   0  0  0  0  0  0
  -25.0030  -33.9711   25.0386 H   0  0  0  0  0  0
  -22.7157  -31.3048   21.4006 H   0  0  0  0  0  0
  -23.3743  -35.9637   23.3306 H   0  0  0  0  0  0
  -24.3578  -36.8915   22.2054 H   0  0  0  0  0  0
  -23.7253  -37.6504   23.6664 H   0  0  0  0  0  0
  -26.1010  -31.5488   20.6096 H   0  0  0  0  0  0
  -26.8412  -30.8294   22.0095 H   0  0  0  0  0  0
  -28.1137  -28.9705   21.1974 H   0  0  0  0  0  0
  -25.9611  -25.9310   18.9949 H   0  0  0  0  0  0
  -23.9700  -27.3075   19.0131 H   0  0  0  0  0  0
  -23.7545  -30.5952   19.4040 H   0  0  0  0  0  0
  -22.7552  -29.2489   19.8570 H   0  0  0  0  0  0
  -25.1290  -36.1930   25.0822 H   0  0  0  0  0  0
  -20.9982  -28.3277   24.1395 H   0  0  0  0  0  0
  -20.5673  -26.2303   23.3612 H   0  0  0  0  0  0
  -21.6641  -26.7446   22.1202 H   0  0  0  0  0  0
  -19.6908  -25.6296   21.1242 H   0  0  0  0  0  0
  -19.6681  -27.3194   20.6740 H   0  0  0  0  0  0
  -17.4194  -26.6672   21.4034 H   0  0  0  0  0  0
  -18.0335  -26.0070   22.9027 H   0  0  0  0  0  0
  -19.7945  -30.7269   24.2263 H   0  0  0  0  0  0
  -17.5028  -31.6270   24.5168 H   0  0  0  0  0  0
  -15.5358  -30.3001   23.7650 H   0  0  0  0  0  0
  -15.8671  -28.0829   22.7071 H   0  0  0  0  0  0
  -24.5885  -30.7098   25.7793 H   0  0  0  0  0  0
  -24.8924  -32.2920   26.4878 H   0  0  0  0  0  0
  -25.8042  -30.8926   27.0237 H   0  0  0  0  0  0
  -26.2918  -29.6754   24.1217 H   0  0  0  0  0  0
  -27.3972  -29.7254   25.4747 H   0  0  0  0  0  0
  -27.8813  -30.4254   23.9480 H   0  0  0  0  0  0
  -27.2628  -33.3621   26.2089 H   0  0  0  0  0  0
  -28.3848  -32.6917   25.0340 H   0  0  0  0  0  0
  -28.0712  -31.8465   26.5424 H   0  0  0  0  0  0
  -28.2599  -38.0097   24.7497 H   0  0  0  0  0  0
  -28.1067  -36.2630   24.6303 H   0  0  0  0  0  0
  -27.2299  -37.1467   25.8869 H   0  0  0  0  0  0
  -20.9347  -29.8774   21.6886 H   0  0  0  0  0  0
  -26.0172  -38.2850   24.1395 H   0  0  0  0  0  0
  -28.1962  -19.7510   22.4093 H   0  0  0  0  0  0
  -31.2130  -17.4299   19.2242 H   0  0  0  0  0  0
  -30.1215  -24.3876   22.3171 H   0  0  0  0  0  0
  -28.4507  -23.8650   22.3306 H   0  0  0  0  0  0
  -29.3442  -21.7817   22.9107 H   0  0  0  0  0  0
  -30.9095  -22.1432   22.1792 H   0  0  0  0  0  0
  -31.4348  -23.7033   19.9532 H   0  0  0  0  0  0
  -30.9290  -25.3851   20.1016 H   0  0  0  0  0  0
  -30.5695  -24.4792   18.6347 H   0  0  0  0  0  0
  -27.2389  -24.6726   20.4153 H   0  0  0  0  0  0
  -27.9799  -24.8937   18.8540 H   0  0  0  0  0  0
  -29.0121  -15.3220   21.4820 H   0  0  0  0  0  0
  -28.5118  -22.8970   17.9244 H   0  0  0  0  0  0
  -28.5910  -21.2225   18.2963 H   0  0  0  0  0  0
  1 25  1  0  0  0
  1 30  2  0  0  0
  1 84  1  0  0  0
  2  3  1  0  0  0
  2 25  1  0  0  0
  2 88  1  0  0  0
  2 89  1  0  0  0
  3  4  1  0  0  0
  3 90  1  0  0  0
  3 91  1  0  0  0
  4  5  1  0  0  0
  4 92  1  0  0  0
  4 93  1  0  0  0
  5  6  1  0  0  0
  5 26  1  0  0  0
  5 94  1  0  0  0
  6 25  1  0  0  0
  6 95  1  0  0  0
  6 96  1  0  0  0
  7  8  2  0  0  0
  7 26  1  0  0  0
  7 29  1  0  0  0
  8  9  1  0  0  0
  8 22  1  0  0  0
  9 10  1  0  0  0
  9 27  2  0  0  0
 10 11  2  0  0  0
 10 15  1  0  0  0
 11 12  1  0  0  0
 11 97  1  0  0  0
 12 13  2  0  0  0
 12 98  1  0  0  0
 13 14  1  0  0  0
 13 31  1  0  0  0
 14 15  2  0  0  0
 14 99  1  0  0  0
 15100  1  0  0  0
 16 17  2  0  0  0
 16 21  1  0  0  0
 16 31  1  0  0  0
 17 18  1  0  0  0
 17101  1  0  0  0
 18 19  2  0  0  0
 18102  1  0  0  0
 19 20  1  0  0  0
 19 24  1  0  0  0
 20 21  2  0  0  0
 20103  1  0  0  0
 21 23  1  0  0  0
 22 28  1  0  0  0
 22 32  2  0  0  0
 26 27  1  0  0  0
 28104  1  0  0  0
 28105  1  0  0  0
 29106  1  0  0  0
 29107  1  0  0  0
 33 34  1  0  0  0
 33 66  1  0  0  0
 33 70  2  0  0  0
 34 36  1  0  0  0
 34 59  1  0  0  0
 34108  1  0  0  0
 35 44  2  0  0  0
 35 45  1  0  0  0
 35 68  1  0  0  0
 36 56  1  0  0  0
 36109  1  0  0  0
 37 39  1  0  0  0
 37 47  1  0  0  0
 37 66  1  0  0  0
 37110  1  0  0  0
 38 43  2  0  0  0
 38 46  1  0  0  0
 38 47  1  0  0  0
 39 64  1  0  0  0
 39 67  2  0  0  0
 40 52  1  0  0  0
 40 53  2  0  0  0
 40 58  1  0  0  0
 41111  1  0  0  0
 41112  1  0  0  0
 41113  1  0  0  0
 41 48  1  0  0  0
 42 43  1  0  0  0
 42 66  1  0  0  0
 42114  1  0  0  0
 42115  1  0  0  0
 43 44  1  0  0  0
 44116  1  0  0  0
 45 46  2  0  0  0
 45117  1  0  0  0
 46118  1  0  0  0
 47119  1  0  0  0
 47120  1  0  0  0
 48 56  1  0  0  0
 48 65  1  0  0  0
 48121  1  0  0  0
 49 50  1  0  0  0
 49 53  1  0  0  0
 49 64  1  0  0  0
 49122  1  0  0  0
 50 51  1  0  0  0
 50123  1  0  0  0
 50124  1  0  0  0
 51 52  1  0  0  0
 51125  1  0  0  0
 51126  1  0  0  0
 52127  1  0  0  0
 52128  1  0  0  0
 53 54  1  0  0  0
 54 55  2  0  0  0
 54129  1  0  0  0
 55 57  1  0  0  0
 55130  1  0  0  0
 56 69  2  0  0  0
 57 58  2  0  0  0
 57131  1  0  0  0
 58132  1  0  0  0
 59 60  1  0  0  0
 59 61  1  0  0  0
 59 62  1  0  0  0
 60133  1  0  0  0
 60134  1  0  0  0
 60135  1  0  0  0
 61136  1  0  0  0
 61137  1  0  0  0
 61138  1  0  0  0
 62139  1  0  0  0
 62140  1  0  0  0
 62141  1  0  0  0
 63 65  1  0  0  0
 63142  1  0  0  0
 63143  1  0  0  0
 63144  1  0  0  0
 64145  1  0  0  0
 65146  1  0  0  0
 68 82  1  0  0  0
 71 73  2  0  0  0
 71 75  1  0  0  0
 71147  1  0  0  0
 72 74  1  0  0  0
 72 76  2  0  0  0
 72148  1  0  0  0
 73 76  1  0  0  0
 73 83  1  0  0  0
 74 75  2  0  0  0
 74 84  1  0  0  0
 75 86  1  0  0  0
 76 87  1  0  0  0
 77 80  1  0  0  0
 77 83  1  0  0  0
 77 85  2  0  0  0
 78 79  1  0  0  0
 78 80  1  0  0  0
 78149  1  0  0  0
 78150  1  0  0  0
 79 83  1  0  0  0
 79151  1  0  0  0
 79152  1  0  0  0
 80 81  1  0  0  0
 80 82  1  0  0  0
 81153  1  0  0  0
 81154  1  0  0  0
 81155  1  0  0  0
 82156  1  0  0  0
 82157  1  0  0  0
 84158  1  0  0  0
 85159  1  0  0  0
 85160  1  0  0  0
M  CHG  1  85   1
M  ISO  4   1 100  68 101  82 101  84 100
M  END
> <chiral flag>
0

> <version>
0

> <s_m_source_file>
/data/baiqing/PycharmProjects/Reinvent-master-3.2/result/LINK_invent/BTK/process_docking_weight1_custom_product_contain_oxygen_bond_distance_aromatic_linkinvent_7_9_3/rearranged_h_0073.sdf

> <i_m_source_file_index>
18

> <r_mmod_Potential_Energy-OPLS-2005>
-3.77868580818176

> <r_mmod_Stretch_Energy-OPLS-2005>
85.3304748535156

> <r_mmod_Bend_Energy-OPLS-2005>
190.527145385742

> <r_mmod_Torsional_Energy-OPLS-2005>
229.674270629883

> <r_mmod_Improper_Torsional_Energy-OPLS-2005>
3.60377860069275

> <r_mmod_Van_der_Waal_Energy-OPLS-2005>
135.619384765625

> <r_mmod_Electrostatic_Energy-OPLS-2005>
-273.584533691406

> <r_mmod_Solvation_Energy-OPLS-2005>
-427.545104980469

> <b_mmod_Minimization_Converged-OPLS-2005>
0

> <r_mmod_RMS_Derivative-OPLS-2005>
0.781380653381348

$$$$
18
                    3D
 Structure written by MMmdl.
167176  0  0  1  0            999 V2000
  -30.6895  -14.4866   20.6012 C   0  0  0  0  0  0
  -30.4317  -12.3285   19.4128 C   0  0  0  0  0  0
  -29.4951  -12.5143   18.2014 C   0  0  0  0  0  0
  -28.0183  -12.3611   18.6176 C   0  0  0  0  0  0
  -27.6610  -13.2025   19.8719 C   0  0  2  0  0  0
  -28.7043  -12.9806   20.9895 C   0  0  0  0  0  0
  -25.2595  -13.8144   20.5662 C   0  0  0  0  0  0
  -24.1840  -13.0433   20.9163 C   0  0  0  0  0  0
  -24.6387  -11.6896   20.8726 C   0  0  0  0  0  0
  -23.9050  -10.4289   21.0403 C   0  0  0  0  0  0
  -24.3604   -9.4211   21.9182 C   0  0  0  0  0  0
  -23.6278   -8.2248   22.0755 C   0  0  0  0  0  0
  -22.4264   -8.0283   21.3540 C   0  0  0  0  0  0
  -21.9893   -9.0258   20.4648 C   0  0  0  0  0  0
  -22.7220  -10.2138   20.3057 C   0  0  0  0  0  0
  -21.6851   -6.0734   22.5277 C   0  0  0  0  0  0
  -21.4017   -6.5639   23.8209 C   0  0  0  0  0  0
  -21.3656   -5.6792   24.9172 C   0  0  0  0  0  0
  -21.6046   -4.3057   24.7220 C   0  0  0  0  0  0
  -21.8818   -3.8145   23.4346 C   0  0  0  0  0  0
  -21.9190   -4.6960   22.3398 C   0  0  0  0  0  0
  -22.7865  -13.5247   21.1828 C   0  0  0  0  0  0
  -22.1659   -4.2145   21.0975 F   0  0  0  0  0  0
  -21.5624   -3.4542   25.7737 F   0  0  0  0  0  0
  -30.0309  -13.3062   20.4355 N   0  0  0  0  0  0
  -26.3019  -12.9302   20.3338 N   0  0  0  0  0  0
  -25.9312  -11.6467   20.5752 N   0  0  0  0  0  0
  -22.0491  -12.8262   22.0391 N   0  0  0  0  0  0
  -25.4330  -15.1863   20.4069 N   0  0  0  0  0  0
  -31.8185  -14.6970   20.1474 O   0  0  0  0  0  0
  -21.6634   -6.8876   21.4236 O   0  0  0  0  0  0
  -22.3564  -14.5553   20.6671 O   0  0  0  0  0  0
  -24.6167  -31.8674   23.2099 C   0  0  0  0  0  0
  -25.9054  -32.4818   23.8396 C   0  0  1  0  0  0
  -27.2385  -27.4211   20.0800 C   0  0  0  0  0  0
  -25.5908  -33.8615   24.2328 N   0  0  0  0  0  0
  -23.4050  -30.4923   21.5510 C   0  0  2  0  0  0
  -24.8505  -28.9602   20.1138 C   0  0  0  0  0  0
  -22.7417  -29.4656   22.4979 C   0  0  0  0  0  0
  -18.0277  -28.1375   22.8491 C   0  0  0  0  0  0
  -24.1489  -36.7314   23.2636 C   0  0  0  0  0  0
  -25.9370  -30.8268   21.3666 C   0  0  0  0  0  0
  -26.0127  -29.4607   20.7123 C   0  0  0  0  0  0
  -27.2045  -28.6949   20.7011 C   0  0  0  0  0  0
  -26.0427  -26.9330   19.4993 C   0  0  0  0  0  0
  -24.8607  -27.6941   19.5097 C   0  0  0  0  0  0
  -23.6135  -29.8279   20.1648 C   0  0  0  0  0  0
  -25.4108  -36.3106   24.0336 C   0  0  1  0  0  0
  -20.5866  -28.3666   23.1311 C   0  0  2  0  0  0
  -20.6764  -26.9401   22.5415 C   0  0  0  0  0  0
  -19.5742  -26.6385   21.5210 C   0  0  0  0  0  0
  -18.1922  -26.7924   22.1623 C   0  0  0  0  0  0
  -19.1525  -28.8838   23.2901 C   0  0  0  0  0  0
  -18.9455  -30.1440   23.8915 C   0  0  0  0  0  0
  -17.6455  -30.6581   24.0567 C   0  0  0  0  0  0
  -25.9038  -34.9473   23.5128 C   0  0  0  0  0  0
  -16.5346  -29.9085   23.6323 C   0  0  0  0  0  0
  -16.7263  -28.6500   23.0349 C   0  0  0  0  0  0
  -26.4479  -31.6597   25.0725 C   0  0  0  0  0  0
  -25.3747  -31.3722   26.1480 C   0  0  0  0  0  0
  -27.0292  -30.3029   24.6111 C   0  0  0  0  0  0
  -27.6067  -32.4306   25.7473 C   0  0  0  0  0  0
  -27.5583  -37.1807   24.8462 C   0  0  0  0  0  0
  -21.4145  -29.3034   22.3714 N   0  0  0  0  0  0
  -26.4295  -37.3791   23.9407 N   0  0  0  0  0  0
  -24.6711  -31.0762   22.1007 N   0  0  0  0  0  0
  -23.4184  -28.8194   23.3025 O   0  0  0  0  0  0
  -28.4093  -26.6769   20.1111 O   0  0  0  0  0  0
  -26.5599  -34.8923   22.4690 O   0  0  0  0  0  0
  -23.5354  -32.1433   23.7484 O   0  0  0  0  0  0
  -31.0833  -17.7253   23.8695 C   0  0  0  0  0  0
  -30.7415  -16.5711   23.1435 C   0  0  0  0  0  0
  -30.3619  -17.9362   21.1508 C   0  0  0  0  0  0
  -31.0617  -18.9929   23.2541 C   0  0  0  0  0  0
  -30.3900  -16.6596   21.7818 C   0  0  0  0  0  0
  -30.6896  -19.1087   21.8923 C   0  0  0  0  0  0
  -29.1331  -23.2316   19.4191 C   0  0  0  0  0  0
  -29.7985  -21.0696   20.5534 C   0  0  0  0  0  0
  -30.5302  -24.7447   20.6070 C   0  0  0  0  0  0
  -30.9259  -23.2952   20.9542 C   0  0  0  0  0  0
  -29.7480  -24.6438   19.2851 C   0  0  1  0  0  0
  -31.4313  -20.2159   24.0799 C   0  0  0  0  0  0
  -30.7335  -24.6076   18.0912 C   0  0  0  0  0  0
  -28.7085  -25.7918   19.0133 C   0  0  0  0  0  0
  -29.9129  -22.4219   20.3313 N   0  0  0  0  0  0
  -28.7911  -20.3440   20.0367 N   0  0  0  0  0  0
  -29.9392  -15.4738   21.1324 N   0  0  0  0  0  0
  -30.7419  -20.4481   21.3114 N   0  3  0  0  0  0
  -28.1681  -22.8094   18.7696 O   0  0  0  0  0  0
  -31.4735  -12.4491   19.1089 H   0  0  0  0  0  0
  -30.3509  -11.3159   19.8106 H   0  0  0  0  0  0
  -29.7403  -11.7935   17.4203 H   0  0  0  0  0  0
  -29.6509  -13.5025   17.7656 H   0  0  0  0  0  0
  -27.8390  -11.3042   18.8187 H   0  0  0  0  0  0
  -27.3637  -12.6258   17.7862 H   0  0  0  0  0  0
  -27.7043  -14.2494   19.5712 H   0  0  0  0  0  0
  -28.6911  -11.9409   21.3183 H   0  0  0  0  0  0
  -28.4592  -13.5656   21.8778 H   0  0  0  0  0  0
  -25.2752   -9.5690   22.4755 H   0  0  0  0  0  0
  -23.9985   -7.4648   22.7483 H   0  0  0  0  0  0
  -21.0813   -8.8785   19.8969 H   0  0  0  0  0  0
  -22.3669  -10.9681   19.6175 H   0  0  0  0  0  0
  -21.2014   -7.6149   23.9713 H   0  0  0  0  0  0
  -21.1476   -6.0522   25.9074 H   0  0  0  0  0  0
  -22.0596   -2.7604   23.2849 H   0  0  0  0  0  0
  -22.4079  -11.9922   22.4795 H   0  0  0  0  0  0
  -21.1124  -13.1332   22.2599 H   0  0  0  0  0  0
  -24.6667  -15.8426   20.5131 H   0  0  0  0  0  0
  -26.2852  -15.6248   20.0811 H   0  0  0  0  0  0
  -26.7126  -32.5532   23.1160 H   0  0  0  0  0  0
  -25.0061  -33.9774   25.0476 H   0  0  0  0  0  0
  -22.6947  -31.3102   21.4129 H   0  0  0  0  0  0
  -23.3736  -35.9665   23.3318 H   0  0  0  0  0  0
  -24.3582  -36.8906   22.2046 H   0  0  0  0  0  0
  -23.7261  -37.6535   23.6635 H   0  0  0  0  0  0
  -26.0525  -31.5931   20.5985 H   0  0  0  0  0  0
  -26.8237  -30.8785   21.9866 H   0  0  0  0  0  0
  -28.1000  -29.0785   21.1700 H   0  0  0  0  0  0
  -25.9719  -25.9514   19.0591 H   0  0  0  0  0  0
  -23.9620  -27.2934   19.0607 H   0  0  0  0  0  0
  -23.7229  -30.6044   19.4070 H   0  0  0  0  0  0
  -22.7369  -29.2498   19.8667 H   0  0  0  0  0  0
  -25.1281  -36.1974   25.0829 H   0  0  0  0  0  0
  -20.9960  -28.3238   24.1431 H   0  0  0  0  0  0
  -20.5652  -26.2280   23.3605 H   0  0  0  0  0  0
  -21.6638  -26.7436   22.1216 H   0  0  0  0  0  0
  -19.6904  -25.6301   21.1225 H   0  0  0  0  0  0
  -19.6677  -27.3206   20.6750 H   0  0  0  0  0  0
  -17.4190  -26.6673   21.4027 H   0  0  0  0  0  0
  -18.0323  -26.0060   22.9011 H   0  0  0  0  0  0
  -19.7931  -30.7249   24.2296 H   0  0  0  0  0  0
  -17.5013  -31.6261   24.5167 H   0  0  0  0  0  0
  -15.5348  -30.2995   23.7633 H   0  0  0  0  0  0
  -15.8665  -28.0822   22.7060 H   0  0  0  0  0  0
  -24.5914  -30.7066   25.7833 H   0  0  0  0  0  0
  -24.8948  -32.2889   26.4922 H   0  0  0  0  0  0
  -25.8105  -30.8903   27.0240 H   0  0  0  0  0  0
  -26.2827  -29.6796   24.1171 H   0  0  0  0  0  0
  -27.4051  -29.7262   25.4573 H   0  0  0  0  0  0
  -27.8675  -30.4329   23.9261 H   0  0  0  0  0  0
  -27.2700  -33.3594   26.2090 H   0  0  0  0  0  0
  -28.3850  -32.6882   25.0276 H   0  0  0  0  0  0
  -28.0764  -31.8404   26.5352 H   0  0  0  0  0  0
  -28.2613  -38.0091   24.7493 H   0  0  0  0  0  0
  -28.1062  -36.2623   24.6299 H   0  0  0  0  0  0
  -27.2302  -37.1474   25.8866 H   0  0  0  0  0  0
  -20.9303  -29.8775   21.6954 H   0  0  0  0  0  0
  -26.0184  -38.2870   24.1403 H   0  0  0  0  0  0
  -31.3534  -17.6298   24.9119 H   0  0  0  0  0  0
  -30.7400  -15.6152   23.6496 H   0  0  0  0  0  0
  -30.1023  -18.0051   20.1046 H   0  0  0  0  0  0
  -31.4049  -25.3906   20.5177 H   0  0  0  0  0  0
  -29.9129  -25.1538   21.4082 H   0  0  0  0  0  0
  -30.9654  -23.1515   22.0345 H   0  0  0  0  0  0
  -31.9072  -23.0525   20.5453 H   0  0  0  0  0  0
  -31.6915  -19.9432   25.1033 H   0  0  0  0  0  0
  -30.5949  -20.9136   24.1296 H   0  0  0  0  0  0
  -32.2894  -20.7318   23.6488 H   0  0  0  0  0  0
  -31.4213  -23.7618   18.1392 H   0  0  0  0  0  0
  -31.3418  -25.5125   18.0562 H   0  0  0  0  0  0
  -30.2035  -24.5360   17.1401 H   0  0  0  0  0  0
  -27.8295  -25.3428   18.5628 H   0  0  0  0  0  0
  -29.0904  -26.4479   18.2296 H   0  0  0  0  0  0
  -28.1045  -20.7949   19.4395 H   0  0  0  0  0  0
  -28.6682  -19.3665   20.2505 H   0  0  0  0  0  0
  -29.0001  -15.1866   21.3628 H   0  0  0  0  0  0
  -31.3855  -21.0980   21.7395 H   0  0  0  0  0  0
  1 25  1  0  0  0
  1 30  2  0  0  0
  1 87  1  0  0  0
  2  3  1  0  0  0
  2 25  1  0  0  0
  2 90  1  0  0  0
  2 91  1  0  0  0
  3  4  1  0  0  0
  3 92  1  0  0  0
  3 93  1  0  0  0
  4  5  1  0  0  0
  4 94  1  0  0  0
  4 95  1  0  0  0
  5  6  1  0  0  0
  5 26  1  0  0  0
  5 96  1  0  0  0
  6 25  1  0  0  0
  6 97  1  0  0  0
  6 98  1  0  0  0
  7  8  2  0  0  0
  7 26  1  0  0  0
  7 29  1  0  0  0
  8  9  1  0  0  0
  8 22  1  0  0  0
  9 10  1  0  0  0
  9 27  2  0  0  0
 10 11  2  0  0  0
 10 15  1  0  0  0
 11 12  1  0  0  0
 11 99  1  0  0  0
 12 13  2  0  0  0
 12100  1  0  0  0
 13 14  1  0  0  0
 13 31  1  0  0  0
 14 15  2  0  0  0
 14101  1  0  0  0
 15102  1  0  0  0
 16 17  2  0  0  0
 16 21  1  0  0  0
 16 31  1  0  0  0
 17 18  1  0  0  0
 17103  1  0  0  0
 18 19  2  0  0  0
 18104  1  0  0  0
 19 20  1  0  0  0
 19 24  1  0  0  0
 20 21  2  0  0  0
 20105  1  0  0  0
 21 23  1  0  0  0
 22 28  1  0  0  0
 22 32  2  0  0  0
 26 27  1  0  0  0
 28106  1  0  0  0
 28107  1  0  0  0
 29108  1  0  0  0
 29109  1  0  0  0
 33 34  1  0  0  0
 33 66  1  0  0  0
 33 70  2  0  0  0
 34 36  1  0  0  0
 34 59  1  0  0  0
 34110  1  0  0  0
 35 44  2  0  0  0
 35 45  1  0  0  0
 35 68  1  0  0  0
 36 56  1  0  0  0
 36111  1  0  0  0
 37 39  1  0  0  0
 37 47  1  0  0  0
 37 66  1  0  0  0
 37112  1  0  0  0
 38 43  2  0  0  0
 38 46  1  0  0  0
 38 47  1  0  0  0
 39 64  1  0  0  0
 39 67  2  0  0  0
 40 52  1  0  0  0
 40 53  2  0  0  0
 40 58  1  0  0  0
 41113  1  0  0  0
 41114  1  0  0  0
 41115  1  0  0  0
 41 48  1  0  0  0
 42 43  1  0  0  0
 42 66  1  0  0  0
 42116  1  0  0  0
 42117  1  0  0  0
 43 44  1  0  0  0
 44118  1  0  0  0
 45 46  2  0  0  0
 45119  1  0  0  0
 46120  1  0  0  0
 47121  1  0  0  0
 47122  1  0  0  0
 48 56  1  0  0  0
 48 65  1  0  0  0
 48123  1  0  0  0
 49 50  1  0  0  0
 49 53  1  0  0  0
 49 64  1  0  0  0
 49124  1  0  0  0
 50 51  1  0  0  0
 50125  1  0  0  0
 50126  1  0  0  0
 51 52  1  0  0  0
 51127  1  0  0  0
 51128  1  0  0  0
 52129  1  0  0  0
 52130  1  0  0  0
 53 54  1  0  0  0
 54 55  2  0  0  0
 54131  1  0  0  0
 55 57  1  0  0  0
 55132  1  0  0  0
 56 69  2  0  0  0
 57 58  2  0  0  0
 57133  1  0  0  0
 58134  1  0  0  0
 59 60  1  0  0  0
 59 61  1  0  0  0
 59 62  1  0  0  0
 60135  1  0  0  0
 60136  1  0  0  0
 60137  1  0  0  0
 61138  1  0  0  0
 61139  1  0  0  0
 61140  1  0  0  0
 62141  1  0  0  0
 62142  1  0  0  0
 62143  1  0  0  0
 63 65  1  0  0  0
 63144  1  0  0  0
 63145  1  0  0  0
 63146  1  0  0  0
 64147  1  0  0  0
 65148  1  0  0  0
 68 84  1  0  0  0
 71 72  2  0  0  0
 71 74  1  0  0  0
 71149  1  0  0  0
 72 75  1  0  0  0
 72150  1  0  0  0
 73 75  2  0  0  0
 73 76  1  0  0  0
 73151  1  0  0  0
 74 76  2  0  0  0
 74 82  1  0  0  0
 75 87  1  0  0  0
 76 88  1  0  0  0
 77 81  1  0  0  0
 77 85  1  0  0  0
 77 89  2  0  0  0
 78 85  1  0  0  0
 78 86  1  0  0  0
 78 88  2  0  0  0
 79 80  1  0  0  0
 79 81  1  0  0  0
 79152  1  0  0  0
 79153  1  0  0  0
 80 85  1  0  0  0
 80154  1  0  0  0
 80155  1  0  0  0
 81 83  1  0  0  0
 81 84  1  0  0  0
 82156  1  0  0  0
 82157  1  0  0  0
 82158  1  0  0  0
 83159  1  0  0  0
 83160  1  0  0  0
 83161  1  0  0  0
 84162  1  0  0  0
 84163  1  0  0  0
 86164  1  0  0  0
 86165  1  0  0  0
 87166  1  0  0  0
 88167  1  0  0  0
M  CHG  1  88   1
M  ISO  4   1 100  68 101  84 101  87 100
M  END
> <chiral flag>
0

> <version>
0

> <s_m_source_file>
/data/baiqing/PycharmProjects/Reinvent-master-3.2/result/LINK_invent/BTK/process_docking_weight1_custom_product_contain_oxygen_bond_distance_aromatic_linkinvent_7_9_3/rearranged_h_0073.sdf

> <i_m_source_file_index>
19

> <r_mmod_Potential_Energy-OPLS-2005>
48.0029449462891

> <r_mmod_Stretch_Energy-OPLS-2005>
46.6919288635254

> <r_mmod_Bend_Energy-OPLS-2005>
157.352996826172

> <r_mmod_Torsional_Energy-OPLS-2005>
282.968048095703

> <r_mmod_Improper_Torsional_Energy-OPLS-2005>
7.23362588882446

> <r_mmod_Van_der_Waal_Energy-OPLS-2005>
165.494247436523

> <r_mmod_Electrostatic_Energy-OPLS-2005>
-198.397811889648

> <r_mmod_Solvation_Energy-OPLS-2005>
-428.34521484375

> <b_mmod_Minimization_Converged-OPLS-2005>
0

> <r_mmod_RMS_Derivative-OPLS-2005>
1.09077990055084

$$$$
19
                    3D
 Structure written by MMmdl.
157165  0  0  1  0            999 V2000
  -30.5963  -14.6790   20.4913 C   0  0  0  0  0  0
  -30.4454  -12.4150   19.4585 C   0  0  0  0  0  0
  -29.5126  -12.5093   18.2291 C   0  0  0  0  0  0
  -28.0360  -12.3393   18.6407 C   0  0  0  0  0  0
  -27.6528  -13.2159   19.8624 C   0  0  2  0  0  0
  -28.6974  -13.0813   20.9934 C   0  0  0  0  0  0
  -25.2559  -13.8163   20.5684 C   0  0  0  0  0  0
  -24.1826  -13.0431   20.9188 C   0  0  0  0  0  0
  -24.6395  -11.6904   20.8741 C   0  0  0  0  0  0
  -23.9063  -10.4290   21.0409 C   0  0  0  0  0  0
  -24.3615   -9.4204   21.9185 C   0  0  0  0  0  0
  -23.6289   -8.2241   22.0757 C   0  0  0  0  0  0
  -22.4271   -8.0281   21.3548 C   0  0  0  0  0  0
  -21.9906   -9.0256   20.4651 C   0  0  0  0  0  0
  -22.7237  -10.2134   20.3059 C   0  0  0  0  0  0
  -21.6851   -6.0736   22.5281 C   0  0  0  0  0  0
  -21.4014   -6.5640   23.8215 C   0  0  0  0  0  0
  -21.3658   -5.6792   24.9176 C   0  0  0  0  0  0
  -21.6044   -4.3055   24.7227 C   0  0  0  0  0  0
  -21.8817   -3.8147   23.4348 C   0  0  0  0  0  0
  -21.9192   -4.6964   22.3404 C   0  0  0  0  0  0
  -22.7849  -13.5230   21.1851 C   0  0  0  0  0  0
  -22.1660   -4.2149   21.0981 F   0  0  0  0  0  0
  -21.5628   -3.4539   25.7740 F   0  0  0  0  0  0
  -30.0100  -13.4386   20.4310 N   0  0  0  0  0  0
  -26.2986  -12.9343   20.3312 N   0  0  0  0  0  0
  -25.9322  -11.6501   20.5752 N   0  0  0  0  0  0
  -22.0485  -12.8232   22.0410 N   0  0  0  0  0  0
  -25.4260  -15.1887   20.4110 N   0  0  0  0  0  0
  -31.7581  -14.8563   20.1118 O   0  0  0  0  0  0
  -21.6635   -6.8878   21.4243 O   0  0  0  0  0  0
  -22.3539  -14.5539   20.6700 O   0  0  0  0  0  0
  -24.6274  -31.8581   23.2007 C   0  0  0  0  0  0
  -25.9113  -32.4771   23.8342 C   0  0  1  0  0  0
  -27.2274  -27.3040   20.1199 C   0  0  0  0  0  0
  -25.5919  -33.8572   24.2269 N   0  0  0  0  0  0
  -23.4220  -30.4805   21.5439 C   0  0  2  0  0  0
  -24.8689  -28.9309   20.1125 C   0  0  0  0  0  0
  -22.7480  -29.4616   22.4936 C   0  0  0  0  0  0
  -18.0286  -28.1386   22.8486 C   0  0  0  0  0  0
  -24.1489  -36.7292   23.2640 C   0  0  0  0  0  0
  -25.9640  -30.7846   21.3729 C   0  0  0  0  0  0
  -26.0386  -29.4103   20.7152 C   0  0  0  0  0  0
  -27.2209  -28.6098   20.7054 C   0  0  0  0  0  0
  -26.0319  -26.8767   19.4993 C   0  0  0  0  0  0
  -24.8682  -27.6700   19.4958 C   0  0  0  0  0  0
  -23.6374  -29.8131   20.1602 C   0  0  0  0  0  0
  -25.4114  -36.3079   24.0328 C   0  0  1  0  0  0
  -20.5886  -28.3691   23.1284 C   0  0  2  0  0  0
  -20.6775  -26.9413   22.5412 C   0  0  0  0  0  0
  -19.5752  -26.6386   21.5214 C   0  0  0  0  0  0
  -18.1932  -26.7929   22.1625 C   0  0  0  0  0  0
  -19.1538  -28.8856   23.2879 C   0  0  0  0  0  0
  -18.9461  -30.1457   23.8899 C   0  0  0  0  0  0
  -17.6461  -30.6588   24.0565 C   0  0  0  0  0  0
  -25.9051  -34.9449   23.5101 C   0  0  0  0  0  0
  -16.5353  -29.9088   23.6329 C   0  0  0  0  0  0
  -16.7274  -28.6504   23.0352 C   0  0  0  0  0  0
  -26.4494  -31.6587   25.0720 C   0  0  0  0  0  0
  -25.3723  -31.3728   26.1445 C   0  0  0  0  0  0
  -27.0344  -30.3011   24.6185 C   0  0  0  0  0  0
  -27.6049  -32.4329   25.7490 C   0  0  0  0  0  0
  -27.5578  -37.1800   24.8464 C   0  0  0  0  0  0
  -21.4192  -29.3041   22.3676 N   0  0  0  0  0  0
  -26.4292  -37.3774   23.9407 N   0  0  0  0  0  0
  -24.6900  -31.0580   22.0962 N   0  0  0  0  0  0
  -23.4196  -28.8160   23.3024 O   0  0  0  0  0  0
  -28.3510  -26.4590   20.1618 O   0  0  0  0  0  0
  -26.5628  -34.8921   22.4673 O   0  0  0  0  0  0
  -23.5434  -32.1386   23.7327 O   0  0  0  0  0  0
  -28.6296  -19.0415   19.3633 C   0  0  0  0  0  0
  -28.8108  -17.6457   19.5953 C   0  0  0  0  0  0
  -30.4847  -18.1449   21.2390 C   0  0  0  0  0  0
  -29.3481  -20.0487   20.0677 C   0  0  0  0  0  0
  -29.7533  -17.1464   20.5304 C   0  0  0  0  0  0
  -30.2927  -19.5533   21.0168 C   0  0  0  0  0  0
  -29.1717  -21.5438   19.6763 C   0  0  0  0  0  0
  -29.9352  -24.5254   21.8301 C   0  0  0  0  0  0
  -30.5429  -24.3477   19.4201 C   0  0  0  0  0  0
  -28.1644  -24.9810   20.0905 C   0  0  0  0  0  0
  -29.4287  -24.0651   20.4502 C   0  0  0  0  0  0
  -29.7668  -15.7127   20.8575 N   0  0  0  0  0  0
  -29.2335  -22.5580   20.5949 N   0  0  0  0  0  0
  -28.9419  -21.8036   18.4927 O   0  0  0  0  0  0
  -31.0387  -20.4290   21.7340 F   0  0  0  0  0  0
  -31.4851  -12.5529   19.1561 H   0  0  0  0  0  0
  -30.3938  -11.4220   19.9074 H   0  0  0  0  0  0
  -29.7837  -11.7525   17.4916 H   0  0  0  0  0  0
  -29.6470  -13.4747   17.7387 H   0  0  0  0  0  0
  -27.8812  -11.2869   18.8814 H   0  0  0  0  0  0
  -27.3797  -12.5574   17.7973 H   0  0  0  0  0  0
  -27.6665  -14.2483   19.5131 H   0  0  0  0  0  0
  -28.7182  -12.0601   21.3768 H   0  0  0  0  0  0
  -28.4351  -13.7107   21.8454 H   0  0  0  0  0  0
  -25.2761   -9.5678   22.4759 H   0  0  0  0  0  0
  -23.9998   -7.4631   22.7475 H   0  0  0  0  0  0
  -21.0837   -8.8778   19.8958 H   0  0  0  0  0  0
  -22.3699  -10.9673   19.6167 H   0  0  0  0  0  0
  -21.2008   -7.6149   23.9719 H   0  0  0  0  0  0
  -21.1480   -6.0522   25.9078 H   0  0  0  0  0  0
  -22.0597   -2.7610   23.2848 H   0  0  0  0  0  0
  -22.4093  -11.9895   22.4806 H   0  0  0  0  0  0
  -21.1107  -13.1270   22.2612 H   0  0  0  0  0  0
  -24.6562  -15.8398   20.5221 H   0  0  0  0  0  0
  -26.2716  -15.6326   20.0790 H   0  0  0  0  0  0
  -26.7182  -32.5434   23.1090 H   0  0  0  0  0  0
  -25.0046  -33.9712   25.0400 H   0  0  0  0  0  0
  -22.7165  -31.3012   21.3993 H   0  0  0  0  0  0
  -23.3750  -35.9626   23.3304 H   0  0  0  0  0  0
  -24.3580  -36.8914   22.2054 H   0  0  0  0  0  0
  -23.7245  -37.6495   23.6665 H   0  0  0  0  0  0
  -26.0965  -31.5473   20.6044 H   0  0  0  0  0  0
  -26.8439  -30.8340   22.0030 H   0  0  0  0  0  0
  -28.1197  -28.9742   21.1827 H   0  0  0  0  0  0
  -25.9717  -25.9125   19.0174 H   0  0  0  0  0  0
  -23.9711  -27.2957   19.0219 H   0  0  0  0  0  0
  -23.7579  -30.5889   19.4031 H   0  0  0  0  0  0
  -22.7568  -29.2432   19.8578 H   0  0  0  0  0  0
  -25.1294  -36.1931   25.0820 H   0  0  0  0  0  0
  -20.9977  -28.3268   24.1405 H   0  0  0  0  0  0
  -20.5680  -26.2299   23.3611 H   0  0  0  0  0  0
  -21.6644  -26.7445   22.1204 H   0  0  0  0  0  0
  -19.6915  -25.6298   21.1242 H   0  0  0  0  0  0
  -19.6690  -27.3198   20.6744 H   0  0  0  0  0  0
  -17.4200  -26.6676   21.4030 H   0  0  0  0  0  0
  -18.0333  -26.0072   22.9023 H   0  0  0  0  0  0
  -19.7938  -30.7272   24.2272 H   0  0  0  0  0  0
  -17.5016  -31.6269   24.5164 H   0  0  0  0  0  0
  -15.5353  -30.2991   23.7652 H   0  0  0  0  0  0
  -15.8673  -28.0824   22.7068 H   0  0  0  0  0  0
  -24.5898  -30.7078   25.7771 H   0  0  0  0  0  0
  -24.8914  -32.2894   26.4867 H   0  0  0  0  0  0
  -25.8043  -30.8906   27.0223 H   0  0  0  0  0  0
  -26.2925  -29.6754   24.1211 H   0  0  0  0  0  0
  -27.4043  -29.7274   25.4693 H   0  0  0  0  0  0
  -27.8790  -30.4298   23.9413 H   0  0  0  0  0  0
  -27.2657  -33.3628   26.2065 H   0  0  0  0  0  0
  -28.3857  -32.6892   25.0317 H   0  0  0  0  0  0
  -28.0722  -31.8460   26.5408 H   0  0  0  0  0  0
  -28.2598  -38.0094   24.7507 H   0  0  0  0  0  0
  -28.1071  -36.2625   24.6296 H   0  0  0  0  0  0
  -27.2297  -37.1456   25.8868 H   0  0  0  0  0  0
  -20.9373  -29.8757   21.6878 H   0  0  0  0  0  0
  -26.0173  -38.2850   24.1405 H   0  0  0  0  0  0
  -27.9094  -19.3456   18.6164 H   0  0  0  0  0  0
  -28.1976  -16.9507   19.0386 H   0  0  0  0  0  0
  -31.1925  -17.8382   21.9952 H   0  0  0  0  0  0
  -30.1873  -25.5867   21.8303 H   0  0  0  0  0  0
  -30.8325  -23.9837   22.1331 H   0  0  0  0  0  0
  -29.1803  -24.3754   22.6029 H   0  0  0  0  0  0
  -30.8138  -25.4043   19.4142 H   0  0  0  0  0  0
  -30.2292  -24.0983   18.4062 H   0  0  0  0  0  0
  -31.4489  -23.7810   19.6375 H   0  0  0  0  0  0
  -27.3461  -24.7101   20.7595 H   0  0  0  0  0  0
  -27.8361  -24.7191   19.0840 H   0  0  0  0  0  0
  -28.8664  -15.3567   21.1400 H   0  0  0  0  0  0
  -29.3415  -22.2221   21.5419 H   0  0  0  0  0  0
  1 25  1  0  0  0
  1 30  2  0  0  0
  1 82  1  0  0  0
  2  3  1  0  0  0
  2 25  1  0  0  0
  2 86  1  0  0  0
  2 87  1  0  0  0
  3  4  1  0  0  0
  3 88  1  0  0  0
  3 89  1  0  0  0
  4  5  1  0  0  0
  4 90  1  0  0  0
  4 91  1  0  0  0
  5  6  1  0  0  0
  5 26  1  0  0  0
  5 92  1  0  0  0
  6 25  1  0  0  0
  6 93  1  0  0  0
  6 94  1  0  0  0
  7  8  2  0  0  0
  7 26  1  0  0  0
  7 29  1  0  0  0
  8  9  1  0  0  0
  8 22  1  0  0  0
  9 10  1  0  0  0
  9 27  2  0  0  0
 10 11  2  0  0  0
 10 15  1  0  0  0
 11 12  1  0  0  0
 11 95  1  0  0  0
 12 13  2  0  0  0
 12 96  1  0  0  0
 13 14  1  0  0  0
 13 31  1  0  0  0
 14 15  2  0  0  0
 14 97  1  0  0  0
 15 98  1  0  0  0
 16 17  2  0  0  0
 16 21  1  0  0  0
 16 31  1  0  0  0
 17 18  1  0  0  0
 17 99  1  0  0  0
 18 19  2  0  0  0
 18100  1  0  0  0
 19 20  1  0  0  0
 19 24  1  0  0  0
 20 21  2  0  0  0
 20101  1  0  0  0
 21 23  1  0  0  0
 22 28  1  0  0  0
 22 32  2  0  0  0
 26 27  1  0  0  0
 28102  1  0  0  0
 28103  1  0  0  0
 29104  1  0  0  0
 29105  1  0  0  0
 33 34  1  0  0  0
 33 66  1  0  0  0
 33 70  2  0  0  0
 34 36  1  0  0  0
 34 59  1  0  0  0
 34106  1  0  0  0
 35 44  2  0  0  0
 35 45  1  0  0  0
 35 68  1  0  0  0
 36 56  1  0  0  0
 36107  1  0  0  0
 37 39  1  0  0  0
 37 47  1  0  0  0
 37 66  1  0  0  0
 37108  1  0  0  0
 38 43  2  0  0  0
 38 46  1  0  0  0
 38 47  1  0  0  0
 39 64  1  0  0  0
 39 67  2  0  0  0
 40 52  1  0  0  0
 40 53  2  0  0  0
 40 58  1  0  0  0
 41109  1  0  0  0
 41110  1  0  0  0
 41111  1  0  0  0
 41 48  1  0  0  0
 42 43  1  0  0  0
 42 66  1  0  0  0
 42112  1  0  0  0
 42113  1  0  0  0
 43 44  1  0  0  0
 44114  1  0  0  0
 45 46  2  0  0  0
 45115  1  0  0  0
 46116  1  0  0  0
 47117  1  0  0  0
 47118  1  0  0  0
 48 56  1  0  0  0
 48 65  1  0  0  0
 48119  1  0  0  0
 49 50  1  0  0  0
 49 53  1  0  0  0
 49 64  1  0  0  0
 49120  1  0  0  0
 50 51  1  0  0  0
 50121  1  0  0  0
 50122  1  0  0  0
 51 52  1  0  0  0
 51123  1  0  0  0
 51124  1  0  0  0
 52125  1  0  0  0
 52126  1  0  0  0
 53 54  1  0  0  0
 54 55  2  0  0  0
 54127  1  0  0  0
 55 57  1  0  0  0
 55128  1  0  0  0
 56 69  2  0  0  0
 57 58  2  0  0  0
 57129  1  0  0  0
 58130  1  0  0  0
 59 60  1  0  0  0
 59 61  1  0  0  0
 59 62  1  0  0  0
 60131  1  0  0  0
 60132  1  0  0  0
 60133  1  0  0  0
 61134  1  0  0  0
 61135  1  0  0  0
 61136  1  0  0  0
 62137  1  0  0  0
 62138  1  0  0  0
 62139  1  0  0  0
 63 65  1  0  0  0
 63140  1  0  0  0
 63141  1  0  0  0
 63142  1  0  0  0
 64143  1  0  0  0
 65144  1  0  0  0
 68 80  1  0  0  0
 71 72  2  0  0  0
 71 74  1  0  0  0
 71145  1  0  0  0
 72 75  1  0  0  0
 72146  1  0  0  0
 73 75  2  0  0  0
 73 76  1  0  0  0
 73147  1  0  0  0
 74 76  2  0  0  0
 74 77  1  0  0  0
 75 82  1  0  0  0
 76 85  1  0  0  0
 77 83  1  0  0  0
 77 84  2  0  0  0
 78148  1  0  0  0
 78149  1  0  0  0
 78150  1  0  0  0
 78 81  1  0  0  0
 79 81  1  0  0  0
 79151  1  0  0  0
 79152  1  0  0  0
 79153  1  0  0  0
 80 81  1  0  0  0
 80154  1  0  0  0
 80155  1  0  0  0
 81 83  1  0  0  0
 82156  1  0  0  0
 83157  1  0  0  0
M  ISO  4   1 100  68 101  80 101  82 100
M  END
> <chiral flag>
0

> <version>
0

> <s_m_source_file>
/data/baiqing/PycharmProjects/Reinvent-master-3.2/result/LINK_invent/BTK/process_docking_weight1_custom_product_contain_oxygen_bond_distance_aromatic_linkinvent_7_9_3/rearranged_h_0073.sdf

> <i_m_source_file_index>
20

> <r_mmod_Potential_Energy-OPLS-2005>
87.624153137207

> <r_mmod_Stretch_Energy-OPLS-2005>
91.2274398803711

> <r_mmod_Bend_Energy-OPLS-2005>
153.674087524414

> <r_mmod_Torsional_Energy-OPLS-2005>
251.566345214844

> <r_mmod_Improper_Torsional_Energy-OPLS-2005>
6.62292194366455

> <r_mmod_Van_der_Waal_Energy-OPLS-2005>
136.972595214844

> <r_mmod_Electrostatic_Energy-OPLS-2005>
-390.313629150391

> <r_mmod_Solvation_Energy-OPLS-2005>
-220.279922485352

> <b_mmod_Minimization_Converged-OPLS-2005>
0

> <r_mmod_RMS_Derivative-OPLS-2005>
0.382472842931747

$$$$
20
                    3D
 Structure written by MMmdl.
163172  0  0  1  0            999 V2000
  -30.5886  -14.7680   20.4829 C   0  0  0  0  0  0
  -30.4268  -12.4771   19.4613 C   0  0  0  0  0  0
  -29.5038  -12.5018   18.2243 C   0  0  0  0  0  0
  -28.0331  -12.3161   18.6471 C   0  0  0  0  0  0
  -27.6311  -13.2266   19.8397 C   0  0  2  0  0  0
  -28.6760  -13.1789   20.9703 C   0  0  0  0  0  0
  -25.2491  -13.8200   20.5723 C   0  0  0  0  0  0
  -24.1773  -13.0439   20.9195 C   0  0  0  0  0  0
  -24.6355  -11.6911   20.8738 C   0  0  0  0  0  0
  -23.9034  -10.4286   21.0362 C   0  0  0  0  0  0
  -24.3581   -9.4236   21.9168 C   0  0  0  0  0  0
  -23.6270   -8.2258   22.0759 C   0  0  0  0  0  0
  -22.4267   -8.0265   21.3523 C   0  0  0  0  0  0
  -21.9867   -9.0238   20.4645 C   0  0  0  0  0  0
  -22.7182  -10.2121   20.3049 C   0  0  0  0  0  0
  -21.6837   -6.0729   22.5279 C   0  0  0  0  0  0
  -21.3993   -6.5628   23.8213 C   0  0  0  0  0  0
  -21.3674   -5.6785   24.9175 C   0  0  0  0  0  0
  -21.6056   -4.3057   24.7219 C   0  0  0  0  0  0
  -21.8816   -3.8141   23.4337 C   0  0  0  0  0  0
  -21.9188   -4.6954   22.3395 C   0  0  0  0  0  0
  -22.7815  -13.5254   21.1844 C   0  0  0  0  0  0
  -22.1666   -4.2146   21.0971 F   0  0  0  0  0  0
  -21.5616   -3.4538   25.7723 F   0  0  0  0  0  0
  -29.9599  -13.5486   20.3686 N   0  0  0  0  0  0
  -26.2868  -12.9381   20.3217 N   0  0  0  0  0  0
  -25.9271  -11.6536   20.5694 N   0  0  0  0  0  0
  -22.0422  -12.8283   22.0400 N   0  0  0  0  0  0
  -25.4232  -15.1920   20.4213 N   0  0  0  0  0  0
  -31.7958  -14.8510   20.2391 O   0  0  0  0  0  0
  -21.6647   -6.8858   21.4225 O   0  0  0  0  0  0
  -22.3529  -14.5563   20.6701 O   0  0  0  0  0  0
  -24.6337  -31.8562   23.2011 C   0  0  0  0  0  0
  -25.9161  -32.4768   23.8332 C   0  0  1  0  0  0
  -27.1947  -27.2354   20.1247 C   0  0  0  0  0  0
  -25.5966  -33.8573   24.2252 N   0  0  0  0  0  0
  -23.4288  -30.4825   21.5445 C   0  0  2  0  0  0
  -24.8710  -28.9330   20.1069 C   0  0  0  0  0  0
  -22.7515  -29.4620   22.4912 C   0  0  0  0  0  0
  -18.0304  -28.1367   22.8474 C   0  0  0  0  0  0
  -24.1482  -36.7282   23.2639 C   0  0  0  0  0  0
  -25.9799  -30.7602   21.3844 C   0  0  0  0  0  0
  -26.0484  -29.3831   20.7195 C   0  0  0  0  0  0
  -27.2154  -28.5481   20.7143 C   0  0  0  0  0  0
  -25.9961  -26.8716   19.4674 C   0  0  0  0  0  0
  -24.8501  -27.6887   19.4699 C   0  0  0  0  0  0
  -23.6498  -29.8301   20.1586 C   0  0  0  0  0  0
  -25.4114  -36.3077   24.0317 C   0  0  1  0  0  0
  -20.5910  -28.3696   23.1264 C   0  0  2  0  0  0
  -20.6791  -26.9406   22.5412 C   0  0  0  0  0  0
  -19.5773  -26.6377   21.5188 C   0  0  0  0  0  0
  -18.1970  -26.7904   22.1623 C   0  0  0  0  0  0
  -19.1556  -28.8852   23.2864 C   0  0  0  0  0  0
  -18.9481  -30.1430   23.8897 C   0  0  0  0  0  0
  -17.6483  -30.6570   24.0560 C   0  0  0  0  0  0
  -25.9063  -34.9452   23.5086 C   0  0  0  0  0  0
  -16.5370  -29.9054   23.6324 C   0  0  0  0  0  0
  -16.7288  -28.6472   23.0359 C   0  0  0  0  0  0
  -26.4516  -31.6590   25.0723 C   0  0  0  0  0  0
  -25.3747  -31.3761   26.1457 C   0  0  0  0  0  0
  -27.0366  -30.2993   24.6238 C   0  0  0  0  0  0
  -27.6065  -32.4347   25.7516 C   0  0  0  0  0  0
  -27.5574  -37.1795   24.8468 C   0  0  0  0  0  0
  -21.4222  -29.3052   22.3656 N   0  0  0  0  0  0
  -26.4285  -37.3767   23.9417 N   0  0  0  0  0  0
  -24.6996  -31.0508   22.1000 N   0  0  0  0  0  0
  -23.4225  -28.8173   23.3022 O   0  0  0  0  0  0
  -28.2582  -26.2947   20.1984 O   0  0  0  0  0  0
  -26.5624  -34.8916   22.4646 O   0  0  0  0  0  0
  -23.5477  -32.1421   23.7261 O   0  0  0  0  0  0
  -28.2833  -18.4264   22.6440 C   0  0  0  0  0  0
  -30.5226  -16.7553   22.6819 C   0  0  0  0  0  0
  -29.0701  -18.3114   21.4714 C   0  0  0  0  0  0
  -28.6672  -17.8071   23.8412 C   0  0  0  0  0  0
  -29.9784  -17.1435   21.4273 C   0  0  0  0  0  0
  -29.8584  -17.0648   23.8798 C   0  0  0  0  0  0
  -29.0544  -20.8810   21.2560 C   0  0  0  0  0  0
  -28.6552  -21.2924   19.0215 C   0  0  0  0  0  0
  -28.6683  -19.7530   19.3121 C   0  0  0  0  0  0
  -28.3854  -22.0049   20.3642 C   0  0  1  0  0  0
  -26.8688  -21.9636   20.6769 C   0  0  0  0  0  0
  -28.8766  -23.5760   20.5081 C   0  0  0  0  0  0
  -27.9183  -24.8225   20.0729 C   0  0  0  0  0  0
  -29.0873  -19.6022   20.7046 N   0  0  0  0  0  0
  -27.9113  -17.9887   24.9957 N   0  0  0  0  0  0
  -29.8033  -15.9257   20.5847 N   0  0  0  0  0  0
  -29.5142  -21.1677   22.3659 O   0  0  0  0  0  0
  -30.3004  -16.5540   25.0562 F   0  0  0  0  0  0
  -31.4692  -12.6060   19.1627 H   0  0  0  0  0  0
  -30.3765  -11.5056   19.9592 H   0  0  0  0  0  0
  -29.7964  -11.7181   17.5257 H   0  0  0  0  0  0
  -29.6208  -13.4478   17.6908 H   0  0  0  0  0  0
  -27.8965  -11.2702   18.9312 H   0  0  0  0  0  0
  -27.3733  -12.4840   17.7947 H   0  0  0  0  0  0
  -27.6195  -14.2455   19.4510 H   0  0  0  0  0  0
  -28.7271  -12.1809   21.4139 H   0  0  0  0  0  0
  -28.4149  -13.8671   21.7768 H   0  0  0  0  0  0
  -25.2691   -9.5748   22.4791 H   0  0  0  0  0  0
  -23.9990   -7.4650   22.7488 H   0  0  0  0  0  0
  -21.0808   -8.8738   19.8953 H   0  0  0  0  0  0
  -22.3591  -10.9669   19.6207 H   0  0  0  0  0  0
  -21.1977   -7.6137   23.9705 H   0  0  0  0  0  0
  -21.1503   -6.0520   25.9072 H   0  0  0  0  0  0
  -22.0582   -2.7610   23.2838 H   0  0  0  0  0  0
  -22.3929  -11.9909   22.4822 H   0  0  0  0  0  0
  -21.1046  -13.1365   22.2621 H   0  0  0  0  0  0
  -24.6737  -15.8564   20.5807 H   0  0  0  0  0  0
  -26.2751  -15.6314   20.1004 H   0  0  0  0  0  0
  -26.7234  -32.5405   23.1069 H   0  0  0  0  0  0
  -25.0147  -33.9710   25.0423 H   0  0  0  0  0  0
  -22.7233  -31.3034   21.4045 H   0  0  0  0  0  0
  -23.3748  -35.9608   23.3310 H   0  0  0  0  0  0
  -24.3572  -36.8903   22.2052 H   0  0  0  0  0  0
  -23.7223  -37.6479   23.6657 H   0  0  0  0  0  0
  -26.1233  -31.5273   20.6207 H   0  0  0  0  0  0
  -26.8554  -30.8033   22.0223 H   0  0  0  0  0  0
  -28.1118  -28.8880   21.2137 H   0  0  0  0  0  0
  -25.9007  -25.9270   18.9566 H   0  0  0  0  0  0
  -23.9487  -27.3439   18.9806 H   0  0  0  0  0  0
  -23.7897  -30.6163   19.4137 H   0  0  0  0  0  0
  -22.7624  -29.2785   19.8419 H   0  0  0  0  0  0
  -25.1280  -36.1927   25.0803 H   0  0  0  0  0  0
  -20.9969  -28.3302   24.1406 H   0  0  0  0  0  0
  -20.5629  -26.2314   23.3626 H   0  0  0  0  0  0
  -21.6663  -26.7425   22.1233 H   0  0  0  0  0  0
  -19.6946  -25.6262   21.1278 H   0  0  0  0  0  0
  -19.6698  -27.3173   20.6699 H   0  0  0  0  0  0
  -17.4216  -26.6634   21.4042 H   0  0  0  0  0  0
  -18.0392  -26.0052   22.9035 H   0  0  0  0  0  0
  -19.7957  -30.7243   24.2301 H   0  0  0  0  0  0
  -17.5031  -31.6244   24.5150 H   0  0  0  0  0  0
  -15.5370  -30.2967   23.7633 H   0  0  0  0  0  0
  -15.8688  -28.0784   22.7097 H   0  0  0  0  0  0
  -24.5906  -30.7117   25.7805 H   0  0  0  0  0  0
  -24.8954  -32.2936   26.4872 H   0  0  0  0  0  0
  -25.8062  -30.8957   27.0244 H   0  0  0  0  0  0
  -26.2951  -29.6747   24.1239 H   0  0  0  0  0  0
  -27.4010  -29.7245   25.4763 H   0  0  0  0  0  0
  -27.8843  -30.4255   23.9509 H   0  0  0  0  0  0
  -27.2654  -33.3645   26.2079 H   0  0  0  0  0  0
  -28.3881  -32.6924   25.0360 H   0  0  0  0  0  0
  -28.0731  -31.8503   26.5457 H   0  0  0  0  0  0
  -28.2589  -38.0088   24.7506 H   0  0  0  0  0  0
  -28.1058  -36.2621   24.6289 H   0  0  0  0  0  0
  -27.2304  -37.1456   25.8872 H   0  0  0  0  0  0
  -20.9414  -29.8760   21.6847 H   0  0  0  0  0  0
  -26.0169  -38.2835   24.1422 H   0  0  0  0  0  0
  -27.4820  -19.1512   22.6847 H   0  0  0  0  0  0
  -31.2980  -16.0125   22.7558 H   0  0  0  0  0  0
  -27.9341  -21.5541   18.2475 H   0  0  0  0  0  0
  -29.6413  -21.5812   18.6543 H   0  0  0  0  0  0
  -29.3161  -19.2103   18.6250 H   0  0  0  0  0  0
  -27.6625  -19.3399   19.2154 H   0  0  0  0  0  0
  -26.4732  -20.9484   20.7387 H   0  0  0  0  0  0
  -26.2927  -22.4695   19.9035 H   0  0  0  0  0  0
  -26.6387  -22.4473   21.6262 H   0  0  0  0  0  0
  -29.8330  -23.6866   19.9986 H   0  0  0  0  0  0
  -29.1075  -23.7463   21.5593 H   0  0  0  0  0  0
  -26.9974  -24.6940   20.6438 H   0  0  0  0  0  0
  -27.6493  -24.6432   19.0325 H   0  0  0  0  0  0
  -26.9105  -18.0799   24.8531 H   0  0  0  0  0  0
  -28.1314  -17.3342   25.7402 H   0  0  0  0  0  0
  -28.8440  -15.7699   20.3124 H   0  0  0  0  0  0
  1 25  1  0  0  0
  1 30  2  0  0  0
  1 86  1  0  0  0
  2  3  1  0  0  0
  2 25  1  0  0  0
  2 89  1  0  0  0
  2 90  1  0  0  0
  3  4  1  0  0  0
  3 91  1  0  0  0
  3 92  1  0  0  0
  4  5  1  0  0  0
  4 93  1  0  0  0
  4 94  1  0  0  0
  5  6  1  0  0  0
  5 26  1  0  0  0
  5 95  1  0  0  0
  6 25  1  0  0  0
  6 96  1  0  0  0
  6 97  1  0  0  0
  7  8  2  0  0  0
  7 26  1  0  0  0
  7 29  1  0  0  0
  8  9  1  0  0  0
  8 22  1  0  0  0
  9 10  1  0  0  0
  9 27  2  0  0  0
 10 11  2  0  0  0
 10 15  1  0  0  0
 11 12  1  0  0  0
 11 98  1  0  0  0
 12 13  2  0  0  0
 12 99  1  0  0  0
 13 14  1  0  0  0
 13 31  1  0  0  0
 14 15  2  0  0  0
 14100  1  0  0  0
 15101  1  0  0  0
 16 17  2  0  0  0
 16 21  1  0  0  0
 16 31  1  0  0  0
 17 18  1  0  0  0
 17102  1  0  0  0
 18 19  2  0  0  0
 18103  1  0  0  0
 19 20  1  0  0  0
 19 24  1  0  0  0
 20 21  2  0  0  0
 20104  1  0  0  0
 21 23  1  0  0  0
 22 28  1  0  0  0
 22 32  2  0  0  0
 26 27  1  0  0  0
 28105  1  0  0  0
 28106  1  0  0  0
 29107  1  0  0  0
 29108  1  0  0  0
 33 34  1  0  0  0
 33 66  1  0  0  0
 33 70  2  0  0  0
 34 36  1  0  0  0
 34 59  1  0  0  0
 34109  1  0  0  0
 35 44  2  0  0  0
 35 45  1  0  0  0
 35 68  1  0  0  0
 36 56  1  0  0  0
 36110  1  0  0  0
 37 39  1  0  0  0
 37 47  1  0  0  0
 37 66  1  0  0  0
 37111  1  0  0  0
 38 43  2  0  0  0
 38 46  1  0  0  0
 38 47  1  0  0  0
 39 64  1  0  0  0
 39 67  2  0  0  0
 40 52  1  0  0  0
 40 53  2  0  0  0
 40 58  1  0  0  0
 41112  1  0  0  0
 41113  1  0  0  0
 41114  1  0  0  0
 41 48  1  0  0  0
 42 43  1  0  0  0
 42 66  1  0  0  0
 42115  1  0  0  0
 42116  1  0  0  0
 43 44  1  0  0  0
 44117  1  0  0  0
 45 46  2  0  0  0
 45118  1  0  0  0
 46119  1  0  0  0
 47120  1  0  0  0
 47121  1  0  0  0
 48 56  1  0  0  0
 48 65  1  0  0  0
 48122  1  0  0  0
 49 50  1  0  0  0
 49 53  1  0  0  0
 49 64  1  0  0  0
 49123  1  0  0  0
 50 51  1  0  0  0
 50124  1  0  0  0
 50125  1  0  0  0
 51 52  1  0  0  0
 51126  1  0  0  0
 51127  1  0  0  0
 52128  1  0  0  0
 52129  1  0  0  0
 53 54  1  0  0  0
 54 55  2  0  0  0
 54130  1  0  0  0
 55 57  1  0  0  0
 55131  1  0  0  0
 56 69  2  0  0  0
 57 58  2  0  0  0
 57132  1  0  0  0
 58133  1  0  0  0
 59 60  1  0  0  0
 59 61  1  0  0  0
 59 62  1  0  0  0
 60134  1  0  0  0
 60135  1  0  0  0
 60136  1  0  0  0
 61137  1  0  0  0
 61138  1  0  0  0
 61139  1  0  0  0
 62140  1  0  0  0
 62141  1  0  0  0
 62142  1  0  0  0
 63 65  1  0  0  0
 63143  1  0  0  0
 63144  1  0  0  0
 63145  1  0  0  0
 64146  1  0  0  0
 65147  1  0  0  0
 68 83  1  0  0  0
 71 73  2  0  0  0
 71 74  1  0  0  0
 71148  1  0  0  0
 72 75  2  0  0  0
 72 76  1  0  0  0
 72149  1  0  0  0
 73 75  1  0  0  0
 73 84  1  0  0  0
 74 76  2  0  0  0
 74 85  1  0  0  0
 75 86  1  0  0  0
 76 88  1  0  0  0
 77 80  1  0  0  0
 77 84  1  0  0  0
 77 87  2  0  0  0
 78 79  1  0  0  0
 78 80  1  0  0  0
 78150  1  0  0  0
 78151  1  0  0  0
 79 84  1  0  0  0
 79152  1  0  0  0
 79153  1  0  0  0
 80 81  1  0  0  0
 80 82  1  0  0  0
 81154  1  0  0  0
 81155  1  0  0  0
 81156  1  0  0  0
 82 83  1  0  0  0
 82157  1  0  0  0
 82158  1  0  0  0
 83159  1  0  0  0
 83160  1  0  0  0
 85161  1  0  0  0
 85162  1  0  0  0
 86163  1  0  0  0
M  ISO  4   1 100  68 101  83 101  86 100
M  END
> <chiral flag>
0

> <version>
0

> <s_m_source_file>
/data/baiqing/PycharmProjects/Reinvent-master-3.2/result/LINK_invent/BTK/process_docking_weight1_custom_product_contain_oxygen_bond_distance_aromatic_linkinvent_7_9_3/rearranged_h_0073.sdf

> <i_m_source_file_index>
21

> <r_mmod_Potential_Energy-OPLS-2005>
566.18408203125

> <r_mmod_Stretch_Energy-OPLS-2005>
152.391876220703

> <r_mmod_Bend_Energy-OPLS-2005>
231.536361694336

> <r_mmod_Torsional_Energy-OPLS-2005>
489.264007568359

> <r_mmod_Improper_Torsional_Energy-OPLS-2005>
30.5455932617188

> <r_mmod_Van_der_Waal_Energy-OPLS-2005>
146.681777954102

> <r_mmod_Electrostatic_Energy-OPLS-2005>
-355.871643066406

> <r_mmod_Solvation_Energy-OPLS-2005>
-234.692489624023

> <b_mmod_Minimization_Converged-OPLS-2005>
0

> <r_mmod_RMS_Derivative-OPLS-2005>
4.76726055145264

$$$$
21
                    3D
 Structure written by MMmdl.
164172  0  0  1  0            999 V2000
  -30.6866  -14.4777   20.5699 C   0  0  0  0  0  0
  -30.4264  -12.3105   19.4188 C   0  0  0  0  0  0
  -29.4950  -12.5081   18.2039 C   0  0  0  0  0  0
  -28.0152  -12.3683   18.6165 C   0  0  0  0  0  0
  -27.6613  -13.2046   19.8756 C   0  0  2  0  0  0
  -28.7032  -12.9766   20.9942 C   0  0  0  0  0  0
  -25.2584  -13.8149   20.5678 C   0  0  0  0  0  0
  -24.1826  -13.0425   20.9151 C   0  0  0  0  0  0
  -24.6382  -11.6897   20.8719 C   0  0  0  0  0  0
  -23.9052  -10.4286   21.0397 C   0  0  0  0  0  0
  -24.3611   -9.4206   21.9177 C   0  0  0  0  0  0
  -23.6289   -8.2240   22.0749 C   0  0  0  0  0  0
  -22.4270   -8.0279   21.3545 C   0  0  0  0  0  0
  -21.9903   -9.0247   20.4647 C   0  0  0  0  0  0
  -22.7227  -10.2127   20.3050 C   0  0  0  0  0  0
  -21.6852   -6.0737   22.5280 C   0  0  0  0  0  0
  -21.4011   -6.5638   23.8216 C   0  0  0  0  0  0
  -21.3659   -5.6791   24.9176 C   0  0  0  0  0  0
  -21.6043   -4.3054   24.7226 C   0  0  0  0  0  0
  -21.8818   -3.8147   23.4345 C   0  0  0  0  0  0
  -21.9191   -4.6963   22.3403 C   0  0  0  0  0  0
  -22.7859  -13.5235   21.1830 C   0  0  0  0  0  0
  -22.1661   -4.2150   21.0981 F   0  0  0  0  0  0
  -21.5634   -3.4536   25.7739 F   0  0  0  0  0  0
  -30.0346  -13.2895   20.4443 N   0  0  0  0  0  0
  -26.3025  -12.9317   20.3377 N   0  0  0  0  0  0
  -25.9314  -11.6478   20.5765 N   0  0  0  0  0  0
  -22.0504  -12.8230   22.0397 N   0  0  0  0  0  0
  -25.4291  -15.1869   20.4142 N   0  0  0  0  0  0
  -31.8146  -14.6679   20.1060 O   0  0  0  0  0  0
  -21.6639   -6.8875   21.4241 O   0  0  0  0  0  0
  -22.3536  -14.5543   20.6689 O   0  0  0  0  0  0
  -24.6133  -31.8681   23.2105 C   0  0  0  0  0  0
  -25.9025  -32.4826   23.8405 C   0  0  1  0  0  0
  -27.2349  -27.4398   20.1011 C   0  0  0  0  0  0
  -25.5886  -33.8628   24.2336 N   0  0  0  0  0  0
  -23.4027  -30.4900   21.5505 C   0  0  2  0  0  0
  -24.8502  -28.9527   20.1200 C   0  0  0  0  0  0
  -22.7410  -29.4656   22.5001 C   0  0  0  0  0  0
  -18.0266  -28.1381   22.8499 C   0  0  0  0  0  0
  -24.1485  -36.7323   23.2639 C   0  0  0  0  0  0
  -25.9301  -30.8360   21.3627 C   0  0  0  0  0  0
  -26.0095  -29.4680   20.7147 C   0  0  0  0  0  0
  -27.2076  -28.7184   20.7024 C   0  0  0  0  0  0
  -26.0630  -26.9335   19.5051 C   0  0  0  0  0  0
  -24.8707  -27.6835   19.5142 C   0  0  0  0  0  0
  -23.6119  -29.8188   20.1665 C   0  0  0  0  0  0
  -25.4104  -36.3120   24.0343 C   0  0  1  0  0  0
  -20.5859  -28.3666   23.1328 C   0  0  2  0  0  0
  -20.6758  -26.9404   22.5426 C   0  0  0  0  0  0
  -19.5737  -26.6392   21.5223 C   0  0  0  0  0  0
  -18.1915  -26.7931   22.1628 C   0  0  0  0  0  0
  -19.1516  -28.8840   23.2911 C   0  0  0  0  0  0
  -18.9443  -30.1446   23.8925 C   0  0  0  0  0  0
  -17.6445  -30.6590   24.0570 C   0  0  0  0  0  0
  -25.9034  -34.9484   23.5143 C   0  0  0  0  0  0
  -16.5338  -29.9095   23.6324 C   0  0  0  0  0  0
  -16.7255  -28.6507   23.0352 C   0  0  0  0  0  0
  -26.4462  -31.6603   25.0727 C   0  0  0  0  0  0
  -25.3737  -31.3695   26.1478 C   0  0  0  0  0  0
  -27.0284  -30.3049   24.6089 C   0  0  0  0  0  0
  -27.6053  -32.4312   25.7476 C   0  0  0  0  0  0
  -27.5588  -37.1801   24.8455 C   0  0  0  0  0  0
  -21.4137  -29.3033   22.3738 N   0  0  0  0  0  0
  -26.4289  -37.3807   23.9420 N   0  0  0  0  0  0
  -24.6669  -31.0789   22.1001 N   0  0  0  0  0  0
  -23.4185  -28.8205   23.3047 O   0  0  0  0  0  0
  -28.3924  -26.6999   20.0568 O   0  0  0  0  0  0
  -26.5603  -34.8931   22.4710 O   0  0  0  0  0  0
  -23.5326  -32.1426   23.7501 O   0  0  0  0  0  0
  -31.4688  -18.9312   20.9362 C   0  0  0  0  0  0
  -31.3862  -17.5211   20.9631 C   0  0  0  0  0  0
  -29.0469  -19.0940   21.0749 C   0  0  0  0  0  0
  -30.3040  -19.7342   21.0011 C   0  0  0  0  0  0
  -30.1279  -16.8791   21.0454 C   0  0  0  0  0  0
  -28.9660  -17.6825   21.1014 C   0  0  0  0  0  0
  -30.4338  -21.2043   21.0296 C   0  0  0  0  0  0
  -28.4308  -24.2455   20.3892 C   0  0  0  0  0  0
  -29.5897  -23.2899   17.5860 C   0  0  0  0  0  0
  -31.8622  -23.4190   18.6852 C   0  0  0  0  0  0
  -28.4734  -25.6488   21.0319 C   0  0  0  0  0  0
  -29.7781  -23.5139   20.1700 C   0  0  2  0  0  0
  -30.3895  -23.8530   18.7802 C   0  0  0  0  0  0
  -29.9506  -15.4625   21.1184 N   0  0  0  0  0  0
  -29.6440  -22.0337   20.3161 N   0  0  0  0  0  0
  -31.4031  -21.7380   21.7745 N   0  3  0  0  0  0
  -27.3503  -23.7281   20.0893 O   0  0  0  0  0  0
  -27.7536  -17.0824   21.1829 F   0  0  0  0  0  0
  -31.4704  -12.4160   19.1175 H   0  0  0  0  0  0
  -30.3330  -11.2979   19.8133 H   0  0  0  0  0  0
  -29.7365  -11.7836   17.4251 H   0  0  0  0  0  0
  -29.6612  -13.4939   17.7662 H   0  0  0  0  0  0
  -27.8250  -11.3117   18.8098 H   0  0  0  0  0  0
  -27.3643  -12.6455   17.7861 H   0  0  0  0  0  0
  -27.7054  -14.2536   19.5817 H   0  0  0  0  0  0
  -28.6815  -11.9369   21.3245 H   0  0  0  0  0  0
  -28.4618  -13.5639   21.8815 H   0  0  0  0  0  0
  -25.2756   -9.5685   22.4750 H   0  0  0  0  0  0
  -24.0003   -7.4630   22.7462 H   0  0  0  0  0  0
  -21.0837   -8.8754   19.8955 H   0  0  0  0  0  0
  -22.3677  -10.9661   19.6156 H   0  0  0  0  0  0
  -21.1998   -7.6144   23.9718 H   0  0  0  0  0  0
  -21.1488   -6.0522   25.9080 H   0  0  0  0  0  0
  -22.0599   -2.7610   23.2844 H   0  0  0  0  0  0
  -22.4115  -11.9884   22.4780 H   0  0  0  0  0  0
  -21.1125  -13.1260   22.2614 H   0  0  0  0  0  0
  -24.6681  -15.8415   20.5560 H   0  0  0  0  0  0
  -26.3077  -15.6481   20.2095 H   0  0  0  0  0  0
  -26.7104  -32.5548   23.1181 H   0  0  0  0  0  0
  -25.0014  -33.9803   25.0464 H   0  0  0  0  0  0
  -22.6904  -31.3056   21.4093 H   0  0  0  0  0  0
  -23.3757  -35.9645   23.3287 H   0  0  0  0  0  0
  -24.3587  -36.8950   22.2058 H   0  0  0  0  0  0
  -23.7219  -37.6519   23.6655 H   0  0  0  0  0  0
  -26.0384  -31.6004   20.5917 H   0  0  0  0  0  0
  -26.8201  -30.8935   21.9777 H   0  0  0  0  0  0
  -28.1058  -29.1170   21.1531 H   0  0  0  0  0  0
  -26.0740  -25.9622   19.0300 H   0  0  0  0  0  0
  -23.9794  -27.2814   19.0533 H   0  0  0  0  0  0
  -23.7208  -30.5910   19.4041 H   0  0  0  0  0  0
  -22.7368  -29.2359   19.8715 H   0  0  0  0  0  0
  -25.1278  -36.1992   25.0836 H   0  0  0  0  0  0
  -20.9947  -28.3228   24.1450 H   0  0  0  0  0  0
  -20.5672  -26.2275   23.3613 H   0  0  0  0  0  0
  -21.6626  -26.7458   22.1209 H   0  0  0  0  0  0
  -19.6898  -25.6308   21.1237 H   0  0  0  0  0  0
  -19.6678  -27.3215   20.6768 H   0  0  0  0  0  0
  -17.4191  -26.6688   21.4020 H   0  0  0  0  0  0
  -18.0311  -26.0070   22.9023 H   0  0  0  0  0  0
  -19.7920  -30.7249   24.2313 H   0  0  0  0  0  0
  -17.5003  -31.6274   24.5162 H   0  0  0  0  0  0
  -15.5337  -30.3007   23.7631 H   0  0  0  0  0  0
  -15.8655  -28.0828   22.7066 H   0  0  0  0  0  0
  -24.5901  -30.7056   25.7807 H   0  0  0  0  0  0
  -24.8939  -32.2839   26.4971 H   0  0  0  0  0  0
  -25.8099  -30.8824   27.0207 H   0  0  0  0  0  0
  -26.2818  -29.6814   24.1154 H   0  0  0  0  0  0
  -27.4066  -29.7281   25.4539 H   0  0  0  0  0  0
  -27.8650  -30.4378   23.9227 H   0  0  0  0  0  0
  -27.2691  -33.3599   26.2099 H   0  0  0  0  0  0
  -28.3830  -32.6891   25.0274 H   0  0  0  0  0  0
  -28.0756  -31.8404   26.5342 H   0  0  0  0  0  0
  -28.2581  -38.0125   24.7554 H   0  0  0  0  0  0
  -28.1107  -36.2660   24.6213 H   0  0  0  0  0  0
  -27.2311  -37.1374   25.8856 H   0  0  0  0  0  0
  -20.9305  -29.8757   21.6955 H   0  0  0  0  0  0
  -26.0181  -38.2881   24.1455 H   0  0  0  0  0  0
  -32.4451  -19.3929   20.8738 H   0  0  0  0  0  0
  -32.3018  -16.9496   20.9368 H   0  0  0  0  0  0
  -28.1373  -19.6736   21.1377 H   0  0  0  0  0  0
  -30.0418  -23.5858   16.6384 H   0  0  0  0  0  0
  -28.5640  -23.6594   17.5726 H   0  0  0  0  0  0
  -29.5511  -22.2002   17.5953 H   0  0  0  0  0  0
  -32.3107  -23.7554   17.7496 H   0  0  0  0  0  0
  -31.9712  -22.3351   18.7252 H   0  0  0  0  0  0
  -32.4530  -23.8449   19.4971 H   0  0  0  0  0  0
  -27.6666  -25.7273   21.7626 H   0  0  0  0  0  0
  -29.4062  -25.7581   21.5850 H   0  0  0  0  0  0
  -30.4585  -23.8876   20.9349 H   0  0  0  0  0  0
  -30.3848  -24.9406   18.6798 H   0  0  0  0  0  0
  -29.0294  -15.1772   21.4127 H   0  0  0  0  0  0
  -28.8727  -21.6143   19.8134 H   0  0  0  0  0  0
  -31.9623  -21.1391   22.3613 H   0  0  0  0  0  0
  -31.5668  -22.7287   21.7951 H   0  0  0  0  0  0
  1 25  1  0  0  0
  1 30  2  0  0  0
  1 84  1  0  0  0
  2  3  1  0  0  0
  2 25  1  0  0  0
  2 89  1  0  0  0
  2 90  1  0  0  0
  3  4  1  0  0  0
  3 91  1  0  0  0
  3 92  1  0  0  0
  4  5  1  0  0  0
  4 93  1  0  0  0
  4 94  1  0  0  0
  5  6  1  0  0  0
  5 26  1  0  0  0
  5 95  1  0  0  0
  6 25  1  0  0  0
  6 96  1  0  0  0
  6 97  1  0  0  0
  7  8  2  0  0  0
  7 26  1  0  0  0
  7 29  1  0  0  0
  8  9  1  0  0  0
  8 22  1  0  0  0
  9 10  1  0  0  0
  9 27  2  0  0  0
 10 11  2  0  0  0
 10 15  1  0  0  0
 11 12  1  0  0  0
 11 98  1  0  0  0
 12 13  2  0  0  0
 12 99  1  0  0  0
 13 14  1  0  0  0
 13 31  1  0  0  0
 14 15  2  0  0  0
 14100  1  0  0  0
 15101  1  0  0  0
 16 17  2  0  0  0
 16 21  1  0  0  0
 16 31  1  0  0  0
 17 18  1  0  0  0
 17102  1  0  0  0
 18 19  2  0  0  0
 18103  1  0  0  0
 19 20  1  0  0  0
 19 24  1  0  0  0
 20 21  2  0  0  0
 20104  1  0  0  0
 21 23  1  0  0  0
 22 28  1  0  0  0
 22 32  2  0  0  0
 26 27  1  0  0  0
 28105  1  0  0  0
 28106  1  0  0  0
 29107  1  0  0  0
 29108  1  0  0  0
 33 34  1  0  0  0
 33 66  1  0  0  0
 33 70  2  0  0  0
 34 36  1  0  0  0
 34 59  1  0  0  0
 34109  1  0  0  0
 35 44  2  0  0  0
 35 45  1  0  0  0
 35 68  1  0  0  0
 36 56  1  0  0  0
 36110  1  0  0  0
 37 39  1  0  0  0
 37 47  1  0  0  0
 37 66  1  0  0  0
 37111  1  0  0  0
 38 43  2  0  0  0
 38 46  1  0  0  0
 38 47  1  0  0  0
 39 64  1  0  0  0
 39 67  2  0  0  0
 40 52  1  0  0  0
 40 53  2  0  0  0
 40 58  1  0  0  0
 41112  1  0  0  0
 41113  1  0  0  0
 41114  1  0  0  0
 41 48  1  0  0  0
 42 43  1  0  0  0
 42 66  1  0  0  0
 42115  1  0  0  0
 42116  1  0  0  0
 43 44  1  0  0  0
 44117  1  0  0  0
 45 46  2  0  0  0
 45118  1  0  0  0
 46119  1  0  0  0
 47120  1  0  0  0
 47121  1  0  0  0
 48 56  1  0  0  0
 48 65  1  0  0  0
 48122  1  0  0  0
 49 50  1  0  0  0
 49 53  1  0  0  0
 49 64  1  0  0  0
 49123  1  0  0  0
 50 51  1  0  0  0
 50124  1  0  0  0
 50125  1  0  0  0
 51 52  1  0  0  0
 51126  1  0  0  0
 51127  1  0  0  0
 52128  1  0  0  0
 52129  1  0  0  0
 53 54  1  0  0  0
 54 55  2  0  0  0
 54130  1  0  0  0
 55 57  1  0  0  0
 55131  1  0  0  0
 56 69  2  0  0  0
 57 58  2  0  0  0
 57132  1  0  0  0
 58133  1  0  0  0
 59 60  1  0  0  0
 59 61  1  0  0  0
 59 62  1  0  0  0
 60134  1  0  0  0
 60135  1  0  0  0
 60136  1  0  0  0
 61137  1  0  0  0
 61138  1  0  0  0
 61139  1  0  0  0
 62140  1  0  0  0
 62141  1  0  0  0
 62142  1  0  0  0
 63 65  1  0  0  0
 63143  1  0  0  0
 63144  1  0  0  0
 63145  1  0  0  0
 64146  1  0  0  0
 65147  1  0  0  0
 68 81  1  0  0  0
 71 72  2  0  0  0
 71 74  1  0  0  0
 71148  1  0  0  0
 72 75  1  0  0  0
 72149  1  0  0  0
 73 74  2  0  0  0
 73 76  1  0  0  0
 73150  1  0  0  0
 74 77  1  0  0  0
 75 76  2  0  0  0
 75 84  1  0  0  0
 76 88  1  0  0  0
 77 85  1  0  0  0
 77 86  2  0  0  0
 78 81  1  0  0  0
 78 82  1  0  0  0
 78 87  2  0  0  0
 79151  1  0  0  0
 79152  1  0  0  0
 79153  1  0  0  0
 79 83  1  0  0  0
 80 83  1  0  0  0
 80154  1  0  0  0
 80155  1  0  0  0
 80156  1  0  0  0
 81157  1  0  0  0
 81158  1  0  0  0
 82 83  1  0  0  0
 82 85  1  0  0  0
 82159  1  0  0  0
 83160  1  0  0  0
 84161  1  0  0  0
 85162  1  0  0  0
 86163  1  0  0  0
 86164  1  0  0  0
M  CHG  1  86   1
M  ISO  4   1 100  68 101  81 101  84 100
M  END
> <chiral flag>
0

> <version>
0

> <s_m_source_file>
/data/baiqing/PycharmProjects/Reinvent-master-3.2/result/LINK_invent/BTK/process_docking_weight1_custom_product_contain_oxygen_bond_distance_aromatic_linkinvent_7_9_3/rearranged_h_0073.sdf

> <i_m_source_file_index>
22

> <r_mmod_Potential_Energy-OPLS-2005>
-345.933227539062

> <r_mmod_Stretch_Energy-OPLS-2005>
38.8463287353516

> <r_mmod_Bend_Energy-OPLS-2005>
98.8458938598633

> <r_mmod_Torsional_Energy-OPLS-2005>
259.906494140625

> <r_mmod_Improper_Torsional_Energy-OPLS-2005>
3.97734665870667

> <r_mmod_Van_der_Waal_Energy-OPLS-2005>
149.543899536133

> <r_mmod_Electrostatic_Energy-OPLS-2005>
-478.33203125

> <r_mmod_Solvation_Energy-OPLS-2005>
-430.363189697266

> <b_mmod_Minimization_Converged-OPLS-2005>
0

> <r_mmod_RMS_Derivative-OPLS-2005>
1.01761651039124

$$$$
22
                    3D
 Structure written by MMmdl.
159168  0  0  1  0            999 V2000
  -30.6577  -14.6668   20.5592 C   0  0  0  0  0  0
  -30.4218  -12.4251   19.4678 C   0  0  0  0  0  0
  -29.5027  -12.5256   18.2339 C   0  0  0  0  0  0
  -28.0315  -12.3293   18.6401 C   0  0  0  0  0  0
  -27.6429  -13.2079   19.8561 C   0  0  2  0  0  0
  -28.6789  -13.1119   20.9935 C   0  0  0  0  0  0
  -25.2542  -13.8155   20.5653 C   0  0  0  0  0  0
  -24.1807  -13.0436   20.9181 C   0  0  0  0  0  0
  -24.6371  -11.6898   20.8751 C   0  0  0  0  0  0
  -23.9059  -10.4281   21.0426 C   0  0  0  0  0  0
  -24.3623   -9.4193   21.9196 C   0  0  0  0  0  0
  -23.6301   -8.2223   22.0753 C   0  0  0  0  0  0
  -22.4282   -8.0269   21.3536 C   0  0  0  0  0  0
  -21.9919   -9.0249   20.4637 C   0  0  0  0  0  0
  -22.7242  -10.2131   20.3061 C   0  0  0  0  0  0
  -21.6852   -6.0738   22.5287 C   0  0  0  0  0  0
  -21.4008   -6.5638   23.8220 C   0  0  0  0  0  0
  -21.3658   -5.6792   24.9179 C   0  0  0  0  0  0
  -21.6055   -4.3056   24.7223 C   0  0  0  0  0  0
  -21.8820   -3.8147   23.4344 C   0  0  0  0  0  0
  -21.9191   -4.6963   22.3403 C   0  0  0  0  0  0
  -22.7832  -13.5224   21.1857 C   0  0  0  0  0  0
  -22.1653   -4.2165   21.0975 F   0  0  0  0  0  0
  -21.5625   -3.4537   25.7726 F   0  0  0  0  0  0
  -29.9990  -13.4607   20.4406 N   0  0  0  0  0  0
  -26.2926  -12.9290   20.3274 N   0  0  0  0  0  0
  -25.9284  -11.6465   20.5764 N   0  0  0  0  0  0
  -22.0489  -12.8202   22.0411 N   0  0  0  0  0  0
  -25.4340  -15.1871   20.4035 N   0  0  0  0  0  0
  -31.7611  -14.8226   20.0271 O   0  0  0  0  0  0
  -21.6635   -6.8872   21.4247 O   0  0  0  0  0  0
  -22.3506  -14.5543   20.6714 O   0  0  0  0  0  0
  -24.6264  -31.8563   23.2008 C   0  0  0  0  0  0
  -25.9107  -32.4758   23.8343 C   0  0  1  0  0  0
  -27.2284  -27.2981   20.1147 C   0  0  0  0  0  0
  -25.5918  -33.8564   24.2270 N   0  0  0  0  0  0
  -23.4233  -30.4801   21.5407 C   0  0  2  0  0  0
  -24.8718  -28.9323   20.1042 C   0  0  0  0  0  0
  -22.7479  -29.4616   22.4897 C   0  0  0  0  0  0
  -18.0282  -28.1388   22.8476 C   0  0  0  0  0  0
  -24.1490  -36.7288   23.2641 C   0  0  0  0  0  0
  -25.9656  -30.7781   21.3785 C   0  0  0  0  0  0
  -26.0365  -29.4034   20.7211 C   0  0  0  0  0  0
  -27.2108  -28.5927   20.7268 C   0  0  0  0  0  0
  -26.0396  -26.8816   19.4749 C   0  0  0  0  0  0
  -24.8761  -27.6773   19.4735 C   0  0  0  0  0  0
  -23.6393  -29.8138   20.1552 C   0  0  0  0  0  0
  -25.4115  -36.3078   24.0333 C   0  0  1  0  0  0
  -20.5886  -28.3701   23.1258 C   0  0  2  0  0  0
  -20.6772  -26.9413   22.5405 C   0  0  0  0  0  0
  -19.5747  -26.6382   21.5211 C   0  0  0  0  0  0
  -18.1927  -26.7929   22.1620 C   0  0  0  0  0  0
  -19.1536  -28.8862   23.2868 C   0  0  0  0  0  0
  -18.9463  -30.1466   23.8886 C   0  0  0  0  0  0
  -17.6469  -30.6592   24.0565 C   0  0  0  0  0  0
  -25.9053  -34.9444   23.5108 C   0  0  0  0  0  0
  -16.5357  -29.9091   23.6335 C   0  0  0  0  0  0
  -16.7275  -28.6508   23.0346 C   0  0  0  0  0  0
  -26.4490  -31.6576   25.0719 C   0  0  0  0  0  0
  -25.3729  -31.3710   26.1452 C   0  0  0  0  0  0
  -27.0336  -30.2995   24.6203 C   0  0  0  0  0  0
  -27.6051  -32.4315   25.7478 C   0  0  0  0  0  0
  -27.5590  -37.1786   24.8456 C   0  0  0  0  0  0
  -21.4192  -29.3049   22.3640 N   0  0  0  0  0  0
  -26.4283  -37.3782   23.9424 N   0  0  0  0  0  0
  -24.6904  -31.0565   22.0959 N   0  0  0  0  0  0
  -23.4189  -28.8154   23.2991 O   0  0  0  0  0  0
  -28.3463  -26.4467   20.2101 O   0  0  0  0  0  0
  -26.5633  -34.8909   22.4679 O   0  0  0  0  0  0
  -23.5422  -32.1373   23.7320 O   0  0  0  0  0  0
  -30.0409  -19.5562   21.4463 C   0  0  0  0  0  0
  -30.3855  -18.1843   21.6667 C   0  0  0  0  0  0
  -28.6489  -18.8728   19.6214 C   0  0  0  0  0  0
  -29.1154  -19.9428   20.4446 C   0  0  0  0  0  0
  -29.8727  -17.0981   20.8876 C   0  0  0  0  0  0
  -29.0235  -17.5008   19.8122 C   0  0  0  0  0  0
  -27.0456  -23.1254   20.2254 C   0  0  0  0  0  0
  -27.2637  -21.6068   20.4590 C   0  0  0  0  0  0
  -29.3567  -22.6050   20.1463 C   0  0  0  0  0  0
  -28.3185  -23.6843   19.6318 C   0  0  2  0  0  0
  -30.2517  -15.4812   22.7512 C   0  0  0  0  0  0
  -28.5353  -25.2637   19.3348 C   0  0  0  0  0  0
  -28.5843  -21.3214   20.3221 N   0  0  0  0  0  0
  -28.4777  -16.5568   18.9453 N   0  0  0  0  0  0
  -30.0901  -15.6851   21.3031 N   0  0  0  0  0  0
  -26.0075  -23.7599   20.4474 O   0  0  0  0  0  0
  -26.3512  -20.8080   20.7158 O   0  0  0  0  0  0
  -31.4676  -12.5322   19.1705 H   0  0  0  0  0  0
  -30.3456  -11.4344   19.9169 H   0  0  0  0  0  0
  -29.7846  -11.7840   17.4867 H   0  0  0  0  0  0
  -29.6279  -13.5026   17.7626 H   0  0  0  0  0  0
  -27.8875  -11.2745   18.8792 H   0  0  0  0  0  0
  -27.3736  -12.5413   17.7959 H   0  0  0  0  0  0
  -27.6444  -14.2310   19.4972 H   0  0  0  0  0  0
  -28.6981  -12.1054   21.4155 H   0  0  0  0  0  0
  -28.3727  -13.7739   21.8021 H   0  0  0  0  0  0
  -25.2766   -9.5671   22.4776 H   0  0  0  0  0  0
  -24.0025   -7.4606   22.7468 H   0  0  0  0  0  0
  -21.0846   -8.8758   19.8940 H   0  0  0  0  0  0
  -22.3697  -10.9672   19.6174 H   0  0  0  0  0  0
  -21.1999   -7.6146   23.9735 H   0  0  0  0  0  0
  -21.1477   -6.0505   25.9084 H   0  0  0  0  0  0
  -22.0601   -2.7610   23.2834 H   0  0  0  0  0  0
  -22.4123  -11.9855   22.4772 H   0  0  0  0  0  0
  -21.1113  -13.1215   22.2661 H   0  0  0  0  0  0
  -24.6819  -15.8577   20.5121 H   0  0  0  0  0  0
  -26.2992  -15.6111   20.0772 H   0  0  0  0  0  0
  -26.7171  -32.5425   23.1082 H   0  0  0  0  0  0
  -25.0038  -33.9706   25.0398 H   0  0  0  0  0  0
  -22.7188  -31.3021   21.3956 H   0  0  0  0  0  0
  -23.3766  -35.9603   23.3259 H   0  0  0  0  0  0
  -24.3598  -36.8956   22.2067 H   0  0  0  0  0  0
  -23.7212  -37.6463   23.6689 H   0  0  0  0  0  0
  -26.1036  -31.5401   20.6112 H   0  0  0  0  0  0
  -26.8429  -30.8251   22.0111 H   0  0  0  0  0  0
  -28.1011  -28.9427   21.2313 H   0  0  0  0  0  0
  -25.9735  -25.9119   19.0065 H   0  0  0  0  0  0
  -23.9798  -27.3107   18.9920 H   0  0  0  0  0  0
  -23.7559  -30.5901   19.3975 H   0  0  0  0  0  0
  -22.7599  -29.2420   19.8549 H   0  0  0  0  0  0
  -25.1288  -36.1929   25.0824 H   0  0  0  0  0  0
  -20.9985  -28.3293   24.1380 H   0  0  0  0  0  0
  -20.5671  -26.2315   23.3615 H   0  0  0  0  0  0
  -21.6640  -26.7436   22.1202 H   0  0  0  0  0  0
  -19.6913  -25.6292   21.1242 H   0  0  0  0  0  0
  -19.6689  -27.3191   20.6737 H   0  0  0  0  0  0
  -17.4196  -26.6671   21.4025 H   0  0  0  0  0  0
  -18.0332  -26.0078   22.9022 H   0  0  0  0  0  0
  -19.7941  -30.7281   24.2245 H   0  0  0  0  0  0
  -17.5020  -31.6268   24.5166 H   0  0  0  0  0  0
  -15.5354  -30.2995   23.7669 H   0  0  0  0  0  0
  -15.8668  -28.0841   22.7054 H   0  0  0  0  0  0
  -24.5905  -30.7055   25.7784 H   0  0  0  0  0  0
  -24.8916  -32.2868   26.4895 H   0  0  0  0  0  0
  -25.8059  -30.8874   27.0220 H   0  0  0  0  0  0
  -26.2913  -29.6728   24.1244 H   0  0  0  0  0  0
  -27.4037  -29.7272   25.4724 H   0  0  0  0  0  0
  -27.8784  -30.4268   23.9427 H   0  0  0  0  0  0
  -27.2677  -33.3636   26.2023 H   0  0  0  0  0  0
  -28.3867  -32.6841   25.0299 H   0  0  0  0  0  0
  -28.0706  -31.8457   26.5416 H   0  0  0  0  0  0
  -28.2561  -38.0131   24.7572 H   0  0  0  0  0  0
  -28.1131  -36.2667   24.6185 H   0  0  0  0  0  0
  -27.2318  -37.1312   25.8857 H   0  0  0  0  0  0
  -20.9369  -29.8766   21.6840 H   0  0  0  0  0  0
  -26.0163  -38.2845   24.1467 H   0  0  0  0  0  0
  -30.4429  -20.3081   22.1112 H   0  0  0  0  0  0
  -31.0438  -17.9758   22.4970 H   0  0  0  0  0  0
  -27.9523  -19.1106   18.8306 H   0  0  0  0  0  0
  -29.8019  -22.9053   21.0958 H   0  0  0  0  0  0
  -30.1670  -22.4635   19.4312 H   0  0  0  0  0  0
  -28.1994  -23.3466   18.6012 H   0  0  0  0  0  0
  -29.5579  -16.1102   23.3081 H   0  0  0  0  0  0
  -31.2661  -15.7273   23.0652 H   0  0  0  0  0  0
  -30.0640  -14.4544   23.0666 H   0  0  0  0  0  0
  -28.0362  -25.4736   18.3887 H   0  0  0  0  0  0
  -29.5846  -25.3415   19.0511 H   0  0  0  0  0  0
  -28.0815  -16.9039   18.0783 H   0  0  0  0  0  0
  -28.9817  -15.6920   18.8051 H   0  0  0  0  0  0
  1 25  1  0  0  0
  1 30  2  0  0  0
  1 85  1  0  0  0
  2  3  1  0  0  0
  2 25  1  0  0  0
  2 88  1  0  0  0
  2 89  1  0  0  0
  3  4  1  0  0  0
  3 90  1  0  0  0
  3 91  1  0  0  0
  4  5  1  0  0  0
  4 92  1  0  0  0
  4 93  1  0  0  0
  5  6  1  0  0  0
  5 26  1  0  0  0
  5 94  1  0  0  0
  6 25  1  0  0  0
  6 95  1  0  0  0
  6 96  1  0  0  0
  7  8  2  0  0  0
  7 26  1  0  0  0
  7 29  1  0  0  0
  8  9  1  0  0  0
  8 22  1  0  0  0
  9 10  1  0  0  0
  9 27  2  0  0  0
 10 11  2  0  0  0
 10 15  1  0  0  0
 11 12  1  0  0  0
 11 97  1  0  0  0
 12 13  2  0  0  0
 12 98  1  0  0  0
 13 14  1  0  0  0
 13 31  1  0  0  0
 14 15  2  0  0  0
 14 99  1  0  0  0
 15100  1  0  0  0
 16 17  2  0  0  0
 16 21  1  0  0  0
 16 31  1  0  0  0
 17 18  1  0  0  0
 17101  1  0  0  0
 18 19  2  0  0  0
 18102  1  0  0  0
 19 20  1  0  0  0
 19 24  1  0  0  0
 20 21  2  0  0  0
 20103  1  0  0  0
 21 23  1  0  0  0
 22 28  1  0  0  0
 22 32  2  0  0  0
 26 27  1  0  0  0
 28104  1  0  0  0
 28105  1  0  0  0
 29106  1  0  0  0
 29107  1  0  0  0
 33 34  1  0  0  0
 33 66  1  0  0  0
 33 70  2  0  0  0
 34 36  1  0  0  0
 34 59  1  0  0  0
 34108  1  0  0  0
 35 44  2  0  0  0
 35 45  1  0  0  0
 35 68  1  0  0  0
 36 56  1  0  0  0
 36109  1  0  0  0
 37 39  1  0  0  0
 37 47  1  0  0  0
 37 66  1  0  0  0
 37110  1  0  0  0
 38 43  2  0  0  0
 38 46  1  0  0  0
 38 47  1  0  0  0
 39 64  1  0  0  0
 39 67  2  0  0  0
 40 52  1  0  0  0
 40 53  2  0  0  0
 40 58  1  0  0  0
 41111  1  0  0  0
 41112  1  0  0  0
 41113  1  0  0  0
 41 48  1  0  0  0
 42 43  1  0  0  0
 42 66  1  0  0  0
 42114  1  0  0  0
 42115  1  0  0  0
 43 44  1  0  0  0
 44116  1  0  0  0
 45 46  2  0  0  0
 45117  1  0  0  0
 46118  1  0  0  0
 47119  1  0  0  0
 47120  1  0  0  0
 48 56  1  0  0  0
 48 65  1  0  0  0
 48121  1  0  0  0
 49 50  1  0  0  0
 49 53  1  0  0  0
 49 64  1  0  0  0
 49122  1  0  0  0
 50 51  1  0  0  0
 50123  1  0  0  0
 50124  1  0  0  0
 51 52  1  0  0  0
 51125  1  0  0  0
 51126  1  0  0  0
 52127  1  0  0  0
 52128  1  0  0  0
 53 54  1  0  0  0
 54 55  2  0  0  0
 54129  1  0  0  0
 55 57  1  0  0  0
 55130  1  0  0  0
 56 69  2  0  0  0
 57 58  2  0  0  0
 57131  1  0  0  0
 58132  1  0  0  0
 59 60  1  0  0  0
 59 61  1  0  0  0
 59 62  1  0  0  0
 60133  1  0  0  0
 60134  1  0  0  0
 60135  1  0  0  0
 61136  1  0  0  0
 61137  1  0  0  0
 61138  1  0  0  0
 62139  1  0  0  0
 62140  1  0  0  0
 62141  1  0  0  0
 63 65  1  0  0  0
 63142  1  0  0  0
 63143  1  0  0  0
 63144  1  0  0  0
 64145  1  0  0  0
 65146  1  0  0  0
 68 82  1  0  0  0
 71 72  2  0  0  0
 71 74  1  0  0  0
 71147  1  0  0  0
 72 75  1  0  0  0
 72148  1  0  0  0
 73 74  2  0  0  0
 73 76  1  0  0  0
 73149  1  0  0  0
 74 83  1  0  0  0
 75 76  2  0  0  0
 75 85  1  0  0  0
 76 84  1  0  0  0
 77 78  1  0  0  0
 77 80  1  0  0  0
 77 86  2  0  0  0
 78 83  1  0  0  0
 78 87  2  0  0  0
 79 80  1  0  0  0
 79 83  1  0  0  0
 79150  1  0  0  0
 79151  1  0  0  0
 80 82  1  0  0  0
 80152  1  0  0  0
 81 85  1  0  0  0
 81153  1  0  0  0
 81154  1  0  0  0
 81155  1  0  0  0
 82156  1  0  0  0
 82157  1  0  0  0
 84158  1  0  0  0
 84159  1  0  0  0
M  ISO  4   1 100  68 101  82 101  85 100
M  END
> <chiral flag>
0

> <version>
0

> <s_m_source_file>
/data/baiqing/PycharmProjects/Reinvent-master-3.2/result/LINK_invent/BTK/process_docking_weight1_custom_product_contain_oxygen_bond_distance_aromatic_linkinvent_7_9_3/rearranged_h_0073.sdf

> <i_m_source_file_index>
23

> <r_mmod_Potential_Energy-OPLS-2005>
367.547912597656

> <r_mmod_Stretch_Energy-OPLS-2005>
103.71858215332

> <r_mmod_Bend_Energy-OPLS-2005>
254.417205810547

> <r_mmod_Torsional_Energy-OPLS-2005>
334.747894287109

> <r_mmod_Improper_Torsional_Energy-OPLS-2005>
8.60968780517578

> <r_mmod_Van_der_Waal_Energy-OPLS-2005>
136.577713012695

> <r_mmod_Electrostatic_Energy-OPLS-2005>
-292.582672119141

> <r_mmod_Solvation_Energy-OPLS-2005>
-236.601409912109

> <b_mmod_Minimization_Converged-OPLS-2005>
0

> <r_mmod_RMS_Derivative-OPLS-2005>
2.35022354125977

$$$$
23
                    3D
 Structure written by MMmdl.
156165  0  0  1  0            999 V2000
  -30.7510  -14.4501   20.6275 C   0  0  0  0  0  0
  -30.4145  -12.3198   19.4165 C   0  0  0  0  0  0
  -29.4871  -12.5166   18.2025 C   0  0  0  0  0  0
  -28.0122  -12.3700   18.6200 C   0  0  0  0  0  0
  -27.6602  -13.2129   19.8743 C   0  0  2  0  0  0
  -28.7024  -13.0080   20.9964 C   0  0  0  0  0  0
  -25.2576  -13.8175   20.5689 C   0  0  0  0  0  0
  -24.1835  -13.0442   20.9183 C   0  0  0  0  0  0
  -24.6396  -11.6913   20.8735 C   0  0  0  0  0  0
  -23.9064  -10.4294   21.0404 C   0  0  0  0  0  0
  -24.3616   -9.4212   21.9182 C   0  0  0  0  0  0
  -23.6293   -8.2246   22.0755 C   0  0  0  0  0  0
  -22.4275   -8.0282   21.3545 C   0  0  0  0  0  0
  -21.9911   -9.0256   20.4646 C   0  0  0  0  0  0
  -22.7238  -10.2136   20.3054 C   0  0  0  0  0  0
  -21.6853   -6.0739   22.5278 C   0  0  0  0  0  0
  -21.4013   -6.5641   23.8214 C   0  0  0  0  0  0
  -21.3661   -5.6793   24.9175 C   0  0  0  0  0  0
  -21.6046   -4.3057   24.7224 C   0  0  0  0  0  0
  -21.8818   -3.8150   23.4346 C   0  0  0  0  0  0
  -21.9191   -4.6965   22.3401 C   0  0  0  0  0  0
  -22.7857  -13.5235   21.1846 C   0  0  0  0  0  0
  -22.1662   -4.2151   21.0978 F   0  0  0  0  0  0
  -21.5629   -3.4543   25.7736 F   0  0  0  0  0  0
  -30.0346  -13.3062   20.4427 N   0  0  0  0  0  0
  -26.3017  -12.9357   20.3372 N   0  0  0  0  0  0
  -25.9323  -11.6509   20.5766 N   0  0  0  0  0  0
  -22.0500  -12.8228   22.0404 N   0  0  0  0  0  0
  -25.4298  -15.1893   20.4110 N   0  0  0  0  0  0
  -31.8334  -14.6500   20.0705 O   0  0  0  0  0  0
  -21.6638   -6.8881   21.4239 O   0  0  0  0  0  0
  -22.3544  -14.5542   20.6696 O   0  0  0  0  0  0
  -24.6179  -31.8684   23.2129 C   0  0  0  0  0  0
  -25.9067  -32.4822   23.8415 C   0  0  1  0  0  0
  -27.2169  -27.4020   20.0879 C   0  0  0  0  0  0
  -25.5916  -33.8621   24.2336 N   0  0  0  0  0  0
  -23.4053  -30.4979   21.5549 C   0  0  2  0  0  0
  -24.8468  -28.9725   20.1108 C   0  0  0  0  0  0
  -22.7421  -29.4674   22.4982 C   0  0  0  0  0  0
  -18.0273  -28.1381   22.8495 C   0  0  0  0  0  0
  -24.1486  -36.7315   23.2634 C   0  0  0  0  0  0
  -25.9415  -30.8214   21.3756 C   0  0  0  0  0  0
  -26.0134  -29.4575   20.7156 C   0  0  0  0  0  0
  -27.1999  -28.6790   20.7063 C   0  0  0  0  0  0
  -26.0295  -26.9651   19.4463 C   0  0  0  0  0  0
  -24.8518  -27.7258   19.4734 C   0  0  0  0  0  0
  -23.6130  -29.8429   20.1662 C   0  0  0  0  0  0
  -25.4108  -36.3110   24.0334 C   0  0  1  0  0  0
  -20.5865  -28.3674   23.1312 C   0  0  2  0  0  0
  -20.6765  -26.9411   22.5418 C   0  0  0  0  0  0
  -19.5743  -26.6391   21.5217 C   0  0  0  0  0  0
  -18.1920  -26.7932   22.1622 C   0  0  0  0  0  0
  -19.1522  -28.8844   23.2902 C   0  0  0  0  0  0
  -18.9451  -30.1449   23.8914 C   0  0  0  0  0  0
  -17.6453  -30.6589   24.0567 C   0  0  0  0  0  0
  -25.9043  -34.9474   23.5131 C   0  0  0  0  0  0
  -16.5342  -29.9091   23.6330 C   0  0  0  0  0  0
  -16.7263  -28.6505   23.0357 C   0  0  0  0  0  0
  -26.4478  -31.6606   25.0752 C   0  0  0  0  0  0
  -25.3734  -31.3716   26.1493 C   0  0  0  0  0  0
  -27.0310  -30.3040   24.6164 C   0  0  0  0  0  0
  -27.6057  -32.4330   25.7507 C   0  0  0  0  0  0
  -27.5590  -37.1797   24.8452 C   0  0  0  0  0  0
  -21.4144  -29.3044   22.3718 N   0  0  0  0  0  0
  -26.4285  -37.3807   23.9420 N   0  0  0  0  0  0
  -24.6734  -31.0764   22.1055 N   0  0  0  0  0  0
  -23.4188  -28.8201   23.3018 O   0  0  0  0  0  0
  -28.3541  -26.6006   20.1377 O   0  0  0  0  0  0
  -26.5600  -34.8926   22.4689 O   0  0  0  0  0  0
  -23.5363  -32.1457   23.7502 O   0  0  0  0  0  0
  -31.7479  -18.7833   21.3291 C   0  0  0  0  0  0
  -31.5227  -20.1563   21.0934 C   0  0  0  0  0  0
  -29.3688  -18.4382   21.6146 C   0  0  0  0  0  0
  -30.6785  -17.9100   21.6201 C   0  0  0  0  0  0
  -30.2198  -20.7128   21.1497 C   0  0  0  0  0  0
  -29.1391  -19.8176   21.3838 C   0  0  0  0  0  0
  -30.2777  -24.4065   21.0488 C   0  0  0  0  0  0
  -29.1386  -24.1976   20.3957 C   0  0  0  0  0  0
  -30.8365  -23.1256   21.4409 C   0  0  0  0  0  0
  -28.8466  -22.7207   20.3175 C   0  0  0  0  0  0
  -30.9816  -16.4726   22.0682 C   0  0  0  0  0  0
  -28.1493  -25.2026   19.8140 C   0  0  0  0  0  0
  -30.0195  -22.1375   20.9807 N   0  0  0  0  0  0
  -30.2230  -15.3699   21.4562 N   0  0  0  0  0  0
  -31.8693  -22.9689   22.0992 O   0  0  0  0  0  0
  -27.8649  -20.2692   21.4463 F   0  0  0  0  0  0
  -31.4584  -12.4096   19.1108 H   0  0  0  0  0  0
  -30.3103  -11.3096   19.8158 H   0  0  0  0  0  0
  -29.7274  -11.7938   17.4213 H   0  0  0  0  0  0
  -29.6516  -13.5037   17.7678 H   0  0  0  0  0  0
  -27.8285  -11.3138   18.8206 H   0  0  0  0  0  0
  -27.3572  -12.6391   17.7909 H   0  0  0  0  0  0
  -27.7022  -14.2600   19.5733 H   0  0  0  0  0  0
  -28.6793  -11.9770   21.3527 H   0  0  0  0  0  0
  -28.4535  -13.6203   21.8637 H   0  0  0  0  0  0
  -25.2759   -9.5690   22.4758 H   0  0  0  0  0  0
  -24.0002   -7.4641   22.7478 H   0  0  0  0  0  0
  -21.0842   -8.8777   19.8953 H   0  0  0  0  0  0
  -22.3695  -10.9677   19.6164 H   0  0  0  0  0  0
  -21.2008   -7.6149   23.9714 H   0  0  0  0  0  0
  -21.1484   -6.0526   25.9077 H   0  0  0  0  0  0
  -22.0597   -2.7610   23.2844 H   0  0  0  0  0  0
  -22.4117  -11.9878   22.4773 H   0  0  0  0  0  0
  -21.1116  -13.1247   22.2612 H   0  0  0  0  0  0
  -24.6662  -15.8476   20.5216 H   0  0  0  0  0  0
  -26.2885  -15.6277   20.1020 H   0  0  0  0  0  0
  -26.7133  -32.5523   23.1173 H   0  0  0  0  0  0
  -25.0057  -33.9783   25.0473 H   0  0  0  0  0  0
  -22.6950  -31.3164   21.4219 H   0  0  0  0  0  0
  -23.3756  -35.9639   23.3279 H   0  0  0  0  0  0
  -24.3583  -36.8955   22.2053 H   0  0  0  0  0  0
  -23.7225  -37.6508   23.6661 H   0  0  0  0  0  0
  -26.0642  -31.5895   20.6105 H   0  0  0  0  0  0
  -26.8256  -30.8661   21.9998 H   0  0  0  0  0  0
  -28.0930  -29.0437   21.1945 H   0  0  0  0  0  0
  -25.9705  -26.0290   18.9118 H   0  0  0  0  0  0
  -23.9598  -27.3516   18.9897 H   0  0  0  0  0  0
  -23.7247  -30.6235   19.4128 H   0  0  0  0  0  0
  -22.7337  -29.2694   19.8671 H   0  0  0  0  0  0
  -25.1277  -36.1967   25.0825 H   0  0  0  0  0  0
  -20.9958  -28.3250   24.1434 H   0  0  0  0  0  0
  -20.5678  -26.2284   23.3606 H   0  0  0  0  0  0
  -21.6636  -26.7464   22.1209 H   0  0  0  0  0  0
  -19.6906  -25.6307   21.1233 H   0  0  0  0  0  0
  -19.6681  -27.3208   20.6752 H   0  0  0  0  0  0
  -17.4195  -26.6694   21.4016 H   0  0  0  0  0  0
  -18.0309  -26.0068   22.9012 H   0  0  0  0  0  0
  -19.7926  -30.7255   24.2297 H   0  0  0  0  0  0
  -17.5012  -31.6270   24.5170 H   0  0  0  0  0  0
  -15.5343  -30.3001   23.7646 H   0  0  0  0  0  0
  -15.8662  -28.0829   22.7069 H   0  0  0  0  0  0
  -24.5926  -30.7040   25.7834 H   0  0  0  0  0  0
  -24.8897  -32.2862   26.4926 H   0  0  0  0  0  0
  -25.8084  -30.8905   27.0261 H   0  0  0  0  0  0
  -26.2868  -29.6802   24.1200 H   0  0  0  0  0  0
  -27.4039  -29.7281   25.4644 H   0  0  0  0  0  0
  -27.8726  -30.4349   23.9359 H   0  0  0  0  0  0
  -27.2689  -33.3634   26.2095 H   0  0  0  0  0  0
  -28.3849  -32.6885   25.0313 H   0  0  0  0  0  0
  -28.0744  -31.8449   26.5409 H   0  0  0  0  0  0
  -28.2566  -38.0135   24.7570 H   0  0  0  0  0  0
  -28.1128  -36.2672   24.6185 H   0  0  0  0  0  0
  -27.2317  -37.1341   25.8853 H   0  0  0  0  0  0
  -20.9299  -29.8779   21.6956 H   0  0  0  0  0  0
  -26.0172  -38.2873   24.1473 H   0  0  0  0  0  0
  -32.7639  -18.4120   21.3240 H   0  0  0  0  0  0
  -32.3780  -20.7849   20.8908 H   0  0  0  0  0  0
  -28.5297  -17.7975   21.8435 H   0  0  0  0  0  0
  -30.7120  -25.3701   21.2670 H   0  0  0  0  0  0
  -28.7618  -22.3841   19.2835 H   0  0  0  0  0  0
  -27.9188  -22.5122   20.8496 H   0  0  0  0  0  0
  -30.7881  -16.4301   23.1405 H   0  0  0  0  0  0
  -32.0546  -16.2909   21.9766 H   0  0  0  0  0  0
  -27.1976  -24.8586   20.2212 H   0  0  0  0  0  0
  -28.1153  -25.0737   18.7313 H   0  0  0  0  0  0
  -29.3177  -15.1601   21.8482 H   0  0  0  0  0  0
  1 25  1  0  0  0
  1 30  2  0  0  0
  1 84  1  0  0  0
  2  3  1  0  0  0
  2 25  1  0  0  0
  2 87  1  0  0  0
  2 88  1  0  0  0
  3  4  1  0  0  0
  3 89  1  0  0  0
  3 90  1  0  0  0
  4  5  1  0  0  0
  4 91  1  0  0  0
  4 92  1  0  0  0
  5  6  1  0  0  0
  5 26  1  0  0  0
  5 93  1  0  0  0
  6 25  1  0  0  0
  6 94  1  0  0  0
  6 95  1  0  0  0
  7  8  2  0  0  0
  7 26  1  0  0  0
  7 29  1  0  0  0
  8  9  1  0  0  0
  8 22  1  0  0  0
  9 10  1  0  0  0
  9 27  2  0  0  0
 10 11  2  0  0  0
 10 15  1  0  0  0
 11 12  1  0  0  0
 11 96  1  0  0  0
 12 13  2  0  0  0
 12 97  1  0  0  0
 13 14  1  0  0  0
 13 31  1  0  0  0
 14 15  2  0  0  0
 14 98  1  0  0  0
 15 99  1  0  0  0
 16 17  2  0  0  0
 16 21  1  0  0  0
 16 31  1  0  0  0
 17 18  1  0  0  0
 17100  1  0  0  0
 18 19  2  0  0  0
 18101  1  0  0  0
 19 20  1  0  0  0
 19 24  1  0  0  0
 20 21  2  0  0  0
 20102  1  0  0  0
 21 23  1  0  0  0
 22 28  1  0  0  0
 22 32  2  0  0  0
 26 27  1  0  0  0
 28103  1  0  0  0
 28104  1  0  0  0
 29105  1  0  0  0
 29106  1  0  0  0
 33 34  1  0  0  0
 33 66  1  0  0  0
 33 70  2  0  0  0
 34 36  1  0  0  0
 34 59  1  0  0  0
 34107  1  0  0  0
 35 44  2  0  0  0
 35 45  1  0  0  0
 35 68  1  0  0  0
 36 56  1  0  0  0
 36108  1  0  0  0
 37 39  1  0  0  0
 37 47  1  0  0  0
 37 66  1  0  0  0
 37109  1  0  0  0
 38 43  2  0  0  0
 38 46  1  0  0  0
 38 47  1  0  0  0
 39 64  1  0  0  0
 39 67  2  0  0  0
 40 52  1  0  0  0
 40 53  2  0  0  0
 40 58  1  0  0  0
 41110  1  0  0  0
 41111  1  0  0  0
 41112  1  0  0  0
 41 48  1  0  0  0
 42 43  1  0  0  0
 42 66  1  0  0  0
 42113  1  0  0  0
 42114  1  0  0  0
 43 44  1  0  0  0
 44115  1  0  0  0
 45 46  2  0  0  0
 45116  1  0  0  0
 46117  1  0  0  0
 47118  1  0  0  0
 47119  1  0  0  0
 48 56  1  0  0  0
 48 65  1  0  0  0
 48120  1  0  0  0
 49 50  1  0  0  0
 49 53  1  0  0  0
 49 64  1  0  0  0
 49121  1  0  0  0
 50 51  1  0  0  0
 50122  1  0  0  0
 50123  1  0  0  0
 51 52  1  0  0  0
 51124  1  0  0  0
 51125  1  0  0  0
 52126  1  0  0  0
 52127  1  0  0  0
 53 54  1  0  0  0
 54 55  2  0  0  0
 54128  1  0  0  0
 55 57  1  0  0  0
 55129  1  0  0  0
 56 69  2  0  0  0
 57 58  2  0  0  0
 57130  1  0  0  0
 58131  1  0  0  0
 59 60  1  0  0  0
 59 61  1  0  0  0
 59 62  1  0  0  0
 60132  1  0  0  0
 60133  1  0  0  0
 60134  1  0  0  0
 61135  1  0  0  0
 61136  1  0  0  0
 61137  1  0  0  0
 62138  1  0  0  0
 62139  1  0  0  0
 62140  1  0  0  0
 63 65  1  0  0  0
 63141  1  0  0  0
 63142  1  0  0  0
 63143  1  0  0  0
 64144  1  0  0  0
 65145  1  0  0  0
 68 82  1  0  0  0
 71 72  2  0  0  0
 71 74  1  0  0  0
 71146  1  0  0  0
 72 75  1  0  0  0
 72147  1  0  0  0
 73 74  2  0  0  0
 73 76  1  0  0  0
 73148  1  0  0  0
 74 81  1  0  0  0
 75 76  2  0  0  0
 75 83  1  0  0  0
 76 86  1  0  0  0
 77 78  2  0  0  0
 77 79  1  0  0  0
 77149  1  0  0  0
 78 80  1  0  0  0
 78 82  1  0  0  0
 79 83  1  0  0  0
 79 85  2  0  0  0
 80 83  1  0  0  0
 80150  1  0  0  0
 80151  1  0  0  0
 81 84  1  0  0  0
 81152  1  0  0  0
 81153  1  0  0  0
 82154  1  0  0  0
 82155  1  0  0  0
 84156  1  0  0  0
M  ISO  4   1 100  68 101  82 101  84 100
M  END
> <chiral flag>
0

> <version>
0

> <s_m_source_file>
/data/baiqing/PycharmProjects/Reinvent-master-3.2/result/LINK_invent/BTK/process_docking_weight1_custom_product_contain_oxygen_bond_distance_aromatic_linkinvent_7_9_3/rearranged_h_0073.sdf

> <i_m_source_file_index>
24

> <r_mmod_Potential_Energy-OPLS-2005>
-31.7026290893555

> <r_mmod_Stretch_Energy-OPLS-2005>
44.3837890625

> <r_mmod_Bend_Energy-OPLS-2005>
150.694534301758

> <r_mmod_Torsional_Energy-OPLS-2005>
235.372863769531

> <r_mmod_Improper_Torsional_Energy-OPLS-2005>
2.76747250556946

> <r_mmod_Van_der_Waal_Energy-OPLS-2005>
163.902496337891

> <r_mmod_Electrostatic_Energy-OPLS-2005>
-426.229614257812

> <r_mmod_Solvation_Energy-OPLS-2005>
-219.298797607422

> <b_mmod_Minimization_Converged-OPLS-2005>
0

> <r_mmod_RMS_Derivative-OPLS-2005>
0.850881099700928

$$$$
24
                    3D
 Structure written by MMmdl.
152161  0  0  1  0            999 V2000
  -30.5883  -14.7446   20.4519 C   0  0  0  0  0  0
  -30.4490  -12.4522   19.4598 C   0  0  0  0  0  0
  -29.5125  -12.5103   18.2309 C   0  0  0  0  0  0
  -28.0383  -12.3323   18.6488 C   0  0  0  0  0  0
  -27.6470  -13.2237   19.8575 C   0  0  2  0  0  0
  -28.7002  -13.1328   20.9852 C   0  0  0  0  0  0
  -25.2504  -13.8134   20.5765 C   0  0  0  0  0  0
  -24.1789  -13.0373   20.9199 C   0  0  0  0  0  0
  -24.6397  -11.6868   20.8734 C   0  0  0  0  0  0
  -23.9074  -10.4258   21.0394 C   0  0  0  0  0  0
  -24.3619   -9.4182   21.9180 C   0  0  0  0  0  0
  -23.6288   -8.2225   22.0754 C   0  0  0  0  0  0
  -22.4270   -8.0269   21.3544 C   0  0  0  0  0  0
  -21.9907   -9.0240   20.4644 C   0  0  0  0  0  0
  -22.7243  -10.2111   20.3047 C   0  0  0  0  0  0
  -21.6847   -6.0730   22.5280 C   0  0  0  0  0  0
  -21.4010   -6.5636   23.8213 C   0  0  0  0  0  0
  -21.3659   -5.6790   24.9177 C   0  0  0  0  0  0
  -21.6044   -4.3054   24.7228 C   0  0  0  0  0  0
  -21.8820   -3.8144   23.4349 C   0  0  0  0  0  0
  -21.9191   -4.6959   22.3405 C   0  0  0  0  0  0
  -22.7810  -13.5167   21.1862 C   0  0  0  0  0  0
  -22.1660   -4.2145   21.0982 F   0  0  0  0  0  0
  -21.5631   -3.4538   25.7741 F   0  0  0  0  0  0
  -30.0038  -13.4975   20.4058 N   0  0  0  0  0  0
  -26.2969  -12.9365   20.3347 N   0  0  0  0  0  0
  -25.9335  -11.6502   20.5761 N   0  0  0  0  0  0
  -22.0462  -12.8167   22.0430 N   0  0  0  0  0  0
  -25.4008  -15.1873   20.4363 N   0  0  0  0  0  0
  -31.7750  -14.8960   20.1471 O   0  0  0  0  0  0
  -21.6630   -6.8870   21.4242 O   0  0  0  0  0  0
  -22.3490  -14.5476   20.6716 O   0  0  0  0  0  0
  -24.6313  -31.8557   23.1999 C   0  0  0  0  0  0
  -25.9138  -32.4759   23.8343 C   0  0  1  0  0  0
  -27.2253  -27.2700   20.1256 C   0  0  0  0  0  0
  -25.5931  -33.8561   24.2261 N   0  0  0  0  0  0
  -23.4296  -30.4785   21.5424 C   0  0  2  0  0  0
  -24.8816  -28.9322   20.1061 C   0  0  0  0  0  0
  -22.7511  -29.4599   22.4906 C   0  0  0  0  0  0
  -18.0295  -28.1387   22.8484 C   0  0  0  0  0  0
  -24.1490  -36.7286   23.2640 C   0  0  0  0  0  0
  -25.9765  -30.7690   21.3835 C   0  0  0  0  0  0
  -26.0524  -29.3932   20.7238 C   0  0  0  0  0  0
  -27.2281  -28.5723   20.7299 C   0  0  0  0  0  0
  -26.0393  -26.8906   19.4565 C   0  0  0  0  0  0
  -24.8795  -27.6871   19.4611 C   0  0  0  0  0  0
  -23.6497  -29.8155   20.1576 C   0  0  0  0  0  0
  -25.4117  -36.3073   24.0326 C   0  0  1  0  0  0
  -20.5900  -28.3700   23.1264 C   0  0  2  0  0  0
  -20.6781  -26.9416   22.5407 C   0  0  0  0  0  0
  -19.5755  -26.6382   21.5212 C   0  0  0  0  0  0
  -18.1937  -26.7928   22.1626 C   0  0  0  0  0  0
  -19.1549  -28.8861   23.2868 C   0  0  0  0  0  0
  -18.9469  -30.1461   23.8888 C   0  0  0  0  0  0
  -17.6467  -30.6587   24.0561 C   0  0  0  0  0  0
  -25.9056  -34.9442   23.5096 C   0  0  0  0  0  0
  -16.5358  -29.9084   23.6332 C   0  0  0  0  0  0
  -16.7281  -28.6501   23.0354 C   0  0  0  0  0  0
  -26.4503  -31.6584   25.0733 C   0  0  0  0  0  0
  -25.3721  -31.3736   26.1448 C   0  0  0  0  0  0
  -27.0358  -30.2999   24.6231 C   0  0  0  0  0  0
  -27.6050  -32.4332   25.7509 C   0  0  0  0  0  0
  -27.5578  -37.1801   24.8467 C   0  0  0  0  0  0
  -21.4217  -29.3045   22.3651 N   0  0  0  0  0  0
  -26.4293  -37.3770   23.9405 N   0  0  0  0  0  0
  -24.6978  -31.0520   22.0980 N   0  0  0  0  0  0
  -23.4208  -28.8136   23.3006 O   0  0  0  0  0  0
  -28.2720  -26.3165   20.1933 O   0  0  0  0  0  0
  -26.5630  -34.8915   22.4666 O   0  0  0  0  0  0
  -23.5460  -32.1379   23.7288 O   0  0  0  0  0  0
  -30.5689  -19.6299   20.7935 C   0  0  0  0  0  0
  -30.7770  -18.1988   20.8140 C   0  0  0  0  0  0
  -28.3376  -19.3162   20.1036 C   0  0  0  0  0  0
  -29.3231  -20.2750   20.4855 C   0  0  0  0  0  0
  -29.7426  -17.2772   20.4818 C   0  0  0  0  0  0
  -28.5339  -17.8990   20.0750 C   0  0  0  0  0  0
  -28.4516  -23.7200   20.5002 C   0  0  0  0  0  0
  -27.8227  -22.4663   20.8985 C   0  0  0  0  0  0
  -27.8870  -24.9926   20.5694 C   0  0  0  0  0  0
  -29.7047  -22.9071   20.0598 C   0  0  0  0  0  0
  -28.9826  -21.7206   20.6142 N   0  0  0  0  0  0
  -27.5018  -17.0821   19.6145 N   0  0  0  0  0  0
  -29.7208  -15.8020   20.6363 N   0  0  0  0  0  0
  -26.6904  -22.2271   21.2647 O   0  0  0  0  0  0
  -31.4857  -12.5975   19.1508 H   0  0  0  0  0  0
  -30.4100  -11.4694   19.9318 H   0  0  0  0  0  0
  -29.7908  -11.7422   17.5080 H   0  0  0  0  0  0
  -29.6346  -13.4674   17.7211 H   0  0  0  0  0  0
  -27.8954  -11.2821   18.9059 H   0  0  0  0  0  0
  -27.3781  -12.5296   17.8035 H   0  0  0  0  0  0
  -27.6400  -14.2473   19.4861 H   0  0  0  0  0  0
  -28.7369  -12.1242   21.3994 H   0  0  0  0  0  0
  -28.4378  -13.7900   21.8160 H   0  0  0  0  0  0
  -25.2764   -9.5658   22.4755 H   0  0  0  0  0  0
  -23.9991   -7.4617   22.7478 H   0  0  0  0  0  0
  -21.0837   -8.8762   19.8952 H   0  0  0  0  0  0
  -22.3707  -10.9651   19.6155 H   0  0  0  0  0  0
  -21.2000   -7.6144   23.9714 H   0  0  0  0  0  0
  -21.1482   -6.0522   25.9079 H   0  0  0  0  0  0
  -22.0600   -2.7606   23.2851 H   0  0  0  0  0  0
  -22.4084  -11.9831   22.4817 H   0  0  0  0  0  0
  -21.1083  -13.1194   22.2645 H   0  0  0  0  0  0
  -24.6189  -15.8146   20.5836 H   0  0  0  0  0  0
  -26.2564  -15.6975   20.2094 H   0  0  0  0  0  0
  -26.7206  -32.5415   23.1089 H   0  0  0  0  0  0
  -25.0070  -33.9701   25.0400 H   0  0  0  0  0  0
  -22.7260  -31.3007   21.3970 H   0  0  0  0  0  0
  -23.3750  -35.9621   23.3309 H   0  0  0  0  0  0
  -24.3577  -36.8902   22.2053 H   0  0  0  0  0  0
  -23.7248  -37.6491   23.6661 H   0  0  0  0  0  0
  -26.1176  -31.5309   20.6155 H   0  0  0  0  0  0
  -26.8526  -30.8166   22.0184 H   0  0  0  0  0  0
  -28.1183  -28.9119   21.2404 H   0  0  0  0  0  0
  -25.9908  -25.9344   18.9548 H   0  0  0  0  0  0
  -23.9869  -27.3309   18.9655 H   0  0  0  0  0  0
  -23.7715  -30.5937   19.4032 H   0  0  0  0  0  0
  -22.7693  -29.2472   19.8520 H   0  0  0  0  0  0
  -25.1301  -36.1922   25.0819 H   0  0  0  0  0  0
  -20.9994  -28.3280   24.1384 H   0  0  0  0  0  0
  -20.5682  -26.2312   23.3614 H   0  0  0  0  0  0
  -21.6649  -26.7437   22.1200 H   0  0  0  0  0  0
  -19.6917  -25.6291   21.1247 H   0  0  0  0  0  0
  -19.6690  -27.3189   20.6739 H   0  0  0  0  0  0
  -17.4205  -26.6674   21.4030 H   0  0  0  0  0  0
  -18.0338  -26.0071   22.9025 H   0  0  0  0  0  0
  -19.7945  -30.7280   24.2253 H   0  0  0  0  0  0
  -17.5021  -31.6266   24.5165 H   0  0  0  0  0  0
  -15.5358  -30.2982   23.7660 H   0  0  0  0  0  0
  -15.8681  -28.0817   22.7074 H   0  0  0  0  0  0
  -24.5905  -30.7075   25.7775 H   0  0  0  0  0  0
  -24.8901  -32.2904   26.4850 H   0  0  0  0  0  0
  -25.8032  -30.8931   27.0239 H   0  0  0  0  0  0
  -26.2951  -29.6741   24.1237 H   0  0  0  0  0  0
  -27.4014  -29.7267   25.4761 H   0  0  0  0  0  0
  -27.8840  -30.4270   23.9500 H   0  0  0  0  0  0
  -27.2650  -33.3635   26.2071 H   0  0  0  0  0  0
  -28.3868  -32.6889   25.0344 H   0  0  0  0  0  0
  -28.0711  -31.8470   26.5439 H   0  0  0  0  0  0
  -28.2601  -38.0092   24.7502 H   0  0  0  0  0  0
  -28.1067  -36.2622   24.6309 H   0  0  0  0  0  0
  -27.2292  -37.1469   25.8869 H   0  0  0  0  0  0
  -20.9404  -29.8771   21.6856 H   0  0  0  0  0  0
  -26.0173  -38.2846   24.1396 H   0  0  0  0  0  0
  -31.3961  -20.2549   21.0991 H   0  0  0  0  0  0
  -31.7354  -17.8178   21.1361 H   0  0  0  0  0  0
  -27.3642  -19.6931   19.8243 H   0  0  0  0  0  0
  -26.9014  -25.0231   21.0159 H   0  0  0  0  0  0
  -30.6429  -23.0924   20.5847 H   0  0  0  0  0  0
  -29.8818  -22.8069   18.9875 H   0  0  0  0  0  0
  -26.7314  -17.5881   19.1900 H   0  0  0  0  0  0
  -27.8286  -16.3727   18.9681 H   0  0  0  0  0  0
  -28.7736  -15.4758   20.7545 H   0  0  0  0  0  0
  1 25  1  0  0  0
  1 30  2  0  0  0
  1 83  1  0  0  0
  2  3  1  0  0  0
  2 25  1  0  0  0
  2 85  1  0  0  0
  2 86  1  0  0  0
  3  4  1  0  0  0
  3 87  1  0  0  0
  3 88  1  0  0  0
  4  5  1  0  0  0
  4 89  1  0  0  0
  4 90  1  0  0  0
  5  6  1  0  0  0
  5 26  1  0  0  0
  5 91  1  0  0  0
  6 25  1  0  0  0
  6 92  1  0  0  0
  6 93  1  0  0  0
  7  8  2  0  0  0
  7 26  1  0  0  0
  7 29  1  0  0  0
  8  9  1  0  0  0
  8 22  1  0  0  0
  9 10  1  0  0  0
  9 27  2  0  0  0
 10 11  2  0  0  0
 10 15  1  0  0  0
 11 12  1  0  0  0
 11 94  1  0  0  0
 12 13  2  0  0  0
 12 95  1  0  0  0
 13 14  1  0  0  0
 13 31  1  0  0  0
 14 15  2  0  0  0
 14 96  1  0  0  0
 15 97  1  0  0  0
 16 17  2  0  0  0
 16 21  1  0  0  0
 16 31  1  0  0  0
 17 18  1  0  0  0
 17 98  1  0  0  0
 18 19  2  0  0  0
 18 99  1  0  0  0
 19 20  1  0  0  0
 19 24  1  0  0  0
 20 21  2  0  0  0
 20100  1  0  0  0
 21 23  1  0  0  0
 22 28  1  0  0  0
 22 32  2  0  0  0
 26 27  1  0  0  0
 28101  1  0  0  0
 28102  1  0  0  0
 29103  1  0  0  0
 29104  1  0  0  0
 33 34  1  0  0  0
 33 66  1  0  0  0
 33 70  2  0  0  0
 34 36  1  0  0  0
 34 59  1  0  0  0
 34105  1  0  0  0
 35 44  2  0  0  0
 35 45  1  0  0  0
 35 68  1  0  0  0
 36 56  1  0  0  0
 36106  1  0  0  0
 37 39  1  0  0  0
 37 47  1  0  0  0
 37 66  1  0  0  0
 37107  1  0  0  0
 38 43  2  0  0  0
 38 46  1  0  0  0
 38 47  1  0  0  0
 39 64  1  0  0  0
 39 67  2  0  0  0
 40 52  1  0  0  0
 40 53  2  0  0  0
 40 58  1  0  0  0
 41108  1  0  0  0
 41109  1  0  0  0
 41110  1  0  0  0
 41 48  1  0  0  0
 42 43  1  0  0  0
 42 66  1  0  0  0
 42111  1  0  0  0
 42112  1  0  0  0
 43 44  1  0  0  0
 44113  1  0  0  0
 45 46  2  0  0  0
 45114  1  0  0  0
 46115  1  0  0  0
 47116  1  0  0  0
 47117  1  0  0  0
 48 56  1  0  0  0
 48 65  1  0  0  0
 48118  1  0  0  0
 49 50  1  0  0  0
 49 53  1  0  0  0
 49 64  1  0  0  0
 49119  1  0  0  0
 50 51  1  0  0  0
 50120  1  0  0  0
 50121  1  0  0  0
 51 52  1  0  0  0
 51122  1  0  0  0
 51123  1  0  0  0
 52124  1  0  0  0
 52125  1  0  0  0
 53 54  1  0  0  0
 54 55  2  0  0  0
 54126  1  0  0  0
 55 57  1  0  0  0
 55127  1  0  0  0
 56 69  2  0  0  0
 57 58  2  0  0  0
 57128  1  0  0  0
 58129  1  0  0  0
 59 60  1  0  0  0
 59 61  1  0  0  0
 59 62  1  0  0  0
 60130  1  0  0  0
 60131  1  0  0  0
 60132  1  0  0  0
 61133  1  0  0  0
 61134  1  0  0  0
 61135  1  0  0  0
 62136  1  0  0  0
 62137  1  0  0  0
 62138  1  0  0  0
 63 65  1  0  0  0
 63139  1  0  0  0
 63140  1  0  0  0
 63141  1  0  0  0
 64142  1  0  0  0
 65143  1  0  0  0
 68 79  1  0  0  0
 71 72  2  0  0  0
 71 74  1  0  0  0
 71144  1  0  0  0
 72 75  1  0  0  0
 72145  1  0  0  0
 73 74  2  0  0  0
 73 76  1  0  0  0
 73146  1  0  0  0
 74 81  1  0  0  0
 75 76  2  0  0  0
 75 83  1  0  0  0
 76 82  1  0  0  0
 77 78  1  0  0  0
 77 79  2  0  0  0
 77 80  1  0  0  0
 78 81  1  0  0  0
 78 84  2  0  0  0
 79147  1  0  0  0
 80 81  1  0  0  0
 80148  1  0  0  0
 80149  1  0  0  0
 82150  1  0  0  0
 82151  1  0  0  0
 83152  1  0  0  0
M  ISO  4   1 100  68 101  79 101  83 100
M  END
> <chiral flag>
0

> <version>
0

> <s_m_source_file>
/data/baiqing/PycharmProjects/Reinvent-master-3.2/result/LINK_invent/BTK/process_docking_weight1_custom_product_contain_oxygen_bond_distance_aromatic_linkinvent_7_9_3/rearranged_h_0073.sdf

> <i_m_source_file_index>
25

> <r_mmod_Potential_Energy-OPLS-2005>
164.012237548828

> <r_mmod_Stretch_Energy-OPLS-2005>
102.459053039551

> <r_mmod_Bend_Energy-OPLS-2005>
264.789855957031

> <r_mmod_Torsional_Energy-OPLS-2005>
255.915130615234

> <r_mmod_Improper_Torsional_Energy-OPLS-2005>
12.7281932830811

> <r_mmod_Van_der_Waal_Energy-OPLS-2005>
144.490264892578

> <r_mmod_Electrostatic_Energy-OPLS-2005>
-490.863677978516

> <r_mmod_Solvation_Energy-OPLS-2005>
-215.716949462891

> <b_mmod_Minimization_Converged-OPLS-2005>
0

> <r_mmod_RMS_Derivative-OPLS-2005>
0.213552057743073

$$$$
25
                    3D
 Structure written by MMmdl.
160169  0  0  1  0            999 V2000
  -30.6430  -14.7340   20.4317 C   0  0  0  0  0  0
  -30.4227  -12.4433   19.4770 C   0  0  0  0  0  0
  -29.5055  -12.4947   18.2367 C   0  0  0  0  0  0
  -28.0334  -12.3212   18.6539 C   0  0  0  0  0  0
  -27.6387  -13.2344   19.8458 C   0  0  2  0  0  0
  -28.6841  -13.1937   20.9820 C   0  0  0  0  0  0
  -25.2505  -13.8206   20.5696 C   0  0  0  0  0  0
  -24.1801  -13.0447   20.9209 C   0  0  0  0  0  0
  -24.6399  -11.6928   20.8766 C   0  0  0  0  0  0
  -23.9078  -10.4298   21.0416 C   0  0  0  0  0  0
  -24.3625   -9.4210   21.9193 C   0  0  0  0  0  0
  -23.6299   -8.2247   22.0762 C   0  0  0  0  0  0
  -22.4283   -8.0285   21.3547 C   0  0  0  0  0  0
  -21.9920   -9.0260   20.4648 C   0  0  0  0  0  0
  -22.7254  -10.2138   20.3060 C   0  0  0  0  0  0
  -21.6851   -6.0739   22.5277 C   0  0  0  0  0  0
  -21.4017   -6.5644   23.8211 C   0  0  0  0  0  0
  -21.3659   -5.6797   24.9173 C   0  0  0  0  0  0
  -21.6042   -4.3057   24.7224 C   0  0  0  0  0  0
  -21.8820   -3.8151   23.4344 C   0  0  0  0  0  0
  -21.9194   -4.6968   22.3400 C   0  0  0  0  0  0
  -22.7822  -13.5227   21.1866 C   0  0  0  0  0  0
  -22.1661   -4.2152   21.0979 F   0  0  0  0  0  0
  -21.5627   -3.4543   25.7738 F   0  0  0  0  0  0
  -29.9864  -13.5239   20.3924 N   0  0  0  0  0  0
  -26.2926  -12.9419   20.3279 N   0  0  0  0  0  0
  -25.9326  -11.6557   20.5764 N   0  0  0  0  0  0
  -22.0467  -12.8214   22.0416 N   0  0  0  0  0  0
  -25.4192  -15.1932   20.4097 N   0  0  0  0  0  0
  -31.8483  -14.7532   20.1765 O   0  0  0  0  0  0
  -21.6644   -6.8885   21.4241 O   0  0  0  0  0  0
  -22.3503  -14.5530   20.6708 O   0  0  0  0  0  0
  -24.6323  -31.8550   23.2002 C   0  0  0  0  0  0
  -25.9152  -32.4747   23.8339 C   0  0  1  0  0  0
  -27.2136  -27.2541   20.1133 C   0  0  0  0  0  0
  -25.5950  -33.8550   24.2256 N   0  0  0  0  0  0
  -23.4284  -30.4801   21.5435 C   0  0  2  0  0  0
  -24.8718  -28.9288   20.1091 C   0  0  0  0  0  0
  -22.7504  -29.4606   22.4910 C   0  0  0  0  0  0
  -18.0292  -28.1385   22.8483 C   0  0  0  0  0  0
  -24.1489  -36.7274   23.2632 C   0  0  0  0  0  0
  -25.9767  -30.7631   21.3836 C   0  0  0  0  0  0
  -26.0447  -29.3877   20.7188 C   0  0  0  0  0  0
  -27.2151  -28.5621   20.7110 C   0  0  0  0  0  0
  -26.0078  -26.8612   19.4869 C   0  0  0  0  0  0
  -24.8589  -27.6739   19.4852 C   0  0  0  0  0  0
  -23.6454  -29.8182   20.1579 C   0  0  0  0  0  0
  -25.4113  -36.3062   24.0324 C   0  0  1  0  0  0
  -20.5899  -28.3698   23.1258 C   0  0  2  0  0  0
  -20.6777  -26.9412   22.5399 C   0  0  0  0  0  0
  -19.5750  -26.6382   21.5205 C   0  0  0  0  0  0
  -18.1927  -26.7931   22.1611 C   0  0  0  0  0  0
  -19.1545  -28.8858   23.2862 C   0  0  0  0  0  0
  -18.9467  -30.1458   23.8881 C   0  0  0  0  0  0
  -17.6469  -30.6587   24.0562 C   0  0  0  0  0  0
  -25.9065  -34.9435   23.5089 C   0  0  0  0  0  0
  -16.5357  -29.9085   23.6338 C   0  0  0  0  0  0
  -16.7279  -28.6500   23.0360 C   0  0  0  0  0  0
  -26.4521  -31.6591   25.0741 C   0  0  0  0  0  0
  -25.3741  -31.3741   26.1461 C   0  0  0  0  0  0
  -27.0396  -30.3007   24.6266 C   0  0  0  0  0  0
  -27.6064  -32.4355   25.7507 C   0  0  0  0  0  0
  -27.5595  -37.1759   24.8442 C   0  0  0  0  0  0
  -21.4210  -29.3052   22.3655 N   0  0  0  0  0  0
  -26.4271  -37.3781   23.9439 N   0  0  0  0  0  0
  -24.6980  -31.0515   22.0975 N   0  0  0  0  0  0
  -23.4204  -28.8135   23.3000 O   0  0  0  0  0  0
  -28.3269  -26.3814   20.1917 O   0  0  0  0  0  0
  -26.5636  -34.8915   22.4660 O   0  0  0  0  0  0
  -23.5476  -32.1375   23.7300 O   0  0  0  0  0  0
  -31.8335  -18.9035   19.1583 C   0  0  0  0  0  0
  -31.4338  -17.5964   19.4759 C   0  0  0  0  0  0
  -29.4693  -18.5134   20.5522 C   0  0  0  0  0  0
  -31.0842  -20.0357   19.5343 C   0  0  0  0  0  0
  -29.8359  -19.8908   20.2050 C   0  0  0  0  0  0
  -30.2614  -17.3294   20.2199 C   0  0  0  0  0  0
  -28.5987  -23.7143   21.7663 C   0  0  0  0  0  0
  -28.5797  -23.6959   20.4228 C   0  0  0  0  0  0
  -28.7690  -22.4640   22.6268 C   0  0  0  0  0  0
  -28.7669  -22.2950   19.7060 C   0  0  0  0  0  0
  -28.4779  -21.1254   21.9000 C   0  0  0  0  0  0
  -31.7317  -21.3842   19.2501 C   0  0  0  0  0  0
  -28.3810  -25.0163   19.5559 C   0  0  0  0  0  0
  -29.0735  -21.0822   20.5684 N   0  0  0  0  0  0
  -29.9080  -15.9131   20.5611 N   0  0  0  0  0  0
  -31.4659  -12.5452   19.1727 H   0  0  0  0  0  0
  -30.3515  -11.4743   19.9728 H   0  0  0  0  0  0
  -29.7865  -11.7164   17.5259 H   0  0  0  0  0  0
  -29.6328  -13.4464   17.7177 H   0  0  0  0  0  0
  -27.8959  -11.2752   18.9310 H   0  0  0  0  0  0
  -27.3730  -12.4984   17.8045 H   0  0  0  0  0  0
  -27.6271  -14.2501   19.4501 H   0  0  0  0  0  0
  -28.7152  -12.2090   21.4504 H   0  0  0  0  0  0
  -28.4239  -13.9018   21.7703 H   0  0  0  0  0  0
  -25.2767   -9.5684   22.4773 H   0  0  0  0  0  0
  -24.0002   -7.4638   22.7485 H   0  0  0  0  0  0
  -21.0853   -8.8783   19.8951 H   0  0  0  0  0  0
  -22.3717  -10.9680   19.6170 H   0  0  0  0  0  0
  -21.2012   -7.6152   23.9714 H   0  0  0  0  0  0
  -21.1478   -6.0529   25.9077 H   0  0  0  0  0  0
  -22.0598   -2.7613   23.2846 H   0  0  0  0  0  0
  -22.4083  -11.9871   22.4798 H   0  0  0  0  0  0
  -21.1083  -13.1233   22.2623 H   0  0  0  0  0  0
  -24.6494  -15.8455   20.5129 H   0  0  0  0  0  0
  -26.2630  -15.6311   20.0632 H   0  0  0  0  0  0
  -26.7211  -32.5387   23.1068 H   0  0  0  0  0  0
  -25.0128  -33.9690   25.0422 H   0  0  0  0  0  0
  -22.7254  -31.3032   21.3995 H   0  0  0  0  0  0
  -23.3777  -35.9575   23.3243 H   0  0  0  0  0  0
  -24.3591  -36.8955   22.2056 H   0  0  0  0  0  0
  -23.7200  -37.6436   23.6702 H   0  0  0  0  0  0
  -26.1265  -31.5279   20.6205 H   0  0  0  0  0  0
  -26.8493  -30.8017   22.0242 H   0  0  0  0  0  0
  -28.1135  -28.9070   21.2029 H   0  0  0  0  0  0
  -25.8873  -25.9017   19.0137 H   0  0  0  0  0  0
  -23.9567  -27.3147   19.0096 H   0  0  0  0  0  0
  -23.7733  -30.5967   19.4047 H   0  0  0  0  0  0
  -22.7624  -29.2555   19.8513 H   0  0  0  0  0  0
  -25.1281  -36.1892   25.0811 H   0  0  0  0  0  0
  -20.9983  -28.3284   24.1384 H   0  0  0  0  0  0
  -20.5676  -26.2308   23.3609 H   0  0  0  0  0  0
  -21.6644  -26.7438   22.1190 H   0  0  0  0  0  0
  -19.6911  -25.6290   21.1242 H   0  0  0  0  0  0
  -19.6692  -27.3189   20.6732 H   0  0  0  0  0  0
  -17.4200  -26.6690   21.4011 H   0  0  0  0  0  0
  -18.0314  -26.0070   22.8999 H   0  0  0  0  0  0
  -19.7948  -30.7269   24.2247 H   0  0  0  0  0  0
  -17.5029  -31.6269   24.5160 H   0  0  0  0  0  0
  -15.5356  -30.2976   23.7685 H   0  0  0  0  0  0
  -15.8678  -28.0816   22.7091 H   0  0  0  0  0  0
  -24.5915  -30.7098   25.7781 H   0  0  0  0  0  0
  -24.8938  -32.2910   26.4887 H   0  0  0  0  0  0
  -25.8050  -30.8911   27.0240 H   0  0  0  0  0  0
  -26.3006  -29.6711   24.1299 H   0  0  0  0  0  0
  -27.4074  -29.7315   25.4812 H   0  0  0  0  0  0
  -27.8883  -30.4274   23.9542 H   0  0  0  0  0  0
  -27.2671  -33.3664   26.2064 H   0  0  0  0  0  0
  -28.3880  -32.6903   25.0339 H   0  0  0  0  0  0
  -28.0742  -31.8507   26.5437 H   0  0  0  0  0  0
  -28.2512  -38.0155   24.7644 H   0  0  0  0  0  0
  -28.1190  -36.2694   24.6070 H   0  0  0  0  0  0
  -27.2342  -37.1169   25.8842 H   0  0  0  0  0  0
  -20.9398  -29.8789   21.6868 H   0  0  0  0  0  0
  -26.0142  -38.2826   24.1544 H   0  0  0  0  0  0
  -32.7667  -19.0348   18.6276 H   0  0  0  0  0  0
  -32.0829  -16.8103   19.1259 H   0  0  0  0  0  0
  -28.5490  -18.3589   21.0962 H   0  0  0  0  0  0
  -28.5003  -24.6546   22.2900 H   0  0  0  0  0  0
  -28.1194  -22.5487   23.4983 H   0  0  0  0  0  0
  -29.7921  -22.4606   23.0045 H   0  0  0  0  0  0
  -29.4910  -22.4205   18.9073 H   0  0  0  0  0  0
  -27.8304  -22.0854   19.1872 H   0  0  0  0  0  0
  -27.3996  -20.9994   21.7894 H   0  0  0  0  0  0
  -28.8243  -20.2948   22.5178 H   0  0  0  0  0  0
  -32.8185  -21.3000   19.2640 H   0  0  0  0  0  0
  -31.4750  -22.1289   20.0035 H   0  0  0  0  0  0
  -31.4471  -21.7499   18.2638 H   0  0  0  0  0  0
  -27.5643  -24.8219   18.8692 H   0  0  0  0  0  0
  -29.2517  -25.0546   18.9016 H   0  0  0  0  0  0
  -28.9528  -15.7657   20.8500 H   0  0  0  0  0  0
  1 25  1  0  0  0
  1 30  2  0  0  0
  1 85  1  0  0  0
  2  3  1  0  0  0
  2 25  1  0  0  0
  2 86  1  0  0  0
  2 87  1  0  0  0
  3  4  1  0  0  0
  3 88  1  0  0  0
  3 89  1  0  0  0
  4  5  1  0  0  0
  4 90  1  0  0  0
  4 91  1  0  0  0
  5  6  1  0  0  0
  5 26  1  0  0  0
  5 92  1  0  0  0
  6 25  1  0  0  0
  6 93  1  0  0  0
  6 94  1  0  0  0
  7  8  2  0  0  0
  7 26  1  0  0  0
  7 29  1  0  0  0
  8  9  1  0  0  0
  8 22  1  0  0  0
  9 10  1  0  0  0
  9 27  2  0  0  0
 10 11  2  0  0  0
 10 15  1  0  0  0
 11 12  1  0  0  0
 11 95  1  0  0  0
 12 13  2  0  0  0
 12 96  1  0  0  0
 13 14  1  0  0  0
 13 31  1  0  0  0
 14 15  2  0  0  0
 14 97  1  0  0  0
 15 98  1  0  0  0
 16 17  2  0  0  0
 16 21  1  0  0  0
 16 31  1  0  0  0
 17 18  1  0  0  0
 17 99  1  0  0  0
 18 19  2  0  0  0
 18100  1  0  0  0
 19 20  1  0  0  0
 19 24  1  0  0  0
 20 21  2  0  0  0
 20101  1  0  0  0
 21 23  1  0  0  0
 22 28  1  0  0  0
 22 32  2  0  0  0
 26 27  1  0  0  0
 28102  1  0  0  0
 28103  1  0  0  0
 29104  1  0  0  0
 29105  1  0  0  0
 33 34  1  0  0  0
 33 66  1  0  0  0
 33 70  2  0  0  0
 34 36  1  0  0  0
 34 59  1  0  0  0
 34106  1  0  0  0
 35 44  2  0  0  0
 35 45  1  0  0  0
 35 68  1  0  0  0
 36 56  1  0  0  0
 36107  1  0  0  0
 37 39  1  0  0  0
 37 47  1  0  0  0
 37 66  1  0  0  0
 37108  1  0  0  0
 38 43  2  0  0  0
 38 46  1  0  0  0
 38 47  1  0  0  0
 39 64  1  0  0  0
 39 67  2  0  0  0
 40 52  1  0  0  0
 40 53  2  0  0  0
 40 58  1  0  0  0
 41109  1  0  0  0
 41110  1  0  0  0
 41111  1  0  0  0
 41 48  1  0  0  0
 42 43  1  0  0  0
 42 66  1  0  0  0
 42112  1  0  0  0
 42113  1  0  0  0
 43 44  1  0  0  0
 44114  1  0  0  0
 45 46  2  0  0  0
 45115  1  0  0  0
 46116  1  0  0  0
 47117  1  0  0  0
 47118  1  0  0  0
 48 56  1  0  0  0
 48 65  1  0  0  0
 48119  1  0  0  0
 49 50  1  0  0  0
 49 53  1  0  0  0
 49 64  1  0  0  0
 49120  1  0  0  0
 50 51  1  0  0  0
 50121  1  0  0  0
 50122  1  0  0  0
 51 52  1  0  0  0
 51123  1  0  0  0
 51124  1  0  0  0
 52125  1  0  0  0
 52126  1  0  0  0
 53 54  1  0  0  0
 54 55  2  0  0  0
 54127  1  0  0  0
 55 57  1  0  0  0
 55128  1  0  0  0
 56 69  2  0  0  0
 57 58  2  0  0  0
 57129  1  0  0  0
 58130  1  0  0  0
 59 60  1  0  0  0
 59 61  1  0  0  0
 59 62  1  0  0  0
 60131  1  0  0  0
 60132  1  0  0  0
 60133  1  0  0  0
 61134  1  0  0  0
 61135  1  0  0  0
 61136  1  0  0  0
 62137  1  0  0  0
 62138  1  0  0  0
 62139  1  0  0  0
 63 65  1  0  0  0
 63140  1  0  0  0
 63141  1  0  0  0
 63142  1  0  0  0
 64143  1  0  0  0
 65144  1  0  0  0
 68 83  1  0  0  0
 71 72  2  0  0  0
 71 74  1  0  0  0
 71145  1  0  0  0
 72 76  1  0  0  0
 72146  1  0  0  0
 73 75  1  0  0  0
 73 76  2  0  0  0
 73147  1  0  0  0
 74 75  2  0  0  0
 74 82  1  0  0  0
 75 84  1  0  0  0
 76 85  1  0  0  0
 77 78  2  0  0  0
 77 79  1  0  0  0
 77148  1  0  0  0
 78 80  1  0  0  0
 78 83  1  0  0  0
 79 81  1  0  0  0
 79149  1  0  0  0
 79150  1  0  0  0
 80 84  1  0  0  0
 80151  1  0  0  0
 80152  1  0  0  0
 81 84  1  0  0  0
 81153  1  0  0  0
 81154  1  0  0  0
 82155  1  0  0  0
 82156  1  0  0  0
 82157  1  0  0  0
 83158  1  0  0  0
 83159  1  0  0  0
 85160  1  0  0  0
M  ISO  4   1 100  68 101  83 101  85 100
M  END
> <chiral flag>
0

> <version>
0

> <s_m_source_file>
/data/baiqing/PycharmProjects/Reinvent-master-3.2/result/LINK_invent/BTK/process_docking_weight1_custom_product_contain_oxygen_bond_distance_aromatic_linkinvent_7_9_3/rearranged_h_0073.sdf

> <i_m_source_file_index>
26

> <r_mmod_Potential_Energy-OPLS-2005>
213.220901489258

> <r_mmod_Stretch_Energy-OPLS-2005>
130.394104003906

> <r_mmod_Bend_Energy-OPLS-2005>
186.736877441406

> <r_mmod_Torsional_Energy-OPLS-2005>
222.715774536133

> <r_mmod_Improper_Torsional_Energy-OPLS-2005>
4.74019622802734

> <r_mmod_Van_der_Waal_Energy-OPLS-2005>
160.212585449219

> <r_mmod_Electrostatic_Energy-OPLS-2005>
-359.957672119141

> <r_mmod_Solvation_Energy-OPLS-2005>
-217.664291381836

> <b_mmod_Minimization_Converged-OPLS-2005>
0

> <r_mmod_RMS_Derivative-OPLS-2005>
1.12064576148987

$$$$
26
                    3D
 Structure written by MMmdl.
162171  0  0  1  0            999 V2000
  -30.7420  -14.4575   20.6478 C   0  0  0  0  0  0
  -30.4187  -12.3325   19.4171 C   0  0  0  0  0  0
  -29.4874  -12.5298   18.2052 C   0  0  0  0  0  0
  -28.0156  -12.3631   18.6262 C   0  0  0  0  0  0
  -27.6596  -13.2096   19.8764 C   0  0  2  0  0  0
  -28.7002  -13.0036   21.0005 C   0  0  0  0  0  0
  -25.2577  -13.8163   20.5711 C   0  0  0  0  0  0
  -24.1831  -13.0444   20.9190 C   0  0  0  0  0  0
  -24.6386  -11.6909   20.8720 C   0  0  0  0  0  0
  -23.9057  -10.4298   21.0401 C   0  0  0  0  0  0
  -24.3617   -9.4220   21.9173 C   0  0  0  0  0  0
  -23.6305   -8.2249   22.0747 C   0  0  0  0  0  0
  -22.4274   -8.0285   21.3544 C   0  0  0  0  0  0
  -21.9916   -9.0251   20.4634 C   0  0  0  0  0  0
  -22.7238  -10.2134   20.3044 C   0  0  0  0  0  0
  -21.6851   -6.0745   22.5294 C   0  0  0  0  0  0
  -21.4010   -6.5641   23.8222 C   0  0  0  0  0  0
  -21.3657   -5.6794   24.9188 C   0  0  0  0  0  0
  -21.6054   -4.3061   24.7233 C   0  0  0  0  0  0
  -21.8817   -3.8152   23.4351 C   0  0  0  0  0  0
  -21.9191   -4.6974   22.3415 C   0  0  0  0  0  0
  -22.7857  -13.5228   21.1861 C   0  0  0  0  0  0
  -22.1666   -4.2158   21.0993 F   0  0  0  0  0  0
  -21.5625   -3.4545   25.7745 F   0  0  0  0  0  0
  -30.0343  -13.3084   20.4528 N   0  0  0  0  0  0
  -26.3018  -12.9347   20.3389 N   0  0  0  0  0  0
  -25.9315  -11.6489   20.5762 N   0  0  0  0  0  0
  -22.0490  -12.8190   22.0378 N   0  0  0  0  0  0
  -25.4283  -15.1896   20.4157 N   0  0  0  0  0  0
  -31.8207  -14.6706   20.0872 O   0  0  0  0  0  0
  -21.6638   -6.8881   21.4251 O   0  0  0  0  0  0
  -22.3556  -14.5560   20.6755 O   0  0  0  0  0  0
  -24.6160  -31.8685   23.2098 C   0  0  0  0  0  0
  -25.9046  -32.4826   23.8382 C   0  0  1  0  0  0
  -27.2337  -27.4307   20.0935 C   0  0  0  0  0  0
  -25.5909  -33.8629   24.2295 N   0  0  0  0  0  0
  -23.4032  -30.4949   21.5517 C   0  0  2  0  0  0
  -24.8496  -28.9641   20.1149 C   0  0  0  0  0  0
  -22.7406  -29.4670   22.4976 C   0  0  0  0  0  0
  -18.0279  -28.1387   22.8460 C   0  0  0  0  0  0
  -24.1484  -36.7321   23.2640 C   0  0  0  0  0  0
  -25.9357  -30.8278   21.3686 C   0  0  0  0  0  0
  -26.0116  -29.4666   20.7115 C   0  0  0  0  0  0
  -27.2091  -28.7118   20.6916 C   0  0  0  0  0  0
  -26.0545  -26.9522   19.4765 C   0  0  0  0  0  0
  -24.8665  -27.7072   19.4898 C   0  0  0  0  0  0
  -23.6134  -29.8328   20.1651 C   0  0  0  0  0  0
  -25.4111  -36.3111   24.0325 C   0  0  1  0  0  0
  -20.5865  -28.3674   23.1318 C   0  0  2  0  0  0
  -20.6750  -26.9387   22.5487 C   0  0  0  0  0  0
  -19.5788  -26.6383   21.5213 C   0  0  0  0  0  0
  -18.1914  -26.7976   22.1505 C   0  0  0  0  0  0
  -19.1521  -28.8836   23.2908 C   0  0  0  0  0  0
  -18.9457  -30.1437   23.8932 C   0  0  0  0  0  0
  -17.6461  -30.6577   24.0590 C   0  0  0  0  0  0
  -25.9042  -34.9486   23.5102 C   0  0  0  0  0  0
  -16.5354  -29.9098   23.6333 C   0  0  0  0  0  0
  -16.7271  -28.6521   23.0348 C   0  0  0  0  0  0
  -26.4469  -31.6659   25.0749 C   0  0  0  0  0  0
  -25.3705  -31.3768   26.1479 C   0  0  0  0  0  0
  -27.0367  -30.3108   24.6192 C   0  0  0  0  0  0
  -27.6005  -32.4499   25.7468 C   0  0  0  0  0  0
  -27.5600  -37.1797   24.8436 C   0  0  0  0  0  0
  -21.4142  -29.3018   22.3685 N   0  0  0  0  0  0
  -26.4294  -37.3800   23.9399 N   0  0  0  0  0  0
  -24.6691  -31.0792   22.1005 N   0  0  0  0  0  0
  -23.4170  -28.8222   23.3025 O   0  0  0  0  0  0
  -28.3887  -26.6667   20.1176 O   0  0  0  0  0  0
  -26.5598  -34.8939   22.4663 O   0  0  0  0  0  0
  -23.5357  -32.1446   23.7502 O   0  0  0  0  0  0
  -31.4167  -18.6259   20.8630 C   0  0  0  0  0  0
  -31.2993  -20.0241   20.7020 C   0  0  0  0  0  0
  -29.3635  -20.0235   22.1691 C   0  0  0  0  0  0
  -30.5611  -17.9159   21.7362 C   0  0  0  0  0  0
  -29.4941  -18.6228   22.3554 C   0  0  0  0  0  0
  -30.3097  -20.7459   21.4038 C   0  0  0  0  0  0
  -31.2649  -24.2264   22.3445 C   0  0  0  0  0  0
  -30.4520  -24.9999   21.6059 C   0  0  0  0  0  0
  -31.3217  -22.7749   22.2137 C   0  0  0  0  0  0
  -29.2124  -22.9428   20.8844 C   0  0  0  0  0  0
  -29.4939  -24.4468   20.5792 C   0  0  1  0  0  0
  -28.5433  -17.9226   23.3132 C   0  0  0  0  0  0
  -30.9372  -16.4727   22.1237 C   0  0  0  0  0  0
  -28.1918  -25.2789   20.4592 C   0  0  0  0  0  0
  -30.3532  -22.1837   21.4486 N   0  0  0  0  0  0
  -30.2084  -15.3562   21.4971 N   0  0  0  0  0  0
  -32.2196  -22.1280   22.7663 O   0  0  0  0  0  0
  -31.4605  -12.4350   19.1087 H   0  0  0  0  0  0
  -30.3263  -11.3185   19.8093 H   0  0  0  0  0  0
  -29.7347  -11.8195   17.4149 H   0  0  0  0  0  0
  -29.6368  -13.5259   17.7821 H   0  0  0  0  0  0
  -27.8511  -11.3052   18.8377 H   0  0  0  0  0  0
  -27.3530  -12.6164   17.7974 H   0  0  0  0  0  0
  -27.7018  -14.2563   19.5743 H   0  0  0  0  0  0
  -28.6800  -11.9726   21.3565 H   0  0  0  0  0  0
  -28.4436  -13.6123   21.8684 H   0  0  0  0  0  0
  -25.2755   -9.5705   22.4749 H   0  0  0  0  0  0
  -24.0025   -7.4641   22.7462 H   0  0  0  0  0  0
  -21.0847   -8.8766   19.8928 H   0  0  0  0  0  0
  -22.3695  -10.9674   19.6153 H   0  0  0  0  0  0
  -21.1998   -7.6143   23.9736 H   0  0  0  0  0  0
  -21.1478   -6.0517   25.9088 H   0  0  0  0  0  0
  -22.0590   -2.7613   23.2858 H   0  0  0  0  0  0
  -22.4088  -11.9807   22.4701 H   0  0  0  0  0  0
  -21.1089  -13.1182   22.2570 H   0  0  0  0  0  0
  -24.6613  -15.8423   20.5316 H   0  0  0  0  0  0
  -26.2885  -15.6352   20.1229 H   0  0  0  0  0  0
  -26.7096  -32.5523   23.1119 H   0  0  0  0  0  0
  -25.0117  -33.9791   25.0480 H   0  0  0  0  0  0
  -22.6949  -31.3152   21.4140 H   0  0  0  0  0  0
  -23.3752  -35.9652   23.3326 H   0  0  0  0  0  0
  -24.3553  -36.8962   22.2057 H   0  0  0  0  0  0
  -23.7260  -37.6531   23.6668 H   0  0  0  0  0  0
  -26.0674  -31.5906   20.6024 H   0  0  0  0  0  0
  -26.8165  -30.8694   21.9976 H   0  0  0  0  0  0
  -28.1066  -29.1032   21.1501 H   0  0  0  0  0  0
  -26.0384  -26.0029   18.9630 H   0  0  0  0  0  0
  -23.9785  -27.3222   19.0088 H   0  0  0  0  0  0
  -23.7273  -30.6145   19.4147 H   0  0  0  0  0  0
  -22.7344  -29.2622   19.8614 H   0  0  0  0  0  0
  -25.1290  -36.1948   25.0822 H   0  0  0  0  0  0
  -20.9969  -28.3291   24.1441 H   0  0  0  0  0  0
  -20.5556  -26.2300   23.3701 H   0  0  0  0  0  0
  -21.6652  -26.7366   22.1371 H   0  0  0  0  0  0
  -19.6970  -25.6291   21.1267 H   0  0  0  0  0  0
  -19.6832  -27.3176   20.6737 H   0  0  0  0  0  0
  -17.4275  -26.6883   21.3794 H   0  0  0  0  0  0
  -18.0164  -26.0037   22.8769 H   0  0  0  0  0  0
  -19.7928  -30.7228   24.2357 H   0  0  0  0  0  0
  -17.5016  -31.6252   24.5211 H   0  0  0  0  0  0
  -15.5359  -30.3010   23.7645 H   0  0  0  0  0  0
  -15.8667  -28.0868   22.7035 H   0  0  0  0  0  0
  -24.6323  -30.6509   25.8036 H   0  0  0  0  0  0
  -24.8300  -32.2805   26.4313 H   0  0  0  0  0  0
  -25.8142  -30.9697   27.0573 H   0  0  0  0  0  0
  -26.2975  -29.6821   24.1222 H   0  0  0  0  0  0
  -27.4130  -29.7381   25.4678 H   0  0  0  0  0  0
  -27.8767  -30.4463   23.9384 H   0  0  0  0  0  0
  -27.2546  -33.3752   26.2088 H   0  0  0  0  0  0
  -28.3694  -32.7218   25.0223 H   0  0  0  0  0  0
  -28.0821  -31.8685   26.5338 H   0  0  0  0  0  0
  -28.2640  -38.0062   24.7432 H   0  0  0  0  0  0
  -28.1084  -36.2612   24.6278 H   0  0  0  0  0  0
  -27.2359  -37.1503   25.8853 H   0  0  0  0  0  0
  -20.9307  -29.8707   21.6872 H   0  0  0  0  0  0
  -26.0200  -38.2888   24.1404 H   0  0  0  0  0  0
  -32.2343  -18.1115   20.3763 H   0  0  0  0  0  0
  -32.0229  -20.5549   20.0976 H   0  0  0  0  0  0
  -28.5888  -20.5613   22.7002 H   0  0  0  0  0  0
  -31.9297  -24.6994   23.0534 H   0  0  0  0  0  0
  -30.4834  -26.0732   21.7283 H   0  0  0  0  0  0
  -28.8560  -22.4477   19.9806 H   0  0  0  0  0  0
  -28.4003  -22.8701   21.6103 H   0  0  0  0  0  0
  -30.0153  -24.5174   19.6219 H   0  0  0  0  0  0
  -27.6707  -18.5389   23.5323 H   0  0  0  0  0  0
  -29.0462  -17.7159   24.2588 H   0  0  0  0  0  0
  -28.1829  -16.9796   22.9022 H   0  0  0  0  0  0
  -30.8214  -16.3689   23.2029 H   0  0  0  0  0  0
  -32.0116  -16.3524   21.9671 H   0  0  0  0  0  0
  -27.6386  -25.2272   21.3990 H   0  0  0  0  0  0
  -27.5804  -24.7820   19.7073 H   0  0  0  0  0  0
  -29.3156  -15.1155   21.8990 H   0  0  0  0  0  0
  1 25  1  0  0  0
  1 30  2  0  0  0
  1 86  1  0  0  0
  2  3  1  0  0  0
  2 25  1  0  0  0
  2 88  1  0  0  0
  2 89  1  0  0  0
  3  4  1  0  0  0
  3 90  1  0  0  0
  3 91  1  0  0  0
  4  5  1  0  0  0
  4 92  1  0  0  0
  4 93  1  0  0  0
  5  6  1  0  0  0
  5 26  1  0  0  0
  5 94  1  0  0  0
  6 25  1  0  0  0
  6 95  1  0  0  0
  6 96  1  0  0  0
  7  8  2  0  0  0
  7 26  1  0  0  0
  7 29  1  0  0  0
  8  9  1  0  0  0
  8 22  1  0  0  0
  9 10  1  0  0  0
  9 27  2  0  0  0
 10 11  2  0  0  0
 10 15  1  0  0  0
 11 12  1  0  0  0
 11 97  1  0  0  0
 12 13  2  0  0  0
 12 98  1  0  0  0
 13 14  1  0  0  0
 13 31  1  0  0  0
 14 15  2  0  0  0
 14 99  1  0  0  0
 15100  1  0  0  0
 16 17  2  0  0  0
 16 21  1  0  0  0
 16 31  1  0  0  0
 17 18  1  0  0  0
 17101  1  0  0  0
 18 19  2  0  0  0
 18102  1  0  0  0
 19 20  1  0  0  0
 19 24  1  0  0  0
 20 21  2  0  0  0
 20103  1  0  0  0
 21 23  1  0  0  0
 22 28  1  0  0  0
 22 32  2  0  0  0
 26 27  1  0  0  0
 28104  1  0  0  0
 28105  1  0  0  0
 29106  1  0  0  0
 29107  1  0  0  0
 33 34  1  0  0  0
 33 66  1  0  0  0
 33 70  2  0  0  0
 34 36  1  0  0  0
 34 59  1  0  0  0
 34108  1  0  0  0
 35 44  2  0  0  0
 35 45  1  0  0  0
 35 68  1  0  0  0
 36 56  1  0  0  0
 36109  1  0  0  0
 37 39  1  0  0  0
 37 47  1  0  0  0
 37 66  1  0  0  0
 37110  1  0  0  0
 38 43  2  0  0  0
 38 46  1  0  0  0
 38 47  1  0  0  0
 39 64  1  0  0  0
 39 67  2  0  0  0
 40 52  1  0  0  0
 40 53  2  0  0  0
 40 58  1  0  0  0
 41111  1  0  0  0
 41112  1  0  0  0
 41113  1  0  0  0
 41 48  1  0  0  0
 42 43  1  0  0  0
 42 66  1  0  0  0
 42114  1  0  0  0
 42115  1  0  0  0
 43 44  1  0  0  0
 44116  1  0  0  0
 45 46  2  0  0  0
 45117  1  0  0  0
 46118  1  0  0  0
 47119  1  0  0  0
 47120  1  0  0  0
 48 56  1  0  0  0
 48 65  1  0  0  0
 48121  1  0  0  0
 49 50  1  0  0  0
 49 53  1  0  0  0
 49 64  1  0  0  0
 49122  1  0  0  0
 50 51  1  0  0  0
 50123  1  0  0  0
 50124  1  0  0  0
 51 52  1  0  0  0
 51125  1  0  0  0
 51126  1  0  0  0
 52127  1  0  0  0
 52128  1  0  0  0
 53 54  1  0  0  0
 54 55  2  0  0  0
 54129  1  0  0  0
 55 57  1  0  0  0
 55130  1  0  0  0
 56 69  2  0  0  0
 57 58  2  0  0  0
 57131  1  0  0  0
 58132  1  0  0  0
 59 60  1  0  0  0
 59 61  1  0  0  0
 59 62  1  0  0  0
 60133  1  0  0  0
 60134  1  0  0  0
 60135  1  0  0  0
 61136  1  0  0  0
 61137  1  0  0  0
 61138  1  0  0  0
 62139  1  0  0  0
 62140  1  0  0  0
 62141  1  0  0  0
 63 65  1  0  0  0
 63142  1  0  0  0
 63143  1  0  0  0
 63144  1  0  0  0
 64145  1  0  0  0
 65146  1  0  0  0
 68 84  1  0  0  0
 71 72  2  0  0  0
 71 74  1  0  0  0
 71147  1  0  0  0
 72 76  1  0  0  0
 72148  1  0  0  0
 73 75  1  0  0  0
 73 76  2  0  0  0
 73149  1  0  0  0
 74 75  2  0  0  0
 74 83  1  0  0  0
 75 82  1  0  0  0
 76 85  1  0  0  0
 77 78  2  0  0  0
 77 79  1  0  0  0
 77150  1  0  0  0
 78 81  1  0  0  0
 78151  1  0  0  0
 79 85  1  0  0  0
 79 87  2  0  0  0
 80 81  1  0  0  0
 80 85  1  0  0  0
 80152  1  0  0  0
 80153  1  0  0  0
 81 84  1  0  0  0
 81154  1  0  0  0
 82155  1  0  0  0
 82156  1  0  0  0
 82157  1  0  0  0
 83 86  1  0  0  0
 83158  1  0  0  0
 83159  1  0  0  0
 84160  1  0  0  0
 84161  1  0  0  0
 86162  1  0  0  0
M  ISO  4   1 100  68 101  84 101  86 100
M  END
> <chiral flag>
0

> <version>
0

> <s_m_source_file>
/data/baiqing/PycharmProjects/Reinvent-master-3.2/result/LINK_invent/BTK/process_docking_weight1_custom_product_contain_oxygen_bond_distance_aromatic_linkinvent_7_9_3/rearranged_h_0073.sdf

> <i_m_source_file_index>
27

> <r_mmod_Potential_Energy-OPLS-2005>
18.7971439361572

> <r_mmod_Stretch_Energy-OPLS-2005>
45.2481079101562

> <r_mmod_Bend_Energy-OPLS-2005>
105.313690185547

> <r_mmod_Torsional_Energy-OPLS-2005>
285.439880371094

> <r_mmod_Improper_Torsional_Energy-OPLS-2005>
4.22265863418579

> <r_mmod_Van_der_Waal_Energy-OPLS-2005>
167.826934814453

> <r_mmod_Electrostatic_Energy-OPLS-2005>
-379.101959228516

> <r_mmod_Solvation_Energy-OPLS-2005>
-223.026443481445

> <b_mmod_Minimization_Converged-OPLS-2005>
0

> <r_mmod_RMS_Derivative-OPLS-2005>
3.17162704467773

$$$$
27
                    3D
 Structure written by MMmdl.
162170  0  0  1  0            999 V2000
  -30.6189  -14.6502   20.4944 C   0  0  0  0  0  0
  -30.4375  -12.3976   19.4529 C   0  0  0  0  0  0
  -29.5064  -12.5067   18.2240 C   0  0  0  0  0  0
  -28.0292  -12.3448   18.6359 C   0  0  0  0  0  0
  -27.6523  -13.2168   19.8633 C   0  0  2  0  0  0
  -28.6982  -13.0732   20.9922 C   0  0  0  0  0  0
  -25.2553  -13.8167   20.5693 C   0  0  0  0  0  0
  -24.1822  -13.0429   20.9197 C   0  0  0  0  0  0
  -24.6396  -11.6907   20.8749 C   0  0  0  0  0  0
  -23.9071  -10.4290   21.0415 C   0  0  0  0  0  0
  -24.3622   -9.4204   21.9188 C   0  0  0  0  0  0
  -23.6296   -8.2239   22.0756 C   0  0  0  0  0  0
  -22.4277   -8.0284   21.3548 C   0  0  0  0  0  0
  -21.9916   -9.0257   20.4650 C   0  0  0  0  0  0
  -22.7248  -10.2134   20.3060 C   0  0  0  0  0  0
  -21.6850   -6.0742   22.5285 C   0  0  0  0  0  0
  -21.4011   -6.5644   23.8220 C   0  0  0  0  0  0
  -21.3657   -5.6797   24.9179 C   0  0  0  0  0  0
  -21.6044   -4.3060   24.7230 C   0  0  0  0  0  0
  -21.8817   -3.8153   23.4348 C   0  0  0  0  0  0
  -21.9192   -4.6968   22.3407 C   0  0  0  0  0  0
  -22.7846  -13.5226   21.1861 C   0  0  0  0  0  0
  -22.1662   -4.2157   21.0982 F   0  0  0  0  0  0
  -21.5627   -3.4541   25.7739 F   0  0  0  0  0  0
  -30.0129  -13.4206   20.4293 N   0  0  0  0  0  0
  -26.2983  -12.9351   20.3326 N   0  0  0  0  0  0
  -25.9322  -11.6506   20.5762 N   0  0  0  0  0  0
  -22.0488  -12.8215   22.0418 N   0  0  0  0  0  0
  -25.4248  -15.1889   20.4119 N   0  0  0  0  0  0
  -31.7785  -14.8107   20.1019 O   0  0  0  0  0  0
  -21.6639   -6.8882   21.4248 O   0  0  0  0  0  0
  -22.3533  -14.5535   20.6721 O   0  0  0  0  0  0
  -24.6241  -31.8602   23.2023 C   0  0  0  0  0  0
  -25.9095  -32.4773   23.8346 C   0  0  1  0  0  0
  -27.2218  -27.3144   20.1195 C   0  0  0  0  0  0
  -25.5931  -33.8576   24.2278 N   0  0  0  0  0  0
  -23.4182  -30.4830   21.5454 C   0  0  2  0  0  0
  -24.8649  -28.9391   20.1090 C   0  0  0  0  0  0
  -22.7468  -29.4610   22.4928 C   0  0  0  0  0  0
  -18.0295  -28.1372   22.8482 C   0  0  0  0  0  0
  -24.1498  -36.7286   23.2639 C   0  0  0  0  0  0
  -25.9594  -30.7871   21.3766 C   0  0  0  0  0  0
  -26.0321  -29.4143   20.7196 C   0  0  0  0  0  0
  -27.2109  -28.6120   20.7185 C   0  0  0  0  0  0
  -26.0364  -26.9016   19.4681 C   0  0  0  0  0  0
  -24.8694  -27.6878   19.4752 C   0  0  0  0  0  0
  -23.6334  -29.8198   20.1599 C   0  0  0  0  0  0
  -25.4117  -36.3075   24.0329 C   0  0  1  0  0  0
  -20.5895  -28.3675   23.1284 C   0  0  2  0  0  0
  -20.6780  -26.9395   22.5416 C   0  0  0  0  0  0
  -19.5756  -26.6369   21.5216 C   0  0  0  0  0  0
  -18.1934  -26.7916   22.1617 C   0  0  0  0  0  0
  -19.1548  -28.8835   23.2880 C   0  0  0  0  0  0
  -18.9472  -30.1441   23.8888 C   0  0  0  0  0  0
  -17.6473  -30.6578   24.0553 C   0  0  0  0  0  0
  -25.9054  -34.9446   23.5101 C   0  0  0  0  0  0
  -16.5360  -29.9073   23.6330 C   0  0  0  0  0  0
  -16.7280  -28.6494   23.0347 C   0  0  0  0  0  0
  -26.4480  -31.6586   25.0718 C   0  0  0  0  0  0
  -25.3720  -31.3737   26.1454 C   0  0  0  0  0  0
  -27.0331  -30.3015   24.6164 C   0  0  0  0  0  0
  -27.6037  -32.4325   25.7494 C   0  0  0  0  0  0
  -27.5575  -37.1796   24.8462 C   0  0  0  0  0  0
  -21.4184  -29.3029   22.3672 N   0  0  0  0  0  0
  -26.4288  -37.3771   23.9408 N   0  0  0  0  0  0
  -24.6855  -31.0610   22.0979 N   0  0  0  0  0  0
  -23.4190  -28.8145   23.3004 O   0  0  0  0  0  0
  -28.3436  -26.4717   20.1872 O   0  0  0  0  0  0
  -26.5616  -34.8910   22.4666 O   0  0  0  0  0  0
  -23.5406  -32.1406   23.7347 O   0  0  0  0  0  0
  -30.9239  -19.2830   19.9486 C   0  0  0  0  0  0
  -30.9274  -17.8557   20.0270 C   0  0  0  0  0  0
  -28.8878  -19.3767   21.2237 C   0  0  0  0  0  0
  -29.9201  -20.0894   20.5621 C   0  0  0  0  0  0
  -29.9117  -17.1482   20.7236 C   0  0  0  0  0  0
  -28.8868  -17.9504   21.2986 C   0  0  0  0  0  0
  -30.0545  -21.6002   20.6143 C   0  0  0  0  0  0
  -29.8955  -23.7521   23.3063 C   0  0  0  0  0  0
  -27.4198  -23.6995   22.8112 C   0  0  0  0  0  0
  -28.1994  -25.0061   19.9745 C   0  0  0  0  0  0
  -28.7856  -24.2663   22.3741 C   0  0  0  0  0  0
  -29.0990  -24.0380   20.8678 C   0  0  2  0  0  0
  -31.2909  -22.0678   20.7793 N   0  0  0  0  0  0
  -29.8149  -15.6931   20.8682 N   0  0  0  0  0  0
  -29.0519  -22.5385   20.5541 N   0  3  0  0  0  0
  -27.8754  -17.3311   21.9550 F   0  0  0  0  0  0
  -31.4788  -12.5220   19.1511 H   0  0  0  0  0  0
  -30.3728  -11.4032   19.8973 H   0  0  0  0  0  0
  -29.7709  -11.7506   17.4838 H   0  0  0  0  0  0
  -29.6463  -13.4723   17.7355 H   0  0  0  0  0  0
  -27.8665  -11.2915   18.8687 H   0  0  0  0  0  0
  -27.3737  -12.5725   17.7940 H   0  0  0  0  0  0
  -27.6687  -14.2513   19.5206 H   0  0  0  0  0  0
  -28.7117  -12.0499   21.3705 H   0  0  0  0  0  0
  -28.4411  -13.7012   21.8466 H   0  0  0  0  0  0
  -25.2767   -9.5677   22.4764 H   0  0  0  0  0  0
  -24.0010   -7.4627   22.7469 H   0  0  0  0  0  0
  -21.0850   -8.8779   19.8952 H   0  0  0  0  0  0
  -22.3715  -10.9674   19.6169 H   0  0  0  0  0  0
  -21.2002   -7.6151   23.9727 H   0  0  0  0  0  0
  -21.1479   -6.0524   25.9084 H   0  0  0  0  0  0
  -22.0597   -2.7615   23.2848 H   0  0  0  0  0  0
  -22.4104  -11.9872   22.4797 H   0  0  0  0  0  0
  -21.1105  -13.1240   22.2623 H   0  0  0  0  0  0
  -24.6608  -15.8426   20.5430 H   0  0  0  0  0  0
  -26.2794  -15.6383   20.1107 H   0  0  0  0  0  0
  -26.7153  -32.5434   23.1084 H   0  0  0  0  0  0
  -25.0095  -33.9739   25.0429 H   0  0  0  0  0  0
  -22.7115  -31.3035   21.4042 H   0  0  0  0  0  0
  -23.3761  -35.9620   23.3308 H   0  0  0  0  0  0
  -24.3597  -36.8894   22.2053 H   0  0  0  0  0  0
  -23.7252  -37.6486   23.6665 H   0  0  0  0  0  0
  -26.0979  -31.5501   20.6090 H   0  0  0  0  0  0
  -26.8371  -30.8335   22.0091 H   0  0  0  0  0  0
  -28.1038  -28.9675   21.2132 H   0  0  0  0  0  0
  -25.9830  -25.9588   18.9450 H   0  0  0  0  0  0
  -23.9781  -27.3230   18.9827 H   0  0  0  0  0  0
  -23.7505  -30.5985   19.4057 H   0  0  0  0  0  0
  -22.7524  -29.2510   19.8569 H   0  0  0  0  0  0
  -25.1303  -36.1922   25.0821 H   0  0  0  0  0  0
  -21.0002  -28.3249   24.1398 H   0  0  0  0  0  0
  -20.5696  -26.2276   23.3615 H   0  0  0  0  0  0
  -21.6645  -26.7421   22.1198 H   0  0  0  0  0  0
  -19.6924  -25.6288   21.1228 H   0  0  0  0  0  0
  -19.6700  -27.3191   20.6758 H   0  0  0  0  0  0
  -17.4213  -26.6678   21.4010 H   0  0  0  0  0  0
  -18.0316  -26.0061   22.9012 H   0  0  0  0  0  0
  -19.7953  -30.7257   24.2249 H   0  0  0  0  0  0
  -17.5033  -31.6263   24.5149 H   0  0  0  0  0  0
  -15.5363  -30.2965   23.7673 H   0  0  0  0  0  0
  -15.8681  -28.0810   22.7060 H   0  0  0  0  0  0
  -24.5903  -30.7069   25.7794 H   0  0  0  0  0  0
  -24.8906  -32.2916   26.4842 H   0  0  0  0  0  0
  -25.8048  -30.8948   27.0248 H   0  0  0  0  0  0
  -26.2907  -29.6766   24.1184 H   0  0  0  0  0  0
  -27.4046  -29.7261   25.4651 H   0  0  0  0  0  0
  -27.8769  -30.4318   23.9384 H   0  0  0  0  0  0
  -27.2641  -33.3630   26.2059 H   0  0  0  0  0  0
  -28.3855  -32.6870   25.0329 H   0  0  0  0  0  0
  -28.0700  -31.8461   26.5421 H   0  0  0  0  0  0
  -28.2582  -38.0098   24.7506 H   0  0  0  0  0  0
  -28.1080  -36.2628   24.6300 H   0  0  0  0  0  0
  -27.2299  -37.1449   25.8866 H   0  0  0  0  0  0
  -20.9357  -29.8755   21.6889 H   0  0  0  0  0  0
  -26.0166  -38.2842   24.1422 H   0  0  0  0  0  0
  -31.7375  -19.7649   19.4235 H   0  0  0  0  0  0
  -31.7303  -17.3154   19.5473 H   0  0  0  0  0  0
  -28.0991  -19.9222   21.7200 H   0  0  0  0  0  0
  -29.7070  -24.0544   24.3364 H   0  0  0  0  0  0
  -30.8690  -24.1526   23.0218 H   0  0  0  0  0  0
  -29.9637  -22.6646   23.2993 H   0  0  0  0  0  0
  -27.2241  -23.9258   23.8602 H   0  0  0  0  0  0
  -27.3780  -22.6154   22.7034 H   0  0  0  0  0  0
  -26.5961  -24.1243   22.2384 H   0  0  0  0  0  0
  -28.4093  -24.8113   18.9224 H   0  0  0  0  0  0
  -27.1723  -24.6829   20.1299 H   0  0  0  0  0  0
  -28.7419  -25.3456   22.5265 H   0  0  0  0  0  0
  -30.1216  -24.3724   20.6886 H   0  0  0  0  0  0
  -32.0492  -21.4164   20.9124 H   0  0  0  0  0  0
  -31.4989  -23.0493   20.8051 H   0  0  0  0  0  0
  -28.9295  -15.3973   21.2487 H   0  0  0  0  0  0
  -28.1245  -22.1661   20.3969 H   0  0  0  0  0  0
  1 25  1  0  0  0
  1 30  2  0  0  0
  1 84  1  0  0  0
  2  3  1  0  0  0
  2 25  1  0  0  0
  2 87  1  0  0  0
  2 88  1  0  0  0
  3  4  1  0  0  0
  3 89  1  0  0  0
  3 90  1  0  0  0
  4  5  1  0  0  0
  4 91  1  0  0  0
  4 92  1  0  0  0
  5  6  1  0  0  0
  5 26  1  0  0  0
  5 93  1  0  0  0
  6 25  1  0  0  0
  6 94  1  0  0  0
  6 95  1  0  0  0
  7  8  2  0  0  0
  7 26  1  0  0  0
  7 29  1  0  0  0
  8  9  1  0  0  0
  8 22  1  0  0  0
  9 10  1  0  0  0
  9 27  2  0  0  0
 10 11  2  0  0  0
 10 15  1  0  0  0
 11 12  1  0  0  0
 11 96  1  0  0  0
 12 13  2  0  0  0
 12 97  1  0  0  0
 13 14  1  0  0  0
 13 31  1  0  0  0
 14 15  2  0  0  0
 14 98  1  0  0  0
 15 99  1  0  0  0
 16 17  2  0  0  0
 16 21  1  0  0  0
 16 31  1  0  0  0
 17 18  1  0  0  0
 17100  1  0  0  0
 18 19  2  0  0  0
 18101  1  0  0  0
 19 20  1  0  0  0
 19 24  1  0  0  0
 20 21  2  0  0  0
 20102  1  0  0  0
 21 23  1  0  0  0
 22 28  1  0  0  0
 22 32  2  0  0  0
 26 27  1  0  0  0
 28103  1  0  0  0
 28104  1  0  0  0
 29105  1  0  0  0
 29106  1  0  0  0
 33 34  1  0  0  0
 33 66  1  0  0  0
 33 70  2  0  0  0
 34 36  1  0  0  0
 34 59  1  0  0  0
 34107  1  0  0  0
 35 44  2  0  0  0
 35 45  1  0  0  0
 35 68  1  0  0  0
 36 56  1  0  0  0
 36108  1  0  0  0
 37 39  1  0  0  0
 37 47  1  0  0  0
 37 66  1  0  0  0
 37109  1  0  0  0
 38 43  2  0  0  0
 38 46  1  0  0  0
 38 47  1  0  0  0
 39 64  1  0  0  0
 39 67  2  0  0  0
 40 52  1  0  0  0
 40 53  2  0  0  0
 40 58  1  0  0  0
 41110  1  0  0  0
 41111  1  0  0  0
 41112  1  0  0  0
 41 48  1  0  0  0
 42 43  1  0  0  0
 42 66  1  0  0  0
 42113  1  0  0  0
 42114  1  0  0  0
 43 44  1  0  0  0
 44115  1  0  0  0
 45 46  2  0  0  0
 45116  1  0  0  0
 46117  1  0  0  0
 47118  1  0  0  0
 47119  1  0  0  0
 48 56  1  0  0  0
 48 65  1  0  0  0
 48120  1  0  0  0
 49 50  1  0  0  0
 49 53  1  0  0  0
 49 64  1  0  0  0
 49121  1  0  0  0
 50 51  1  0  0  0
 50122  1  0  0  0
 50123  1  0  0  0
 51 52  1  0  0  0
 51124  1  0  0  0
 51125  1  0  0  0
 52126  1  0  0  0
 52127  1  0  0  0
 53 54  1  0  0  0
 54 55  2  0  0  0
 54128  1  0  0  0
 55 57  1  0  0  0
 55129  1  0  0  0
 56 69  2  0  0  0
 57 58  2  0  0  0
 57130  1  0  0  0
 58131  1  0  0  0
 59 60  1  0  0  0
 59 61  1  0  0  0
 59 62  1  0  0  0
 60132  1  0  0  0
 60133  1  0  0  0
 60134  1  0  0  0
 61135  1  0  0  0
 61136  1  0  0  0
 61137  1  0  0  0
 62138  1  0  0  0
 62139  1  0  0  0
 62140  1  0  0  0
 63 65  1  0  0  0
 63141  1  0  0  0
 63142  1  0  0  0
 63143  1  0  0  0
 64144  1  0  0  0
 65145  1  0  0  0
 68 80  1  0  0  0
 71 72  2  0  0  0
 71 74  1  0  0  0
 71146  1  0  0  0
 72 75  1  0  0  0
 72147  1  0  0  0
 73 74  2  0  0  0
 73 76  1  0  0  0
 73148  1  0  0  0
 74 77  1  0  0  0
 75 76  2  0  0  0
 75 84  1  0  0  0
 76 86  1  0  0  0
 77 83  1  0  0  0
 77 85  2  0  0  0
 78149  1  0  0  0
 78150  1  0  0  0
 78151  1  0  0  0
 78 81  1  0  0  0
 79 81  1  0  0  0
 79152  1  0  0  0
 79153  1  0  0  0
 79154  1  0  0  0
 80155  1  0  0  0
 80156  1  0  0  0
 80 82  1  0  0  0
 81 82  1  0  0  0
 81157  1  0  0  0
 82 85  1  0  0  0
 82158  1  0  0  0
 83159  1  0  0  0
 83160  1  0  0  0
 84161  1  0  0  0
 85162  1  0  0  0
M  CHG  1  85   1
M  ISO  4   1 100  68 101  80 101  84 100
M  END
> <chiral flag>
0

> <version>
0

> <s_m_source_file>
/data/baiqing/PycharmProjects/Reinvent-master-3.2/result/LINK_invent/BTK/process_docking_weight1_custom_product_contain_oxygen_bond_distance_aromatic_linkinvent_7_9_3/rearranged_h_0073.sdf

> <i_m_source_file_index>
28

> <r_mmod_Potential_Energy-OPLS-2005>
-249.476089477539

> <r_mmod_Stretch_Energy-OPLS-2005>
82.1807479858398

> <r_mmod_Bend_Energy-OPLS-2005>
144.374923706055

> <r_mmod_Torsional_Energy-OPLS-2005>
229.367553710938

> <r_mmod_Improper_Torsional_Energy-OPLS-2005>
4.29392910003662

> <r_mmod_Van_der_Waal_Energy-OPLS-2005>
146.520629882812

> <r_mmod_Electrostatic_Energy-OPLS-2005>
-498.546478271484

> <r_mmod_Solvation_Energy-OPLS-2005>
-408.867950439453

> <b_mmod_Minimization_Converged-OPLS-2005>
0

> <r_mmod_RMS_Derivative-OPLS-2005>
1.31826722621918

$$$$
28
                    3D
 Structure written by MMmdl.
164173  0  0  1  0            999 V2000
  -30.7215  -14.4547   20.6446 C   0  0  0  0  0  0
  -30.4269  -12.3314   19.4004 C   0  0  0  0  0  0
  -29.4896  -12.5242   18.1919 C   0  0  0  0  0  0
  -28.0125  -12.3733   18.6093 C   0  0  0  0  0  0
  -27.6614  -13.2066   19.8714 C   0  0  2  0  0  0
  -28.7034  -12.9714   20.9854 C   0  0  0  0  0  0
  -25.2593  -13.8170   20.5675 C   0  0  0  0  0  0
  -24.1841  -13.0443   20.9168 C   0  0  0  0  0  0
  -24.6400  -11.6913   20.8726 C   0  0  0  0  0  0
  -23.9070  -10.4295   21.0399 C   0  0  0  0  0  0
  -24.3627   -9.4214   21.9183 C   0  0  0  0  0  0
  -23.6300   -8.2247   22.0761 C   0  0  0  0  0  0
  -22.4277   -8.0282   21.3553 C   0  0  0  0  0  0
  -21.9913   -9.0256   20.4653 C   0  0  0  0  0  0
  -22.7243  -10.2136   20.3056 C   0  0  0  0  0  0
  -21.6855   -6.0738   22.5284 C   0  0  0  0  0  0
  -21.4012   -6.5640   23.8219 C   0  0  0  0  0  0
  -21.3658   -5.6793   24.9176 C   0  0  0  0  0  0
  -21.6041   -4.3057   24.7224 C   0  0  0  0  0  0
  -21.8818   -3.8156   23.4346 C   0  0  0  0  0  0
  -21.9197   -4.6971   22.3402 C   0  0  0  0  0  0
  -22.7857  -13.5235   21.1838 C   0  0  0  0  0  0
  -22.1655   -4.2155   21.0975 F   0  0  0  0  0  0
  -21.5640   -3.4538   25.7733 F   0  0  0  0  0  0
  -30.0335  -13.2986   20.4377 N   0  0  0  0  0  0
  -26.3023  -12.9338   20.3347 N   0  0  0  0  0  0
  -25.9326  -11.6495   20.5749 N   0  0  0  0  0  0
  -22.0497  -12.8237   22.0397 N   0  0  0  0  0  0
  -25.4334  -15.1889   20.4098 N   0  0  0  0  0  0
  -31.8059  -14.6899   20.1037 O   0  0  0  0  0  0
  -21.6644   -6.8879   21.4243 O   0  0  0  0  0  0
  -22.3537  -14.5535   20.6683 O   0  0  0  0  0  0
  -24.6180  -31.8680   23.2108 C   0  0  0  0  0  0
  -25.9072  -32.4820   23.8400 C   0  0  1  0  0  0
  -27.2234  -27.4142   20.0839 C   0  0  0  0  0  0
  -25.5925  -33.8623   24.2323 N   0  0  0  0  0  0
  -23.4046  -30.4961   21.5528 C   0  0  2  0  0  0
  -24.8461  -28.9669   20.1121 C   0  0  0  0  0  0
  -22.7417  -29.4677   22.4985 C   0  0  0  0  0  0
  -18.0267  -28.1379   22.8494 C   0  0  0  0  0  0
  -24.1486  -36.7312   23.2636 C   0  0  0  0  0  0
  -25.9384  -30.8275   21.3677 C   0  0  0  0  0  0
  -26.0128  -29.4637   20.7073 C   0  0  0  0  0  0
  -27.2050  -28.6978   20.6868 C   0  0  0  0  0  0
  -26.0309  -26.9462   19.4799 C   0  0  0  0  0  0
  -24.8516  -27.7084   19.4947 C   0  0  0  0  0  0
  -23.6107  -29.8363   20.1649 C   0  0  0  0  0  0
  -25.4109  -36.3109   24.0332 C   0  0  1  0  0  0
  -20.5865  -28.3674   23.1310 C   0  0  2  0  0  0
  -20.6766  -26.9413   22.5410 C   0  0  0  0  0  0
  -19.5745  -26.6389   21.5212 C   0  0  0  0  0  0
  -18.1923  -26.7924   22.1619 C   0  0  0  0  0  0
  -19.1519  -28.8840   23.2898 C   0  0  0  0  0  0
  -18.9450  -30.1443   23.8911 C   0  0  0  0  0  0
  -17.6453  -30.6588   24.0569 C   0  0  0  0  0  0
  -25.9043  -34.9478   23.5118 C   0  0  0  0  0  0
  -16.5341  -29.9086   23.6336 C   0  0  0  0  0  0
  -16.7256  -28.6501   23.0361 C   0  0  0  0  0  0
  -26.4485  -31.6615   25.0743 C   0  0  0  0  0  0
  -25.3748  -31.3723   26.1489 C   0  0  0  0  0  0
  -27.0325  -30.3052   24.6152 C   0  0  0  0  0  0
  -27.6058  -32.4345   25.7504 C   0  0  0  0  0  0
  -27.5579  -37.1815   24.8462 C   0  0  0  0  0  0
  -21.4146  -29.3047   22.3718 N   0  0  0  0  0  0
  -26.4289  -37.3800   23.9411 N   0  0  0  0  0  0
  -24.6723  -31.0770   22.1018 N   0  0  0  0  0  0
  -23.4185  -28.8218   23.3029 O   0  0  0  0  0  0
  -28.3770  -26.6418   20.1031 O   0  0  0  0  0  0
  -26.5605  -34.8934   22.4678 O   0  0  0  0  0  0
  -23.5363  -32.1440   23.7487 O   0  0  0  0  0  0
  -30.4791  -18.2318   20.3944 C   0  0  0  0  0  0
  -30.3074  -19.5661   19.9516 C   0  0  0  0  0  0
  -29.7624  -20.2414   22.2086 C   0  0  0  0  0  0
  -30.3220  -17.8867   21.7569 C   0  0  0  0  0  0
  -29.9461  -18.9159   22.6648 C   0  0  0  0  0  0
  -29.9547  -20.6014   20.8544 C   0  0  0  0  0  0
  -29.1003  -22.9614   20.9609 C   0  0  0  0  0  0
  -30.3319  -23.9979   19.1885 C   0  0  0  0  0  0
  -30.7037  -22.5114   19.3531 C   0  0  0  0  0  0
  -29.4273  -24.3475   20.3796 C   0  0  1  0  0  0
  -29.7553  -18.6509   24.1523 C   0  0  0  0  0  0
  -32.1373  -16.3309   22.6347 C   0  0  0  0  0  0
  -28.1810  -25.2097   20.0248 C   0  0  0  0  0  0
  -30.6486  -16.4628   22.2586 C   0  0  2  0  0  0
  -29.8638  -21.9801   20.4243 N   0  0  0  0  0  0
  -30.1224  -15.3247   21.4810 N   0  0  0  0  0  0
  -28.2223  -22.8081   21.8169 O   0  0  0  0  0  0
  -31.4683  -12.4480   19.0941 H   0  0  0  0  0  0
  -30.3462  -11.3154   19.7880 H   0  0  0  0  0  0
  -29.7338  -11.8038   17.4097 H   0  0  0  0  0  0
  -29.6473  -13.5125   17.7573 H   0  0  0  0  0  0
  -27.8269  -11.3155   18.7994 H   0  0  0  0  0  0
  -27.3570  -12.6511   17.7822 H   0  0  0  0  0  0
  -27.7102  -14.2572   19.5842 H   0  0  0  0  0  0
  -28.6889  -11.9274   21.3003 H   0  0  0  0  0  0
  -28.4469  -13.5389   21.8803 H   0  0  0  0  0  0
  -25.2779   -9.5691   22.4746 H   0  0  0  0  0  0
  -24.0021   -7.4639   22.7477 H   0  0  0  0  0  0
  -21.0850   -8.8777   19.8950 H   0  0  0  0  0  0
  -22.3715  -10.9675   19.6158 H   0  0  0  0  0  0
  -21.1990   -7.6145   23.9724 H   0  0  0  0  0  0
  -21.1482   -6.0517   25.9080 H   0  0  0  0  0  0
  -22.0601   -2.7619   23.2843 H   0  0  0  0  0  0
  -22.4101  -11.9898   22.4784 H   0  0  0  0  0  0
  -21.1114  -13.1270   22.2586 H   0  0  0  0  0  0
  -24.6738  -15.8506   20.5253 H   0  0  0  0  0  0
  -26.2958  -15.6271   20.1102 H   0  0  0  0  0  0
  -26.7152  -32.5517   23.1168 H   0  0  0  0  0  0
  -25.0119  -33.9787   25.0495 H   0  0  0  0  0  0
  -22.6946  -31.3136   21.4165 H   0  0  0  0  0  0
  -23.3744  -35.9648   23.3307 H   0  0  0  0  0  0
  -24.3585  -36.8916   22.2050 H   0  0  0  0  0  0
  -23.7248  -37.6521   23.6650 H   0  0  0  0  0  0
  -26.0600  -31.5987   20.6053 H   0  0  0  0  0  0
  -26.8222  -30.8702   21.9927 H   0  0  0  0  0  0
  -28.1038  -29.0786   21.1515 H   0  0  0  0  0  0
  -25.9778  -25.9892   18.9843 H   0  0  0  0  0  0
  -23.9567  -27.3236   19.0252 H   0  0  0  0  0  0
  -23.7202  -30.6155   19.4091 H   0  0  0  0  0  0
  -22.7332  -29.2592   19.8671 H   0  0  0  0  0  0
  -25.1291  -36.1962   25.0824 H   0  0  0  0  0  0
  -20.9950  -28.3227   24.1432 H   0  0  0  0  0  0
  -20.5676  -26.2279   23.3595 H   0  0  0  0  0  0
  -21.6636  -26.7466   22.1193 H   0  0  0  0  0  0
  -19.6911  -25.6298   21.1248 H   0  0  0  0  0  0
  -19.6690  -27.3195   20.6740 H   0  0  0  0  0  0
  -17.4200  -26.6677   21.4017 H   0  0  0  0  0  0
  -18.0323  -26.0049   22.8995 H   0  0  0  0  0  0
  -19.7926  -30.7260   24.2287 H   0  0  0  0  0  0
  -17.5009  -31.6273   24.5153 H   0  0  0  0  0  0
  -15.5347  -30.3001   23.7650 H   0  0  0  0  0  0
  -15.8649  -28.0826   22.7083 H   0  0  0  0  0  0
  -24.5906  -30.7086   25.7822 H   0  0  0  0  0  0
  -24.8961  -32.2880   26.4972 H   0  0  0  0  0  0
  -25.8097  -30.8866   27.0232 H   0  0  0  0  0  0
  -26.2881  -29.6806   24.1199 H   0  0  0  0  0  0
  -27.4065  -29.7307   25.4637 H   0  0  0  0  0  0
  -27.8732  -30.4356   23.9333 H   0  0  0  0  0  0
  -27.2672  -33.3632   26.2110 H   0  0  0  0  0  0
  -28.3855  -32.6928   25.0327 H   0  0  0  0  0  0
  -28.0743  -31.8460   26.5399 H   0  0  0  0  0  0
  -28.2603  -38.0108   24.7522 H   0  0  0  0  0  0
  -28.1071  -36.2649   24.6272 H   0  0  0  0  0  0
  -27.2309  -37.1438   25.8867 H   0  0  0  0  0  0
  -20.9292  -29.8784   21.6962 H   0  0  0  0  0  0
  -26.0169  -38.2875   24.1407 H   0  0  0  0  0  0
  -30.7760  -17.4744   19.6819 H   0  0  0  0  0  0
  -30.4620  -19.7808   18.9038 H   0  0  0  0  0  0
  -29.5092  -21.0017   22.9341 H   0  0  0  0  0  0
  -29.8087  -24.1387   18.2417 H   0  0  0  0  0  0
  -31.2187  -24.6319   19.1585 H   0  0  0  0  0  0
  -31.7526  -22.4024   19.6343 H   0  0  0  0  0  0
  -30.5500  -21.9739   18.4173 H   0  0  0  0  0  0
  -30.0068  -24.8583   21.1490 H   0  0  0  0  0  0
  -29.5764  -19.5752   24.7031 H   0  0  0  0  0  0
  -30.6383  -18.1859   24.5904 H   0  0  0  0  0  0
  -28.8978  -17.9986   24.3215 H   0  0  0  0  0  0
  -32.4118  -17.0566   23.4007 H   0  0  0  0  0  0
  -32.7885  -16.5071   21.7788 H   0  0  0  0  0  0
  -32.3623  -15.3413   23.0339 H   0  0  0  0  0  0
  -27.3642  -24.9458   20.6983 H   0  0  0  0  0  0
  -27.8491  -24.9380   19.0225 H   0  0  0  0  0  0
  -30.1049  -16.3283   23.1918 H   0  0  0  0  0  0
  -29.2011  -15.0298   21.7652 H   0  0  0  0  0  0
  1 25  1  0  0  0
  1 30  2  0  0  0
  1 86  1  0  0  0
  2  3  1  0  0  0
  2 25  1  0  0  0
  2 88  1  0  0  0
  2 89  1  0  0  0
  3  4  1  0  0  0
  3 90  1  0  0  0
  3 91  1  0  0  0
  4  5  1  0  0  0
  4 92  1  0  0  0
  4 93  1  0  0  0
  5  6  1  0  0  0
  5 26  1  0  0  0
  5 94  1  0  0  0
  6 25  1  0  0  0
  6 95  1  0  0  0
  6 96  1  0  0  0
  7  8  2  0  0  0
  7 26  1  0  0  0
  7 29  1  0  0  0
  8  9  1  0  0  0
  8 22  1  0  0  0
  9 10  1  0  0  0
  9 27  2  0  0  0
 10 11  2  0  0  0
 10 15  1  0  0  0
 11 12  1  0  0  0
 11 97  1  0  0  0
 12 13  2  0  0  0
 12 98  1  0  0  0
 13 14  1  0  0  0
 13 31  1  0  0  0
 14 15  2  0  0  0
 14 99  1  0  0  0
 15100  1  0  0  0
 16 17  2  0  0  0
 16 21  1  0  0  0
 16 31  1  0  0  0
 17 18  1  0  0  0
 17101  1  0  0  0
 18 19  2  0  0  0
 18102  1  0  0  0
 19 20  1  0  0  0
 19 24  1  0  0  0
 20 21  2  0  0  0
 20103  1  0  0  0
 21 23  1  0  0  0
 22 28  1  0  0  0
 22 32  2  0  0  0
 26 27  1  0  0  0
 28104  1  0  0  0
 28105  1  0  0  0
 29106  1  0  0  0
 29107  1  0  0  0
 33 34  1  0  0  0
 33 66  1  0  0  0
 33 70  2  0  0  0
 34 36  1  0  0  0
 34 59  1  0  0  0
 34108  1  0  0  0
 35 44  2  0  0  0
 35 45  1  0  0  0
 35 68  1  0  0  0
 36 56  1  0  0  0
 36109  1  0  0  0
 37 39  1  0  0  0
 37 47  1  0  0  0
 37 66  1  0  0  0
 37110  1  0  0  0
 38 43  2  0  0  0
 38 46  1  0  0  0
 38 47  1  0  0  0
 39 64  1  0  0  0
 39 67  2  0  0  0
 40 52  1  0  0  0
 40 53  2  0  0  0
 40 58  1  0  0  0
 41111  1  0  0  0
 41112  1  0  0  0
 41113  1  0  0  0
 41 48  1  0  0  0
 42 43  1  0  0  0
 42 66  1  0  0  0
 42114  1  0  0  0
 42115  1  0  0  0
 43 44  1  0  0  0
 44116  1  0  0  0
 45 46  2  0  0  0
 45117  1  0  0  0
 46118  1  0  0  0
 47119  1  0  0  0
 47120  1  0  0  0
 48 56  1  0  0  0
 48 65  1  0  0  0
 48121  1  0  0  0
 49 50  1  0  0  0
 49 53  1  0  0  0
 49 64  1  0  0  0
 49122  1  0  0  0
 50 51  1  0  0  0
 50123  1  0  0  0
 50124  1  0  0  0
 51 52  1  0  0  0
 51125  1  0  0  0
 51126  1  0  0  0
 52127  1  0  0  0
 52128  1  0  0  0
 53 54  1  0  0  0
 54 55  2  0  0  0
 54129  1  0  0  0
 55 57  1  0  0  0
 55130  1  0  0  0
 56 69  2  0  0  0
 57 58  2  0  0  0
 57131  1  0  0  0
 58132  1  0  0  0
 59 60  1  0  0  0
 59 61  1  0  0  0
 59 62  1  0  0  0
 60133  1  0  0  0
 60134  1  0  0  0
 60135  1  0  0  0
 61136  1  0  0  0
 61137  1  0  0  0
 61138  1  0  0  0
 62139  1  0  0  0
 62140  1  0  0  0
 62141  1  0  0  0
 63 65  1  0  0  0
 63142  1  0  0  0
 63143  1  0  0  0
 63144  1  0  0  0
 64145  1  0  0  0
 65146  1  0  0  0
 68 83  1  0  0  0
 71 72  2  0  0  0
 71 74  1  0  0  0
 71147  1  0  0  0
 72 76  1  0  0  0
 72148  1  0  0  0
 73 75  1  0  0  0
 73 76  2  0  0  0
 73149  1  0  0  0
 74 75  2  0  0  0
 74 84  1  0  0  0
 75 81  1  0  0  0
 76 85  1  0  0  0
 77 80  1  0  0  0
 77 85  1  0  0  0
 77 87  2  0  0  0
 78 79  1  0  0  0
 78 80  1  0  0  0
 78150  1  0  0  0
 78151  1  0  0  0
 79 85  1  0  0  0
 79152  1  0  0  0
 79153  1  0  0  0
 80 83  1  0  0  0
 80154  1  0  0  0
 81155  1  0  0  0
 81156  1  0  0  0
 81157  1  0  0  0
 82158  1  0  0  0
 82159  1  0  0  0
 82160  1  0  0  0
 82 84  1  0  0  0
 83161  1  0  0  0
 83162  1  0  0  0
 84 86  1  0  0  0
 84163  1  0  0  0
 86164  1  0  0  0
M  ISO  4   1 100  68 101  83 101  86 100
M  END
> <chiral flag>
0

> <version>
0

> <s_m_source_file>
/data/baiqing/PycharmProjects/Reinvent-master-3.2/result/LINK_invent/BTK/process_docking_weight1_custom_product_contain_oxygen_bond_distance_aromatic_linkinvent_7_9_3/rearranged_h_0073.sdf

> <i_m_source_file_index>
29

> <r_mmod_Potential_Energy-OPLS-2005>
18.1016178131104

> <r_mmod_Stretch_Energy-OPLS-2005>
45.0383033752441

> <r_mmod_Bend_Energy-OPLS-2005>
131.963073730469

> <r_mmod_Torsional_Energy-OPLS-2005>
256.083374023438

> <r_mmod_Improper_Torsional_Energy-OPLS-2005>
2.45581865310669

> <r_mmod_Van_der_Waal_Energy-OPLS-2005>
164.091690063477

> <r_mmod_Electrostatic_Energy-OPLS-2005>
-378.304565429688

> <r_mmod_Solvation_Energy-OPLS-2005>
-216.745315551758

> <b_mmod_Minimization_Converged-OPLS-2005>
0

> <r_mmod_RMS_Derivative-OPLS-2005>
1.57722401618958

$$$$
29
                    3D
 Structure written by MMmdl.
163172  0  0  1  0            999 V2000
  -30.6363  -14.7457   20.3578 C   0  0  0  0  0  0
  -30.4471  -12.4242   19.4448 C   0  0  0  0  0  0
  -29.4917  -12.3379   18.2323 C   0  0  0  0  0  0
  -28.0123  -12.2619   18.6596 C   0  0  0  0  0  0
  -27.6323  -13.2026   19.8351 C   0  0  2  0  0  0
  -28.7056  -13.2004   20.9451 C   0  0  0  0  0  0
  -25.2538  -13.8120   20.5781 C   0  0  0  0  0  0
  -24.1797  -13.0402   20.9247 C   0  0  0  0  0  0
  -24.6348  -11.6873   20.8813 C   0  0  0  0  0  0
  -23.9020  -10.4265   21.0431 C   0  0  0  0  0  0
  -24.3590   -9.4185   21.9198 C   0  0  0  0  0  0
  -23.6285   -8.2211   22.0751 C   0  0  0  0  0  0
  -22.4270   -8.0250   21.3536 C   0  0  0  0  0  0
  -21.9906   -9.0217   20.4635 C   0  0  0  0  0  0
  -22.7212  -10.2107   20.3060 C   0  0  0  0  0  0
  -21.6856   -6.0720   22.5271 C   0  0  0  0  0  0
  -21.4008   -6.5624   23.8200 C   0  0  0  0  0  0
  -21.3660   -5.6787   24.9168 C   0  0  0  0  0  0
  -21.6049   -4.3054   24.7220 C   0  0  0  0  0  0
  -21.8822   -3.8143   23.4340 C   0  0  0  0  0  0
  -21.9197   -4.6951   22.3396 C   0  0  0  0  0  0
  -22.7823  -13.5207   21.1866 C   0  0  0  0  0  0
  -22.1662   -4.2141   21.0975 F   0  0  0  0  0  0
  -21.5638   -3.4535   25.7733 F   0  0  0  0  0  0
  -29.9899  -13.5277   20.3089 N   0  0  0  0  0  0
  -26.2929  -12.9266   20.3397 N   0  0  0  0  0  0
  -25.9280  -11.6447   20.5911 N   0  0  0  0  0  0
  -22.0447  -12.8202   22.0401 N   0  0  0  0  0  0
  -25.4250  -15.1843   20.4225 N   0  0  0  0  0  0
  -31.8680  -14.7833   20.3182 O   0  0  0  0  0  0
  -21.6632   -6.8851   21.4229 O   0  0  0  0  0  0
  -22.3520  -14.5510   20.6701 O   0  0  0  0  0  0
  -24.6254  -31.8604   23.2031 C   0  0  0  0  0  0
  -25.9104  -32.4786   23.8371 C   0  0  1  0  0  0
  -27.2333  -27.3230   20.1342 C   0  0  0  0  0  0
  -25.5927  -33.8587   24.2309 N   0  0  0  0  0  0
  -23.4205  -30.4816   21.5450 C   0  0  2  0  0  0
  -24.8711  -28.9383   20.1105 C   0  0  0  0  0  0
  -22.7482  -29.4618   22.4944 C   0  0  0  0  0  0
  -18.0290  -28.1394   22.8489 C   0  0  0  0  0  0
  -24.1476  -36.7269   23.2643 C   0  0  0  0  0  0
  -25.9599  -30.7941   21.3744 C   0  0  0  0  0  0
  -26.0361  -29.4209   20.7193 C   0  0  0  0  0  0
  -27.2185  -28.6251   20.7204 C   0  0  0  0  0  0
  -26.0482  -26.8952   19.4904 C   0  0  0  0  0  0
  -24.8795  -27.6817   19.4856 C   0  0  0  0  0  0
  -23.6369  -29.8158   20.1600 C   0  0  0  0  0  0
  -25.4106  -36.3087   24.0340 C   0  0  1  0  0  0
  -20.5891  -28.3691   23.1281 C   0  0  2  0  0  0
  -20.6781  -26.9414   22.5409 C   0  0  0  0  0  0
  -19.5751  -26.6387   21.5219 C   0  0  0  0  0  0
  -18.1930  -26.7941   22.1621 C   0  0  0  0  0  0
  -19.1542  -28.8862   23.2882 C   0  0  0  0  0  0
  -18.9463  -30.1466   23.8893 C   0  0  0  0  0  0
  -17.6461  -30.6590   24.0570 C   0  0  0  0  0  0
  -25.9047  -34.9453   23.5124 C   0  0  0  0  0  0
  -16.5353  -29.9086   23.6341 C   0  0  0  0  0  0
  -16.7279  -28.6509   23.0355 C   0  0  0  0  0  0
  -26.4496  -31.6578   25.0727 C   0  0  0  0  0  0
  -25.3726  -31.3652   26.1437 C   0  0  0  0  0  0
  -27.0382  -30.3031   24.6152 C   0  0  0  0  0  0
  -27.6054  -32.4315   25.7518 C   0  0  0  0  0  0
  -27.5575  -37.1796   24.8478 C   0  0  0  0  0  0
  -21.4196  -29.3036   22.3677 N   0  0  0  0  0  0
  -26.4286  -37.3784   23.9421 N   0  0  0  0  0  0
  -24.6872  -31.0621   22.0982 N   0  0  0  0  0  0
  -23.4205  -28.8169   23.3035 O   0  0  0  0  0  0
  -28.3582  -26.4869   20.2194 O   0  0  0  0  0  0
  -26.5610  -34.8919   22.4689 O   0  0  0  0  0  0
  -23.5420  -32.1406   23.7356 O   0  0  0  0  0  0
  -28.8747  -19.1720   21.5505 C   0  0  0  0  0  0
  -29.0499  -17.7647   21.3620 C   0  0  0  0  0  0
  -30.8381  -18.2201   19.8195 C   0  0  0  0  0  0
  -29.6267  -20.1432   20.8273 C   0  0  0  0  0  0
  -30.0098  -17.2440   20.4522 C   0  0  0  0  0  0
  -30.6473  -19.6239   19.9854 C   0  0  0  0  0  0
  -29.3102  -22.5612   20.0373 C   0  0  0  0  0  0
  -29.4793  -15.8878   18.6366 C   0  0  0  0  0  0
  -29.0963  -23.7246   22.1083 C   0  0  0  0  0  0
  -29.1620  -22.1881   22.3014 C   0  0  0  0  0  0
  -29.2982  -24.0270   20.6078 C   0  0  1  0  0  0
  -28.2221  -16.7015   18.3127 C   0  0  0  0  0  0
  -30.6931  -24.6322   20.3429 C   0  0  0  0  0  0
  -28.2006  -25.0274   20.0104 C   0  0  0  0  0  0
  -29.3970  -21.5886   20.9921 N   0  0  0  0  0  0
  -29.9274  -15.8681   19.9232 N   0  0  0  0  0  0
  -29.2514  -22.3465   18.8235 O   0  0  0  0  0  0
  -30.1181  -15.4364   17.6825 O   0  0  0  0  0  0
  -31.4641  -20.4700   19.3133 F   0  0  0  0  0  0
  -31.4709  -12.5750   19.0978 H   0  0  0  0  0  0
  -30.4485  -11.4876   20.0031 H   0  0  0  0  0  0
  -29.7385  -11.4506   17.6483 H   0  0  0  0  0  0
  -29.6376  -13.1578   17.5414 H   0  0  0  0  0  0
  -27.8301  -11.2277   18.9508 H   0  0  0  0  0  0
  -27.3626  -12.4439   17.8023 H   0  0  0  0  0  0
  -27.5845  -14.1986   19.4106 H   0  0  0  0  0  0
  -28.7592  -12.2272   21.4355 H   0  0  0  0  0  0
  -28.4635  -13.9309   21.7186 H   0  0  0  0  0  0
  -25.2714   -9.5684   22.4797 H   0  0  0  0  0  0
  -24.0006   -7.4599   22.7465 H   0  0  0  0  0  0
  -21.0847   -8.8711   19.8931 H   0  0  0  0  0  0
  -22.3649  -10.9648   19.6183 H   0  0  0  0  0  0
  -21.1982   -7.6129   23.9700 H   0  0  0  0  0  0
  -21.1489   -6.0514   25.9070 H   0  0  0  0  0  0
  -22.0607   -2.7608   23.2838 H   0  0  0  0  0  0
  -22.4074  -11.9884   22.4817 H   0  0  0  0  0  0
  -21.1045  -13.1201   22.2555 H   0  0  0  0  0  0
  -24.6626  -15.8400   20.5549 H   0  0  0  0  0  0
  -26.2903  -15.6343   20.1631 H   0  0  0  0  0  0
  -26.7176  -32.5472   23.1129 H   0  0  0  0  0  0
  -25.0111  -33.9737   25.0483 H   0  0  0  0  0  0
  -22.7141  -31.3016   21.4005 H   0  0  0  0  0  0
  -23.3765  -35.9573   23.3304 H   0  0  0  0  0  0
  -24.3564  -36.8892   22.2060 H   0  0  0  0  0  0
  -23.7187  -37.6452   23.6667 H   0  0  0  0  0  0
  -26.0883  -31.5565   20.6042 H   0  0  0  0  0  0
  -26.8412  -30.8472   22.0016 H   0  0  0  0  0  0
  -28.1109  -28.9884   21.2113 H   0  0  0  0  0  0
  -25.9977  -25.9356   18.9978 H   0  0  0  0  0  0
  -23.9886  -27.3075   18.9995 H   0  0  0  0  0  0
  -23.7558  -30.5922   19.4033 H   0  0  0  0  0  0
  -22.7588  -29.2424   19.8576 H   0  0  0  0  0  0
  -25.1283  -36.1949   25.0835 H   0  0  0  0  0  0
  -20.9981  -28.3267   24.1406 H   0  0  0  0  0  0
  -20.5704  -26.2298   23.3606 H   0  0  0  0  0  0
  -21.6648  -26.7458   22.1185 H   0  0  0  0  0  0
  -19.6908  -25.6295   21.1250 H   0  0  0  0  0  0
  -19.6688  -27.3201   20.6752 H   0  0  0  0  0  0
  -17.4203  -26.6705   21.4020 H   0  0  0  0  0  0
  -18.0312  -26.0082   22.9012 H   0  0  0  0  0  0
  -19.7934  -30.7298   24.2249 H   0  0  0  0  0  0
  -17.5008  -31.6269   24.5175 H   0  0  0  0  0  0
  -15.5352  -30.2981   23.7673 H   0  0  0  0  0  0
  -15.8679  -28.0830   22.7063 H   0  0  0  0  0  0
  -24.5934  -30.6989   25.7718 H   0  0  0  0  0  0
  -24.8875  -32.2783   26.4897 H   0  0  0  0  0  0
  -25.8045  -30.8790   27.0193 H   0  0  0  0  0  0
  -26.2967  -29.6752   24.1198 H   0  0  0  0  0  0
  -27.4153  -29.7303   25.4633 H   0  0  0  0  0  0
  -27.8791  -30.4373   23.9344 H   0  0  0  0  0  0
  -27.2677  -33.3625   26.2084 H   0  0  0  0  0  0
  -28.3878  -32.6851   25.0355 H   0  0  0  0  0  0
  -28.0708  -31.8441   26.5443 H   0  0  0  0  0  0
  -28.2583  -38.0107   24.7558 H   0  0  0  0  0  0
  -28.1083  -36.2635   24.6278 H   0  0  0  0  0  0
  -27.2289  -37.1418   25.8881 H   0  0  0  0  0  0
  -20.9387  -29.8730   21.6852 H   0  0  0  0  0  0
  -26.0168  -38.2855   24.1438 H   0  0  0  0  0  0
  -28.0969  -19.5014   22.2242 H   0  0  0  0  0  0
  -28.3714  -17.0880   21.8643 H   0  0  0  0  0  0
  -31.5865  -17.8980   19.1099 H   0  0  0  0  0  0
  -29.8514  -24.2171   22.7236 H   0  0  0  0  0  0
  -28.1326  -24.0978   22.4572 H   0  0  0  0  0  0
  -28.2210  -21.8194   22.7128 H   0  0  0  0  0  0
  -29.9595  -21.9070   22.9907 H   0  0  0  0  0  0
  -27.5298  -16.7171   19.1527 H   0  0  0  0  0  0
  -27.7027  -16.2670   17.4589 H   0  0  0  0  0  0
  -28.4883  -17.7280   18.0615 H   0  0  0  0  0  0
  -31.4953  -23.9605   20.6532 H   0  0  0  0  0  0
  -30.8299  -25.5700   20.8831 H   0  0  0  0  0  0
  -30.8362  -24.8423   19.2817 H   0  0  0  0  0  0
  -27.2360  -24.7083   20.4095 H   0  0  0  0  0  0
  -28.1404  -24.8708   18.9328 H   0  0  0  0  0  0
  1 25  1  0  0  0
  1 30  2  0  0  0
  1 86  1  0  0  0
  2  3  1  0  0  0
  2 25  1  0  0  0
  2 90  1  0  0  0
  2 91  1  0  0  0
  3  4  1  0  0  0
  3 92  1  0  0  0
  3 93  1  0  0  0
  4  5  1  0  0  0
  4 94  1  0  0  0
  4 95  1  0  0  0
  5  6  1  0  0  0
  5 26  1  0  0  0
  5 96  1  0  0  0
  6 25  1  0  0  0
  6 97  1  0  0  0
  6 98  1  0  0  0
  7  8  2  0  0  0
  7 26  1  0  0  0
  7 29  1  0  0  0
  8  9  1  0  0  0
  8 22  1  0  0  0
  9 10  1  0  0  0
  9 27  2  0  0  0
 10 11  2  0  0  0
 10 15  1  0  0  0
 11 12  1  0  0  0
 11 99  1  0  0  0
 12 13  2  0  0  0
 12100  1  0  0  0
 13 14  1  0  0  0
 13 31  1  0  0  0
 14 15  2  0  0  0
 14101  1  0  0  0
 15102  1  0  0  0
 16 17  2  0  0  0
 16 21  1  0  0  0
 16 31  1  0  0  0
 17 18  1  0  0  0
 17103  1  0  0  0
 18 19  2  0  0  0
 18104  1  0  0  0
 19 20  1  0  0  0
 19 24  1  0  0  0
 20 21  2  0  0  0
 20105  1  0  0  0
 21 23  1  0  0  0
 22 28  1  0  0  0
 22 32  2  0  0  0
 26 27  1  0  0  0
 28106  1  0  0  0
 28107  1  0  0  0
 29108  1  0  0  0
 29109  1  0  0  0
 33 34  1  0  0  0
 33 66  1  0  0  0
 33 70  2  0  0  0
 34 36  1  0  0  0
 34 59  1  0  0  0
 34110  1  0  0  0
 35 44  2  0  0  0
 35 45  1  0  0  0
 35 68  1  0  0  0
 36 56  1  0  0  0
 36111  1  0  0  0
 37 39  1  0  0  0
 37 47  1  0  0  0
 37 66  1  0  0  0
 37112  1  0  0  0
 38 43  2  0  0  0
 38 46  1  0  0  0
 38 47  1  0  0  0
 39 64  1  0  0  0
 39 67  2  0  0  0
 40 52  1  0  0  0
 40 53  2  0  0  0
 40 58  1  0  0  0
 41113  1  0  0  0
 41114  1  0  0  0
 41115  1  0  0  0
 41 48  1  0  0  0
 42 43  1  0  0  0
 42 66  1  0  0  0
 42116  1  0  0  0
 42117  1  0  0  0
 43 44  1  0  0  0
 44118  1  0  0  0
 45 46  2  0  0  0
 45119  1  0  0  0
 46120  1  0  0  0
 47121  1  0  0  0
 47122  1  0  0  0
 48 56  1  0  0  0
 48 65  1  0  0  0
 48123  1  0  0  0
 49 50  1  0  0  0
 49 53  1  0  0  0
 49 64  1  0  0  0
 49124  1  0  0  0
 50 51  1  0  0  0
 50125  1  0  0  0
 50126  1  0  0  0
 51 52  1  0  0  0
 51127  1  0  0  0
 51128  1  0  0  0
 52129  1  0  0  0
 52130  1  0  0  0
 53 54  1  0  0  0
 54 55  2  0  0  0
 54131  1  0  0  0
 55 57  1  0  0  0
 55132  1  0  0  0
 56 69  2  0  0  0
 57 58  2  0  0  0
 57133  1  0  0  0
 58134  1  0  0  0
 59 60  1  0  0  0
 59 61  1  0  0  0
 59 62  1  0  0  0
 60135  1  0  0  0
 60136  1  0  0  0
 60137  1  0  0  0
 61138  1  0  0  0
 61139  1  0  0  0
 61140  1  0  0  0
 62141  1  0  0  0
 62142  1  0  0  0
 62143  1  0  0  0
 63 65  1  0  0  0
 63144  1  0  0  0
 63145  1  0  0  0
 63146  1  0  0  0
 64147  1  0  0  0
 65148  1  0  0  0
 68 84  1  0  0  0
 71 72  2  0  0  0
 71 74  1  0  0  0
 71149  1  0  0  0
 72 75  1  0  0  0
 72150  1  0  0  0
 73 75  2  0  0  0
 73 76  1  0  0  0
 73151  1  0  0  0
 74 76  2  0  0  0
 74 85  1  0  0  0
 75 86  1  0  0  0
 76 89  1  0  0  0
 77 81  1  0  0  0
 77 85  1  0  0  0
 77 87  2  0  0  0
 78 82  1  0  0  0
 78 86  1  0  0  0
 78 88  2  0  0  0
 79 80  1  0  0  0
 79 81  1  0  0  0
 79152  1  0  0  0
 79153  1  0  0  0
 80 85  1  0  0  0
 80154  1  0  0  0
 80155  1  0  0  0
 81 83  1  0  0  0
 81 84  1  0  0  0
 82156  1  0  0  0
 82157  1  0  0  0
 82158  1  0  0  0
 83159  1  0  0  0
 83160  1  0  0  0
 83161  1  0  0  0
 84162  1  0  0  0
 84163  1  0  0  0
M  ISO  4   1 100  68 101  84 101  86 100
M  END
> <chiral flag>
0

> <version>
0

> <s_m_source_file>
/data/baiqing/PycharmProjects/Reinvent-master-3.2/result/LINK_invent/BTK/process_docking_weight1_custom_product_contain_oxygen_bond_distance_aromatic_linkinvent_7_9_3/rearranged_h_0073.sdf

> <i_m_source_file_index>
30

> <r_mmod_Potential_Energy-OPLS-2005>
420.035034179688

> <r_mmod_Stretch_Energy-OPLS-2005>
90.0491943359375

> <r_mmod_Bend_Energy-OPLS-2005>
160.118377685547

> <r_mmod_Torsional_Energy-OPLS-2005>
433.745086669922

> <r_mmod_Improper_Torsional_Energy-OPLS-2005>
23.7236251831055

> <r_mmod_Van_der_Waal_Energy-OPLS-2005>
150.881622314453

> <r_mmod_Electrostatic_Energy-OPLS-2005>
-312.92578125

> <r_mmod_Solvation_Energy-OPLS-2005>
-214.68098449707

> <b_mmod_Minimization_Converged-OPLS-2005>
0

> <r_mmod_RMS_Derivative-OPLS-2005>
1.80050206184387

$$$$
30
                    3D
 Structure written by MMmdl.
170179  0  0  1  0            999 V2000
  -30.7134  -14.6304   20.4971 C   0  0  0  0  0  0
  -30.4072  -12.3887   19.4695 C   0  0  0  0  0  0
  -29.4972  -12.5035   18.2305 C   0  0  0  0  0  0
  -28.0226  -12.3469   18.6417 C   0  0  0  0  0  0
  -27.6447  -13.2360   19.8573 C   0  0  2  0  0  0
  -28.6892  -13.1526   20.9945 C   0  0  0  0  0  0
  -25.2506  -13.8220   20.5701 C   0  0  0  0  0  0
  -24.1799  -13.0454   20.9208 C   0  0  0  0  0  0
  -24.6398  -11.6933   20.8759 C   0  0  0  0  0  0
  -23.9083  -10.4298   21.0414 C   0  0  0  0  0  0
  -24.3632   -9.4209   21.9187 C   0  0  0  0  0  0
  -23.6307   -8.2244   22.0751 C   0  0  0  0  0  0
  -22.4288   -8.0280   21.3544 C   0  0  0  0  0  0
  -21.9926   -9.0257   20.4648 C   0  0  0  0  0  0
  -22.7258  -10.2136   20.3060 C   0  0  0  0  0  0
  -21.6852   -6.0742   22.5280 C   0  0  0  0  0  0
  -21.4010   -6.5645   23.8211 C   0  0  0  0  0  0
  -21.3653   -5.6794   24.9175 C   0  0  0  0  0  0
  -21.6039   -4.3058   24.7225 C   0  0  0  0  0  0
  -21.8821   -3.8153   23.4348 C   0  0  0  0  0  0
  -21.9197   -4.6968   22.3407 C   0  0  0  0  0  0
  -22.7813  -13.5224   21.1871 C   0  0  0  0  0  0
  -22.1663   -4.2155   21.0980 F   0  0  0  0  0  0
  -21.5627   -3.4537   25.7737 F   0  0  0  0  0  0
  -30.0052  -13.4550   20.4167 N   0  0  0  0  0  0
  -26.2946  -12.9444   20.3323 N   0  0  0  0  0  0
  -25.9339  -11.6576   20.5791 N   0  0  0  0  0  0
  -22.0468  -12.8204   22.0424 N   0  0  0  0  0  0
  -25.4215  -15.1938   20.4094 N   0  0  0  0  0  0
  -31.8719  -14.6530   20.0804 O   0  0  0  0  0  0
  -21.6644   -6.8885   21.4244 O   0  0  0  0  0  0
  -22.3493  -14.5531   20.6723 O   0  0  0  0  0  0
  -24.6257  -31.8602   23.2066 C   0  0  0  0  0  0
  -25.9122  -32.4771   23.8374 C   0  0  1  0  0  0
  -27.2083  -27.3230   20.1110 C   0  0  0  0  0  0
  -25.5956  -33.8575   24.2311 N   0  0  0  0  0  0
  -23.4177  -30.4897   21.5473 C   0  0  2  0  0  0
  -24.8648  -28.9571   20.1028 C   0  0  0  0  0  0
  -22.7464  -29.4644   22.4922 C   0  0  0  0  0  0
  -18.0276  -28.1397   22.8472 C   0  0  0  0  0  0
  -24.1478  -36.7267   23.2636 C   0  0  0  0  0  0
  -25.9613  -30.7912   21.3822 C   0  0  0  0  0  0
  -26.0347  -29.4227   20.7188 C   0  0  0  0  0  0
  -27.2115  -28.6144   20.7214 C   0  0  0  0  0  0
  -26.0311  -26.9387   19.4288 C   0  0  0  0  0  0
  -24.8653  -27.7202   19.4465 C   0  0  0  0  0  0
  -23.6317  -29.8339   20.1596 C   0  0  0  0  0  0
  -25.4097  -36.3062   24.0339 C   0  0  1  0  0  0
  -20.5880  -28.3697   23.1276 C   0  0  2  0  0  0
  -20.6767  -26.9416   22.5415 C   0  0  0  0  0  0
  -19.5764  -26.6386   21.5207 C   0  0  0  0  0  0
  -18.1931  -26.7945   22.1589 C   0  0  0  0  0  0
  -19.1527  -28.8861   23.2878 C   0  0  0  0  0  0
  -18.9455  -30.1457   23.8906 C   0  0  0  0  0  0
  -17.6459  -30.6594   24.0566 C   0  0  0  0  0  0
  -25.9049  -34.9444   23.5110 C   0  0  0  0  0  0
  -16.5344  -29.9091   23.6345 C   0  0  0  0  0  0
  -16.7260  -28.6511   23.0356 C   0  0  0  0  0  0
  -26.4512  -31.6570   25.0733 C   0  0  0  0  0  0
  -25.3753  -31.3718   26.1470 C   0  0  0  0  0  0
  -27.0348  -30.2971   24.6212 C   0  0  0  0  0  0
  -27.6081  -32.4304   25.7488 C   0  0  0  0  0  0
  -27.5587  -37.1763   24.8447 C   0  0  0  0  0  0
  -21.4179  -29.3050   22.3660 N   0  0  0  0  0  0
  -26.4261  -37.3775   23.9447 N   0  0  0  0  0  0
  -24.6870  -31.0621   22.1022 N   0  0  0  0  0  0
  -23.4195  -28.8176   23.2990 O   0  0  0  0  0  0
  -28.2663  -26.4034   20.1943 O   0  0  0  0  0  0
  -26.5590  -34.8914   22.4658 O   0  0  0  0  0  0
  -23.5421  -32.1407   23.7400 O   0  0  0  0  0  0
  -31.8497  -19.7694   20.9334 C   0  0  0  0  0  0
  -32.0296  -17.3528   21.0608 C   0  0  0  0  0  0
  -29.8403  -18.3894   20.8194 C   0  0  0  0  0  0
  -32.6462  -18.6186   21.0567 C   0  0  0  0  0  0
  -30.4385  -19.7088   20.8711 C   0  0  0  0  0  0
  -30.6316  -17.1752   20.8941 C   0  0  0  0  0  0
  -28.7297  -23.7804   20.6150 C   0  0  0  0  0  0
  -29.4299  -23.3372   21.7008 C   0  0  0  0  0  0
  -28.5412  -22.8094   19.5311 C   0  0  0  0  0  0
  -30.0036  -21.9625   21.8267 C   0  0  0  0  0  0
  -28.1395  -23.2197   18.3149 C   0  0  0  0  0  0
  -34.9299  -17.9281   20.4657 C   0  0  0  0  0  0
  -34.1154  -18.7331   21.1709 C   0  0  0  0  0  0
  -28.7856  -21.3095   19.7803 C   0  0  0  0  0  0
  -29.6367  -24.2302   22.9269 C   0  0  0  0  0  0
  -34.3596  -19.3884   23.6149 C   0  0  0  0  0  0
  -27.8311  -25.0751   20.6962 C   0  0  0  0  0  0
  -34.6773  -19.7487   22.1572 C   0  0  0  0  0  0
  -29.7336  -21.0088   20.8663 N   0  0  0  0  0  0
  -30.0739  -15.8036   20.8465 N   0  0  0  0  0  0
  -30.6855  -21.6655   22.8160 O   0  0  0  0  0  0
  -31.4535  -12.4542   19.1675 H   0  0  0  0  0  0
  -30.3006  -11.4082   19.9355 H   0  0  0  0  0  0
  -29.7637  -11.7449   17.4934 H   0  0  0  0  0  0
  -29.6468  -13.4705   17.7466 H   0  0  0  0  0  0
  -27.8622  -11.2962   18.8860 H   0  0  0  0  0  0
  -27.3677  -12.5640   17.7966 H   0  0  0  0  0  0
  -27.6481  -14.2635   19.4923 H   0  0  0  0  0  0
  -28.6931  -12.1587   21.4442 H   0  0  0  0  0  0
  -28.4392  -13.8491   21.7960 H   0  0  0  0  0  0
  -25.2783   -9.5677   22.4753 H   0  0  0  0  0  0
  -24.0019   -7.4631   22.7459 H   0  0  0  0  0  0
  -21.0856   -8.8779   19.8947 H   0  0  0  0  0  0
  -22.3727  -10.9673   19.6157 H   0  0  0  0  0  0
  -21.1994   -7.6150   23.9722 H   0  0  0  0  0  0
  -21.1464   -6.0519   25.9077 H   0  0  0  0  0  0
  -22.0608   -2.7613   23.2843 H   0  0  0  0  0  0
  -22.4094  -11.9858   22.4792 H   0  0  0  0  0  0
  -21.1078  -13.1198   22.2639 H   0  0  0  0  0  0
  -24.6561  -15.8516   20.5134 H   0  0  0  0  0  0
  -26.2705  -15.6272   20.0692 H   0  0  0  0  0  0
  -26.7186  -32.5447   23.1124 H   0  0  0  0  0  0
  -25.0157  -33.9722   25.0489 H   0  0  0  0  0  0
  -22.7113  -31.3109   21.4091 H   0  0  0  0  0  0
  -23.3769  -35.9567   23.3220 H   0  0  0  0  0  0
  -24.3593  -36.8952   22.2068 H   0  0  0  0  0  0
  -23.7195  -37.6431   23.6697 H   0  0  0  0  0  0
  -26.0974  -31.5589   20.6194 H   0  0  0  0  0  0
  -26.8407  -30.8318   22.0133 H   0  0  0  0  0  0
  -28.1009  -28.9559   21.2326 H   0  0  0  0  0  0
  -25.9853  -26.0114   18.8777 H   0  0  0  0  0  0
  -23.9771  -27.3671   18.9408 H   0  0  0  0  0  0
  -23.7478  -30.6148   19.4073 H   0  0  0  0  0  0
  -22.7520  -29.2643   19.8538 H   0  0  0  0  0  0
  -25.1268  -36.1887   25.0826 H   0  0  0  0  0  0
  -20.9972  -28.3276   24.1399 H   0  0  0  0  0  0
  -20.5630  -26.2315   23.3620 H   0  0  0  0  0  0
  -21.6643  -26.7436   22.1231 H   0  0  0  0  0  0
  -19.6920  -25.6294   21.1244 H   0  0  0  0  0  0
  -19.6720  -27.3193   20.6737 H   0  0  0  0  0  0
  -17.4210  -26.6705   21.3980 H   0  0  0  0  0  0
  -18.0308  -26.0083   22.8969 H   0  0  0  0  0  0
  -19.7931  -30.7258   24.2287 H   0  0  0  0  0  0
  -17.5016  -31.6277   24.5167 H   0  0  0  0  0  0
  -15.5348  -30.2997   23.7688 H   0  0  0  0  0  0
  -15.8649  -28.0835   22.7088 H   0  0  0  0  0  0
  -24.6018  -30.6929   25.7857 H   0  0  0  0  0  0
  -24.8835  -32.2869   26.4781 H   0  0  0  0  0  0
  -25.8119  -30.9047   27.0308 H   0  0  0  0  0  0
  -26.2921  -29.6710   24.1251 H   0  0  0  0  0  0
  -27.4025  -29.7246   25.4739 H   0  0  0  0  0  0
  -27.8809  -30.4203   23.9450 H   0  0  0  0  0  0
  -27.2706  -33.3627   26.2034 H   0  0  0  0  0  0
  -28.3916  -32.6824   25.0325 H   0  0  0  0  0  0
  -28.0726  -31.8443   26.5430 H   0  0  0  0  0  0
  -28.2531  -38.0130   24.7591 H   0  0  0  0  0  0
  -28.1155  -36.2676   24.6121 H   0  0  0  0  0  0
  -27.2331  -37.1213   25.8848 H   0  0  0  0  0  0
  -20.9353  -29.8757   21.6856 H   0  0  0  0  0  0
  -26.0124  -38.2817   24.1543 H   0  0  0  0  0  0
  -32.3360  -20.7340   20.9161 H   0  0  0  0  0  0
  -32.6858  -16.5099   21.2081 H   0  0  0  0  0  0
  -28.7648  -18.3127   20.7419 H   0  0  0  0  0  0
  -27.9645  -24.2621   18.0880 H   0  0  0  0  0  0
  -27.9903  -22.5159   17.5085 H   0  0  0  0  0  0
  -34.5412  -17.1922   19.7755 H   0  0  0  0  0  0
  -36.0046  -17.9900   20.5625 H   0  0  0  0  0  0
  -29.1479  -20.8447   18.8623 H   0  0  0  0  0  0
  -27.8323  -20.8349   20.0134 H   0  0  0  0  0  0
  -29.4614  -25.2862   22.7294 H   0  0  0  0  0  0
  -30.6669  -24.1693   23.2793 H   0  0  0  0  0  0
  -28.9840  -23.9155   23.7415 H   0  0  0  0  0  0
  -34.8163  -20.1034   24.2997 H   0  0  0  0  0  0
  -34.7426  -18.3987   23.8676 H   0  0  0  0  0  0
  -33.2853  -19.3906   23.8044 H   0  0  0  0  0  0
  -27.5130  -25.2202   21.7285 H   0  0  0  0  0  0
  -26.9086  -24.7488   20.2260 H   0  0  0  0  0  0
  -34.3066  -20.7477   21.9259 H   0  0  0  0  0  0
  -35.7607  -19.8039   22.0398 H   0  0  0  0  0  0
  -29.0864  -15.7142   21.0370 H   0  0  0  0  0  0
  1 25  1  0  0  0
  1 30  2  0  0  0
  1 90  1  0  0  0
  2  3  1  0  0  0
  2 25  1  0  0  0
  2 92  1  0  0  0
  2 93  1  0  0  0
  3  4  1  0  0  0
  3 94  1  0  0  0
  3 95  1  0  0  0
  4  5  1  0  0  0
  4 96  1  0  0  0
  4 97  1  0  0  0
  5  6  1  0  0  0
  5 26  1  0  0  0
  5 98  1  0  0  0
  6 25  1  0  0  0
  6 99  1  0  0  0
  6100  1  0  0  0
  7  8  2  0  0  0
  7 26  1  0  0  0
  7 29  1  0  0  0
  8  9  1  0  0  0
  8 22  1  0  0  0
  9 10  1  0  0  0
  9 27  2  0  0  0
 10 11  2  0  0  0
 10 15  1  0  0  0
 11 12  1  0  0  0
 11101  1  0  0  0
 12 13  2  0  0  0
 12102  1  0  0  0
 13 14  1  0  0  0
 13 31  1  0  0  0
 14 15  2  0  0  0
 14103  1  0  0  0
 15104  1  0  0  0
 16 17  2  0  0  0
 16 21  1  0  0  0
 16 31  1  0  0  0
 17 18  1  0  0  0
 17105  1  0  0  0
 18 19  2  0  0  0
 18106  1  0  0  0
 19 20  1  0  0  0
 19 24  1  0  0  0
 20 21  2  0  0  0
 20107  1  0  0  0
 21 23  1  0  0  0
 22 28  1  0  0  0
 22 32  2  0  0  0
 26 27  1  0  0  0
 28108  1  0  0  0
 28109  1  0  0  0
 29110  1  0  0  0
 29111  1  0  0  0
 33 34  1  0  0  0
 33 66  1  0  0  0
 33 70  2  0  0  0
 34 36  1  0  0  0
 34 59  1  0  0  0
 34112  1  0  0  0
 35 44  2  0  0  0
 35 45  1  0  0  0
 35 68  1  0  0  0
 36 56  1  0  0  0
 36113  1  0  0  0
 37 39  1  0  0  0
 37 47  1  0  0  0
 37 66  1  0  0  0
 37114  1  0  0  0
 38 43  2  0  0  0
 38 46  1  0  0  0
 38 47  1  0  0  0
 39 64  1  0  0  0
 39 67  2  0  0  0
 40 52  1  0  0  0
 40 53  2  0  0  0
 40 58  1  0  0  0
 41115  1  0  0  0
 41116  1  0  0  0
 41117  1  0  0  0
 41 48  1  0  0  0
 42 43  1  0  0  0
 42 66  1  0  0  0
 42118  1  0  0  0
 42119  1  0  0  0
 43 44  1  0  0  0
 44120  1  0  0  0
 45 46  2  0  0  0
 45121  1  0  0  0
 46122  1  0  0  0
 47123  1  0  0  0
 47124  1  0  0  0
 48 56  1  0  0  0
 48 65  1  0  0  0
 48125  1  0  0  0
 49 50  1  0  0  0
 49 53  1  0  0  0
 49 64  1  0  0  0
 49126  1  0  0  0
 50 51  1  0  0  0
 50127  1  0  0  0
 50128  1  0  0  0
 51 52  1  0  0  0
 51129  1  0  0  0
 51130  1  0  0  0
 52131  1  0  0  0
 52132  1  0  0  0
 53 54  1  0  0  0
 54 55  2  0  0  0
 54133  1  0  0  0
 55 57  1  0  0  0
 55134  1  0  0  0
 56 69  2  0  0  0
 57 58  2  0  0  0
 57135  1  0  0  0
 58136  1  0  0  0
 59 60  1  0  0  0
 59 61  1  0  0  0
 59 62  1  0  0  0
 60137  1  0  0  0
 60138  1  0  0  0
 60139  1  0  0  0
 61140  1  0  0  0
 61141  1  0  0  0
 61142  1  0  0  0
 62143  1  0  0  0
 62144  1  0  0  0
 62145  1  0  0  0
 63 65  1  0  0  0
 63146  1  0  0  0
 63147  1  0  0  0
 63148  1  0  0  0
 64149  1  0  0  0
 65150  1  0  0  0
 68 87  1  0  0  0
 71 74  2  0  0  0
 71 75  1  0  0  0
 71151  1  0  0  0
 72 74  1  0  0  0
 72 76  2  0  0  0
 72152  1  0  0  0
 73 75  2  0  0  0
 73 76  1  0  0  0
 73153  1  0  0  0
 74 83  1  0  0  0
 75 89  1  0  0  0
 76 90  1  0  0  0
 77 78  2  0  0  0
 77 79  1  0  0  0
 77 87  1  0  0  0
 78 80  1  0  0  0
 78 85  1  0  0  0
 79 81  2  0  0  0
 79 84  1  0  0  0
 80 89  1  0  0  0
 80 91  2  0  0  0
 81154  1  0  0  0
 81155  1  0  0  0
 82 83  2  0  0  0
 82156  1  0  0  0
 82157  1  0  0  0
 83 88  1  0  0  0
 84 89  1  0  0  0
 84158  1  0  0  0
 84159  1  0  0  0
 85160  1  0  0  0
 85161  1  0  0  0
 85162  1  0  0  0
 86 88  1  0  0  0
 86163  1  0  0  0
 86164  1  0  0  0
 86165  1  0  0  0
 87166  1  0  0  0
 87167  1  0  0  0
 88168  1  0  0  0
 88169  1  0  0  0
 90170  1  0  0  0
M  ISO  4   1 100  68 101  87 101  90 100
M  END
> <chiral flag>
0

> <version>
0

> <s_m_source_file>
/data/baiqing/PycharmProjects/Reinvent-master-3.2/result/LINK_invent/BTK/process_docking_weight1_custom_product_contain_oxygen_bond_distance_aromatic_linkinvent_7_9_3/rearranged_h_0073.sdf

> <i_m_source_file_index>
31

> <r_mmod_Potential_Energy-OPLS-2005>
266.421081542969

> <r_mmod_Stretch_Energy-OPLS-2005>
99.290283203125

> <r_mmod_Bend_Energy-OPLS-2005>
163.54573059082

> <r_mmod_Torsional_Energy-OPLS-2005>
292.807189941406

> <r_mmod_Improper_Torsional_Energy-OPLS-2005>
5.76598215103149

> <r_mmod_Van_der_Waal_Energy-OPLS-2005>
192.344131469727

> <r_mmod_Electrostatic_Energy-OPLS-2005>
-337.619049072266

> <r_mmod_Solvation_Energy-OPLS-2005>
-207.030975341797

> <b_mmod_Minimization_Converged-OPLS-2005>
0

> <r_mmod_RMS_Derivative-OPLS-2005>
1.63359355926514

$$$$
31
                    3D
 Structure written by MMmdl.
150159  0  0  1  0            999 V2000
  -30.5729  -14.7439   20.4846 C   0  0  0  0  0  0
  -30.4506  -12.4572   19.4680 C   0  0  0  0  0  0
  -29.5163  -12.5185   18.2365 C   0  0  0  0  0  0
  -28.0410  -12.3387   18.6486 C   0  0  0  0  0  0
  -27.6511  -13.2227   19.8625 C   0  0  2  0  0  0
  -28.6967  -13.1104   20.9949 C   0  0  0  0  0  0
  -25.2544  -13.8170   20.5678 C   0  0  0  0  0  0
  -24.1818  -13.0431   20.9182 C   0  0  0  0  0  0
  -24.6402  -11.6908   20.8743 C   0  0  0  0  0  0
  -23.9073  -10.4290   21.0407 C   0  0  0  0  0  0
  -24.3622   -9.4205   21.9183 C   0  0  0  0  0  0
  -23.6295   -8.2241   22.0754 C   0  0  0  0  0  0
  -22.4276   -8.0281   21.3546 C   0  0  0  0  0  0
  -21.9913   -9.0257   20.4649 C   0  0  0  0  0  0
  -22.7245  -10.2134   20.3059 C   0  0  0  0  0  0
  -21.6853   -6.0733   22.5279 C   0  0  0  0  0  0
  -21.4013   -6.5637   23.8211 C   0  0  0  0  0  0
  -21.3659   -5.6792   24.9175 C   0  0  0  0  0  0
  -21.6045   -4.3054   24.7227 C   0  0  0  0  0  0
  -21.8821   -3.8146   23.4349 C   0  0  0  0  0  0
  -21.9193   -4.6961   22.3404 C   0  0  0  0  0  0
  -22.7841  -13.5223   21.1847 C   0  0  0  0  0  0
  -22.1658   -4.2144   21.0983 F   0  0  0  0  0  0
  -21.5636   -3.4538   25.7742 F   0  0  0  0  0  0
  -30.0028  -13.4897   20.4304 N   0  0  0  0  0  0
  -26.2985  -12.9366   20.3328 N   0  0  0  0  0  0
  -25.9337  -11.6516   20.5772 N   0  0  0  0  0  0
  -22.0491  -12.8218   22.0413 N   0  0  0  0  0  0
  -25.4238  -15.1887   20.4079 N   0  0  0  0  0  0
  -31.7307  -14.9218   20.0917 O   0  0  0  0  0  0
  -21.6643   -6.8876   21.4241 O   0  0  0  0  0  0
  -22.3518  -14.5524   20.6694 O   0  0  0  0  0  0
  -24.6312  -31.8552   23.1981 C   0  0  0  0  0  0
  -25.9133  -32.4756   23.8332 C   0  0  1  0  0  0
  -27.2254  -27.2666   20.1305 C   0  0  0  0  0  0
  -25.5925  -33.8558   24.2251 N   0  0  0  0  0  0
  -23.4299  -30.4766   21.5411 C   0  0  2  0  0  0
  -24.8814  -28.9256   20.1086 C   0  0  0  0  0  0
  -22.7508  -29.4596   22.4906 C   0  0  0  0  0  0
  -18.0296  -28.1381   22.8488 C   0  0  0  0  0  0
  -24.1489  -36.7288   23.2640 C   0  0  0  0  0  0
  -25.9760  -30.7680   21.3805 C   0  0  0  0  0  0
  -26.0526  -29.3912   20.7222 C   0  0  0  0  0  0
  -27.2300  -28.5729   20.7259 C   0  0  0  0  0  0
  -26.0365  -26.8730   19.4798 C   0  0  0  0  0  0
  -24.8778  -27.6733   19.4756 C   0  0  0  0  0  0
  -23.6499  -29.8102   20.1576 C   0  0  0  0  0  0
  -25.4116  -36.3072   24.0324 C   0  0  1  0  0  0
  -20.5899  -28.3698   23.1263 C   0  0  2  0  0  0
  -20.6780  -26.9414   22.5406 C   0  0  0  0  0  0
  -19.5753  -26.6379   21.5212 C   0  0  0  0  0  0
  -18.1937  -26.7921   22.1632 C   0  0  0  0  0  0
  -19.1550  -28.8857   23.2869 C   0  0  0  0  0  0
  -18.9470  -30.1459   23.8886 C   0  0  0  0  0  0
  -17.6468  -30.6585   24.0562 C   0  0  0  0  0  0
  -25.9055  -34.9441   23.5092 C   0  0  0  0  0  0
  -16.5359  -29.9082   23.6329 C   0  0  0  0  0  0
  -16.7282  -28.6498   23.0354 C   0  0  0  0  0  0
  -26.4499  -31.6580   25.0723 C   0  0  0  0  0  0
  -25.3722  -31.3746   26.1445 C   0  0  0  0  0  0
  -27.0342  -30.2990   24.6221 C   0  0  0  0  0  0
  -27.6045  -32.4328   25.7501 C   0  0  0  0  0  0
  -27.5579  -37.1799   24.8466 C   0  0  0  0  0  0
  -21.4213  -29.3045   22.3650 N   0  0  0  0  0  0
  -26.4293  -37.3768   23.9407 N   0  0  0  0  0  0
  -24.6978  -31.0512   22.0961 N   0  0  0  0  0  0
  -23.4203  -28.8140   23.3013 O   0  0  0  0  0  0
  -28.2755  -26.3192   20.1831 O   0  0  0  0  0  0
  -26.5635  -34.8917   22.4666 O   0  0  0  0  0  0
  -23.5459  -32.1376   23.7270 O   0  0  0  0  0  0
  -30.3145  -19.5787   20.0086 C   0  0  0  0  0  0
  -30.5504  -18.1502   20.0558 C   0  0  0  0  0  0
  -28.3987  -19.3223   21.3474 C   0  0  0  0  0  0
  -29.2225  -20.2587   20.6507 C   0  0  0  0  0  0
  -29.6892  -17.2567   20.7605 C   0  0  0  0  0  0
  -28.6057  -17.9086   21.4006 C   0  0  0  0  0  0
  -28.4365  -23.7433   20.6153 C   0  0  0  0  0  0
  -27.9263  -22.5486   21.2796 C   0  0  0  0  0  0
  -27.9439  -25.0446   20.7333 C   0  0  0  0  0  0
  -29.5123  -22.8520   19.9215 C   0  0  0  0  0  0
  -28.8910  -21.7178   20.6722 N   0  0  0  0  0  0
  -29.7381  -15.7750   20.8724 N   0  0  0  0  0  0
  -26.9982  -22.4039   22.0491 O   0  0  0  0  0  0
  -27.7206  -17.1472   22.0893 F   0  0  0  0  0  0
  -31.4870  -12.6091   19.1613 H   0  0  0  0  0  0
  -30.4182  -11.4692   19.9296 H   0  0  0  0  0  0
  -29.7977  -11.7532   17.5117 H   0  0  0  0  0  0
  -29.6392  -13.4774   17.7308 H   0  0  0  0  0  0
  -27.8952  -11.2872   18.8979 H   0  0  0  0  0  0
  -27.3831  -12.5438   17.8033 H   0  0  0  0  0  0
  -27.6575  -14.2525   19.5042 H   0  0  0  0  0  0
  -28.7333  -12.0916   21.3832 H   0  0  0  0  0  0
  -28.4234  -13.7411   21.8422 H   0  0  0  0  0  0
  -25.2768   -9.5677   22.4757 H   0  0  0  0  0  0
  -24.0004   -7.4632   22.7473 H   0  0  0  0  0  0
  -21.0844   -8.8778   19.8955 H   0  0  0  0  0  0
  -22.3704  -10.9674   19.6171 H   0  0  0  0  0  0
  -21.2001   -7.6143   23.9713 H   0  0  0  0  0  0
  -21.1480   -6.0522   25.9078 H   0  0  0  0  0  0
  -22.0599   -2.7606   23.2853 H   0  0  0  0  0  0
  -22.4114  -11.9884   22.4802 H   0  0  0  0  0  0
  -21.1115  -13.1246   22.2635 H   0  0  0  0  0  0
  -24.6615  -15.8447   20.5357 H   0  0  0  0  0  0
  -26.2880  -15.6369   20.1328 H   0  0  0  0  0  0
  -26.7203  -32.5410   23.1078 H   0  0  0  0  0  0
  -25.0051  -33.9694   25.0382 H   0  0  0  0  0  0
  -22.7265  -31.2988   21.3937 H   0  0  0  0  0  0
  -23.3748  -35.9625   23.3305 H   0  0  0  0  0  0
  -24.3576  -36.8910   22.2054 H   0  0  0  0  0  0
  -23.7250  -37.6493   23.6663 H   0  0  0  0  0  0
  -26.1156  -31.5286   20.6111 H   0  0  0  0  0  0
  -26.8523  -30.8172   22.0149 H   0  0  0  0  0  0
  -28.1233  -28.9176   21.2275 H   0  0  0  0  0  0
  -25.9923  -25.9065   18.9975 H   0  0  0  0  0  0
  -23.9827  -27.3111   18.9883 H   0  0  0  0  0  0
  -23.7723  -30.5864   19.4013 H   0  0  0  0  0  0
  -22.7695  -29.2415   19.8526 H   0  0  0  0  0  0
  -25.1300  -36.1918   25.0817 H   0  0  0  0  0  0
  -20.9995  -28.3277   24.1382 H   0  0  0  0  0  0
  -20.5676  -26.2312   23.3615 H   0  0  0  0  0  0
  -21.6647  -26.7430   22.1201 H   0  0  0  0  0  0
  -19.6914  -25.6288   21.1247 H   0  0  0  0  0  0
  -19.6683  -27.3186   20.6740 H   0  0  0  0  0  0
  -17.4201  -26.6662   21.4041 H   0  0  0  0  0  0
  -18.0349  -26.0063   22.9032 H   0  0  0  0  0  0
  -19.7947  -30.7278   24.2245 H   0  0  0  0  0  0
  -17.5024  -31.6263   24.5169 H   0  0  0  0  0  0
  -15.5359  -30.2983   23.7654 H   0  0  0  0  0  0
  -15.8683  -28.0814   22.7072 H   0  0  0  0  0  0
  -24.5856  -30.7150   25.7767 H   0  0  0  0  0  0
  -24.8970  -32.2933   26.4897 H   0  0  0  0  0  0
  -25.8023  -30.8883   27.0209 H   0  0  0  0  0  0
  -26.2930  -29.6739   24.1226 H   0  0  0  0  0  0
  -27.3995  -29.7251   25.4750 H   0  0  0  0  0  0
  -27.8825  -30.4253   23.9487 H   0  0  0  0  0  0
  -27.2630  -33.3619   26.2078 H   0  0  0  0  0  0
  -28.3852  -32.6907   25.0332 H   0  0  0  0  0  0
  -28.0715  -31.8461   26.5420 H   0  0  0  0  0  0
  -28.2598  -38.0093   24.7499 H   0  0  0  0  0  0
  -28.1070  -36.2622   24.6306 H   0  0  0  0  0  0
  -27.2294  -37.1467   25.8869 H   0  0  0  0  0  0
  -20.9401  -29.8775   21.6860 H   0  0  0  0  0  0
  -26.0171  -38.2845   24.1396 H   0  0  0  0  0  0
  -31.0171  -20.1776   19.4465 H   0  0  0  0  0  0
  -31.4023  -17.7474   19.5268 H   0  0  0  0  0  0
  -27.5371  -19.6972   21.8789 H   0  0  0  0  0  0
  -27.1021  -25.1664   21.4035 H   0  0  0  0  0  0
  -30.5540  -23.0043   20.2088 H   0  0  0  0  0  0
  -29.4314  -22.7135   18.8421 H   0  0  0  0  0  0
  -28.8870  -15.4125   21.2766 H   0  0  0  0  0  0
  1 25  1  0  0  0
  1 30  2  0  0  0
  1 82  1  0  0  0
  2  3  1  0  0  0
  2 25  1  0  0  0
  2 85  1  0  0  0
  2 86  1  0  0  0
  3  4  1  0  0  0
  3 87  1  0  0  0
  3 88  1  0  0  0
  4  5  1  0  0  0
  4 89  1  0  0  0
  4 90  1  0  0  0
  5  6  1  0  0  0
  5 26  1  0  0  0
  5 91  1  0  0  0
  6 25  1  0  0  0
  6 92  1  0  0  0
  6 93  1  0  0  0
  7  8  2  0  0  0
  7 26  1  0  0  0
  7 29  1  0  0  0
  8  9  1  0  0  0
  8 22  1  0  0  0
  9 10  1  0  0  0
  9 27  2  0  0  0
 10 11  2  0  0  0
 10 15  1  0  0  0
 11 12  1  0  0  0
 11 94  1  0  0  0
 12 13  2  0  0  0
 12 95  1  0  0  0
 13 14  1  0  0  0
 13 31  1  0  0  0
 14 15  2  0  0  0
 14 96  1  0  0  0
 15 97  1  0  0  0
 16 17  2  0  0  0
 16 21  1  0  0  0
 16 31  1  0  0  0
 17 18  1  0  0  0
 17 98  1  0  0  0
 18 19  2  0  0  0
 18 99  1  0  0  0
 19 20  1  0  0  0
 19 24  1  0  0  0
 20 21  2  0  0  0
 20100  1  0  0  0
 21 23  1  0  0  0
 22 28  1  0  0  0
 22 32  2  0  0  0
 26 27  1  0  0  0
 28101  1  0  0  0
 28102  1  0  0  0
 29103  1  0  0  0
 29104  1  0  0  0
 33 34  1  0  0  0
 33 66  1  0  0  0
 33 70  2  0  0  0
 34 36  1  0  0  0
 34 59  1  0  0  0
 34105  1  0  0  0
 35 44  2  0  0  0
 35 45  1  0  0  0
 35 68  1  0  0  0
 36 56  1  0  0  0
 36106  1  0  0  0
 37 39  1  0  0  0
 37 47  1  0  0  0
 37 66  1  0  0  0
 37107  1  0  0  0
 38 43  2  0  0  0
 38 46  1  0  0  0
 38 47  1  0  0  0
 39 64  1  0  0  0
 39 67  2  0  0  0
 40 52  1  0  0  0
 40 53  2  0  0  0
 40 58  1  0  0  0
 41108  1  0  0  0
 41109  1  0  0  0
 41110  1  0  0  0
 41 48  1  0  0  0
 42 43  1  0  0  0
 42 66  1  0  0  0
 42111  1  0  0  0
 42112  1  0  0  0
 43 44  1  0  0  0
 44113  1  0  0  0
 45 46  2  0  0  0
 45114  1  0  0  0
 46115  1  0  0  0
 47116  1  0  0  0
 47117  1  0  0  0
 48 56  1  0  0  0
 48 65  1  0  0  0
 48118  1  0  0  0
 49 50  1  0  0  0
 49 53  1  0  0  0
 49 64  1  0  0  0
 49119  1  0  0  0
 50 51  1  0  0  0
 50120  1  0  0  0
 50121  1  0  0  0
 51 52  1  0  0  0
 51122  1  0  0  0
 51123  1  0  0  0
 52124  1  0  0  0
 52125  1  0  0  0
 53 54  1  0  0  0
 54 55  2  0  0  0
 54126  1  0  0  0
 55 57  1  0  0  0
 55127  1  0  0  0
 56 69  2  0  0  0
 57 58  2  0  0  0
 57128  1  0  0  0
 58129  1  0  0  0
 59 60  1  0  0  0
 59 61  1  0  0  0
 59 62  1  0  0  0
 60130  1  0  0  0
 60131  1  0  0  0
 60132  1  0  0  0
 61133  1  0  0  0
 61134  1  0  0  0
 61135  1  0  0  0
 62136  1  0  0  0
 62137  1  0  0  0
 62138  1  0  0  0
 63 65  1  0  0  0
 63139  1  0  0  0
 63140  1  0  0  0
 63141  1  0  0  0
 64142  1  0  0  0
 65143  1  0  0  0
 68 79  1  0  0  0
 71 72  2  0  0  0
 71 74  1  0  0  0
 71144  1  0  0  0
 72 75  1  0  0  0
 72145  1  0  0  0
 73 74  2  0  0  0
 73 76  1  0  0  0
 73146  1  0  0  0
 74 81  1  0  0  0
 75 76  2  0  0  0
 75 82  1  0  0  0
 76 84  1  0  0  0
 77 78  1  0  0  0
 77 79  2  0  0  0
 77 80  1  0  0  0
 78 81  1  0  0  0
 78 83  2  0  0  0
 79147  1  0  0  0
 80 81  1  0  0  0
 80148  1  0  0  0
 80149  1  0  0  0
 82150  1  0  0  0
M  ISO  4   1 100  68 101  79 101  82 100
M  END
> <chiral flag>
0

> <version>
0

> <s_m_source_file>
/data/baiqing/PycharmProjects/Reinvent-master-3.2/result/LINK_invent/BTK/process_docking_weight1_custom_product_contain_oxygen_bond_distance_aromatic_linkinvent_7_9_3/rearranged_h_0073.sdf

> <i_m_source_file_index>
32

> <r_mmod_Potential_Energy-OPLS-2005>
198.142578125

> <r_mmod_Stretch_Energy-OPLS-2005>
106.317687988281

> <r_mmod_Bend_Energy-OPLS-2005>
271.832885742188

> <r_mmod_Torsional_Energy-OPLS-2005>
219.378356933594

> <r_mmod_Improper_Torsional_Energy-OPLS-2005>
3.23730540275574

> <r_mmod_Van_der_Waal_Energy-OPLS-2005>
133.984222412109

> <r_mmod_Electrostatic_Energy-OPLS-2005>
-415.522491455078

> <r_mmod_Solvation_Energy-OPLS-2005>
-209.682037353516

> <b_mmod_Minimization_Converged-OPLS-2005>
0

> <r_mmod_RMS_Derivative-OPLS-2005>
0.625052928924561

$$$$
32
                    3D
 Structure written by MMmdl.
158167  0  0  1  0            999 V2000
  -30.6983  -14.6085   20.5149 C   0  0  0  0  0  0
  -30.4138  -12.3762   19.4656 C   0  0  0  0  0  0
  -29.4996  -12.4989   18.2296 C   0  0  0  0  0  0
  -28.0230  -12.3486   18.6387 C   0  0  0  0  0  0
  -27.6476  -13.2299   19.8609 C   0  0  2  0  0  0
  -28.6912  -13.1206   20.9970 C   0  0  0  0  0  0
  -25.2522  -13.8205   20.5713 C   0  0  0  0  0  0
  -24.1802  -13.0450   20.9207 C   0  0  0  0  0  0
  -24.6389  -11.6927   20.8750 C   0  0  0  0  0  0
  -23.9065  -10.4303   21.0410 C   0  0  0  0  0  0
  -24.3616   -9.4216   21.9189 C   0  0  0  0  0  0
  -23.6294   -8.2249   22.0754 C   0  0  0  0  0  0
  -22.4276   -8.0289   21.3546 C   0  0  0  0  0  0
  -21.9909   -9.0265   20.4650 C   0  0  0  0  0  0
  -22.7234  -10.2146   20.3064 C   0  0  0  0  0  0
  -21.6851   -6.0745   22.5282 C   0  0  0  0  0  0
  -21.4015   -6.5641   23.8219 C   0  0  0  0  0  0
  -21.3658   -5.6789   24.9178 C   0  0  0  0  0  0
  -21.6048   -4.3055   24.7222 C   0  0  0  0  0  0
  -21.8815   -3.8151   23.4342 C   0  0  0  0  0  0
  -21.9189   -4.6973   22.3402 C   0  0  0  0  0  0
  -22.7816  -13.5236   21.1844 C   0  0  0  0  0  0
  -22.1655   -4.2161   21.0978 F   0  0  0  0  0  0
  -21.5625   -3.4531   25.7731 F   0  0  0  0  0  0
  -30.0097  -13.4266   20.4262 N   0  0  0  0  0  0
  -26.2960  -12.9416   20.3330 N   0  0  0  0  0  0
  -25.9324  -11.6556   20.5771 N   0  0  0  0  0  0
  -22.0448  -12.8256   22.0410 N   0  0  0  0  0  0
  -25.4202  -15.1934   20.4144 N   0  0  0  0  0  0
  -31.8598  -14.6663   20.1073 O   0  0  0  0  0  0
  -21.6637   -6.8890   21.4246 O   0  0  0  0  0  0
  -22.3509  -14.5538   20.6679 O   0  0  0  0  0  0
  -24.6239  -31.8626   23.2075 C   0  0  0  0  0  0
  -25.9100  -32.4791   23.8385 C   0  0  1  0  0  0
  -27.2032  -27.3121   20.1370 C   0  0  0  0  0  0
  -25.5928  -33.8592   24.2305 N   0  0  0  0  0  0
  -23.4180  -30.4874   21.5481 C   0  0  2  0  0  0
  -24.8667  -28.9459   20.1128 C   0  0  0  0  0  0
  -22.7466  -29.4630   22.4940 C   0  0  0  0  0  0
  -18.0291  -28.1387   22.8493 C   0  0  0  0  0  0
  -24.1489  -36.7301   23.2636 C   0  0  0  0  0  0
  -25.9594  -30.7826   21.3911 C   0  0  0  0  0  0
  -26.0281  -29.4049   20.7493 C   0  0  0  0  0  0
  -27.1992  -28.5889   20.7756 C   0  0  0  0  0  0
  -26.0593  -26.9551   19.4014 C   0  0  0  0  0  0
  -24.8810  -27.7210   19.4313 C   0  0  0  0  0  0
  -23.6362  -29.8274   20.1618 C   0  0  0  0  0  0
  -25.4111  -36.3094   24.0333 C   0  0  1  0  0  0
  -20.5886  -28.3690   23.1283 C   0  0  2  0  0  0
  -20.6778  -26.9414   22.5409 C   0  0  0  0  0  0
  -19.5752  -26.6385   21.5211 C   0  0  0  0  0  0
  -18.1933  -26.7928   22.1627 C   0  0  0  0  0  0
  -19.1540  -28.8853   23.2888 C   0  0  0  0  0  0
  -18.9464  -30.1457   23.8903 C   0  0  0  0  0  0
  -17.6462  -30.6587   24.0567 C   0  0  0  0  0  0
  -25.9049  -34.9461   23.5116 C   0  0  0  0  0  0
  -16.5356  -29.9087   23.6328 C   0  0  0  0  0  0
  -16.7277  -28.6505   23.0348 C   0  0  0  0  0  0
  -26.4494  -31.6585   25.0742 C   0  0  0  0  0  0
  -25.3730  -31.3721   26.1470 C   0  0  0  0  0  0
  -27.0331  -30.3003   24.6194 C   0  0  0  0  0  0
  -27.6062  -32.4311   25.7512 C   0  0  0  0  0  0
  -27.5577  -37.1811   24.8467 C   0  0  0  0  0  0
  -21.4181  -29.3045   22.3677 N   0  0  0  0  0  0
  -26.4295  -37.3782   23.9404 N   0  0  0  0  0  0
  -24.6848  -31.0630   22.1043 N   0  0  0  0  0  0
  -23.4192  -28.8160   23.3011 O   0  0  0  0  0  0
  -28.2916  -26.4380   20.0735 O   0  0  0  0  0  0
  -26.5612  -34.8924   22.4681 O   0  0  0  0  0  0
  -23.5405  -32.1440   23.7395 O   0  0  0  0  0  0
  -31.8319  -17.4775   20.8520 C   0  0  0  0  0  0
  -32.2641  -18.8051   20.7048 C   0  0  0  0  0  0
  -29.5404  -18.2589   20.7877 C   0  0  0  0  0  0
  -29.9533  -19.6472   20.6724 C   0  0  0  0  0  0
  -30.4575  -17.1477   20.8379 C   0  0  0  0  0  0
  -31.3545  -19.8690   20.5806 C   0  0  0  0  0  0
  -27.8005  -22.7969   20.4755 C   0  0  0  0  0  0
  -26.9134  -21.7086   20.1107 C   0  0  0  0  0  0
  -29.1084  -22.1387   20.7027 C   0  0  0  0  0  0
  -25.7523  -21.7830   19.4324 C   0  0  0  0  0  0
  -27.4337  -24.1180   20.6941 C   0  0  0  0  0  0
  -27.5722  -20.3968   20.3754 C   0  0  0  0  0  0
  -25.9745  -24.4419   20.9977 C   0  0  0  0  0  0
  -28.9717  -20.7530   20.5894 N   0  0  0  0  0  0
  -30.0156  -15.7449   20.8844 N   0  0  0  0  0  0
  -30.1325  -22.7393   21.0369 O   0  0  0  0  0  0
  -28.2543  -25.1953   21.0692 O   0  0  0  0  0  0
  -31.8808  -21.0867   20.3282 F   0  0  0  0  0  0
  -31.4602  -12.4537   19.1640 H   0  0  0  0  0  0
  -30.3137  -11.3908   19.9234 H   0  0  0  0  0  0
  -29.7616  -11.7419   17.4891 H   0  0  0  0  0  0
  -29.6533  -13.4654   17.7474 H   0  0  0  0  0  0
  -27.8537  -11.2977   18.8751 H   0  0  0  0  0  0
  -27.3720  -12.5776   17.7942 H   0  0  0  0  0  0
  -27.6583  -14.2608   19.5064 H   0  0  0  0  0  0
  -28.6927  -12.1159   21.4233 H   0  0  0  0  0  0
  -28.4447  -13.7966   21.8170 H   0  0  0  0  0  0
  -25.2764   -9.5688   22.4766 H   0  0  0  0  0  0
  -24.0001   -7.4638   22.7475 H   0  0  0  0  0  0
  -21.0837   -8.8795   19.8962 H   0  0  0  0  0  0
  -22.3696  -10.9692   19.6181 H   0  0  0  0  0  0
  -21.2013   -7.6151   23.9726 H   0  0  0  0  0  0
  -21.1478   -6.0520   25.9083 H   0  0  0  0  0  0
  -22.0595   -2.7616   23.2834 H   0  0  0  0  0  0
  -22.4043  -11.9938   22.4848 H   0  0  0  0  0  0
  -21.1070  -13.1311   22.2584 H   0  0  0  0  0  0
  -24.6494  -15.8438   20.5243 H   0  0  0  0  0  0
  -26.2655  -15.6368   20.0789 H   0  0  0  0  0  0
  -26.7160  -32.5473   23.1129 H   0  0  0  0  0  0
  -25.0080  -33.9742   25.0450 H   0  0  0  0  0  0
  -22.7117  -31.3082   21.4075 H   0  0  0  0  0  0
  -23.3744  -35.9641   23.3318 H   0  0  0  0  0  0
  -24.3577  -36.8899   22.2047 H   0  0  0  0  0  0
  -23.7256  -37.6517   23.6638 H   0  0  0  0  0  0
  -26.0925  -31.5345   20.6121 H   0  0  0  0  0  0
  -26.8408  -30.8381   22.0178 H   0  0  0  0  0  0
  -28.0895  -28.9277   21.2869 H   0  0  0  0  0  0
  -26.0772  -26.0527   18.8085 H   0  0  0  0  0  0
  -24.0057  -27.3819   18.8940 H   0  0  0  0  0  0
  -23.7607  -30.6063   19.4087 H   0  0  0  0  0  0
  -22.7560  -29.2593   19.8551 H   0  0  0  0  0  0
  -25.1290  -36.1954   25.0825 H   0  0  0  0  0  0
  -20.9989  -28.3266   24.1398 H   0  0  0  0  0  0
  -20.5679  -26.2301   23.3611 H   0  0  0  0  0  0
  -21.6647  -26.7447   22.1200 H   0  0  0  0  0  0
  -19.6916  -25.6296   21.1240 H   0  0  0  0  0  0
  -19.6680  -27.3194   20.6742 H   0  0  0  0  0  0
  -17.4199  -26.6677   21.4032 H   0  0  0  0  0  0
  -18.0344  -26.0067   22.9025 H   0  0  0  0  0  0
  -19.7939  -30.7277   24.2267 H   0  0  0  0  0  0
  -17.5015  -31.6265   24.5171 H   0  0  0  0  0  0
  -15.5354  -30.2991   23.7641 H   0  0  0  0  0  0
  -15.8682  -28.0827   22.7051 H   0  0  0  0  0  0
  -24.5920  -30.7050   25.7801 H   0  0  0  0  0  0
  -24.8902  -32.2883   26.4877 H   0  0  0  0  0  0
  -25.8060  -30.8919   27.0253 H   0  0  0  0  0  0
  -26.2901  -29.6767   24.1206 H   0  0  0  0  0  0
  -27.4008  -29.7249   25.4700 H   0  0  0  0  0  0
  -27.8786  -30.4284   23.9434 H   0  0  0  0  0  0
  -27.2675  -33.3608   26.2099 H   0  0  0  0  0  0
  -28.3867  -32.6871   25.0333 H   0  0  0  0  0  0
  -28.0732  -31.8426   26.5422 H   0  0  0  0  0  0
  -28.2606  -38.0097   24.7501 H   0  0  0  0  0  0
  -28.1062  -36.2629   24.6306 H   0  0  0  0  0  0
  -27.2296  -37.1484   25.8872 H   0  0  0  0  0  0
  -20.9357  -29.8772   21.6893 H   0  0  0  0  0  0
  -26.0181  -38.2860   24.1390 H   0  0  0  0  0  0
  -32.6015  -16.7276   20.9503 H   0  0  0  0  0  0
  -33.3234  -19.0103   20.6625 H   0  0  0  0  0  0
  -28.4873  -18.0240   20.8179 H   0  0  0  0  0  0
  -25.3091  -22.7092   19.1078 H   0  0  0  0  0  0
  -25.2288  -20.8792   19.1516 H   0  0  0  0  0  0
  -27.4598  -19.7270   19.5209 H   0  0  0  0  0  0
  -27.1415  -19.9311   21.2629 H   0  0  0  0  0  0
  -25.8866  -25.3552   21.5855 H   0  0  0  0  0  0
  -25.5407  -23.6548   21.6145 H   0  0  0  0  0  0
  -25.3555  -24.5358   20.1103 H   0  0  0  0  0  0
  -29.0453  -15.5922   21.1140 H   0  0  0  0  0  0
  1 25  1  0  0  0
  1 30  2  0  0  0
  1 85  1  0  0  0
  2  3  1  0  0  0
  2 25  1  0  0  0
  2 89  1  0  0  0
  2 90  1  0  0  0
  3  4  1  0  0  0
  3 91  1  0  0  0
  3 92  1  0  0  0
  4  5  1  0  0  0
  4 93  1  0  0  0
  4 94  1  0  0  0
  5  6  1  0  0  0
  5 26  1  0  0  0
  5 95  1  0  0  0
  6 25  1  0  0  0
  6 96  1  0  0  0
  6 97  1  0  0  0
  7  8  2  0  0  0
  7 26  1  0  0  0
  7 29  1  0  0  0
  8  9  1  0  0  0
  8 22  1  0  0  0
  9 10  1  0  0  0
  9 27  2  0  0  0
 10 11  2  0  0  0
 10 15  1  0  0  0
 11 12  1  0  0  0
 11 98  1  0  0  0
 12 13  2  0  0  0
 12 99  1  0  0  0
 13 14  1  0  0  0
 13 31  1  0  0  0
 14 15  2  0  0  0
 14100  1  0  0  0
 15101  1  0  0  0
 16 17  2  0  0  0
 16 21  1  0  0  0
 16 31  1  0  0  0
 17 18  1  0  0  0
 17102  1  0  0  0
 18 19  2  0  0  0
 18103  1  0  0  0
 19 20  1  0  0  0
 19 24  1  0  0  0
 20 21  2  0  0  0
 20104  1  0  0  0
 21 23  1  0  0  0
 22 28  1  0  0  0
 22 32  2  0  0  0
 26 27  1  0  0  0
 28105  1  0  0  0
 28106  1  0  0  0
 29107  1  0  0  0
 29108  1  0  0  0
 33 34  1  0  0  0
 33 66  1  0  0  0
 33 70  2  0  0  0
 34 36  1  0  0  0
 34 59  1  0  0  0
 34109  1  0  0  0
 35 44  2  0  0  0
 35 45  1  0  0  0
 35 68  1  0  0  0
 36 56  1  0  0  0
 36110  1  0  0  0
 37 39  1  0  0  0
 37 47  1  0  0  0
 37 66  1  0  0  0
 37111  1  0  0  0
 38 43  2  0  0  0
 38 46  1  0  0  0
 38 47  1  0  0  0
 39 64  1  0  0  0
 39 67  2  0  0  0
 40 52  1  0  0  0
 40 53  2  0  0  0
 40 58  1  0  0  0
 41112  1  0  0  0
 41113  1  0  0  0
 41114  1  0  0  0
 41 48  1  0  0  0
 42 43  1  0  0  0
 42 66  1  0  0  0
 42115  1  0  0  0
 42116  1  0  0  0
 43 44  1  0  0  0
 44117  1  0  0  0
 45 46  2  0  0  0
 45118  1  0  0  0
 46119  1  0  0  0
 47120  1  0  0  0
 47121  1  0  0  0
 48 56  1  0  0  0
 48 65  1  0  0  0
 48122  1  0  0  0
 49 50  1  0  0  0
 49 53  1  0  0  0
 49 64  1  0  0  0
 49123  1  0  0  0
 50 51  1  0  0  0
 50124  1  0  0  0
 50125  1  0  0  0
 51 52  1  0  0  0
 51126  1  0  0  0
 51127  1  0  0  0
 52128  1  0  0  0
 52129  1  0  0  0
 53 54  1  0  0  0
 54 55  2  0  0  0
 54130  1  0  0  0
 55 57  1  0  0  0
 55131  1  0  0  0
 56 69  2  0  0  0
 57 58  2  0  0  0
 57132  1  0  0  0
 58133  1  0  0  0
 59 60  1  0  0  0
 59 61  1  0  0  0
 59 62  1  0  0  0
 60134  1  0  0  0
 60135  1  0  0  0
 60136  1  0  0  0
 61137  1  0  0  0
 61138  1  0  0  0
 61139  1  0  0  0
 62140  1  0  0  0
 62141  1  0  0  0
 62142  1  0  0  0
 63 65  1  0  0  0
 63143  1  0  0  0
 63144  1  0  0  0
 63145  1  0  0  0
 64146  1  0  0  0
 65147  1  0  0  0
 68 87  1  0  0  0
 71 72  2  0  0  0
 71 75  1  0  0  0
 71148  1  0  0  0
 72 76  1  0  0  0
 72149  1  0  0  0
 73 74  1  0  0  0
 73 75  2  0  0  0
 73150  1  0  0  0
 74 76  2  0  0  0
 74 84  1  0  0  0
 75 85  1  0  0  0
 76 88  1  0  0  0
 77 78  1  0  0  0
 77 79  1  0  0  0
 77 81  2  0  0  0
 78 80  2  0  0  0
 78 82  1  0  0  0
 79 84  1  0  0  0
 79 86  2  0  0  0
 80151  1  0  0  0
 80152  1  0  0  0
 81 83  1  0  0  0
 81 87  1  0  0  0
 82 84  1  0  0  0
 82153  1  0  0  0
 82154  1  0  0  0
 83155  1  0  0  0
 83156  1  0  0  0
 83157  1  0  0  0
 85158  1  0  0  0
M  ISO  4   1 100  68 101  85 100  87 101
M  END
> <chiral flag>
0

> <version>
0

> <s_m_source_file>
/data/baiqing/PycharmProjects/Reinvent-master-3.2/result/LINK_invent/BTK/process_docking_weight1_custom_product_contain_oxygen_bond_distance_aromatic_linkinvent_7_9_3/rearranged_h_0073.sdf

> <i_m_source_file_index>
33

> <r_mmod_Potential_Energy-OPLS-2005>
269.876373291016

> <r_mmod_Stretch_Energy-OPLS-2005>
96.1381454467773

> <r_mmod_Bend_Energy-OPLS-2005>
210.64567565918

> <r_mmod_Torsional_Energy-OPLS-2005>
280.103881835938

> <r_mmod_Improper_Torsional_Energy-OPLS-2005>
6.70416879653931

> <r_mmod_Van_der_Waal_Energy-OPLS-2005>
170.855728149414

> <r_mmod_Electrostatic_Energy-OPLS-2005>
-321.876678466797

> <r_mmod_Solvation_Energy-OPLS-2005>
-221.678527832031

> <b_mmod_Minimization_Converged-OPLS-2005>
0

> <r_mmod_RMS_Derivative-OPLS-2005>
1.22592580318451

$$$$
33
                    3D
 Structure written by MMmdl.
159168  0  0  1  0            999 V2000
  -30.7600  -14.4700   20.5014 C   0  0  0  0  0  0
  -30.3939  -12.2913   19.4462 C   0  0  0  0  0  0
  -29.4872  -12.4754   18.2144 C   0  0  0  0  0  0
  -28.0097  -12.3485   18.6266 C   0  0  0  0  0  0
  -27.6493  -13.2210   19.8602 C   0  0  2  0  0  0
  -28.6941  -13.0843   20.9931 C   0  0  0  0  0  0
  -25.2527  -13.8193   20.5687 C   0  0  0  0  0  0
  -24.1808  -13.0447   20.9206 C   0  0  0  0  0  0
  -24.6384  -11.6922   20.8754 C   0  0  0  0  0  0
  -23.9062  -10.4297   21.0411 C   0  0  0  0  0  0
  -24.3615   -9.4210   21.9186 C   0  0  0  0  0  0
  -23.6291   -8.2244   22.0753 C   0  0  0  0  0  0
  -22.4273   -8.0282   21.3544 C   0  0  0  0  0  0
  -21.9908   -9.0256   20.4647 C   0  0  0  0  0  0
  -22.7236  -10.2137   20.3059 C   0  0  0  0  0  0
  -21.6853   -6.0734   22.5278 C   0  0  0  0  0  0
  -21.4015   -6.5637   23.8211 C   0  0  0  0  0  0
  -21.3661   -5.6790   24.9173 C   0  0  0  0  0  0
  -21.6044   -4.3052   24.7224 C   0  0  0  0  0  0
  -21.8819   -3.8145   23.4345 C   0  0  0  0  0  0
  -21.9194   -4.6962   22.3401 C   0  0  0  0  0  0
  -22.7829  -13.5232   21.1862 C   0  0  0  0  0  0
  -22.1661   -4.2147   21.0979 F   0  0  0  0  0  0
  -21.5629   -3.4537   25.7737 F   0  0  0  0  0  0
  -30.0206  -13.3317   20.4195 N   0  0  0  0  0  0
  -26.2963  -12.9392   20.3327 N   0  0  0  0  0  0
  -25.9315  -11.6541   20.5781 N   0  0  0  0  0  0
  -22.0471  -12.8222   22.0414 N   0  0  0  0  0  0
  -25.4210  -15.1914   20.4068 N   0  0  0  0  0  0
  -31.9451  -14.4936   20.1510 O   0  0  0  0  0  0
  -21.6639   -6.8878   21.4240 O   0  0  0  0  0  0
  -22.3520  -14.5539   20.6708 O   0  0  0  0  0  0
  -24.6142  -31.8688   23.2112 C   0  0  0  0  0  0
  -25.9038  -32.4828   23.8405 C   0  0  1  0  0  0
  -27.2232  -27.4393   20.1009 C   0  0  0  0  0  0
  -25.5896  -33.8626   24.2337 N   0  0  0  0  0  0
  -23.4018  -30.4939   21.5512 C   0  0  2  0  0  0
  -24.8481  -28.9657   20.1096 C   0  0  0  0  0  0
  -22.7411  -29.4662   22.4984 C   0  0  0  0  0  0
  -18.0274  -28.1375   22.8493 C   0  0  0  0  0  0
  -24.1486  -36.7320   23.2637 C   0  0  0  0  0  0
  -25.9306  -30.8380   21.3631 C   0  0  0  0  0  0
  -26.0089  -29.4747   20.7073 C   0  0  0  0  0  0
  -27.2043  -28.7193   20.6988 C   0  0  0  0  0  0
  -26.0528  -26.9514   19.4823 C   0  0  0  0  0  0
  -24.8651  -27.7039   19.4915 C   0  0  0  0  0  0
  -23.6093  -29.8303   20.1639 C   0  0  0  0  0  0
  -25.4105  -36.3117   24.0340 C   0  0  1  0  0  0
  -20.5865  -28.3662   23.1318 C   0  0  2  0  0  0
  -20.6764  -26.9398   22.5419 C   0  0  0  0  0  0
  -19.5744  -26.6385   21.5212 C   0  0  0  0  0  0
  -18.1922  -26.7922   22.1624 C   0  0  0  0  0  0
  -19.1523  -28.8835   23.2905 C   0  0  0  0  0  0
  -18.9450  -30.1441   23.8915 C   0  0  0  0  0  0
  -17.6453  -30.6581   24.0566 C   0  0  0  0  0  0
  -25.9032  -34.9480   23.5135 C   0  0  0  0  0  0
  -16.5345  -29.9085   23.6322 C   0  0  0  0  0  0
  -16.7263  -28.6501   23.0345 C   0  0  0  0  0  0
  -26.4468  -31.6599   25.0725 C   0  0  0  0  0  0
  -25.3740  -31.3701   26.1478 C   0  0  0  0  0  0
  -27.0295  -30.3044   24.6087 C   0  0  0  0  0  0
  -27.6050  -32.4311   25.7483 C   0  0  0  0  0  0
  -27.5581  -37.1814   24.8462 C   0  0  0  0  0  0
  -21.4139  -29.3032   22.3725 N   0  0  0  0  0  0
  -26.4294  -37.3797   23.9407 N   0  0  0  0  0  0
  -24.6671  -31.0803   22.1005 N   0  0  0  0  0  0
  -23.4189  -28.8200   23.3017 O   0  0  0  0  0  0
  -28.3488  -26.6495   20.1455 O   0  0  0  0  0  0
  -26.5593  -34.8927   22.4697 O   0  0  0  0  0  0
  -23.5336  -32.1434   23.7512 O   0  0  0  0  0  0
  -29.5885  -18.7933   21.7750 C   0  0  0  0  0  0
  -29.2274  -20.1595   21.8792 C   0  0  0  0  0  0
  -29.6762  -19.0465   19.3724 C   0  0  0  0  0  0
  -29.8746  -18.2418   20.5120 C   0  0  0  0  0  0
  -29.1324  -21.0288   20.7554 C   0  0  0  0  0  0
  -29.3019  -20.3985   19.4910 C   0  0  0  0  0  0
  -29.1243  -23.3288   21.9446 C   0  0  0  0  0  0
  -30.5787  -16.9605   20.3493 C   0  0  0  0  0  0
  -29.3837  -23.3573   19.8768 C   0  0  0  0  0  0
  -29.3425  -24.4918   20.9252 C   0  0  2  0  0  0
  -30.6468  -25.2327   21.2363 C   0  0  0  0  0  0
  -28.1501  -25.4651   20.9427 C   0  0  0  0  0  0
  -28.9036  -22.4419   20.9063 N   0  0  0  0  0  0
  -30.0786  -15.7377   20.7016 N   0  0  0  0  0  0
  -31.7845  -17.1058   19.7834 N   0  3  0  0  0  0
  -29.2506  -23.1588   23.1395 O   0  0  0  0  0  0
  -29.1574  -21.1095   18.3460 F   0  0  0  0  0  0
  -31.4435  -12.3324   19.1492 H   0  0  0  0  0  0
  -30.2516  -11.3013   19.8827 H   0  0  0  0  0  0
  -29.7270  -11.7306   17.4543 H   0  0  0  0  0  0
  -29.6658  -13.4497   17.7566 H   0  0  0  0  0  0
  -27.8234  -11.2974   18.8504 H   0  0  0  0  0  0
  -27.3602  -12.5967   17.7864 H   0  0  0  0  0  0
  -27.6698  -14.2551   19.5167 H   0  0  0  0  0  0
  -28.6622  -12.0836   21.4266 H   0  0  0  0  0  0
  -28.4767  -13.7745   21.8096 H   0  0  0  0  0  0
  -25.2760   -9.5685   22.4760 H   0  0  0  0  0  0
  -24.0002   -7.4634   22.7468 H   0  0  0  0  0  0
  -21.0841   -8.8773   19.8952 H   0  0  0  0  0  0
  -22.3692  -10.9674   19.6168 H   0  0  0  0  0  0
  -21.2007   -7.6146   23.9714 H   0  0  0  0  0  0
  -21.1483   -6.0520   25.9076 H   0  0  0  0  0  0
  -22.0597   -2.7607   23.2846 H   0  0  0  0  0  0
  -22.4080  -11.9880   22.4799 H   0  0  0  0  0  0
  -21.1089  -13.1249   22.2617 H   0  0  0  0  0  0
  -24.6438  -15.8365   20.5014 H   0  0  0  0  0  0
  -26.2501  -15.6290   20.0277 H   0  0  0  0  0  0
  -26.7112  -32.5546   23.1173 H   0  0  0  0  0  0
  -25.0048  -33.9789   25.0483 H   0  0  0  0  0  0
  -22.6900  -31.3106   21.4148 H   0  0  0  0  0  0
  -23.3742  -35.9660   23.3312 H   0  0  0  0  0  0
  -24.3583  -36.8919   22.2049 H   0  0  0  0  0  0
  -23.7246  -37.6533   23.6640 H   0  0  0  0  0  0
  -26.0425  -31.6061   20.5967 H   0  0  0  0  0  0
  -26.8188  -30.8900   21.9811 H   0  0  0  0  0  0
  -28.0984  -29.1005   21.1722 H   0  0  0  0  0  0
  -26.0535  -25.9829   19.0023 H   0  0  0  0  0  0
  -23.9743  -27.3085   19.0229 H   0  0  0  0  0  0
  -23.7155  -30.6076   19.4062 H   0  0  0  0  0  0
  -22.7335  -29.2500   19.8679 H   0  0  0  0  0  0
  -25.1280  -36.1987   25.0833 H   0  0  0  0  0  0
  -20.9959  -28.3227   24.1437 H   0  0  0  0  0  0
  -20.5665  -26.2268   23.3605 H   0  0  0  0  0  0
  -21.6636  -26.7441   22.1212 H   0  0  0  0  0  0
  -19.6906  -25.6301   21.1229 H   0  0  0  0  0  0
  -19.6684  -27.3207   20.6752 H   0  0  0  0  0  0
  -17.4193  -26.6672   21.4025 H   0  0  0  0  0  0
  -18.0324  -26.0059   22.9016 H   0  0  0  0  0  0
  -19.7927  -30.7251   24.2295 H   0  0  0  0  0  0
  -17.5009  -31.6262   24.5166 H   0  0  0  0  0  0
  -15.5346  -30.2994   23.7634 H   0  0  0  0  0  0
  -15.8663  -28.0827   22.7048 H   0  0  0  0  0  0
  -24.5907  -30.7052   25.7817 H   0  0  0  0  0  0
  -24.8936  -32.2855   26.4942 H   0  0  0  0  0  0
  -25.8099  -30.8859   27.0226 H   0  0  0  0  0  0
  -26.2836  -29.6817   24.1133 H   0  0  0  0  0  0
  -27.4063  -29.7266   25.4536 H   0  0  0  0  0  0
  -27.8671  -30.4369   23.9235 H   0  0  0  0  0  0
  -27.2675  -33.3597   26.2099 H   0  0  0  0  0  0
  -28.3838  -32.6894   25.0296 H   0  0  0  0  0  0
  -28.0743  -31.8412   26.5366 H   0  0  0  0  0  0
  -28.2603  -38.0106   24.7506 H   0  0  0  0  0  0
  -28.1071  -36.2639   24.6288 H   0  0  0  0  0  0
  -27.2302  -37.1468   25.8866 H   0  0  0  0  0  0
  -20.9292  -29.8765   21.6962 H   0  0  0  0  0  0
  -26.0187  -38.2878   24.1401 H   0  0  0  0  0  0
  -29.7366  -18.2106   22.6744 H   0  0  0  0  0  0
  -29.0767  -20.5606   22.8708 H   0  0  0  0  0  0
  -29.8775  -18.6506   18.3870 H   0  0  0  0  0  0
  -30.3945  -23.1313   19.5282 H   0  0  0  0  0  0
  -28.6896  -23.4912   19.0448 H   0  0  0  0  0  0
  -31.4813  -24.5455   21.3829 H   0  0  0  0  0  0
  -30.5605  -25.8358   22.1408 H   0  0  0  0  0  0
  -30.9232  -25.9026   20.4221 H   0  0  0  0  0  0
  -27.9493  -25.7853   21.9675 H   0  0  0  0  0  0
  -27.2551  -24.9293   20.6237 H   0  0  0  0  0  0
  -29.1248  -15.7854   21.0147 H   0  0  0  0  0  0
  -32.1665  -18.0174   19.5866 H   0  0  0  0  0  0
  -32.3566  -16.2725   19.6786 H   0  0  0  0  0  0
  1 25  1  0  0  0
  1 30  2  0  0  0
  1 84  1  0  0  0
  2  3  1  0  0  0
  2 25  1  0  0  0
  2 88  1  0  0  0
  2 89  1  0  0  0
  3  4  1  0  0  0
  3 90  1  0  0  0
  3 91  1  0  0  0
  4  5  1  0  0  0
  4 92  1  0  0  0
  4 93  1  0  0  0
  5  6  1  0  0  0
  5 26  1  0  0  0
  5 94  1  0  0  0
  6 25  1  0  0  0
  6 95  1  0  0  0
  6 96  1  0  0  0
  7  8  2  0  0  0
  7 26  1  0  0  0
  7 29  1  0  0  0
  8  9  1  0  0  0
  8 22  1  0  0  0
  9 10  1  0  0  0
  9 27  2  0  0  0
 10 11  2  0  0  0
 10 15  1  0  0  0
 11 12  1  0  0  0
 11 97  1  0  0  0
 12 13  2  0  0  0
 12 98  1  0  0  0
 13 14  1  0  0  0
 13 31  1  0  0  0
 14 15  2  0  0  0
 14 99  1  0  0  0
 15100  1  0  0  0
 16 17  2  0  0  0
 16 21  1  0  0  0
 16 31  1  0  0  0
 17 18  1  0  0  0
 17101  1  0  0  0
 18 19  2  0  0  0
 18102  1  0  0  0
 19 20  1  0  0  0
 19 24  1  0  0  0
 20 21  2  0  0  0
 20103  1  0  0  0
 21 23  1  0  0  0
 22 28  1  0  0  0
 22 32  2  0  0  0
 26 27  1  0  0  0
 28104  1  0  0  0
 28105  1  0  0  0
 29106  1  0  0  0
 29107  1  0  0  0
 33 34  1  0  0  0
 33 66  1  0  0  0
 33 70  2  0  0  0
 34 36  1  0  0  0
 34 59  1  0  0  0
 34108  1  0  0  0
 35 44  2  0  0  0
 35 45  1  0  0  0
 35 68  1  0  0  0
 36 56  1  0  0  0
 36109  1  0  0  0
 37 39  1  0  0  0
 37 47  1  0  0  0
 37 66  1  0  0  0
 37110  1  0  0  0
 38 43  2  0  0  0
 38 46  1  0  0  0
 38 47  1  0  0  0
 39 64  1  0  0  0
 39 67  2  0  0  0
 40 52  1  0  0  0
 40 53  2  0  0  0
 40 58  1  0  0  0
 41111  1  0  0  0
 41112  1  0  0  0
 41113  1  0  0  0
 41 48  1  0  0  0
 42 43  1  0  0  0
 42 66  1  0  0  0
 42114  1  0  0  0
 42115  1  0  0  0
 43 44  1  0  0  0
 44116  1  0  0  0
 45 46  2  0  0  0
 45117  1  0  0  0
 46118  1  0  0  0
 47119  1  0  0  0
 47120  1  0  0  0
 48 56  1  0  0  0
 48 65  1  0  0  0
 48121  1  0  0  0
 49 50  1  0  0  0
 49 53  1  0  0  0
 49 64  1  0  0  0
 49122  1  0  0  0
 50 51  1  0  0  0
 50123  1  0  0  0
 50124  1  0  0  0
 51 52  1  0  0  0
 51125  1  0  0  0
 51126  1  0  0  0
 52127  1  0  0  0
 52128  1  0  0  0
 53 54  1  0  0  0
 54 55  2  0  0  0
 54129  1  0  0  0
 55 57  1  0  0  0
 55130  1  0  0  0
 56 69  2  0  0  0
 57 58  2  0  0  0
 57131  1  0  0  0
 58132  1  0  0  0
 59 60  1  0  0  0
 59 61  1  0  0  0
 59 62  1  0  0  0
 60133  1  0  0  0
 60134  1  0  0  0
 60135  1  0  0  0
 61136  1  0  0  0
 61137  1  0  0  0
 61138  1  0  0  0
 62139  1  0  0  0
 62140  1  0  0  0
 62141  1  0  0  0
 63 65  1  0  0  0
 63142  1  0  0  0
 63143  1  0  0  0
 63144  1  0  0  0
 64145  1  0  0  0
 65146  1  0  0  0
 68 82  1  0  0  0
 71 72  2  0  0  0
 71 74  1  0  0  0
 71147  1  0  0  0
 72 75  1  0  0  0
 72148  1  0  0  0
 73 74  2  0  0  0
 73 76  1  0  0  0
 73149  1  0  0  0
 74 78  1  0  0  0
 75 76  2  0  0  0
 75 83  1  0  0  0
 76 87  1  0  0  0
 77 80  1  0  0  0
 77 83  1  0  0  0
 77 86  2  0  0  0
 78 84  1  0  0  0
 78 85  2  0  0  0
 79 80  1  0  0  0
 79 83  1  0  0  0
 79150  1  0  0  0
 79151  1  0  0  0
 80 81  1  0  0  0
 80 82  1  0  0  0
 81152  1  0  0  0
 81153  1  0  0  0
 81154  1  0  0  0
 82155  1  0  0  0
 82156  1  0  0  0
 84157  1  0  0  0
 85158  1  0  0  0
 85159  1  0  0  0
M  CHG  1  85   1
M  ISO  4   1 100  68 101  82 101  84 100
M  END
> <chiral flag>
0

> <version>
0

> <s_m_source_file>
/data/baiqing/PycharmProjects/Reinvent-master-3.2/result/LINK_invent/BTK/process_docking_weight1_custom_product_contain_oxygen_bond_distance_aromatic_linkinvent_7_9_3/rearranged_h_0073.sdf

> <i_m_source_file_index>
34

> <r_mmod_Potential_Energy-OPLS-2005>
-243.894119262695

> <r_mmod_Stretch_Energy-OPLS-2005>
40.1020812988281

> <r_mmod_Bend_Energy-OPLS-2005>
124.892097473145

> <r_mmod_Torsional_Energy-OPLS-2005>
277.619873046875

> <r_mmod_Improper_Torsional_Energy-OPLS-2005>
14.3573722839355

> <r_mmod_Van_der_Waal_Energy-OPLS-2005>
174.125045776367

> <r_mmod_Electrostatic_Energy-OPLS-2005>
-466.511688232422

> <r_mmod_Solvation_Energy-OPLS-2005>
-433.528961181641

> <b_mmod_Minimization_Converged-OPLS-2005>
0

> <r_mmod_RMS_Derivative-OPLS-2005>
0.388391256332397

$$$$
34
                    3D
 Structure written by MMmdl.
160169  0  0  1  0            999 V2000
  -30.6083  -14.7447   20.4610 C   0  0  0  0  0  0
  -30.4334  -12.4530   19.4797 C   0  0  0  0  0  0
  -29.5134  -12.5327   18.2411 C   0  0  0  0  0  0
  -28.0407  -12.3472   18.6535 C   0  0  0  0  0  0
  -27.6483  -13.2336   19.8659 C   0  0  2  0  0  0
  -28.6933  -13.1503   21.0028 C   0  0  0  0  0  0
  -25.2545  -13.8215   20.5725 C   0  0  0  0  0  0
  -24.1826  -13.0458   20.9200 C   0  0  0  0  0  0
  -24.6412  -11.6937   20.8729 C   0  0  0  0  0  0
  -23.9081  -10.4311   21.0381 C   0  0  0  0  0  0
  -24.3627   -9.4238   21.9169 C   0  0  0  0  0  0
  -23.6310   -8.2271   22.0750 C   0  0  0  0  0  0
  -22.4285   -8.0296   21.3548 C   0  0  0  0  0  0
  -21.9911   -9.0260   20.4643 C   0  0  0  0  0  0
  -22.7243  -10.2140   20.3044 C   0  0  0  0  0  0
  -21.6870   -6.0738   22.5282 C   0  0  0  0  0  0
  -21.4039   -6.5641   23.8214 C   0  0  0  0  0  0
  -21.3670   -5.6788   24.9172 C   0  0  0  0  0  0
  -21.6047   -4.3049   24.7221 C   0  0  0  0  0  0
  -21.8812   -3.8143   23.4342 C   0  0  0  0  0  0
  -21.9190   -4.6963   22.3398 C   0  0  0  0  0  0
  -22.7840  -13.5221   21.1848 C   0  0  0  0  0  0
  -22.1649   -4.2147   21.0972 F   0  0  0  0  0  0
  -21.5630   -3.4534   25.7741 F   0  0  0  0  0  0
  -30.0015  -13.5055   20.4343 N   0  0  0  0  0  0
  -26.2980  -12.9423   20.3355 N   0  0  0  0  0  0
  -25.9343  -11.6560   20.5767 N   0  0  0  0  0  0
  -22.0491  -12.8204   22.0407 N   0  0  0  0  0  0
  -25.4235  -15.1954   20.4178 N   0  0  0  0  0  0
  -31.7612  -14.8677   20.0362 O   0  0  0  0  0  0
  -21.6661   -6.8887   21.4245 O   0  0  0  0  0  0
  -22.3512  -14.5522   20.6707 O   0  0  0  0  0  0
  -24.6352  -31.8543   23.1972 C   0  0  0  0  0  0
  -25.9168  -32.4751   23.8326 C   0  0  1  0  0  0
  -27.2114  -27.2309   20.1235 C   0  0  0  0  0  0
  -25.5958  -33.8551   24.2256 N   0  0  0  0  0  0
  -23.4322  -30.4780   21.5428 C   0  0  2  0  0  0
  -24.8777  -28.9250   20.1085 C   0  0  0  0  0  0
  -22.7514  -29.4603   22.4898 C   0  0  0  0  0  0
  -18.0293  -28.1400   22.8480 C   0  0  0  0  0  0
  -24.1503  -36.7285   23.2636 C   0  0  0  0  0  0
  -25.9823  -30.7526   21.3861 C   0  0  0  0  0  0
  -26.0506  -29.3736   20.7273 C   0  0  0  0  0  0
  -27.2176  -28.5379   20.7289 C   0  0  0  0  0  0
  -26.0207  -26.8759   19.4460 C   0  0  0  0  0  0
  -24.8697  -27.6854   19.4570 C   0  0  0  0  0  0
  -23.6506  -29.8150   20.1588 C   0  0  0  0  0  0
  -25.4125  -36.3068   24.0323 C   0  0  1  0  0  0
  -20.5898  -28.3726   23.1256 C   0  0  2  0  0  0
  -20.6789  -26.9441   22.5401 C   0  0  0  0  0  0
  -19.5763  -26.6388   21.5214 C   0  0  0  0  0  0
  -18.1937  -26.7945   22.1615 C   0  0  0  0  0  0
  -19.1545  -28.8875   23.2869 C   0  0  0  0  0  0
  -18.9462  -30.1472   23.8900 C   0  0  0  0  0  0
  -17.6462  -30.6608   24.0554 C   0  0  0  0  0  0
  -25.9068  -34.9434   23.5092 C   0  0  0  0  0  0
  -16.5357  -29.9099   23.6333 C   0  0  0  0  0  0
  -16.7280  -28.6512   23.0365 C   0  0  0  0  0  0
  -26.4527  -31.6587   25.0723 C   0  0  0  0  0  0
  -25.3732  -31.3733   26.1424 C   0  0  0  0  0  0
  -27.0401  -30.3011   24.6229 C   0  0  0  0  0  0
  -27.6069  -32.4342   25.7501 C   0  0  0  0  0  0
  -27.5590  -37.1794   24.8459 C   0  0  0  0  0  0
  -21.4217  -29.3076   22.3652 N   0  0  0  0  0  0
  -26.4302  -37.3762   23.9401 N   0  0  0  0  0  0
  -24.7026  -31.0468   22.0977 N   0  0  0  0  0  0
  -23.4198  -28.8135   23.2998 O   0  0  0  0  0  0
  -28.2853  -26.3005   20.2110 O   0  0  0  0  0  0
  -26.5619  -34.8914   22.4648 O   0  0  0  0  0  0
  -23.5498  -32.1385   23.7245 O   0  0  0  0  0  0
  -28.5365  -19.3674   18.6933 C   0  0  0  0  0  0
  -28.9642  -16.9592   18.8913 C   0  0  0  0  0  0
  -29.6890  -18.4875   20.6476 C   0  0  0  0  0  0
  -28.4417  -18.0574   18.1758 C   0  0  0  0  0  0
  -29.1658  -19.6499   19.9262 C   0  0  0  0  0  0
  -29.5868  -17.1152   20.1461 C   0  0  0  0  0  0
  -28.2916  -22.0841   20.2377 C   0  0  0  0  0  0
  -30.2959  -23.2942   20.3100 C   0  0  0  0  0  0
  -30.5263  -21.7692   20.5729 C   0  0  0  0  0  0
  -28.8017  -23.5492   20.5644 C   0  0  1  0  0  0
  -28.0651  -24.8348   19.8722 C   0  0  0  0  0  0
  -27.7063  -17.8273   16.8639 C   0  0  0  0  0  0
  -29.2539  -21.0936   20.3140 N   0  0  0  0  0  0
  -26.2824  -17.7888   17.0736 N   0  0  0  0  0  0
  -29.8868  -15.8557   20.8772 N   0  0  0  0  0  0
  -27.1043  -21.8766   19.9683 O   0  0  0  0  0  0
  -27.9718  -18.8106   16.0065 F   0  0  0  0  0  0
  -28.0732  -16.6766   16.3017 F   0  0  0  0  0  0
  -31.4776  -12.5653   19.1812 H   0  0  0  0  0  0
  -30.3642  -11.4686   19.9451 H   0  0  0  0  0  0
  -29.7969  -11.7782   17.5067 H   0  0  0  0  0  0
  -29.6408  -13.5006   17.7526 H   0  0  0  0  0  0
  -27.8997  -11.2959   18.9088 H   0  0  0  0  0  0
  -27.3807  -12.5457   17.8090 H   0  0  0  0  0  0
  -27.6444  -14.2597   19.5027 H   0  0  0  0  0  0
  -28.7264  -12.1445   21.4238 H   0  0  0  0  0  0
  -28.4277  -13.8161   21.8255 H   0  0  0  0  0  0
  -25.2771   -9.5733   22.4733 H   0  0  0  0  0  0
  -24.0029   -7.4669   22.7475 H   0  0  0  0  0  0
  -21.0835   -8.8773   19.8949 H   0  0  0  0  0  0
  -22.3689  -10.9673   19.6146 H   0  0  0  0  0  0
  -21.2060   -7.6152   23.9726 H   0  0  0  0  0  0
  -21.1495   -6.0518   25.9074 H   0  0  0  0  0  0
  -22.0580   -2.7608   23.2846 H   0  0  0  0  0  0
  -22.4085  -11.9842   22.4788 H   0  0  0  0  0  0
  -21.1110  -13.1226   22.2613 H   0  0  0  0  0  0
  -24.6551  -15.8480   20.5258 H   0  0  0  0  0  0
  -26.2678  -15.6409   20.0806 H   0  0  0  0  0  0
  -26.7216  -32.5386   23.1039 H   0  0  0  0  0  0
  -25.0158  -33.9699   25.0440 H   0  0  0  0  0  0
  -22.7307  -31.3016   21.3958 H   0  0  0  0  0  0
  -23.3773  -35.9612   23.3277 H   0  0  0  0  0  0
  -24.3595  -36.8931   22.2056 H   0  0  0  0  0  0
  -23.7257  -37.6474   23.6684 H   0  0  0  0  0  0
  -26.1282  -31.5091   20.6136 H   0  0  0  0  0  0
  -26.8582  -30.8005   22.0215 H   0  0  0  0  0  0
  -28.1109  -28.8706   21.2392 H   0  0  0  0  0  0
  -25.9362  -25.9476   18.9023 H   0  0  0  0  0  0
  -23.9766  -27.3442   18.9522 H   0  0  0  0  0  0
  -23.7776  -30.5917   19.4039 H   0  0  0  0  0  0
  -22.7687  -29.2495   19.8533 H   0  0  0  0  0  0
  -25.1317  -36.1909   25.0819 H   0  0  0  0  0  0
  -20.9993  -28.3315   24.1377 H   0  0  0  0  0  0
  -20.5706  -26.2339   23.3615 H   0  0  0  0  0  0
  -21.6654  -26.7467   22.1191 H   0  0  0  0  0  0
  -19.6928  -25.6286   21.1282 H   0  0  0  0  0  0
  -19.6716  -27.3166   20.6723 H   0  0  0  0  0  0
  -17.4212  -26.6696   21.4011 H   0  0  0  0  0  0
  -18.0327  -26.0090   22.9014 H   0  0  0  0  0  0
  -19.7936  -30.7284   24.2294 H   0  0  0  0  0  0
  -17.5015  -31.6299   24.5131 H   0  0  0  0  0  0
  -15.5359  -30.3001   23.7668 H   0  0  0  0  0  0
  -15.8671  -28.0833   22.7100 H   0  0  0  0  0  0
  -24.5924  -30.7073   25.7725 H   0  0  0  0  0  0
  -24.8902  -32.2903   26.4814 H   0  0  0  0  0  0
  -25.8030  -30.8923   27.0220 H   0  0  0  0  0  0
  -26.3009  -29.6721   24.1254 H   0  0  0  0  0  0
  -27.4092  -29.7306   25.4760 H   0  0  0  0  0  0
  -27.8878  -30.4290   23.9491 H   0  0  0  0  0  0
  -27.2686  -33.3667   26.2030 H   0  0  0  0  0  0
  -28.3908  -32.6863   25.0346 H   0  0  0  0  0  0
  -28.0708  -31.8496   26.5453 H   0  0  0  0  0  0
  -28.2580  -38.0121   24.7535 H   0  0  0  0  0  0
  -28.1133  -36.2646   24.6272 H   0  0  0  0  0  0
  -27.2307  -37.1413   25.8864 H   0  0  0  0  0  0
  -20.9410  -29.8827   21.6874 H   0  0  0  0  0  0
  -26.0187  -38.2840   24.1396 H   0  0  0  0  0  0
  -28.1153  -20.1731   18.1082 H   0  0  0  0  0  0
  -28.8316  -15.9681   18.4804 H   0  0  0  0  0  0
  -30.1452  -18.6499   21.6132 H   0  0  0  0  0  0
  -30.5351  -23.5343   19.2723 H   0  0  0  0  0  0
  -30.9346  -23.9128   20.9413 H   0  0  0  0  0  0
  -30.8152  -21.5948   21.6102 H   0  0  0  0  0  0
  -31.3191  -21.3735   19.9369 H   0  0  0  0  0  0
  -28.6603  -23.6518   21.6406 H   0  0  0  0  0  0
  -27.0191  -24.6139   20.0787 H   0  0  0  0  0  0
  -28.1718  -24.7438   18.7900 H   0  0  0  0  0  0
  -25.8833  -18.4831   16.4561 H   0  0  0  0  0  0
  -25.9573  -16.9098   16.6941 H   0  0  0  0  0  0
  -29.1380  -15.5916   21.5002 H   0  0  0  0  0  0
  1 25  1  0  0  0
  1 30  2  0  0  0
  1 85  1  0  0  0
  2  3  1  0  0  0
  2 25  1  0  0  0
  2 89  1  0  0  0
  2 90  1  0  0  0
  3  4  1  0  0  0
  3 91  1  0  0  0
  3 92  1  0  0  0
  4  5  1  0  0  0
  4 93  1  0  0  0
  4 94  1  0  0  0
  5  6  1  0  0  0
  5 26  1  0  0  0
  5 95  1  0  0  0
  6 25  1  0  0  0
  6 96  1  0  0  0
  6 97  1  0  0  0
  7  8  2  0  0  0
  7 26  1  0  0  0
  7 29  1  0  0  0
  8  9  1  0  0  0
  8 22  1  0  0  0
  9 10  1  0  0  0
  9 27  2  0  0  0
 10 11  2  0  0  0
 10 15  1  0  0  0
 11 12  1  0  0  0
 11 98  1  0  0  0
 12 13  2  0  0  0
 12 99  1  0  0  0
 13 14  1  0  0  0
 13 31  1  0  0  0
 14 15  2  0  0  0
 14100  1  0  0  0
 15101  1  0  0  0
 16 17  2  0  0  0
 16 21  1  0  0  0
 16 31  1  0  0  0
 17 18  1  0  0  0
 17102  1  0  0  0
 18 19  2  0  0  0
 18103  1  0  0  0
 19 20  1  0  0  0
 19 24  1  0  0  0
 20 21  2  0  0  0
 20104  1  0  0  0
 21 23  1  0  0  0
 22 28  1  0  0  0
 22 32  2  0  0  0
 26 27  1  0  0  0
 28105  1  0  0  0
 28106  1  0  0  0
 29107  1  0  0  0
 29108  1  0  0  0
 33 34  1  0  0  0
 33 66  1  0  0  0
 33 70  2  0  0  0
 34 36  1  0  0  0
 34 59  1  0  0  0
 34109  1  0  0  0
 35 44  2  0  0  0
 35 45  1  0  0  0
 35 68  1  0  0  0
 36 56  1  0  0  0
 36110  1  0  0  0
 37 39  1  0  0  0
 37 47  1  0  0  0
 37 66  1  0  0  0
 37111  1  0  0  0
 38 43  2  0  0  0
 38 46  1  0  0  0
 38 47  1  0  0  0
 39 64  1  0  0  0
 39 67  2  0  0  0
 40 52  1  0  0  0
 40 53  2  0  0  0
 40 58  1  0  0  0
 41112  1  0  0  0
 41113  1  0  0  0
 41114  1  0  0  0
 41 48  1  0  0  0
 42 43  1  0  0  0
 42 66  1  0  0  0
 42115  1  0  0  0
 42116  1  0  0  0
 43 44  1  0  0  0
 44117  1  0  0  0
 45 46  2  0  0  0
 45118  1  0  0  0
 46119  1  0  0  0
 47120  1  0  0  0
 47121  1  0  0  0
 48 56  1  0  0  0
 48 65  1  0  0  0
 48122  1  0  0  0
 49 50  1  0  0  0
 49 53  1  0  0  0
 49 64  1  0  0  0
 49123  1  0  0  0
 50 51  1  0  0  0
 50124  1  0  0  0
 50125  1  0  0  0
 51 52  1  0  0  0
 51126  1  0  0  0
 51127  1  0  0  0
 52128  1  0  0  0
 52129  1  0  0  0
 53 54  1  0  0  0
 54 55  2  0  0  0
 54130  1  0  0  0
 55 57  1  0  0  0
 55131  1  0  0  0
 56 69  2  0  0  0
 57 58  2  0  0  0
 57132  1  0  0  0
 58133  1  0  0  0
 59 60  1  0  0  0
 59 61  1  0  0  0
 59 62  1  0  0  0
 60134  1  0  0  0
 60135  1  0  0  0
 60136  1  0  0  0
 61137  1  0  0  0
 61138  1  0  0  0
 61139  1  0  0  0
 62140  1  0  0  0
 62141  1  0  0  0
 62142  1  0  0  0
 63 65  1  0  0  0
 63143  1  0  0  0
 63144  1  0  0  0
 63145  1  0  0  0
 64146  1  0  0  0
 65147  1  0  0  0
 68 81  1  0  0  0
 71 74  2  0  0  0
 71 75  1  0  0  0
 71148  1  0  0  0
 72 74  1  0  0  0
 72 76  2  0  0  0
 72149  1  0  0  0
 73 75  2  0  0  0
 73 76  1  0  0  0
 73150  1  0  0  0
 74 82  1  0  0  0
 75 83  1  0  0  0
 76 85  1  0  0  0
 77 80  1  0  0  0
 77 83  1  0  0  0
 77 86  2  0  0  0
 78 79  1  0  0  0
 78 80  1  0  0  0
 78151  1  0  0  0
 78152  1  0  0  0
 79 83  1  0  0  0
 79153  1  0  0  0
 79154  1  0  0  0
 80 81  1  0  0  0
 80155  1  0  0  0
 81156  1  0  0  0
 81157  1  0  0  0
 82 84  1  0  0  0
 82 87  1  0  0  0
 82 88  1  0  0  0
 84158  1  0  0  0
 84159  1  0  0  0
 85160  1  0  0  0
M  ISO  4   1 100  68 101  81 101  85 100
M  END
> <chiral flag>
0

> <version>
0

> <s_m_source_file>
/data/baiqing/PycharmProjects/Reinvent-master-3.2/result/LINK_invent/BTK/process_docking_weight1_custom_product_contain_oxygen_bond_distance_aromatic_linkinvent_7_9_3/rearranged_h_0073.sdf

> <i_m_source_file_index>
35

> <r_mmod_Potential_Energy-OPLS-2005>
211.182632446289

> <r_mmod_Stretch_Energy-OPLS-2005>
134.859191894531

> <r_mmod_Bend_Energy-OPLS-2005>
209.386184692383

> <r_mmod_Torsional_Energy-OPLS-2005>
313.380584716797

> <r_mmod_Improper_Torsional_Energy-OPLS-2005>
6.61506795883179

> <r_mmod_Van_der_Waal_Energy-OPLS-2005>
132.872177124023

> <r_mmod_Electrostatic_Energy-OPLS-2005>
-449.407836914062

> <r_mmod_Solvation_Energy-OPLS-2005>
-231.898559570312

> <b_mmod_Minimization_Converged-OPLS-2005>
0

> <r_mmod_RMS_Derivative-OPLS-2005>
1.84994995594025

$$$$
35
                    3D
 Structure written by MMmdl.
167176  0  0  1  0            999 V2000
  -30.6266  -14.6421   20.4965 C   0  0  0  0  0  0
  -30.4398  -12.3945   19.4526 C   0  0  0  0  0  0
  -29.5077  -12.5100   18.2253 C   0  0  0  0  0  0
  -28.0305  -12.3494   18.6375 C   0  0  0  0  0  0
  -27.6545  -13.2193   19.8673 C   0  0  2  0  0  0
  -28.7017  -13.0740   20.9950 C   0  0  0  0  0  0
  -25.2556  -13.8171   20.5698 C   0  0  0  0  0  0
  -24.1820  -13.0427   20.9165 C   0  0  0  0  0  0
  -24.6405  -11.6903   20.8733 C   0  0  0  0  0  0
  -23.9075  -10.4285   21.0399 C   0  0  0  0  0  0
  -24.3627   -9.4202   21.9179 C   0  0  0  0  0  0
  -23.6298   -8.2238   22.0750 C   0  0  0  0  0  0
  -22.4278   -8.0279   21.3545 C   0  0  0  0  0  0
  -21.9918   -9.0250   20.4644 C   0  0  0  0  0  0
  -22.7248  -10.2126   20.3051 C   0  0  0  0  0  0
  -21.6850   -6.0739   22.5279 C   0  0  0  0  0  0
  -21.4012   -6.5641   23.8214 C   0  0  0  0  0  0
  -21.3662   -5.6791   24.9175 C   0  0  0  0  0  0
  -21.6044   -4.3054   24.7221 C   0  0  0  0  0  0
  -21.8820   -3.8149   23.4342 C   0  0  0  0  0  0
  -21.9192   -4.6968   22.3403 C   0  0  0  0  0  0
  -22.7847  -13.5217   21.1835 C   0  0  0  0  0  0
  -22.1660   -4.2155   21.0979 F   0  0  0  0  0  0
  -21.5633   -3.4540   25.7734 F   0  0  0  0  0  0
  -30.0174  -13.4158   20.4305 N   0  0  0  0  0  0
  -26.3005  -12.9366   20.3365 N   0  0  0  0  0  0
  -25.9342  -11.6513   20.5781 N   0  0  0  0  0  0
  -22.0499  -12.8214   22.0407 N   0  0  0  0  0  0
  -25.4237  -15.1896   20.4182 N   0  0  0  0  0  0
  -31.7892  -14.8025   20.1150 O   0  0  0  0  0  0
  -21.6639   -6.8881   21.4242 O   0  0  0  0  0  0
  -22.3521  -14.5525   20.6688 O   0  0  0  0  0  0
  -24.6280  -31.8596   23.2033 C   0  0  0  0  0  0
  -25.9127  -32.4776   23.8358 C   0  0  1  0  0  0
  -27.2258  -27.3211   20.1073 C   0  0  0  0  0  0
  -25.5938  -33.8575   24.2289 N   0  0  0  0  0  0
  -23.4200  -30.4855   21.5467 C   0  0  2  0  0  0
  -24.8649  -28.9424   20.1127 C   0  0  0  0  0  0
  -22.7482  -29.4630   22.4942 C   0  0  0  0  0  0
  -18.0288  -28.1374   22.8490 C   0  0  0  0  0  0
  -24.1491  -36.7291   23.2639 C   0  0  0  0  0  0
  -25.9629  -30.7918   21.3735 C   0  0  0  0  0  0
  -26.0366  -29.4204   20.7129 C   0  0  0  0  0  0
  -27.2201  -28.6226   20.6986 C   0  0  0  0  0  0
  -26.0252  -26.8966   19.4890 C   0  0  0  0  0  0
  -24.8612  -27.6853   19.4932 C   0  0  0  0  0  0
  -23.6328  -29.8216   20.1622 C   0  0  0  0  0  0
  -25.4115  -36.3082   24.0333 C   0  0  1  0  0  0
  -20.5891  -28.3682   23.1283 C   0  0  2  0  0  0
  -20.6775  -26.9405   22.5406 C   0  0  0  0  0  0
  -19.5749  -26.6371   21.5213 C   0  0  0  0  0  0
  -18.1930  -26.7917   22.1625 C   0  0  0  0  0  0
  -19.1541  -28.8843   23.2883 C   0  0  0  0  0  0
  -18.9462  -30.1448   23.8895 C   0  0  0  0  0  0
  -17.6461  -30.6578   24.0562 C   0  0  0  0  0  0
  -25.9051  -34.9450   23.5111 C   0  0  0  0  0  0
  -16.5354  -29.9077   23.6328 C   0  0  0  0  0  0
  -16.7274  -28.6494   23.0351 C   0  0  0  0  0  0
  -26.4505  -31.6576   25.0721 C   0  0  0  0  0  0
  -25.3743  -31.3706   26.1448 C   0  0  0  0  0  0
  -27.0350  -30.3005   24.6161 C   0  0  0  0  0  0
  -27.6065  -32.4308   25.7498 C   0  0  0  0  0  0
  -27.5584  -37.1800   24.8468 C   0  0  0  0  0  0
  -21.4195  -29.3045   22.3684 N   0  0  0  0  0  0
  -26.4294  -37.3777   23.9411 N   0  0  0  0  0  0
  -24.6893  -31.0614   22.0982 N   0  0  0  0  0  0
  -23.4210  -28.8160   23.3009 O   0  0  0  0  0  0
  -28.3480  -26.4741   20.1434 O   0  0  0  0  0  0
  -26.5617  -34.8921   22.4676 O   0  0  0  0  0  0
  -23.5447  -32.1390   23.7367 O   0  0  0  0  0  0
  -28.6684  -19.3101   20.6555 C   0  0  0  0  0  0
  -31.0602  -17.8818   20.3255 C   0  0  0  0  0  0
  -29.8170  -20.0582   20.2847 C   0  0  0  0  0  0
  -29.8972  -17.1366   20.6523 C   0  0  0  0  0  0
  -28.7094  -17.8941   20.8249 C   0  0  0  0  0  0
  -31.0240  -19.3005   20.1560 C   0  0  0  0  0  0
  -30.3641  -22.1464   19.0149 C   0  0  0  0  0  0
  -28.8405  -22.4868   20.6789 C   0  0  0  0  0  0
  -30.1951  -23.6889   19.0513 C   0  0  1  0  0  0
  -29.2931  -23.9524   20.2904 C   0  0  1  0  0  0
  -31.2497  -26.0220   19.1446 C   0  0  0  0  0  0
  -32.2195  -24.3544   17.6005 C   0  0  0  0  0  0
  -32.5494  -24.0955   20.0683 C   0  0  0  0  0  0
  -28.1154  -25.0109   20.0799 C   0  0  0  0  0  0
  -31.5356  -24.5155   18.9787 C   0  0  0  0  0  0
  -29.7586  -21.5123   20.0394 N   0  0  0  0  0  0
  -29.8157  -15.6867   20.8462 N   0  0  0  0  0  0
  -30.9396  -21.5782   18.0819 O   0  0  0  0  0  0
  -27.5709  -17.2359   21.1485 F   0  0  0  0  0  0
  -32.1938  -19.9334   19.8978 F   0  0  0  0  0  0
  -31.4805  -12.5203   19.1500 H   0  0  0  0  0  0
  -30.3756  -11.3992   19.8951 H   0  0  0  0  0  0
  -29.7725  -11.7584   17.4804 H   0  0  0  0  0  0
  -29.6494  -13.4791   17.7449 H   0  0  0  0  0  0
  -27.8670  -11.2957   18.8666 H   0  0  0  0  0  0
  -27.3758  -12.5820   17.7964 H   0  0  0  0  0  0
  -27.6699  -14.2551   19.5278 H   0  0  0  0  0  0
  -28.7139  -12.0528   21.3789 H   0  0  0  0  0  0
  -28.4490  -13.7072   21.8470 H   0  0  0  0  0  0
  -25.2769   -9.5679   22.4754 H   0  0  0  0  0  0
  -24.0008   -7.4630   22.7471 H   0  0  0  0  0  0
  -21.0849   -8.8765   19.8951 H   0  0  0  0  0  0
  -22.3703  -10.9663   19.6160 H   0  0  0  0  0  0
  -21.1999   -7.6145   23.9722 H   0  0  0  0  0  0
  -21.1486   -6.0518   25.9080 H   0  0  0  0  0  0
  -22.0598   -2.7611   23.2837 H   0  0  0  0  0  0
  -22.4117  -11.9867   22.4779 H   0  0  0  0  0  0
  -21.1120  -13.1234   22.2620 H   0  0  0  0  0  0
  -24.6636  -15.8421   20.5723 H   0  0  0  0  0  0
  -26.3009  -15.6557   20.2196 H   0  0  0  0  0  0
  -26.7197  -32.5441   23.1108 H   0  0  0  0  0  0
  -25.0097  -33.9710   25.0446 H   0  0  0  0  0  0
  -22.7141  -31.3066   21.4048 H   0  0  0  0  0  0
  -23.3754  -35.9623   23.3296 H   0  0  0  0  0  0
  -24.3591  -36.8912   22.2055 H   0  0  0  0  0  0
  -23.7238  -37.6491   23.6659 H   0  0  0  0  0  0
  -26.0956  -31.5581   20.6082 H   0  0  0  0  0  0
  -26.8442  -30.8376   22.0018 H   0  0  0  0  0  0
  -28.1198  -28.9866   21.1745 H   0  0  0  0  0  0
  -25.9474  -25.9410   18.9959 H   0  0  0  0  0  0
  -23.9632  -27.3116   19.0209 H   0  0  0  0  0  0
  -23.7506  -30.5981   19.4059 H   0  0  0  0  0  0
  -22.7531  -29.2504   19.8596 H   0  0  0  0  0  0
  -25.1294  -36.1935   25.0826 H   0  0  0  0  0  0
  -20.9985  -28.3246   24.1404 H   0  0  0  0  0  0
  -20.5671  -26.2293   23.3608 H   0  0  0  0  0  0
  -21.6641  -26.7427   22.1197 H   0  0  0  0  0  0
  -19.6911  -25.6284   21.1232 H   0  0  0  0  0  0
  -19.6679  -27.3192   20.6753 H   0  0  0  0  0  0
  -17.4200  -26.6675   21.4023 H   0  0  0  0  0  0
  -18.0325  -26.0053   22.9012 H   0  0  0  0  0  0
  -19.7940  -30.7267   24.2256 H   0  0  0  0  0  0
  -17.5015  -31.6260   24.5160 H   0  0  0  0  0  0
  -15.5355  -30.2979   23.7646 H   0  0  0  0  0  0
  -15.8675  -28.0814   22.7064 H   0  0  0  0  0  0
  -24.5926  -30.7046   25.7773 H   0  0  0  0  0  0
  -24.8927  -32.2872   26.4868 H   0  0  0  0  0  0
  -25.8069  -30.8883   27.0224 H   0  0  0  0  0  0
  -26.2920  -29.6750   24.1195 H   0  0  0  0  0  0
  -27.4079  -29.7252   25.4645 H   0  0  0  0  0  0
  -27.8777  -30.4301   23.9366 H   0  0  0  0  0  0
  -27.2675  -33.3607   26.2075 H   0  0  0  0  0  0
  -28.3880  -32.6861   25.0329 H   0  0  0  0  0  0
  -28.0732  -31.8432   26.5416 H   0  0  0  0  0  0
  -28.2591  -38.0105   24.7521 H   0  0  0  0  0  0
  -28.1086  -36.2634   24.6280 H   0  0  0  0  0  0
  -27.2306  -37.1434   25.8872 H   0  0  0  0  0  0
  -20.9367  -29.8788   21.6913 H   0  0  0  0  0  0
  -26.0174  -38.2855   24.1400 H   0  0  0  0  0  0
  -27.7232  -19.8152   20.7872 H   0  0  0  0  0  0
  -32.0076  -17.3783   20.2085 H   0  0  0  0  0  0
  -27.8297  -22.2943   20.3163 H   0  0  0  0  0  0
  -28.8282  -22.3521   21.7610 H   0  0  0  0  0  0
  -29.6101  -23.9242   18.1611 H   0  0  0  0  0  0
  -29.9047  -24.3099   21.1176 H   0  0  0  0  0  0
  -30.5036  -26.3699   18.4283 H   0  0  0  0  0  0
  -32.1480  -26.6208   18.9899 H   0  0  0  0  0  0
  -30.8901  -26.2611   20.1448 H   0  0  0  0  0  0
  -31.5390  -24.5991   16.7837 H   0  0  0  0  0  0
  -32.5893  -23.3442   17.4295 H   0  0  0  0  0  0
  -33.0845  -25.0125   17.5047 H   0  0  0  0  0  0
  -32.1536  -24.2310   21.0742 H   0  0  0  0  0  0
  -33.4615  -24.6909   20.0047 H   0  0  0  0  0  0
  -32.8486  -23.0508   19.9720 H   0  0  0  0  0  0
  -27.3567  -24.7897   20.8327 H   0  0  0  0  0  0
  -27.6647  -24.7659   19.1194 H   0  0  0  0  0  0
  -28.9036  -15.3829   21.1523 H   0  0  0  0  0  0
  1 25  1  0  0  0
  1 30  2  0  0  0
  1 87  1  0  0  0
  2  3  1  0  0  0
  2 25  1  0  0  0
  2 91  1  0  0  0
  2 92  1  0  0  0
  3  4  1  0  0  0
  3 93  1  0  0  0
  3 94  1  0  0  0
  4  5  1  0  0  0
  4 95  1  0  0  0
  4 96  1  0  0  0
  5  6  1  0  0  0
  5 26  1  0  0  0
  5 97  1  0  0  0
  6 25  1  0  0  0
  6 98  1  0  0  0
  6 99  1  0  0  0
  7  8  2  0  0  0
  7 26  1  0  0  0
  7 29  1  0  0  0
  8  9  1  0  0  0
  8 22  1  0  0  0
  9 10  1  0  0  0
  9 27  2  0  0  0
 10 11  2  0  0  0
 10 15  1  0  0  0
 11 12  1  0  0  0
 11100  1  0  0  0
 12 13  2  0  0  0
 12101  1  0  0  0
 13 14  1  0  0  0
 13 31  1  0  0  0
 14 15  2  0  0  0
 14102  1  0  0  0
 15103  1  0  0  0
 16 17  2  0  0  0
 16 21  1  0  0  0
 16 31  1  0  0  0
 17 18  1  0  0  0
 17104  1  0  0  0
 18 19  2  0  0  0
 18105  1  0  0  0
 19 20  1  0  0  0
 19 24  1  0  0  0
 20 21  2  0  0  0
 20106  1  0  0  0
 21 23  1  0  0  0
 22 28  1  0  0  0
 22 32  2  0  0  0
 26 27  1  0  0  0
 28107  1  0  0  0
 28108  1  0  0  0
 29109  1  0  0  0
 29110  1  0  0  0
 33 34  1  0  0  0
 33 66  1  0  0  0
 33 70  2  0  0  0
 34 36  1  0  0  0
 34 59  1  0  0  0
 34111  1  0  0  0
 35 44  2  0  0  0
 35 45  1  0  0  0
 35 68  1  0  0  0
 36 56  1  0  0  0
 36112  1  0  0  0
 37 39  1  0  0  0
 37 47  1  0  0  0
 37 66  1  0  0  0
 37113  1  0  0  0
 38 43  2  0  0  0
 38 46  1  0  0  0
 38 47  1  0  0  0
 39 64  1  0  0  0
 39 67  2  0  0  0
 40 52  1  0  0  0
 40 53  2  0  0  0
 40 58  1  0  0  0
 41114  1  0  0  0
 41115  1  0  0  0
 41116  1  0  0  0
 41 48  1  0  0  0
 42 43  1  0  0  0
 42 66  1  0  0  0
 42117  1  0  0  0
 42118  1  0  0  0
 43 44  1  0  0  0
 44119  1  0  0  0
 45 46  2  0  0  0
 45120  1  0  0  0
 46121  1  0  0  0
 47122  1  0  0  0
 47123  1  0  0  0
 48 56  1  0  0  0
 48 65  1  0  0  0
 48124  1  0  0  0
 49 50  1  0  0  0
 49 53  1  0  0  0
 49 64  1  0  0  0
 49125  1  0  0  0
 50 51  1  0  0  0
 50126  1  0  0  0
 50127  1  0  0  0
 51 52  1  0  0  0
 51128  1  0  0  0
 51129  1  0  0  0
 52130  1  0  0  0
 52131  1  0  0  0
 53 54  1  0  0  0
 54 55  2  0  0  0
 54132  1  0  0  0
 55 57  1  0  0  0
 55133  1  0  0  0
 56 69  2  0  0  0
 57 58  2  0  0  0
 57134  1  0  0  0
 58135  1  0  0  0
 59 60  1  0  0  0
 59 61  1  0  0  0
 59 62  1  0  0  0
 60136  1  0  0  0
 60137  1  0  0  0
 60138  1  0  0  0
 61139  1  0  0  0
 61140  1  0  0  0
 61141  1  0  0  0
 62142  1  0  0  0
 62143  1  0  0  0
 62144  1  0  0  0
 63 65  1  0  0  0
 63145  1  0  0  0
 63146  1  0  0  0
 63147  1  0  0  0
 64148  1  0  0  0
 65149  1  0  0  0
 68 84  1  0  0  0
 71 73  2  0  0  0
 71 75  1  0  0  0
 71150  1  0  0  0
 72 74  1  0  0  0
 72 76  2  0  0  0
 72151  1  0  0  0
 73 76  1  0  0  0
 73 86  1  0  0  0
 74 75  2  0  0  0
 74 87  1  0  0  0
 75 89  1  0  0  0
 76 90  1  0  0  0
 77 86  1  0  0  0
 77 88  2  0  0  0
 77 79  1  0  0  0
 78 80  1  0  0  0
 78 86  1  0  0  0
 78152  1  0  0  0
 78153  1  0  0  0
 79 80  1  0  0  0
 79 85  1  0  0  0
 79154  1  0  0  0
 80 84  1  0  0  0
 80155  1  0  0  0
 81156  1  0  0  0
 81157  1  0  0  0
 81158  1  0  0  0
 81 85  1  0  0  0
 82 85  1  0  0  0
 82159  1  0  0  0
 82160  1  0  0  0
 82161  1  0  0  0
 83 85  1  0  0  0
 83162  1  0  0  0
 83163  1  0  0  0
 83164  1  0  0  0
 84165  1  0  0  0
 84166  1  0  0  0
 87167  1  0  0  0
M  ISO  4   1 100  68 101  84 101  87 100
M  END
> <chiral flag>
0

> <version>
0

> <s_m_source_file>
/data/baiqing/PycharmProjects/Reinvent-master-3.2/result/LINK_invent/BTK/process_docking_weight1_custom_product_contain_oxygen_bond_distance_aromatic_linkinvent_7_9_3/rearranged_h_0073.sdf

> <i_m_source_file_index>
36

> <r_mmod_Potential_Energy-OPLS-2005>
138.349822998047

> <r_mmod_Stretch_Energy-OPLS-2005>
83.8561935424805

> <r_mmod_Bend_Energy-OPLS-2005>
172.106201171875

> <r_mmod_Torsional_Energy-OPLS-2005>
274.747589111328

> <r_mmod_Improper_Torsional_Energy-OPLS-2005>
4.80106639862061

> <r_mmod_Van_der_Waal_Energy-OPLS-2005>
148.456192016602

> <r_mmod_Electrostatic_Energy-OPLS-2005>
-386.750946044922

> <r_mmod_Solvation_Energy-OPLS-2005>
-206.655059814453

> <b_mmod_Minimization_Converged-OPLS-2005>
0

> <r_mmod_RMS_Derivative-OPLS-2005>
0.953875422477722

$$$$
36
                    3D
 Structure written by MMmdl.
154163  0  0  1  0            999 V2000
  -30.6071  -14.7328   20.4627 C   0  0  0  0  0  0
  -30.4324  -12.4385   19.4860 C   0  0  0  0  0  0
  -29.5156  -12.5050   18.2430 C   0  0  0  0  0  0
  -28.0372  -12.3423   18.6475 C   0  0  0  0  0  0
  -27.6460  -13.2292   19.8602 C   0  0  2  0  0  0
  -28.6883  -13.1405   20.9978 C   0  0  0  0  0  0
  -25.2528  -13.8179   20.5727 C   0  0  0  0  0  0
  -24.1806  -13.0430   20.9201 C   0  0  0  0  0  0
  -24.6389  -11.6903   20.8733 C   0  0  0  0  0  0
  -23.9074  -10.4278   21.0393 C   0  0  0  0  0  0
  -24.3628   -9.4192   21.9173 C   0  0  0  0  0  0
  -23.6300   -8.2233   22.0767 C   0  0  0  0  0  0
  -22.4274   -8.0278   21.3562 C   0  0  0  0  0  0
  -21.9915   -9.0247   20.4658 C   0  0  0  0  0  0
  -22.7251  -10.2121   20.3040 C   0  0  0  0  0  0
  -21.6850   -6.0735   22.5290 C   0  0  0  0  0  0
  -21.4004   -6.5639   23.8220 C   0  0  0  0  0  0
  -21.3661   -5.6796   24.9185 C   0  0  0  0  0  0
  -21.6048   -4.3064   24.7237 C   0  0  0  0  0  0
  -21.8814   -3.8147   23.4359 C   0  0  0  0  0  0
  -21.9188   -4.6959   22.3413 C   0  0  0  0  0  0
  -22.7822  -13.5217   21.1870 C   0  0  0  0  0  0
  -22.1658   -4.2139   21.0995 F   0  0  0  0  0  0
  -21.5634   -3.4561   25.7760 F   0  0  0  0  0  0
  -29.9974  -13.4953   20.4323 N   0  0  0  0  0  0
  -26.2954  -12.9386   20.3317 N   0  0  0  0  0  0
  -25.9321  -11.6532   20.5761 N   0  0  0  0  0  0
  -22.0462  -12.8201   22.0419 N   0  0  0  0  0  0
  -25.4227  -15.1915   20.4196 N   0  0  0  0  0  0
  -31.7690  -14.8545   20.0636 O   0  0  0  0  0  0
  -21.6636   -6.8880   21.4258 O   0  0  0  0  0  0
  -22.3505  -14.5519   20.6718 O   0  0  0  0  0  0
  -24.6314  -31.8560   23.1994 C   0  0  0  0  0  0
  -25.9133  -32.4762   23.8341 C   0  0  1  0  0  0
  -27.2178  -27.2475   20.1237 C   0  0  0  0  0  0
  -25.5930  -33.8565   24.2265 N   0  0  0  0  0  0
  -23.4298  -30.4794   21.5434 C   0  0  2  0  0  0
  -24.8767  -28.9310   20.1090 C   0  0  0  0  0  0
  -22.7501  -29.4598   22.4900 C   0  0  0  0  0  0
  -18.0294  -28.1396   22.8491 C   0  0  0  0  0  0
  -24.1485  -36.7285   23.2640 C   0  0  0  0  0  0
  -25.9776  -30.7605   21.3869 C   0  0  0  0  0  0
  -26.0478  -29.3830   20.7284 C   0  0  0  0  0  0
  -27.2156  -28.5504   20.7341 C   0  0  0  0  0  0
  -26.0284  -26.8886   19.4437 C   0  0  0  0  0  0
  -24.8737  -27.6913   19.4585 C   0  0  0  0  0  0
  -23.6499  -29.8204   20.1580 C   0  0  0  0  0  0
  -25.4116  -36.3077   24.0321 C   0  0  1  0  0  0
  -20.5897  -28.3706   23.1268 C   0  0  2  0  0  0
  -20.6783  -26.9424   22.5416 C   0  0  0  0  0  0
  -19.5757  -26.6390   21.5223 C   0  0  0  0  0  0
  -18.1934  -26.7937   22.1632 C   0  0  0  0  0  0
  -19.1549  -28.8868   23.2874 C   0  0  0  0  0  0
  -18.9466  -30.1466   23.8897 C   0  0  0  0  0  0
  -17.6466  -30.6596   24.0563 C   0  0  0  0  0  0
  -25.9056  -34.9446   23.5100 C   0  0  0  0  0  0
  -16.5359  -29.9094   23.6324 C   0  0  0  0  0  0
  -16.7280  -28.6510   23.0352 C   0  0  0  0  0  0
  -26.4498  -31.6589   25.0739 C   0  0  0  0  0  0
  -25.3697  -31.3734   26.1447 C   0  0  0  0  0  0
  -27.0362  -30.3004   24.6239 C   0  0  0  0  0  0
  -27.6050  -32.4332   25.7516 C   0  0  0  0  0  0
  -27.5586  -37.1800   24.8465 C   0  0  0  0  0  0
  -21.4205  -29.3055   22.3654 N   0  0  0  0  0  0
  -26.4294  -37.3776   23.9414 N   0  0  0  0  0  0
  -24.6988  -31.0497   22.0997 N   0  0  0  0  0  0
  -23.4190  -28.8131   23.3002 O   0  0  0  0  0  0
  -28.3119  -26.3438   20.2209 O   0  0  0  0  0  0
  -26.5626  -34.8921   22.4669 O   0  0  0  0  0  0
  -23.5454  -32.1409   23.7257 O   0  0  0  0  0  0
  -28.9254  -19.4553   18.6076 C   0  0  0  0  0  0
  -28.8973  -18.1679   18.0425 C   0  0  0  0  0  0
  -29.7059  -18.4761   20.6970 C   0  0  0  0  0  0
  -29.3376  -19.6750   19.9400 C   0  0  0  0  0  0
  -29.6735  -17.1257   20.1294 C   0  0  0  0  0  0
  -29.2562  -17.0281   18.7810 C   0  0  0  0  0  0
  -30.2367  -23.3063   20.6780 C   0  0  0  0  0  0
  -30.4986  -21.7613   20.7242 C   0  0  0  0  0  0
  -28.3325  -22.1445   20.0245 C   0  0  0  0  0  0
  -28.7446  -23.5870   20.5644 C   0  0  2  0  0  0
  -28.2163  -24.9028   19.7645 C   0  0  0  0  0  0
  -29.3659  -21.1016   20.3842 N   0  0  0  0  0  0
  -29.8705  -15.8426   20.8530 N   0  0  0  0  0  0
  -31.1095  -24.1832   20.7318 O   0  0  0  0  0  0
  -31.5847  -21.2502   21.0306 O   0  0  0  0  0  0
  -29.1402  -15.8181   18.1857 F   0  0  0  0  0  0
  -31.4766  -12.5496   19.1896 H   0  0  0  0  0  0
  -30.3626  -11.4570   19.9583 H   0  0  0  0  0  0
  -29.7935  -11.7329   17.5253 H   0  0  0  0  0  0
  -29.6590  -13.4566   17.7315 H   0  0  0  0  0  0
  -27.8751  -11.2920   18.8934 H   0  0  0  0  0  0
  -27.3880  -12.5560   17.7978 H   0  0  0  0  0  0
  -27.6440  -14.2565   19.4988 H   0  0  0  0  0  0
  -28.7165  -12.1312   21.4124 H   0  0  0  0  0  0
  -28.4215  -13.7999   21.8254 H   0  0  0  0  0  0
  -25.2772   -9.5666   22.4750 H   0  0  0  0  0  0
  -24.0007   -7.4610   22.7478 H   0  0  0  0  0  0
  -21.0856   -8.8765   19.8954 H   0  0  0  0  0  0
  -22.3715  -10.9657   19.6142 H   0  0  0  0  0  0
  -21.1985   -7.6142   23.9736 H   0  0  0  0  0  0
  -21.1495   -6.0525   25.9098 H   0  0  0  0  0  0
  -22.0588   -2.7608   23.2873 H   0  0  0  0  0  0
  -22.4116  -11.9873   22.4797 H   0  0  0  0  0  0
  -21.1067  -13.1200   22.2637 H   0  0  0  0  0  0
  -24.6559  -15.8436   20.5417 H   0  0  0  0  0  0
  -26.2732  -15.6365   20.0996 H   0  0  0  0  0  0
  -26.7201  -32.5398   23.1084 H   0  0  0  0  0  0
  -25.0058  -33.9724   25.0395 H   0  0  0  0  0  0
  -22.7270  -31.3024   21.3986 H   0  0  0  0  0  0
  -23.3762  -35.9605   23.3300 H   0  0  0  0  0  0
  -24.3562  -36.8919   22.2055 H   0  0  0  0  0  0
  -23.7232  -37.6480   23.6670 H   0  0  0  0  0  0
  -26.1201  -31.5167   20.6141 H   0  0  0  0  0  0
  -26.8536  -30.8097   22.0213 H   0  0  0  0  0  0
  -28.1056  -28.8851   21.2480 H   0  0  0  0  0  0
  -25.9325  -25.9725   18.8838 H   0  0  0  0  0  0
  -23.9826  -27.3470   18.9516 H   0  0  0  0  0  0
  -23.7785  -30.5997   19.4066 H   0  0  0  0  0  0
  -22.7667  -29.2594   19.8488 H   0  0  0  0  0  0
  -25.1296  -36.1933   25.0809 H   0  0  0  0  0  0
  -20.9994  -28.3302   24.1390 H   0  0  0  0  0  0
  -20.5697  -26.2319   23.3621 H   0  0  0  0  0  0
  -21.6648  -26.7450   22.1207 H   0  0  0  0  0  0
  -19.6914  -25.6303   21.1256 H   0  0  0  0  0  0
  -19.6688  -27.3194   20.6748 H   0  0  0  0  0  0
  -17.4201  -26.6685   21.4034 H   0  0  0  0  0  0
  -18.0316  -26.0086   22.9031 H   0  0  0  0  0  0
  -19.7941  -30.7278   24.2271 H   0  0  0  0  0  0
  -17.5023  -31.6273   24.5177 H   0  0  0  0  0  0
  -15.5358  -30.2999   23.7657 H   0  0  0  0  0  0
  -15.8677  -28.0831   22.7069 H   0  0  0  0  0  0
  -24.5905  -30.7054   25.7771 H   0  0  0  0  0  0
  -24.8842  -32.2890   26.4822 H   0  0  0  0  0  0
  -25.7997  -30.8955   27.0259 H   0  0  0  0  0  0
  -26.2964  -29.6738   24.1244 H   0  0  0  0  0  0
  -27.4036  -29.7283   25.4771 H   0  0  0  0  0  0
  -27.8842  -30.4300   23.9510 H   0  0  0  0  0  0
  -27.2681  -33.3660   26.2049 H   0  0  0  0  0  0
  -28.3886  -32.6841   25.0356 H   0  0  0  0  0  0
  -28.0691  -31.8476   26.5467 H   0  0  0  0  0  0
  -28.2591  -38.0108   24.7528 H   0  0  0  0  0  0
  -28.1100  -36.2639   24.6287 H   0  0  0  0  0  0
  -27.2292  -37.1442   25.8863 H   0  0  0  0  0  0
  -20.9388  -29.8793   21.6875 H   0  0  0  0  0  0
  -26.0175  -38.2850   24.1432 H   0  0  0  0  0  0
  -28.6439  -20.2826   17.9742 H   0  0  0  0  0  0
  -28.5745  -18.0483   17.0187 H   0  0  0  0  0  0
  -29.9975  -18.5937   21.7312 H   0  0  0  0  0  0
  -28.2226  -22.1924   18.9408 H   0  0  0  0  0  0
  -27.3625  -21.8496   20.4257 H   0  0  0  0  0  0
  -28.3847  -23.6640   21.5899 H   0  0  0  0  0  0
  -27.1734  -24.6328   19.6431 H   0  0  0  0  0  0
  -28.6313  -24.8755   18.7560 H   0  0  0  0  0  0
  -29.0618  -15.5824   21.3970 H   0  0  0  0  0  0
  1 25  1  0  0  0
  1 30  2  0  0  0
  1 83  1  0  0  0
  2  3  1  0  0  0
  2 25  1  0  0  0
  2 87  1  0  0  0
  2 88  1  0  0  0
  3  4  1  0  0  0
  3 89  1  0  0  0
  3 90  1  0  0  0
  4  5  1  0  0  0
  4 91  1  0  0  0
  4 92  1  0  0  0
  5  6  1  0  0  0
  5 26  1  0  0  0
  5 93  1  0  0  0
  6 25  1  0  0  0
  6 94  1  0  0  0
  6 95  1  0  0  0
  7  8  2  0  0  0
  7 26  1  0  0  0
  7 29  1  0  0  0
  8  9  1  0  0  0
  8 22  1  0  0  0
  9 10  1  0  0  0
  9 27  2  0  0  0
 10 11  2  0  0  0
 10 15  1  0  0  0
 11 12  1  0  0  0
 11 96  1  0  0  0
 12 13  2  0  0  0
 12 97  1  0  0  0
 13 14  1  0  0  0
 13 31  1  0  0  0
 14 15  2  0  0  0
 14 98  1  0  0  0
 15 99  1  0  0  0
 16 17  2  0  0  0
 16 21  1  0  0  0
 16 31  1  0  0  0
 17 18  1  0  0  0
 17100  1  0  0  0
 18 19  2  0  0  0
 18101  1  0  0  0
 19 20  1  0  0  0
 19 24  1  0  0  0
 20 21  2  0  0  0
 20102  1  0  0  0
 21 23  1  0  0  0
 22 28  1  0  0  0
 22 32  2  0  0  0
 26 27  1  0  0  0
 28103  1  0  0  0
 28104  1  0  0  0
 29105  1  0  0  0
 29106  1  0  0  0
 33 34  1  0  0  0
 33 66  1  0  0  0
 33 70  2  0  0  0
 34 36  1  0  0  0
 34 59  1  0  0  0
 34107  1  0  0  0
 35 44  2  0  0  0
 35 45  1  0  0  0
 35 68  1  0  0  0
 36 56  1  0  0  0
 36108  1  0  0  0
 37 39  1  0  0  0
 37 47  1  0  0  0
 37 66  1  0  0  0
 37109  1  0  0  0
 38 43  2  0  0  0
 38 46  1  0  0  0
 38 47  1  0  0  0
 39 64  1  0  0  0
 39 67  2  0  0  0
 40 52  1  0  0  0
 40 53  2  0  0  0
 40 58  1  0  0  0
 41110  1  0  0  0
 41111  1  0  0  0
 41112  1  0  0  0
 41 48  1  0  0  0
 42 43  1  0  0  0
 42 66  1  0  0  0
 42113  1  0  0  0
 42114  1  0  0  0
 43 44  1  0  0  0
 44115  1  0  0  0
 45 46  2  0  0  0
 45116  1  0  0  0
 46117  1  0  0  0
 47118  1  0  0  0
 47119  1  0  0  0
 48 56  1  0  0  0
 48 65  1  0  0  0
 48120  1  0  0  0
 49 50  1  0  0  0
 49 53  1  0  0  0
 49 64  1  0  0  0
 49121  1  0  0  0
 50 51  1  0  0  0
 50122  1  0  0  0
 50123  1  0  0  0
 51 52  1  0  0  0
 51124  1  0  0  0
 51125  1  0  0  0
 52126  1  0  0  0
 52127  1  0  0  0
 53 54  1  0  0  0
 54 55  2  0  0  0
 54128  1  0  0  0
 55 57  1  0  0  0
 55129  1  0  0  0
 56 69  2  0  0  0
 57 58  2  0  0  0
 57130  1  0  0  0
 58131  1  0  0  0
 59 60  1  0  0  0
 59 61  1  0  0  0
 59 62  1  0  0  0
 60132  1  0  0  0
 60133  1  0  0  0
 60134  1  0  0  0
 61135  1  0  0  0
 61136  1  0  0  0
 61137  1  0  0  0
 62138  1  0  0  0
 62139  1  0  0  0
 62140  1  0  0  0
 63 65  1  0  0  0
 63141  1  0  0  0
 63142  1  0  0  0
 63143  1  0  0  0
 64144  1  0  0  0
 65145  1  0  0  0
 68 81  1  0  0  0
 71 72  2  0  0  0
 71 74  1  0  0  0
 71146  1  0  0  0
 72 76  1  0  0  0
 72147  1  0  0  0
 73 74  2  0  0  0
 73 75  1  0  0  0
 73148  1  0  0  0
 74 82  1  0  0  0
 75 76  2  0  0  0
 75 83  1  0  0  0
 76 86  1  0  0  0
 77 78  1  0  0  0
 77 80  1  0  0  0
 77 84  2  0  0  0
 78 82  1  0  0  0
 78 85  2  0  0  0
 79 80  1  0  0  0
 79 82  1  0  0  0
 79149  1  0  0  0
 79150  1  0  0  0
 80 81  1  0  0  0
 80151  1  0  0  0
 81152  1  0  0  0
 81153  1  0  0  0
 83154  1  0  0  0
M  ISO  4   1 100  68 101  81 101  83 100
M  END
> <chiral flag>
0

> <version>
0

> <s_m_source_file>
/data/baiqing/PycharmProjects/Reinvent-master-3.2/result/LINK_invent/BTK/process_docking_weight1_custom_product_contain_oxygen_bond_distance_aromatic_linkinvent_7_9_3/rearranged_h_0073.sdf

> <i_m_source_file_index>
37

> <r_mmod_Potential_Energy-OPLS-2005>
272.373168945312

> <r_mmod_Stretch_Energy-OPLS-2005>
130.713165283203

> <r_mmod_Bend_Energy-OPLS-2005>
209.80290222168

> <r_mmod_Torsional_Energy-OPLS-2005>
284.437530517578

> <r_mmod_Improper_Torsional_Energy-OPLS-2005>
6.85165500640869

> <r_mmod_Van_der_Waal_Energy-OPLS-2005>
137.121963500977

> <r_mmod_Electrostatic_Energy-OPLS-2005>
-320.265289306641

> <r_mmod_Solvation_Energy-OPLS-2005>
-262.679382324219

> <b_mmod_Minimization_Converged-OPLS-2005>
0

> <r_mmod_RMS_Derivative-OPLS-2005>
1.75115084648132

$$$$
37
                    3D
 Structure written by MMmdl.
168177  0  0  1  0            999 V2000
  -30.7705  -14.3284   20.7276 C   0  0  0  0  0  0
  -30.4229  -12.2864   19.3768 C   0  0  0  0  0  0
  -29.4835  -12.5408   18.1837 C   0  0  0  0  0  0
  -28.0086  -12.3865   18.5999 C   0  0  0  0  0  0
  -27.6705  -13.1955   19.8786 C   0  0  2  0  0  0
  -28.7063  -12.9055   20.9860 C   0  0  0  0  0  0
  -25.2627  -13.8134   20.5656 C   0  0  0  0  0  0
  -24.1857  -13.0435   20.9150 C   0  0  0  0  0  0
  -24.6390  -11.6896   20.8696 C   0  0  0  0  0  0
  -23.9041  -10.4288   21.0385 C   0  0  0  0  0  0
  -24.3603   -9.4212   21.9166 C   0  0  0  0  0  0
  -23.6283   -8.2245   22.0747 C   0  0  0  0  0  0
  -22.4258   -8.0280   21.3547 C   0  0  0  0  0  0
  -21.9891   -9.0245   20.4644 C   0  0  0  0  0  0
  -22.7212  -10.2127   20.3041 C   0  0  0  0  0  0
  -21.6853   -6.0731   22.5277 C   0  0  0  0  0  0
  -21.4016   -6.5633   23.8215 C   0  0  0  0  0  0
  -21.3657   -5.6793   24.9172 C   0  0  0  0  0  0
  -21.6049   -4.3055   24.7232 C   0  0  0  0  0  0
  -21.8815   -3.8140   23.4353 C   0  0  0  0  0  0
  -21.9193   -4.6956   22.3404 C   0  0  0  0  0  0
  -22.7885  -13.5249   21.1828 C   0  0  0  0  0  0
  -22.1659   -4.2144   21.0985 F   0  0  0  0  0  0
  -21.5628   -3.4537   25.7742 F   0  0  0  0  0  0
  -30.0587  -13.2010   20.4664 N   0  0  0  0  0  0
  -26.3064  -12.9292   20.3335 N   0  0  0  0  0  0
  -25.9309  -11.6458   20.5720 N   0  0  0  0  0  0
  -22.0527  -12.8242   22.0395 N   0  0  0  0  0  0
  -25.4385  -15.1854   20.4075 N   0  0  0  0  0  0
  -31.7490  -14.6931   20.0661 O   0  0  0  0  0  0
  -21.6634   -6.8867   21.4240 O   0  0  0  0  0  0
  -22.3565  -14.5556   20.6685 O   0  0  0  0  0  0
  -24.6099  -31.8712   23.2093 C   0  0  0  0  0  0
  -25.9007  -32.4844   23.8391 C   0  0  1  0  0  0
  -27.2529  -27.4672   20.0963 C   0  0  0  0  0  0
  -25.5873  -33.8643   24.2334 N   0  0  0  0  0  0
  -23.3976  -30.4875   21.5535 C   0  0  2  0  0  0
  -24.8488  -28.9483   20.1239 C   0  0  0  0  0  0
  -22.7378  -29.4659   22.5061 C   0  0  0  0  0  0
  -18.0248  -28.1374   22.8498 C   0  0  0  0  0  0
  -24.1486  -36.7315   23.2636 C   0  0  0  0  0  0
  -25.9215  -30.8446   21.3559 C   0  0  0  0  0  0
  -26.0055  -29.4781   20.7097 C   0  0  0  0  0  0
  -27.2120  -28.7466   20.6892 C   0  0  0  0  0  0
  -26.0816  -26.9345   19.5161 C   0  0  0  0  0  0
  -24.8803  -27.6733   19.5263 C   0  0  0  0  0  0
  -23.6052  -29.8117   20.1717 C   0  0  0  0  0  0
  -25.4113  -36.3126   24.0338 C   0  0  1  0  0  0
  -20.5835  -28.3646   23.1358 C   0  0  2  0  0  0
  -20.6755  -26.9398   22.5430 C   0  0  0  0  0  0
  -19.5740  -26.6400   21.5216 C   0  0  0  0  0  0
  -18.1916  -26.7928   22.1627 C   0  0  0  0  0  0
  -19.1496  -28.8829   23.2923 C   0  0  0  0  0  0
  -18.9432  -30.1441   23.8931 C   0  0  0  0  0  0
  -17.6436  -30.6589   24.0569 C   0  0  0  0  0  0
  -25.9032  -34.9494   23.5133 C   0  0  0  0  0  0
  -16.5332  -29.9100   23.6330 C   0  0  0  0  0  0
  -16.7239  -28.6511   23.0362 C   0  0  0  0  0  0
  -26.4445  -31.6604   25.0698 C   0  0  0  0  0  0
  -25.3717  -31.3700   26.1452 C   0  0  0  0  0  0
  -27.0263  -30.3054   24.6031 C   0  0  0  0  0  0
  -27.6028  -32.4311   25.7446 C   0  0  0  0  0  0
  -27.5585  -37.1817   24.8474 C   0  0  0  0  0  0
  -21.4114  -29.3021   22.3783 N   0  0  0  0  0  0
  -26.4309  -37.3806   23.9404 N   0  0  0  0  0  0
  -24.6615  -31.0818   22.0990 N   0  0  0  0  0  0
  -23.4148  -28.8237   23.3131 O   0  0  0  0  0  0
  -28.4359  -26.7707   20.0654 O   0  0  0  0  0  0
  -26.5610  -34.8939   22.4704 O   0  0  0  0  0  0
  -23.5305  -32.1451   23.7495 O   0  0  0  0  0  0
  -28.9609  -18.3102   22.4157 C   0  0  0  0  0  0
  -30.1181  -19.0947   22.5524 C   0  0  0  0  0  0
  -29.0730  -16.9310   22.1799 C   0  0  0  0  0  0
  -31.5126  -17.1242   22.1931 C   0  0  0  0  0  0
  -31.4064  -18.5148   22.4559 C   0  0  0  0  0  0
  -30.3441  -16.3392   22.0483 C   0  0  0  0  0  0
  -33.6213  -19.3689   21.8189 C   0  0  0  0  0  0
  -31.3896  -23.6749   22.6364 C   0  0  0  0  0  0
  -34.0411  -21.8180   22.3593 C   0  0  0  0  0  0
  -32.5304  -20.3026   23.7879 C   0  0  0  0  0  0
  -34.6889  -20.4446   22.0901 C   0  0  2  0  0  0
  -32.8443  -21.7514   23.3421 C   0  0  2  0  0  0
  -29.9624  -24.0682   22.2369 C   0  0  0  0  0  0
  -29.8868  -25.1451   21.1359 C   0  0  0  0  0  0
  -28.4371  -25.5658   20.8231 C   0  0  0  0  0  0
  -32.5585  -19.3420   22.6672 N   0  0  0  0  0  0
  -30.3923  -14.9420   21.8553 N   0  0  0  0  0  0
  -31.6276  -22.3662   22.8014 N   0  0  0  0  0  0
  -33.7638  -18.5969   20.8624 O   0  0  0  0  0  0
  -32.2478  -24.5379   22.8274 O   0  0  0  0  0  0
  -35.5300  -20.5470   21.0556 F   0  0  0  0  0  0
  -31.4642  -12.4034   19.0720 H   0  0  0  0  0  0
  -30.3294  -11.2548   19.7202 H   0  0  0  0  0  0
  -29.7153  -11.8551   17.3681 H   0  0  0  0  0  0
  -29.6492  -13.5463   17.7949 H   0  0  0  0  0  0
  -27.8150  -11.3266   18.7686 H   0  0  0  0  0  0
  -27.3539  -12.6883   17.7810 H   0  0  0  0  0  0
  -27.7381  -14.2532   19.6225 H   0  0  0  0  0  0
  -28.6634  -11.8519   21.2671 H   0  0  0  0  0  0
  -28.4388  -13.4506   21.8910 H   0  0  0  0  0  0
  -25.2755   -9.5695   22.4734 H   0  0  0  0  0  0
  -23.9998   -7.4640   22.7471 H   0  0  0  0  0  0
  -21.0817   -8.8753   19.8959 H   0  0  0  0  0  0
  -22.3659  -10.9658   19.6146 H   0  0  0  0  0  0
  -21.2006   -7.6145   23.9715 H   0  0  0  0  0  0
  -21.1484   -6.0523   25.9083 H   0  0  0  0  0  0
  -22.0597   -2.7604   23.2855 H   0  0  0  0  0  0
  -22.4142  -11.9904   22.4777 H   0  0  0  0  0  0
  -21.1155  -13.1279   22.2615 H   0  0  0  0  0  0
  -24.6752  -15.8453   20.5135 H   0  0  0  0  0  0
  -26.2963  -15.6197   20.0907 H   0  0  0  0  0  0
  -26.7091  -32.5584   23.1177 H   0  0  0  0  0  0
  -25.0008  -33.9826   25.0464 H   0  0  0  0  0  0
  -22.6823  -31.3007   21.4163 H   0  0  0  0  0  0
  -23.3748  -35.9646   23.3330 H   0  0  0  0  0  0
  -24.3566  -36.8895   22.2044 H   0  0  0  0  0  0
  -23.7248  -37.6528   23.6634 H   0  0  0  0  0  0
  -26.0210  -31.6072   20.5822 H   0  0  0  0  0  0
  -26.8118  -30.9061   21.9692 H   0  0  0  0  0  0
  -28.1109  -29.1570   21.1284 H   0  0  0  0  0  0
  -26.1027  -25.9599   19.0478 H   0  0  0  0  0  0
  -23.9924  -27.2538   19.0734 H   0  0  0  0  0  0
  -23.7015  -30.5843   19.4073 H   0  0  0  0  0  0
  -22.7300  -29.2257   19.8879 H   0  0  0  0  0  0
  -25.1298  -36.1995   25.0832 H   0  0  0  0  0  0
  -20.9909  -28.3206   24.1481 H   0  0  0  0  0  0
  -20.5676  -26.2253   23.3602 H   0  0  0  0  0  0
  -21.6635  -26.7486   22.1218 H   0  0  0  0  0  0
  -19.6912  -25.6320   21.1231 H   0  0  0  0  0  0
  -19.6687  -27.3226   20.6760 H   0  0  0  0  0  0
  -17.4194  -26.6669   21.4024 H   0  0  0  0  0  0
  -18.0315  -26.0061   22.9012 H   0  0  0  0  0  0
  -19.7912  -30.7240   24.2325 H   0  0  0  0  0  0
  -17.5002  -31.6273   24.5157 H   0  0  0  0  0  0
  -15.5336  -30.3020   23.7628 H   0  0  0  0  0  0
  -15.8643  -28.0839   22.7082 H   0  0  0  0  0  0
  -24.5884  -30.7053   25.7796 H   0  0  0  0  0  0
  -24.8898  -32.2849   26.4909 H   0  0  0  0  0  0
  -25.8059  -30.8867   27.0207 H   0  0  0  0  0  0
  -26.2796  -29.6834   24.1075 H   0  0  0  0  0  0
  -27.4054  -29.7264   25.4459 H   0  0  0  0  0  0
  -27.8616  -30.4394   23.9147 H   0  0  0  0  0  0
  -27.2661  -33.3601   26.2057 H   0  0  0  0  0  0
  -28.3801  -32.6893   25.0242 H   0  0  0  0  0  0
  -28.0734  -31.8414   26.5322 H   0  0  0  0  0  0
  -28.2642  -38.0078   24.7502 H   0  0  0  0  0  0
  -28.1047  -36.2619   24.6336 H   0  0  0  0  0  0
  -27.2297  -37.1510   25.8874 H   0  0  0  0  0  0
  -20.9260  -29.8700   21.6982 H   0  0  0  0  0  0
  -26.0201  -38.2885   24.1378 H   0  0  0  0  0  0
  -27.9847  -18.7662   22.5025 H   0  0  0  0  0  0
  -29.9948  -20.1510   22.7373 H   0  0  0  0  0  0
  -28.1726  -16.3368   22.0932 H   0  0  0  0  0  0
  -32.4840  -16.6512   22.1297 H   0  0  0  0  0  0
  -33.7329  -22.2562   21.4090 H   0  0  0  0  0  0
  -34.7991  -22.4930   22.7596 H   0  0  0  0  0  0
  -31.6061  -20.2591   24.3631 H   0  0  0  0  0  0
  -33.2931  -19.9826   24.5005 H   0  0  0  0  0  0
  -35.2874  -20.1294   22.9471 H   0  0  0  0  0  0
  -33.1093  -22.3088   24.2430 H   0  0  0  0  0  0
  -29.4652  -24.4326   23.1370 H   0  0  0  0  0  0
  -29.4104  -23.1837   21.9179 H   0  0  0  0  0  0
  -30.3699  -24.7767   20.2297 H   0  0  0  0  0  0
  -30.4523  -26.0234   21.4484 H   0  0  0  0  0  0
  -27.8892  -25.7208   21.7573 H   0  0  0  0  0  0
  -27.9270  -24.7746   20.2749 H   0  0  0  0  0  0
  -29.6720  -14.4242   22.3362 H   0  0  0  0  0  0
  -30.8532  -21.7464   22.6113 H   0  0  0  0  0  0
  1 25  1  0  0  0
  1 30  2  0  0  0
  1 87  1  0  0  0
  2  3  1  0  0  0
  2 25  1  0  0  0
  2 92  1  0  0  0
  2 93  1  0  0  0
  3  4  1  0  0  0
  3 94  1  0  0  0
  3 95  1  0  0  0
  4  5  1  0  0  0
  4 96  1  0  0  0
  4 97  1  0  0  0
  5  6  1  0  0  0
  5 26  1  0  0  0
  5 98  1  0  0  0
  6 25  1  0  0  0
  6 99  1  0  0  0
  6100  1  0  0  0
  7  8  2  0  0  0
  7 26  1  0  0  0
  7 29  1  0  0  0
  8  9  1  0  0  0
  8 22  1  0  0  0
  9 10  1  0  0  0
  9 27  2  0  0  0
 10 11  2  0  0  0
 10 15  1  0  0  0
 11 12  1  0  0  0
 11101  1  0  0  0
 12 13  2  0  0  0
 12102  1  0  0  0
 13 14  1  0  0  0
 13 31  1  0  0  0
 14 15  2  0  0  0
 14103  1  0  0  0
 15104  1  0  0  0
 16 17  2  0  0  0
 16 21  1  0  0  0
 16 31  1  0  0  0
 17 18  1  0  0  0
 17105  1  0  0  0
 18 19  2  0  0  0
 18106  1  0  0  0
 19 20  1  0  0  0
 19 24  1  0  0  0
 20 21  2  0  0  0
 20107  1  0  0  0
 21 23  1  0  0  0
 22 28  1  0  0  0
 22 32  2  0  0  0
 26 27  1  0  0  0
 28108  1  0  0  0
 28109  1  0  0  0
 29110  1  0  0  0
 29111  1  0  0  0
 33 34  1  0  0  0
 33 66  1  0  0  0
 33 70  2  0  0  0
 34 36  1  0  0  0
 34 59  1  0  0  0
 34112  1  0  0  0
 35 44  2  0  0  0
 35 45  1  0  0  0
 35 68  1  0  0  0
 36 56  1  0  0  0
 36113  1  0  0  0
 37 39  1  0  0  0
 37 47  1  0  0  0
 37 66  1  0  0  0
 37114  1  0  0  0
 38 43  2  0  0  0
 38 46  1  0  0  0
 38 47  1  0  0  0
 39 64  1  0  0  0
 39 67  2  0  0  0
 40 52  1  0  0  0
 40 53  2  0  0  0
 40 58  1  0  0  0
 41115  1  0  0  0
 41116  1  0  0  0
 41117  1  0  0  0
 41 48  1  0  0  0
 42 43  1  0  0  0
 42 66  1  0  0  0
 42118  1  0  0  0
 42119  1  0  0  0
 43 44  1  0  0  0
 44120  1  0  0  0
 45 46  2  0  0  0
 45121  1  0  0  0
 46122  1  0  0  0
 47123  1  0  0  0
 47124  1  0  0  0
 48 56  1  0  0  0
 48 65  1  0  0  0
 48125  1  0  0  0
 49 50  1  0  0  0
 49 53  1  0  0  0
 49 64  1  0  0  0
 49126  1  0  0  0
 50 51  1  0  0  0
 50127  1  0  0  0
 50128  1  0  0  0
 51 52  1  0  0  0
 51129  1  0  0  0
 51130  1  0  0  0
 52131  1  0  0  0
 52132  1  0  0  0
 53 54  1  0  0  0
 54 55  2  0  0  0
 54133  1  0  0  0
 55 57  1  0  0  0
 55134  1  0  0  0
 56 69  2  0  0  0
 57 58  2  0  0  0
 57135  1  0  0  0
 58136  1  0  0  0
 59 60  1  0  0  0
 59 61  1  0  0  0
 59 62  1  0  0  0
 60137  1  0  0  0
 60138  1  0  0  0
 60139  1  0  0  0
 61140  1  0  0  0
 61141  1  0  0  0
 61142  1  0  0  0
 62143  1  0  0  0
 62144  1  0  0  0
 62145  1  0  0  0
 63 65  1  0  0  0
 63146  1  0  0  0
 63147  1  0  0  0
 63148  1  0  0  0
 64149  1  0  0  0
 65150  1  0  0  0
 68 85  1  0  0  0
 71 72  2  0  0  0
 71 73  1  0  0  0
 71151  1  0  0  0
 72 75  1  0  0  0
 72152  1  0  0  0
 73 76  2  0  0  0
 73153  1  0  0  0
 74 75  2  0  0  0
 74 76  1  0  0  0
 74154  1  0  0  0
 75 86  1  0  0  0
 76 87  1  0  0  0
 77 81  1  0  0  0
 77 86  1  0  0  0
 77 89  2  0  0  0
 78 83  1  0  0  0
 78 88  1  0  0  0
 78 90  2  0  0  0
 79 81  1  0  0  0
 79 82  1  0  0  0
 79155  1  0  0  0
 79156  1  0  0  0
 80 82  1  0  0  0
 80 86  1  0  0  0
 80157  1  0  0  0
 80158  1  0  0  0
 81 91  1  0  0  0
 81159  1  0  0  0
 82 88  1  0  0  0
 82160  1  0  0  0
 83 84  1  0  0  0
 83161  1  0  0  0
 83162  1  0  0  0
 84 85  1  0  0  0
 84163  1  0  0  0
 84164  1  0  0  0
 85165  1  0  0  0
 85166  1  0  0  0
 87167  1  0  0  0
 88168  1  0  0  0
M  ISO  4   1 100  68 101  85 101  87 100
M  END
> <chiral flag>
0

> <version>
0

> <s_m_source_file>
/data/baiqing/PycharmProjects/Reinvent-master-3.2/result/LINK_invent/BTK/process_docking_weight1_custom_product_contain_oxygen_bond_distance_aromatic_linkinvent_7_9_3/rearranged_h_0073.sdf

> <i_m_source_file_index>
38

> <r_mmod_Potential_Energy-OPLS-2005>
-23.2326068878174

> <r_mmod_Stretch_Energy-OPLS-2005>
37.6911697387695

> <r_mmod_Bend_Energy-OPLS-2005>
93.8453750610352

> <r_mmod_Torsional_Energy-OPLS-2005>
327.184417724609

> <r_mmod_Improper_Torsional_Energy-OPLS-2005>
5.84852981567383

> <r_mmod_Van_der_Waal_Energy-OPLS-2005>
165.631103515625

> <r_mmod_Electrostatic_Energy-OPLS-2005>
-389.387481689453

> <r_mmod_Solvation_Energy-OPLS-2005>
-271.703186035156

> <b_mmod_Minimization_Converged-OPLS-2005>
0

> <r_mmod_RMS_Derivative-OPLS-2005>
2.59437847137451

$$$$
38
                    3D
 Structure written by MMmdl.
165173  0  0  1  0            999 V2000
  -30.6026  -14.6640   20.5198 C   0  0  0  0  0  0
  -30.4392  -12.4105   19.4640 C   0  0  0  0  0  0
  -29.5200  -12.5620   18.2303 C   0  0  0  0  0  0
  -28.0330  -12.4044   18.6168 C   0  0  0  0  0  0
  -27.6565  -13.2347   19.8731 C   0  0  2  0  0  0
  -28.6972  -13.0605   21.0037 C   0  0  0  0  0  0
  -25.2530  -13.8182   20.5677 C   0  0  0  0  0  0
  -24.1811  -13.0436   20.9154 C   0  0  0  0  0  0
  -24.6402  -11.6908   20.8681 C   0  0  0  0  0  0
  -23.9086  -10.4278   21.0355 C   0  0  0  0  0  0
  -24.3630   -9.4194   21.9147 C   0  0  0  0  0  0
  -23.6295   -8.2226   22.0738 C   0  0  0  0  0  0
  -22.4277   -8.0239   21.3531 C   0  0  0  0  0  0
  -21.9912   -9.0222   20.4650 C   0  0  0  0  0  0
  -22.7250  -10.2098   20.3031 C   0  0  0  0  0  0
  -21.6848   -6.0722   22.5256 C   0  0  0  0  0  0
  -21.4032   -6.5633   23.8194 C   0  0  0  0  0  0
  -21.3666   -5.6781   24.9145 C   0  0  0  0  0  0
  -21.6035   -4.3035   24.7221 C   0  0  0  0  0  0
  -21.8811   -3.8133   23.4337 C   0  0  0  0  0  0
  -21.9193   -4.6947   22.3399 C   0  0  0  0  0  0
  -22.7819  -13.5209   21.1789 C   0  0  0  0  0  0
  -22.1660   -4.2135   21.0974 F   0  0  0  0  0  0
  -21.5633   -3.4526   25.7743 F   0  0  0  0  0  0
  -30.0172  -13.4208   20.4604 N   0  0  0  0  0  0
  -26.3006  -12.9429   20.3330 N   0  0  0  0  0  0
  -25.9333  -11.6561   20.5677 N   0  0  0  0  0  0
  -22.0473  -12.8227   22.0381 N   0  0  0  0  0  0
  -25.4173  -15.1912   20.4106 N   0  0  0  0  0  0
  -31.7192  -14.8636   20.0371 O   0  0  0  0  0  0
  -21.6626   -6.8844   21.4219 O   0  0  0  0  0  0
  -22.3479  -14.5473   20.6566 O   0  0  0  0  0  0
  -24.6277  -31.8570   23.2045 C   0  0  0  0  0  0
  -25.9116  -32.4768   23.8357 C   0  0  1  0  0  0
  -27.1982  -27.2998   20.1147 C   0  0  0  0  0  0
  -25.5941  -33.8573   24.2293 N   0  0  0  0  0  0
  -23.4225  -30.4833   21.5479 C   0  0  2  0  0  0
  -24.8622  -28.9362   20.1271 C   0  0  0  0  0  0
  -22.7477  -29.4612   22.4946 C   0  0  0  0  0  0
  -18.0268  -28.1364   22.8488 C   0  0  0  0  0  0
  -24.1484  -36.7289   23.2647 C   0  0  0  0  0  0
  -25.9687  -30.7868   21.3755 C   0  0  0  0  0  0
  -26.0389  -29.4132   20.7176 C   0  0  0  0  0  0
  -27.2227  -28.6156   20.6784 C   0  0  0  0  0  0
  -25.9716  -26.8429   19.6007 C   0  0  0  0  0  0
  -24.8353  -27.6599   19.5520 C   0  0  0  0  0  0
  -23.6346  -29.8196   20.1631 C   0  0  0  0  0  0
  -25.4110  -36.3094   24.0333 C   0  0  1  0  0  0
  -20.5871  -28.3667   23.1295 C   0  0  2  0  0  0
  -20.6761  -26.9386   22.5410 C   0  0  0  0  0  0
  -19.5756  -26.6361   21.5200 C   0  0  0  0  0  0
  -18.1928  -26.7914   22.1608 C   0  0  0  0  0  0
  -19.1511  -28.8830   23.2896 C   0  0  0  0  0  0
  -18.9446  -30.1425   23.8900 C   0  0  0  0  0  0
  -17.6447  -30.6571   24.0551 C   0  0  0  0  0  0
  -25.9037  -34.9450   23.5104 C   0  0  0  0  0  0
  -16.5345  -29.9067   23.6338 C   0  0  0  0  0  0
  -16.7248  -28.6497   23.0356 C   0  0  0  0  0  0
  -26.4473  -31.6594   25.0736 C   0  0  0  0  0  0
  -25.3692  -31.3757   26.1467 C   0  0  0  0  0  0
  -27.0319  -30.3020   24.6195 C   0  0  0  0  0  0
  -27.6011  -32.4340   25.7515 C   0  0  0  0  0  0
  -27.5580  -37.1804   24.8455 C   0  0  0  0  0  0
  -21.4185  -29.3054   22.3715 N   0  0  0  0  0  0
  -26.4297  -37.3778   23.9389 N   0  0  0  0  0  0
  -24.6939  -31.0547   22.1016 N   0  0  0  0  0  0
  -23.4215  -28.8115   23.2998 O   0  0  0  0  0  0
  -28.3316  -26.4892   19.9932 O   0  0  0  0  0  0
  -26.5571  -34.8917   22.4651 O   0  0  0  0  0  0
  -23.5419  -32.1371   23.7341 O   0  0  0  0  0  0
  -29.2585  -19.3742   21.7758 C   0  0  0  0  0  0
  -29.6729  -18.0164   21.9353 C   0  0  0  0  0  0
  -29.0201  -19.0135   19.4137 C   0  0  0  0  0  0
  -28.8827  -19.9076   20.5149 C   0  0  0  0  0  0
  -29.7392  -17.1009   20.8487 C   0  0  0  0  0  0
  -29.4297  -17.6471   19.5713 C   0  0  0  0  0  0
  -28.1166  -21.2134   20.4071 C   0  0  0  0  0  0
  -27.3346  -24.9961   17.3314 C   0  0  0  0  0  0
  -29.2376  -23.4013   17.4104 C   0  0  0  0  0  0
  -26.8639  -22.6045   17.5414 C   0  0  0  0  0  0
  -28.3390  -25.0617   20.4129 C   0  0  0  0  0  0
  -27.8838  -23.7325   19.5980 C   0  0  1  0  0  0
  -27.8461  -23.7101   18.0109 C   0  0  0  0  0  0
  -26.8185  -21.1377   20.6776 N   0  0  0  0  0  0
  -29.8686  -15.6615   21.1121 N   0  0  0  0  0  0
  -28.5985  -22.4445   20.0346 N   0  3  0  0  0  0
  -29.4337  -16.8307   18.4906 F   0  0  0  0  0  0
  -31.4875  -12.5178   19.1805 H   0  0  0  0  0  0
  -30.3559  -11.4052   19.8759 H   0  0  0  0  0  0
  -29.7900  -11.8350   17.4653 H   0  0  0  0  0  0
  -29.6720  -13.5469   17.7816 H   0  0  0  0  0  0
  -27.8279  -11.3476   18.7858 H   0  0  0  0  0  0
  -27.3967  -12.6954   17.7808 H   0  0  0  0  0  0
  -27.6807  -14.2801   19.5654 H   0  0  0  0  0  0
  -28.7004  -12.0279   21.3509 H   0  0  0  0  0  0
  -28.4327  -13.6476   21.8832 H   0  0  0  0  0  0
  -25.2770   -9.5672   22.4720 H   0  0  0  0  0  0
  -23.9987   -7.4640   22.7479 H   0  0  0  0  0  0
  -21.0843   -8.8746   19.8996 H   0  0  0  0  0  0
  -22.3684  -10.9619   19.6132 H   0  0  0  0  0  0
  -21.2028   -7.6138   23.9703 H   0  0  0  0  0  0
  -21.1512   -6.0501   25.9052 H   0  0  0  0  0  0
  -22.0602   -2.7606   23.2813 H   0  0  0  0  0  0
  -22.4097  -11.9930   22.4838 H   0  0  0  0  0  0
  -21.1066  -13.1208   22.2545 H   0  0  0  0  0  0
  -24.6352  -15.8291   20.4973 H   0  0  0  0  0  0
  -26.2619  -15.6418   20.0830 H   0  0  0  0  0  0
  -26.7165  -32.5372   23.1074 H   0  0  0  0  0  0
  -25.0126  -33.9765   25.0460 H   0  0  0  0  0  0
  -22.7247  -31.3085   21.4049 H   0  0  0  0  0  0
  -23.3761  -35.9604   23.3305 H   0  0  0  0  0  0
  -24.3603  -36.8901   22.2069 H   0  0  0  0  0  0
  -23.7226  -37.6488   23.6660 H   0  0  0  0  0  0
  -26.0988  -31.5526   20.6105 H   0  0  0  0  0  0
  -26.8579  -30.8375   21.9927 H   0  0  0  0  0  0
  -28.1431  -28.9905   21.1069 H   0  0  0  0  0  0
  -25.8588  -25.8330   19.2506 H   0  0  0  0  0  0
  -23.9325  -27.2857   19.0938 H   0  0  0  0  0  0
  -23.7524  -30.5921   19.4033 H   0  0  0  0  0  0
  -22.7569  -29.2466   19.8584 H   0  0  0  0  0  0
  -25.1298  -36.1982   25.0829 H   0  0  0  0  0  0
  -20.9940  -28.3229   24.1425 H   0  0  0  0  0  0
  -20.5685  -26.2231   23.3581 H   0  0  0  0  0  0
  -21.6633  -26.7429   22.1200 H   0  0  0  0  0  0
  -19.6922  -25.6277   21.1221 H   0  0  0  0  0  0
  -19.6715  -27.3159   20.6731 H   0  0  0  0  0  0
  -17.4190  -26.6634   21.4022 H   0  0  0  0  0  0
  -18.0365  -26.0051   22.9007 H   0  0  0  0  0  0
  -19.7904  -30.7245   24.2290 H   0  0  0  0  0  0
  -17.4996  -31.6261   24.5127 H   0  0  0  0  0  0
  -15.5347  -30.2975   23.7673 H   0  0  0  0  0  0
  -15.8633  -28.0825   22.7074 H   0  0  0  0  0  0
  -24.5841  -30.7136   25.7804 H   0  0  0  0  0  0
  -24.8906  -32.2935   26.4898 H   0  0  0  0  0  0
  -25.8017  -30.8932   27.0241 H   0  0  0  0  0  0
  -26.2910  -29.6795   24.1164 H   0  0  0  0  0  0
  -27.3965  -29.7273   25.4721 H   0  0  0  0  0  0
  -27.8800  -30.4326   23.9467 H   0  0  0  0  0  0
  -27.2603  -33.3644   26.2070 H   0  0  0  0  0  0
  -28.3835  -32.6888   25.0356 H   0  0  0  0  0  0
  -28.0648  -31.8474   26.5456 H   0  0  0  0  0  0
  -28.2576  -38.0122   24.7508 H   0  0  0  0  0  0
  -28.1099  -36.2644   24.6273 H   0  0  0  0  0  0
  -27.2292  -37.1449   25.8860 H   0  0  0  0  0  0
  -20.9348  -29.8791   21.6936 H   0  0  0  0  0  0
  -26.0187  -38.2848   24.1405 H   0  0  0  0  0  0
  -29.1634  -19.9999   22.6521 H   0  0  0  0  0  0
  -29.8911  -17.6632   22.9323 H   0  0  0  0  0  0
  -28.7157  -19.3459   18.4316 H   0  0  0  0  0  0
  -27.5351  -24.9824   16.2590 H   0  0  0  0  0  0
  -27.8332  -25.8868   17.6981 H   0  0  0  0  0  0
  -26.2530  -25.1148   17.4154 H   0  0  0  0  0  0
  -29.2185  -23.4364   16.3193 H   0  0  0  0  0  0
  -29.5824  -22.3990   17.6647 H   0  0  0  0  0  0
  -29.9889  -24.1158   17.7418 H   0  0  0  0  0  0
  -26.7108  -22.6516   16.4613 H   0  0  0  0  0  0
  -25.8763  -22.7124   17.9974 H   0  0  0  0  0  0
  -27.2171  -21.5983   17.7633 H   0  0  0  0  0  0
  -29.3676  -24.9094   20.7375 H   0  0  0  0  0  0
  -27.7754  -25.0368   21.3468 H   0  0  0  0  0  0
  -26.8389  -23.6318   19.8908 H   0  0  0  0  0  0
  -26.4342  -20.2398   20.9325 H   0  0  0  0  0  0
  -26.2071  -21.9345   20.7043 H   0  0  0  0  0  0
  -29.1322  -15.3095   21.7008 H   0  0  0  0  0  0
  -29.5916  -22.4508   19.8377 H   0  0  0  0  0  0
  1 25  1  0  0  0
  1 30  2  0  0  0
  1 85  1  0  0  0
  2  3  1  0  0  0
  2 25  1  0  0  0
  2 88  1  0  0  0
  2 89  1  0  0  0
  3  4  1  0  0  0
  3 90  1  0  0  0
  3 91  1  0  0  0
  4  5  1  0  0  0
  4 92  1  0  0  0
  4 93  1  0  0  0
  5  6  1  0  0  0
  5 26  1  0  0  0
  5 94  1  0  0  0
  6 25  1  0  0  0
  6 95  1  0  0  0
  6 96  1  0  0  0
  7  8  2  0  0  0
  7 26  1  0  0  0
  7 29  1  0  0  0
  8  9  1  0  0  0
  8 22  1  0  0  0
  9 10  1  0  0  0
  9 27  2  0  0  0
 10 11  2  0  0  0
 10 15  1  0  0  0
 11 12  1  0  0  0
 11 97  1  0  0  0
 12 13  2  0  0  0
 12 98  1  0  0  0
 13 14  1  0  0  0
 13 31  1  0  0  0
 14 15  2  0  0  0
 14 99  1  0  0  0
 15100  1  0  0  0
 16 17  2  0  0  0
 16 21  1  0  0  0
 16 31  1  0  0  0
 17 18  1  0  0  0
 17101  1  0  0  0
 18 19  2  0  0  0
 18102  1  0  0  0
 19 20  1  0  0  0
 19 24  1  0  0  0
 20 21  2  0  0  0
 20103  1  0  0  0
 21 23  1  0  0  0
 22 28  1  0  0  0
 22 32  2  0  0  0
 26 27  1  0  0  0
 28104  1  0  0  0
 28105  1  0  0  0
 29106  1  0  0  0
 29107  1  0  0  0
 33 34  1  0  0  0
 33 66  1  0  0  0
 33 70  2  0  0  0
 34 36  1  0  0  0
 34 59  1  0  0  0
 34108  1  0  0  0
 35 44  2  0  0  0
 35 45  1  0  0  0
 35 68  1  0  0  0
 36 56  1  0  0  0
 36109  1  0  0  0
 37 39  1  0  0  0
 37 47  1  0  0  0
 37 66  1  0  0  0
 37110  1  0  0  0
 38 43  2  0  0  0
 38 46  1  0  0  0
 38 47  1  0  0  0
 39 64  1  0  0  0
 39 67  2  0  0  0
 40 52  1  0  0  0
 40 53  2  0  0  0
 40 58  1  0  0  0
 41111  1  0  0  0
 41112  1  0  0  0
 41113  1  0  0  0
 41 48  1  0  0  0
 42 43  1  0  0  0
 42 66  1  0  0  0
 42114  1  0  0  0
 42115  1  0  0  0
 43 44  1  0  0  0
 44116  1  0  0  0
 45 46  2  0  0  0
 45117  1  0  0  0
 46118  1  0  0  0
 47119  1  0  0  0
 47120  1  0  0  0
 48 56  1  0  0  0
 48 65  1  0  0  0
 48121  1  0  0  0
 49 50  1  0  0  0
 49 53  1  0  0  0
 49 64  1  0  0  0
 49122  1  0  0  0
 50 51  1  0  0  0
 50123  1  0  0  0
 50124  1  0  0  0
 51 52  1  0  0  0
 51125  1  0  0  0
 51126  1  0  0  0
 52127  1  0  0  0
 52128  1  0  0  0
 53 54  1  0  0  0
 54 55  2  0  0  0
 54129  1  0  0  0
 55 57  1  0  0  0
 55130  1  0  0  0
 56 69  2  0  0  0
 57 58  2  0  0  0
 57131  1  0  0  0
 58132  1  0  0  0
 59 60  1  0  0  0
 59 61  1  0  0  0
 59 62  1  0  0  0
 60133  1  0  0  0
 60134  1  0  0  0
 60135  1  0  0  0
 61136  1  0  0  0
 61137  1  0  0  0
 61138  1  0  0  0
 62139  1  0  0  0
 62140  1  0  0  0
 62141  1  0  0  0
 63 65  1  0  0  0
 63142  1  0  0  0
 63143  1  0  0  0
 63144  1  0  0  0
 64145  1  0  0  0
 65146  1  0  0  0
 68 81  1  0  0  0
 71 72  2  0  0  0
 71 74  1  0  0  0
 71147  1  0  0  0
 72 75  1  0  0  0
 72148  1  0  0  0
 73 74  2  0  0  0
 73 76  1  0  0  0
 73149  1  0  0  0
 74 77  1  0  0  0
 75 76  2  0  0  0
 75 85  1  0  0  0
 76 87  1  0  0  0
 77 84  1  0  0  0
 77 86  2  0  0  0
 78150  1  0  0  0
 78151  1  0  0  0
 78152  1  0  0  0
 78 83  1  0  0  0
 79 83  1  0  0  0
 79153  1  0  0  0
 79154  1  0  0  0
 79155  1  0  0  0
 80 83  1  0  0  0
 80156  1  0  0  0
 80157  1  0  0  0
 80158  1  0  0  0
 81159  1  0  0  0
 81160  1  0  0  0
 81 82  1  0  0  0
 82 83  1  0  0  0
 82 86  1  0  0  0
 82161  1  0  0  0
 84162  1  0  0  0
 84163  1  0  0  0
 85164  1  0  0  0
 86165  1  0  0  0
M  CHG  1  86   1
M  ISO  4   1 100  68 101  81 101  85 100
M  END
> <chiral flag>
0

> <version>
0

> <s_m_source_file>
/data/baiqing/PycharmProjects/Reinvent-master-3.2/result/LINK_invent/BTK/process_docking_weight1_custom_product_contain_oxygen_bond_distance_aromatic_linkinvent_7_9_3/rearranged_h_0073.sdf

> <i_m_source_file_index>
39

> <r_mmod_Potential_Energy-OPLS-2005>
-119.062103271484

> <r_mmod_Stretch_Energy-OPLS-2005>
95.4842758178711

> <r_mmod_Bend_Energy-OPLS-2005>
193.518630981445

> <r_mmod_Torsional_Energy-OPLS-2005>
314.222595214844

> <r_mmod_Improper_Torsional_Energy-OPLS-2005>
7.20427465438843

> <r_mmod_Van_der_Waal_Energy-OPLS-2005>
143.989318847656

> <r_mmod_Electrostatic_Energy-OPLS-2005>
-502.295196533203

> <r_mmod_Solvation_Energy-OPLS-2005>
-425.541229248047

> <b_mmod_Minimization_Converged-OPLS-2005>
0

> <r_mmod_RMS_Derivative-OPLS-2005>
5.74560117721558

$$$$
39
                    3D
 Structure written by MMmdl.
158167  0  0  1  0            999 V2000
  -30.5948  -14.8995   20.3887 C   0  0  0  0  0  0
  -30.4234  -12.5610   19.4833 C   0  0  0  0  0  0
  -29.5099  -12.4947   18.2428 C   0  0  0  0  0  0
  -28.0431  -12.2980   18.6669 C   0  0  0  0  0  0
  -27.6201  -13.2473   19.8226 C   0  0  2  0  0  0
  -28.6675  -13.2921   20.9543 C   0  0  0  0  0  0
  -25.2420  -13.8220   20.5677 C   0  0  0  0  0  0
  -24.1748  -13.0427   20.9236 C   0  0  0  0  0  0
  -24.6381  -11.6926   20.8781 C   0  0  0  0  0  0
  -23.9072  -10.4297   21.0425 C   0  0  0  0  0  0
  -24.3622   -9.4213   21.9198 C   0  0  0  0  0  0
  -23.6299   -8.2244   22.0761 C   0  0  0  0  0  0
  -22.4286   -8.0281   21.3541 C   0  0  0  0  0  0
  -21.9915   -9.0261   20.4650 C   0  0  0  0  0  0
  -22.7243  -10.2143   20.3068 C   0  0  0  0  0  0
  -21.6860   -6.0741   22.5283 C   0  0  0  0  0  0
  -21.4012   -6.5646   23.8214 C   0  0  0  0  0  0
  -21.3649   -5.6797   24.9173 C   0  0  0  0  0  0
  -21.6045   -4.3063   24.7224 C   0  0  0  0  0  0
  -21.8820   -3.8153   23.4346 C   0  0  0  0  0  0
  -21.9195   -4.6970   22.3402 C   0  0  0  0  0  0
  -22.7778  -13.5207   21.1868 C   0  0  0  0  0  0
  -22.1666   -4.2155   21.0980 F   0  0  0  0  0  0
  -21.5612   -3.4544   25.7734 F   0  0  0  0  0  0
  -29.9301  -13.6851   20.3203 N   0  0  0  0  0  0
  -26.2842  -12.9454   20.3201 N   0  0  0  0  0  0
  -25.9309  -11.6600   20.5757 N   0  0  0  0  0  0
  -22.0440  -12.8205   22.0448 N   0  0  0  0  0  0
  -25.4069  -15.1921   20.4032 N   0  0  0  0  0  0
  -31.8239  -14.8670   20.2936 O   0  0  0  0  0  0
  -21.6642   -6.8879   21.4245 O   0  0  0  0  0  0
  -22.3478  -14.5520   20.6724 O   0  0  0  0  0  0
  -24.6350  -31.8482   23.1886 C   0  0  0  0  0  0
  -25.9129  -32.4751   23.8256 C   0  0  1  0  0  0
  -27.2170  -27.2124   20.1403 C   0  0  0  0  0  0
  -25.5879  -33.8544   24.2174 N   0  0  0  0  0  0
  -23.4316  -30.4638   21.5379 C   0  0  2  0  0  0
  -24.8729  -28.8955   20.1067 C   0  0  0  0  0  0
  -22.7504  -29.4556   22.4952 C   0  0  0  0  0  0
  -18.0314  -28.1390   22.8338 C   0  0  0  0  0  0
  -24.1463  -36.7288   23.2644 C   0  0  0  0  0  0
  -25.9726  -30.7519   21.3577 C   0  0  0  0  0  0
  -26.0427  -29.3619   20.7196 C   0  0  0  0  0  0
  -27.2128  -28.5320   20.7220 C   0  0  0  0  0  0
  -26.0208  -26.8188   19.5020 C   0  0  0  0  0  0
  -24.8721  -27.6381   19.4783 C   0  0  0  0  0  0
  -23.6412  -29.7806   20.1583 C   0  0  0  0  0  0
  -25.4098  -36.3069   24.0319 C   0  0  1  0  0  0
  -20.5911  -28.3660   23.1261 C   0  0  2  0  0  0
  -20.6788  -26.9429   22.5285 C   0  0  0  0  0  0
  -19.5845  -26.6533   21.5022 C   0  0  0  0  0  0
  -18.1994  -26.8001   22.1382 C   0  0  0  0  0  0
  -19.1556  -28.8831   23.2824 C   0  0  0  0  0  0
  -18.9438  -30.1362   23.8973 C   0  0  0  0  0  0
  -17.6425  -30.6479   24.0629 C   0  0  0  0  0  0
  -25.9057  -34.9461   23.5070 C   0  0  0  0  0  0
  -16.5332  -29.9014   23.6290 C   0  0  0  0  0  0
  -16.7289  -28.6498   23.0176 C   0  0  0  0  0  0
  -26.4495  -31.6593   25.0655 C   0  0  0  0  0  0
  -25.3722  -31.3735   26.1389 C   0  0  0  0  0  0
  -27.0302  -30.3022   24.6071 C   0  0  0  0  0  0
  -27.6040  -32.4330   25.7432 C   0  0  0  0  0  0
  -27.5560  -37.1808   24.8474 C   0  0  0  0  0  0
  -21.4232  -29.2978   22.3636 N   0  0  0  0  0  0
  -26.4257  -37.3786   23.9436 N   0  0  0  0  0  0
  -24.7011  -31.0407   22.0858 N   0  0  0  0  0  0
  -23.4184  -28.8145   23.3104 O   0  0  0  0  0  0
  -28.3294  -26.3277   20.2418 O   0  0  0  0  0  0
  -26.5686  -34.8970   22.4670 O   0  0  0  0  0  0
  -23.5506  -32.1314   23.7196 O   0  0  0  0  0  0
  -27.3401  -18.1195   21.7449 C   0  0  0  0  0  0
  -28.1827  -17.0675   21.3509 C   0  0  0  0  0  0
  -29.4643  -18.7230   20.1232 C   0  0  0  0  0  0
  -27.5397  -19.4612   21.3475 C   0  0  0  0  0  0
  -28.6304  -19.8834   20.5267 C   0  0  0  0  0  0
  -29.2771  -17.3007   20.5049 C   0  0  0  0  0  0
  -27.9040  -22.2637   19.4111 C   0  0  0  0  0  0
  -29.2169  -22.4458   21.0055 C   0  0  0  0  0  0
  -28.1511  -23.4870   20.4256 C   0  0  2  0  0  0
  -26.4914  -20.4442   21.8358 C   0  0  0  0  0  0
  -26.9286  -23.7594   21.3178 C   0  0  0  0  0  0
  -28.4301  -24.9178   19.6648 C   0  0  0  0  0  0
  -28.7313  -21.3517   20.1239 N   0  0  0  0  0  0
  -30.0026  -16.1025   19.9376 N   0  0  0  0  0  0
  -27.2281  -22.0896   18.4135 O   0  0  0  0  0  0
  -31.4592  -12.7013   19.1681 H   0  0  0  0  0  0
  -30.4035  -11.6248   20.0423 H   0  0  0  0  0  0
  -29.8257  -11.6775   17.5904 H   0  0  0  0  0  0
  -29.6114  -13.4120   17.6610 H   0  0  0  0  0  0
  -27.9405  -11.2614   18.9957 H   0  0  0  0  0  0
  -27.3795  -12.4084   17.8091 H   0  0  0  0  0  0
  -27.5763  -14.2439   19.3812 H   0  0  0  0  0  0
  -28.7508  -12.3265   21.4556 H   0  0  0  0  0  0
  -28.3834  -14.0115   21.7208 H   0  0  0  0  0  0
  -25.2764   -9.5693   22.4775 H   0  0  0  0  0  0
  -24.0004   -7.4641   22.7483 H   0  0  0  0  0  0
  -21.0842   -8.8788   19.8963 H   0  0  0  0  0  0
  -22.3701  -10.9682   19.6179 H   0  0  0  0  0  0
  -21.2019   -7.6155   23.9716 H   0  0  0  0  0  0
  -21.1458   -6.0527   25.9071 H   0  0  0  0  0  0
  -22.0611   -2.7618   23.2847 H   0  0  0  0  0  0
  -22.4061  -11.9866   22.4825 H   0  0  0  0  0  0
  -21.1063  -13.1234   22.2642 H   0  0  0  0  0  0
  -24.6381  -15.8425   20.5131 H   0  0  0  0  0  0
  -26.2531  -15.6334   20.0682 H   0  0  0  0  0  0
  -26.7171  -32.5425   23.0987 H   0  0  0  0  0  0
  -24.9957  -33.9621   25.0276 H   0  0  0  0  0  0
  -22.7336  -31.2888   21.3884 H   0  0  0  0  0  0
  -23.3724  -35.9612   23.3281 H   0  0  0  0  0  0
  -24.3555  -36.8951   22.2064 H   0  0  0  0  0  0
  -23.7208  -37.6479   23.6692 H   0  0  0  0  0  0
  -26.0844  -31.4815   20.5545 H   0  0  0  0  0  0
  -26.8661  -30.8389   21.9631 H   0  0  0  0  0  0
  -28.1075  -28.8825   21.2157 H   0  0  0  0  0  0
  -25.9349  -25.8432   19.0494 H   0  0  0  0  0  0
  -23.9792  -27.2782   18.9832 H   0  0  0  0  0  0
  -23.7523  -30.5437   19.3872 H   0  0  0  0  0  0
  -22.7614  -29.1980   19.8725 H   0  0  0  0  0  0
  -25.1271  -36.1891   25.0801 H   0  0  0  0  0  0
  -20.9940  -28.3186   24.1379 H   0  0  0  0  0  0
  -20.5621  -26.2272   23.3434 H   0  0  0  0  0  0
  -21.6633  -26.7433   22.1005 H   0  0  0  0  0  0
  -19.7087  -25.6484   21.0984 H   0  0  0  0  0  0
  -19.6851  -27.3402   20.6595 H   0  0  0  0  0  0
  -17.4337  -26.6784   21.3710 H   0  0  0  0  0  0
  -18.0389  -26.0057   22.8695 H   0  0  0  0  0  0
  -19.7891  -30.7120   24.2513 H   0  0  0  0  0  0
  -17.4933  -31.6101   24.5340 H   0  0  0  0  0  0
  -15.5315  -30.2893   23.7638 H   0  0  0  0  0  0
  -15.8708  -28.0847   22.6779 H   0  0  0  0  0  0
  -24.5930  -30.7020   25.7760 H   0  0  0  0  0  0
  -24.8869  -32.2900   26.4762 H   0  0  0  0  0  0
  -25.8082  -30.9007   27.0201 H   0  0  0  0  0  0
  -26.2843  -29.6796   24.1118 H   0  0  0  0  0  0
  -27.4042  -29.7250   25.4536 H   0  0  0  0  0  0
  -27.8693  -30.4316   23.9227 H   0  0  0  0  0  0
  -27.2648  -33.3665   26.1939 H   0  0  0  0  0  0
  -28.3903  -32.6832   25.0287 H   0  0  0  0  0  0
  -28.0637  -31.8486   26.5420 H   0  0  0  0  0  0
  -28.2589  -38.0098   24.7534 H   0  0  0  0  0  0
  -28.1040  -36.2642   24.6253 H   0  0  0  0  0  0
  -27.2313  -37.1432   25.8888 H   0  0  0  0  0  0
  -20.9492  -29.8499   21.6616 H   0  0  0  0  0  0
  -26.0119  -38.2846   24.1453 H   0  0  0  0  0  0
  -26.4817  -17.8734   22.3543 H   0  0  0  0  0  0
  -27.9218  -16.0724   21.6642 H   0  0  0  0  0  0
  -30.2714  -18.9446   19.4404 H   0  0  0  0  0  0
  -29.0886  -22.2334   22.0704 H   0  0  0  0  0  0
  -30.2528  -22.7195   20.7983 H   0  0  0  0  0  0
  -25.6060  -19.9428   22.2304 H   0  0  0  0  0  0
  -26.1295  -21.0812   21.0318 H   0  0  0  0  0  0
  -26.9162  -21.0436   22.6368 H   0  0  0  0  0  0
  -26.8930  -23.1118   22.1864 H   0  0  0  0  0  0
  -25.9832  -23.6660   20.7809 H   0  0  0  0  0  0
  -26.9679  -24.7624   21.7362 H   0  0  0  0  0  0
  -27.8636  -24.9236   18.7331 H   0  0  0  0  0  0
  -29.4617  -24.8762   19.3089 H   0  0  0  0  0  0
  -30.6539  -16.4451   19.2475 H   0  0  0  0  0  0
  1 25  1  0  0  0
  1 30  2  0  0  0
  1 84  1  0  0  0
  2  3  1  0  0  0
  2 25  1  0  0  0
  2 86  1  0  0  0
  2 87  1  0  0  0
  3  4  1  0  0  0
  3 88  1  0  0  0
  3 89  1  0  0  0
  4  5  1  0  0  0
  4 90  1  0  0  0
  4 91  1  0  0  0
  5  6  1  0  0  0
  5 26  1  0  0  0
  5 92  1  0  0  0
  6 25  1  0  0  0
  6 93  1  0  0  0
  6 94  1  0  0  0
  7  8  2  0  0  0
  7 26  1  0  0  0
  7 29  1  0  0  0
  8  9  1  0  0  0
  8 22  1  0  0  0
  9 10  1  0  0  0
  9 27  2  0  0  0
 10 11  2  0  0  0
 10 15  1  0  0  0
 11 12  1  0  0  0
 11 95  1  0  0  0
 12 13  2  0  0  0
 12 96  1  0  0  0
 13 14  1  0  0  0
 13 31  1  0  0  0
 14 15  2  0  0  0
 14 97  1  0  0  0
 15 98  1  0  0  0
 16 17  2  0  0  0
 16 21  1  0  0  0
 16 31  1  0  0  0
 17 18  1  0  0  0
 17 99  1  0  0  0
 18 19  2  0  0  0
 18100  1  0  0  0
 19 20  1  0  0  0
 19 24  1  0  0  0
 20 21  2  0  0  0
 20101  1  0  0  0
 21 23  1  0  0  0
 22 28  1  0  0  0
 22 32  2  0  0  0
 26 27  1  0  0  0
 28102  1  0  0  0
 28103  1  0  0  0
 29104  1  0  0  0
 29105  1  0  0  0
 33 34  1  0  0  0
 33 66  1  0  0  0
 33 70  2  0  0  0
 34 36  1  0  0  0
 34 59  1  0  0  0
 34106  1  0  0  0
 35 44  2  0  0  0
 35 45  1  0  0  0
 35 68  1  0  0  0
 36 56  1  0  0  0
 36107  1  0  0  0
 37 39  1  0  0  0
 37 47  1  0  0  0
 37 66  1  0  0  0
 37108  1  0  0  0
 38 43  2  0  0  0
 38 46  1  0  0  0
 38 47  1  0  0  0
 39 64  1  0  0  0
 39 67  2  0  0  0
 40 52  1  0  0  0
 40 53  2  0  0  0
 40 58  1  0  0  0
 41109  1  0  0  0
 41110  1  0  0  0
 41111  1  0  0  0
 41 48  1  0  0  0
 42 43  1  0  0  0
 42 66  1  0  0  0
 42112  1  0  0  0
 42113  1  0  0  0
 43 44  1  0  0  0
 44114  1  0  0  0
 45 46  2  0  0  0
 45115  1  0  0  0
 46116  1  0  0  0
 47117  1  0  0  0
 47118  1  0  0  0
 48 56  1  0  0  0
 48 65  1  0  0  0
 48119  1  0  0  0
 49 50  1  0  0  0
 49 53  1  0  0  0
 49 64  1  0  0  0
 49120  1  0  0  0
 50 51  1  0  0  0
 50121  1  0  0  0
 50122  1  0  0  0
 51 52  1  0  0  0
 51123  1  0  0  0
 51124  1  0  0  0
 52125  1  0  0  0
 52126  1  0  0  0
 53 54  1  0  0  0
 54 55  2  0  0  0
 54127  1  0  0  0
 55 57  1  0  0  0
 55128  1  0  0  0
 56 69  2  0  0  0
 57 58  2  0  0  0
 57129  1  0  0  0
 58130  1  0  0  0
 59 60  1  0  0  0
 59 61  1  0  0  0
 59 62  1  0  0  0
 60131  1  0  0  0
 60132  1  0  0  0
 60133  1  0  0  0
 61134  1  0  0  0
 61135  1  0  0  0
 61136  1  0  0  0
 62137  1  0  0  0
 62138  1  0  0  0
 62139  1  0  0  0
 63 65  1  0  0  0
 63140  1  0  0  0
 63141  1  0  0  0
 63142  1  0  0  0
 64143  1  0  0  0
 65144  1  0  0  0
 68 82  1  0  0  0
 71 72  2  0  0  0
 71 74  1  0  0  0
 71145  1  0  0  0
 72 76  1  0  0  0
 72146  1  0  0  0
 73 75  1  0  0  0
 73 76  2  0  0  0
 73147  1  0  0  0
 74 75  2  0  0  0
 74 80  1  0  0  0
 75 83  1  0  0  0
 76 84  1  0  0  0
 77 79  1  0  0  0
 77 83  1  0  0  0
 77 85  2  0  0  0
 78 79  1  0  0  0
 78 83  1  0  0  0
 78148  1  0  0  0
 78149  1  0  0  0
 79 81  1  0  0  0
 79 82  1  0  0  0
 80150  1  0  0  0
 80151  1  0  0  0
 80152  1  0  0  0
 81153  1  0  0  0
 81154  1  0  0  0
 81155  1  0  0  0
 82156  1  0  0  0
 82157  1  0  0  0
 84158  1  0  0  0
M  ISO  4   1 100  68 101  82 101  84 100
M  END
> <chiral flag>
0

> <version>
0

> <s_m_source_file>
/data/baiqing/PycharmProjects/Reinvent-master-3.2/result/LINK_invent/BTK/process_docking_weight1_custom_product_contain_oxygen_bond_distance_aromatic_linkinvent_7_9_3/rearranged_h_0073.sdf

> <i_m_source_file_index>
40

> <r_mmod_Potential_Energy-OPLS-2005>
496.990081787109

> <r_mmod_Stretch_Energy-OPLS-2005>
181.874923706055

> <r_mmod_Bend_Energy-OPLS-2005>
285.850341796875

> <r_mmod_Torsional_Energy-OPLS-2005>
324.580505371094

> <r_mmod_Improper_Torsional_Energy-OPLS-2005>
30.8357219696045

> <r_mmod_Van_der_Waal_Energy-OPLS-2005>
127.661819458008

> <r_mmod_Electrostatic_Energy-OPLS-2005>
-399.873565673828

> <r_mmod_Solvation_Energy-OPLS-2005>
-206.986618041992

> <b_mmod_Minimization_Converged-OPLS-2005>
0

> <r_mmod_RMS_Derivative-OPLS-2005>
5.87788057327271

$$$$
40
                    3D
 Structure written by MMmdl.
159168  0  0  1  0            999 V2000
  -30.6731  -14.4917   20.5952 C   0  0  0  0  0  0
  -30.4379  -12.3251   19.4248 C   0  0  0  0  0  0
  -29.5025  -12.5140   18.2109 C   0  0  0  0  0  0
  -28.0227  -12.3681   18.6217 C   0  0  0  0  0  0
  -27.6674  -13.2017   19.8812 C   0  0  2  0  0  0
  -28.7064  -12.9641   21.0006 C   0  0  0  0  0  0
  -25.2619  -13.8148   20.5678 C   0  0  0  0  0  0
  -24.1854  -13.0436   20.9163 C   0  0  0  0  0  0
  -24.6394  -11.6902   20.8727 C   0  0  0  0  0  0
  -23.9053  -10.4294   21.0400 C   0  0  0  0  0  0
  -24.3610   -9.4213   21.9179 C   0  0  0  0  0  0
  -23.6290   -8.2243   22.0753 C   0  0  0  0  0  0
  -22.4270   -8.0279   21.3543 C   0  0  0  0  0  0
  -21.9898   -9.0254   20.4649 C   0  0  0  0  0  0
  -22.7223  -10.2134   20.3057 C   0  0  0  0  0  0
  -21.6856   -6.0732   22.5278 C   0  0  0  0  0  0
  -21.4011   -6.5637   23.8211 C   0  0  0  0  0  0
  -21.3659   -5.6790   24.9174 C   0  0  0  0  0  0
  -21.6042   -4.3053   24.7222 C   0  0  0  0  0  0
  -21.8822   -3.8144   23.4344 C   0  0  0  0  0  0
  -21.9193   -4.6960   22.3401 C   0  0  0  0  0  0
  -22.7879  -13.5245   21.1829 C   0  0  0  0  0  0
  -22.1664   -4.2148   21.0978 F   0  0  0  0  0  0
  -21.5628   -3.4533   25.7732 F   0  0  0  0  0  0
  -30.0416  -13.2908   20.4630 N   0  0  0  0  0  0
  -26.3050  -12.9305   20.3381 N   0  0  0  0  0  0
  -25.9323  -11.6469   20.5765 N   0  0  0  0  0  0
  -22.0509  -12.8252   22.0387 N   0  0  0  0  0  0
  -25.4355  -15.1865   20.4094 N   0  0  0  0  0  0
  -31.7574  -14.7415   20.0582 O   0  0  0  0  0  0
  -21.6639   -6.8875   21.4239 O   0  0  0  0  0  0
  -22.3580  -14.5557   20.6686 O   0  0  0  0  0  0
  -24.6162  -31.8664   23.2085 C   0  0  0  0  0  0
  -25.9052  -32.4817   23.8384 C   0  0  1  0  0  0
  -27.2382  -27.4176   20.0850 C   0  0  0  0  0  0
  -25.5908  -33.8613   24.2316 N   0  0  0  0  0  0
  -23.4045  -30.4905   21.5489 C   0  0  2  0  0  0
  -24.8486  -28.9503   20.1150 C   0  0  0  0  0  0
  -22.7420  -29.4658   22.4976 C   0  0  0  0  0  0
  -18.0276  -28.1384   22.8491 C   0  0  0  0  0  0
  -24.1485  -36.7307   23.2633 C   0  0  0  0  0  0
  -25.9349  -30.8237   21.3645 C   0  0  0  0  0  0
  -26.0092  -29.4557   20.7127 C   0  0  0  0  0  0
  -27.2011  -28.6934   20.7005 C   0  0  0  0  0  0
  -26.0520  -26.9260   19.4912 C   0  0  0  0  0  0
  -24.8649  -27.6839   19.5062 C   0  0  0  0  0  0
  -23.6130  -29.8213   20.1640 C   0  0  0  0  0  0
  -25.4105  -36.3107   24.0337 C   0  0  1  0  0  0
  -20.5868  -28.3672   23.1316 C   0  0  2  0  0  0
  -20.6767  -26.9405   22.5427 C   0  0  0  0  0  0
  -19.5753  -26.6391   21.5217 C   0  0  0  0  0  0
  -18.1924  -26.7938   22.1612 C   0  0  0  0  0  0
  -19.1526  -28.8843   23.2903 C   0  0  0  0  0  0
  -18.9453  -30.1446   23.8920 C   0  0  0  0  0  0
  -17.6457  -30.6588   24.0570 C   0  0  0  0  0  0
  -25.9040  -34.9474   23.5124 C   0  0  0  0  0  0
  -16.5347  -29.9097   23.6322 C   0  0  0  0  0  0
  -16.7265  -28.6510   23.0346 C   0  0  0  0  0  0
  -26.4474  -31.6606   25.0719 C   0  0  0  0  0  0
  -25.3742  -31.3758   26.1483 C   0  0  0  0  0  0
  -27.0273  -30.3032   24.6111 C   0  0  0  0  0  0
  -27.6075  -32.4315   25.7452 C   0  0  0  0  0  0
  -27.5596  -37.1790   24.8449 C   0  0  0  0  0  0
  -21.4146  -29.3034   22.3714 N   0  0  0  0  0  0
  -26.4287  -37.3802   23.9428 N   0  0  0  0  0  0
  -24.6703  -31.0754   22.0987 N   0  0  0  0  0  0
  -23.4188  -28.8205   23.3025 O   0  0  0  0  0  0
  -28.4264  -26.7050   20.1007 O   0  0  0  0  0  0
  -26.5600  -34.8931   22.4684 O   0  0  0  0  0  0
  -23.5351  -32.1417   23.7477 O   0  0  0  0  0  0
  -29.4151  -18.9142   22.4497 C   0  0  0  0  0  0
  -30.4506  -17.6196   20.1839 C   0  0  0  0  0  0
  -29.8515  -19.7049   21.3615 C   0  0  0  0  0  0
  -30.0182  -16.8360   21.2852 C   0  0  0  0  0  0
  -29.4845  -17.5063   22.4062 C   0  0  0  0  0  0
  -30.3647  -19.0380   20.2189 C   0  0  0  0  0  0
  -29.1240  -23.5253   20.9187 C   0  0  0  0  0  0
  -29.8611  -21.1814   21.5301 C   0  0  0  0  0  0
  -27.9030  -23.0424   18.9316 C   0  0  0  0  0  0
  -28.2775  -21.7259   19.6369 C   0  0  0  0  0  0
  -28.1238  -24.1715   19.9506 C   0  0  2  0  0  0
  -28.5841  -25.5151   19.3005 C   0  0  0  0  0  0
  -29.1787  -22.0820   20.7477 N   0  0  0  0  0  0
  -30.0016  -15.4025   21.3248 N   0  0  0  0  0  0
  -30.5668  -21.6269   22.5765 N   0  3  0  0  0  0
  -29.7748  -24.1482   21.7654 O   0  0  0  0  0  0
  -29.0378  -16.7840   23.4624 F   0  0  0  0  0  0
  -30.8140  -19.7516   19.1585 F   0  0  0  0  0  0
  -31.4795  -12.4477   19.1217 H   0  0  0  0  0  0
  -30.3612  -11.3085   19.8133 H   0  0  0  0  0  0
  -29.7468  -11.7882   17.4343 H   0  0  0  0  0  0
  -29.6658  -13.4983   17.7694 H   0  0  0  0  0  0
  -27.8350  -11.3114   18.8145 H   0  0  0  0  0  0
  -27.3720  -12.6439   17.7913 H   0  0  0  0  0  0
  -27.7177  -14.2524   19.5946 H   0  0  0  0  0  0
  -28.6889  -11.9201   21.3169 H   0  0  0  0  0  0
  -28.4492  -13.5331   21.8948 H   0  0  0  0  0  0
  -25.2757   -9.5684   22.4745 H   0  0  0  0  0  0
  -24.0002   -7.4633   22.7468 H   0  0  0  0  0  0
  -21.0823   -8.8772   19.8960 H   0  0  0  0  0  0
  -22.3682  -10.9670   19.6162 H   0  0  0  0  0  0
  -21.2005   -7.6146   23.9712 H   0  0  0  0  0  0
  -21.1476   -6.0519   25.9077 H   0  0  0  0  0  0
  -22.0601   -2.7606   23.2842 H   0  0  0  0  0  0
  -22.4109  -11.9907   22.4774 H   0  0  0  0  0  0
  -21.1131  -13.1299   22.2586 H   0  0  0  0  0  0
  -24.6688  -15.8417   20.5178 H   0  0  0  0  0  0
  -26.2883  -15.6241   20.0853 H   0  0  0  0  0  0
  -26.7115  -32.5517   23.1142 H   0  0  0  0  0  0
  -25.0084  -33.9770   25.0481 H   0  0  0  0  0  0
  -22.6944  -31.3084   21.4099 H   0  0  0  0  0  0
  -23.3760  -35.9626   23.3276 H   0  0  0  0  0  0
  -24.3594  -36.8936   22.2052 H   0  0  0  0  0  0
  -23.7215  -37.6499   23.6655 H   0  0  0  0  0  0
  -26.0502  -31.5881   20.5944 H   0  0  0  0  0  0
  -26.8221  -30.8761   21.9837 H   0  0  0  0  0  0
  -28.0974  -29.0831   21.1624 H   0  0  0  0  0  0
  -26.0175  -25.9555   19.0195 H   0  0  0  0  0  0
  -23.9697  -27.2862   19.0470 H   0  0  0  0  0  0
  -23.7265  -30.5952   19.4040 H   0  0  0  0  0  0
  -22.7352  -29.2448   19.8669 H   0  0  0  0  0  0
  -25.1279  -36.1960   25.0829 H   0  0  0  0  0  0
  -20.9967  -28.3241   24.1436 H   0  0  0  0  0  0
  -20.5658  -26.2287   23.3620 H   0  0  0  0  0  0
  -21.6639  -26.7444   22.1230 H   0  0  0  0  0  0
  -19.6919  -25.6305   21.1235 H   0  0  0  0  0  0
  -19.6704  -27.3207   20.6752 H   0  0  0  0  0  0
  -17.4211  -26.6705   21.3994 H   0  0  0  0  0  0
  -18.0304  -26.0066   22.8987 H   0  0  0  0  0  0
  -19.7929  -30.7251   24.2303 H   0  0  0  0  0  0
  -17.5015  -31.6265   24.5176 H   0  0  0  0  0  0
  -15.5348  -30.3009   23.7634 H   0  0  0  0  0  0
  -15.8663  -28.0839   22.7052 H   0  0  0  0  0  0
  -24.5899  -30.7109   25.7853 H   0  0  0  0  0  0
  -24.8954  -32.2933   26.4913 H   0  0  0  0  0  0
  -25.8094  -30.8953   27.0255 H   0  0  0  0  0  0
  -26.2798  -29.6808   24.1178 H   0  0  0  0  0  0
  -27.4030  -29.7266   25.4574 H   0  0  0  0  0  0
  -27.8653  -30.4324   23.9258 H   0  0  0  0  0  0
  -27.2726  -33.3623   26.2044 H   0  0  0  0  0  0
  -28.3864  -32.6856   25.0248 H   0  0  0  0  0  0
  -28.0766  -31.8426   26.5345 H   0  0  0  0  0  0
  -28.2586  -38.0116   24.7551 H   0  0  0  0  0  0
  -28.1115  -36.2655   24.6183 H   0  0  0  0  0  0
  -27.2339  -37.1333   25.8856 H   0  0  0  0  0  0
  -20.9313  -29.8749   21.6928 H   0  0  0  0  0  0
  -26.0171  -38.2870   24.1478 H   0  0  0  0  0  0
  -29.0256  -19.3861   23.3403 H   0  0  0  0  0  0
  -30.8465  -17.1464   19.2979 H   0  0  0  0  0  0
  -26.8674  -23.0244   18.5900 H   0  0  0  0  0  0
  -28.5299  -23.1791   18.0488 H   0  0  0  0  0  0
  -28.7343  -21.0357   18.9278 H   0  0  0  0  0  0
  -27.3849  -21.2410   20.0379 H   0  0  0  0  0  0
  -27.1980  -24.3312   20.5031 H   0  0  0  0  0  0
  -28.1091  -25.6534   18.3287 H   0  0  0  0  0  0
  -29.6469  -25.4405   19.0656 H   0  0  0  0  0  0
  -29.2839  -15.0169   21.9195 H   0  0  0  0  0  0
  -31.1050  -20.9991   23.1528 H   0  0  0  0  0  0
  -30.6019  -22.6255   22.7476 H   0  0  0  0  0  0
  1 25  1  0  0  0
  1 30  2  0  0  0
  1 84  1  0  0  0
  2  3  1  0  0  0
  2 25  1  0  0  0
  2 89  1  0  0  0
  2 90  1  0  0  0
  3  4  1  0  0  0
  3 91  1  0  0  0
  3 92  1  0  0  0
  4  5  1  0  0  0
  4 93  1  0  0  0
  4 94  1  0  0  0
  5  6  1  0  0  0
  5 26  1  0  0  0
  5 95  1  0  0  0
  6 25  1  0  0  0
  6 96  1  0  0  0
  6 97  1  0  0  0
  7  8  2  0  0  0
  7 26  1  0  0  0
  7 29  1  0  0  0
  8  9  1  0  0  0
  8 22  1  0  0  0
  9 10  1  0  0  0
  9 27  2  0  0  0
 10 11  2  0  0  0
 10 15  1  0  0  0
 11 12  1  0  0  0
 11 98  1  0  0  0
 12 13  2  0  0  0
 12 99  1  0  0  0
 13 14  1  0  0  0
 13 31  1  0  0  0
 14 15  2  0  0  0
 14100  1  0  0  0
 15101  1  0  0  0
 16 17  2  0  0  0
 16 21  1  0  0  0
 16 31  1  0  0  0
 17 18  1  0  0  0
 17102  1  0  0  0
 18 19  2  0  0  0
 18103  1  0  0  0
 19 20  1  0  0  0
 19 24  1  0  0  0
 20 21  2  0  0  0
 20104  1  0  0  0
 21 23  1  0  0  0
 22 28  1  0  0  0
 22 32  2  0  0  0
 26 27  1  0  0  0
 28105  1  0  0  0
 28106  1  0  0  0
 29107  1  0  0  0
 29108  1  0  0  0
 33 34  1  0  0  0
 33 66  1  0  0  0
 33 70  2  0  0  0
 34 36  1  0  0  0
 34 59  1  0  0  0
 34109  1  0  0  0
 35 44  2  0  0  0
 35 45  1  0  0  0
 35 68  1  0  0  0
 36 56  1  0  0  0
 36110  1  0  0  0
 37 39  1  0  0  0
 37 47  1  0  0  0
 37 66  1  0  0  0
 37111  1  0  0  0
 38 43  2  0  0  0
 38 46  1  0  0  0
 38 47  1  0  0  0
 39 64  1  0  0  0
 39 67  2  0  0  0
 40 52  1  0  0  0
 40 53  2  0  0  0
 40 58  1  0  0  0
 41112  1  0  0  0
 41113  1  0  0  0
 41114  1  0  0  0
 41 48  1  0  0  0
 42 43  1  0  0  0
 42 66  1  0  0  0
 42115  1  0  0  0
 42116  1  0  0  0
 43 44  1  0  0  0
 44117  1  0  0  0
 45 46  2  0  0  0
 45118  1  0  0  0
 46119  1  0  0  0
 47120  1  0  0  0
 47121  1  0  0  0
 48 56  1  0  0  0
 48 65  1  0  0  0
 48122  1  0  0  0
 49 50  1  0  0  0
 49 53  1  0  0  0
 49 64  1  0  0  0
 49123  1  0  0  0
 50 51  1  0  0  0
 50124  1  0  0  0
 50125  1  0  0  0
 51 52  1  0  0  0
 51126  1  0  0  0
 51127  1  0  0  0
 52128  1  0  0  0
 52129  1  0  0  0
 53 54  1  0  0  0
 54 55  2  0  0  0
 54130  1  0  0  0
 55 57  1  0  0  0
 55131  1  0  0  0
 56 69  2  0  0  0
 57 58  2  0  0  0
 57132  1  0  0  0
 58133  1  0  0  0
 59 60  1  0  0  0
 59 61  1  0  0  0
 59 62  1  0  0  0
 60134  1  0  0  0
 60135  1  0  0  0
 60136  1  0  0  0
 61137  1  0  0  0
 61138  1  0  0  0
 61139  1  0  0  0
 62140  1  0  0  0
 62141  1  0  0  0
 62142  1  0  0  0
 63 65  1  0  0  0
 63143  1  0  0  0
 63144  1  0  0  0
 63145  1  0  0  0
 64146  1  0  0  0
 65147  1  0  0  0
 68 82  1  0  0  0
 71 73  2  0  0  0
 71 75  1  0  0  0
 71148  1  0  0  0
 72 74  1  0  0  0
 72 76  2  0  0  0
 72149  1  0  0  0
 73 76  1  0  0  0
 73 78  1  0  0  0
 74 75  2  0  0  0
 74 84  1  0  0  0
 75 87  1  0  0  0
 76 88  1  0  0  0
 77 81  1  0  0  0
 77 83  1  0  0  0
 77 86  2  0  0  0
 78 83  1  0  0  0
 78 85  2  0  0  0
 79 80  1  0  0  0
 79 81  1  0  0  0
 79150  1  0  0  0
 79151  1  0  0  0
 80 83  1  0  0  0
 80152  1  0  0  0
 80153  1  0  0  0
 81 82  1  0  0  0
 81154  1  0  0  0
 82155  1  0  0  0
 82156  1  0  0  0
 84157  1  0  0  0
 85158  1  0  0  0
 85159  1  0  0  0
M  CHG  1  85   1
M  ISO  4   1 100  68 101  82 101  84 100
M  END
> <chiral flag>
0

> <version>
0

> <s_m_source_file>
/data/baiqing/PycharmProjects/Reinvent-master-3.2/result/LINK_invent/BTK/process_docking_weight1_custom_product_contain_oxygen_bond_distance_aromatic_linkinvent_7_9_3/rearranged_h_0073.sdf

> <i_m_source_file_index>
41

> <r_mmod_Potential_Energy-OPLS-2005>
-257.703186035156

> <r_mmod_Stretch_Energy-OPLS-2005>
45.0210304260254

> <r_mmod_Bend_Energy-OPLS-2005>
147.570388793945

> <r_mmod_Torsional_Energy-OPLS-2005>
240.899047851562

> <r_mmod_Improper_Torsional_Energy-OPLS-2005>
3.29234170913696

> <r_mmod_Van_der_Waal_Energy-OPLS-2005>
159.396438598633

> <r_mmod_Electrostatic_Energy-OPLS-2005>
-445.388671875

> <r_mmod_Solvation_Energy-OPLS-2005>
-422.965270996094

> <b_mmod_Minimization_Converged-OPLS-2005>
0

> <r_mmod_RMS_Derivative-OPLS-2005>
0.943760216236115

$$$$
41
                    3D
 Structure written by MMmdl.
165173  0  0  1  0            999 V2000
  -30.6254  -14.6494   20.5182 C   0  0  0  0  0  0
  -30.4365  -12.3947   19.4768 C   0  0  0  0  0  0
  -29.5153  -12.5069   18.2414 C   0  0  0  0  0  0
  -28.0374  -12.3412   18.6454 C   0  0  0  0  0  0
  -27.6555  -13.2172   19.8698 C   0  0  2  0  0  0
  -28.6933  -13.0819   21.0065 C   0  0  0  0  0  0
  -25.2592  -13.8188   20.5725 C   0  0  0  0  0  0
  -24.1847  -13.0460   20.9181 C   0  0  0  0  0  0
  -24.6407  -11.6926   20.8735 C   0  0  0  0  0  0
  -23.9084  -10.4315   21.0403 C   0  0  0  0  0  0
  -24.3635   -9.4223   21.9182 C   0  0  0  0  0  0
  -23.6305   -8.2264   22.0761 C   0  0  0  0  0  0
  -22.4283   -8.0325   21.3571 C   0  0  0  0  0  0
  -21.9933   -9.0294   20.4660 C   0  0  0  0  0  0
  -22.7256  -10.2173   20.3050 C   0  0  0  0  0  0
  -21.6860   -6.0746   22.5282 C   0  0  0  0  0  0
  -21.4012   -6.5639   23.8217 C   0  0  0  0  0  0
  -21.3654   -5.6802   24.9180 C   0  0  0  0  0  0
  -21.6036   -4.3060   24.7229 C   0  0  0  0  0  0
  -21.8814   -3.8148   23.4344 C   0  0  0  0  0  0
  -21.9188   -4.6966   22.3408 C   0  0  0  0  0  0
  -22.7867  -13.5263   21.1839 C   0  0  0  0  0  0
  -22.1659   -4.2144   21.0986 F   0  0  0  0  0  0
  -21.5634   -3.4546   25.7737 F   0  0  0  0  0  0
  -30.0137  -13.4209   20.4537 N   0  0  0  0  0  0
  -26.2997  -12.9349   20.3337 N   0  0  0  0  0  0
  -25.9332  -11.6500   20.5748 N   0  0  0  0  0  0
  -22.0498  -12.8270   22.0395 N   0  0  0  0  0  0
  -25.4380  -15.1903   20.4196 N   0  0  0  0  0  0
  -31.7591  -14.8201   20.0608 O   0  0  0  0  0  0
  -21.6654   -6.8901   21.4260 O   0  0  0  0  0  0
  -22.3551  -14.5564   20.6687 O   0  0  0  0  0  0
  -24.6258  -31.8593   23.2023 C   0  0  0  0  0  0
  -25.9109  -32.4774   23.8352 C   0  0  1  0  0  0
  -27.2155  -27.3198   20.1131 C   0  0  0  0  0  0
  -25.5921  -33.8574   24.2277 N   0  0  0  0  0  0
  -23.4176  -30.4830   21.5464 C   0  0  2  0  0  0
  -24.8602  -28.9336   20.1114 C   0  0  0  0  0  0
  -22.7467  -29.4619   22.4944 C   0  0  0  0  0  0
  -18.0284  -28.1382   22.8485 C   0  0  0  0  0  0
  -24.1483  -36.7298   23.2634 C   0  0  0  0  0  0
  -25.9571  -30.7882   21.3715 C   0  0  0  0  0  0
  -26.0282  -29.4133   20.7183 C   0  0  0  0  0  0
  -27.2092  -28.6167   20.7093 C   0  0  0  0  0  0
  -26.0318  -26.8913   19.4772 C   0  0  0  0  0  0
  -24.8635  -27.6782   19.4814 C   0  0  0  0  0  0
  -23.6306  -29.8172   20.1608 C   0  0  0  0  0  0
  -25.4105  -36.3081   24.0328 C   0  0  1  0  0  0
  -20.5880  -28.3688   23.1285 C   0  0  2  0  0  0
  -20.6766  -26.9409   22.5413 C   0  0  0  0  0  0
  -19.5753  -26.6388   21.5208 C   0  0  0  0  0  0
  -18.1932  -26.7922   22.1626 C   0  0  0  0  0  0
  -19.1534  -28.8851   23.2879 C   0  0  0  0  0  0
  -18.9454  -30.1452   23.8898 C   0  0  0  0  0  0
  -17.6456  -30.6587   24.0572 C   0  0  0  0  0  0
  -25.9046  -34.9450   23.5103 C   0  0  0  0  0  0
  -16.5350  -29.9096   23.6330 C   0  0  0  0  0  0
  -16.7271  -28.6514   23.0345 C   0  0  0  0  0  0
  -26.4505  -31.6574   25.0713 C   0  0  0  0  0  0
  -25.3751  -31.3712   26.1453 C   0  0  0  0  0  0
  -27.0330  -30.2993   24.6139 C   0  0  0  0  0  0
  -27.6059  -32.4312   25.7490 C   0  0  0  0  0  0
  -27.5581  -37.1795   24.8460 C   0  0  0  0  0  0
  -21.4183  -29.3044   22.3679 N   0  0  0  0  0  0
  -26.4277  -37.3789   23.9426 N   0  0  0  0  0  0
  -24.6862  -31.0612   22.0965 N   0  0  0  0  0  0
  -23.4191  -28.8157   23.3020 O   0  0  0  0  0  0
  -28.3491  -26.5005   20.1131 O   0  0  0  0  0  0
  -26.5627  -34.8927   22.4676 O   0  0  0  0  0  0
  -23.5421  -32.1388   23.7355 O   0  0  0  0  0  0
  -30.3682  -17.6870   19.5049 C   0  0  0  0  0  0
  -29.1576  -18.0405   21.5439 C   0  0  0  0  0  0
  -29.3912  -19.9549   19.9626 C   0  0  0  0  0  0
  -29.8448  -17.1209   20.6962 C   0  0  0  0  0  0
  -30.1426  -19.0506   19.1467 C   0  0  0  0  0  0
  -28.9443  -19.4135   21.2002 C   0  0  0  0  0  0
  -29.0138  -21.3427   19.4440 C   0  0  0  0  0  0
  -30.4087  -25.7481   18.1605 C   0  0  0  0  0  0
  -31.3327  -24.7951   20.3057 C   0  0  0  0  0  0
  -31.2305  -23.4363   18.2041 C   0  0  0  0  0  0
  -28.2322  -25.0423   20.3685 C   0  0  0  0  0  0
  -29.0456  -23.9836   19.4730 C   0  0  1  0  0  0
  -30.4808  -24.4881   19.0576 C   0  0  0  0  0  0
  -28.5071  -21.3959   18.2080 N   0  0  0  0  0  0
  -29.8865  -15.6859   21.0277 N   0  0  0  0  0  0
  -29.1463  -22.5690   20.0699 N   0  3  0  0  0  0
  -30.6413  -19.4779   17.9576 F   0  0  0  0  0  0
  -28.2542  -20.2012   22.0641 F   0  0  0  0  0  0
  -31.4807  -12.5083   19.1837 H   0  0  0  0  0  0
  -30.3662  -11.4002   19.9219 H   0  0  0  0  0  0
  -29.7885  -11.7537   17.4994 H   0  0  0  0  0  0
  -29.6547  -13.4768   17.7630 H   0  0  0  0  0  0
  -27.8759  -11.2880   18.8787 H   0  0  0  0  0  0
  -27.3872  -12.5617   17.7981 H   0  0  0  0  0  0
  -27.6730  -14.2531   19.5297 H   0  0  0  0  0  0
  -28.7001  -12.0628   21.3959 H   0  0  0  0  0  0
  -28.4255  -13.7169   21.8515 H   0  0  0  0  0  0
  -25.2765   -9.5691   22.4772 H   0  0  0  0  0  0
  -23.9998   -7.4647   22.7482 H   0  0  0  0  0  0
  -21.0862   -8.8823   19.8956 H   0  0  0  0  0  0
  -22.3713  -10.9739   19.6167 H   0  0  0  0  0  0
  -21.2006   -7.6142   23.9726 H   0  0  0  0  0  0
  -21.1482   -6.0526   25.9090 H   0  0  0  0  0  0
  -22.0593   -2.7603   23.2850 H   0  0  0  0  0  0
  -22.4089  -11.9898   22.4747 H   0  0  0  0  0  0
  -21.1131  -13.1314   22.2629 H   0  0  0  0  0  0
  -24.6825  -15.8571   20.5306 H   0  0  0  0  0  0
  -26.3018  -15.6227   20.1187 H   0  0  0  0  0  0
  -26.7172  -32.5444   23.1098 H   0  0  0  0  0  0
  -25.0072  -33.9718   25.0424 H   0  0  0  0  0  0
  -22.7116  -31.3037   21.4040 H   0  0  0  0  0  0
  -23.3739  -35.9635   23.3287 H   0  0  0  0  0  0
  -24.3576  -36.8926   22.2049 H   0  0  0  0  0  0
  -23.7238  -37.6499   23.6662 H   0  0  0  0  0  0
  -26.0827  -31.5463   20.5972 H   0  0  0  0  0  0
  -26.8400  -30.8421   21.9964 H   0  0  0  0  0  0
  -28.1077  -28.9782   21.1888 H   0  0  0  0  0  0
  -26.0008  -25.9421   18.9622 H   0  0  0  0  0  0
  -23.9728  -27.3123   18.9895 H   0  0  0  0  0  0
  -23.7544  -30.5953   19.4065 H   0  0  0  0  0  0
  -22.7486  -29.2519   19.8551 H   0  0  0  0  0  0
  -25.1277  -36.1927   25.0818 H   0  0  0  0  0  0
  -20.9965  -28.3264   24.1415 H   0  0  0  0  0  0
  -20.5659  -26.2301   23.3615 H   0  0  0  0  0  0
  -21.6639  -26.7437   22.1217 H   0  0  0  0  0  0
  -19.6916  -25.6307   21.1232 H   0  0  0  0  0  0
  -19.6683  -27.3208   20.6746 H   0  0  0  0  0  0
  -17.4190  -26.6651   21.4036 H   0  0  0  0  0  0
  -18.0345  -26.0070   22.9036 H   0  0  0  0  0  0
  -19.7937  -30.7263   24.2266 H   0  0  0  0  0  0
  -17.5020  -31.6255   24.5192 H   0  0  0  0  0  0
  -15.5355  -30.2999   23.7655 H   0  0  0  0  0  0
  -15.8666  -28.0839   22.7045 H   0  0  0  0  0  0
  -24.5944  -30.7024   25.7818 H   0  0  0  0  0  0
  -24.8919  -32.2868   26.4867 H   0  0  0  0  0  0
  -25.8101  -30.8932   27.0236 H   0  0  0  0  0  0
  -26.2877  -29.6756   24.1179 H   0  0  0  0  0  0
  -27.4049  -29.7242   25.4632 H   0  0  0  0  0  0
  -27.8752  -30.4288   23.9334 H   0  0  0  0  0  0
  -27.2652  -33.3608   26.2071 H   0  0  0  0  0  0
  -28.3874  -32.6874   25.0321 H   0  0  0  0  0  0
  -28.0719  -31.8428   26.5407 H   0  0  0  0  0  0
  -28.2574  -38.0118   24.7535 H   0  0  0  0  0  0
  -28.1097  -36.2646   24.6234 H   0  0  0  0  0  0
  -27.2309  -37.1384   25.8865 H   0  0  0  0  0  0
  -20.9352  -29.8773   21.6899 H   0  0  0  0  0  0
  -26.0147  -38.2854   24.1457 H   0  0  0  0  0  0
  -30.9151  -17.0628   18.8128 H   0  0  0  0  0  0
  -28.7507  -17.6852   22.4813 H   0  0  0  0  0  0
  -31.3559  -25.9384   17.6553 H   0  0  0  0  0  0
  -30.1955  -26.6605   18.7108 H   0  0  0  0  0  0
  -29.6521  -25.6400   17.3824 H   0  0  0  0  0  0
  -32.3154  -25.1777   20.0276 H   0  0  0  0  0  0
  -31.4895  -23.9053   20.9154 H   0  0  0  0  0  0
  -30.8690  -25.5513   20.9400 H   0  0  0  0  0  0
  -32.1881  -23.8197   17.8496 H   0  0  0  0  0  0
  -30.6557  -23.1451   17.3232 H   0  0  0  0  0  0
  -31.4651  -22.5314   18.7640 H   0  0  0  0  0  0
  -28.5409  -24.9070   21.4043 H   0  0  0  0  0  0
  -27.1881  -24.7317   20.3728 H   0  0  0  0  0  0
  -28.4741  -23.9120   18.5467 H   0  0  0  0  0  0
  -28.4320  -20.5432   17.6715 H   0  0  0  0  0  0
  -28.1822  -22.2485   17.7873 H   0  0  0  0  0  0
  -29.1109  -15.3671   21.5882 H   0  0  0  0  0  0
  -29.5033  -22.5362   21.0159 H   0  0  0  0  0  0
  1 25  1  0  0  0
  1 30  2  0  0  0
  1 85  1  0  0  0
  2  3  1  0  0  0
  2 25  1  0  0  0
  2 89  1  0  0  0
  2 90  1  0  0  0
  3  4  1  0  0  0
  3 91  1  0  0  0
  3 92  1  0  0  0
  4  5  1  0  0  0
  4 93  1  0  0  0
  4 94  1  0  0  0
  5  6  1  0  0  0
  5 26  1  0  0  0
  5 95  1  0  0  0
  6 25  1  0  0  0
  6 96  1  0  0  0
  6 97  1  0  0  0
  7  8  2  0  0  0
  7 26  1  0  0  0
  7 29  1  0  0  0
  8  9  1  0  0  0
  8 22  1  0  0  0
  9 10  1  0  0  0
  9 27  2  0  0  0
 10 11  2  0  0  0
 10 15  1  0  0  0
 11 12  1  0  0  0
 11 98  1  0  0  0
 12 13  2  0  0  0
 12 99  1  0  0  0
 13 14  1  0  0  0
 13 31  1  0  0  0
 14 15  2  0  0  0
 14100  1  0  0  0
 15101  1  0  0  0
 16 17  2  0  0  0
 16 21  1  0  0  0
 16 31  1  0  0  0
 17 18  1  0  0  0
 17102  1  0  0  0
 18 19  2  0  0  0
 18103  1  0  0  0
 19 20  1  0  0  0
 19 24  1  0  0  0
 20 21  2  0  0  0
 20104  1  0  0  0
 21 23  1  0  0  0
 22 28  1  0  0  0
 22 32  2  0  0  0
 26 27  1  0  0  0
 28105  1  0  0  0
 28106  1  0  0  0
 29107  1  0  0  0
 29108  1  0  0  0
 33 34  1  0  0  0
 33 66  1  0  0  0
 33 70  2  0  0  0
 34 36  1  0  0  0
 34 59  1  0  0  0
 34109  1  0  0  0
 35 44  2  0  0  0
 35 45  1  0  0  0
 35 68  1  0  0  0
 36 56  1  0  0  0
 36110  1  0  0  0
 37 39  1  0  0  0
 37 47  1  0  0  0
 37 66  1  0  0  0
 37111  1  0  0  0
 38 43  2  0  0  0
 38 46  1  0  0  0
 38 47  1  0  0  0
 39 64  1  0  0  0
 39 67  2  0  0  0
 40 52  1  0  0  0
 40 53  2  0  0  0
 40 58  1  0  0  0
 41112  1  0  0  0
 41113  1  0  0  0
 41114  1  0  0  0
 41 48  1  0  0  0
 42 43  1  0  0  0
 42 66  1  0  0  0
 42115  1  0  0  0
 42116  1  0  0  0
 43 44  1  0  0  0
 44117  1  0  0  0
 45 46  2  0  0  0
 45118  1  0  0  0
 46119  1  0  0  0
 47120  1  0  0  0
 47121  1  0  0  0
 48 56  1  0  0  0
 48 65  1  0  0  0
 48122  1  0  0  0
 49 50  1  0  0  0
 49 53  1  0  0  0
 49 64  1  0  0  0
 49123  1  0  0  0
 50 51  1  0  0  0
 50124  1  0  0  0
 50125  1  0  0  0
 51 52  1  0  0  0
 51126  1  0  0  0
 51127  1  0  0  0
 52128  1  0  0  0
 52129  1  0  0  0
 53 54  1  0  0  0
 54 55  2  0  0  0
 54130  1  0  0  0
 55 57  1  0  0  0
 55131  1  0  0  0
 56 69  2  0  0  0
 57 58  2  0  0  0
 57132  1  0  0  0
 58133  1  0  0  0
 59 60  1  0  0  0
 59 61  1  0  0  0
 59 62  1  0  0  0
 60134  1  0  0  0
 60135  1  0  0  0
 60136  1  0  0  0
 61137  1  0  0  0
 61138  1  0  0  0
 61139  1  0  0  0
 62140  1  0  0  0
 62141  1  0  0  0
 62142  1  0  0  0
 63 65  1  0  0  0
 63143  1  0  0  0
 63144  1  0  0  0
 63145  1  0  0  0
 64146  1  0  0  0
 65147  1  0  0  0
 68 81  1  0  0  0
 71 74  2  0  0  0
 71 75  1  0  0  0
 71148  1  0  0  0
 72 74  1  0  0  0
 72 76  2  0  0  0
 72149  1  0  0  0
 73 75  2  0  0  0
 73 76  1  0  0  0
 73 77  1  0  0  0
 74 85  1  0  0  0
 75 87  1  0  0  0
 76 88  1  0  0  0
 77 84  1  0  0  0
 77 86  2  0  0  0
 78150  1  0  0  0
 78151  1  0  0  0
 78152  1  0  0  0
 78 83  1  0  0  0
 79 83  1  0  0  0
 79153  1  0  0  0
 79154  1  0  0  0
 79155  1  0  0  0
 80 83  1  0  0  0
 80156  1  0  0  0
 80157  1  0  0  0
 80158  1  0  0  0
 81159  1  0  0  0
 81160  1  0  0  0
 81 82  1  0  0  0
 82 83  1  0  0  0
 82 86  1  0  0  0
 82161  1  0  0  0
 84162  1  0  0  0
 84163  1  0  0  0
 85164  1  0  0  0
 86165  1  0  0  0
M  CHG  1  86   1
M  ISO  4   1 100  68 101  81 101  85 100
M  END
> <chiral flag>
0

> <version>
0

> <s_m_source_file>
/data/baiqing/PycharmProjects/Reinvent-master-3.2/result/LINK_invent/BTK/process_docking_weight1_custom_product_contain_oxygen_bond_distance_aromatic_linkinvent_7_9_3/rearranged_h_0073.sdf

> <i_m_source_file_index>
42

> <r_mmod_Potential_Energy-OPLS-2005>
-29.6229343414307

> <r_mmod_Stretch_Energy-OPLS-2005>
93.5253143310547

> <r_mmod_Bend_Energy-OPLS-2005>
152.215316772461

> <r_mmod_Torsional_Energy-OPLS-2005>
265.369598388672

> <r_mmod_Improper_Torsional_Energy-OPLS-2005>
3.99260544776917

> <r_mmod_Van_der_Waal_Energy-OPLS-2005>
152.023468017578

> <r_mmod_Electrostatic_Energy-OPLS-2005>
-335.598419189453

> <r_mmod_Solvation_Energy-OPLS-2005>
-408.399322509766

> <b_mmod_Minimization_Converged-OPLS-2005>
0

> <r_mmod_RMS_Derivative-OPLS-2005>
3.49554586410522

$$$$
42
                    3D
 Structure written by MMmdl.
173182  0  0  1  0            999 V2000
  -30.6649  -14.6328   20.4781 C   0  0  0  0  0  0
  -30.4269  -12.3800   19.4693 C   0  0  0  0  0  0
  -29.5252  -12.4891   18.2240 C   0  0  0  0  0  0
  -28.0438  -12.3505   18.6278 C   0  0  0  0  0  0
  -27.6536  -13.2253   19.8551 C   0  0  2  0  0  0
  -28.6778  -13.1047   20.9920 C   0  0  0  0  0  0
  -25.2540  -13.8202   20.5507 C   0  0  0  0  0  0
  -24.1844  -13.0479   20.9211 C   0  0  0  0  0  0
  -24.6362  -11.6960   20.8650 C   0  0  0  0  0  0
  -23.9004  -10.4342   21.0367 C   0  0  0  0  0  0
  -24.3605   -9.4321   21.9152 C   0  0  0  0  0  0
  -23.6289   -8.2357   22.0759 C   0  0  0  0  0  0
  -22.4270   -8.0314   21.3557 C   0  0  0  0  0  0
  -21.9880   -9.0266   20.4627 C   0  0  0  0  0  0
  -22.7205  -10.2161   20.2985 C   0  0  0  0  0  0
  -21.6900   -6.0717   22.5279 C   0  0  0  0  0  0
  -21.4074   -6.5619   23.8216 C   0  0  0  0  0  0
  -21.3661   -5.6779   24.9170 C   0  0  0  0  0  0
  -21.6018   -4.3039   24.7244 C   0  0  0  0  0  0
  -21.8821   -3.8121   23.4375 C   0  0  0  0  0  0
  -21.9227   -4.6927   22.3422 C   0  0  0  0  0  0
  -22.7904  -13.5344   21.1890 C   0  0  0  0  0  0
  -22.1704   -4.2114   21.1010 F   0  0  0  0  0  0
  -21.5616   -3.4518   25.7762 F   0  0  0  0  0  0
  -30.0026  -13.4265   20.4351 N   0  0  0  0  0  0
  -26.2964  -12.9409   20.3194 N   0  0  0  0  0  0
  -25.9310  -11.6576   20.5632 N   0  0  0  0  0  0
  -22.0450  -12.8326   22.0390 N   0  0  0  0  0  0
  -25.4188  -15.1889   20.3882 N   0  0  0  0  0  0
  -31.8460  -14.7158   20.1408 O   0  0  0  0  0  0
  -21.6677   -6.8892   21.4245 O   0  0  0  0  0  0
  -22.3620  -14.5611   20.6649 O   0  0  0  0  0  0
  -24.6216  -31.8617   23.2012 C   0  0  0  0  0  0
  -25.9066  -32.4814   23.8366 C   0  0  1  0  0  0
  -27.2522  -27.3512   20.1349 C   0  0  0  0  0  0
  -25.5910  -33.8601   24.2303 N   0  0  0  0  0  0
  -23.4174  -30.4792   21.5325 C   0  0  2  0  0  0
  -24.8762  -28.9353   20.1095 C   0  0  0  0  0  0
  -22.7455  -29.4654   22.4901 C   0  0  0  0  0  0
  -18.0346  -28.1323   22.8336 C   0  0  0  0  0  0
  -24.1484  -36.7303   23.2656 C   0  0  0  0  0  0
  -25.9544  -30.8065   21.3681 C   0  0  0  0  0  0
  -26.0359  -29.4324   20.7122 C   0  0  0  0  0  0
  -27.2267  -28.6524   20.7148 C   0  0  0  0  0  0
  -26.0678  -26.8929   19.5100 C   0  0  0  0  0  0
  -24.8942  -27.6742   19.4971 C   0  0  0  0  0  0
  -23.6322  -29.7961   20.1543 C   0  0  0  0  0  0
  -25.4105  -36.3076   24.0336 C   0  0  1  0  0  0
  -20.5906  -28.3639   23.1219 C   0  0  2  0  0  0
  -20.6893  -26.9475   22.5142 C   0  0  0  0  0  0
  -19.5871  -26.6608   21.4871 C   0  0  0  0  0  0
  -18.1978  -26.8006   22.1209 C   0  0  0  0  0  0
  -19.1539  -28.8787   23.2816 C   0  0  0  0  0  0
  -18.9418  -30.1377   23.8822 C   0  0  0  0  0  0
  -17.6400  -30.6390   24.0558 C   0  0  0  0  0  0
  -25.9060  -34.9460   23.5108 C   0  0  0  0  0  0
  -16.5318  -29.8842   23.6249 C   0  0  0  0  0  0
  -16.7296  -28.6376   23.0118 C   0  0  0  0  0  0
  -26.4455  -31.6619   25.0733 C   0  0  0  0  0  0
  -25.3708  -31.3734   26.1487 C   0  0  0  0  0  0
  -27.0353  -30.3053   24.6192 C   0  0  0  0  0  0
  -27.6049  -32.4335   25.7508 C   0  0  0  0  0  0
  -27.5567  -37.1828   24.8476 C   0  0  0  0  0  0
  -21.4157  -29.3116   22.3681 N   0  0  0  0  0  0
  -26.4300  -37.3751   23.9421 N   0  0  0  0  0  0
  -24.6800  -31.0675   22.0926 N   0  0  0  0  0  0
  -23.4200  -28.8209   23.2993 O   0  0  0  0  0  0
  -28.3992  -26.5545   20.2168 O   0  0  0  0  0  0
  -26.5612  -34.8911   22.4643 O   0  0  0  0  0  0
  -23.5351  -32.1336   23.7367 O   0  0  0  0  0  0
  -30.3187  -17.0151   18.7413 C   0  0  0  0  0  0
  -27.8398  -17.7850   19.7782 C   0  0  0  0  0  0
  -29.2090  -17.0714   17.8647 C   0  0  0  0  0  0
  -29.0612  -18.1313   20.3933 C   0  0  0  0  0  0
  -30.0736  -17.1292   20.1327 C   0  0  0  0  0  0
  -27.9279  -17.3517   18.4286 C   0  0  0  0  0  0
  -30.1856  -21.6762   21.6698 C   0  0  0  0  0  0
  -29.0121  -17.5828   15.4152 C   0  0  0  0  0  0
  -29.4624  -16.8241   16.4326 C   0  0  0  0  0  0
  -30.4479  -20.2908   20.9688 C   0  0  0  0  0  0
  -28.6478  -21.9733   19.7569 C   0  0  0  0  0  0
  -28.1974  -20.4929   19.9879 C   0  0  0  0  0  0
  -29.0915  -22.6394   21.0682 C   0  0  2  0  0  0
  -30.7321  -24.6048   20.5378 C   0  0  0  0  0  0
  -29.1652  -24.7671   22.5074 C   0  0  0  0  0  0
  -28.2679  -25.0839   20.2027 C   0  0  0  0  0  0
  -29.3216  -24.2448   21.0575 C   0  0  0  0  0  0
  -29.2266  -19.5731   20.5565 N   0  0  0  0  0  0
  -26.7624  -17.2747   17.6629 N   0  0  0  0  0  0
  -29.9198  -15.7708   20.7215 N   0  0  0  0  0  0
  -30.8247  -21.9712   22.6824 O   0  0  0  0  0  0
  -31.4789  -12.4727   19.1846 H   0  0  0  0  0  0
  -30.3481  -11.3933   19.9272 H   0  0  0  0  0  0
  -29.7932  -11.7128   17.5030 H   0  0  0  0  0  0
  -29.6734  -13.4492   17.7244 H   0  0  0  0  0  0
  -27.8729  -11.2938   18.8505 H   0  0  0  0  0  0
  -27.3987  -12.5930   17.7803 H   0  0  0  0  0  0
  -27.6842  -14.2599   19.5319 H   0  0  0  0  0  0
  -28.6586  -12.0976   21.4152 H   0  0  0  0  0  0
  -28.4140  -13.7727   21.8124 H   0  0  0  0  0  0
  -25.2722   -9.5893   22.4737 H   0  0  0  0  0  0
  -23.9976   -7.4782   22.7506 H   0  0  0  0  0  0
  -21.0828   -8.8810   19.8923 H   0  0  0  0  0  0
  -22.3650  -10.9703   19.6084 H   0  0  0  0  0  0
  -21.2116   -7.6140   23.9711 H   0  0  0  0  0  0
  -21.1447   -6.0511   25.9075 H   0  0  0  0  0  0
  -22.0571   -2.7571   23.2903 H   0  0  0  0  0  0
  -22.4019  -11.9945   22.4725 H   0  0  0  0  0  0
  -21.0975  -13.1319   22.2384 H   0  0  0  0  0  0
  -24.5920  -15.7797   20.3431 H   0  0  0  0  0  0
  -26.1973  -15.5796   19.8689 H   0  0  0  0  0  0
  -26.7182  -32.5483   23.1185 H   0  0  0  0  0  0
  -25.0009  -33.9668   25.0414 H   0  0  0  0  0  0
  -22.7117  -31.3026   21.3723 H   0  0  0  0  0  0
  -23.3731  -35.9659   23.3334 H   0  0  0  0  0  0
  -24.3580  -36.8891   22.2066 H   0  0  0  0  0  0
  -23.7232  -37.6525   23.6642 H   0  0  0  0  0  0
  -26.0936  -31.5645   20.5968 H   0  0  0  0  0  0
  -26.8309  -30.8619   22.0011 H   0  0  0  0  0  0
  -28.1173  -29.0342   21.1998 H   0  0  0  0  0  0
  -26.0351  -25.9190   19.0430 H   0  0  0  0  0  0
  -24.0014  -27.2887   19.0264 H   0  0  0  0  0  0
  -23.7339  -30.5595   19.3817 H   0  0  0  0  0  0
  -22.7669  -29.1982   19.8628 H   0  0  0  0  0  0
  -25.1278  -36.1957   25.0825 H   0  0  0  0  0  0
  -20.9951  -28.3177   24.1354 H   0  0  0  0  0  0
  -20.5924  -26.2031   23.3035 H   0  0  0  0  0  0
  -21.6793  -26.7784   22.0819 H   0  0  0  0  0  0
  -19.7076  -25.6693   21.0556 H   0  0  0  0  0  0
  -19.6824  -27.3735   20.6633 H   0  0  0  0  0  0
  -17.4435  -26.7042   21.3420 H   0  0  0  0  0  0
  -18.0101  -25.9980   22.8351 H   0  0  0  0  0  0
  -19.7855  -30.7296   24.2110 H   0  0  0  0  0  0
  -17.4776  -31.6063   24.5201 H   0  0  0  0  0  0
  -15.5300  -30.2636   23.7540 H   0  0  0  0  0  0
  -15.8773  -28.0750   22.6596 H   0  0  0  0  0  0
  -24.5887  -30.7102   25.7760 H   0  0  0  0  0  0
  -24.8955  -32.2925   26.4945 H   0  0  0  0  0  0
  -25.8075  -30.8859   27.0229 H   0  0  0  0  0  0
  -26.2932  -29.6826   24.1230 H   0  0  0  0  0  0
  -27.4060  -29.7309   25.4713 H   0  0  0  0  0  0
  -27.8775  -30.4363   23.9405 H   0  0  0  0  0  0
  -27.2676  -33.3610   26.2129 H   0  0  0  0  0  0
  -28.3848  -32.6947   25.0345 H   0  0  0  0  0  0
  -28.0767  -31.8470   26.5407 H   0  0  0  0  0  0
  -28.2627  -38.0082   24.7468 H   0  0  0  0  0  0
  -28.1028  -36.2639   24.6372 H   0  0  0  0  0  0
  -27.2315  -37.1509   25.8884 H   0  0  0  0  0  0
  -20.9310  -29.8951   21.7042 H   0  0  0  0  0  0
  -26.0212  -38.2856   24.1354 H   0  0  0  0  0  0
  -31.2507  -16.6081   18.3719 H   0  0  0  0  0  0
  -26.9235  -18.2419   20.1192 H   0  0  0  0  0  0
  -28.4263  -18.4730   15.5864 H   0  0  0  0  0  0
  -29.2499  -17.3300   14.3884 H   0  0  0  0  0  0
  -30.0631  -15.9467   16.2114 H   0  0  0  0  0  0
  -31.1214  -19.6748   21.5634 H   0  0  0  0  0  0
  -30.9955  -20.5437   20.0595 H   0  0  0  0  0  0
  -27.7940  -22.5093   19.3496 H   0  0  0  0  0  0
  -29.4435  -22.0297   19.0049 H   0  0  0  0  0  0
  -27.7977  -20.1532   19.0302 H   0  0  0  0  0  0
  -27.3543  -20.5033   20.6691 H   0  0  0  0  0  0
  -28.2371  -22.4980   21.7239 H   0  0  0  0  0  0
  -31.5121  -24.2760   21.2200 H   0  0  0  0  0  0
  -30.8530  -25.6821   20.4400 H   0  0  0  0  0  0
  -30.9290  -24.1575   19.5627 H   0  0  0  0  0  0
  -29.8347  -24.2918   23.2294 H   0  0  0  0  0  0
  -28.1464  -24.6234   22.8768 H   0  0  0  0  0  0
  -29.3670  -25.8390   22.5599 H   0  0  0  0  0  0
  -27.2821  -24.8098   20.5711 H   0  0  0  0  0  0
  -28.3260  -24.7852   19.1571 H   0  0  0  0  0  0
  -25.9690  -17.8348   17.9521 H   0  0  0  0  0  0
  -26.8615  -17.2074   16.6530 H   0  0  0  0  0  0
  -29.0226  -15.5743   21.1377 H   0  0  0  0  0  0
  1 25  1  0  0  0
  1 30  2  0  0  0
  1 90  1  0  0  0
  2  3  1  0  0  0
  2 25  1  0  0  0
  2 92  1  0  0  0
  2 93  1  0  0  0
  3  4  1  0  0  0
  3 94  1  0  0  0
  3 95  1  0  0  0
  4  5  1  0  0  0
  4 96  1  0  0  0
  4 97  1  0  0  0
  5  6  1  0  0  0
  5 26  1  0  0  0
  5 98  1  0  0  0
  6 25  1  0  0  0
  6 99  1  0  0  0
  6100  1  0  0  0
  7  8  2  0  0  0
  7 26  1  0  0  0
  7 29  1  0  0  0
  8  9  1  0  0  0
  8 22  1  0  0  0
  9 10  1  0  0  0
  9 27  2  0  0  0
 10 11  2  0  0  0
 10 15  1  0  0  0
 11 12  1  0  0  0
 11101  1  0  0  0
 12 13  2  0  0  0
 12102  1  0  0  0
 13 14  1  0  0  0
 13 31  1  0  0  0
 14 15  2  0  0  0
 14103  1  0  0  0
 15104  1  0  0  0
 16 17  2  0  0  0
 16 21  1  0  0  0
 16 31  1  0  0  0
 17 18  1  0  0  0
 17105  1  0  0  0
 18 19  2  0  0  0
 18106  1  0  0  0
 19 20  1  0  0  0
 19 24  1  0  0  0
 20 21  2  0  0  0
 20107  1  0  0  0
 21 23  1  0  0  0
 22 28  1  0  0  0
 22 32  2  0  0  0
 26 27  1  0  0  0
 28108  1  0  0  0
 28109  1  0  0  0
 29110  1  0  0  0
 29111  1  0  0  0
 33 34  1  0  0  0
 33 66  1  0  0  0
 33 70  2  0  0  0
 34 36  1  0  0  0
 34 59  1  0  0  0
 34112  1  0  0  0
 35 44  2  0  0  0
 35 45  1  0  0  0
 35 68  1  0  0  0
 36 56  1  0  0  0
 36113  1  0  0  0
 37 39  1  0  0  0
 37 47  1  0  0  0
 37 66  1  0  0  0
 37114  1  0  0  0
 38 43  2  0  0  0
 38 46  1  0  0  0
 38 47  1  0  0  0
 39 64  1  0  0  0
 39 67  2  0  0  0
 40 52  1  0  0  0
 40 53  2  0  0  0
 40 58  1  0  0  0
 41115  1  0  0  0
 41116  1  0  0  0
 41117  1  0  0  0
 41 48  1  0  0  0
 42 43  1  0  0  0
 42 66  1  0  0  0
 42118  1  0  0  0
 42119  1  0  0  0
 43 44  1  0  0  0
 44120  1  0  0  0
 45 46  2  0  0  0
 45121  1  0  0  0
 46122  1  0  0  0
 47123  1  0  0  0
 47124  1  0  0  0
 48 56  1  0  0  0
 48 65  1  0  0  0
 48125  1  0  0  0
 49 50  1  0  0  0
 49 53  1  0  0  0
 49 64  1  0  0  0
 49126  1  0  0  0
 50 51  1  0  0  0
 50127  1  0  0  0
 50128  1  0  0  0
 51 52  1  0  0  0
 51129  1  0  0  0
 51130  1  0  0  0
 52131  1  0  0  0
 52132  1  0  0  0
 53 54  1  0  0  0
 54 55  2  0  0  0
 54133  1  0  0  0
 55 57  1  0  0  0
 55134  1  0  0  0
 56 69  2  0  0  0
 57 58  2  0  0  0
 57135  1  0  0  0
 58136  1  0  0  0
 59 60  1  0  0  0
 59 61  1  0  0  0
 59 62  1  0  0  0
 60137  1  0  0  0
 60138  1  0  0  0
 60139  1  0  0  0
 61140  1  0  0  0
 61141  1  0  0  0
 61142  1  0  0  0
 62143  1  0  0  0
 62144  1  0  0  0
 62145  1  0  0  0
 63 65  1  0  0  0
 63146  1  0  0  0
 63147  1  0  0  0
 63148  1  0  0  0
 64149  1  0  0  0
 65150  1  0  0  0
 68 86  1  0  0  0
 71 73  2  0  0  0
 71 75  1  0  0  0
 71151  1  0  0  0
 72 74  1  0  0  0
 72 76  2  0  0  0
 72152  1  0  0  0
 73 76  1  0  0  0
 73 79  1  0  0  0
 74 75  2  0  0  0
 74 88  1  0  0  0
 75 90  1  0  0  0
 76 89  1  0  0  0
 77 80  1  0  0  0
 77 83  1  0  0  0
 77 91  2  0  0  0
 78 79  2  0  0  0
 78153  1  0  0  0
 78154  1  0  0  0
 79155  1  0  0  0
 80 88  1  0  0  0
 80156  1  0  0  0
 80157  1  0  0  0
 81 82  1  0  0  0
 81158  1  0  0  0
 81159  1  0  0  0
 81 83  1  0  0  0
 82 88  1  0  0  0
 82160  1  0  0  0
 82161  1  0  0  0
 83 87  1  0  0  0
 83162  1  0  0  0
 84163  1  0  0  0
 84164  1  0  0  0
 84165  1  0  0  0
 84 87  1  0  0  0
 85 87  1  0  0  0
 85166  1  0  0  0
 85167  1  0  0  0
 85168  1  0  0  0
 86 87  1  0  0  0
 86169  1  0  0  0
 86170  1  0  0  0
 89171  1  0  0  0
 89172  1  0  0  0
 90173  1  0  0  0
M  ISO  4   1 100  68 101  86 101  90 100
M  END
> <chiral flag>
0

> <version>
0

> <s_m_source_file>
/data/baiqing/PycharmProjects/Reinvent-master-3.2/result/LINK_invent/BTK/process_docking_weight1_custom_product_contain_oxygen_bond_distance_aromatic_linkinvent_7_9_3/rearranged_h_0073.sdf

> <i_m_source_file_index>
43

> <r_mmod_Potential_Energy-OPLS-2005>
485.178009033203

> <r_mmod_Stretch_Energy-OPLS-2005>
107.137313842773

> <r_mmod_Bend_Energy-OPLS-2005>
203.255752563477

> <r_mmod_Torsional_Energy-OPLS-2005>
510.516754150391

> <r_mmod_Improper_Torsional_Energy-OPLS-2005>
44.7653160095215

> <r_mmod_Van_der_Waal_Energy-OPLS-2005>
166.695892333984

> <r_mmod_Electrostatic_Energy-OPLS-2005>
-370.046997070312

> <r_mmod_Solvation_Energy-OPLS-2005>
-221.608337402344

> <b_mmod_Minimization_Converged-OPLS-2005>
0

> <r_mmod_RMS_Derivative-OPLS-2005>
12.7174263000488

$$$$
43
                    3D
 Structure written by MMmdl.
172181  0  0  1  0            999 V2000
  -30.6272  -14.6259   20.5088 C   0  0  0  0  0  0
  -30.4335  -12.3839   19.4567 C   0  0  0  0  0  0
  -29.5104  -12.5152   18.2252 C   0  0  0  0  0  0
  -28.0322  -12.3538   18.6320 C   0  0  0  0  0  0
  -27.6549  -13.2166   19.8660 C   0  0  2  0  0  0
  -28.6961  -13.0646   20.9988 C   0  0  0  0  0  0
  -25.2543  -13.8143   20.5535 C   0  0  0  0  0  0
  -24.1835  -13.0436   20.9177 C   0  0  0  0  0  0
  -24.6406  -11.6906   20.8762 C   0  0  0  0  0  0
  -23.9074  -10.4290   21.0422 C   0  0  0  0  0  0
  -24.3625   -9.4199   21.9192 C   0  0  0  0  0  0
  -23.6295   -8.2239   22.0764 C   0  0  0  0  0  0
  -22.4274   -8.0284   21.3560 C   0  0  0  0  0  0
  -21.9912   -9.0261   20.4666 C   0  0  0  0  0  0
  -22.7247  -10.2135   20.3068 C   0  0  0  0  0  0
  -21.6855   -6.0728   22.5278 C   0  0  0  0  0  0
  -21.4014   -6.5631   23.8212 C   0  0  0  0  0  0
  -21.3660   -5.6791   24.9176 C   0  0  0  0  0  0
  -21.6047   -4.3051   24.7228 C   0  0  0  0  0  0
  -21.8819   -3.8143   23.4352 C   0  0  0  0  0  0
  -21.9192   -4.6958   22.3403 C   0  0  0  0  0  0
  -22.7867  -13.5248   21.1843 C   0  0  0  0  0  0
  -22.1658   -4.2138   21.0986 F   0  0  0  0  0  0
  -21.5634   -3.4542   25.7742 F   0  0  0  0  0  0
  -30.0132  -13.4024   20.4397 N   0  0  0  0  0  0
  -26.3004  -12.9335   20.3307 N   0  0  0  0  0  0
  -25.9340  -11.6497   20.5777 N   0  0  0  0  0  0
  -22.0504  -12.8265   22.0421 N   0  0  0  0  0  0
  -25.4213  -15.1821   20.3653 N   0  0  0  0  0  0
  -31.7864  -14.7788   20.1127 O   0  0  0  0  0  0
  -21.6643   -6.8873   21.4242 O   0  0  0  0  0  0
  -22.3549  -14.5539   20.6666 O   0  0  0  0  0  0
  -24.6265  -31.8599   23.2032 C   0  0  0  0  0  0
  -25.9126  -32.4774   23.8352 C   0  0  1  0  0  0
  -27.2241  -27.3233   20.1096 C   0  0  0  0  0  0
  -25.5952  -33.8572   24.2289 N   0  0  0  0  0  0
  -23.4182  -30.4846   21.5452 C   0  0  2  0  0  0
  -24.8633  -28.9403   20.1096 C   0  0  0  0  0  0
  -22.7479  -29.4628   22.4942 C   0  0  0  0  0  0
  -18.0285  -28.1380   22.8470 C   0  0  0  0  0  0
  -24.1485  -36.7282   23.2627 C   0  0  0  0  0  0
  -25.9586  -30.7910   21.3734 C   0  0  0  0  0  0
  -26.0320  -29.4187   20.7153 C   0  0  0  0  0  0
  -27.2132  -28.6201   20.7081 C   0  0  0  0  0  0
  -26.0314  -26.8986   19.4781 C   0  0  0  0  0  0
  -24.8645  -27.6853   19.4838 C   0  0  0  0  0  0
  -23.6311  -29.8189   20.1601 C   0  0  0  0  0  0
  -25.4097  -36.3069   24.0335 C   0  0  1  0  0  0
  -20.5887  -28.3686   23.1278 C   0  0  2  0  0  0
  -20.6772  -26.9410   22.5406 C   0  0  0  0  0  0
  -19.5755  -26.6381   21.5199 C   0  0  0  0  0  0
  -18.1931  -26.7923   22.1607 C   0  0  0  0  0  0
  -19.1538  -28.8850   23.2862 C   0  0  0  0  0  0
  -18.9463  -30.1453   23.8877 C   0  0  0  0  0  0
  -17.6464  -30.6585   24.0552 C   0  0  0  0  0  0
  -25.9047  -34.9452   23.5107 C   0  0  0  0  0  0
  -16.5353  -29.9075   23.6333 C   0  0  0  0  0  0
  -16.7270  -28.6494   23.0345 C   0  0  0  0  0  0
  -26.4509  -31.6579   25.0722 C   0  0  0  0  0  0
  -25.3745  -31.3730   26.1459 C   0  0  0  0  0  0
  -27.0337  -30.2994   24.6181 C   0  0  0  0  0  0
  -27.6072  -32.4306   25.7495 C   0  0  0  0  0  0
  -27.5595  -37.1759   24.8432 C   0  0  0  0  0  0
  -21.4194  -29.3044   22.3685 N   0  0  0  0  0  0
  -26.4256  -37.3786   23.9453 N   0  0  0  0  0  0
  -24.6864  -31.0620   22.0976 N   0  0  0  0  0  0
  -23.4209  -28.8169   23.3018 O   0  0  0  0  0  0
  -28.3484  -26.4830   20.1647 O   0  0  0  0  0  0
  -26.5604  -34.8928   22.4665 O   0  0  0  0  0  0
  -23.5438  -32.1398   23.7375 O   0  0  0  0  0  0
  -30.8564  -19.0982   19.4927 C   0  0  0  0  0  0
  -30.8025  -17.6945   19.7074 C   0  0  0  0  0  0
  -29.1832  -19.4541   21.1748 C   0  0  0  0  0  0
  -30.0754  -20.0339   20.2359 C   0  0  0  0  0  0
  -29.9489  -17.1190   20.6814 C   0  0  0  0  0  0
  -29.1149  -18.0352   21.3951 C   0  0  0  0  0  0
  -31.5105  -21.9737   19.8803 C   0  0  0  0  0  0
  -26.9917  -17.8754   22.6657 C   0  0  0  0  0  0
  -31.6832  -23.2742   19.0970 C   0  0  0  0  0  0
  -29.1046  -22.4711   19.8977 C   0  0  0  0  0  0
  -29.2974  -24.0084   20.3512 C   0  0  2  0  0  0
  -27.3373  -16.6665   24.9111 C   0  0  0  0  0  0
  -25.2996  -16.2052   23.5174 C   0  0  0  0  0  0
  -25.5553  -18.4189   24.6623 C   0  0  0  0  0  0
  -28.1727  -25.0360   19.8936 C   0  0  0  0  0  0
  -26.3136  -17.2878   23.9327 C   0  0  0  0  0  0
  -30.2511  -21.4932   20.0568 N   0  0  0  0  0  0
  -28.2616  -17.5168   22.4080 N   0  0  0  0  0  0
  -29.8412  -15.6752   20.9077 N   0  0  0  0  0  0
  -32.5219  -21.4157   20.3239 O   0  0  0  0  0  0
  -26.3542  -18.6320   21.9280 O   0  0  0  0  0  0
  -30.9246  -24.6956   19.9117 S   0  0  0  0  0  0
  -31.4781  -12.4978   19.1621 H   0  0  0  0  0  0
  -30.3520  -11.3859   19.8897 H   0  0  0  0  0  0
  -29.7745  -11.7728   17.4714 H   0  0  0  0  0  0
  -29.6595  -13.4905   17.7575 H   0  0  0  0  0  0
  -27.8638  -11.2989   18.8541 H   0  0  0  0  0  0
  -27.3816  -12.5965   17.7903 H   0  0  0  0  0  0
  -27.6783  -14.2539   19.5316 H   0  0  0  0  0  0
  -28.7036  -12.0422   21.3803 H   0  0  0  0  0  0
  -28.4398  -13.6952   21.8510 H   0  0  0  0  0  0
  -25.2771   -9.5681   22.4768 H   0  0  0  0  0  0
  -24.0007   -7.4632   22.7487 H   0  0  0  0  0  0
  -21.0841   -8.8795   19.8980 H   0  0  0  0  0  0
  -22.3712  -10.9681   19.6183 H   0  0  0  0  0  0
  -21.2004   -7.6136   23.9703 H   0  0  0  0  0  0
  -21.1482   -6.0523   25.9075 H   0  0  0  0  0  0
  -22.0594   -2.7608   23.2854 H   0  0  0  0  0  0
  -22.4089  -11.9924   22.4839 H   0  0  0  0  0  0
  -21.1124  -13.1310   22.2599 H   0  0  0  0  0  0
  -24.6451  -15.8282   20.4456 H   0  0  0  0  0  0
  -26.2587  -15.6169   20.0019 H   0  0  0  0  0  0
  -26.7193  -32.5443   23.1092 H   0  0  0  0  0  0
  -25.0131  -33.9712   25.0460 H   0  0  0  0  0  0
  -22.7104  -31.3043   21.4036 H   0  0  0  0  0  0
  -23.3781  -35.9573   23.3196 H   0  0  0  0  0  0
  -24.3599  -36.8991   22.2060 H   0  0  0  0  0  0
  -23.7198  -37.6444   23.6699 H   0  0  0  0  0  0
  -26.0896  -31.5549   20.6059 H   0  0  0  0  0  0
  -26.8405  -30.8383   22.0008 H   0  0  0  0  0  0
  -28.1090  -28.9801   21.1951 H   0  0  0  0  0  0
  -25.9690  -25.9428   18.9800 H   0  0  0  0  0  0
  -23.9689  -27.3141   19.0043 H   0  0  0  0  0  0
  -23.7482  -30.5935   19.4011 H   0  0  0  0  0  0
  -22.7512  -29.2459   19.8618 H   0  0  0  0  0  0
  -25.1262  -36.1881   25.0822 H   0  0  0  0  0  0
  -20.9961  -28.3256   24.1405 H   0  0  0  0  0  0
  -20.5653  -26.2300   23.3605 H   0  0  0  0  0  0
  -21.6648  -26.7432   22.1216 H   0  0  0  0  0  0
  -19.6913  -25.6285   21.1245 H   0  0  0  0  0  0
  -19.6696  -27.3173   20.6710 H   0  0  0  0  0  0
  -17.4205  -26.6668   21.4004 H   0  0  0  0  0  0
  -18.0325  -26.0067   22.9009 H   0  0  0  0  0  0
  -19.7943  -30.7265   24.2246 H   0  0  0  0  0  0
  -17.5025  -31.6266   24.5157 H   0  0  0  0  0  0
  -15.5352  -30.2969   23.7672 H   0  0  0  0  0  0
  -15.8670  -28.0808   22.7063 H   0  0  0  0  0  0
  -24.5916  -30.7075   25.7809 H   0  0  0  0  0  0
  -24.8941  -32.2903   26.4871 H   0  0  0  0  0  0
  -25.8084  -30.8934   27.0240 H   0  0  0  0  0  0
  -26.2902  -29.6756   24.1209 H   0  0  0  0  0  0
  -27.4026  -29.7245   25.4685 H   0  0  0  0  0  0
  -27.8778  -30.4268   23.9397 H   0  0  0  0  0  0
  -27.2684  -33.3603   26.2074 H   0  0  0  0  0  0
  -28.3881  -32.6869   25.0324 H   0  0  0  0  0  0
  -28.0737  -31.8428   26.5409 H   0  0  0  0  0  0
  -28.2493  -38.0172   24.7659 H   0  0  0  0  0  0
  -28.1208  -36.2723   24.6001 H   0  0  0  0  0  0
  -27.2357  -37.1102   25.8834 H   0  0  0  0  0  0
  -20.9373  -29.8764   21.6892 H   0  0  0  0  0  0
  -26.0123  -38.2831   24.1563 H   0  0  0  0  0  0
  -31.5432  -19.4527   18.7370 H   0  0  0  0  0  0
  -31.4322  -17.0649   19.0961 H   0  0  0  0  0  0
  -28.5720  -20.1125   21.7754 H   0  0  0  0  0  0
  -31.2525  -23.1472   18.1039 H   0  0  0  0  0  0
  -32.7438  -23.4796   18.9499 H   0  0  0  0  0  0
  -28.8426  -22.4596   18.8392 H   0  0  0  0  0  0
  -28.2309  -22.0677   20.4081 H   0  0  0  0  0  0
  -29.2883  -24.0054   21.4420 H   0  0  0  0  0  0
  -27.8654  -15.8200   24.4698 H   0  0  0  0  0  0
  -26.8438  -16.2929   25.8092 H   0  0  0  0  0  0
  -28.0796  -17.3977   25.2349 H   0  0  0  0  0  0
  -25.8020  -15.3368   23.0908 H   0  0  0  0  0  0
  -24.5917  -16.5753   22.7743 H   0  0  0  0  0  0
  -24.7182  -15.8531   24.3697 H   0  0  0  0  0  0
  -26.2246  -19.2340   24.9415 H   0  0  0  0  0  0
  -25.0798  -18.0592   25.5754 H   0  0  0  0  0  0
  -24.7666  -18.8444   24.0392 H   0  0  0  0  0  0
  -27.2451  -24.6979   20.3564 H   0  0  0  0  0  0
  -28.0394  -24.9255   18.8166 H   0  0  0  0  0  0
  -28.6512  -16.8077   23.0122 H   0  0  0  0  0  0
  -28.9648  -15.3815   21.3082 H   0  0  0  0  0  0
  1 25  1  0  0  0
  1 30  2  0  0  0
  1 89  1  0  0  0
  2  3  1  0  0  0
  2 25  1  0  0  0
  2 93  1  0  0  0
  2 94  1  0  0  0
  3  4  1  0  0  0
  3 95  1  0  0  0
  3 96  1  0  0  0
  4  5  1  0  0  0
  4 97  1  0  0  0
  4 98  1  0  0  0
  5  6  1  0  0  0
  5 26  1  0  0  0
  5 99  1  0  0  0
  6 25  1  0  0  0
  6100  1  0  0  0
  6101  1  0  0  0
  7  8  2  0  0  0
  7 26  1  0  0  0
  7 29  1  0  0  0
  8  9  1  0  0  0
  8 22  1  0  0  0
  9 10  1  0  0  0
  9 27  2  0  0  0
 10 11  2  0  0  0
 10 15  1  0  0  0
 11 12  1  0  0  0
 11102  1  0  0  0
 12 13  2  0  0  0
 12103  1  0  0  0
 13 14  1  0  0  0
 13 31  1  0  0  0
 14 15  2  0  0  0
 14104  1  0  0  0
 15105  1  0  0  0
 16 17  2  0  0  0
 16 21  1  0  0  0
 16 31  1  0  0  0
 17 18  1  0  0  0
 17106  1  0  0  0
 18 19  2  0  0  0
 18107  1  0  0  0
 19 20  1  0  0  0
 19 24  1  0  0  0
 20 21  2  0  0  0
 20108  1  0  0  0
 21 23  1  0  0  0
 22 28  1  0  0  0
 22 32  2  0  0  0
 26 27  1  0  0  0
 28109  1  0  0  0
 28110  1  0  0  0
 29111  1  0  0  0
 29112  1  0  0  0
 33 34  1  0  0  0
 33 66  1  0  0  0
 33 70  2  0  0  0
 34 36  1  0  0  0
 34 59  1  0  0  0
 34113  1  0  0  0
 35 44  2  0  0  0
 35 45  1  0  0  0
 35 68  1  0  0  0
 36 56  1  0  0  0
 36114  1  0  0  0
 37 39  1  0  0  0
 37 47  1  0  0  0
 37 66  1  0  0  0
 37115  1  0  0  0
 38 43  2  0  0  0
 38 46  1  0  0  0
 38 47  1  0  0  0
 39 64  1  0  0  0
 39 67  2  0  0  0
 40 52  1  0  0  0
 40 53  2  0  0  0
 40 58  1  0  0  0
 41116  1  0  0  0
 41117  1  0  0  0
 41118  1  0  0  0
 41 48  1  0  0  0
 42 43  1  0  0  0
 42 66  1  0  0  0
 42119  1  0  0  0
 42120  1  0  0  0
 43 44  1  0  0  0
 44121  1  0  0  0
 45 46  2  0  0  0
 45122  1  0  0  0
 46123  1  0  0  0
 47124  1  0  0  0
 47125  1  0  0  0
 48 56  1  0  0  0
 48 65  1  0  0  0
 48126  1  0  0  0
 49 50  1  0  0  0
 49 53  1  0  0  0
 49 64  1  0  0  0
 49127  1  0  0  0
 50 51  1  0  0  0
 50128  1  0  0  0
 50129  1  0  0  0
 51 52  1  0  0  0
 51130  1  0  0  0
 51131  1  0  0  0
 52132  1  0  0  0
 52133  1  0  0  0
 53 54  1  0  0  0
 54 55  2  0  0  0
 54134  1  0  0  0
 55 57  1  0  0  0
 55135  1  0  0  0
 56 69  2  0  0  0
 57 58  2  0  0  0
 57136  1  0  0  0
 58137  1  0  0  0
 59 60  1  0  0  0
 59 61  1  0  0  0
 59 62  1  0  0  0
 60138  1  0  0  0
 60139  1  0  0  0
 60140  1  0  0  0
 61141  1  0  0  0
 61142  1  0  0  0
 61143  1  0  0  0
 62144  1  0  0  0
 62145  1  0  0  0
 62146  1  0  0  0
 63 65  1  0  0  0
 63147  1  0  0  0
 63148  1  0  0  0
 63149  1  0  0  0
 64150  1  0  0  0
 65151  1  0  0  0
 68 85  1  0  0  0
 71 72  2  0  0  0
 71 74  1  0  0  0
 71152  1  0  0  0
 72 75  1  0  0  0
 72153  1  0  0  0
 73 74  2  0  0  0
 73 76  1  0  0  0
 73154  1  0  0  0
 74 87  1  0  0  0
 75 76  2  0  0  0
 75 89  1  0  0  0
 76 88  1  0  0  0
 77 79  1  0  0  0
 77 87  1  0  0  0
 77 90  2  0  0  0
 78 86  1  0  0  0
 78 88  1  0  0  0
 78 91  2  0  0  0
 79 92  1  0  0  0
 79155  1  0  0  0
 79156  1  0  0  0
 80 81  1  0  0  0
 80 87  1  0  0  0
 80157  1  0  0  0
 80158  1  0  0  0
 81 85  1  0  0  0
 81 92  1  0  0  0
 81159  1  0  0  0
 82160  1  0  0  0
 82161  1  0  0  0
 82162  1  0  0  0
 82 86  1  0  0  0
 83 86  1  0  0  0
 83163  1  0  0  0
 83164  1  0  0  0
 83165  1  0  0  0
 84 86  1  0  0  0
 84166  1  0  0  0
 84167  1  0  0  0
 84168  1  0  0  0
 85169  1  0  0  0
 85170  1  0  0  0
 88171  1  0  0  0
 89172  1  0  0  0
M  ISO  4   1 100  68 101  85 101  89 100
M  END
> <chiral flag>
0

> <version>
0

> <s_m_source_file>
/data/baiqing/PycharmProjects/Reinvent-master-3.2/result/LINK_invent/BTK/process_docking_weight1_custom_product_contain_oxygen_bond_distance_aromatic_linkinvent_7_9_3/rearranged_h_0073.sdf

> <i_m_source_file_index>
44

> <r_mmod_Potential_Energy-OPLS-2005>
74.3832168579102

> <r_mmod_Stretch_Energy-OPLS-2005>
92.3866653442383

> <r_mmod_Bend_Energy-OPLS-2005>
141.99528503418

> <r_mmod_Torsional_Energy-OPLS-2005>
322.750152587891

> <r_mmod_Improper_Torsional_Energy-OPLS-2005>
4.24453973770142

> <r_mmod_Van_der_Waal_Energy-OPLS-2005>
158.549621582031

> <r_mmod_Electrostatic_Energy-OPLS-2005>
-442.595397949219

> <r_mmod_Solvation_Energy-OPLS-2005>
-248.123443603516

> <b_mmod_Minimization_Converged-OPLS-2005>
0

> <r_mmod_RMS_Derivative-OPLS-2005>
1.53865242004395

$$$$
44
                    3D
 Structure written by MMmdl.
165173  0  0  1  0            999 V2000
  -30.6364  -14.7142   20.5307 C   0  0  0  0  0  0
  -30.4367  -12.4532   19.4905 C   0  0  0  0  0  0
  -29.5200  -12.4989   18.2476 C   0  0  0  0  0  0
  -28.0454  -12.3240   18.6558 C   0  0  0  0  0  0
  -27.6452  -13.2318   19.8513 C   0  0  2  0  0  0
  -28.6808  -13.1530   20.9946 C   0  0  0  0  0  0
  -25.2495  -13.8201   20.5703 C   0  0  0  0  0  0
  -24.1785  -13.0452   20.9230 C   0  0  0  0  0  0
  -24.6373  -11.6935   20.8743 C   0  0  0  0  0  0
  -23.9060  -10.4309   21.0407 C   0  0  0  0  0  0
  -24.3605   -9.4218   21.9178 C   0  0  0  0  0  0
  -23.6290   -8.2251   22.0736 C   0  0  0  0  0  0
  -22.4278   -8.0262   21.3533 C   0  0  0  0  0  0
  -21.9925   -9.0243   20.4651 C   0  0  0  0  0  0
  -22.7239  -10.2129   20.3059 C   0  0  0  0  0  0
  -21.6850   -6.0729   22.5287 C   0  0  0  0  0  0
  -21.4022   -6.5632   23.8218 C   0  0  0  0  0  0
  -21.3669   -5.6776   24.9177 C   0  0  0  0  0  0
  -21.6059   -4.3043   24.7224 C   0  0  0  0  0  0
  -21.8811   -3.8137   23.4343 C   0  0  0  0  0  0
  -21.9191   -4.6967   22.3405 C   0  0  0  0  0  0
  -22.7792  -13.5228   21.1865 C   0  0  0  0  0  0
  -22.1644   -4.2148   21.0984 F   0  0  0  0  0  0
  -21.5638   -3.4525   25.7739 F   0  0  0  0  0  0
  -29.9885  -13.5034   20.4304 N   0  0  0  0  0  0
  -26.2927  -12.9419   20.3249 N   0  0  0  0  0  0
  -25.9307  -11.6561   20.5742 N   0  0  0  0  0  0
  -22.0391  -12.8250   22.0421 N   0  0  0  0  0  0
  -25.4190  -15.1913   20.4103 N   0  0  0  0  0  0
  -31.8072  -14.8098   20.1569 O   0  0  0  0  0  0
  -21.6630   -6.8861   21.4238 O   0  0  0  0  0  0
  -22.3504  -14.5513   20.6660 O   0  0  0  0  0  0
  -24.6310  -31.8529   23.1953 C   0  0  0  0  0  0
  -25.9136  -32.4738   23.8301 C   0  0  1  0  0  0
  -27.2332  -27.2618   20.1439 C   0  0  0  0  0  0
  -25.5917  -33.8539   24.2220 N   0  0  0  0  0  0
  -23.4287  -30.4717   21.5400 C   0  0  2  0  0  0
  -24.8774  -28.9118   20.1211 C   0  0  0  0  0  0
  -22.7513  -29.4580   22.4947 C   0  0  0  0  0  0
  -18.0283  -28.1389   22.8464 C   0  0  0  0  0  0
  -24.1488  -36.7301   23.2645 C   0  0  0  0  0  0
  -25.9710  -30.7713   21.3709 C   0  0  0  0  0  0
  -26.0486  -29.3887   20.7235 C   0  0  0  0  0  0
  -27.2291  -28.5800   20.7154 C   0  0  0  0  0  0
  -26.0281  -26.8403   19.5352 C   0  0  0  0  0  0
  -24.8717  -27.6453   19.5173 C   0  0  0  0  0  0
  -23.6476  -29.7975   20.1591 C   0  0  0  0  0  0
  -25.4120  -36.3059   24.0314 C   0  0  1  0  0  0
  -20.5885  -28.3694   23.1284 C   0  0  2  0  0  0
  -20.6769  -26.9422   22.5411 C   0  0  0  0  0  0
  -19.5755  -26.6380   21.5201 C   0  0  0  0  0  0
  -18.1931  -26.7924   22.1606 C   0  0  0  0  0  0
  -19.1542  -28.8863   23.2847 C   0  0  0  0  0  0
  -18.9464  -30.1457   23.8873 C   0  0  0  0  0  0
  -17.6465  -30.6595   24.0559 C   0  0  0  0  0  0
  -25.9051  -34.9437   23.5082 C   0  0  0  0  0  0
  -16.5350  -29.9101   23.6319 C   0  0  0  0  0  0
  -16.7264  -28.6517   23.0336 C   0  0  0  0  0  0
  -26.4477  -31.6581   25.0719 C   0  0  0  0  0  0
  -25.3698  -31.3754   26.1449 C   0  0  0  0  0  0
  -27.0316  -30.2999   24.6201 C   0  0  0  0  0  0
  -27.6014  -32.4330   25.7494 C   0  0  0  0  0  0
  -27.5573  -37.1805   24.8460 C   0  0  0  0  0  0
  -21.4230  -29.3045   22.3698 N   0  0  0  0  0  0
  -26.4283  -37.3771   23.9398 N   0  0  0  0  0  0
  -24.6956  -31.0500   22.0918 N   0  0  0  0  0  0
  -23.4210  -28.8151   23.3063 O   0  0  0  0  0  0
  -28.3756  -26.4196   20.1422 O   0  0  0  0  0  0
  -26.5651  -34.8908   22.4654 O   0  0  0  0  0  0
  -23.5456  -32.1340   23.7254 O   0  0  0  0  0  0
  -32.0500  -18.9252   21.4713 C   0  0  0  0  0  0
  -31.1875  -20.0054   21.1702 C   0  0  0  0  0  0
  -31.6238  -17.5840   21.3656 C   0  0  0  0  0  0
  -29.4257  -18.3856   20.7171 C   0  0  0  0  0  0
  -29.8469  -19.7796   20.7817 C   0  0  0  0  0  0
  -30.3070  -17.2577   20.9661 C   0  0  0  0  0  0
  -28.9789  -20.9647   20.3339 C   0  0  0  0  0  0
  -29.3432  -24.7930   17.4296 C   0  0  0  0  0  0
  -31.2210  -24.0532   18.9196 C   0  0  0  0  0  0
  -29.9178  -22.4180   17.5499 C   0  0  0  0  0  0
  -28.3125  -24.9210   20.3699 C   0  0  0  0  0  0
  -28.7820  -23.5232   19.6165 C   0  0  1  0  0  0
  -29.8052  -23.7000   18.4155 C   0  0  0  0  0  0
  -27.8865  -20.6611   19.6411 N   0  0  0  0  0  0
  -29.8931  -15.8362   20.8625 N   0  0  0  0  0  0
  -29.2494  -22.3221   20.4740 N   0  3  0  0  0  0
  -31.4763  -12.5836   19.1900 H   0  0  0  0  0  0
  -30.3883  -11.4783   19.9789 H   0  0  0  0  0  0
  -29.8158  -11.7194   17.5442 H   0  0  0  0  0  0
  -29.6416  -13.4470   17.7224 H   0  0  0  0  0  0
  -27.9073  -11.2792   18.9323 H   0  0  0  0  0  0
  -27.3918  -12.4974   17.8011 H   0  0  0  0  0  0
  -27.6486  -14.2567   19.4720 H   0  0  0  0  0  0
  -28.7030  -12.1520   21.4311 H   0  0  0  0  0  0
  -28.4039  -13.8302   21.8007 H   0  0  0  0  0  0
  -25.2749   -9.5704   22.4741 H   0  0  0  0  0  0
  -24.0016   -7.4657   22.7457 H   0  0  0  0  0  0
  -21.0864   -8.8769   19.8956 H   0  0  0  0  0  0
  -22.3703  -10.9652   19.6155 H   0  0  0  0  0  0
  -21.1993   -7.6130   23.9734 H   0  0  0  0  0  0
  -21.1507   -6.0492   25.9085 H   0  0  0  0  0  0
  -22.0580   -2.7597   23.2841 H   0  0  0  0  0  0
  -22.4021  -11.9969   22.4916 H   0  0  0  0  0  0
  -21.0981  -13.1272   22.2533 H   0  0  0  0  0  0
  -24.6477  -15.8383   20.5192 H   0  0  0  0  0  0
  -26.2606  -15.6269   20.0572 H   0  0  0  0  0  0
  -26.7226  -32.5383   23.1058 H   0  0  0  0  0  0
  -24.9998  -33.9644   25.0320 H   0  0  0  0  0  0
  -22.7241  -31.2914   21.3898 H   0  0  0  0  0  0
  -23.3727  -35.9659   23.3314 H   0  0  0  0  0  0
  -24.3587  -36.8914   22.2060 H   0  0  0  0  0  0
  -23.7259  -37.6508   23.6673 H   0  0  0  0  0  0
  -26.1039  -31.5283   20.5961 H   0  0  0  0  0  0
  -26.8504  -30.8280   22.0005 H   0  0  0  0  0  0
  -28.1308  -28.9546   21.1801 H   0  0  0  0  0  0
  -25.9541  -25.8742   19.0594 H   0  0  0  0  0  0
  -23.9727  -27.2764   19.0446 H   0  0  0  0  0  0
  -23.7784  -30.5656   19.3959 H   0  0  0  0  0  0
  -22.7658  -29.2304   19.8534 H   0  0  0  0  0  0
  -25.1304  -36.1894   25.0806 H   0  0  0  0  0  0
  -20.9929  -28.3258   24.1419 H   0  0  0  0  0  0
  -20.5658  -26.2306   23.3617 H   0  0  0  0  0  0
  -21.6636  -26.7434   22.1222 H   0  0  0  0  0  0
  -19.6917  -25.6291   21.1235 H   0  0  0  0  0  0
  -19.6682  -27.3181   20.6734 H   0  0  0  0  0  0
  -17.4191  -26.6641   21.4015 H   0  0  0  0  0  0
  -18.0343  -26.0080   22.9026 H   0  0  0  0  0  0
  -19.7953  -30.7256   24.2228 H   0  0  0  0  0  0
  -17.5037  -31.6260   24.5190 H   0  0  0  0  0  0
  -15.5356  -30.2997   23.7653 H   0  0  0  0  0  0
  -15.8666  -28.0825   22.7061 H   0  0  0  0  0  0
  -24.5847  -30.7123   25.7792 H   0  0  0  0  0  0
  -24.8923  -32.2942   26.4867 H   0  0  0  0  0  0
  -25.8021  -30.8929   27.0222 H   0  0  0  0  0  0
  -26.2892  -29.6773   24.1194 H   0  0  0  0  0  0
  -27.3965  -29.7239   25.4709 H   0  0  0  0  0  0
  -27.8782  -30.4275   23.9457 H   0  0  0  0  0  0
  -27.2594  -33.3620   26.2062 H   0  0  0  0  0  0
  -28.3826  -32.6903   25.0337 H   0  0  0  0  0  0
  -28.0685  -31.8472   26.5411 H   0  0  0  0  0  0
  -28.2587  -38.0104   24.7496 H   0  0  0  0  0  0
  -28.1054  -36.2624   24.6285 H   0  0  0  0  0  0
  -27.2293  -37.1476   25.8865 H   0  0  0  0  0  0
  -20.9455  -29.8762   21.6882 H   0  0  0  0  0  0
  -26.0152  -38.2831   24.1408 H   0  0  0  0  0  0
  -33.0696  -19.1226   21.7715 H   0  0  0  0  0  0
  -31.5807  -21.0104   21.2284 H   0  0  0  0  0  0
  -32.3325  -16.8064   21.6059 H   0  0  0  0  0  0
  -28.4074  -18.1726   20.4338 H   0  0  0  0  0  0
  -29.9862  -24.8386   16.5488 H   0  0  0  0  0  0
  -29.3509  -25.7859   17.8770 H   0  0  0  0  0  0
  -28.3275  -24.5982   17.0827 H   0  0  0  0  0  0
  -31.9448  -24.0549   18.1026 H   0  0  0  0  0  0
  -31.5817  -23.3354   19.6556 H   0  0  0  0  0  0
  -31.2585  -25.0421   19.3735 H   0  0  0  0  0  0
  -30.6107  -22.5642   16.7187 H   0  0  0  0  0  0
  -28.9550  -22.1355   17.1203 H   0  0  0  0  0  0
  -30.3035  -21.5584   18.0952 H   0  0  0  0  0  0
  -27.8367  -25.0532   19.4112 H   0  0  0  0  0  0
  -29.3538  -25.0867   20.6367 H   0  0  0  0  0  0
  -27.8635  -23.1525   19.1526 H   0  0  0  0  0  0
  -27.6850  -19.6941   19.4457 H   0  0  0  0  0  0
  -27.1983  -21.3525   19.4030 H   0  0  0  0  0  0
  -28.9168  -15.6533   21.0342 H   0  0  0  0  0  0
  -29.9920  -22.5564   21.1214 H   0  0  0  0  0  0
  1 25  1  0  0  0
  1 30  2  0  0  0
  1 85  1  0  0  0
  2  3  1  0  0  0
  2 25  1  0  0  0
  2 87  1  0  0  0
  2 88  1  0  0  0
  3  4  1  0  0  0
  3 89  1  0  0  0
  3 90  1  0  0  0
  4  5  1  0  0  0
  4 91  1  0  0  0
  4 92  1  0  0  0
  5  6  1  0  0  0
  5 26  1  0  0  0
  5 93  1  0  0  0
  6 25  1  0  0  0
  6 94  1  0  0  0
  6 95  1  0  0  0
  7  8  2  0  0  0
  7 26  1  0  0  0
  7 29  1  0  0  0
  8  9  1  0  0  0
  8 22  1  0  0  0
  9 10  1  0  0  0
  9 27  2  0  0  0
 10 11  2  0  0  0
 10 15  1  0  0  0
 11 12  1  0  0  0
 11 96  1  0  0  0
 12 13  2  0  0  0
 12 97  1  0  0  0
 13 14  1  0  0  0
 13 31  1  0  0  0
 14 15  2  0  0  0
 14 98  1  0  0  0
 15 99  1  0  0  0
 16 17  2  0  0  0
 16 21  1  0  0  0
 16 31  1  0  0  0
 17 18  1  0  0  0
 17100  1  0  0  0
 18 19  2  0  0  0
 18101  1  0  0  0
 19 20  1  0  0  0
 19 24  1  0  0  0
 20 21  2  0  0  0
 20102  1  0  0  0
 21 23  1  0  0  0
 22 28  1  0  0  0
 22 32  2  0  0  0
 26 27  1  0  0  0
 28103  1  0  0  0
 28104  1  0  0  0
 29105  1  0  0  0
 29106  1  0  0  0
 33 34  1  0  0  0
 33 66  1  0  0  0
 33 70  2  0  0  0
 34 36  1  0  0  0
 34 59  1  0  0  0
 34107  1  0  0  0
 35 44  2  0  0  0
 35 45  1  0  0  0
 35 68  1  0  0  0
 36 56  1  0  0  0
 36108  1  0  0  0
 37 39  1  0  0  0
 37 47  1  0  0  0
 37 66  1  0  0  0
 37109  1  0  0  0
 38 43  2  0  0  0
 38 46  1  0  0  0
 38 47  1  0  0  0
 39 64  1  0  0  0
 39 67  2  0  0  0
 40 52  1  0  0  0
 40 53  2  0  0  0
 40 58  1  0  0  0
 41110  1  0  0  0
 41111  1  0  0  0
 41112  1  0  0  0
 41 48  1  0  0  0
 42 43  1  0  0  0
 42 66  1  0  0  0
 42113  1  0  0  0
 42114  1  0  0  0
 43 44  1  0  0  0
 44115  1  0  0  0
 45 46  2  0  0  0
 45116  1  0  0  0
 46117  1  0  0  0
 47118  1  0  0  0
 47119  1  0  0  0
 48 56  1  0  0  0
 48 65  1  0  0  0
 48120  1  0  0  0
 49 50  1  0  0  0
 49 53  1  0  0  0
 49 64  1  0  0  0
 49121  1  0  0  0
 50 51  1  0  0  0
 50122  1  0  0  0
 50123  1  0  0  0
 51 52  1  0  0  0
 51124  1  0  0  0
 51125  1  0  0  0
 52126  1  0  0  0
 52127  1  0  0  0
 53 54  1  0  0  0
 54 55  2  0  0  0
 54128  1  0  0  0
 55 57  1  0  0  0
 55129  1  0  0  0
 56 69  2  0  0  0
 57 58  2  0  0  0
 57130  1  0  0  0
 58131  1  0  0  0
 59 60  1  0  0  0
 59 61  1  0  0  0
 59 62  1  0  0  0
 60132  1  0  0  0
 60133  1  0  0  0
 60134  1  0  0  0
 61135  1  0  0  0
 61136  1  0  0  0
 61137  1  0  0  0
 62138  1  0  0  0
 62139  1  0  0  0
 62140  1  0  0  0
 63 65  1  0  0  0
 63141  1  0  0  0
 63142  1  0  0  0
 63143  1  0  0  0
 64144  1  0  0  0
 65145  1  0  0  0
 68 81  1  0  0  0
 71 72  2  0  0  0
 71 73  1  0  0  0
 71146  1  0  0  0
 72 75  1  0  0  0
 72147  1  0  0  0
 73 76  2  0  0  0
 73148  1  0  0  0
 74 75  2  0  0  0
 74 76  1  0  0  0
 74149  1  0  0  0
 75 77  1  0  0  0
 76 85  1  0  0  0
 77 84  1  0  0  0
 77 86  2  0  0  0
 78150  1  0  0  0
 78151  1  0  0  0
 78152  1  0  0  0
 78 83  1  0  0  0
 79 83  1  0  0  0
 79153  1  0  0  0
 79154  1  0  0  0
 79155  1  0  0  0
 80 83  1  0  0  0
 80156  1  0  0  0
 80157  1  0  0  0
 80158  1  0  0  0
 81159  1  0  0  0
 81160  1  0  0  0
 81 82  1  0  0  0
 82 83  1  0  0  0
 82 86  1  0  0  0
 82161  1  0  0  0
 84162  1  0  0  0
 84163  1  0  0  0
 85164  1  0  0  0
 86165  1  0  0  0
M  CHG  1  86   1
M  ISO  4   1 100  68 101  81 101  85 100
M  END
> <chiral flag>
0

> <version>
0

> <s_m_source_file>
/data/baiqing/PycharmProjects/Reinvent-master-3.2/result/LINK_invent/BTK/process_docking_weight1_custom_product_contain_oxygen_bond_distance_aromatic_linkinvent_7_9_3/rearranged_h_0073.sdf

> <i_m_source_file_index>
45

> <r_mmod_Potential_Energy-OPLS-2005>
161.845336914062

> <r_mmod_Stretch_Energy-OPLS-2005>
135.922866821289

> <r_mmod_Bend_Energy-OPLS-2005>
381.701568603516

> <r_mmod_Torsional_Energy-OPLS-2005>
261.089385986328

> <r_mmod_Improper_Torsional_Energy-OPLS-2005>
5.89682674407959

> <r_mmod_Van_der_Waal_Energy-OPLS-2005>
163.475082397461

> <r_mmod_Electrostatic_Energy-OPLS-2005>
-446.224731445312

> <r_mmod_Solvation_Energy-OPLS-2005>
-413.273895263672

> <b_mmod_Minimization_Converged-OPLS-2005>
0

> <r_mmod_RMS_Derivative-OPLS-2005>
4.7751317024231

$$$$
45
                    3D
 Structure written by MMmdl.
179189  0  0  1  0            999 V2000
  -30.5859  -14.7250   20.4692 C   0  0  0  0  0  0
  -30.4447  -12.4374   19.4740 C   0  0  0  0  0  0
  -29.5140  -12.5092   18.2406 C   0  0  0  0  0  0
  -28.0398  -12.3286   18.6513 C   0  0  0  0  0  0
  -27.6547  -13.2191   19.8596 C   0  0  2  0  0  0
  -28.6964  -13.1173   20.9929 C   0  0  0  0  0  0
  -25.2590  -13.8062   20.5548 C   0  0  0  0  0  0
  -24.1889  -13.0398   20.9249 C   0  0  0  0  0  0
  -24.6459  -11.6877   20.8795 C   0  0  0  0  0  0
  -23.9095  -10.4270   21.0409 C   0  0  0  0  0  0
  -24.3654   -9.4151   21.9132 C   0  0  0  0  0  0
  -23.6289   -8.2215   22.0751 C   0  0  0  0  0  0
  -22.4262   -8.0283   21.3556 C   0  0  0  0  0  0
  -21.9880   -9.0293   20.4705 C   0  0  0  0  0  0
  -22.7247  -10.2136   20.3093 C   0  0  0  0  0  0
  -21.6866   -6.0720   22.5292 C   0  0  0  0  0  0
  -21.4027   -6.5639   23.8217 C   0  0  0  0  0  0
  -21.3674   -5.6811   24.9198 C   0  0  0  0  0  0
  -21.6039   -4.3068   24.7263 C   0  0  0  0  0  0
  -21.8820   -3.8151   23.4391 C   0  0  0  0  0  0
  -21.9220   -4.6952   22.3428 C   0  0  0  0  0  0
  -22.7923  -13.5226   21.1860 C   0  0  0  0  0  0
  -22.1720   -4.2126   21.1015 F   0  0  0  0  0  0
  -21.5603   -3.4559   25.7774 F   0  0  0  0  0  0
  -30.0059  -13.4778   20.4298 N   0  0  0  0  0  0
  -26.3041  -12.9294   20.3323 N   0  0  0  0  0  0
  -25.9402  -11.6458   20.5857 N   0  0  0  0  0  0
  -22.0565  -12.8327   22.0500 N   0  0  0  0  0  0
  -25.4276  -15.1672   20.3514 N   0  0  0  0  0  0
  -31.7428  -14.8952   20.0745 O   0  0  0  0  0  0
  -21.6642   -6.8858   21.4250 O   0  0  0  0  0  0
  -22.3643  -14.5491   20.6613 O   0  0  0  0  0  0
  -24.6270  -31.8560   23.2045 C   0  0  0  0  0  0
  -25.9108  -32.4780   23.8351 C   0  0  1  0  0  0
  -27.2257  -27.3010   20.1150 C   0  0  0  0  0  0
  -25.5896  -33.8590   24.2246 N   0  0  0  0  0  0
  -23.4224  -30.4835   21.5483 C   0  0  2  0  0  0
  -24.8692  -28.9434   20.1114 C   0  0  0  0  0  0
  -22.7479  -29.4627   22.4940 C   0  0  0  0  0  0
  -18.0282  -28.1384   22.8493 C   0  0  0  0  0  0
  -24.1489  -36.7302   23.2637 C   0  0  0  0  0  0
  -25.9674  -30.7862   21.3761 C   0  0  0  0  0  0
  -26.0411  -29.4143   20.7147 C   0  0  0  0  0  0
  -27.2203  -28.6062   20.7068 C   0  0  0  0  0  0
  -26.0263  -26.8943   19.4818 C   0  0  0  0  0  0
  -24.8663  -27.6890   19.4864 C   0  0  0  0  0  0
  -23.6369  -29.8218   20.1627 C   0  0  0  0  0  0
  -25.4125  -36.3095   24.0321 C   0  0  1  0  0  0
  -20.5891  -28.3711   23.1279 C   0  0  2  0  0  0
  -20.6783  -26.9428   22.5418 C   0  0  0  0  0  0
  -19.5756  -26.6403   21.5222 C   0  0  0  0  0  0
  -18.1934  -26.7934   22.1636 C   0  0  0  0  0  0
  -19.1536  -28.8860   23.2880 C   0  0  0  0  0  0
  -18.9447  -30.1455   23.8908 C   0  0  0  0  0  0
  -17.6448  -30.6596   24.0577 C   0  0  0  0  0  0
  -25.9056  -34.9461   23.5086 C   0  0  0  0  0  0
  -16.5341  -29.9083   23.6342 C   0  0  0  0  0  0
  -16.7267  -28.6496   23.0370 C   0  0  0  0  0  0
  -26.4477  -31.6604   25.0718 C   0  0  0  0  0  0
  -25.3710  -31.3773   26.1442 C   0  0  0  0  0  0
  -27.0281  -30.2997   24.6207 C   0  0  0  0  0  0
  -27.6040  -32.4329   25.7472 C   0  0  0  0  0  0
  -27.5587  -37.1805   24.8458 C   0  0  0  0  0  0
  -21.4190  -29.3037   22.3645 N   0  0  0  0  0  0
  -26.4304  -37.3784   23.9391 N   0  0  0  0  0  0
  -24.6918  -31.0575   22.0998 N   0  0  0  0  0  0
  -23.4204  -28.8170   23.3023 O   0  0  0  0  0  0
  -28.3351  -26.4293   20.1749 O   0  0  0  0  0  0
  -26.5654  -34.8927   22.4671 O   0  0  0  0  0  0
  -23.5429  -32.1332   23.7383 O   0  0  0  0  0  0
  -30.6415  -17.9836   19.8344 C   0  0  0  0  0  0
  -28.7687  -19.4699   21.1957 C   0  0  0  0  0  0
  -30.5754  -19.4199   19.6654 C   0  0  0  0  0  0
  -29.6262  -20.2549   20.3793 C   0  0  0  0  0  0
  -28.8005  -18.0492   21.3436 C   0  0  0  0  0  0
  -29.7728  -17.2426   20.6815 C   0  0  0  0  0  0
  -28.7266  -22.6690   21.1778 C   0  0  0  0  0  0
  -26.5137  -17.7394   22.1920 C   0  0  0  0  0  0
  -31.6029  -20.0236   18.7445 C   0  0  0  0  0  0
  -28.2246  -16.8788   23.4945 C   0  0  0  0  0  0
  -29.4526  -22.6322   19.2564 C   0  0  0  0  0  0
  -26.9055  -16.3733   24.0812 C   0  0  2  0  0  0
  -29.2186  -23.8500   20.2398 C   0  0  2  0  0  0
  -25.8302  -17.3178   23.4990 C   0  0  0  0  0  0
  -26.9253  -16.1931   25.6047 C   0  0  0  0  0  0
  -30.4532  -24.5103   20.8731 C   0  0  0  0  0  0
  -25.5971  -18.6024   24.3244 C   0  0  0  0  0  0
  -24.4801  -16.6055   23.2833 C   0  0  0  0  0  0
  -28.1314  -24.9758   19.8914 C   0  0  0  0  0  0
  -29.4684  -21.7373   20.4246 N   0  0  0  0  0  0
  -27.8378  -17.4823   22.2258 N   0  0  0  0  0  0
  -31.7913  -19.3929   17.5891 N   0  0  0  0  0  0
  -29.7602  -15.7684   20.8407 N   0  0  0  0  0  0
  -27.9756  -22.5342   22.1183 O   0  0  0  0  0  0
  -25.8967  -18.2599   21.2565 O   0  0  0  0  0  0
  -32.2316  -21.0394   19.0315 O   0  0  0  0  0  0
  -31.4833  -12.5745   19.1715 H   0  0  0  0  0  0
  -30.3953  -11.4556   19.9477 H   0  0  0  0  0  0
  -29.7943  -11.7549   17.5034 H   0  0  0  0  0  0
  -29.6354  -13.4766   17.7471 H   0  0  0  0  0  0
  -27.8925  -11.2764   18.9053 H   0  0  0  0  0  0
  -27.3815  -12.5281   17.8054 H   0  0  0  0  0  0
  -27.6666  -14.2473   19.4941 H   0  0  0  0  0  0
  -28.7190  -12.1037   21.3944 H   0  0  0  0  0  0
  -28.4250  -13.7667   21.8257 H   0  0  0  0  0  0
  -25.2802   -9.5631   22.4701 H   0  0  0  0  0  0
  -23.9975   -7.4628   22.7498 H   0  0  0  0  0  0
  -21.0752   -8.8870   19.9087 H   0  0  0  0  0  0
  -22.3678  -10.9734   19.6283 H   0  0  0  0  0  0
  -21.2006   -7.6143   23.9705 H   0  0  0  0  0  0
  -21.1516   -6.0545   25.9089 H   0  0  0  0  0  0
  -22.0557   -2.7611   23.2923 H   0  0  0  0  0  0
  -22.4121  -12.0047   22.5042 H   0  0  0  0  0  0
  -21.1227  -13.1513   22.2655 H   0  0  0  0  0  0
  -24.6377  -15.7998   20.3999 H   0  0  0  0  0  0
  -26.2205  -15.5636   19.8655 H   0  0  0  0  0  0
  -26.7191  -32.5431   23.1116 H   0  0  0  0  0  0
  -25.0030  -33.9763   25.0376 H   0  0  0  0  0  0
  -22.7168  -31.3055   21.4091 H   0  0  0  0  0  0
  -23.3746  -35.9641   23.3321 H   0  0  0  0  0  0
  -24.3575  -36.8900   22.2048 H   0  0  0  0  0  0
  -23.7254  -37.6516   23.6640 H   0  0  0  0  0  0
  -26.1047  -31.5538   20.6128 H   0  0  0  0  0  0
  -26.8438  -30.8298   22.0110 H   0  0  0  0  0  0
  -28.1161  -28.9681   21.1905 H   0  0  0  0  0  0
  -25.9462  -25.9436   18.9811 H   0  0  0  0  0  0
  -23.9704  -27.3195   19.0072 H   0  0  0  0  0  0
  -23.7505  -30.5976   19.4043 H   0  0  0  0  0  0
  -22.7549  -29.2498   19.8665 H   0  0  0  0  0  0
  -25.1325  -36.1953   25.0823 H   0  0  0  0  0  0
  -21.0005  -28.3282   24.1389 H   0  0  0  0  0  0
  -20.5709  -26.2304   23.3619 H   0  0  0  0  0  0
  -21.6643  -26.7464   22.1183 H   0  0  0  0  0  0
  -19.6923  -25.6320   21.1230 H   0  0  0  0  0  0
  -19.6694  -27.3246   20.6775 H   0  0  0  0  0  0
  -17.4206  -26.6697   21.4029 H   0  0  0  0  0  0
  -18.0314  -26.0063   22.9020 H   0  0  0  0  0  0
  -19.7912  -30.7255   24.2295 H   0  0  0  0  0  0
  -17.5000  -31.6291   24.5157 H   0  0  0  0  0  0
  -15.5349  -30.2996   23.7656 H   0  0  0  0  0  0
  -15.8671  -28.0836   22.7087 H   0  0  0  0  0  0
  -24.5893  -30.7110   25.7761 H   0  0  0  0  0  0
  -24.8904  -32.2964   26.4808 H   0  0  0  0  0  0
  -25.8034  -30.8986   27.0238 H   0  0  0  0  0  0
  -26.2844  -29.6770   24.1214 H   0  0  0  0  0  0
  -27.3888  -29.7243   25.4740 H   0  0  0  0  0  0
  -27.8768  -30.4204   23.9473 H   0  0  0  0  0  0
  -27.2653  -33.3628   26.2054 H   0  0  0  0  0  0
  -28.3846  -32.6898   25.0296 H   0  0  0  0  0  0
  -28.0706  -31.8447   26.5382 H   0  0  0  0  0  0
  -28.2622  -38.0079   24.7484 H   0  0  0  0  0  0
  -28.1068  -36.2616   24.6323 H   0  0  0  0  0  0
  -27.2296  -37.1498   25.8855 H   0  0  0  0  0  0
  -20.9366  -29.8709   21.6821 H   0  0  0  0  0  0
  -26.0189  -38.2857   24.1391 H   0  0  0  0  0  0
  -31.3878  -17.4227   19.2889 H   0  0  0  0  0  0
  -28.0235  -20.0003   21.7700 H   0  0  0  0  0  0
  -28.9528  -16.0775   23.3835 H   0  0  0  0  0  0
  -28.6608  -17.6510   24.1298 H   0  0  0  0  0  0
  -30.3789  -22.7103   18.6898 H   0  0  0  0  0  0
  -28.6028  -22.4373   18.5943 H   0  0  0  0  0  0
  -26.7416  -15.3849   23.6509 H   0  0  0  0  0  0
  -27.0911  -17.1336   26.1310 H   0  0  0  0  0  0
  -27.7275  -15.5124   25.8949 H   0  0  0  0  0  0
  -25.9857  -15.7617   25.9541 H   0  0  0  0  0  0
  -31.1440  -23.7743   21.2886 H   0  0  0  0  0  0
  -30.1768  -25.1740   21.6924 H   0  0  0  0  0  0
  -31.0085  -25.1062   20.1459 H   0  0  0  0  0  0
  -26.5190  -19.1671   24.4719 H   0  0  0  0  0  0
  -25.1830  -18.3804   25.3086 H   0  0  0  0  0  0
  -24.8903  -19.2654   23.8185 H   0  0  0  0  0  0
  -24.5962  -15.6498   22.7805 H   0  0  0  0  0  0
  -23.8016  -17.2146   22.6849 H   0  0  0  0  0  0
  -23.9947  -16.4030   24.2379 H   0  0  0  0  0  0
  -27.9363  -24.9075   18.8200 H   0  0  0  0  0  0
  -27.2000  -24.6858   20.3797 H   0  0  0  0  0  0
  -31.2577  -18.5641   17.3799 H   0  0  0  0  0  0
  -32.4650  -19.7303   16.9169 H   0  0  0  0  0  0
  -28.9046  -15.4241   21.2440 H   0  0  0  0  0  0
  1 25  1  0  0  0
  1 30  2  0  0  0
  1 93  1  0  0  0
  2  3  1  0  0  0
  2 25  1  0  0  0
  2 97  1  0  0  0
  2 98  1  0  0  0
  3  4  1  0  0  0
  3 99  1  0  0  0
  3100  1  0  0  0
  4  5  1  0  0  0
  4101  1  0  0  0
  4102  1  0  0  0
  5  6  1  0  0  0
  5 26  1  0  0  0
  5103  1  0  0  0
  6 25  1  0  0  0
  6104  1  0  0  0
  6105  1  0  0  0
  7  8  2  0  0  0
  7 26  1  0  0  0
  7 29  1  0  0  0
  8  9  1  0  0  0
  8 22  1  0  0  0
  9 10  1  0  0  0
  9 27  2  0  0  0
 10 11  2  0  0  0
 10 15  1  0  0  0
 11 12  1  0  0  0
 11106  1  0  0  0
 12 13  2  0  0  0
 12107  1  0  0  0
 13 14  1  0  0  0
 13 31  1  0  0  0
 14 15  2  0  0  0
 14108  1  0  0  0
 15109  1  0  0  0
 16 17  2  0  0  0
 16 21  1  0  0  0
 16 31  1  0  0  0
 17 18  1  0  0  0
 17110  1  0  0  0
 18 19  2  0  0  0
 18111  1  0  0  0
 19 20  1  0  0  0
 19 24  1  0  0  0
 20 21  2  0  0  0
 20112  1  0  0  0
 21 23  1  0  0  0
 22 28  1  0  0  0
 22 32  2  0  0  0
 26 27  1  0  0  0
 28113  1  0  0  0
 28114  1  0  0  0
 29115  1  0  0  0
 29116  1  0  0  0
 33 34  1  0  0  0
 33 66  1  0  0  0
 33 70  2  0  0  0
 34 36  1  0  0  0
 34 59  1  0  0  0
 34117  1  0  0  0
 35 44  2  0  0  0
 35 45  1  0  0  0
 35 68  1  0  0  0
 36 56  1  0  0  0
 36118  1  0  0  0
 37 39  1  0  0  0
 37 47  1  0  0  0
 37 66  1  0  0  0
 37119  1  0  0  0
 38 43  2  0  0  0
 38 46  1  0  0  0
 38 47  1  0  0  0
 39 64  1  0  0  0
 39 67  2  0  0  0
 40 52  1  0  0  0
 40 53  2  0  0  0
 40 58  1  0  0  0
 41120  1  0  0  0
 41121  1  0  0  0
 41122  1  0  0  0
 41 48  1  0  0  0
 42 43  1  0  0  0
 42 66  1  0  0  0
 42123  1  0  0  0
 42124  1  0  0  0
 43 44  1  0  0  0
 44125  1  0  0  0
 45 46  2  0  0  0
 45126  1  0  0  0
 46127  1  0  0  0
 47128  1  0  0  0
 47129  1  0  0  0
 48 56  1  0  0  0
 48 65  1  0  0  0
 48130  1  0  0  0
 49 50  1  0  0  0
 49 53  1  0  0  0
 49 64  1  0  0  0
 49131  1  0  0  0
 50 51  1  0  0  0
 50132  1  0  0  0
 50133  1  0  0  0
 51 52  1  0  0  0
 51134  1  0  0  0
 51135  1  0  0  0
 52136  1  0  0  0
 52137  1  0  0  0
 53 54  1  0  0  0
 54 55  2  0  0  0
 54138  1  0  0  0
 55 57  1  0  0  0
 55139  1  0  0  0
 56 69  2  0  0  0
 57 58  2  0  0  0
 57140  1  0  0  0
 58141  1  0  0  0
 59 60  1  0  0  0
 59 61  1  0  0  0
 59 62  1  0  0  0
 60142  1  0  0  0
 60143  1  0  0  0
 60144  1  0  0  0
 61145  1  0  0  0
 61146  1  0  0  0
 61147  1  0  0  0
 62148  1  0  0  0
 62149  1  0  0  0
 62150  1  0  0  0
 63 65  1  0  0  0
 63151  1  0  0  0
 63152  1  0  0  0
 63153  1  0  0  0
 64154  1  0  0  0
 65155  1  0  0  0
 68 89  1  0  0  0
 71 73  2  0  0  0
 71 76  1  0  0  0
 71156  1  0  0  0
 72 74  2  0  0  0
 72 75  1  0  0  0
 72157  1  0  0  0
 73 74  1  0  0  0
 73 79  1  0  0  0
 74 90  1  0  0  0
 75 76  2  0  0  0
 75 91  1  0  0  0
 76 93  1  0  0  0
 77 83  1  0  0  0
 77 90  1  0  0  0
 77 94  2  0  0  0
 78 84  1  0  0  0
 78 91  1  0  0  0
 78 95  2  0  0  0
 79 92  1  0  0  0
 79 96  2  0  0  0
 80 82  1  0  0  0
 80 91  1  0  0  0
 80158  1  0  0  0
 80159  1  0  0  0
 81 83  1  0  0  0
 81 90  1  0  0  0
 81160  1  0  0  0
 81161  1  0  0  0
 82 84  1  0  0  0
 82 85  1  0  0  0
 82162  1  0  0  0
 83 86  1  0  0  0
 83 89  1  0  0  0
 84 87  1  0  0  0
 84 88  1  0  0  0
 85163  1  0  0  0
 85164  1  0  0  0
 85165  1  0  0  0
 86166  1  0  0  0
 86167  1  0  0  0
 86168  1  0  0  0
 87169  1  0  0  0
 87170  1  0  0  0
 87171  1  0  0  0
 88172  1  0  0  0
 88173  1  0  0  0
 88174  1  0  0  0
 89175  1  0  0  0
 89176  1  0  0  0
 92177  1  0  0  0
 92178  1  0  0  0
 93179  1  0  0  0
M  ISO  4   1 100  68 101  89 101  93 100
M  END
> <chiral flag>
0

> <version>
0

> <s_m_source_file>
/data/baiqing/PycharmProjects/Reinvent-master-3.2/result/LINK_invent/BTK/process_docking_weight1_custom_product_contain_oxygen_bond_distance_aromatic_linkinvent_7_9_3/rearranged_h_0073.sdf

> <i_m_source_file_index>
46

> <r_mmod_Potential_Energy-OPLS-2005>
162.524597167969

> <r_mmod_Stretch_Energy-OPLS-2005>
107.360107421875

> <r_mmod_Bend_Energy-OPLS-2005>
235.716995239258

> <r_mmod_Torsional_Energy-OPLS-2005>
344.413879394531

> <r_mmod_Improper_Torsional_Energy-OPLS-2005>
7.96515989303589

> <r_mmod_Van_der_Waal_Energy-OPLS-2005>
135.576217651367

> <r_mmod_Electrostatic_Energy-OPLS-2005>
-485.568725585938

> <r_mmod_Solvation_Energy-OPLS-2005>
-254.213836669922

> <b_mmod_Minimization_Converged-OPLS-2005>
0

> <r_mmod_RMS_Derivative-OPLS-2005>
4.84527587890625

$$$$
46
                    3D
 Structure written by MMmdl.
164172  0  0  1  0            999 V2000
  -30.6415  -14.5437   20.5597 C   0  0  0  0  0  0
  -30.4391  -12.3482   19.4241 C   0  0  0  0  0  0
  -29.5017  -12.5218   18.2077 C   0  0  0  0  0  0
  -28.0212  -12.3739   18.6158 C   0  0  0  0  0  0
  -27.6623  -13.2054   19.8756 C   0  0  2  0  0  0
  -28.7058  -12.9807   20.9935 C   0  0  0  0  0  0
  -25.2587  -13.8146   20.5650 C   0  0  0  0  0  0
  -24.1843  -13.0432   20.9178 C   0  0  0  0  0  0
  -24.6391  -11.6897   20.8729 C   0  0  0  0  0  0
  -23.9041  -10.4294   21.0404 C   0  0  0  0  0  0
  -24.3601   -9.4212   21.9182 C   0  0  0  0  0  0
  -23.6280   -8.2247   22.0750 C   0  0  0  0  0  0
  -22.4266   -8.0281   21.3536 C   0  0  0  0  0  0
  -21.9887   -9.0252   20.4640 C   0  0  0  0  0  0
  -22.7209  -10.2138   20.3053 C   0  0  0  0  0  0
  -21.6858   -6.0727   22.5272 C   0  0  0  0  0  0
  -21.4022   -6.5634   23.8204 C   0  0  0  0  0  0
  -21.3658   -5.6789   24.9168 C   0  0  0  0  0  0
  -21.6042   -4.3050   24.7219 C   0  0  0  0  0  0
  -21.8822   -3.8138   23.4340 C   0  0  0  0  0  0
  -21.9195   -4.6955   22.3393 C   0  0  0  0  0  0
  -22.7864  -13.5238   21.1836 C   0  0  0  0  0  0
  -22.1660   -4.2141   21.0970 F   0  0  0  0  0  0
  -21.5623   -3.4532   25.7725 F   0  0  0  0  0  0
  -30.0330  -13.3253   20.4495 N   0  0  0  0  0  0
  -26.3023  -12.9310   20.3343 N   0  0  0  0  0  0
  -25.9320  -11.6474   20.5758 N   0  0  0  0  0  0
  -22.0501  -12.8250   22.0403 N   0  0  0  0  0  0
  -25.4295  -15.1859   20.4005 N   0  0  0  0  0  0
  -31.7631  -14.7688   20.0940 O   0  0  0  0  0  0
  -21.6639   -6.8871   21.4235 O   0  0  0  0  0  0
  -22.3551  -14.5542   20.6679 O   0  0  0  0  0  0
  -24.6183  -31.8650   23.2058 C   0  0  0  0  0  0
  -25.9048  -32.4814   23.8382 C   0  0  1  0  0  0
  -27.2412  -27.3958   20.1066 C   0  0  0  0  0  0
  -25.5884  -33.8613   24.2306 N   0  0  0  0  0  0
  -23.4117  -30.4844   21.5466 C   0  0  2  0  0  0
  -24.8645  -28.9445   20.1157 C   0  0  0  0  0  0
  -22.7446  -29.4629   22.4966 C   0  0  0  0  0  0
  -18.0275  -28.1381   22.8494 C   0  0  0  0  0  0
  -24.1478  -36.7307   23.2639 C   0  0  0  0  0  0
  -25.9448  -30.8177   21.3679 C   0  0  0  0  0  0
  -26.0262  -29.4474   20.7171 C   0  0  0  0  0  0
  -27.2205  -28.6802   20.7122 C   0  0  0  0  0  0
  -26.0652  -26.9187   19.4965 C   0  0  0  0  0  0
  -24.8799  -27.6799   19.5015 C   0  0  0  0  0  0
  -23.6258  -29.8140   20.1632 C   0  0  0  0  0  0
  -25.4102  -36.3109   24.0335 C   0  0  1  0  0  0
  -20.5870  -28.3670   23.1305 C   0  0  2  0  0  0
  -20.6758  -26.9398   22.5422 C   0  0  0  0  0  0
  -19.5735  -26.6378   21.5218 C   0  0  0  0  0  0
  -18.1912  -26.7927   22.1627 C   0  0  0  0  0  0
  -19.1527  -28.8844   23.2893 C   0  0  0  0  0  0
  -18.9456  -30.1446   23.8909 C   0  0  0  0  0  0
  -17.6458  -30.6587   24.0563 C   0  0  0  0  0  0
  -25.9039  -34.9472   23.5128 C   0  0  0  0  0  0
  -16.5344  -29.9091   23.6328 C   0  0  0  0  0  0
  -16.7264  -28.6502   23.0361 C   0  0  0  0  0  0
  -26.4459  -31.6605   25.0728 C   0  0  0  0  0  0
  -25.3707  -31.3741   26.1469 C   0  0  0  0  0  0
  -27.0284  -30.3034   24.6137 C   0  0  0  0  0  0
  -27.6035  -32.4332   25.7482 C   0  0  0  0  0  0
  -27.5581  -37.1799   24.8455 C   0  0  0  0  0  0
  -21.4166  -29.3022   22.3702 N   0  0  0  0  0  0
  -26.4284  -37.3794   23.9418 N   0  0  0  0  0  0
  -24.6761  -31.0714   22.0979 N   0  0  0  0  0  0
  -23.4197  -28.8186   23.3036 O   0  0  0  0  0  0
  -28.3527  -26.5703   20.0979 O   0  0  0  0  0  0
  -26.5618  -34.8933   22.4701 O   0  0  0  0  0  0
  -23.5353  -32.1416   23.7417 O   0  0  0  0  0  0
  -28.1990  -18.8306   20.7049 C   0  0  0  0  0  0
  -30.5548  -19.1804   20.2948 C   0  0  0  0  0  0
  -28.4458  -17.4639   20.9699 C   0  0  0  0  0  0
  -30.8015  -17.7951   20.5328 C   0  0  0  0  0  0
  -29.2428  -19.7220   20.3631 C   0  0  0  0  0  0
  -29.7410  -16.9092   20.8629 C   0  0  0  0  0  0
  -28.5058  -25.7496   21.2007 C   0  0  0  0  0  0
  -28.9063  -21.1603   19.9768 C   0  0  0  0  0  0
  -29.0512  -24.4983   21.2758 C   0  0  0  0  0  0
  -29.1323  -23.8445   22.6487 C   0  0  0  0  0  0
  -31.1244  -25.5160   19.2075 C   0  0  0  0  0  0
  -31.5966  -23.1443   18.5504 C   0  0  0  0  0  0
  -29.5981  -23.6204   20.1147 C   0  0  1  0  0  0
  -31.0286  -24.0502   19.6642 C   0  0  0  0  0  0
  -29.8726  -15.4993   21.1385 N   0  0  0  0  0  0
  -29.6643  -22.1656   20.4613 N   0  0  0  0  0  0
  -27.9301  -21.3767   19.2561 O   0  0  0  0  0  0
  -31.4798  -12.4765   19.1204 H   0  0  0  0  0  0
  -30.3666  -11.3346   19.8215 H   0  0  0  0  0  0
  -29.7480  -11.7929   17.4336 H   0  0  0  0  0  0
  -29.6601  -13.5058   17.7626 H   0  0  0  0  0  0
  -27.8304  -11.3165   18.8015 H   0  0  0  0  0  0
  -27.3745  -12.6563   17.7838 H   0  0  0  0  0  0
  -27.7039  -14.2546   19.5831 H   0  0  0  0  0  0
  -28.6988  -11.9358   21.3082 H   0  0  0  0  0  0
  -28.4541  -13.5502   21.8888 H   0  0  0  0  0  0
  -25.2755   -9.5690   22.4742 H   0  0  0  0  0  0
  -23.9987   -7.4643   22.7477 H   0  0  0  0  0  0
  -21.0810   -8.8770   19.8957 H   0  0  0  0  0  0
  -22.3664  -10.9671   19.6161 H   0  0  0  0  0  0
  -21.2026   -7.6146   23.9700 H   0  0  0  0  0  0
  -21.1473   -6.0524   25.9066 H   0  0  0  0  0  0
  -22.0603   -2.7601   23.2850 H   0  0  0  0  0  0
  -22.4109  -11.9919   22.4814 H   0  0  0  0  0  0
  -21.1117  -13.1289   22.2583 H   0  0  0  0  0  0
  -24.6574  -15.8370   20.4888 H   0  0  0  0  0  0
  -26.2569  -15.6067   19.9976 H   0  0  0  0  0  0
  -26.7131  -32.5523   23.1157 H   0  0  0  0  0  0
  -24.9983  -33.9767   25.0416 H   0  0  0  0  0  0
  -22.7010  -31.3006   21.4024 H   0  0  0  0  0  0
  -23.3747  -35.9633   23.3296 H   0  0  0  0  0  0
  -24.3566  -36.8932   22.2053 H   0  0  0  0  0  0
  -23.7223  -37.6505   23.6663 H   0  0  0  0  0  0
  -26.0627  -31.5810   20.5973 H   0  0  0  0  0  0
  -26.8294  -30.8732   21.9908 H   0  0  0  0  0  0
  -28.1170  -29.0595   21.1828 H   0  0  0  0  0  0
  -26.0668  -25.9435   19.0305 H   0  0  0  0  0  0
  -23.9879  -27.2859   19.0350 H   0  0  0  0  0  0
  -23.7379  -30.5877   19.4030 H   0  0  0  0  0  0
  -22.7498  -29.2349   19.8656 H   0  0  0  0  0  0
  -25.1271  -36.1968   25.0825 H   0  0  0  0  0  0
  -20.9950  -28.3245   24.1431 H   0  0  0  0  0  0
  -20.5638  -26.2286   23.3618 H   0  0  0  0  0  0
  -21.6633  -26.7417   22.1232 H   0  0  0  0  0  0
  -19.6891  -25.6292   21.1239 H   0  0  0  0  0  0
  -19.6674  -27.3196   20.6757 H   0  0  0  0  0  0
  -17.4179  -26.6680   21.4029 H   0  0  0  0  0  0
  -18.0301  -26.0068   22.9018 H   0  0  0  0  0  0
  -19.7933  -30.7252   24.2293 H   0  0  0  0  0  0
  -17.5016  -31.6269   24.5162 H   0  0  0  0  0  0
  -15.5348  -30.2998   23.7649 H   0  0  0  0  0  0
  -15.8663  -28.0818   22.7092 H   0  0  0  0  0  0
  -24.5868  -30.7103   25.7803 H   0  0  0  0  0  0
  -24.8913  -32.2911   26.4911 H   0  0  0  0  0  0
  -25.8035  -30.8906   27.0237 H   0  0  0  0  0  0
  -26.2842  -29.6815   24.1149 H   0  0  0  0  0  0
  -27.3982  -29.7260   25.4621 H   0  0  0  0  0  0
  -27.8712  -30.4332   23.9343 H   0  0  0  0  0  0
  -27.2653  -33.3623   26.2088 H   0  0  0  0  0  0
  -28.3823  -32.6914   25.0291 H   0  0  0  0  0  0
  -28.0733  -31.8447   26.5373 H   0  0  0  0  0  0
  -28.2590  -38.0106   24.7531 H   0  0  0  0  0  0
  -28.1088  -36.2643   24.6234 H   0  0  0  0  0  0
  -27.2310  -37.1393   25.8860 H   0  0  0  0  0  0
  -20.9341  -29.8742   21.6911 H   0  0  0  0  0  0
  -26.0171  -38.2868   24.1447 H   0  0  0  0  0  0
  -27.1830  -19.1978   20.7552 H   0  0  0  0  0  0
  -31.3816  -19.8215   20.0214 H   0  0  0  0  0  0
  -27.6088  -16.8335   21.2367 H   0  0  0  0  0  0
  -31.8131  -17.4222   20.4590 H   0  0  0  0  0  0
  -28.1363  -26.2398   22.0923 H   0  0  0  0  0  0
  -28.8505  -24.5350   23.4437 H   0  0  0  0  0  0
  -30.1494  -23.5093   22.8531 H   0  0  0  0  0  0
  -28.4623  -22.9862   22.7089 H   0  0  0  0  0  0
  -32.1236  -25.7487   18.8371 H   0  0  0  0  0  0
  -30.9332  -26.2088   20.0257 H   0  0  0  0  0  0
  -30.4168  -25.7310   18.4064 H   0  0  0  0  0  0
  -32.5840  -23.4822   18.2325 H   0  0  0  0  0  0
  -30.9495  -23.1431   17.6724 H   0  0  0  0  0  0
  -31.7164  -22.1103   18.8740 H   0  0  0  0  0  0
  -28.9227  -23.7628   19.2685 H   0  0  0  0  0  0
  -31.6911  -23.9479   20.5255 H   0  0  0  0  0  0
  -29.0498  -15.0905   21.5548 H   0  0  0  0  0  0
  -30.4067  -21.8910   21.0875 H   0  0  0  0  0  0
  1 25  1  0  0  0
  1 30  2  0  0  0
  1 85  1  0  0  0
  2  3  1  0  0  0
  2 25  1  0  0  0
  2 88  1  0  0  0
  2 89  1  0  0  0
  3  4  1  0  0  0
  3 90  1  0  0  0
  3 91  1  0  0  0
  4  5  1  0  0  0
  4 92  1  0  0  0
  4 93  1  0  0  0
  5  6  1  0  0  0
  5 26  1  0  0  0
  5 94  1  0  0  0
  6 25  1  0  0  0
  6 95  1  0  0  0
  6 96  1  0  0  0
  7  8  2  0  0  0
  7 26  1  0  0  0
  7 29  1  0  0  0
  8  9  1  0  0  0
  8 22  1  0  0  0
  9 10  1  0  0  0
  9 27  2  0  0  0
 10 11  2  0  0  0
 10 15  1  0  0  0
 11 12  1  0  0  0
 11 97  1  0  0  0
 12 13  2  0  0  0
 12 98  1  0  0  0
 13 14  1  0  0  0
 13 31  1  0  0  0
 14 15  2  0  0  0
 14 99  1  0  0  0
 15100  1  0  0  0
 16 17  2  0  0  0
 16 21  1  0  0  0
 16 31  1  0  0  0
 17 18  1  0  0  0
 17101  1  0  0  0
 18 19  2  0  0  0
 18102  1  0  0  0
 19 20  1  0  0  0
 19 24  1  0  0  0
 20 21  2  0  0  0
 20103  1  0  0  0
 21 23  1  0  0  0
 22 28  1  0  0  0
 22 32  2  0  0  0
 26 27  1  0  0  0
 28104  1  0  0  0
 28105  1  0  0  0
 29106  1  0  0  0
 29107  1  0  0  0
 33 34  1  0  0  0
 33 66  1  0  0  0
 33 70  2  0  0  0
 34 36  1  0  0  0
 34 59  1  0  0  0
 34108  1  0  0  0
 35 44  2  0  0  0
 35 45  1  0  0  0
 35 68  1  0  0  0
 36 56  1  0  0  0
 36109  1  0  0  0
 37 39  1  0  0  0
 37 47  1  0  0  0
 37 66  1  0  0  0
 37110  1  0  0  0
 38 43  2  0  0  0
 38 46  1  0  0  0
 38 47  1  0  0  0
 39 64  1  0  0  0
 39 67  2  0  0  0
 40 52  1  0  0  0
 40 53  2  0  0  0
 40 58  1  0  0  0
 41111  1  0  0  0
 41112  1  0  0  0
 41113  1  0  0  0
 41 48  1  0  0  0
 42 43  1  0  0  0
 42 66  1  0  0  0
 42114  1  0  0  0
 42115  1  0  0  0
 43 44  1  0  0  0
 44116  1  0  0  0
 45 46  2  0  0  0
 45117  1  0  0  0
 46118  1  0  0  0
 47119  1  0  0  0
 47120  1  0  0  0
 48 56  1  0  0  0
 48 65  1  0  0  0
 48121  1  0  0  0
 49 50  1  0  0  0
 49 53  1  0  0  0
 49 64  1  0  0  0
 49122  1  0  0  0
 50 51  1  0  0  0
 50123  1  0  0  0
 50124  1  0  0  0
 51 52  1  0  0  0
 51125  1  0  0  0
 51126  1  0  0  0
 52127  1  0  0  0
 52128  1  0  0  0
 53 54  1  0  0  0
 54 55  2  0  0  0
 54129  1  0  0  0
 55 57  1  0  0  0
 55130  1  0  0  0
 56 69  2  0  0  0
 57 58  2  0  0  0
 57131  1  0  0  0
 58132  1  0  0  0
 59 60  1  0  0  0
 59 61  1  0  0  0
 59 62  1  0  0  0
 60133  1  0  0  0
 60134  1  0  0  0
 60135  1  0  0  0
 61136  1  0  0  0
 61137  1  0  0  0
 61138  1  0  0  0
 62139  1  0  0  0
 62140  1  0  0  0
 62141  1  0  0  0
 63 65  1  0  0  0
 63142  1  0  0  0
 63143  1  0  0  0
 63144  1  0  0  0
 64145  1  0  0  0
 65146  1  0  0  0
 68 77  1  0  0  0
 71 73  2  0  0  0
 71 75  1  0  0  0
 71147  1  0  0  0
 72 74  1  0  0  0
 72 75  2  0  0  0
 72148  1  0  0  0
 73 76  1  0  0  0
 73149  1  0  0  0
 74 76  2  0  0  0
 74150  1  0  0  0
 75 78  1  0  0  0
 76 85  1  0  0  0
 77 79  2  0  0  0
 77151  1  0  0  0
 78 86  1  0  0  0
 78 87  2  0  0  0
 79 80  1  0  0  0
 79 83  1  0  0  0
 80152  1  0  0  0
 80153  1  0  0  0
 80154  1  0  0  0
 81155  1  0  0  0
 81156  1  0  0  0
 81157  1  0  0  0
 81 84  1  0  0  0
 82 84  1  0  0  0
 82158  1  0  0  0
 82159  1  0  0  0
 82160  1  0  0  0
 83 84  1  0  0  0
 83 86  1  0  0  0
 83161  1  0  0  0
 84162  1  0  0  0
 85163  1  0  0  0
 86164  1  0  0  0
M  ISO  4   1 100  68 101  77 101  85 100
M  END
> <chiral flag>
0

> <version>
0

> <s_m_source_file>
/data/baiqing/PycharmProjects/Reinvent-master-3.2/result/LINK_invent/BTK/process_docking_weight1_custom_product_contain_oxygen_bond_distance_aromatic_linkinvent_7_9_3/rearranged_h_0073.sdf

> <i_m_source_file_index>
47

> <r_mmod_Potential_Energy-OPLS-2005>
-53.8145713806152

> <r_mmod_Stretch_Energy-OPLS-2005>
52.699893951416

> <r_mmod_Bend_Energy-OPLS-2005>
124.487548828125

> <r_mmod_Torsional_Energy-OPLS-2005>
255.121200561523

> <r_mmod_Improper_Torsional_Energy-OPLS-2005>
5.18360280990601

> <r_mmod_Van_der_Waal_Energy-OPLS-2005>
144.528045654297

> <r_mmod_Electrostatic_Energy-OPLS-2005>
-448.699768066406

> <r_mmod_Solvation_Energy-OPLS-2005>
-209.84765625

> <b_mmod_Minimization_Converged-OPLS-2005>
0

> <r_mmod_RMS_Derivative-OPLS-2005>
1.34136235713959

$$$$
47
                    3D
 Structure written by MMmdl.
153160  0  0  1  0            999 V2000
  -30.5104  -14.9282   20.4288 C   0  0  0  0  0  0
  -30.4489  -12.5644   19.5044 C   0  0  0  0  0  0
  -29.5301  -12.5304   18.2593 C   0  0  0  0  0  0
  -28.0589  -12.3173   18.6675 C   0  0  0  0  0  0
  -27.6345  -13.2410   19.8376 C   0  0  2  0  0  0
  -28.6732  -13.2467   20.9777 C   0  0  0  0  0  0
  -25.2502  -13.8200   20.5692 C   0  0  0  0  0  0
  -24.1802  -13.0436   20.9204 C   0  0  0  0  0  0
  -24.6404  -11.6918   20.8722 C   0  0  0  0  0  0
  -23.9079  -10.4291   21.0388 C   0  0  0  0  0  0
  -24.3631   -9.4211   21.9173 C   0  0  0  0  0  0
  -23.6307   -8.2252   22.0750 C   0  0  0  0  0  0
  -22.4287   -8.0289   21.3545 C   0  0  0  0  0  0
  -21.9917   -9.0256   20.4643 C   0  0  0  0  0  0
  -22.7245  -10.2136   20.3045 C   0  0  0  0  0  0
  -21.6863   -6.0742   22.5280 C   0  0  0  0  0  0
  -21.4016   -6.5636   23.8213 C   0  0  0  0  0  0
  -21.3660   -5.6788   24.9174 C   0  0  0  0  0  0
  -21.6046   -4.3053   24.7221 C   0  0  0  0  0  0
  -21.8818   -3.8150   23.4339 C   0  0  0  0  0  0
  -21.9198   -4.6971   22.3400 C   0  0  0  0  0  0
  -22.7823  -13.5213   21.1877 C   0  0  0  0  0  0
  -22.1665   -4.2156   21.0975 F   0  0  0  0  0  0
  -21.5632   -3.4534   25.7733 F   0  0  0  0  0  0
  -29.9625  -13.6477   20.4038 N   0  0  0  0  0  0
  -26.2911  -12.9414   20.3210 N   0  0  0  0  0  0
  -25.9334  -11.6552   20.5703 N   0  0  0  0  0  0
  -22.0476  -12.8202   22.0434 N   0  0  0  0  0  0
  -25.4204  -15.1932   20.4162 N   0  0  0  0  0  0
  -31.6995  -15.0284   20.1059 O   0  0  0  0  0  0
  -21.6650   -6.8888   21.4245 O   0  0  0  0  0  0
  -22.3497  -14.5512   20.6720 O   0  0  0  0  0  0
  -24.6442  -31.8443   23.1885 C   0  0  0  0  0  0
  -25.9214  -32.4694   23.8272 C   0  0  1  0  0  0
  -27.2162  -27.1361   20.1474 C   0  0  0  0  0  0
  -25.5965  -33.8503   24.2191 N   0  0  0  0  0  0
  -23.4469  -30.4642   21.5345 C   0  0  2  0  0  0
  -24.8954  -28.8924   20.1095 C   0  0  0  0  0  0
  -22.7575  -29.4546   22.4860 C   0  0  0  0  0  0
  -18.0306  -28.1392   22.8472 C   0  0  0  0  0  0
  -24.1493  -36.7254   23.2638 C   0  0  0  0  0  0
  -26.0035  -30.7188   21.3864 C   0  0  0  0  0  0
  -26.0737  -29.3305   20.7261 C   0  0  0  0  0  0
  -27.2361  -28.4698   20.7252 C   0  0  0  0  0  0
  -26.0091  -26.8006   19.4940 C   0  0  0  0  0  0
  -24.8762  -27.6413   19.4766 C   0  0  0  0  0  0
  -23.6726  -29.7958   20.1527 C   0  0  0  0  0  0
  -25.4128  -36.3035   24.0309 C   0  0  1  0  0  0
  -20.5922  -28.3720   23.1235 C   0  0  2  0  0  0
  -20.6792  -26.9424   22.5401 C   0  0  0  0  0  0
  -19.5761  -26.6376   21.5217 C   0  0  0  0  0  0
  -18.1943  -26.7927   22.1627 C   0  0  0  0  0  0
  -19.1563  -28.8876   23.2843 C   0  0  0  0  0  0
  -18.9478  -30.1476   23.8864 C   0  0  0  0  0  0
  -17.6473  -30.6586   24.0560 C   0  0  0  0  0  0
  -25.9079  -34.9406   23.5058 C   0  0  0  0  0  0
  -16.5366  -29.9075   23.6336 C   0  0  0  0  0  0
  -16.7291  -28.6499   23.0347 C   0  0  0  0  0  0
  -26.4533  -31.6555   25.0709 C   0  0  0  0  0  0
  -25.3718  -31.3745   26.1404 C   0  0  0  0  0  0
  -27.0396  -30.2947   24.6289 C   0  0  0  0  0  0
  -27.6062  -32.4318   25.7499 C   0  0  0  0  0  0
  -27.5581  -37.1784   24.8467 C   0  0  0  0  0  0
  -21.4266  -29.3046   22.3613 N   0  0  0  0  0  0
  -26.4290  -37.3748   23.9408 N   0  0  0  0  0  0
  -24.7182  -31.0303   22.0915 N   0  0  0  0  0  0
  -23.4223  -28.8092   23.3006 O   0  0  0  0  0  0
  -28.2703  -26.1515   20.2070 O   0  0  0  0  0  0
  -26.5661  -34.8908   22.4636 O   0  0  0  0  0  0
  -23.5561  -32.1313   23.7109 O   0  0  0  0  0  0
  -29.0231  -19.1797   20.4841 C   0  0  0  0  0  0
  -28.5261  -21.7468   20.3960 C   0  0  0  0  0  0
  -29.9954  -23.3874   19.0693 C   0  0  0  0  0  0
  -29.8668  -23.5863   21.5720 C   0  0  0  0  0  0
  -29.6361  -16.3094   20.7131 C   0  0  0  0  0  0
  -30.0684  -17.9032   20.3681 C   0  0  0  0  0  0
  -27.9756  -24.6179   20.1431 C   0  0  0  0  0  0
  -29.0570  -23.3216   20.2893 C   0  0  0  0  0  0
  -29.3366  -20.5679   20.3516 N   0  0  0  0  0  0
  -27.8594  -18.8360   20.7077 O   0  0  0  0  0  0
  -27.3051  -21.6413   20.5366 O   0  0  0  0  0  0
  -31.4837  -12.7218   19.1990 H   0  0  0  0  0  0
  -30.4341  -11.6033   20.0211 H   0  0  0  0  0  0
  -29.8463  -11.7400   17.5767 H   0  0  0  0  0  0
  -29.6268  -13.4688   17.7115 H   0  0  0  0  0  0
  -27.9466  -11.2731   18.9622 H   0  0  0  0  0  0
  -27.4012  -12.4621   17.8101 H   0  0  0  0  0  0
  -27.6033  -14.2452   19.4178 H   0  0  0  0  0  0
  -28.7460  -12.2630   21.4439 H   0  0  0  0  0  0
  -28.3719  -13.9405   21.7640 H   0  0  0  0  0  0
  -25.2780   -9.5695   22.4742 H   0  0  0  0  0  0
  -24.0025   -7.4636   22.7460 H   0  0  0  0  0  0
  -21.0850   -8.8763   19.8941 H   0  0  0  0  0  0
  -22.3696  -10.9672   19.6155 H   0  0  0  0  0  0
  -21.2001   -7.6142   23.9718 H   0  0  0  0  0  0
  -21.1487   -6.0515   25.9075 H   0  0  0  0  0  0
  -22.0599   -2.7614   23.2834 H   0  0  0  0  0  0
  -22.4105  -11.9871   22.4830 H   0  0  0  0  0  0
  -21.1088  -13.1214   22.2630 H   0  0  0  0  0  0
  -24.6599  -15.8510   20.5464 H   0  0  0  0  0  0
  -26.2829  -15.6405   20.1317 H   0  0  0  0  0  0
  -26.7283  -32.5299   23.1004 H   0  0  0  0  0  0
  -25.0104  -33.9620   25.0334 H   0  0  0  0  0  0
  -22.7478  -31.2897   21.3823 H   0  0  0  0  0  0
  -23.3763  -35.9578   23.3283 H   0  0  0  0  0  0
  -24.3585  -36.8902   22.2058 H   0  0  0  0  0  0
  -23.7234  -37.6437   23.6688 H   0  0  0  0  0  0
  -26.1614  -31.4751   20.6163 H   0  0  0  0  0  0
  -26.8729  -30.7656   22.0304 H   0  0  0  0  0  0
  -28.1354  -28.8025   21.2237 H   0  0  0  0  0  0
  -25.9033  -25.8474   19.0005 H   0  0  0  0  0  0
  -23.9772  -27.3017   18.9810 H   0  0  0  0  0  0
  -23.8115  -30.5725   19.3994 H   0  0  0  0  0  0
  -22.7863  -29.2411   19.8403 H   0  0  0  0  0  0
  -25.1317  -36.1858   25.0797 H   0  0  0  0  0  0
  -21.0013  -28.3304   24.1358 H   0  0  0  0  0  0
  -20.5703  -26.2333   23.3619 H   0  0  0  0  0  0
  -21.6654  -26.7432   22.1194 H   0  0  0  0  0  0
  -19.6925  -25.6284   21.1257 H   0  0  0  0  0  0
  -19.6694  -27.3179   20.6740 H   0  0  0  0  0  0
  -17.4217  -26.6673   21.4027 H   0  0  0  0  0  0
  -18.0340  -26.0079   22.9033 H   0  0  0  0  0  0
  -19.7954  -30.7307   24.2209 H   0  0  0  0  0  0
  -17.5021  -31.6262   24.5166 H   0  0  0  0  0  0
  -15.5363  -30.2965   23.7672 H   0  0  0  0  0  0
  -15.8693  -28.0814   22.7059 H   0  0  0  0  0  0
  -24.5907  -30.7082   25.7726 H   0  0  0  0  0  0
  -24.8903  -32.2930   26.4771 H   0  0  0  0  0  0
  -25.8002  -30.8959   27.0219 H   0  0  0  0  0  0
  -26.3009  -29.6663   24.1298 H   0  0  0  0  0  0
  -27.4008  -29.7250   25.4860 H   0  0  0  0  0  0
  -27.8921  -30.4177   23.9605 H   0  0  0  0  0  0
  -27.2651  -33.3636   26.2026 H   0  0  0  0  0  0
  -28.3903  -32.6845   25.0348 H   0  0  0  0  0  0
  -28.0698  -31.8475   26.5457 H   0  0  0  0  0  0
  -28.2582  -38.0096   24.7526 H   0  0  0  0  0  0
  -28.1091  -36.2623   24.6281 H   0  0  0  0  0  0
  -27.2304  -37.1419   25.8871 H   0  0  0  0  0  0
  -20.9478  -29.8766   21.6799 H   0  0  0  0  0  0
  -26.0153  -38.2812   24.1416 H   0  0  0  0  0  0
  -30.8287  -22.6883   19.1502 H   0  0  0  0  0  0
  -30.4178  -24.3854   18.9510 H   0  0  0  0  0  0
  -29.4573  -23.1515   18.1505 H   0  0  0  0  0  0
  -30.3999  -24.5352   21.5081 H   0  0  0  0  0  0
  -30.6081  -22.8099   21.7641 H   0  0  0  0  0  0
  -29.2125  -23.6379   22.4430 H   0  0  0  0  0  0
  -28.6888  -16.1459   20.2026 H   0  0  0  0  0  0
  -29.3803  -16.2772   21.7718 H   0  0  0  0  0  0
  -30.9327  -18.1518   20.9831 H   0  0  0  0  0  0
  -30.4408  -17.9190   19.3437 H   0  0  0  0  0  0
  -27.1923  -24.4475   20.8832 H   0  0  0  0  0  0
  -27.4903  -24.4479   19.1833 H   0  0  0  0  0  0
  -30.3174  -20.7518   20.2044 H   0  0  0  0  0  0
  1 25  1  0  0  0
  1 30  2  0  0  0
  1 75  1  0  0  0
  2  3  1  0  0  0
  2 25  1  0  0  0
  2 82  1  0  0  0
  2 83  1  0  0  0
  3  4  1  0  0  0
  3 84  1  0  0  0
  3 85  1  0  0  0
  4  5  1  0  0  0
  4 86  1  0  0  0
  4 87  1  0  0  0
  5  6  1  0  0  0
  5 26  1  0  0  0
  5 88  1  0  0  0
  6 25  1  0  0  0
  6 89  1  0  0  0
  6 90  1  0  0  0
  7  8  2  0  0  0
  7 26  1  0  0  0
  7 29  1  0  0  0
  8  9  1  0  0  0
  8 22  1  0  0  0
  9 10  1  0  0  0
  9 27  2  0  0  0
 10 11  2  0  0  0
 10 15  1  0  0  0
 11 12  1  0  0  0
 11 91  1  0  0  0
 12 13  2  0  0  0
 12 92  1  0  0  0
 13 14  1  0  0  0
 13 31  1  0  0  0
 14 15  2  0  0  0
 14 93  1  0  0  0
 15 94  1  0  0  0
 16 17  2  0  0  0
 16 21  1  0  0  0
 16 31  1  0  0  0
 17 18  1  0  0  0
 17 95  1  0  0  0
 18 19  2  0  0  0
 18 96  1  0  0  0
 19 20  1  0  0  0
 19 24  1  0  0  0
 20 21  2  0  0  0
 20 97  1  0  0  0
 21 23  1  0  0  0
 22 28  1  0  0  0
 22 32  2  0  0  0
 26 27  1  0  0  0
 28 98  1  0  0  0
 28 99  1  0  0  0
 29100  1  0  0  0
 29101  1  0  0  0
 33 34  1  0  0  0
 33 66  1  0  0  0
 33 70  2  0  0  0
 34 36  1  0  0  0
 34 59  1  0  0  0
 34102  1  0  0  0
 35 44  2  0  0  0
 35 45  1  0  0  0
 35 68  1  0  0  0
 36 56  1  0  0  0
 36103  1  0  0  0
 37 39  1  0  0  0
 37 47  1  0  0  0
 37 66  1  0  0  0
 37104  1  0  0  0
 38 43  2  0  0  0
 38 46  1  0  0  0
 38 47  1  0  0  0
 39 64  1  0  0  0
 39 67  2  0  0  0
 40 52  1  0  0  0
 40 53  2  0  0  0
 40 58  1  0  0  0
 41105  1  0  0  0
 41106  1  0  0  0
 41107  1  0  0  0
 41 48  1  0  0  0
 42 43  1  0  0  0
 42 66  1  0  0  0
 42108  1  0  0  0
 42109  1  0  0  0
 43 44  1  0  0  0
 44110  1  0  0  0
 45 46  2  0  0  0
 45111  1  0  0  0
 46112  1  0  0  0
 47113  1  0  0  0
 47114  1  0  0  0
 48 56  1  0  0  0
 48 65  1  0  0  0
 48115  1  0  0  0
 49 50  1  0  0  0
 49 53  1  0  0  0
 49 64  1  0  0  0
 49116  1  0  0  0
 50 51  1  0  0  0
 50117  1  0  0  0
 50118  1  0  0  0
 51 52  1  0  0  0
 51119  1  0  0  0
 51120  1  0  0  0
 52121  1  0  0  0
 52122  1  0  0  0
 53 54  1  0  0  0
 54 55  2  0  0  0
 54123  1  0  0  0
 55 57  1  0  0  0
 55124  1  0  0  0
 56 69  2  0  0  0
 57 58  2  0  0  0
 57125  1  0  0  0
 58126  1  0  0  0
 59 60  1  0  0  0
 59 61  1  0  0  0
 59 62  1  0  0  0
 60127  1  0  0  0
 60128  1  0  0  0
 60129  1  0  0  0
 61130  1  0  0  0
 61131  1  0  0  0
 61132  1  0  0  0
 62133  1  0  0  0
 62134  1  0  0  0
 62135  1  0  0  0
 63 65  1  0  0  0
 63136  1  0  0  0
 63137  1  0  0  0
 63138  1  0  0  0
 64139  1  0  0  0
 65140  1  0  0  0
 68 77  1  0  0  0
 71 76  1  0  0  0
 71 79  1  0  0  0
 71 80  2  0  0  0
 72 78  1  0  0  0
 72 79  1  0  0  0
 72 81  2  0  0  0
 73141  1  0  0  0
 73142  1  0  0  0
 73143  1  0  0  0
 73 78  1  0  0  0
 74 78  1  0  0  0
 74144  1  0  0  0
 74145  1  0  0  0
 74146  1  0  0  0
 75 76  1  0  0  0
 75147  1  0  0  0
 75148  1  0  0  0
 76149  1  0  0  0
 76150  1  0  0  0
 77 78  1  0  0  0
 77151  1  0  0  0
 77152  1  0  0  0
 79153  1  0  0  0
M  ISO  4   1 100  68 101  75 100  77 101
M  END
> <chiral flag>
0

> <version>
0

> <s_m_source_file>
/data/baiqing/PycharmProjects/Reinvent-master-3.2/result/LINK_invent/BTK/process_docking_weight1_custom_product_contain_oxygen_bond_distance_aromatic_linkinvent_7_9_3/rearranged_h_0073.sdf

> <i_m_source_file_index>
48

> <r_mmod_Potential_Energy-OPLS-2005>
277.186248779297

> <r_mmod_Stretch_Energy-OPLS-2005>
264.414031982422

> <r_mmod_Bend_Energy-OPLS-2005>
244.456649780273

> <r_mmod_Torsional_Energy-OPLS-2005>
200.103561401367

> <r_mmod_Improper_Torsional_Energy-OPLS-2005>
2.86003828048706

> <r_mmod_Van_der_Waal_Energy-OPLS-2005>
114.092498779297

> <r_mmod_Electrostatic_Energy-OPLS-2005>
-482.899627685547

> <r_mmod_Solvation_Energy-OPLS-2005>
-249.856292724609

> <b_mmod_Minimization_Converged-OPLS-2005>
0

> <r_mmod_RMS_Derivative-OPLS-2005>
1.22165274620056

$$$$
48
                    3D
 Structure written by MMmdl.
163172  0  0  1  0            999 V2000
  -30.6005  -14.6542   20.5065 C   0  0  0  0  0  0
  -30.4422  -12.4030   19.4482 C   0  0  0  0  0  0
  -29.5067  -12.5171   18.2224 C   0  0  0  0  0  0
  -28.0295  -12.3522   18.6338 C   0  0  0  0  0  0
  -27.6538  -13.2167   19.8662 C   0  0  2  0  0  0
  -28.6992  -13.0543   20.9929 C   0  0  0  0  0  0
  -25.2538  -13.8155   20.5635 C   0  0  0  0  0  0
  -24.1827  -13.0424   20.9209 C   0  0  0  0  0  0
  -24.6405  -11.6904   20.8770 C   0  0  0  0  0  0
  -23.9063  -10.4290   21.0427 C   0  0  0  0  0  0
  -24.3615   -9.4200   21.9197 C   0  0  0  0  0  0
  -23.6296   -8.2224   22.0747 C   0  0  0  0  0  0
  -22.4276   -8.0268   21.3533 C   0  0  0  0  0  0
  -21.9917   -9.0250   20.4638 C   0  0  0  0  0  0
  -22.7240  -10.2133   20.3068 C   0  0  0  0  0  0
  -21.6844   -6.0737   22.5292 C   0  0  0  0  0  0
  -21.4002   -6.5640   23.8227 C   0  0  0  0  0  0
  -21.3669   -5.6793   24.9190 C   0  0  0  0  0  0
  -21.6047   -4.3056   24.7238 C   0  0  0  0  0  0
  -21.8817   -3.8147   23.4360 C   0  0  0  0  0  0
  -21.9189   -4.6964   22.3415 C   0  0  0  0  0  0
  -22.7850  -13.5219   21.1877 C   0  0  0  0  0  0
  -22.1656   -4.2151   21.0990 F   0  0  0  0  0  0
  -21.5644   -3.4541   25.7751 F   0  0  0  0  0  0
  -30.0147  -13.4144   20.4362 N   0  0  0  0  0  0
  -26.2988  -12.9346   20.3326 N   0  0  0  0  0  0
  -25.9330  -11.6504   20.5789 N   0  0  0  0  0  0
  -22.0504  -12.8203   22.0436 N   0  0  0  0  0  0
  -25.4172  -15.1861   20.3909 N   0  0  0  0  0  0
  -31.7462  -14.8493   20.0878 O   0  0  0  0  0  0
  -21.6631   -6.8871   21.4247 O   0  0  0  0  0  0
  -22.3533  -14.5526   20.6729 O   0  0  0  0  0  0
  -24.6254  -31.8599   23.2004 C   0  0  0  0  0  0
  -25.9101  -32.4770   23.8335 C   0  0  1  0  0  0
  -27.2197  -27.3102   20.1178 C   0  0  0  0  0  0
  -25.5921  -33.8573   24.2252 N   0  0  0  0  0  0
  -23.4195  -30.4833   21.5450 C   0  0  2  0  0  0
  -24.8653  -28.9388   20.1096 C   0  0  0  0  0  0
  -22.7481  -29.4612   22.4936 C   0  0  0  0  0  0
  -18.0290  -28.1372   22.8464 C   0  0  0  0  0  0
  -24.1502  -36.7291   23.2645 C   0  0  0  0  0  0
  -25.9620  -30.7867   21.3761 C   0  0  0  0  0  0
  -26.0346  -29.4155   20.7140 C   0  0  0  0  0  0
  -27.2152  -28.6130   20.7077 C   0  0  0  0  0  0
  -26.0256  -26.8918   19.4839 C   0  0  0  0  0  0
  -24.8623  -27.6828   19.4857 C   0  0  0  0  0  0
  -23.6338  -29.8200   20.1605 C   0  0  0  0  0  0
  -25.4125  -36.3070   24.0329 C   0  0  1  0  0  0
  -20.5889  -28.3677   23.1273 C   0  0  2  0  0  0
  -20.6784  -26.9405   22.5400 C   0  0  0  0  0  0
  -19.5770  -26.6373   21.5194 C   0  0  0  0  0  0
  -18.1947  -26.7913   22.1604 C   0  0  0  0  0  0
  -19.1546  -28.8842   23.2857 C   0  0  0  0  0  0
  -18.9473  -30.1447   23.8871 C   0  0  0  0  0  0
  -17.6475  -30.6580   24.0555 C   0  0  0  0  0  0
  -25.9058  -34.9446   23.5085 C   0  0  0  0  0  0
  -16.5357  -29.9076   23.6340 C   0  0  0  0  0  0
  -16.7277  -28.6495   23.0343 C   0  0  0  0  0  0
  -26.4486  -31.6597   25.0713 C   0  0  0  0  0  0
  -25.3711  -31.3761   26.1436 C   0  0  0  0  0  0
  -27.0341  -30.3017   24.6181 C   0  0  0  0  0  0
  -27.6021  -32.4368   25.7486 C   0  0  0  0  0  0
  -27.5583  -37.1794   24.8465 C   0  0  0  0  0  0
  -21.4197  -29.3027   22.3674 N   0  0  0  0  0  0
  -26.4294  -37.3766   23.9408 N   0  0  0  0  0  0
  -24.6872  -31.0605   22.0965 N   0  0  0  0  0  0
  -23.4210  -28.8140   23.3009 O   0  0  0  0  0  0
  -28.3346  -26.4562   20.1854 O   0  0  0  0  0  0
  -26.5642  -34.8921   22.4657 O   0  0  0  0  0  0
  -23.5409  -32.1401   23.7327 O   0  0  0  0  0  0
  -30.4123  -19.3597   19.9460 C   0  0  0  0  0  0
  -30.5501  -17.9309   19.9944 C   0  0  0  0  0  0
  -28.7108  -19.2508   21.6453 C   0  0  0  0  0  0
  -28.8347  -17.8297   21.6903 C   0  0  0  0  0  0
  -29.4887  -20.0555   20.7747 C   0  0  0  0  0  0
  -29.7665  -17.1250   20.8713 C   0  0  0  0  0  0
  -29.1875  -22.5175   19.8889 C   0  0  0  0  0  0
  -29.1882  -23.6720   21.9536 C   0  0  0  0  0  0
  -29.5472  -22.1804   22.1577 C   0  0  0  0  0  0
  -29.2659  -23.9675   20.4370 C   0  0  1  0  0  0
  -27.9462  -17.0625   22.6581 C   0  0  0  0  0  0
  -30.6520  -24.4862   20.0262 C   0  0  0  0  0  0
  -28.1518  -25.0014   19.9318 C   0  0  0  0  0  0
  -29.3971  -21.5556   20.8406 N   0  0  0  0  0  0
  -29.7818  -15.6586   20.9545 N   0  0  0  0  0  0
  -29.0188  -22.2468   18.5813 N   0  3  0  0  0  0
  -31.4822  -12.5367   19.1458 H   0  0  0  0  0  0
  -30.3845  -11.4039   19.8827 H   0  0  0  0  0  0
  -29.7712  -11.7691   17.4739 H   0  0  0  0  0  0
  -29.6439  -13.4877   17.7444 H   0  0  0  0  0  0
  -27.8661  -11.2984   18.8603 H   0  0  0  0  0  0
  -27.3735  -12.5867   17.7945 H   0  0  0  0  0  0
  -27.6761  -14.2549   19.5351 H   0  0  0  0  0  0
  -28.7139  -12.0232   21.3510 H   0  0  0  0  0  0
  -28.4386  -13.6618   21.8603 H   0  0  0  0  0  0
  -25.2753   -9.5682   22.4781 H   0  0  0  0  0  0
  -24.0016   -7.4607   22.7454 H   0  0  0  0  0  0
  -21.0853   -8.8769   19.8930 H   0  0  0  0  0  0
  -22.3696  -10.9681   19.6187 H   0  0  0  0  0  0
  -21.1975   -7.6144   23.9737 H   0  0  0  0  0  0
  -21.1499   -6.0517   25.9097 H   0  0  0  0  0  0
  -22.0582   -2.7609   23.2862 H   0  0  0  0  0  0
  -22.4123  -11.9856   22.4809 H   0  0  0  0  0  0
  -21.1118  -13.1211   22.2653 H   0  0  0  0  0  0
  -24.6260  -15.8183   20.4443 H   0  0  0  0  0  0
  -26.2391  -15.6171   19.9883 H   0  0  0  0  0  0
  -26.7162  -32.5434   23.1084 H   0  0  0  0  0  0
  -25.0060  -33.9732   25.0382 H   0  0  0  0  0  0
  -22.7110  -31.3018   21.4010 H   0  0  0  0  0  0
  -23.3765  -35.9624   23.3307 H   0  0  0  0  0  0
  -24.3587  -36.8906   22.2055 H   0  0  0  0  0  0
  -23.7270  -37.6488   23.6672 H   0  0  0  0  0  0
  -26.1061  -31.5545   20.6148 H   0  0  0  0  0  0
  -26.8387  -30.8249   22.0115 H   0  0  0  0  0  0
  -28.1114  -28.9732   21.1924 H   0  0  0  0  0  0
  -25.9553  -25.9340   18.9907 H   0  0  0  0  0  0
  -23.9655  -27.3114   19.0087 H   0  0  0  0  0  0
  -23.7497  -30.5970   19.4055 H   0  0  0  0  0  0
  -22.7532  -29.2489   19.8600 H   0  0  0  0  0  0
  -25.1312  -36.1912   25.0822 H   0  0  0  0  0  0
  -20.9968  -28.3250   24.1398 H   0  0  0  0  0  0
  -20.5703  -26.2284   23.3596 H   0  0  0  0  0  0
  -21.6655  -26.7448   22.1187 H   0  0  0  0  0  0
  -19.6948  -25.6279   21.1236 H   0  0  0  0  0  0
  -19.6720  -27.3178   20.6715 H   0  0  0  0  0  0
  -17.4214  -26.6647   21.4002 H   0  0  0  0  0  0
  -18.0351  -26.0061   22.9008 H   0  0  0  0  0  0
  -19.7963  -30.7261   24.2227 H   0  0  0  0  0  0
  -17.5041  -31.6266   24.5151 H   0  0  0  0  0  0
  -15.5366  -30.2969   23.7685 H   0  0  0  0  0  0
  -15.8671  -28.0820   22.7054 H   0  0  0  0  0  0
  -24.5859  -30.7145   25.7765 H   0  0  0  0  0  0
  -24.8951  -32.2951   26.4863 H   0  0  0  0  0  0
  -25.8023  -30.8920   27.0215 H   0  0  0  0  0  0
  -26.2917  -29.6759   24.1206 H   0  0  0  0  0  0
  -27.4038  -29.7273   25.4688 H   0  0  0  0  0  0
  -27.8797  -30.4308   23.9418 H   0  0  0  0  0  0
  -27.2582  -33.3661   26.2057 H   0  0  0  0  0  0
  -28.3822  -32.6964   25.0317 H   0  0  0  0  0  0
  -28.0714  -31.8526   26.5415 H   0  0  0  0  0  0
  -28.2580  -38.0106   24.7505 H   0  0  0  0  0  0
  -28.1096  -36.2626   24.6297 H   0  0  0  0  0  0
  -27.2303  -37.1453   25.8869 H   0  0  0  0  0  0
  -20.9360  -29.8739   21.6878 H   0  0  0  0  0  0
  -26.0174  -38.2840   24.1409 H   0  0  0  0  0  0
  -31.0467  -19.9262   19.2800 H   0  0  0  0  0  0
  -31.2656  -17.4618   19.3344 H   0  0  0  0  0  0
  -28.0015  -19.7340   22.3015 H   0  0  0  0  0  0
  -29.8496  -24.3254   22.5237 H   0  0  0  0  0  0
  -28.1787  -23.8438   22.3298 H   0  0  0  0  0  0
  -28.9041  -21.7181   22.9051 H   0  0  0  0  0  0
  -30.5824  -22.0709   22.4839 H   0  0  0  0  0  0
  -27.2655  -17.7259   23.1916 H   0  0  0  0  0  0
  -28.5496  -16.5384   23.4004 H   0  0  0  0  0  0
  -27.3387  -16.3281   22.1305 H   0  0  0  0  0  0
  -31.4390  -23.7919   20.3197 H   0  0  0  0  0  0
  -30.8621  -25.4526   20.4853 H   0  0  0  0  0  0
  -30.7089  -24.6160   18.9462 H   0  0  0  0  0  0
  -27.2046  -24.6751   20.3659 H   0  0  0  0  0  0
  -28.0417  -24.8816   18.8539 H   0  0  0  0  0  0
  -28.9447  -15.2789   21.3670 H   0  0  0  0  0  0
  -28.9431  -22.9842   17.8939 H   0  0  0  0  0  0
  -28.9998  -21.2980   18.2338 H   0  0  0  0  0  0
  1 25  1  0  0  0
  1 30  2  0  0  0
  1 85  1  0  0  0
  2  3  1  0  0  0
  2 25  1  0  0  0
  2 87  1  0  0  0
  2 88  1  0  0  0
  3  4  1  0  0  0
  3 89  1  0  0  0
  3 90  1  0  0  0
  4  5  1  0  0  0
  4 91  1  0  0  0
  4 92  1  0  0  0
  5  6  1  0  0  0
  5 26  1  0  0  0
  5 93  1  0  0  0
  6 25  1  0  0  0
  6 94  1  0  0  0
  6 95  1  0  0  0
  7  8  2  0  0  0
  7 26  1  0  0  0
  7 29  1  0  0  0
  8  9  1  0  0  0
  8 22  1  0  0  0
  9 10  1  0  0  0
  9 27  2  0  0  0
 10 11  2  0  0  0
 10 15  1  0  0  0
 11 12  1  0  0  0
 11 96  1  0  0  0
 12 13  2  0  0  0
 12 97  1  0  0  0
 13 14  1  0  0  0
 13 31  1  0  0  0
 14 15  2  0  0  0
 14 98  1  0  0  0
 15 99  1  0  0  0
 16 17  2  0  0  0
 16 21  1  0  0  0
 16 31  1  0  0  0
 17 18  1  0  0  0
 17100  1  0  0  0
 18 19  2  0  0  0
 18101  1  0  0  0
 19 20  1  0  0  0
 19 24  1  0  0  0
 20 21  2  0  0  0
 20102  1  0  0  0
 21 23  1  0  0  0
 22 28  1  0  0  0
 22 32  2  0  0  0
 26 27  1  0  0  0
 28103  1  0  0  0
 28104  1  0  0  0
 29105  1  0  0  0
 29106  1  0  0  0
 33 34  1  0  0  0
 33 66  1  0  0  0
 33 70  2  0  0  0
 34 36  1  0  0  0
 34 59  1  0  0  0
 34107  1  0  0  0
 35 44  2  0  0  0
 35 45  1  0  0  0
 35 68  1  0  0  0
 36 56  1  0  0  0
 36108  1  0  0  0
 37 39  1  0  0  0
 37 47  1  0  0  0
 37 66  1  0  0  0
 37109  1  0  0  0
 38 43  2  0  0  0
 38 46  1  0  0  0
 38 47  1  0  0  0
 39 64  1  0  0  0
 39 67  2  0  0  0
 40 52  1  0  0  0
 40 53  2  0  0  0
 40 58  1  0  0  0
 41110  1  0  0  0
 41111  1  0  0  0
 41112  1  0  0  0
 41 48  1  0  0  0
 42 43  1  0  0  0
 42 66  1  0  0  0
 42113  1  0  0  0
 42114  1  0  0  0
 43 44  1  0  0  0
 44115  1  0  0  0
 45 46  2  0  0  0
 45116  1  0  0  0
 46117  1  0  0  0
 47118  1  0  0  0
 47119  1  0  0  0
 48 56  1  0  0  0
 48 65  1  0  0  0
 48120  1  0  0  0
 49 50  1  0  0  0
 49 53  1  0  0  0
 49 64  1  0  0  0
 49121  1  0  0  0
 50 51  1  0  0  0
 50122  1  0  0  0
 50123  1  0  0  0
 51 52  1  0  0  0
 51124  1  0  0  0
 51125  1  0  0  0
 52126  1  0  0  0
 52127  1  0  0  0
 53 54  1  0  0  0
 54 55  2  0  0  0
 54128  1  0  0  0
 55 57  1  0  0  0
 55129  1  0  0  0
 56 69  2  0  0  0
 57 58  2  0  0  0
 57130  1  0  0  0
 58131  1  0  0  0
 59 60  1  0  0  0
 59 61  1  0  0  0
 59 62  1  0  0  0
 60132  1  0  0  0
 60133  1  0  0  0
 60134  1  0  0  0
 61135  1  0  0  0
 61136  1  0  0  0
 61137  1  0  0  0
 62138  1  0  0  0
 62139  1  0  0  0
 62140  1  0  0  0
 63 65  1  0  0  0
 63141  1  0  0  0
 63142  1  0  0  0
 63143  1  0  0  0
 64144  1  0  0  0
 65145  1  0  0  0
 68 83  1  0  0  0
 71 72  2  0  0  0
 71 75  1  0  0  0
 71146  1  0  0  0
 72 76  1  0  0  0
 72147  1  0  0  0
 73 74  1  0  0  0
 73 75  2  0  0  0
 73148  1  0  0  0
 74 76  2  0  0  0
 74 81  1  0  0  0
 75 84  1  0  0  0
 76 85  1  0  0  0
 77 80  1  0  0  0
 77 84  1  0  0  0
 77 86  2  0  0  0
 78 79  1  0  0  0
 78 80  1  0  0  0
 78149  1  0  0  0
 78150  1  0  0  0
 79 84  1  0  0  0
 79151  1  0  0  0
 79152  1  0  0  0
 80 82  1  0  0  0
 80 83  1  0  0  0
 81153  1  0  0  0
 81154  1  0  0  0
 81155  1  0  0  0
 82156  1  0  0  0
 82157  1  0  0  0
 82158  1  0  0  0
 83159  1  0  0  0
 83160  1  0  0  0
 85161  1  0  0  0
 86162  1  0  0  0
 86163  1  0  0  0
M  CHG  1  86   1
M  ISO  4   1 100  68 101  83 101  85 100
M  END
> <chiral flag>
0

> <version>
0

> <s_m_source_file>
/data/baiqing/PycharmProjects/Reinvent-master-3.2/result/LINK_invent/BTK/process_docking_weight1_custom_product_contain_oxygen_bond_distance_aromatic_linkinvent_7_9_3/rearranged_h_0073.sdf

> <i_m_source_file_index>
49

> <r_mmod_Potential_Energy-OPLS-2005>
61.6714363098145

> <r_mmod_Stretch_Energy-OPLS-2005>
85.4132308959961

> <r_mmod_Bend_Energy-OPLS-2005>
188.531356811523

> <r_mmod_Torsional_Energy-OPLS-2005>
230.251388549805

> <r_mmod_Improper_Torsional_Energy-OPLS-2005>
4.63066339492798

> <r_mmod_Van_der_Waal_Energy-OPLS-2005>
137.549285888672

> <r_mmod_Electrostatic_Energy-OPLS-2005>
-225.770294189453

> <r_mmod_Solvation_Energy-OPLS-2005>
-412.489440917969

> <b_mmod_Minimization_Converged-OPLS-2005>
0

> <r_mmod_RMS_Derivative-OPLS-2005>
1.88626646995544

$$$$
49
                    3D
 Structure written by MMmdl.
160169  0  0  1  0            999 V2000
  -30.6319  -14.5381   20.6031 C   0  0  0  0  0  0
  -30.4534  -12.3659   19.4263 C   0  0  0  0  0  0
  -29.5149  -12.5440   18.2084 C   0  0  0  0  0  0
  -28.0173  -12.4309   18.5947 C   0  0  0  0  0  0
  -27.6557  -13.2208   19.8843 C   0  0  2  0  0  0
  -28.6998  -12.9748   20.9948 C   0  0  0  0  0  0
  -25.2485  -13.8189   20.5655 C   0  0  0  0  0  0
  -24.1781  -13.0435   20.9200 C   0  0  0  0  0  0
  -24.6399  -11.6922   20.8805 C   0  0  0  0  0  0
  -23.9129  -10.4284   21.0500 C   0  0  0  0  0  0
  -24.3704   -9.4140   21.9204 C   0  0  0  0  0  0
  -23.6310   -8.2209   22.0751 C   0  0  0  0  0  0
  -22.4249   -8.0315   21.3575 C   0  0  0  0  0  0
  -21.9955   -9.0313   20.4674 C   0  0  0  0  0  0
  -22.7347  -10.2148   20.3096 C   0  0  0  0  0  0
  -21.6828   -6.0787   22.5287 C   0  0  0  0  0  0
  -21.3994   -6.5673   23.8239 C   0  0  0  0  0  0
  -21.3669   -5.6808   24.9192 C   0  0  0  0  0  0
  -21.6073   -4.3072   24.7206 C   0  0  0  0  0  0
  -21.8800   -3.8174   23.4306 C   0  0  0  0  0  0
  -21.9167   -4.7018   22.3386 C   0  0  0  0  0  0
  -22.7810  -13.5242   21.1881 C   0  0  0  0  0  0
  -22.1623   -4.2239   21.0942 F   0  0  0  0  0  0
  -21.5670   -3.4538   25.7699 F   0  0  0  0  0  0
  -30.0149  -13.3321   20.4432 N   0  0  0  0  0  0
  -26.2967  -12.9398   20.3378 N   0  0  0  0  0  0
  -25.9300  -11.6547   20.5725 N   0  0  0  0  0  0
  -22.0423  -12.8285   22.0473 N   0  0  0  0  0  0
  -25.4081  -15.1911   20.3986 N   0  0  0  0  0  0
  -31.8134  -14.7121   20.3036 O   0  0  0  0  0  0
  -21.6588   -6.8916   21.4237 O   0  0  0  0  0  0
  -22.3501  -14.5533   20.6683 O   0  0  0  0  0  0
  -24.6215  -31.8701   23.2036 C   0  0  0  0  0  0
  -25.9098  -32.4808   23.8358 C   0  0  1  0  0  0
  -27.1583  -27.3500   20.1187 C   0  0  0  0  0  0
  -25.5906  -33.8589   24.2289 N   0  0  0  0  0  0
  -23.4015  -30.5053   21.5505 C   0  0  2  0  0  0
  -24.8299  -28.9675   20.1024 C   0  0  0  0  0  0
  -22.7444  -29.4701   22.4934 C   0  0  0  0  0  0
  -18.0319  -28.1444   22.8494 C   0  0  0  0  0  0
  -24.1483  -36.7285   23.2633 C   0  0  0  0  0  0
  -25.9383  -30.8186   21.3547 C   0  0  0  0  0  0
  -25.9997  -29.4459   20.7081 C   0  0  0  0  0  0
  -27.1676  -28.6447   20.7084 C   0  0  0  0  0  0
  -25.9744  -26.9103   19.4861 C   0  0  0  0  0  0
  -24.8162  -27.7077   19.4900 C   0  0  0  0  0  0
  -23.6031  -29.8516   20.1605 C   0  0  0  0  0  0
  -25.4096  -36.3040   24.0311 C   0  0  1  0  0  0
  -20.5885  -28.3721   23.1306 C   0  0  2  0  0  0
  -20.6773  -26.9435   22.5457 C   0  0  0  0  0  0
  -19.5743  -26.6400   21.5271 C   0  0  0  0  0  0
  -18.1928  -26.7980   22.1678 C   0  0  0  0  0  0
  -19.1549  -28.8907   23.2900 C   0  0  0  0  0  0
  -18.9491  -30.1521   23.8905 C   0  0  0  0  0  0
  -17.6488  -30.6616   24.0614 C   0  0  0  0  0  0
  -25.9075  -34.9442   23.5112 C   0  0  0  0  0  0
  -16.5381  -29.9140   23.6337 C   0  0  0  0  0  0
  -16.7316  -28.6575   23.0316 C   0  0  0  0  0  0
  -26.4493  -31.6566   25.0689 C   0  0  0  0  0  0
  -25.3776  -31.3750   26.1461 C   0  0  0  0  0  0
  -27.0297  -30.2982   24.6061 C   0  0  0  0  0  0
  -27.6063  -32.4254   25.7487 C   0  0  0  0  0  0
  -27.5560  -37.1784   24.8462 C   0  0  0  0  0  0
  -21.4164  -29.3038   22.3653 N   0  0  0  0  0  0
  -26.4273  -37.3729   23.9401 N   0  0  0  0  0  0
  -24.6743  -31.0815   22.0949 N   0  0  0  0  0  0
  -23.4206  -28.8254   23.2970 O   0  0  0  0  0  0
  -28.2608  -26.5179   20.2222 O   0  0  0  0  0  0
  -26.5667  -34.8922   22.4701 O   0  0  0  0  0  0
  -23.5401  -32.1421   23.7457 O   0  0  0  0  0  0
  -28.9945  -18.8300   18.1028 C   0  0  0  0  0  0
  -29.4255  -17.7905   18.9334 C   0  0  0  0  0  0
  -28.4400  -20.0051   18.6454 C   0  0  0  0  0  0
  -28.7427  -19.1008   20.8816 C   0  0  0  0  0  0
  -29.3317  -17.9115   20.3352 C   0  0  0  0  0  0
  -28.2929  -20.1839   20.0490 C   0  0  0  0  0  0
  -27.0554  -24.0264   21.7839 C   0  0  0  0  0  0
  -27.7402  -24.0516   20.4815 C   0  0  0  0  0  0
  -27.0548  -25.0601   22.6571 C   0  0  0  0  0  0
  -28.2093  -25.1724   19.8350 C   0  0  0  0  0  0
  -30.0259  -16.8439   21.1707 C   0  0  0  0  0  0
  -26.3389  -22.7322   22.1613 C   0  0  0  0  0  0
  -27.9807  -22.6736   19.7791 C   0  0  0  0  0  0
  -27.2800  -21.5184   21.9544 C   0  0  0  0  0  0
  -27.7548  -21.4175   20.5593 N   0  0  0  0  0  0
  -29.7621  -15.5607   20.8290 N   0  0  0  0  0  0
  -30.7959  -17.1733   22.0752 O   0  0  0  0  0  0
  -31.5008  -12.5221   19.1437 H   0  0  0  0  0  0
  -30.3983  -11.3462   19.8090 H   0  0  0  0  0  0
  -29.7447  -11.8191   17.4256 H   0  0  0  0  0  0
  -29.7050  -13.5294   17.7753 H   0  0  0  0  0  0
  -27.7616  -11.3761   18.6972 H   0  0  0  0  0  0
  -27.4099  -12.8075   17.7748 H   0  0  0  0  0  0
  -27.6941  -14.2772   19.6261 H   0  0  0  0  0  0
  -28.6890  -11.9226   21.2846 H   0  0  0  0  0  0
  -28.4752  -13.5361   21.9081 H   0  0  0  0  0  0
  -25.2905   -9.5511   22.4741 H   0  0  0  0  0  0
  -24.0060   -7.4528   22.7382 H   0  0  0  0  0  0
  -21.0929   -8.8862   19.8934 H   0  0  0  0  0  0
  -22.3894  -10.9706   19.6180 H   0  0  0  0  0  0
  -21.1950   -7.6162   23.9779 H   0  0  0  0  0  0
  -21.1543   -6.0505   25.9119 H   0  0  0  0  0  0
  -22.0562   -2.7634   23.2750 H   0  0  0  0  0  0
  -22.4092  -12.0087   22.5111 H   0  0  0  0  0  0
  -21.0969  -13.1248   22.2566 H   0  0  0  0  0  0
  -24.6212  -15.8243   20.4836 H   0  0  0  0  0  0
  -26.2357  -15.6418   20.0333 H   0  0  0  0  0  0
  -26.7188  -32.5469   23.1134 H   0  0  0  0  0  0
  -24.9940  -33.9748   25.0348 H   0  0  0  0  0  0
  -22.6886  -31.3221   21.4208 H   0  0  0  0  0  0
  -23.3720  -35.9654   23.3321 H   0  0  0  0  0  0
  -24.3577  -36.8915   22.2052 H   0  0  0  0  0  0
  -23.7308  -37.6513   23.6680 H   0  0  0  0  0  0
  -26.0442  -31.5655   20.5646 H   0  0  0  0  0  0
  -26.8390  -30.8843   21.9554 H   0  0  0  0  0  0
  -28.0674  -29.0037   21.1910 H   0  0  0  0  0  0
  -25.9159  -25.9425   19.0124 H   0  0  0  0  0  0
  -23.9050  -27.3464   19.0299 H   0  0  0  0  0  0
  -23.7128  -30.6363   19.4099 H   0  0  0  0  0  0
  -22.7198  -29.2810   19.8631 H   0  0  0  0  0  0
  -25.1275  -36.1864   25.0799 H   0  0  0  0  0  0
  -21.0021  -28.3370   24.1413 H   0  0  0  0  0  0
  -20.5666  -26.2375   23.3695 H   0  0  0  0  0  0
  -21.6654  -26.7438   22.1255 H   0  0  0  0  0  0
  -19.6886  -25.6306   21.1320 H   0  0  0  0  0  0
  -19.6687  -27.3223   20.6814 H   0  0  0  0  0  0
  -17.4172  -26.6765   21.4102 H   0  0  0  0  0  0
  -18.0307  -26.0162   22.9115 H   0  0  0  0  0  0
  -19.7964  -30.7357   24.2224 H   0  0  0  0  0  0
  -17.5043  -31.6280   24.5258 H   0  0  0  0  0  0
  -15.5377  -30.3053   23.7631 H   0  0  0  0  0  0
  -15.8726  -28.0947   22.6919 H   0  0  0  0  0  0
  -24.5945  -30.7058   25.7865 H   0  0  0  0  0  0
  -24.8984  -32.2969   26.4780 H   0  0  0  0  0  0
  -25.8132  -30.9045   27.0298 H   0  0  0  0  0  0
  -26.2852  -29.6785   24.1040 H   0  0  0  0  0  0
  -27.4020  -29.7097   25.4469 H   0  0  0  0  0  0
  -27.8689  -30.4281   23.9216 H   0  0  0  0  0  0
  -27.2680  -33.3561   26.2058 H   0  0  0  0  0  0
  -28.3910  -32.6814   25.0353 H   0  0  0  0  0  0
  -28.0703  -31.8389   26.5447 H   0  0  0  0  0  0
  -28.2546  -38.0093   24.7423 H   0  0  0  0  0  0
  -28.1075  -36.2607   24.6336 H   0  0  0  0  0  0
  -27.2303  -37.1490   25.8879 H   0  0  0  0  0  0
  -20.9330  -29.8807   21.6911 H   0  0  0  0  0  0
  -26.0132  -38.2790   24.1424 H   0  0  0  0  0  0
  -29.1250  -18.7135   17.0362 H   0  0  0  0  0  0
  -29.8847  -16.9242   18.4725 H   0  0  0  0  0  0
  -28.1299  -20.7605   17.9364 H   0  0  0  0  0  0
  -28.6733  -19.1999   21.9552 H   0  0  0  0  0  0
  -27.5538  -25.9944   22.4643 H   0  0  0  0  0  0
  -26.5397  -24.9971   23.6045 H   0  0  0  0  0  0
  -28.7012  -25.0677   18.8790 H   0  0  0  0  0  0
  -25.4349  -22.6316   21.5524 H   0  0  0  0  0  0
  -25.9951  -22.7662   23.2002 H   0  0  0  0  0  0
  -29.0152  -22.6724   19.4229 H   0  0  0  0  0  0
  -27.3373  -22.6455   18.8906 H   0  0  0  0  0  0
  -26.7511  -20.6179   22.2746 H   0  0  0  0  0  0
  -28.1304  -21.6150   22.6320 H   0  0  0  0  0  0
  -28.8273  -15.3826   20.5172 H   0  0  0  0  0  0
  1 25  1  0  0  0
  1 30  2  0  0  0
  1 86  1  0  0  0
  2  3  1  0  0  0
  2 25  1  0  0  0
  2 88  1  0  0  0
  2 89  1  0  0  0
  3  4  1  0  0  0
  3 90  1  0  0  0
  3 91  1  0  0  0
  4  5  1  0  0  0
  4 92  1  0  0  0
  4 93  1  0  0  0
  5  6  1  0  0  0
  5 26  1  0  0  0
  5 94  1  0  0  0
  6 25  1  0  0  0
  6 95  1  0  0  0
  6 96  1  0  0  0
  7  8  2  0  0  0
  7 26  1  0  0  0
  7 29  1  0  0  0
  8  9  1  0  0  0
  8 22  1  0  0  0
  9 10  1  0  0  0
  9 27  2  0  0  0
 10 11  2  0  0  0
 10 15  1  0  0  0
 11 12  1  0  0  0
 11 97  1  0  0  0
 12 13  2  0  0  0
 12 98  1  0  0  0
 13 14  1  0  0  0
 13 31  1  0  0  0
 14 15  2  0  0  0
 14 99  1  0  0  0
 15100  1  0  0  0
 16 17  2  0  0  0
 16 21  1  0  0  0
 16 31  1  0  0  0
 17 18  1  0  0  0
 17101  1  0  0  0
 18 19  2  0  0  0
 18102  1  0  0  0
 19 20  1  0  0  0
 19 24  1  0  0  0
 20 21  2  0  0  0
 20103  1  0  0  0
 21 23  1  0  0  0
 22 28  1  0  0  0
 22 32  2  0  0  0
 26 27  1  0  0  0
 28104  1  0  0  0
 28105  1  0  0  0
 29106  1  0  0  0
 29107  1  0  0  0
 33 34  1  0  0  0
 33 66  1  0  0  0
 33 70  2  0  0  0
 34 36  1  0  0  0
 34 59  1  0  0  0
 34108  1  0  0  0
 35 44  2  0  0  0
 35 45  1  0  0  0
 35 68  1  0  0  0
 36 56  1  0  0  0
 36109  1  0  0  0
 37 39  1  0  0  0
 37 47  1  0  0  0
 37 66  1  0  0  0
 37110  1  0  0  0
 38 43  2  0  0  0
 38 46  1  0  0  0
 38 47  1  0  0  0
 39 64  1  0  0  0
 39 67  2  0  0  0
 40 52  1  0  0  0
 40 53  2  0  0  0
 40 58  1  0  0  0
 41111  1  0  0  0
 41112  1  0  0  0
 41113  1  0  0  0
 41 48  1  0  0  0
 42 43  1  0  0  0
 42 66  1  0  0  0
 42114  1  0  0  0
 42115  1  0  0  0
 43 44  1  0  0  0
 44116  1  0  0  0
 45 46  2  0  0  0
 45117  1  0  0  0
 46118  1  0  0  0
 47119  1  0  0  0
 47120  1  0  0  0
 48 56  1  0  0  0
 48 65  1  0  0  0
 48121  1  0  0  0
 49 50  1  0  0  0
 49 53  1  0  0  0
 49 64  1  0  0  0
 49122  1  0  0  0
 50 51  1  0  0  0
 50123  1  0  0  0
 50124  1  0  0  0
 51 52  1  0  0  0
 51125  1  0  0  0
 51126  1  0  0  0
 52127  1  0  0  0
 52128  1  0  0  0
 53 54  1  0  0  0
 54 55  2  0  0  0
 54129  1  0  0  0
 55 57  1  0  0  0
 55130  1  0  0  0
 56 69  2  0  0  0
 57 58  2  0  0  0
 57131  1  0  0  0
 58132  1  0  0  0
 59 60  1  0  0  0
 59 61  1  0  0  0
 59 62  1  0  0  0
 60133  1  0  0  0
 60134  1  0  0  0
 60135  1  0  0  0
 61136  1  0  0  0
 61137  1  0  0  0
 61138  1  0  0  0
 62139  1  0  0  0
 62140  1  0  0  0
 62141  1  0  0  0
 63 65  1  0  0  0
 63142  1  0  0  0
 63143  1  0  0  0
 63144  1  0  0  0
 64145  1  0  0  0
 65146  1  0  0  0
 68 80  1  0  0  0
 71 72  2  0  0  0
 71 73  1  0  0  0
 71147  1  0  0  0
 72 75  1  0  0  0
 72148  1  0  0  0
 73 76  2  0  0  0
 73149  1  0  0  0
 74 75  2  0  0  0
 74 76  1  0  0  0
 74150  1  0  0  0
 75 81  1  0  0  0
 76 85  1  0  0  0
 77 78  1  0  0  0
 77 79  2  0  0  0
 77 82  1  0  0  0
 78 80  2  0  0  0
 78 83  1  0  0  0
 79151  1  0  0  0
 79152  1  0  0  0
 80153  1  0  0  0
 81 86  1  0  0  0
 81 87  2  0  0  0
 82 84  1  0  0  0
 82154  1  0  0  0
 82155  1  0  0  0
 83 85  1  0  0  0
 83156  1  0  0  0
 83157  1  0  0  0
 84 85  1  0  0  0
 84158  1  0  0  0
 84159  1  0  0  0
 86160  1  0  0  0
M  ISO  4   1 100  68 101  80 101  86 100
M  END
> <chiral flag>
0

> <version>
0

> <s_m_source_file>
/data/baiqing/PycharmProjects/Reinvent-master-3.2/result/LINK_invent/BTK/process_docking_weight1_custom_product_contain_oxygen_bond_distance_aromatic_linkinvent_7_9_3/rearranged_h_0073.sdf

> <i_m_source_file_index>
50

> <r_mmod_Potential_Energy-OPLS-2005>
20.6202983856201

> <r_mmod_Stretch_Energy-OPLS-2005>
64.5100250244141

> <r_mmod_Bend_Energy-OPLS-2005>
148.422790527344

> <r_mmod_Torsional_Energy-OPLS-2005>
293.601989746094

> <r_mmod_Improper_Torsional_Energy-OPLS-2005>
9.11181545257568

> <r_mmod_Van_der_Waal_Energy-OPLS-2005>
157.622787475586

> <r_mmod_Electrostatic_Energy-OPLS-2005>
-463.775543212891

> <r_mmod_Solvation_Energy-OPLS-2005>
-229.672439575195

> <b_mmod_Minimization_Converged-OPLS-2005>
0

> <r_mmod_RMS_Derivative-OPLS-2005>
10.2978286743164

$$$$
50
                    3D
 Structure written by MMmdl.
162170  0  0  1  0            999 V2000
  -30.6542  -14.5927   20.4822 C   0  0  0  0  0  0
  -30.4291  -12.3658   19.4202 C   0  0  0  0  0  0
  -29.4968  -12.5110   18.1992 C   0  0  0  0  0  0
  -28.0199  -12.3503   18.6187 C   0  0  0  0  0  0
  -27.6538  -13.2117   19.8568 C   0  0  2  0  0  0
  -28.7077  -13.0535   20.9735 C   0  0  0  0  0  0
  -25.2592  -13.8163   20.5664 C   0  0  0  0  0  0
  -24.1848  -13.0443   20.9189 C   0  0  0  0  0  0
  -24.6383  -11.6900   20.8702 C   0  0  0  0  0  0
  -23.9036  -10.4280   21.0371 C   0  0  0  0  0  0
  -24.3604   -9.4204   21.9149 C   0  0  0  0  0  0
  -23.6281   -8.2234   22.0729 C   0  0  0  0  0  0
  -22.4258   -8.0265   21.3533 C   0  0  0  0  0  0
  -21.9889   -9.0225   20.4624 C   0  0  0  0  0  0
  -22.7205  -10.2116   20.3029 C   0  0  0  0  0  0
  -21.6864   -6.0715   22.5276 C   0  0  0  0  0  0
  -21.4014   -6.5623   23.8204 C   0  0  0  0  0  0
  -21.3670   -5.6787   24.9172 C   0  0  0  0  0  0
  -21.6056   -4.3045   24.7221 C   0  0  0  0  0  0
  -21.8824   -3.8127   23.4348 C   0  0  0  0  0  0
  -21.9188   -4.6939   22.3399 C   0  0  0  0  0  0
  -22.7871  -13.5233   21.1842 C   0  0  0  0  0  0
  -22.1663   -4.2127   21.0982 F   0  0  0  0  0  0
  -21.5640   -3.4531   25.7738 F   0  0  0  0  0  0
  -30.0146  -13.3908   20.3916 N   0  0  0  0  0  0
  -26.3011  -12.9323   20.3316 N   0  0  0  0  0  0
  -25.9319  -11.6481   20.5751 N   0  0  0  0  0  0
  -22.0526  -12.8215   22.0413 N   0  0  0  0  0  0
  -25.4292  -15.1876   20.3994 N   0  0  0  0  0  0
  -31.8463  -14.7096   20.1868 O   0  0  0  0  0  0
  -21.6637   -6.8850   21.4231 O   0  0  0  0  0  0
  -22.3541  -14.5514   20.6662 O   0  0  0  0  0  0
  -24.6280  -31.8692   23.2031 C   0  0  0  0  0  0
  -25.9126  -32.4839   23.8389 C   0  0  1  0  0  0
  -27.2166  -27.3516   20.0966 C   0  0  0  0  0  0
  -25.5966  -33.8633   24.2366 N   0  0  0  0  0  0
  -23.4192  -30.4858   21.5500 C   0  0  2  0  0  0
  -24.8634  -28.9410   20.1162 C   0  0  0  0  0  0
  -22.7460  -29.4663   22.5011 C   0  0  0  0  0  0
  -18.0295  -28.1404   22.8524 C   0  0  0  0  0  0
  -24.1471  -36.7279   23.2630 C   0  0  0  0  0  0
  -25.9575  -30.7972   21.3753 C   0  0  0  0  0  0
  -26.0331  -29.4269   20.7170 C   0  0  0  0  0  0
  -27.2202  -28.6391   20.7022 C   0  0  0  0  0  0
  -26.0326  -26.9047   19.4806 C   0  0  0  0  0  0
  -24.8593  -27.6803   19.4964 C   0  0  0  0  0  0
  -23.6333  -29.8198   20.1652 C   0  0  0  0  0  0
  -25.4085  -36.3121   24.0358 C   0  0  1  0  0  0
  -20.5871  -28.3709   23.1298 C   0  0  2  0  0  0
  -20.6763  -26.9450   22.5380 C   0  0  0  0  0  0
  -19.5718  -26.6415   21.5204 C   0  0  0  0  0  0
  -18.1928  -26.7944   22.1661 C   0  0  0  0  0  0
  -19.1539  -28.8872   23.2917 C   0  0  0  0  0  0
  -18.9458  -30.1481   23.8915 C   0  0  0  0  0  0
  -17.6456  -30.6606   24.0576 C   0  0  0  0  0  0
  -25.9038  -34.9489   23.5146 C   0  0  0  0  0  0
  -16.5349  -29.9094   23.6347 C   0  0  0  0  0  0
  -16.7280  -28.6501   23.0392 C   0  0  0  0  0  0
  -26.4511  -31.6599   25.0723 C   0  0  0  0  0  0
  -25.3753  -31.3764   26.1462 C   0  0  0  0  0  0
  -27.0305  -30.3011   24.6179 C   0  0  0  0  0  0
  -27.6118  -32.4294   25.7457 C   0  0  0  0  0  0
  -27.5577  -37.1775   24.8476 C   0  0  0  0  0  0
  -21.4195  -29.3065   22.3672 N   0  0  0  0  0  0
  -26.4301  -37.3785   23.9424 N   0  0  0  0  0  0
  -24.6866  -31.0649   22.1006 N   0  0  0  0  0  0
  -23.4189  -28.8244   23.3108 O   0  0  0  0  0  0
  -28.2925  -26.4723   20.0980 O   0  0  0  0  0  0
  -26.5593  -34.8939   22.4705 O   0  0  0  0  0  0
  -23.5437  -32.1536   23.7315 O   0  0  0  0  0  0
  -29.8252  -20.6709   18.7002 C   0  0  0  0  0  0
  -30.3361  -19.4634   18.1790 C   0  0  0  0  0  0
  -29.4563  -19.5326   20.8122 C   0  0  0  0  0  0
  -30.0114  -18.2967   20.3142 C   0  0  0  0  0  0
  -29.3741  -20.7392   20.0378 C   0  0  0  0  0  0
  -30.4410  -18.3000   18.9656 C   0  0  0  0  0  0
  -28.3511  -25.6147   21.1868 C   0  0  0  0  0  0
  -28.5768  -24.2616   21.2969 C   0  0  0  0  0  0
  -28.8152  -23.2748   20.2055 C   0  0  0  0  0  0
  -29.6438  -15.9270   23.5033 C   0  0  0  0  0  0
  -30.8961  -18.1265   23.4757 C   0  0  0  0  0  0
  -30.3110  -17.0372   21.2202 C   0  0  1  0  0  0
  -29.8939  -17.2319   22.7164 C   0  0  0  0  0  0
  -28.8976  -21.9741   20.6549 N   0  0  0  0  0  0
  -29.8741  -15.6800   20.7516 N   0  0  0  0  0  0
  -28.9013  -23.5707   19.0164 O   0  0  0  0  0  0
  -28.6187  -23.7941   22.5565 O   0  0  0  0  0  0
  -31.0082  -17.1980   18.4186 F   0  0  0  0  0  0
  -31.4728  -12.4701   19.1188 H   0  0  0  0  0  0
  -30.3417  -11.3674   19.8539 H   0  0  0  0  0  0
  -29.7550  -11.7815   17.4295 H   0  0  0  0  0  0
  -29.6409  -13.4947   17.7471 H   0  0  0  0  0  0
  -27.8491  -11.2950   18.8349 H   0  0  0  0  0  0
  -27.3627  -12.5975   17.7842 H   0  0  0  0  0  0
  -27.6763  -14.2497   19.5251 H   0  0  0  0  0  0
  -28.7227  -12.0275   21.3472 H   0  0  0  0  0  0
  -28.4715  -13.6781   21.8336 H   0  0  0  0  0  0
  -25.2758   -9.5696   22.4704 H   0  0  0  0  0  0
  -24.0009   -7.4637   22.7446 H   0  0  0  0  0  0
  -21.0829   -8.8710   19.8928 H   0  0  0  0  0  0
  -22.3640  -10.9633   19.6129 H   0  0  0  0  0  0
  -21.2004   -7.6133   23.9704 H   0  0  0  0  0  0
  -21.1506   -6.0513   25.9079 H   0  0  0  0  0  0
  -22.0597   -2.7582   23.2856 H   0  0  0  0  0  0
  -22.4148  -11.9873   22.4781 H   0  0  0  0  0  0
  -21.1146  -13.1218   22.2620 H   0  0  0  0  0  0
  -24.6517  -15.8336   20.4696 H   0  0  0  0  0  0
  -26.2581  -15.6143   20.0081 H   0  0  0  0  0  0
  -26.7191  -32.5518   23.1143 H   0  0  0  0  0  0
  -25.0129  -33.9774   25.0528 H   0  0  0  0  0  0
  -22.7120  -31.3037   21.4019 H   0  0  0  0  0  0
  -23.3796  -35.9552   23.3310 H   0  0  0  0  0  0
  -24.3544  -36.8868   22.2035 H   0  0  0  0  0  0
  -23.7185  -37.6467   23.6636 H   0  0  0  0  0  0
  -26.0725  -31.5621   20.6071 H   0  0  0  0  0  0
  -26.8419  -30.8528   21.9975 H   0  0  0  0  0  0
  -28.1260  -28.9996   21.1701 H   0  0  0  0  0  0
  -26.0115  -25.9304   19.0119 H   0  0  0  0  0  0
  -23.9550  -27.2983   19.0398 H   0  0  0  0  0  0
  -23.7540  -30.5998   19.4110 H   0  0  0  0  0  0
  -22.7541  -29.2442   19.8686 H   0  0  0  0  0  0
  -25.1234  -36.1984   25.0857 H   0  0  0  0  0  0
  -20.9959  -28.3308   24.1425 H   0  0  0  0  0  0
  -20.5685  -26.2354   23.3600 H   0  0  0  0  0  0
  -21.6635  -26.7520   22.1142 H   0  0  0  0  0  0
  -19.6904  -25.6322   21.1259 H   0  0  0  0  0  0
  -19.6626  -27.3228   20.6716 H   0  0  0  0  0  0
  -17.4173  -26.6744   21.4096 H   0  0  0  0  0  0
  -18.0350  -26.0056   22.9016 H   0  0  0  0  0  0
  -19.7913  -30.7311   24.2313 H   0  0  0  0  0  0
  -17.4980  -31.6283   24.5166 H   0  0  0  0  0  0
  -15.5341  -30.2992   23.7606 H   0  0  0  0  0  0
  -15.8694  -28.0787   22.7118 H   0  0  0  0  0  0
  -24.5774  -30.7341   25.7743 H   0  0  0  0  0  0
  -24.9136  -32.2946   26.5092 H   0  0  0  0  0  0
  -25.7992  -30.8708   27.0141 H   0  0  0  0  0  0
  -26.2863  -29.6779   24.1229 H   0  0  0  0  0  0
  -27.4021  -29.7271   25.4672 H   0  0  0  0  0  0
  -27.8719  -30.4272   23.9377 H   0  0  0  0  0  0
  -27.2835  -33.3654   26.1995 H   0  0  0  0  0  0
  -28.3925  -32.6753   25.0248 H   0  0  0  0  0  0
  -28.0794  -31.8439   26.5384 H   0  0  0  0  0  0
  -28.2582  -38.0076   24.7520 H   0  0  0  0  0  0
  -28.1097  -36.2612   24.6315 H   0  0  0  0  0  0
  -27.2294  -37.1401   25.8878 H   0  0  0  0  0  0
  -20.9411  -29.8706   21.6777 H   0  0  0  0  0  0
  -26.0224  -38.2880   24.1437 H   0  0  0  0  0  0
  -29.8185  -21.5353   18.0528 H   0  0  0  0  0  0
  -30.6970  -19.4379   17.1614 H   0  0  0  0  0  0
  -29.1332  -19.5979   21.8397 H   0  0  0  0  0  0
  -28.1973  -26.1887   22.0893 H   0  0  0  0  0  0
  -29.5549  -16.1140   24.5722 H   0  0  0  0  0  0
  -30.4408  -15.1981   23.3633 H   0  0  0  0  0  0
  -28.7039  -15.4661   23.1982 H   0  0  0  0  0  0
  -30.5088  -18.4030   24.4565 H   0  0  0  0  0  0
  -31.1145  -19.0543   22.9460 H   0  0  0  0  0  0
  -31.8478  -17.6166   23.6272 H   0  0  0  0  0  0
  -31.4035  -16.9945   21.2218 H   0  0  0  0  0  0
  -28.9188  -17.7172   22.7324 H   0  0  0  0  0  0
  -28.5957  -21.8678   21.6098 H   0  0  0  0  0  0
  -28.8897  -15.4841   20.8499 H   0  0  0  0  0  0
  -29.1402  -23.0027   22.5477 H   0  0  0  0  0  0
  1 25  1  0  0  0
  1 30  2  0  0  0
  1 85  1  0  0  0
  2  3  1  0  0  0
  2 25  1  0  0  0
  2 89  1  0  0  0
  2 90  1  0  0  0
  3  4  1  0  0  0
  3 91  1  0  0  0
  3 92  1  0  0  0
  4  5  1  0  0  0
  4 93  1  0  0  0
  4 94  1  0  0  0
  5  6  1  0  0  0
  5 26  1  0  0  0
  5 95  1  0  0  0
  6 25  1  0  0  0
  6 96  1  0  0  0
  6 97  1  0  0  0
  7  8  2  0  0  0
  7 26  1  0  0  0
  7 29  1  0  0  0
  8  9  1  0  0  0
  8 22  1  0  0  0
  9 10  1  0  0  0
  9 27  2  0  0  0
 10 11  2  0  0  0
 10 15  1  0  0  0
 11 12  1  0  0  0
 11 98  1  0  0  0
 12 13  2  0  0  0
 12 99  1  0  0  0
 13 14  1  0  0  0
 13 31  1  0  0  0
 14 15  2  0  0  0
 14100  1  0  0  0
 15101  1  0  0  0
 16 17  2  0  0  0
 16 21  1  0  0  0
 16 31  1  0  0  0
 17 18  1  0  0  0
 17102  1  0  0  0
 18 19  2  0  0  0
 18103  1  0  0  0
 19 20  1  0  0  0
 19 24  1  0  0  0
 20 21  2  0  0  0
 20104  1  0  0  0
 21 23  1  0  0  0
 22 28  1  0  0  0
 22 32  2  0  0  0
 26 27  1  0  0  0
 28105  1  0  0  0
 28106  1  0  0  0
 29107  1  0  0  0
 29108  1  0  0  0
 33 34  1  0  0  0
 33 66  1  0  0  0
 33 70  2  0  0  0
 34 36  1  0  0  0
 34 59  1  0  0  0
 34109  1  0  0  0
 35 44  2  0  0  0
 35 45  1  0  0  0
 35 68  1  0  0  0
 36 56  1  0  0  0
 36110  1  0  0  0
 37 39  1  0  0  0
 37 47  1  0  0  0
 37 66  1  0  0  0
 37111  1  0  0  0
 38 43  2  0  0  0
 38 46  1  0  0  0
 38 47  1  0  0  0
 39 64  1  0  0  0
 39 67  2  0  0  0
 40 52  1  0  0  0
 40 53  2  0  0  0
 40 58  1  0  0  0
 41112  1  0  0  0
 41113  1  0  0  0
 41114  1  0  0  0
 41 48  1  0  0  0
 42 43  1  0  0  0
 42 66  1  0  0  0
 42115  1  0  0  0
 42116  1  0  0  0
 43 44  1  0  0  0
 44117  1  0  0  0
 45 46  2  0  0  0
 45118  1  0  0  0
 46119  1  0  0  0
 47120  1  0  0  0
 47121  1  0  0  0
 48 56  1  0  0  0
 48 65  1  0  0  0
 48122  1  0  0  0
 49 50  1  0  0  0
 49 53  1  0  0  0
 49 64  1  0  0  0
 49123  1  0  0  0
 50 51  1  0  0  0
 50124  1  0  0  0
 50125  1  0  0  0
 51 52  1  0  0  0
 51126  1  0  0  0
 51127  1  0  0  0
 52128  1  0  0  0
 52129  1  0  0  0
 53 54  1  0  0  0
 54 55  2  0  0  0
 54130  1  0  0  0
 55 57  1  0  0  0
 55131  1  0  0  0
 56 69  2  0  0  0
 57 58  2  0  0  0
 57132  1  0  0  0
 58133  1  0  0  0
 59 60  1  0  0  0
 59 61  1  0  0  0
 59 62  1  0  0  0
 60134  1  0  0  0
 60135  1  0  0  0
 60136  1  0  0  0
 61137  1  0  0  0
 61138  1  0  0  0
 61139  1  0  0  0
 62140  1  0  0  0
 62141  1  0  0  0
 62142  1  0  0  0
 63 65  1  0  0  0
 63143  1  0  0  0
 63144  1  0  0  0
 63145  1  0  0  0
 64146  1  0  0  0
 65147  1  0  0  0
 68 77  1  0  0  0
 71 72  2  0  0  0
 71 75  1  0  0  0
 71148  1  0  0  0
 72 76  1  0  0  0
 72149  1  0  0  0
 73 74  1  0  0  0
 73 75  2  0  0  0
 73150  1  0  0  0
 74 76  2  0  0  0
 74 82  1  0  0  0
 75 84  1  0  0  0
 76 88  1  0  0  0
 77 78  2  0  0  0
 77151  1  0  0  0
 78 79  1  0  0  0
 78 87  1  0  0  0
 79 84  1  0  0  0
 79 86  2  0  0  0
 80152  1  0  0  0
 80153  1  0  0  0
 80154  1  0  0  0
 80 83  1  0  0  0
 81 83  1  0  0  0
 81155  1  0  0  0
 81156  1  0  0  0
 81157  1  0  0  0
 82 83  1  0  0  0
 82 85  1  0  0  0
 82158  1  0  0  0
 83159  1  0  0  0
 84160  1  0  0  0
 85161  1  0  0  0
 87162  1  0  0  0
M  ISO  4   1 100  68 101  77 101  85 100
M  END
> <chiral flag>
0

> <version>
0

> <s_m_source_file>
/data/baiqing/PycharmProjects/Reinvent-master-3.2/result/LINK_invent/BTK/process_docking_weight1_custom_product_contain_oxygen_bond_distance_aromatic_linkinvent_7_9_3/rearranged_h_0073.sdf

> <i_m_source_file_index>
51

> <r_mmod_Potential_Energy-OPLS-2005>
3.09452104568481

> <r_mmod_Stretch_Energy-OPLS-2005>
71.4090423583984

> <r_mmod_Bend_Energy-OPLS-2005>
149.741943359375

> <r_mmod_Torsional_Energy-OPLS-2005>
250.941513061523

> <r_mmod_Improper_Torsional_Energy-OPLS-2005>
5.48802471160889

> <r_mmod_Van_der_Waal_Energy-OPLS-2005>
153.969604492188

> <r_mmod_Electrostatic_Energy-OPLS-2005>
-431.282470703125

> <r_mmod_Solvation_Energy-OPLS-2005>
-238.516677856445

> <b_mmod_Minimization_Converged-OPLS-2005>
0

> <r_mmod_RMS_Derivative-OPLS-2005>
5.28646850585938

$$$$
51
                    3D
 Structure written by MMmdl.
168177  0  0  1  0            999 V2000
  -30.7590  -14.3960   20.6361 C   0  0  0  0  0  0
  -30.4124  -12.2956   19.3917 C   0  0  0  0  0  0
  -29.4765  -12.5013   18.1862 C   0  0  0  0  0  0
  -28.0034  -12.3468   18.6109 C   0  0  0  0  0  0
  -27.6558  -13.1873   19.8667 C   0  0  2  0  0  0
  -28.7015  -12.9736   20.9828 C   0  0  0  0  0  0
  -25.2610  -13.8118   20.5688 C   0  0  0  0  0  0
  -24.1840  -13.0427   20.9175 C   0  0  0  0  0  0
  -24.6358  -11.6880   20.8742 C   0  0  0  0  0  0
  -23.9021  -10.4288   21.0417 C   0  0  0  0  0  0
  -24.3585   -9.4203   21.9192 C   0  0  0  0  0  0
  -23.6274   -8.2229   22.0753 C   0  0  0  0  0  0
  -22.4263   -8.0269   21.3537 C   0  0  0  0  0  0
  -21.9889   -9.0237   20.4646 C   0  0  0  0  0  0
  -22.7199  -10.2123   20.3062 C   0  0  0  0  0  0
  -21.6854   -6.0735   22.5274 C   0  0  0  0  0  0
  -21.4007   -6.5639   23.8211 C   0  0  0  0  0  0
  -21.3660   -5.6791   24.9174 C   0  0  0  0  0  0
  -21.6048   -4.3057   24.7223 C   0  0  0  0  0  0
  -21.8821   -3.8145   23.4348 C   0  0  0  0  0  0
  -21.9193   -4.6960   22.3403 C   0  0  0  0  0  0
  -22.7878  -13.5256   21.1843 C   0  0  0  0  0  0
  -22.1669   -4.2152   21.0980 F   0  0  0  0  0  0
  -21.5628   -3.4540   25.7736 F   0  0  0  0  0  0
  -30.0308  -13.2693   20.4213 N   0  0  0  0  0  0
  -26.2995  -12.9230   20.3351 N   0  0  0  0  0  0
  -25.9266  -11.6417   20.5760 N   0  0  0  0  0  0
  -22.0509  -12.8256   22.0398 N   0  0  0  0  0  0
  -25.4400  -15.1826   20.4115 N   0  0  0  0  0  0
  -31.8652  -14.6009   20.1300 O   0  0  0  0  0  0
  -21.6631   -6.8863   21.4236 O   0  0  0  0  0  0
  -22.3574  -14.5576   20.6713 O   0  0  0  0  0  0
  -24.6075  -31.8698   23.2113 C   0  0  0  0  0  0
  -25.8988  -32.4829   23.8381 C   0  0  1  0  0  0
  -27.2321  -27.4573   20.1063 C   0  0  0  0  0  0
  -25.5857  -33.8634   24.2308 N   0  0  0  0  0  0
  -23.3960  -30.4896   21.5500 C   0  0  2  0  0  0
  -24.8443  -28.9544   20.1209 C   0  0  0  0  0  0
  -22.7359  -29.4657   22.5003 C   0  0  0  0  0  0
  -18.0226  -28.1407   22.8508 C   0  0  0  0  0  0
  -24.1495  -36.7321   23.2645 C   0  0  0  0  0  0
  -25.9222  -30.8417   21.3626 C   0  0  0  0  0  0
  -26.0018  -29.4766   20.7129 C   0  0  0  0  0  0
  -27.2021  -28.7335   20.7047 C   0  0  0  0  0  0
  -26.0655  -26.9462   19.5005 C   0  0  0  0  0  0
  -24.8680  -27.6857   19.5139 C   0  0  0  0  0  0
  -23.6058  -29.8161   20.1667 C   0  0  0  0  0  0
  -25.4115  -36.3115   24.0333 C   0  0  1  0  0  0
  -20.5832  -28.3639   23.1310 C   0  0  2  0  0  0
  -20.6697  -26.9368   22.5382 C   0  0  0  0  0  0
  -19.5647  -26.6400   21.5206 C   0  0  0  0  0  0
  -18.1863  -26.7908   22.1742 C   0  0  0  0  0  0
  -19.1503  -28.8837   23.2902 C   0  0  0  0  0  0
  -18.9485  -30.1457   23.8898 C   0  0  0  0  0  0
  -17.6502  -30.6629   24.0585 C   0  0  0  0  0  0
  -25.9034  -34.9478   23.5128 C   0  0  0  0  0  0
  -16.5356  -29.9143   23.6391 C   0  0  0  0  0  0
  -16.7222  -28.6560   23.0390 C   0  0  0  0  0  0
  -26.4453  -31.6597   25.0697 C   0  0  0  0  0  0
  -25.3739  -31.3660   26.1444 C   0  0  0  0  0  0
  -27.0293  -30.3040   24.6085 C   0  0  0  0  0  0
  -27.6030  -32.4311   25.7475 C   0  0  0  0  0  0
  -27.5581  -37.1807   24.8465 C   0  0  0  0  0  0
  -21.4093  -29.3020   22.3722 N   0  0  0  0  0  0
  -26.4306  -37.3786   23.9403 N   0  0  0  0  0  0
  -24.6588  -31.0798   22.1009 N   0  0  0  0  0  0
  -23.4148  -28.8167   23.3009 O   0  0  0  0  0  0
  -28.3943  -26.7281   20.0934 O   0  0  0  0  0  0
  -26.5619  -34.8930   22.4702 O   0  0  0  0  0  0
  -23.5270  -32.1444   23.7514 O   0  0  0  0  0  0
  -27.8556  -18.2469   21.3499 C   0  0  0  0  0  0
  -28.7067  -17.2217   21.7993 C   0  0  0  0  0  0
  -28.9739  -16.4807   19.5108 C   0  0  0  0  0  0
  -28.1088  -17.5022   19.0687 C   0  0  0  0  0  0
  -27.5415  -18.4369   19.9810 C   0  0  0  0  0  0
  -29.2788  -16.3283   20.8820 C   0  0  0  0  0  0
  -25.9857  -20.4852   20.2842 C   0  0  0  0  0  0
  -27.6104  -22.4230   20.0976 C   0  0  0  0  0  0
  -27.1428  -20.4138   18.5341 C   0  0  0  0  0  0
  -26.5424  -21.5953   19.3272 C   0  0  1  0  0  0
  -27.8012  -17.5564   17.5798 C   0  0  0  0  0  0
  -25.4273  -22.4608   18.7162 C   0  0  0  0  0  0
  -28.9140  -25.6763   22.1888 C   0  0  0  0  0  0
  -29.1054  -24.4079   19.9661 C   0  0  0  0  0  0
  -28.3369  -25.4748   20.7818 C   0  0  2  0  0  0
  -26.6999  -19.5188   19.5912 N   0  0  0  0  0  0
  -30.1772  -15.3452   21.3785 N   0  0  0  0  0  0
  -28.1987  -23.4090   19.3998 N   0  0  0  0  0  0
  -25.2430  -20.4076   21.2404 O   0  0  0  0  0  0
  -27.8904  -22.2315   21.2856 O   0  0  0  0  0  0
  -31.4550  -12.3947   19.0833 H   0  0  0  0  0  0
  -30.3120  -11.2838   19.7856 H   0  0  0  0  0  0
  -29.7129  -11.7813   17.4018 H   0  0  0  0  0  0
  -29.6358  -13.4903   17.7529 H   0  0  0  0  0  0
  -27.8276  -11.2904   18.8148 H   0  0  0  0  0  0
  -27.3419  -12.6094   17.7847 H   0  0  0  0  0  0
  -27.6874  -14.2285   19.5586 H   0  0  0  0  0  0
  -28.6766  -11.9414   21.3326 H   0  0  0  0  0  0
  -28.4583  -13.5831   21.8541 H   0  0  0  0  0  0
  -25.2731   -9.5697   22.4769 H   0  0  0  0  0  0
  -24.0002   -7.4625   22.7473 H   0  0  0  0  0  0
  -21.0824   -8.8743   19.8954 H   0  0  0  0  0  0
  -22.3653  -10.9661   19.6175 H   0  0  0  0  0  0
  -21.1992   -7.6147   23.9713 H   0  0  0  0  0  0
  -21.1487   -6.0525   25.9080 H   0  0  0  0  0  0
  -22.0601   -2.7609   23.2842 H   0  0  0  0  0  0
  -22.4115  -11.9901   22.4773 H   0  0  0  0  0  0
  -21.1127  -13.1292   22.2607 H   0  0  0  0  0  0
  -24.6847  -15.8465   20.5388 H   0  0  0  0  0  0
  -26.3143  -15.6196   20.1458 H   0  0  0  0  0  0
  -26.7057  -32.5563   23.1148 H   0  0  0  0  0  0
  -25.0013  -33.9828   25.0452 H   0  0  0  0  0  0
  -22.6849  -31.3054   21.4081 H   0  0  0  0  0  0
  -23.3746  -35.9671   23.3341 H   0  0  0  0  0  0
  -24.3567  -36.8915   22.2052 H   0  0  0  0  0  0
  -23.7258  -37.6539   23.6645 H   0  0  0  0  0  0
  -26.0322  -31.6041   20.5912 H   0  0  0  0  0  0
  -26.8066  -30.8909   21.9838 H   0  0  0  0  0  0
  -28.0971  -29.1283   21.1665 H   0  0  0  0  0  0
  -26.0830  -25.9749   19.0263 H   0  0  0  0  0  0
  -23.9766  -27.2754   19.0594 H   0  0  0  0  0  0
  -23.7116  -30.5831   19.3986 H   0  0  0  0  0  0
  -22.7306  -29.2319   19.8745 H   0  0  0  0  0  0
  -25.1292  -36.1990   25.0823 H   0  0  0  0  0  0
  -20.9941  -28.3178   24.1427 H   0  0  0  0  0  0
  -20.5578  -26.2217   23.3555 H   0  0  0  0  0  0
  -21.6563  -26.7367   22.1192 H   0  0  0  0  0  0
  -19.6800  -25.6324   21.1181 H   0  0  0  0  0  0
  -19.6534  -27.3262   20.6771 H   0  0  0  0  0  0
  -17.4009  -26.6505   21.4285 H   0  0  0  0  0  0
  -18.0419  -26.0151   22.9272 H   0  0  0  0  0  0
  -19.7985  -30.7249   24.2265 H   0  0  0  0  0  0
  -17.5088  -31.6317   24.5193 H   0  0  0  0  0  0
  -15.5377  -30.3074   23.7819 H   0  0  0  0  0  0
  -15.8574  -28.0911   22.7187 H   0  0  0  0  0  0
  -24.5909  -30.7034   25.7733 H   0  0  0  0  0  0
  -24.8950  -32.2808   26.4952 H   0  0  0  0  0  0
  -25.8101  -30.8755   27.0152 H   0  0  0  0  0  0
  -26.2819  -29.6774   24.1206 H   0  0  0  0  0  0
  -27.4112  -29.7313   25.4541 H   0  0  0  0  0  0
  -27.8638  -30.4357   23.9191 H   0  0  0  0  0  0
  -27.2650  -33.3585   26.2110 H   0  0  0  0  0  0
  -28.3824  -32.6906   25.0295 H   0  0  0  0  0  0
  -28.0722  -31.8393   26.5353 H   0  0  0  0  0  0
  -28.2605  -38.0096   24.7499 H   0  0  0  0  0  0
  -28.1071  -36.2626   24.6313 H   0  0  0  0  0  0
  -27.2298  -37.1469   25.8868 H   0  0  0  0  0  0
  -20.9246  -29.8717   21.6928 H   0  0  0  0  0  0
  -26.0204  -38.2879   24.1371 H   0  0  0  0  0  0
  -27.4441  -18.9147   22.0937 H   0  0  0  0  0  0
  -28.9149  -17.1346   22.8574 H   0  0  0  0  0  0
  -29.4024  -15.8150   18.7749 H   0  0  0  0  0  0
  -28.2284  -20.4568   18.4184 H   0  0  0  0  0  0
  -26.6418  -20.2315   17.5823 H   0  0  0  0  0  0
  -28.0023  -16.6003   17.0970 H   0  0  0  0  0  0
  -28.4176  -18.3107   17.0901 H   0  0  0  0  0  0
  -26.7514  -17.7884   17.4030 H   0  0  0  0  0  0
  -24.4346  -22.1557   19.0496 H   0  0  0  0  0  0
  -25.4296  -22.3939   17.6287 H   0  0  0  0  0  0
  -25.5253  -23.5145   18.9744 H   0  0  0  0  0  0
  -28.2778  -26.3344   22.7815 H   0  0  0  0  0  0
  -28.9768  -24.7243   22.7154 H   0  0  0  0  0  0
  -29.9122  -26.1124   22.1570 H   0  0  0  0  0  0
  -29.8592  -23.9077   20.5789 H   0  0  0  0  0  0
  -29.6549  -24.8812   19.1519 H   0  0  0  0  0  0
  -27.3050  -25.1424   20.9224 H   0  0  0  0  0  0
  -30.7833  -15.7052   22.1008 H   0  0  0  0  0  0
  -27.9398  -23.5233   18.4290 H   0  0  0  0  0  0
  1 25  1  0  0  0
  1 30  2  0  0  0
  1 87  1  0  0  0
  2  3  1  0  0  0
  2 25  1  0  0  0
  2 91  1  0  0  0
  2 92  1  0  0  0
  3  4  1  0  0  0
  3 93  1  0  0  0
  3 94  1  0  0  0
  4  5  1  0  0  0
  4 95  1  0  0  0
  4 96  1  0  0  0
  5  6  1  0  0  0
  5 26  1  0  0  0
  5 97  1  0  0  0
  6 25  1  0  0  0
  6 98  1  0  0  0
  6 99  1  0  0  0
  7  8  2  0  0  0
  7 26  1  0  0  0
  7 29  1  0  0  0
  8  9  1  0  0  0
  8 22  1  0  0  0
  9 10  1  0  0  0
  9 27  2  0  0  0
 10 11  2  0  0  0
 10 15  1  0  0  0
 11 12  1  0  0  0
 11100  1  0  0  0
 12 13  2  0  0  0
 12101  1  0  0  0
 13 14  1  0  0  0
 13 31  1  0  0  0
 14 15  2  0  0  0
 14102  1  0  0  0
 15103  1  0  0  0
 16 17  2  0  0  0
 16 21  1  0  0  0
 16 31  1  0  0  0
 17 18  1  0  0  0
 17104  1  0  0  0
 18 19  2  0  0  0
 18105  1  0  0  0
 19 20  1  0  0  0
 19 24  1  0  0  0
 20 21  2  0  0  0
 20106  1  0  0  0
 21 23  1  0  0  0
 22 28  1  0  0  0
 22 32  2  0  0  0
 26 27  1  0  0  0
 28107  1  0  0  0
 28108  1  0  0  0
 29109  1  0  0  0
 29110  1  0  0  0
 33 34  1  0  0  0
 33 66  1  0  0  0
 33 70  2  0  0  0
 34 36  1  0  0  0
 34 59  1  0  0  0
 34111  1  0  0  0
 35 44  2  0  0  0
 35 45  1  0  0  0
 35 68  1  0  0  0
 36 56  1  0  0  0
 36112  1  0  0  0
 37 39  1  0  0  0
 37 47  1  0  0  0
 37 66  1  0  0  0
 37113  1  0  0  0
 38 43  2  0  0  0
 38 46  1  0  0  0
 38 47  1  0  0  0
 39 64  1  0  0  0
 39 67  2  0  0  0
 40 52  1  0  0  0
 40 53  2  0  0  0
 40 58  1  0  0  0
 41114  1  0  0  0
 41115  1  0  0  0
 41116  1  0  0  0
 41 48  1  0  0  0
 42 43  1  0  0  0
 42 66  1  0  0  0
 42117  1  0  0  0
 42118  1  0  0  0
 43 44  1  0  0  0
 44119  1  0  0  0
 45 46  2  0  0  0
 45120  1  0  0  0
 46121  1  0  0  0
 47122  1  0  0  0
 47123  1  0  0  0
 48 56  1  0  0  0
 48 65  1  0  0  0
 48124  1  0  0  0
 49 50  1  0  0  0
 49 53  1  0  0  0
 49 64  1  0  0  0
 49125  1  0  0  0
 50 51  1  0  0  0
 50126  1  0  0  0
 50127  1  0  0  0
 51 52  1  0  0  0
 51128  1  0  0  0
 51129  1  0  0  0
 52130  1  0  0  0
 52131  1  0  0  0
 53 54  1  0  0  0
 54 55  2  0  0  0
 54132  1  0  0  0
 55 57  1  0  0  0
 55133  1  0  0  0
 56 69  2  0  0  0
 57 58  2  0  0  0
 57134  1  0  0  0
 58135  1  0  0  0
 59 60  1  0  0  0
 59 61  1  0  0  0
 59 62  1  0  0  0
 60136  1  0  0  0
 60137  1  0  0  0
 60138  1  0  0  0
 61139  1  0  0  0
 61140  1  0  0  0
 61141  1  0  0  0
 62142  1  0  0  0
 62143  1  0  0  0
 62144  1  0  0  0
 63 65  1  0  0  0
 63145  1  0  0  0
 63146  1  0  0  0
 63147  1  0  0  0
 64148  1  0  0  0
 65149  1  0  0  0
 68 85  1  0  0  0
 71 72  2  0  0  0
 71 75  1  0  0  0
 71150  1  0  0  0
 72 76  1  0  0  0
 72151  1  0  0  0
 73 74  1  0  0  0
 73 76  2  0  0  0
 73152  1  0  0  0
 74 75  2  0  0  0
 74 81  1  0  0  0
 75 86  1  0  0  0
 76 87  1  0  0  0
 77 80  1  0  0  0
 77 86  1  0  0  0
 77 89  2  0  0  0
 78 88  1  0  0  0
 78 90  2  0  0  0
 78 80  1  0  0  0
 79 80  1  0  0  0
 79 86  1  0  0  0
 79153  1  0  0  0
 79154  1  0  0  0
 80 82  1  0  0  0
 81155  1  0  0  0
 81156  1  0  0  0
 81157  1  0  0  0
 82158  1  0  0  0
 82159  1  0  0  0
 82160  1  0  0  0
 83161  1  0  0  0
 83162  1  0  0  0
 83163  1  0  0  0
 83 85  1  0  0  0
 84 85  1  0  0  0
 84 88  1  0  0  0
 84164  1  0  0  0
 84165  1  0  0  0
 85166  1  0  0  0
 87167  1  0  0  0
 88168  1  0  0  0
M  ISO  4   1 100  68 101  85 101  87 100
M  END
> <chiral flag>
0

> <version>
0

> <s_m_source_file>
/data/baiqing/PycharmProjects/Reinvent-master-3.2/result/LINK_invent/BTK/process_docking_weight1_custom_product_contain_oxygen_bond_distance_aromatic_linkinvent_7_9_3/rearranged_h_0073.sdf

> <i_m_source_file_index>
52

> <r_mmod_Potential_Energy-OPLS-2005>
-57.1454467773438

> <r_mmod_Stretch_Energy-OPLS-2005>
36.2214164733887

> <r_mmod_Bend_Energy-OPLS-2005>
119.3212890625

> <r_mmod_Torsional_Energy-OPLS-2005>
317.931701660156

> <r_mmod_Improper_Torsional_Energy-OPLS-2005>
8.49743175506592

> <r_mmod_Van_der_Waal_Energy-OPLS-2005>
154.3125

> <r_mmod_Electrostatic_Energy-OPLS-2005>
-463.382202148438

> <r_mmod_Solvation_Energy-OPLS-2005>
-239.855361938477

> <b_mmod_Minimization_Converged-OPLS-2005>
0

> <r_mmod_RMS_Derivative-OPLS-2005>
3.52925038337708

$$$$
52
                    3D
 Structure written by MMmdl.
158167  0  0  1  0            999 V2000
  -30.6066  -14.6598   20.5084 C   0  0  0  0  0  0
  -30.4446  -12.4091   19.4533 C   0  0  0  0  0  0
  -29.5117  -12.5328   18.2264 C   0  0  0  0  0  0
  -28.0341  -12.3625   18.6334 C   0  0  0  0  0  0
  -27.6565  -13.2199   19.8697 C   0  0  2  0  0  0
  -28.7025  -13.0617   20.9984 C   0  0  0  0  0  0
  -25.2567  -13.8173   20.5701 C   0  0  0  0  0  0
  -24.1827  -13.0423   20.9169 C   0  0  0  0  0  0
  -24.6408  -11.6903   20.8723 C   0  0  0  0  0  0
  -23.9076  -10.4284   21.0402 C   0  0  0  0  0  0
  -24.3627   -9.4200   21.9180 C   0  0  0  0  0  0
  -23.6295   -8.2238   22.0756 C   0  0  0  0  0  0
  -22.4275   -8.0280   21.3547 C   0  0  0  0  0  0
  -21.9913   -9.0254   20.4645 C   0  0  0  0  0  0
  -22.7247  -10.2128   20.3049 C   0  0  0  0  0  0
  -21.6855   -6.0734   22.5278 C   0  0  0  0  0  0
  -21.4019   -6.5642   23.8212 C   0  0  0  0  0  0
  -21.3662   -5.6795   24.9176 C   0  0  0  0  0  0
  -21.6041   -4.3058   24.7227 C   0  0  0  0  0  0
  -21.8821   -3.8147   23.4352 C   0  0  0  0  0  0
  -21.9191   -4.6959   22.3405 C   0  0  0  0  0  0
  -22.7851  -13.5219   21.1841 C   0  0  0  0  0  0
  -22.1658   -4.2144   21.0982 F   0  0  0  0  0  0
  -21.5627   -3.4544   25.7743 F   0  0  0  0  0  0
  -30.0197  -13.4206   20.4425 N   0  0  0  0  0  0
  -26.3008  -12.9362   20.3346 N   0  0  0  0  0  0
  -25.9339  -11.6507   20.5748 N   0  0  0  0  0  0
  -22.0504  -12.8202   22.0407 N   0  0  0  0  0  0
  -25.4269  -15.1902   20.4184 N   0  0  0  0  0  0
  -31.7483  -14.8543   20.0779 O   0  0  0  0  0  0
  -21.6639   -6.8878   21.4243 O   0  0  0  0  0  0
  -22.3518  -14.5519   20.6697 O   0  0  0  0  0  0
  -24.6251  -31.8602   23.2031 C   0  0  0  0  0  0
  -25.9118  -32.4768   23.8343 C   0  0  1  0  0  0
  -27.2177  -27.3138   20.1103 C   0  0  0  0  0  0
  -25.5934  -33.8566   24.2257 N   0  0  0  0  0  0
  -23.4177  -30.4849   21.5466 C   0  0  2  0  0  0
  -24.8614  -28.9405   20.1088 C   0  0  0  0  0  0
  -22.7473  -29.4610   22.4935 C   0  0  0  0  0  0
  -18.0282  -28.1375   22.8484 C   0  0  0  0  0  0
  -24.1496  -36.7294   23.2642 C   0  0  0  0  0  0
  -25.9604  -30.7853   21.3793 C   0  0  0  0  0  0
  -26.0304  -29.4135   20.7185 C   0  0  0  0  0  0
  -27.2087  -28.6090   20.7152 C   0  0  0  0  0  0
  -26.0290  -26.9040   19.4617 C   0  0  0  0  0  0
  -24.8625  -27.6894   19.4744 C   0  0  0  0  0  0
  -23.6321  -29.8248   20.1602 C   0  0  0  0  0  0
  -25.4120  -36.3074   24.0322 C   0  0  1  0  0  0
  -20.5883  -28.3677   23.1287 C   0  0  2  0  0  0
  -20.6778  -26.9404   22.5409 C   0  0  0  0  0  0
  -19.5754  -26.6374   21.5215 C   0  0  0  0  0  0
  -18.1931  -26.7916   22.1615 C   0  0  0  0  0  0
  -19.1535  -28.8845   23.2878 C   0  0  0  0  0  0
  -18.9467  -30.1446   23.8894 C   0  0  0  0  0  0
  -17.6471  -30.6588   24.0552 C   0  0  0  0  0  0
  -25.9062  -34.9446   23.5087 C   0  0  0  0  0  0
  -16.5362  -29.9089   23.6326 C   0  0  0  0  0  0
  -16.7272  -28.6499   23.0347 C   0  0  0  0  0  0
  -26.4500  -31.6593   25.0720 C   0  0  0  0  0  0
  -25.3724  -31.3769   26.1452 C   0  0  0  0  0  0
  -27.0341  -30.3003   24.6204 C   0  0  0  0  0  0
  -27.6033  -32.4356   25.7510 C   0  0  0  0  0  0
  -27.5582  -37.1809   24.8466 C   0  0  0  0  0  0
  -21.4186  -29.3034   22.3694 N   0  0  0  0  0  0
  -26.4293  -37.3773   23.9411 N   0  0  0  0  0  0
  -24.6864  -31.0612   22.0985 N   0  0  0  0  0  0
  -23.4202  -28.8131   23.2997 O   0  0  0  0  0  0
  -28.3361  -26.4656   20.1778 O   0  0  0  0  0  0
  -26.5641  -34.8913   22.4661 O   0  0  0  0  0  0
  -23.5418  -32.1407   23.7368 O   0  0  0  0  0  0
  -30.3483  -19.3858   19.9583 C   0  0  0  0  0  0
  -30.5328  -17.9584   19.9915 C   0  0  0  0  0  0
  -28.6954  -19.2084   21.6897 C   0  0  0  0  0  0
  -29.4274  -20.0612   20.8191 C   0  0  0  0  0  0
  -29.7846  -17.1270   20.8744 C   0  0  0  0  0  0
  -28.8572  -17.7973   21.7074 C   0  0  0  0  0  0
  -29.2631  -22.5070   19.9564 C   0  0  0  0  0  0
  -28.8027  -23.6720   21.9835 C   0  0  0  0  0  0
  -29.0403  -22.1662   22.2184 C   0  0  0  0  0  0
  -29.2019  -23.9792   20.5310 C   0  0  1  0  0  0
  -30.6225  -24.5788   20.4627 C   0  0  0  0  0  0
  -28.1977  -25.0216   19.8483 C   0  0  0  0  0  0
  -29.2618  -21.5302   20.9174 N   0  0  0  0  0  0
  -29.8042  -15.6647   20.9750 N   0  0  0  0  0  0
  -29.3269  -22.2916   18.7421 O   0  0  0  0  0  0
  -28.0942  -17.0615   22.5520 F   0  0  0  0  0  0
  -31.4853  -12.5428   19.1531 H   0  0  0  0  0  0
  -30.3838  -11.4100   19.8867 H   0  0  0  0  0  0
  -29.7819  -11.7962   17.4686 H   0  0  0  0  0  0
  -29.6485  -13.5109   17.7627 H   0  0  0  0  0  0
  -27.8691  -11.3071   18.8513 H   0  0  0  0  0  0
  -27.3816  -12.6076   17.7944 H   0  0  0  0  0  0
  -27.6770  -14.2582   19.5392 H   0  0  0  0  0  0
  -28.7192  -12.0346   21.3653 H   0  0  0  0  0  0
  -28.4402  -13.6760   21.8603 H   0  0  0  0  0  0
  -25.2777   -9.5676   22.4742 H   0  0  0  0  0  0
  -24.0003   -7.4639   22.7488 H   0  0  0  0  0  0
  -21.0837   -8.8780   19.8961 H   0  0  0  0  0  0
  -22.3715  -10.9665   19.6153 H   0  0  0  0  0  0
  -21.2023   -7.6150   23.9716 H   0  0  0  0  0  0
  -21.1480   -6.0526   25.9077 H   0  0  0  0  0  0
  -22.0598   -2.7606   23.2856 H   0  0  0  0  0  0
  -22.4130  -11.9848   22.4764 H   0  0  0  0  0  0
  -21.1127  -13.1226   22.2643 H   0  0  0  0  0  0
  -24.6683  -15.8479   20.5621 H   0  0  0  0  0  0
  -26.2921  -15.6401   20.1489 H   0  0  0  0  0  0
  -26.7175  -32.5441   23.1076 H   0  0  0  0  0  0
  -25.0065  -33.9706   25.0393 H   0  0  0  0  0  0
  -22.7089  -31.3039   21.4084 H   0  0  0  0  0  0
  -23.3746  -35.9643   23.3304 H   0  0  0  0  0  0
  -24.3580  -36.8925   22.2056 H   0  0  0  0  0  0
  -23.7257  -37.6491   23.6676 H   0  0  0  0  0  0
  -26.1037  -31.5513   20.6166 H   0  0  0  0  0  0
  -26.8362  -30.8266   22.0151 H   0  0  0  0  0  0
  -28.1023  -28.9625   21.2112 H   0  0  0  0  0  0
  -25.9679  -25.9608   18.9403 H   0  0  0  0  0  0
  -23.9689  -27.3232   18.9880 H   0  0  0  0  0  0
  -23.7563  -30.6081   19.4111 H   0  0  0  0  0  0
  -22.7484  -29.2620   19.8542 H   0  0  0  0  0  0
  -25.1297  -36.1914   25.0810 H   0  0  0  0  0  0
  -20.9968  -28.3258   24.1410 H   0  0  0  0  0  0
  -20.5708  -26.2282   23.3605 H   0  0  0  0  0  0
  -21.6645  -26.7451   22.1188 H   0  0  0  0  0  0
  -19.6924  -25.6287   21.1239 H   0  0  0  0  0  0
  -19.6697  -27.3181   20.6745 H   0  0  0  0  0  0
  -17.4202  -26.6655   21.4013 H   0  0  0  0  0  0
  -18.0324  -26.0058   22.9007 H   0  0  0  0  0  0
  -19.7956  -30.7249   24.2249 H   0  0  0  0  0  0
  -17.5044  -31.6267   24.5159 H   0  0  0  0  0  0
  -15.5365  -30.2999   23.7665 H   0  0  0  0  0  0
  -15.8661  -28.0838   22.7063 H   0  0  0  0  0  0
  -24.5880  -30.7125   25.7813 H   0  0  0  0  0  0
  -24.8943  -32.2961   26.4855 H   0  0  0  0  0  0
  -25.8042  -30.8967   27.0244 H   0  0  0  0  0  0
  -26.2920  -29.6755   24.1221 H   0  0  0  0  0  0
  -27.4001  -29.7251   25.4725 H   0  0  0  0  0  0
  -27.8804  -30.4253   23.9443 H   0  0  0  0  0  0
  -27.2591  -33.3659   26.2050 H   0  0  0  0  0  0
  -28.3863  -32.6939   25.0365 H   0  0  0  0  0  0
  -28.0676  -31.8519   26.5471 H   0  0  0  0  0  0
  -28.2591  -38.0117   24.7506 H   0  0  0  0  0  0
  -28.1074  -36.2638   24.6286 H   0  0  0  0  0  0
  -27.2300  -37.1454   25.8872 H   0  0  0  0  0  0
  -20.9350  -29.8777   21.6937 H   0  0  0  0  0  0
  -26.0161  -38.2839   24.1418 H   0  0  0  0  0  0
  -30.9552  -19.9653   19.2756 H   0  0  0  0  0  0
  -31.2494  -17.5062   19.3200 H   0  0  0  0  0  0
  -27.9685  -19.6220   22.3697 H   0  0  0  0  0  0
  -29.3465  -24.2825   22.7052 H   0  0  0  0  0  0
  -27.7449  -23.8869   22.1438 H   0  0  0  0  0  0
  -28.1830  -21.7421   22.7397 H   0  0  0  0  0  0
  -29.9212  -22.0114   22.8428 H   0  0  0  0  0  0
  -31.3828  -23.8837   20.8205 H   0  0  0  0  0  0
  -30.6908  -25.4831   21.0688 H   0  0  0  0  0  0
  -30.8848  -24.8576   19.4418 H   0  0  0  0  0  0
  -27.1950  -24.6746   20.0997 H   0  0  0  0  0  0
  -28.2775  -24.9353   18.7633 H   0  0  0  0  0  0
  -28.9820  -15.3085   21.4394 H   0  0  0  0  0  0
  1 25  1  0  0  0
  1 30  2  0  0  0
  1 84  1  0  0  0
  2  3  1  0  0  0
  2 25  1  0  0  0
  2 87  1  0  0  0
  2 88  1  0  0  0
  3  4  1  0  0  0
  3 89  1  0  0  0
  3 90  1  0  0  0
  4  5  1  0  0  0
  4 91  1  0  0  0
  4 92  1  0  0  0
  5  6  1  0  0  0
  5 26  1  0  0  0
  5 93  1  0  0  0
  6 25  1  0  0  0
  6 94  1  0  0  0
  6 95  1  0  0  0
  7  8  2  0  0  0
  7 26  1  0  0  0
  7 29  1  0  0  0
  8  9  1  0  0  0
  8 22  1  0  0  0
  9 10  1  0  0  0
  9 27  2  0  0  0
 10 11  2  0  0  0
 10 15  1  0  0  0
 11 12  1  0  0  0
 11 96  1  0  0  0
 12 13  2  0  0  0
 12 97  1  0  0  0
 13 14  1  0  0  0
 13 31  1  0  0  0
 14 15  2  0  0  0
 14 98  1  0  0  0
 15 99  1  0  0  0
 16 17  2  0  0  0
 16 21  1  0  0  0
 16 31  1  0  0  0
 17 18  1  0  0  0
 17100  1  0  0  0
 18 19  2  0  0  0
 18101  1  0  0  0
 19 20  1  0  0  0
 19 24  1  0  0  0
 20 21  2  0  0  0
 20102  1  0  0  0
 21 23  1  0  0  0
 22 28  1  0  0  0
 22 32  2  0  0  0
 26 27  1  0  0  0
 28103  1  0  0  0
 28104  1  0  0  0
 29105  1  0  0  0
 29106  1  0  0  0
 33 34  1  0  0  0
 33 66  1  0  0  0
 33 70  2  0  0  0
 34 36  1  0  0  0
 34 59  1  0  0  0
 34107  1  0  0  0
 35 44  2  0  0  0
 35 45  1  0  0  0
 35 68  1  0  0  0
 36 56  1  0  0  0
 36108  1  0  0  0
 37 39  1  0  0  0
 37 47  1  0  0  0
 37 66  1  0  0  0
 37109  1  0  0  0
 38 43  2  0  0  0
 38 46  1  0  0  0
 38 47  1  0  0  0
 39 64  1  0  0  0
 39 67  2  0  0  0
 40 52  1  0  0  0
 40 53  2  0  0  0
 40 58  1  0  0  0
 41110  1  0  0  0
 41111  1  0  0  0
 41112  1  0  0  0
 41 48  1  0  0  0
 42 43  1  0  0  0
 42 66  1  0  0  0
 42113  1  0  0  0
 42114  1  0  0  0
 43 44  1  0  0  0
 44115  1  0  0  0
 45 46  2  0  0  0
 45116  1  0  0  0
 46117  1  0  0  0
 47118  1  0  0  0
 47119  1  0  0  0
 48 56  1  0  0  0
 48 65  1  0  0  0
 48120  1  0  0  0
 49 50  1  0  0  0
 49 53  1  0  0  0
 49 64  1  0  0  0
 49121  1  0  0  0
 50 51  1  0  0  0
 50122  1  0  0  0
 50123  1  0  0  0
 51 52  1  0  0  0
 51124  1  0  0  0
 51125  1  0  0  0
 52126  1  0  0  0
 52127  1  0  0  0
 53 54  1  0  0  0
 54 55  2  0  0  0
 54128  1  0  0  0
 55 57  1  0  0  0
 55129  1  0  0  0
 56 69  2  0  0  0
 57 58  2  0  0  0
 57130  1  0  0  0
 58131  1  0  0  0
 59 60  1  0  0  0
 59 61  1  0  0  0
 59 62  1  0  0  0
 60132  1  0  0  0
 60133  1  0  0  0
 60134  1  0  0  0
 61135  1  0  0  0
 61136  1  0  0  0
 61137  1  0  0  0
 62138  1  0  0  0
 62139  1  0  0  0
 62140  1  0  0  0
 63 65  1  0  0  0
 63141  1  0  0  0
 63142  1  0  0  0
 63143  1  0  0  0
 64144  1  0  0  0
 65145  1  0  0  0
 68 82  1  0  0  0
 71 72  2  0  0  0
 71 74  1  0  0  0
 71146  1  0  0  0
 72 75  1  0  0  0
 72147  1  0  0  0
 73 74  2  0  0  0
 73 76  1  0  0  0
 73148  1  0  0  0
 74 83  1  0  0  0
 75 76  2  0  0  0
 75 84  1  0  0  0
 76 86  1  0  0  0
 77 80  1  0  0  0
 77 83  1  0  0  0
 77 85  2  0  0  0
 78 79  1  0  0  0
 78 80  1  0  0  0
 78149  1  0  0  0
 78150  1  0  0  0
 79 83  1  0  0  0
 79151  1  0  0  0
 79152  1  0  0  0
 80 81  1  0  0  0
 80 82  1  0  0  0
 81153  1  0  0  0
 81154  1  0  0  0
 81155  1  0  0  0
 82156  1  0  0  0
 82157  1  0  0  0
 84158  1  0  0  0
M  ISO  4   1 100  68 101  82 101  84 100
M  END
> <chiral flag>
0

> <version>
0

> <s_m_source_file>
/data/baiqing/PycharmProjects/Reinvent-master-3.2/result/LINK_invent/BTK/process_docking_weight1_custom_product_contain_oxygen_bond_distance_aromatic_linkinvent_7_9_3/rearranged_h_0073.sdf

> <i_m_source_file_index>
53

> <r_mmod_Potential_Energy-OPLS-2005>
155.980484008789

> <r_mmod_Stretch_Energy-OPLS-2005>
85.5131912231445

> <r_mmod_Bend_Energy-OPLS-2005>
175.222991943359

> <r_mmod_Torsional_Energy-OPLS-2005>
282.502136230469

> <r_mmod_Improper_Torsional_Energy-OPLS-2005>
3.18305993080139

> <r_mmod_Van_der_Waal_Energy-OPLS-2005>
142.194290161133

> <r_mmod_Electrostatic_Energy-OPLS-2005>
-376.391082763672

> <r_mmod_Solvation_Energy-OPLS-2005>
-209.676651000977

> <b_mmod_Minimization_Converged-OPLS-2005>
0

> <r_mmod_RMS_Derivative-OPLS-2005>
1.93384039402008

$$$$
53
                    3D
 Structure written by MMmdl.
160168  0  0  1  0            999 V2000
  -30.6620  -14.5113   20.5735 C   0  0  0  0  0  0
  -30.4322  -12.3256   19.4392 C   0  0  0  0  0  0
  -29.5031  -12.5077   18.2181 C   0  0  0  0  0  0
  -28.0237  -12.3590   18.6247 C   0  0  0  0  0  0
  -27.6619  -13.2044   19.8747 C   0  0  2  0  0  0
  -28.6985  -12.9864   21.0006 C   0  0  0  0  0  0
  -25.2600  -13.8154   20.5671 C   0  0  0  0  0  0
  -24.1846  -13.0440   20.9167 C   0  0  0  0  0  0
  -24.6389  -11.6901   20.8716 C   0  0  0  0  0  0
  -23.9045  -10.4294   21.0405 C   0  0  0  0  0  0
  -24.3601   -9.4209   21.9178 C   0  0  0  0  0  0
  -23.6278   -8.2245   22.0743 C   0  0  0  0  0  0
  -22.4261   -8.0270   21.3532 C   0  0  0  0  0  0
  -21.9894   -9.0256   20.4647 C   0  0  0  0  0  0
  -22.7211  -10.2141   20.3062 C   0  0  0  0  0  0
  -21.6854   -6.0726   22.5272 C   0  0  0  0  0  0
  -21.4021   -6.5637   23.8204 C   0  0  0  0  0  0
  -21.3658   -5.6788   24.9169 C   0  0  0  0  0  0
  -21.6045   -4.3052   24.7217 C   0  0  0  0  0  0
  -21.8820   -3.8135   23.4346 C   0  0  0  0  0  0
  -21.9192   -4.6953   22.3399 C   0  0  0  0  0  0
  -22.7874  -13.5255   21.1827 C   0  0  0  0  0  0
  -22.1657   -4.2135   21.0980 F   0  0  0  0  0  0
  -21.5622   -3.4537   25.7736 F   0  0  0  0  0  0
  -30.0332  -13.3053   20.4635 N   0  0  0  0  0  0
  -26.3020  -12.9313   20.3331 N   0  0  0  0  0  0
  -25.9314  -11.6475   20.5746 N   0  0  0  0  0  0
  -22.0516  -12.8258   22.0398 N   0  0  0  0  0  0
  -25.4353  -15.1873   20.4107 N   0  0  0  0  0  0
  -31.7652  -14.7373   20.0641 O   0  0  0  0  0  0
  -21.6627   -6.8868   21.4231 O   0  0  0  0  0  0
  -22.3563  -14.5558   20.6669 O   0  0  0  0  0  0
  -24.6168  -31.8642   23.2079 C   0  0  0  0  0  0
  -25.9042  -32.4804   23.8385 C   0  0  1  0  0  0
  -27.2321  -27.4060   20.1045 C   0  0  0  0  0  0
  -25.5880  -33.8605   24.2310 N   0  0  0  0  0  0
  -23.4088  -30.4870   21.5472 C   0  0  2  0  0  0
  -24.8595  -28.9514   20.1112 C   0  0  0  0  0  0
  -22.7439  -29.4632   22.4957 C   0  0  0  0  0  0
  -18.0279  -28.1381   22.8487 C   0  0  0  0  0  0
  -24.1482  -36.7317   23.2637 C   0  0  0  0  0  0
  -25.9414  -30.8226   21.3661 C   0  0  0  0  0  0
  -26.0213  -29.4552   20.7121 C   0  0  0  0  0  0
  -27.2148  -28.6891   20.7076 C   0  0  0  0  0  0
  -26.0576  -26.9252   19.4942 C   0  0  0  0  0  0
  -24.8733  -27.6868   19.4978 C   0  0  0  0  0  0
  -23.6208  -29.8197   20.1619 C   0  0  0  0  0  0
  -25.4101  -36.3102   24.0334 C   0  0  1  0  0  0
  -20.5876  -28.3671   23.1307 C   0  0  2  0  0  0
  -20.6757  -26.9394   22.5430 C   0  0  0  0  0  0
  -19.5748  -26.6379   21.5217 C   0  0  0  0  0  0
  -18.1924  -26.7927   22.1619 C   0  0  0  0  0  0
  -19.1533  -28.8843   23.2894 C   0  0  0  0  0  0
  -18.9458  -30.1445   23.8914 C   0  0  0  0  0  0
  -17.6459  -30.6574   24.0578 C   0  0  0  0  0  0
  -25.9031  -34.9463   23.5129 C   0  0  0  0  0  0
  -16.5351  -29.9082   23.6325 C   0  0  0  0  0  0
  -16.7270  -28.6505   23.0337 C   0  0  0  0  0  0
  -26.4464  -31.6593   25.0719 C   0  0  0  0  0  0
  -25.3737  -31.3747   26.1484 C   0  0  0  0  0  0
  -27.0277  -30.3018   24.6120 C   0  0  0  0  0  0
  -27.6053  -32.4312   25.7455 C   0  0  0  0  0  0
  -27.5584  -37.1801   24.8450 C   0  0  0  0  0  0
  -21.4163  -29.3019   22.3695 N   0  0  0  0  0  0
  -26.4289  -37.3783   23.9406 N   0  0  0  0  0  0
  -24.6740  -31.0721   22.0987 N   0  0  0  0  0  0
  -23.4196  -28.8177   23.3014 O   0  0  0  0  0  0
  -28.3336  -26.5738   20.1332 O   0  0  0  0  0  0
  -26.5615  -34.8922   22.4700 O   0  0  0  0  0  0
  -23.5349  -32.1397   23.7451 O   0  0  0  0  0  0
  -29.5301  -19.2035   21.5541 C   0  0  0  0  0  0
  -29.8412  -17.8531   21.8665 C   0  0  0  0  0  0
  -29.1636  -18.5652   19.2444 C   0  0  0  0  0  0
  -29.1617  -19.5757   20.2382 C   0  0  0  0  0  0
  -29.8172  -16.8408   20.8752 C   0  0  0  0  0  0
  -29.4789  -17.2206   19.5516 C   0  0  0  0  0  0
  -28.3514  -25.6924   21.1986 C   0  0  0  0  0  0
  -28.7147  -20.9516   19.8899 C   0  0  0  0  0  0
  -28.6653  -24.3665   21.2028 C   0  0  0  0  0  0
  -28.5974  -23.6150   22.5257 C   0  0  0  0  0  0
  -30.3146  -24.1189   19.2810 C   0  0  0  0  0  0
  -29.0844  -23.5203   19.9784 C   0  0  1  0  0  0
  -27.6417  -21.0808   19.1101 N   0  0  0  0  0  0
  -29.9817  -15.4622   21.2472 N   0  0  0  0  0  0
  -29.3445  -22.0747   20.3129 N   0  3  0  0  0  0
  -29.3873  -16.2854   18.5747 F   0  0  0  0  0  0
  -31.4761  -12.4374   19.1421 H   0  0  0  0  0  0
  -30.3462  -11.3133   19.8405 H   0  0  0  0  0  0
  -29.7508  -11.7783   17.4460 H   0  0  0  0  0  0
  -29.6649  -13.4908   17.7735 H   0  0  0  0  0  0
  -27.8431  -11.3026   18.8273 H   0  0  0  0  0  0
  -27.3734  -12.6214   17.7891 H   0  0  0  0  0  0
  -27.7046  -14.2516   19.5751 H   0  0  0  0  0  0
  -28.6793  -11.9481   21.3347 H   0  0  0  0  0  0
  -28.4414  -13.5738   21.8828 H   0  0  0  0  0  0
  -25.2766   -9.5676   22.4732 H   0  0  0  0  0  0
  -23.9986   -7.4648   22.7469 H   0  0  0  0  0  0
  -21.0812   -8.8785   19.8977 H   0  0  0  0  0  0
  -22.3666  -10.9681   19.6169 H   0  0  0  0  0  0
  -21.2026   -7.6148   23.9710 H   0  0  0  0  0  0
  -21.1475   -6.0517   25.9069 H   0  0  0  0  0  0
  -22.0602   -2.7593   23.2853 H   0  0  0  0  0  0
  -22.4131  -11.9919   22.4789 H   0  0  0  0  0  0
  -21.1150  -13.1304   22.2636 H   0  0  0  0  0  0
  -24.6696  -15.8435   20.5147 H   0  0  0  0  0  0
  -26.2867  -15.6201   20.0773 H   0  0  0  0  0  0
  -26.7114  -32.5511   23.1149 H   0  0  0  0  0  0
  -24.9992  -33.9753   25.0431 H   0  0  0  0  0  0
  -22.6985  -31.3044   21.4056 H   0  0  0  0  0  0
  -23.3714  -35.9681   23.3323 H   0  0  0  0  0  0
  -24.3574  -36.8901   22.2045 H   0  0  0  0  0  0
  -23.7272  -37.6546   23.6635 H   0  0  0  0  0  0
  -26.0569  -31.5878   20.5970 H   0  0  0  0  0  0
  -26.8279  -30.8776   21.9865 H   0  0  0  0  0  0
  -28.1095  -29.0649   21.1837 H   0  0  0  0  0  0
  -26.0560  -25.9465   19.0363 H   0  0  0  0  0  0
  -23.9802  -27.2920   19.0336 H   0  0  0  0  0  0
  -23.7314  -30.5955   19.4038 H   0  0  0  0  0  0
  -22.7447  -29.2413   19.8632 H   0  0  0  0  0  0
  -25.1273  -36.1970   25.0827 H   0  0  0  0  0  0
  -20.9970  -28.3248   24.1429 H   0  0  0  0  0  0
  -20.5627  -26.2288   23.3631 H   0  0  0  0  0  0
  -21.6633  -26.7400   22.1256 H   0  0  0  0  0  0
  -19.6908  -25.6295   21.1232 H   0  0  0  0  0  0
  -19.6698  -27.3209   20.6765 H   0  0  0  0  0  0
  -17.4195  -26.6681   21.4017 H   0  0  0  0  0  0
  -18.0315  -26.0069   22.9018 H   0  0  0  0  0  0
  -19.7928  -30.7259   24.2298 H   0  0  0  0  0  0
  -17.5005  -31.6251   24.5182 H   0  0  0  0  0  0
  -15.5353  -30.2992   23.7633 H   0  0  0  0  0  0
  -15.8670  -28.0837   22.7035 H   0  0  0  0  0  0
  -24.5892  -30.7096   25.7855 H   0  0  0  0  0  0
  -24.8950  -32.2927   26.4903 H   0  0  0  0  0  0
  -25.8089  -30.8949   27.0258 H   0  0  0  0  0  0
  -26.2828  -29.6792   24.1149 H   0  0  0  0  0  0
  -27.3995  -29.7246   25.4595 H   0  0  0  0  0  0
  -27.8687  -30.4309   23.9305 H   0  0  0  0  0  0
  -27.2676  -33.3590   26.2082 H   0  0  0  0  0  0
  -28.3813  -32.6909   25.0243 H   0  0  0  0  0  0
  -28.0774  -31.8411   26.5315 H   0  0  0  0  0  0
  -28.2606  -38.0092   24.7469 H   0  0  0  0  0  0
  -28.1070  -36.2622   24.6283 H   0  0  0  0  0  0
  -27.2316  -37.1461   25.8858 H   0  0  0  0  0  0
  -20.9335  -29.8754   21.6923 H   0  0  0  0  0  0
  -26.0176  -38.2858   24.1411 H   0  0  0  0  0  0
  -29.5307  -19.9422   22.3443 H   0  0  0  0  0  0
  -30.0771  -17.5925   22.8885 H   0  0  0  0  0  0
  -28.8877  -18.8075   18.2283 H   0  0  0  0  0  0
  -28.0650  -26.1958   22.1130 H   0  0  0  0  0  0
  -28.2796  -24.2640   23.3422 H   0  0  0  0  0  0
  -29.5746  -23.2114   22.7907 H   0  0  0  0  0  0
  -27.8831  -22.7934   22.4663 H   0  0  0  0  0  0
  -30.0684  -25.0610   18.7911 H   0  0  0  0  0  0
  -30.7027  -23.4484   18.5139 H   0  0  0  0  0  0
  -31.1187  -24.3182   19.9901 H   0  0  0  0  0  0
  -28.2552  -23.5739   19.2711 H   0  0  0  0  0  0
  -27.1175  -20.2581   18.8519 H   0  0  0  0  0  0
  -27.2790  -21.9769   18.8367 H   0  0  0  0  0  0
  -29.2475  -15.0995   21.8349 H   0  0  0  0  0  0
  -30.1319  -21.9142   20.9284 H   0  0  0  0  0  0
  1 25  1  0  0  0
  1 30  2  0  0  0
  1 84  1  0  0  0
  2  3  1  0  0  0
  2 25  1  0  0  0
  2 87  1  0  0  0
  2 88  1  0  0  0
  3  4  1  0  0  0
  3 89  1  0  0  0
  3 90  1  0  0  0
  4  5  1  0  0  0
  4 91  1  0  0  0
  4 92  1  0  0  0
  5  6  1  0  0  0
  5 26  1  0  0  0
  5 93  1  0  0  0
  6 25  1  0  0  0
  6 94  1  0  0  0
  6 95  1  0  0  0
  7  8  2  0  0  0
  7 26  1  0  0  0
  7 29  1  0  0  0
  8  9  1  0  0  0
  8 22  1  0  0  0
  9 10  1  0  0  0
  9 27  2  0  0  0
 10 11  2  0  0  0
 10 15  1  0  0  0
 11 12  1  0  0  0
 11 96  1  0  0  0
 12 13  2  0  0  0
 12 97  1  0  0  0
 13 14  1  0  0  0
 13 31  1  0  0  0
 14 15  2  0  0  0
 14 98  1  0  0  0
 15 99  1  0  0  0
 16 17  2  0  0  0
 16 21  1  0  0  0
 16 31  1  0  0  0
 17 18  1  0  0  0
 17100  1  0  0  0
 18 19  2  0  0  0
 18101  1  0  0  0
 19 20  1  0  0  0
 19 24  1  0  0  0
 20 21  2  0  0  0
 20102  1  0  0  0
 21 23  1  0  0  0
 22 28  1  0  0  0
 22 32  2  0  0  0
 26 27  1  0  0  0
 28103  1  0  0  0
 28104  1  0  0  0
 29105  1  0  0  0
 29106  1  0  0  0
 33 34  1  0  0  0
 33 66  1  0  0  0
 33 70  2  0  0  0
 34 36  1  0  0  0
 34 59  1  0  0  0
 34107  1  0  0  0
 35 44  2  0  0  0
 35 45  1  0  0  0
 35 68  1  0  0  0
 36 56  1  0  0  0
 36108  1  0  0  0
 37 39  1  0  0  0
 37 47  1  0  0  0
 37 66  1  0  0  0
 37109  1  0  0  0
 38 43  2  0  0  0
 38 46  1  0  0  0
 38 47  1  0  0  0
 39 64  1  0  0  0
 39 67  2  0  0  0
 40 52  1  0  0  0
 40 53  2  0  0  0
 40 58  1  0  0  0
 41110  1  0  0  0
 41111  1  0  0  0
 41112  1  0  0  0
 41 48  1  0  0  0
 42 43  1  0  0  0
 42 66  1  0  0  0
 42113  1  0  0  0
 42114  1  0  0  0
 43 44  1  0  0  0
 44115  1  0  0  0
 45 46  2  0  0  0
 45116  1  0  0  0
 46117  1  0  0  0
 47118  1  0  0  0
 47119  1  0  0  0
 48 56  1  0  0  0
 48 65  1  0  0  0
 48120  1  0  0  0
 49 50  1  0  0  0
 49 53  1  0  0  0
 49 64  1  0  0  0
 49121  1  0  0  0
 50 51  1  0  0  0
 50122  1  0  0  0
 50123  1  0  0  0
 51 52  1  0  0  0
 51124  1  0  0  0
 51125  1  0  0  0
 52126  1  0  0  0
 52127  1  0  0  0
 53 54  1  0  0  0
 54 55  2  0  0  0
 54128  1  0  0  0
 55 57  1  0  0  0
 55129  1  0  0  0
 56 69  2  0  0  0
 57 58  2  0  0  0
 57130  1  0  0  0
 58131  1  0  0  0
 59 60  1  0  0  0
 59 61  1  0  0  0
 59 62  1  0  0  0
 60132  1  0  0  0
 60133  1  0  0  0
 60134  1  0  0  0
 61135  1  0  0  0
 61136  1  0  0  0
 61137  1  0  0  0
 62138  1  0  0  0
 62139  1  0  0  0
 62140  1  0  0  0
 63 65  1  0  0  0
 63141  1  0  0  0
 63142  1  0  0  0
 63143  1  0  0  0
 64144  1  0  0  0
 65145  1  0  0  0
 68 77  1  0  0  0
 71 72  2  0  0  0
 71 74  1  0  0  0
 71146  1  0  0  0
 72 75  1  0  0  0
 72147  1  0  0  0
 73 74  2  0  0  0
 73 76  1  0  0  0
 73148  1  0  0  0
 74 78  1  0  0  0
 75 76  2  0  0  0
 75 84  1  0  0  0
 76 86  1  0  0  0
 77 79  2  0  0  0
 77149  1  0  0  0
 78 83  1  0  0  0
 78 85  2  0  0  0
 79 80  1  0  0  0
 79 82  1  0  0  0
 80150  1  0  0  0
 80151  1  0  0  0
 80152  1  0  0  0
 81153  1  0  0  0
 81154  1  0  0  0
 81155  1  0  0  0
 81 82  1  0  0  0
 82 85  1  0  0  0
 82156  1  0  0  0
 83157  1  0  0  0
 83158  1  0  0  0
 84159  1  0  0  0
 85160  1  0  0  0
M  CHG  1  85   1
M  ISO  4   1 100  68 101  77 101  84 100
M  END
> <chiral flag>
0

> <version>
0

> <s_m_source_file>
/data/baiqing/PycharmProjects/Reinvent-master-3.2/result/LINK_invent/BTK/process_docking_weight1_custom_product_contain_oxygen_bond_distance_aromatic_linkinvent_7_9_3/rearranged_h_0073.sdf

> <i_m_source_file_index>
54

> <r_mmod_Potential_Energy-OPLS-2005>
-321.803863525391

> <r_mmod_Stretch_Energy-OPLS-2005>
46.0246925354004

> <r_mmod_Bend_Energy-OPLS-2005>
107.921447753906

> <r_mmod_Torsional_Energy-OPLS-2005>
252.677017211914

> <r_mmod_Improper_Torsional_Energy-OPLS-2005>
4.80594253540039

> <r_mmod_Van_der_Waal_Energy-OPLS-2005>
147.079528808594

> <r_mmod_Electrostatic_Energy-OPLS-2005>
-487.857849121094

> <r_mmod_Solvation_Energy-OPLS-2005>
-412.42041015625

> <b_mmod_Minimization_Converged-OPLS-2005>
0

> <r_mmod_RMS_Derivative-OPLS-2005>
1.67477548122406

$$$$
54
                    3D
 Structure written by MMmdl.
159168  0  0  1  0            999 V2000
  -30.7388  -14.4205   20.6233 C   0  0  0  0  0  0
  -30.4162  -12.3001   19.4049 C   0  0  0  0  0  0
  -29.4853  -12.5101   18.1959 C   0  0  0  0  0  0
  -28.0087  -12.3700   18.6137 C   0  0  0  0  0  0
  -27.6612  -13.2052   19.8751 C   0  0  2  0  0  0
  -28.7031  -12.9749   20.9916 C   0  0  0  0  0  0
  -25.2592  -13.8156   20.5678 C   0  0  0  0  0  0
  -24.1841  -13.0438   20.9175 C   0  0  0  0  0  0
  -24.6392  -11.6905   20.8732 C   0  0  0  0  0  0
  -23.9061  -10.4291   21.0406 C   0  0  0  0  0  0
  -24.3614   -9.4207   21.9185 C   0  0  0  0  0  0
  -23.6289   -8.2243   22.0757 C   0  0  0  0  0  0
  -22.4271   -8.0277   21.3548 C   0  0  0  0  0  0
  -21.9907   -9.0251   20.4650 C   0  0  0  0  0  0
  -22.7234  -10.2133   20.3057 C   0  0  0  0  0  0
  -21.6855   -6.0733   22.5279 C   0  0  0  0  0  0
  -21.4015   -6.5639   23.8209 C   0  0  0  0  0  0
  -21.3658   -5.6792   24.9172 C   0  0  0  0  0  0
  -21.6042   -4.3056   24.7224 C   0  0  0  0  0  0
  -21.8821   -3.8146   23.4347 C   0  0  0  0  0  0
  -21.9193   -4.6962   22.3403 C   0  0  0  0  0  0
  -22.7862  -13.5239   21.1835 C   0  0  0  0  0  0
  -22.1661   -4.2147   21.0982 F   0  0  0  0  0  0
  -21.5630   -3.4542   25.7740 F   0  0  0  0  0  0
  -30.0336  -13.2743   20.4362 N   0  0  0  0  0  0
  -26.3028  -12.9324   20.3378 N   0  0  0  0  0  0
  -25.9320  -11.6486   20.5770 N   0  0  0  0  0  0
  -22.0504  -12.8227   22.0390 N   0  0  0  0  0  0
  -25.4326  -15.1872   20.4092 N   0  0  0  0  0  0
  -31.8409  -14.6236   20.1047 O   0  0  0  0  0  0
  -21.6638   -6.8874   21.4240 O   0  0  0  0  0  0
  -22.3549  -14.5544   20.6683 O   0  0  0  0  0  0
  -24.6137  -31.8695   23.2118 C   0  0  0  0  0  0
  -25.9043  -32.4825   23.8400 C   0  0  1  0  0  0
  -27.2300  -27.4454   20.0838 C   0  0  0  0  0  0
  -25.5910  -33.8621   24.2335 N   0  0  0  0  0  0
  -23.3991  -30.4961   21.5524 C   0  0  2  0  0  0
  -24.8406  -28.9625   20.1159 C   0  0  0  0  0  0
  -22.7396  -29.4680   22.4995 C   0  0  0  0  0  0
  -18.0271  -28.1382   22.8482 C   0  0  0  0  0  0
  -24.1491  -36.7315   23.2634 C   0  0  0  0  0  0
  -25.9273  -30.8381   21.3614 C   0  0  0  0  0  0
  -26.0014  -29.4739   20.7080 C   0  0  0  0  0  0
  -27.1968  -28.7213   20.6903 C   0  0  0  0  0  0
  -26.0461  -26.9450   19.4919 C   0  0  0  0  0  0
  -24.8571  -27.6960   19.5078 C   0  0  0  0  0  0
  -23.6035  -29.8287   20.1669 C   0  0  0  0  0  0
  -25.4107  -36.3109   24.0340 C   0  0  1  0  0  0
  -20.5862  -28.3664   23.1315 C   0  0  2  0  0  0
  -20.6760  -26.9403   22.5413 C   0  0  0  0  0  0
  -19.5740  -26.6389   21.5206 C   0  0  0  0  0  0
  -18.1915  -26.7931   22.1616 C   0  0  0  0  0  0
  -19.1522  -28.8836   23.2900 C   0  0  0  0  0  0
  -18.9457  -30.1439   23.8920 C   0  0  0  0  0  0
  -17.6462  -30.6584   24.0567 C   0  0  0  0  0  0
  -25.9039  -34.9476   23.5136 C   0  0  0  0  0  0
  -16.5346  -29.9088   23.6333 C   0  0  0  0  0  0
  -16.7263  -28.6506   23.0346 C   0  0  0  0  0  0
  -26.4471  -31.6605   25.0729 C   0  0  0  0  0  0
  -25.3746  -31.3708   26.1484 C   0  0  0  0  0  0
  -27.0297  -30.3054   24.6086 C   0  0  0  0  0  0
  -27.6056  -32.4312   25.7483 C   0  0  0  0  0  0
  -27.5582  -37.1795   24.8454 C   0  0  0  0  0  0
  -21.4127  -29.3041   22.3727 N   0  0  0  0  0  0
  -26.4287  -37.3797   23.9419 N   0  0  0  0  0  0
  -24.6656  -31.0816   22.1007 N   0  0  0  0  0  0
  -23.4181  -28.8218   23.3025 O   0  0  0  0  0  0
  -28.4172  -26.7417   20.0907 O   0  0  0  0  0  0
  -26.5589  -34.8923   22.4690 O   0  0  0  0  0  0
  -23.5336  -32.1434   23.7535 O   0  0  0  0  0  0
  -30.2040  -17.8331   21.5570 C   0  0  0  0  0  0
  -31.8878  -18.8436   23.0056 C   0  0  0  0  0  0
  -31.8174  -16.4258   22.7373 C   0  0  0  0  0  0
  -30.7933  -18.9951   22.1213 C   0  0  0  0  0  0
  -30.7213  -16.5484   21.8555 C   0  0  0  0  0  0
  -32.3976  -17.5701   23.3091 C   0  0  0  0  0  0
  -29.9087  -22.2781   20.7553 C   0  0  0  0  0  0
  -30.1410  -20.8431   20.6043 C   0  0  0  0  0  0
  -29.8648  -23.2120   19.7213 C   0  0  0  0  0  0
  -29.8051  -22.6083   22.2232 C   0  0  0  0  0  0
  -30.1328  -21.2901   22.9144 C   0  0  0  0  0  0
  -29.7601  -24.7200   20.0388 C   0  0  0  0  0  0
  -28.3845  -25.3515   19.7473 C   0  0  0  0  0  0
  -30.3028  -20.3125   21.8396 N   0  0  0  0  0  0
  -30.1099  -15.3818   21.3219 N   0  0  0  0  0  0
  -29.9784  -23.0805   18.4802 O   0  5  0  0  0  0
  -30.1952  -20.2044   19.5515 O   0  0  0  0  0  0
  -33.4481  -17.4455   24.1545 F   0  0  0  0  0  0
  -31.4605  -12.3944   19.1014 H   0  0  0  0  0  0
  -30.3132  -11.2870   19.7971 H   0  0  0  0  0  0
  -29.7212  -11.7913   17.4105 H   0  0  0  0  0  0
  -29.6529  -13.4993   17.7652 H   0  0  0  0  0  0
  -27.8181  -11.3131   18.8052 H   0  0  0  0  0  0
  -27.3552  -12.6493   17.7865 H   0  0  0  0  0  0
  -27.7097  -14.2549   19.5841 H   0  0  0  0  0  0
  -28.6769  -11.9372   21.3272 H   0  0  0  0  0  0
  -28.4628  -13.5679   21.8753 H   0  0  0  0  0  0
  -25.2762   -9.5685   22.4757 H   0  0  0  0  0  0
  -23.9998   -7.4638   22.7480 H   0  0  0  0  0  0
  -21.0838   -8.8772   19.8952 H   0  0  0  0  0  0
  -22.3694  -10.9675   19.6163 H   0  0  0  0  0  0
  -21.2006   -7.6146   23.9714 H   0  0  0  0  0  0
  -21.1478   -6.0523   25.9076 H   0  0  0  0  0  0
  -22.0601   -2.7608   23.2850 H   0  0  0  0  0  0
  -22.4122  -11.9883   22.4768 H   0  0  0  0  0  0
  -21.1128  -13.1265   22.2607 H   0  0  0  0  0  0
  -24.6680  -15.8454   20.5143 H   0  0  0  0  0  0
  -26.2882  -15.6248   20.0914 H   0  0  0  0  0  0
  -26.7114  -32.5532   23.1162 H   0  0  0  0  0  0
  -25.0057  -33.9784   25.0476 H   0  0  0  0  0  0
  -22.6882  -31.3141   21.4151 H   0  0  0  0  0  0
  -23.3750  -35.9651   23.3293 H   0  0  0  0  0  0
  -24.3586  -36.8940   22.2050 H   0  0  0  0  0  0
  -23.7238  -37.6514   23.6653 H   0  0  0  0  0  0
  -26.0385  -31.6058   20.5938 H   0  0  0  0  0  0
  -26.8165  -30.8898   21.9782 H   0  0  0  0  0  0
  -28.0942  -29.1143   21.1471 H   0  0  0  0  0  0
  -26.0186  -25.9793   19.0089 H   0  0  0  0  0  0
  -23.9631  -27.2939   19.0514 H   0  0  0  0  0  0
  -23.7084  -30.6036   19.4065 H   0  0  0  0  0  0
  -22.7270  -29.2490   19.8711 H   0  0  0  0  0  0
  -25.1281  -36.1973   25.0832 H   0  0  0  0  0  0
  -20.9954  -28.3234   24.1437 H   0  0  0  0  0  0
  -20.5671  -26.2275   23.3602 H   0  0  0  0  0  0
  -21.6628  -26.7450   22.1200 H   0  0  0  0  0  0
  -19.6907  -25.6310   21.1216 H   0  0  0  0  0  0
  -19.6684  -27.3214   20.6751 H   0  0  0  0  0  0
  -17.4188  -26.6682   21.4012 H   0  0  0  0  0  0
  -18.0311  -26.0073   22.9015 H   0  0  0  0  0  0
  -19.7939  -30.7235   24.2303 H   0  0  0  0  0  0
  -17.5023  -31.6270   24.5158 H   0  0  0  0  0  0
  -15.5350  -30.2992   23.7655 H   0  0  0  0  0  0
  -15.8664  -28.0831   22.7055 H   0  0  0  0  0  0
  -24.5915  -30.7061   25.7821 H   0  0  0  0  0  0
  -24.8939  -32.2863   26.4940 H   0  0  0  0  0  0
  -25.8104  -30.8868   27.0234 H   0  0  0  0  0  0
  -26.2828  -29.6813   24.1157 H   0  0  0  0  0  0
  -27.4099  -29.7290   25.4531 H   0  0  0  0  0  0
  -27.8657  -30.4382   23.9208 H   0  0  0  0  0  0
  -27.2687  -33.3599   26.2095 H   0  0  0  0  0  0
  -28.3846  -32.6888   25.0296 H   0  0  0  0  0  0
  -28.0742  -31.8412   26.5367 H   0  0  0  0  0  0
  -28.2577  -38.0111   24.7532 H   0  0  0  0  0  0
  -28.1098  -36.2644   24.6243 H   0  0  0  0  0  0
  -27.2302  -37.1404   25.8854 H   0  0  0  0  0  0
  -20.9286  -29.8775   21.6964 H   0  0  0  0  0  0
  -26.0180  -38.2875   24.1441 H   0  0  0  0  0  0
  -29.3581  -17.9305   20.8907 H   0  0  0  0  0  0
  -32.3691  -19.7007   23.4514 H   0  0  0  0  0  0
  -32.2173  -15.4551   22.9906 H   0  0  0  0  0  0
  -28.7968  -22.9482   22.4658 H   0  0  0  0  0  0
  -30.5186  -23.3775   22.5200 H   0  0  0  0  0  0
  -29.3279  -20.9754   23.5801 H   0  0  0  0  0  0
  -31.0374  -21.4015   23.5115 H   0  0  0  0  0  0
  -30.5194  -25.2703   19.4786 H   0  0  0  0  0  0
  -30.0043  -24.9247   21.0788 H   0  0  0  0  0  0
  -27.6213  -24.8293   20.3266 H   0  0  0  0  0  0
  -28.1438  -25.2380   18.6891 H   0  0  0  0  0  0
  -29.1392  -15.2217   21.5449 H   0  0  0  0  0  0
  1 25  1  0  0  0
  1 30  2  0  0  0
  1 85  1  0  0  0
  2  3  1  0  0  0
  2 25  1  0  0  0
  2 89  1  0  0  0
  2 90  1  0  0  0
  3  4  1  0  0  0
  3 91  1  0  0  0
  3 92  1  0  0  0
  4  5  1  0  0  0
  4 93  1  0  0  0
  4 94  1  0  0  0
  5  6  1  0  0  0
  5 26  1  0  0  0
  5 95  1  0  0  0
  6 25  1  0  0  0
  6 96  1  0  0  0
  6 97  1  0  0  0
  7  8  2  0  0  0
  7 26  1  0  0  0
  7 29  1  0  0  0
  8  9  1  0  0  0
  8 22  1  0  0  0
  9 10  1  0  0  0
  9 27  2  0  0  0
 10 11  2  0  0  0
 10 15  1  0  0  0
 11 12  1  0  0  0
 11 98  1  0  0  0
 12 13  2  0  0  0
 12 99  1  0  0  0
 13 14  1  0  0  0
 13 31  1  0  0  0
 14 15  2  0  0  0
 14100  1  0  0  0
 15101  1  0  0  0
 16 17  2  0  0  0
 16 21  1  0  0  0
 16 31  1  0  0  0
 17 18  1  0  0  0
 17102  1  0  0  0
 18 19  2  0  0  0
 18103  1  0  0  0
 19 20  1  0  0  0
 19 24  1  0  0  0
 20 21  2  0  0  0
 20104  1  0  0  0
 21 23  1  0  0  0
 22 28  1  0  0  0
 22 32  2  0  0  0
 26 27  1  0  0  0
 28105  1  0  0  0
 28106  1  0  0  0
 29107  1  0  0  0
 29108  1  0  0  0
 33 34  1  0  0  0
 33 66  1  0  0  0
 33 70  2  0  0  0
 34 36  1  0  0  0
 34 59  1  0  0  0
 34109  1  0  0  0
 35 44  2  0  0  0
 35 45  1  0  0  0
 35 68  1  0  0  0
 36 56  1  0  0  0
 36110  1  0  0  0
 37 39  1  0  0  0
 37 47  1  0  0  0
 37 66  1  0  0  0
 37111  1  0  0  0
 38 43  2  0  0  0
 38 46  1  0  0  0
 38 47  1  0  0  0
 39 64  1  0  0  0
 39 67  2  0  0  0
 40 52  1  0  0  0
 40 53  2  0  0  0
 40 58  1  0  0  0
 41112  1  0  0  0
 41113  1  0  0  0
 41114  1  0  0  0
 41 48  1  0  0  0
 42 43  1  0  0  0
 42 66  1  0  0  0
 42115  1  0  0  0
 42116  1  0  0  0
 43 44  1  0  0  0
 44117  1  0  0  0
 45 46  2  0  0  0
 45118  1  0  0  0
 46119  1  0  0  0
 47120  1  0  0  0
 47121  1  0  0  0
 48 56  1  0  0  0
 48 65  1  0  0  0
 48122  1  0  0  0
 49 50  1  0  0  0
 49 53  1  0  0  0
 49 64  1  0  0  0
 49123  1  0  0  0
 50 51  1  0  0  0
 50124  1  0  0  0
 50125  1  0  0  0
 51 52  1  0  0  0
 51126  1  0  0  0
 51127  1  0  0  0
 52128  1  0  0  0
 52129  1  0  0  0
 53 54  1  0  0  0
 54 55  2  0  0  0
 54130  1  0  0  0
 55 57  1  0  0  0
 55131  1  0  0  0
 56 69  2  0  0  0
 57 58  2  0  0  0
 57132  1  0  0  0
 58133  1  0  0  0
 59 60  1  0  0  0
 59 61  1  0  0  0
 59 62  1  0  0  0
 60134  1  0  0  0
 60135  1  0  0  0
 60136  1  0  0  0
 61137  1  0  0  0
 61138  1  0  0  0
 61139  1  0  0  0
 62140  1  0  0  0
 62141  1  0  0  0
 62142  1  0  0  0
 63 65  1  0  0  0
 63143  1  0  0  0
 63144  1  0  0  0
 63145  1  0  0  0
 64146  1  0  0  0
 65147  1  0  0  0
 68 83  1  0  0  0
 71 74  2  0  0  0
 71 75  1  0  0  0
 71148  1  0  0  0
 72 74  1  0  0  0
 72 76  2  0  0  0
 72149  1  0  0  0
 73 75  2  0  0  0
 73 76  1  0  0  0
 73150  1  0  0  0
 74 84  1  0  0  0
 75 85  1  0  0  0
 76 88  1  0  0  0
 77 78  1  0  0  0
 77 79  2  0  0  0
 77 80  1  0  0  0
 78 84  1  0  0  0
 78 87  2  0  0  0
 79 82  1  0  0  0
 79 86  1  0  0  0
 80 81  1  0  0  0
 80151  1  0  0  0
 80152  1  0  0  0
 81 84  1  0  0  0
 81153  1  0  0  0
 81154  1  0  0  0
 82 83  1  0  0  0
 82155  1  0  0  0
 82156  1  0  0  0
 83157  1  0  0  0
 83158  1  0  0  0
 85159  1  0  0  0
M  CHG  1  86  -1
M  ISO  4   1 100  68 101  83 101  85 100
M  END
> <chiral flag>
0

> <version>
0

> <s_m_source_file>
/data/baiqing/PycharmProjects/Reinvent-master-3.2/result/LINK_invent/BTK/process_docking_weight1_custom_product_contain_oxygen_bond_distance_aromatic_linkinvent_7_9_3/rearranged_h_0073.sdf

> <i_m_source_file_index>
55

> <r_mmod_Potential_Energy-OPLS-2005>
-181.300430297852

> <r_mmod_Stretch_Energy-OPLS-2005>
37.3338012695312

> <r_mmod_Bend_Energy-OPLS-2005>
123.075492858887

> <r_mmod_Torsional_Energy-OPLS-2005>
282.360198974609

> <r_mmod_Improper_Torsional_Energy-OPLS-2005>
2.88953685760498

> <r_mmod_Van_der_Waal_Energy-OPLS-2005>
162.201293945312

> <r_mmod_Electrostatic_Energy-OPLS-2005>
-306.918670654297

> <r_mmod_Solvation_Energy-OPLS-2005>
-492.160308837891

> <b_mmod_Minimization_Converged-OPLS-2005>
0

> <r_mmod_RMS_Derivative-OPLS-2005>
1.33236217498779

$$$$
55
                    3D
 Structure written by MMmdl.
145152  0  0  1  0            999 V2000
  -30.4087  -15.3370   20.3680 C   0  0  0  0  0  0
  -30.4394  -12.8673   19.5096 C   0  0  0  0  0  0
  -29.5350  -12.5842   18.2829 C   0  0  0  0  0  0
  -28.0890  -12.2920   18.7210 C   0  0  0  0  0  0
  -27.6061  -13.2771   19.8135 C   0  0  2  0  0  0
  -28.6418  -13.4863   20.9376 C   0  0  0  0  0  0
  -25.2376  -13.8239   20.5754 C   0  0  0  0  0  0
  -24.1736  -13.0427   20.9272 C   0  0  0  0  0  0
  -24.6397  -11.6926   20.8768 C   0  0  0  0  0  0
  -23.9093  -10.4287   21.0409 C   0  0  0  0  0  0
  -24.3637   -9.4200   21.9186 C   0  0  0  0  0  0
  -23.6303   -8.2240   22.0755 C   0  0  0  0  0  0
  -22.4285   -8.0281   21.3545 C   0  0  0  0  0  0
  -21.9927   -9.0256   20.4646 C   0  0  0  0  0  0
  -22.7264  -10.2131   20.3056 C   0  0  0  0  0  0
  -21.6855   -6.0737   22.5279 C   0  0  0  0  0  0
  -21.4016   -6.5640   23.8212 C   0  0  0  0  0  0
  -21.3659   -5.6793   24.9174 C   0  0  0  0  0  0
  -21.6044   -4.3055   24.7225 C   0  0  0  0  0  0
  -21.8819   -3.8148   23.4346 C   0  0  0  0  0  0
  -21.9193   -4.6965   22.3402 C   0  0  0  0  0  0
  -22.7753  -13.5180   21.1914 C   0  0  0  0  0  0
  -22.1662   -4.2150   21.0980 F   0  0  0  0  0  0
  -21.5628   -3.4539   25.7737 F   0  0  0  0  0  0
  -29.8535  -14.0211   20.2910 N   0  0  0  0  0  0
  -26.2800  -12.9517   20.3201 N   0  0  0  0  0  0
  -25.9333  -11.6622   20.5712 N   0  0  0  0  0  0
  -22.0410  -12.8161   22.0465 N   0  0  0  0  0  0
  -25.3991  -15.1976   20.4183 N   0  0  0  0  0  0
  -31.6434  -15.3224   20.2477 O   0  0  0  0  0  0
  -21.6643   -6.8882   21.4242 O   0  0  0  0  0  0
  -22.3436  -14.5482   20.6752 O   0  0  0  0  0  0
  -24.6673  -31.8194   23.1665 C   0  0  0  0  0  0
  -25.9333  -32.4568   23.8148 C   0  0  1  0  0  0
  -27.2196  -26.8827   20.2005 C   0  0  0  0  0  0
  -25.5982  -33.8383   24.2050 N   0  0  0  0  0  0
  -23.4840  -30.4288   21.5176 C   0  0  2  0  0  0
  -24.9370  -28.8017   20.1222 C   0  0  0  0  0  0
  -22.7685  -29.4422   22.4778 C   0  0  0  0  0  0
  -18.0325  -28.1411   22.8465 C   0  0  0  0  0  0
  -24.1494  -36.7198   23.2648 C   0  0  0  0  0  0
  -26.0559  -30.6126   21.4020 C   0  0  0  0  0  0
  -26.1243  -29.1951   20.7530 C   0  0  0  0  0  0
  -27.2625  -28.2609   20.7585 C   0  0  0  0  0  0
  -25.9989  -26.6480   19.5289 C   0  0  0  0  0  0
  -24.9016  -27.5489   19.4891 C   0  0  0  0  0  0
  -23.7271  -29.7376   20.1478 C   0  0  0  0  0  0
  -25.4136  -36.2955   24.0296 C   0  0  1  0  0  0
  -20.5952  -28.3760   23.1181 C   0  0  2  0  0  0
  -20.6800  -26.9438   22.5402 C   0  0  0  0  0  0
  -19.5774  -26.6377   21.5215 C   0  0  0  0  0  0
  -18.1956  -26.7944   22.1622 C   0  0  0  0  0  0
  -19.1587  -28.8907   23.2808 C   0  0  0  0  0  0
  -18.9496  -30.1496   23.8846 C   0  0  0  0  0  0
  -17.6488  -30.6600   24.0554 C   0  0  0  0  0  0
  -25.9105  -34.9339   23.4998 C   0  0  0  0  0  0
  -16.5379  -29.9085   23.6345 C   0  0  0  0  0  0
  -16.7306  -28.6506   23.0363 C   0  0  0  0  0  0
  -26.4568  -31.6529   25.0694 C   0  0  0  0  0  0
  -25.3682  -31.3791   26.1341 C   0  0  0  0  0  0
  -27.0474  -30.2891   24.6457 C   0  0  0  0  0  0
  -27.6049  -32.4349   25.7504 C   0  0  0  0  0  0
  -27.5569  -37.1755   24.8465 C   0  0  0  0  0  0
  -21.4351  -29.3043   22.3526 N   0  0  0  0  0  0
  -26.4277  -37.3696   23.9409 N   0  0  0  0  0  0
  -24.7576  -30.9817   22.0823 N   0  0  0  0  0  0
  -23.4212  -28.7998   23.3041 O   0  0  0  0  0  0
  -28.2313  -25.7708   20.1857 O   0  0  0  0  0  0
  -26.5722  -34.8883   22.4598 O   0  0  0  0  0  0
  -23.5732  -32.1182   23.6732 O   0  0  0  0  0  0
  -29.2229  -19.7672   20.0040 C   0  0  0  0  0  0
  -28.6589  -22.6613   19.8904 C   0  0  0  0  0  0
  -29.8189  -18.2642   20.7121 C   0  0  0  0  0  0
  -28.0503  -24.1627   20.6159 C   0  0  0  0  0  0
  -28.9546  -21.1616   20.5376 N   0  0  0  0  0  0
  -29.6334  -16.6182   20.3755 N   0  0  0  0  0  0
  -29.0287  -19.6031   18.6832 N   0  3  0  0  0  0
  -28.8428  -22.7173   18.6671 O   0  0  0  0  0  0
  -31.4482  -13.0974   19.1642 H   0  0  0  0  0  0
  -30.5388  -11.9788   20.1353 H   0  0  0  0  0  0
  -29.9290  -11.7491   17.7022 H   0  0  0  0  0  0
  -29.5451  -13.4508   17.6200 H   0  0  0  0  0  0
  -28.0628  -11.2741   19.1119 H   0  0  0  0  0  0
  -27.4167  -12.3080   17.8622 H   0  0  0  0  0  0
  -27.5072  -14.2331   19.2977 H   0  0  0  0  0  0
  -28.8365  -12.5620   21.4837 H   0  0  0  0  0  0
  -28.2691  -14.2070   21.6671 H   0  0  0  0  0  0
  -25.2778   -9.5675   22.4768 H   0  0  0  0  0  0
  -24.0007   -7.4630   22.7477 H   0  0  0  0  0  0
  -21.0858   -8.8780   19.8951 H   0  0  0  0  0  0
  -22.3723  -10.9672   19.6168 H   0  0  0  0  0  0
  -21.2009   -7.6149   23.9716 H   0  0  0  0  0  0
  -21.1481   -6.0523   25.9077 H   0  0  0  0  0  0
  -22.0597   -2.7610   23.2845 H   0  0  0  0  0  0
  -22.4041  -11.9830   22.4855 H   0  0  0  0  0  0
  -21.1019  -13.1165   22.2664 H   0  0  0  0  0  0
  -24.6242  -15.8430   20.5280 H   0  0  0  0  0  0
  -26.2316  -15.6394   20.0528 H   0  0  0  0  0  0
  -26.7405  -32.5096   23.0863 H   0  0  0  0  0  0
  -25.0070  -33.9454   25.0161 H   0  0  0  0  0  0
  -22.7997  -31.2613   21.3414 H   0  0  0  0  0  0
  -23.3771  -35.9512   23.3271 H   0  0  0  0  0  0
  -24.3570  -36.8887   22.2070 H   0  0  0  0  0  0
  -23.7235  -37.6366   23.6734 H   0  0  0  0  0  0
  -26.2378  -31.3484   20.6175 H   0  0  0  0  0  0
  -26.9152  -30.6752   22.0577 H   0  0  0  0  0  0
  -28.1687  -28.5702   21.2601 H   0  0  0  0  0  0
  -25.8712  -25.6940   19.0372 H   0  0  0  0  0  0
  -24.0010  -27.2410   18.9757 H   0  0  0  0  0  0
  -23.8899  -30.5022   19.3873 H   0  0  0  0  0  0
  -22.8353  -29.1956   19.8283 H   0  0  0  0  0  0
  -25.1337  -36.1743   25.0786 H   0  0  0  0  0  0
  -21.0036  -28.3369   24.1306 H   0  0  0  0  0  0
  -20.5679  -26.2380   23.3646 H   0  0  0  0  0  0
  -21.6663  -26.7409   22.1210 H   0  0  0  0  0  0
  -19.6933  -25.6275   21.1278 H   0  0  0  0  0  0
  -19.6713  -27.3159   20.6722 H   0  0  0  0  0  0
  -17.4225  -26.6686   21.4026 H   0  0  0  0  0  0
  -18.0351  -26.0099   22.9031 H   0  0  0  0  0  0
  -19.7971  -30.7326   24.2192 H   0  0  0  0  0  0
  -17.5039  -31.6274   24.5166 H   0  0  0  0  0  0
  -15.5377  -30.2970   23.7698 H   0  0  0  0  0  0
  -15.8707  -28.0806   22.7109 H   0  0  0  0  0  0
  -24.5882  -30.7123   25.7647 H   0  0  0  0  0  0
  -24.8851  -32.2996   26.4629 H   0  0  0  0  0  0
  -25.7901  -30.9047   27.0210 H   0  0  0  0  0  0
  -26.3152  -29.6554   24.1443 H   0  0  0  0  0  0
  -27.3970  -29.7273   25.5129 H   0  0  0  0  0  0
  -27.9105  -30.4065   23.9902 H   0  0  0  0  0  0
  -27.2609  -33.3699   26.1940 H   0  0  0  0  0  0
  -28.3935  -32.6834   25.0388 H   0  0  0  0  0  0
  -28.0634  -31.8571   26.5538 H   0  0  0  0  0  0
  -28.2561  -38.0075   24.7519 H   0  0  0  0  0  0
  -28.1091  -36.2601   24.6285 H   0  0  0  0  0  0
  -27.2286  -37.1386   25.8867 H   0  0  0  0  0  0
  -20.9616  -29.8724   21.6639 H   0  0  0  0  0  0
  -26.0120  -38.2751   24.1422 H   0  0  0  0  0  0
  -29.5343  -18.3327   21.7620 H   0  0  0  0  0  0
  -30.9012  -18.3921   20.7401 H   0  0  0  0  0  0
  -28.3813  -24.1169   21.6529 H   0  0  0  0  0  0
  -26.9731  -24.0087   20.6743 H   0  0  0  0  0  0
  -28.9356  -21.1144   21.5451 H   0  0  0  0  0  0
  -28.6504  -16.4098   20.2975 H   0  0  0  0  0  0
  -29.2069  -18.7075   18.2483 H   0  0  0  0  0  0
  -28.7555  -20.3731   18.0868 H   0  0  0  0  0  0
  1 25  1  0  0  0
  1 30  2  0  0  0
  1 76  1  0  0  0
  2  3  1  0  0  0
  2 25  1  0  0  0
  2 79  1  0  0  0
  2 80  1  0  0  0
  3  4  1  0  0  0
  3 81  1  0  0  0
  3 82  1  0  0  0
  4  5  1  0  0  0
  4 83  1  0  0  0
  4 84  1  0  0  0
  5  6  1  0  0  0
  5 26  1  0  0  0
  5 85  1  0  0  0
  6 25  1  0  0  0
  6 86  1  0  0  0
  6 87  1  0  0  0
  7  8  2  0  0  0
  7 26  1  0  0  0
  7 29  1  0  0  0
  8  9  1  0  0  0
  8 22  1  0  0  0
  9 10  1  0  0  0
  9 27  2  0  0  0
 10 11  2  0  0  0
 10 15  1  0  0  0
 11 12  1  0  0  0
 11 88  1  0  0  0
 12 13  2  0  0  0
 12 89  1  0  0  0
 13 14  1  0  0  0
 13 31  1  0  0  0
 14 15  2  0  0  0
 14 90  1  0  0  0
 15 91  1  0  0  0
 16 17  2  0  0  0
 16 21  1  0  0  0
 16 31  1  0  0  0
 17 18  1  0  0  0
 17 92  1  0  0  0
 18 19  2  0  0  0
 18 93  1  0  0  0
 19 20  1  0  0  0
 19 24  1  0  0  0
 20 21  2  0  0  0
 20 94  1  0  0  0
 21 23  1  0  0  0
 22 28  1  0  0  0
 22 32  2  0  0  0
 26 27  1  0  0  0
 28 95  1  0  0  0
 28 96  1  0  0  0
 29 97  1  0  0  0
 29 98  1  0  0  0
 33 34  1  0  0  0
 33 66  1  0  0  0
 33 70  2  0  0  0
 34 36  1  0  0  0
 34 59  1  0  0  0
 34 99  1  0  0  0
 35 44  2  0  0  0
 35 45  1  0  0  0
 35 68  1  0  0  0
 36 56  1  0  0  0
 36100  1  0  0  0
 37 39  1  0  0  0
 37 47  1  0  0  0
 37 66  1  0  0  0
 37101  1  0  0  0
 38 43  2  0  0  0
 38 46  1  0  0  0
 38 47  1  0  0  0
 39 64  1  0  0  0
 39 67  2  0  0  0
 40 52  1  0  0  0
 40 53  2  0  0  0
 40 58  1  0  0  0
 41102  1  0  0  0
 41103  1  0  0  0
 41104  1  0  0  0
 41 48  1  0  0  0
 42 43  1  0  0  0
 42 66  1  0  0  0
 42105  1  0  0  0
 42106  1  0  0  0
 43 44  1  0  0  0
 44107  1  0  0  0
 45 46  2  0  0  0
 45108  1  0  0  0
 46109  1  0  0  0
 47110  1  0  0  0
 47111  1  0  0  0
 48 56  1  0  0  0
 48 65  1  0  0  0
 48112  1  0  0  0
 49 50  1  0  0  0
 49 53  1  0  0  0
 49 64  1  0  0  0
 49113  1  0  0  0
 50 51  1  0  0  0
 50114  1  0  0  0
 50115  1  0  0  0
 51 52  1  0  0  0
 51116  1  0  0  0
 51117  1  0  0  0
 52118  1  0  0  0
 52119  1  0  0  0
 53 54  1  0  0  0
 54 55  2  0  0  0
 54120  1  0  0  0
 55 57  1  0  0  0
 55121  1  0  0  0
 56 69  2  0  0  0
 57 58  2  0  0  0
 57122  1  0  0  0
 58123  1  0  0  0
 59 60  1  0  0  0
 59 61  1  0  0  0
 59 62  1  0  0  0
 60124  1  0  0  0
 60125  1  0  0  0
 60126  1  0  0  0
 61127  1  0  0  0
 61128  1  0  0  0
 61129  1  0  0  0
 62130  1  0  0  0
 62131  1  0  0  0
 62132  1  0  0  0
 63 65  1  0  0  0
 63133  1  0  0  0
 63134  1  0  0  0
 63135  1  0  0  0
 64136  1  0  0  0
 65137  1  0  0  0
 68 74  1  0  0  0
 71 73  1  0  0  0
 71 75  1  0  0  0
 71 77  2  0  0  0
 72 74  1  0  0  0
 72 75  1  0  0  0
 72 78  2  0  0  0
 73 76  1  0  0  0
 73138  1  0  0  0
 73139  1  0  0  0
 74140  1  0  0  0
 74141  1  0  0  0
 75142  1  0  0  0
 76143  1  0  0  0
 77144  1  0  0  0
 77145  1  0  0  0
M  CHG  1  77   1
M  ISO  4   1 100  68 101  74 101  76 100
M  END
> <chiral flag>
0

> <version>
0

> <s_m_source_file>
/data/baiqing/PycharmProjects/Reinvent-master-3.2/result/LINK_invent/BTK/process_docking_weight1_custom_product_contain_oxygen_bond_distance_aromatic_linkinvent_7_9_3/rearranged_h_0073.sdf

> <i_m_source_file_index>
56

> <r_mmod_Potential_Energy-OPLS-2005>
1160.61499023438

> <r_mmod_Stretch_Energy-OPLS-2005>
676.871032714844

> <r_mmod_Bend_Energy-OPLS-2005>
464.901184082031

> <r_mmod_Torsional_Energy-OPLS-2005>
233.310028076172

> <r_mmod_Improper_Torsional_Energy-OPLS-2005>
5.28079032897949

> <r_mmod_Van_der_Waal_Energy-OPLS-2005>
108.002899169922

> <r_mmod_Electrostatic_Energy-OPLS-2005>
-334.276763916016

> <r_mmod_Solvation_Energy-OPLS-2005>
-523.424255371094

> <b_mmod_Minimization_Converged-OPLS-2005>
1

> <r_mmod_RMS_Derivative-OPLS-2005>
0.0494972616434097

$$$$
56
                    3D
 Structure written by MMmdl.
158167  0  0  1  0            999 V2000
  -30.6508  -14.6717   20.5819 C   0  0  0  0  0  0
  -30.4329  -12.4380   19.4625 C   0  0  0  0  0  0
  -29.5090  -12.5344   18.2287 C   0  0  0  0  0  0
  -28.0336  -12.3541   18.6332 C   0  0  0  0  0  0
  -27.6486  -13.2239   19.8571 C   0  0  2  0  0  0
  -28.6836  -13.0868   20.9898 C   0  0  0  0  0  0
  -25.2538  -13.8184   20.5669 C   0  0  0  0  0  0
  -24.1812  -13.0442   20.9174 C   0  0  0  0  0  0
  -24.6389  -11.6914   20.8715 C   0  0  0  0  0  0
  -23.9064  -10.4293   21.0395 C   0  0  0  0  0  0
  -24.3621   -9.4213   21.9176 C   0  0  0  0  0  0
  -23.6296   -8.2248   22.0751 C   0  0  0  0  0  0
  -22.4276   -8.0281   21.3546 C   0  0  0  0  0  0
  -21.9911   -9.0250   20.4645 C   0  0  0  0  0  0
  -22.7237  -10.2130   20.3046 C   0  0  0  0  0  0
  -21.6856   -6.0736   22.5280 C   0  0  0  0  0  0
  -21.4016   -6.5639   23.8214 C   0  0  0  0  0  0
  -21.3658   -5.6790   24.9175 C   0  0  0  0  0  0
  -21.6042   -4.3053   24.7224 C   0  0  0  0  0  0
  -21.8820   -3.8146   23.4345 C   0  0  0  0  0  0
  -21.9196   -4.6964   22.3402 C   0  0  0  0  0  0
  -22.7838  -13.5232   21.1860 C   0  0  0  0  0  0
  -22.1662   -4.2148   21.0979 F   0  0  0  0  0  0
  -21.5629   -3.4537   25.7737 F   0  0  0  0  0  0
  -30.0022  -13.4592   20.4477 N   0  0  0  0  0  0
  -26.2957  -12.9373   20.3256 N   0  0  0  0  0  0
  -25.9314  -11.6522   20.5703 N   0  0  0  0  0  0
  -22.0488  -12.8211   22.0415 N   0  0  0  0  0  0
  -25.4274  -15.1909   20.4132 N   0  0  0  0  0  0
  -31.7470  -14.8455   20.0381 O   0  0  0  0  0  0
  -21.6644   -6.8878   21.4241 O   0  0  0  0  0  0
  -22.3513  -14.5542   20.6722 O   0  0  0  0  0  0
  -24.6293  -31.8562   23.2009 C   0  0  0  0  0  0
  -25.9130  -32.4755   23.8350 C   0  0  1  0  0  0
  -27.2255  -27.2987   20.1284 C   0  0  0  0  0  0
  -25.5943  -33.8560   24.2280 N   0  0  0  0  0  0
  -23.4252  -30.4785   21.5421 C   0  0  2  0  0  0
  -24.8744  -28.9274   20.1122 C   0  0  0  0  0  0
  -22.7493  -29.4607   22.4922 C   0  0  0  0  0  0
  -18.0286  -28.1388   22.8480 C   0  0  0  0  0  0
  -24.1489  -36.7275   23.2642 C   0  0  0  0  0  0
  -25.9679  -30.7814   21.3756 C   0  0  0  0  0  0
  -26.0439  -29.4067   20.7175 C   0  0  0  0  0  0
  -27.2268  -28.6054   20.7116 C   0  0  0  0  0  0
  -26.0381  -26.8748   19.4973 C   0  0  0  0  0  0
  -24.8741  -27.6680   19.4912 C   0  0  0  0  0  0
  -23.6426  -29.8096   20.1589 C   0  0  0  0  0  0
  -25.4113  -36.3065   24.0332 C   0  0  1  0  0  0
  -20.5889  -28.3695   23.1266 C   0  0  2  0  0  0
  -20.6775  -26.9413   22.5404 C   0  0  0  0  0  0
  -19.5751  -26.6383   21.5206 C   0  0  0  0  0  0
  -18.1929  -26.7934   22.1614 C   0  0  0  0  0  0
  -19.1541  -28.8859   23.2870 C   0  0  0  0  0  0
  -18.9464  -30.1461   23.8887 C   0  0  0  0  0  0
  -17.6464  -30.6589   24.0561 C   0  0  0  0  0  0
  -25.9051  -34.9434   23.5101 C   0  0  0  0  0  0
  -16.5352  -29.9083   23.6338 C   0  0  0  0  0  0
  -16.7271  -28.6501   23.0356 C   0  0  0  0  0  0
  -26.4517  -31.6576   25.0728 C   0  0  0  0  0  0
  -25.3759  -31.3700   26.1461 C   0  0  0  0  0  0
  -27.0376  -30.2999   24.6204 C   0  0  0  0  0  0
  -27.6071  -32.4326   25.7499 C   0  0  0  0  0  0
  -27.5581  -37.1788   24.8464 C   0  0  0  0  0  0
  -21.4204  -29.3044   22.3662 N   0  0  0  0  0  0
  -26.4284  -37.3768   23.9418 N   0  0  0  0  0  0
  -24.6926  -31.0562   22.0960 N   0  0  0  0  0  0
  -23.4201  -28.8151   23.3015 O   0  0  0  0  0  0
  -28.3174  -26.4156   20.1474 O   0  0  0  0  0  0
  -26.5609  -34.8908   22.4663 O   0  0  0  0  0  0
  -23.5449  -32.1367   23.7322 O   0  0  0  0  0  0
  -29.1971  -19.4665   21.6330 C   0  0  0  0  0  0
  -29.7953  -19.0566   19.3633 C   0  0  0  0  0  0
  -29.4127  -18.0826   21.9232 C   0  0  0  0  0  0
  -30.0130  -17.6650   19.6532 C   0  0  0  0  0  0
  -29.3850  -20.0180   20.3407 C   0  0  0  0  0  0
  -29.8428  -17.1153   20.9570 C   0  0  0  0  0  0
  -28.7448  -22.5293   20.8324 C   0  0  0  0  0  0
  -28.6190  -23.7319   20.1875 C   0  0  0  0  0  0
  -29.0082  -23.4359   18.8257 C   0  0  0  0  0  0
  -29.0302  -24.3148   17.8109 C   0  0  0  0  0  0
  -29.3781  -21.9575   18.6965 C   0  0  0  0  0  0
  -30.0367  -15.3930   22.7785 C   0  0  0  0  0  0
  -28.0951  -25.0964   20.8063 C   0  0  0  0  0  0
  -29.1773  -21.4268   20.0481 N   0  0  0  0  0  0
  -30.0646  -15.6838   21.3331 N   0  0  0  0  0  0
  -31.4743  -12.5646   19.1619 H   0  0  0  0  0  0
  -30.3764  -11.4422   19.9049 H   0  0  0  0  0  0
  -29.7881  -11.7839   17.4882 H   0  0  0  0  0  0
  -29.6403  -13.5047   17.7467 H   0  0  0  0  0  0
  -27.8801  -11.2997   18.8658 H   0  0  0  0  0  0
  -27.3797  -12.5782   17.7897 H   0  0  0  0  0  0
  -27.6668  -14.2610   19.5210 H   0  0  0  0  0  0
  -28.7074  -12.0637   21.3681 H   0  0  0  0  0  0
  -28.3734  -13.7013   21.8312 H   0  0  0  0  0  0
  -25.2769   -9.5693   22.4744 H   0  0  0  0  0  0
  -24.0010   -7.4642   22.7470 H   0  0  0  0  0  0
  -21.0846   -8.8763   19.8946 H   0  0  0  0  0  0
  -22.3699  -10.9663   19.6148 H   0  0  0  0  0  0
  -21.2005   -7.6145   23.9718 H   0  0  0  0  0  0
  -21.1477   -6.0518   25.9078 H   0  0  0  0  0  0
  -22.0598   -2.7607   23.2845 H   0  0  0  0  0  0
  -22.4109  -11.9868   22.4788 H   0  0  0  0  0  0
  -21.1106  -13.1226   22.2634 H   0  0  0  0  0  0
  -24.6694  -15.8532   20.5370 H   0  0  0  0  0  0
  -26.2945  -15.6292   20.1282 H   0  0  0  0  0  0
  -26.7200  -32.5415   23.1098 H   0  0  0  0  0  0
  -25.0131  -33.9703   25.0455 H   0  0  0  0  0  0
  -22.7202  -31.2995   21.3948 H   0  0  0  0  0  0
  -23.3759  -35.9597   23.3282 H   0  0  0  0  0  0
  -24.3587  -36.8917   22.2061 H   0  0  0  0  0  0
  -23.7231  -37.6465   23.6678 H   0  0  0  0  0  0
  -26.1064  -31.5453   20.6092 H   0  0  0  0  0  0
  -26.8453  -30.8271   22.0092 H   0  0  0  0  0  0
  -28.1259  -28.9688   21.1897 H   0  0  0  0  0  0
  -26.0054  -25.9049   19.0202 H   0  0  0  0  0  0
  -23.9791  -27.2960   19.0120 H   0  0  0  0  0  0
  -23.7644  -30.5840   19.4004 H   0  0  0  0  0  0
  -22.7631  -29.2387   19.8555 H   0  0  0  0  0  0
  -25.1295  -36.1907   25.0824 H   0  0  0  0  0  0
  -20.9976  -28.3267   24.1389 H   0  0  0  0  0  0
  -20.5664  -26.2307   23.3610 H   0  0  0  0  0  0
  -21.6642  -26.7436   22.1197 H   0  0  0  0  0  0
  -19.6907  -25.6290   21.1243 H   0  0  0  0  0  0
  -19.6689  -27.3188   20.6732 H   0  0  0  0  0  0
  -17.4201  -26.6687   21.4013 H   0  0  0  0  0  0
  -18.0320  -26.0074   22.9005 H   0  0  0  0  0  0
  -19.7941  -30.7283   24.2246 H   0  0  0  0  0  0
  -17.5017  -31.6271   24.5162 H   0  0  0  0  0  0
  -15.5352  -30.2980   23.7680 H   0  0  0  0  0  0
  -15.8669  -28.0818   22.7083 H   0  0  0  0  0  0
  -24.5947  -30.7032   25.7796 H   0  0  0  0  0  0
  -24.8939  -32.2852   26.4904 H   0  0  0  0  0  0
  -25.8104  -30.8877   27.0226 H   0  0  0  0  0  0
  -26.2955  -29.6722   24.1258 H   0  0  0  0  0  0
  -27.4100  -29.7288   25.4719 H   0  0  0  0  0  0
  -27.8812  -30.4282   23.9418 H   0  0  0  0  0  0
  -27.2678  -33.3638   26.2051 H   0  0  0  0  0  0
  -28.3893  -32.6870   25.0333 H   0  0  0  0  0  0
  -28.0726  -31.8470   26.5436 H   0  0  0  0  0  0
  -28.2577  -38.0108   24.7541 H   0  0  0  0  0  0
  -28.1101  -36.2640   24.6251 H   0  0  0  0  0  0
  -27.2303  -37.1381   25.8867 H   0  0  0  0  0  0
  -20.9395  -29.8762   21.6861 H   0  0  0  0  0  0
  -26.0157  -38.2834   24.1440 H   0  0  0  0  0  0
  -28.8805  -20.1118   22.4391 H   0  0  0  0  0  0
  -29.9571  -19.3771   18.3450 H   0  0  0  0  0  0
  -29.2319  -17.7891   22.9455 H   0  0  0  0  0  0
  -30.3265  -17.0219   18.8432 H   0  0  0  0  0  0
  -28.5206  -22.3440   21.8744 H   0  0  0  0  0  0
  -28.7514  -25.3495   17.9425 H   0  0  0  0  0  0
  -29.3295  -24.0069   16.8192 H   0  0  0  0  0  0
  -30.4155  -21.8469   18.3772 H   0  0  0  0  0  0
  -28.7269  -21.4623   17.9744 H   0  0  0  0  0  0
  -30.7189  -16.0536   23.3150 H   0  0  0  0  0  0
  -30.3404  -14.3751   23.0350 H   0  0  0  0  0  0
  -29.0327  -15.5343   23.1807 H   0  0  0  0  0  0
  -28.5558  -25.1793   21.7908 H   0  0  0  0  0  0
  -27.0350  -24.9475   21.0143 H   0  0  0  0  0  0
  1 25  1  0  0  0
  1 30  2  0  0  0
  1 85  1  0  0  0
  2  3  1  0  0  0
  2 25  1  0  0  0
  2 86  1  0  0  0
  2 87  1  0  0  0
  3  4  1  0  0  0
  3 88  1  0  0  0
  3 89  1  0  0  0
  4  5  1  0  0  0
  4 90  1  0  0  0
  4 91  1  0  0  0
  5  6  1  0  0  0
  5 26  1  0  0  0
  5 92  1  0  0  0
  6 25  1  0  0  0
  6 93  1  0  0  0
  6 94  1  0  0  0
  7  8  2  0  0  0
  7 26  1  0  0  0
  7 29  1  0  0  0
  8  9  1  0  0  0
  8 22  1  0  0  0
  9 10  1  0  0  0
  9 27  2  0  0  0
 10 11  2  0  0  0
 10 15  1  0  0  0
 11 12  1  0  0  0
 11 95  1  0  0  0
 12 13  2  0  0  0
 12 96  1  0  0  0
 13 14  1  0  0  0
 13 31  1  0  0  0
 14 15  2  0  0  0
 14 97  1  0  0  0
 15 98  1  0  0  0
 16 17  2  0  0  0
 16 21  1  0  0  0
 16 31  1  0  0  0
 17 18  1  0  0  0
 17 99  1  0  0  0
 18 19  2  0  0  0
 18100  1  0  0  0
 19 20  1  0  0  0
 19 24  1  0  0  0
 20 21  2  0  0  0
 20101  1  0  0  0
 21 23  1  0  0  0
 22 28  1  0  0  0
 22 32  2  0  0  0
 26 27  1  0  0  0
 28102  1  0  0  0
 28103  1  0  0  0
 29104  1  0  0  0
 29105  1  0  0  0
 33 34  1  0  0  0
 33 66  1  0  0  0
 33 70  2  0  0  0
 34 36  1  0  0  0
 34 59  1  0  0  0
 34106  1  0  0  0
 35 44  2  0  0  0
 35 45  1  0  0  0
 35 68  1  0  0  0
 36 56  1  0  0  0
 36107  1  0  0  0
 37 39  1  0  0  0
 37 47  1  0  0  0
 37 66  1  0  0  0
 37108  1  0  0  0
 38 43  2  0  0  0
 38 46  1  0  0  0
 38 47  1  0  0  0
 39 64  1  0  0  0
 39 67  2  0  0  0
 40 52  1  0  0  0
 40 53  2  0  0  0
 40 58  1  0  0  0
 41109  1  0  0  0
 41110  1  0  0  0
 41111  1  0  0  0
 41 48  1  0  0  0
 42 43  1  0  0  0
 42 66  1  0  0  0
 42112  1  0  0  0
 42113  1  0  0  0
 43 44  1  0  0  0
 44114  1  0  0  0
 45 46  2  0  0  0
 45115  1  0  0  0
 46116  1  0  0  0
 47117  1  0  0  0
 47118  1  0  0  0
 48 56  1  0  0  0
 48 65  1  0  0  0
 48119  1  0  0  0
 49 50  1  0  0  0
 49 53  1  0  0  0
 49 64  1  0  0  0
 49120  1  0  0  0
 50 51  1  0  0  0
 50121  1  0  0  0
 50122  1  0  0  0
 51 52  1  0  0  0
 51123  1  0  0  0
 51124  1  0  0  0
 52125  1  0  0  0
 52126  1  0  0  0
 53 54  1  0  0  0
 54 55  2  0  0  0
 54127  1  0  0  0
 55 57  1  0  0  0
 55128  1  0  0  0
 56 69  2  0  0  0
 57 58  2  0  0  0
 57129  1  0  0  0
 58130  1  0  0  0
 59 60  1  0  0  0
 59 61  1  0  0  0
 59 62  1  0  0  0
 60131  1  0  0  0
 60132  1  0  0  0
 60133  1  0  0  0
 61134  1  0  0  0
 61135  1  0  0  0
 61136  1  0  0  0
 62137  1  0  0  0
 62138  1  0  0  0
 62139  1  0  0  0
 63 65  1  0  0  0
 63140  1  0  0  0
 63141  1  0  0  0
 63142  1  0  0  0
 64143  1  0  0  0
 65144  1  0  0  0
 68 83  1  0  0  0
 71 73  2  0  0  0
 71 75  1  0  0  0
 71145  1  0  0  0
 72 74  1  0  0  0
 72 75  2  0  0  0
 72146  1  0  0  0
 73 76  1  0  0  0
 73147  1  0  0  0
 74 76  2  0  0  0
 74148  1  0  0  0
 75 84  1  0  0  0
 76 85  1  0  0  0
 77 78  2  0  0  0
 77 84  1  0  0  0
 77149  1  0  0  0
 78 79  1  0  0  0
 78 83  1  0  0  0
 79 80  2  0  0  0
 79 81  1  0  0  0
 80150  1  0  0  0
 80151  1  0  0  0
 81 84  1  0  0  0
 81152  1  0  0  0
 81153  1  0  0  0
 82 85  1  0  0  0
 82154  1  0  0  0
 82155  1  0  0  0
 82156  1  0  0  0
 83157  1  0  0  0
 83158  1  0  0  0
M  ISO  4   1 100  68 101  83 101  85 100
M  END
> <chiral flag>
0

> <version>
0

> <s_m_source_file>
/data/baiqing/PycharmProjects/Reinvent-master-3.2/result/LINK_invent/BTK/process_docking_weight1_custom_product_contain_oxygen_bond_distance_aromatic_linkinvent_7_9_3/rearranged_h_0073.sdf

> <i_m_source_file_index>
57

> <r_mmod_Potential_Energy-OPLS-2005>
339.390838623047

> <r_mmod_Stretch_Energy-OPLS-2005>
101.665985107422

> <r_mmod_Bend_Energy-OPLS-2005>
245.508407592773

> <r_mmod_Torsional_Energy-OPLS-2005>
274.657348632812

> <r_mmod_Improper_Torsional_Energy-OPLS-2005>
2.56152105331421

> <r_mmod_Van_der_Waal_Energy-OPLS-2005>
147.001388549805

> <r_mmod_Electrostatic_Energy-OPLS-2005>
-298.402069091797

> <r_mmod_Solvation_Energy-OPLS-2005>
-192.057281494141

> <b_mmod_Minimization_Converged-OPLS-2005>
0

> <r_mmod_RMS_Derivative-OPLS-2005>
0.665816068649292

$$$$
57
                    3D
 Structure written by MMmdl.
151159  0  0  1  0            999 V2000
  -30.6278  -14.5931   20.5427 C   0  0  0  0  0  0
  -30.4460  -12.3762   19.4334 C   0  0  0  0  0  0
  -29.5074  -12.5122   18.2123 C   0  0  0  0  0  0
  -28.0290  -12.3551   18.6229 C   0  0  0  0  0  0
  -27.6588  -13.2060   19.8676 C   0  0  2  0  0  0
  -28.7035  -13.0166   20.9908 C   0  0  0  0  0  0
  -25.2583  -13.8157   20.5658 C   0  0  0  0  0  0
  -24.1827  -13.0447   20.9161 C   0  0  0  0  0  0
  -24.6370  -11.6910   20.8721 C   0  0  0  0  0  0
  -23.9037  -10.4304   21.0405 C   0  0  0  0  0  0
  -24.3591   -9.4225   21.9186 C   0  0  0  0  0  0
  -23.6263   -8.2265   22.0769 C   0  0  0  0  0  0
  -22.4251   -8.0293   21.3557 C   0  0  0  0  0  0
  -21.9866   -9.0257   20.4662 C   0  0  0  0  0  0
  -22.7202  -10.2136   20.3064 C   0  0  0  0  0  0
  -21.6855   -6.0723   22.5272 C   0  0  0  0  0  0
  -21.4022   -6.5629   23.8207 C   0  0  0  0  0  0
  -21.3657   -5.6778   24.9170 C   0  0  0  0  0  0
  -21.6044   -4.3038   24.7213 C   0  0  0  0  0  0
  -21.8826   -3.8134   23.4334 C   0  0  0  0  0  0
  -21.9201   -4.6950   22.3398 C   0  0  0  0  0  0
  -22.7865  -13.5277   21.1822 C   0  0  0  0  0  0
  -22.1671   -4.2136   21.0975 F   0  0  0  0  0  0
  -21.5635   -3.4526   25.7729 F   0  0  0  0  0  0
  -30.0253  -13.3693   20.4392 N   0  0  0  0  0  0
  -26.3005  -12.9308   20.3319 N   0  0  0  0  0  0
  -25.9298  -11.6480   20.5748 N   0  0  0  0  0  0
  -22.0483  -12.8300   22.0381 N   0  0  0  0  0  0
  -25.4289  -15.1875   20.4080 N   0  0  0  0  0  0
  -31.7671  -14.8047   20.1122 O   0  0  0  0  0  0
  -21.6641   -6.8871   21.4239 O   0  0  0  0  0  0
  -22.3567  -14.5586   20.6666 O   0  0  0  0  0  0
  -24.6214  -31.8660   23.2064 C   0  0  0  0  0  0
  -25.9103  -32.4793   23.8375 C   0  0  1  0  0  0
  -27.2252  -27.3493   20.1015 C   0  0  0  0  0  0
  -25.5947  -33.8597   24.2317 N   0  0  0  0  0  0
  -23.4122  -30.4877   21.5507 C   0  0  2  0  0  0
  -24.8577  -28.9491   20.1125 C   0  0  0  0  0  0
  -22.7446  -29.4644   22.4967 C   0  0  0  0  0  0
  -18.0295  -28.1376   22.8468 C   0  0  0  0  0  0
  -24.1489  -36.7297   23.2631 C   0  0  0  0  0  0
  -25.9526  -30.8014   21.3750 C   0  0  0  0  0  0
  -26.0244  -29.4299   20.7184 C   0  0  0  0  0  0
  -27.2063  -28.6368   20.7120 C   0  0  0  0  0  0
  -26.0405  -26.9277   19.4513 C   0  0  0  0  0  0
  -24.8662  -27.7015   19.4725 C   0  0  0  0  0  0
  -23.6239  -29.8259   20.1636 C   0  0  0  0  0  0
  -25.4105  -36.3091   24.0328 C   0  0  1  0  0  0
  -20.5883  -28.3666   23.1278 C   0  0  2  0  0  0
  -20.6775  -26.9388   22.5389 C   0  0  0  0  0  0
  -19.5752  -26.6371   21.5196 C   0  0  0  0  0  0
  -18.1926  -26.7937   22.1583 C   0  0  0  0  0  0
  -19.1538  -28.8834   23.2889 C   0  0  0  0  0  0
  -18.9464  -30.1436   23.8893 C   0  0  0  0  0  0
  -17.6464  -30.6565   24.0575 C   0  0  0  0  0  0
  -25.9050  -34.9462   23.5117 C   0  0  0  0  0  0
  -16.5356  -29.9075   23.6324 C   0  0  0  0  0  0
  -16.7284  -28.6504   23.0330 C   0  0  0  0  0  0
  -26.4502  -31.6585   25.0719 C   0  0  0  0  0  0
  -25.3755  -31.3730   26.1455 C   0  0  0  0  0  0
  -27.0344  -30.3018   24.6149 C   0  0  0  0  0  0
  -27.6065  -32.4303   25.7498 C   0  0  0  0  0  0
  -27.5576  -37.1796   24.8462 C   0  0  0  0  0  0
  -21.4172  -29.3036   22.3692 N   0  0  0  0  0  0
  -26.4294  -37.3768   23.9406 N   0  0  0  0  0  0
  -24.6811  -31.0670   22.1024 N   0  0  0  0  0  0
  -23.4196  -28.8184   23.3013 O   0  0  0  0  0  0
  -28.3644  -26.5394   20.1594 O   0  0  0  0  0  0
  -26.5592  -34.8924   22.4671 O   0  0  0  0  0  0
  -23.5385  -32.1452   23.7415 O   0  0  0  0  0  0
  -29.2175  -17.7565   19.9621 C   0  0  0  0  0  0
  -30.4023  -17.7610   22.0727 C   0  0  0  0  0  0
  -28.9721  -19.1573   20.0870 C   0  0  0  0  0  0
  -30.1558  -19.1577   22.1977 C   0  0  0  0  0  0
  -29.9029  -17.0234   20.9718 C   0  0  0  0  0  0
  -29.3969  -19.8718   21.2341 C   0  0  0  0  0  0
  -29.1230  -24.1564   20.6908 C   0  0  0  0  0  0
  -28.2807  -25.1146   19.7849 C   0  0  0  0  0  0
  -29.8268  -15.5793   21.0305 N   0  0  0  0  0  0
  -29.0532  -22.7540   20.4393 N   0  0  0  0  0  0
  -29.7870  -24.6138   21.6273 O   0  0  0  0  0  0
  -29.4392  -21.9788   22.8997 O   0  0  0  0  0  0
  -27.2681  -21.4216   21.7341 O   0  0  0  0  0  0
  -28.7358  -21.5496   21.6799 S   0  0  0  0  0  0
  -31.4852  -12.5143   19.1319 H   0  0  0  0  0  0
  -30.3918  -11.3705   19.8496 H   0  0  0  0  0  0
  -29.7579  -11.7698   17.4531 H   0  0  0  0  0  0
  -29.6504  -13.4863   17.7416 H   0  0  0  0  0  0
  -27.8537  -11.3002   18.8330 H   0  0  0  0  0  0
  -27.3827  -12.6065   17.7829 H   0  0  0  0  0  0
  -27.6911  -14.2504   19.5552 H   0  0  0  0  0  0
  -28.7109  -11.9814   21.3341 H   0  0  0  0  0  0
  -28.4408  -13.6065   21.8696 H   0  0  0  0  0  0
  -25.2741   -9.5700   22.4753 H   0  0  0  0  0  0
  -23.9967   -7.4660   22.7487 H   0  0  0  0  0  0
  -21.0799   -8.8779   19.8965 H   0  0  0  0  0  0
  -22.3655  -10.9674   19.6173 H   0  0  0  0  0  0
  -21.2026   -7.6125   23.9702 H   0  0  0  0  0  0
  -21.1461   -6.0507   25.9064 H   0  0  0  0  0  0
  -22.0600   -2.7588   23.2841 H   0  0  0  0  0  0
  -22.4073  -11.9957   22.4776 H   0  0  0  0  0  0
  -21.1115  -13.1373   22.2600 H   0  0  0  0  0  0
  -24.6578  -15.8379   20.5135 H   0  0  0  0  0  0
  -26.2766  -15.6302   20.0788 H   0  0  0  0  0  0
  -26.7161  -32.5471   23.1110 H   0  0  0  0  0  0
  -25.0145  -33.9746   25.0489 H   0  0  0  0  0  0
  -22.7002  -31.3046   21.4122 H   0  0  0  0  0  0
  -23.3750  -35.9632   23.3310 H   0  0  0  0  0  0
  -24.3574  -36.8903   22.2047 H   0  0  0  0  0  0
  -23.7256  -37.6505   23.6646 H   0  0  0  0  0  0
  -26.0785  -31.5625   20.6020 H   0  0  0  0  0  0
  -26.8361  -30.8520   22.0011 H   0  0  0  0  0  0
  -28.1019  -28.9996   21.1981 H   0  0  0  0  0  0
  -25.9791  -25.9963   18.9144 H   0  0  0  0  0  0
  -23.9755  -27.3319   18.9819 H   0  0  0  0  0  0
  -23.7397  -30.6076   19.4107 H   0  0  0  0  0  0
  -22.7439  -29.2554   19.8627 H   0  0  0  0  0  0
  -25.1276  -36.1952   25.0814 H   0  0  0  0  0  0
  -20.9993  -28.3227   24.1389 H   0  0  0  0  0  0
  -20.5698  -26.2263   23.3576 H   0  0  0  0  0  0
  -21.6629  -26.7428   22.1148 H   0  0  0  0  0  0
  -19.6925  -25.6293   21.1228 H   0  0  0  0  0  0
  -19.6702  -27.3188   20.6735 H   0  0  0  0  0  0
  -17.4224  -26.6733   21.3947 H   0  0  0  0  0  0
  -18.0253  -26.0059   22.8955 H   0  0  0  0  0  0
  -19.7937  -30.7246   24.2268 H   0  0  0  0  0  0
  -17.5016  -31.6244   24.5184 H   0  0  0  0  0  0
  -15.5346  -30.2971   23.7635 H   0  0  0  0  0  0
  -15.8706  -28.0835   22.7013 H   0  0  0  0  0  0
  -24.5924  -30.7068   25.7806 H   0  0  0  0  0  0
  -24.8940  -32.2909   26.4857 H   0  0  0  0  0  0
  -25.8082  -30.8940   27.0256 H   0  0  0  0  0  0
  -26.2926  -29.6758   24.1178 H   0  0  0  0  0  0
  -27.4077  -29.7247   25.4624 H   0  0  0  0  0  0
  -27.8773  -30.4295   23.9349 H   0  0  0  0  0  0
  -27.2680  -33.3600   26.2085 H   0  0  0  0  0  0
  -28.3888  -32.6877   25.0346 H   0  0  0  0  0  0
  -28.0736  -31.8436   26.5420 H   0  0  0  0  0  0
  -28.2582  -38.0102   24.7478 H   0  0  0  0  0  0
  -28.1077  -36.2623   24.6314 H   0  0  0  0  0  0
  -27.2280  -37.1464   25.8862 H   0  0  0  0  0  0
  -20.9351  -29.8803   21.6942 H   0  0  0  0  0  0
  -26.0188  -38.2842   24.1416 H   0  0  0  0  0  0
  -28.7939  -17.2318   19.1170 H   0  0  0  0  0  0
  -30.8960  -17.2452   22.8849 H   0  0  0  0  0  0
  -28.3702  -19.6649   19.3501 H   0  0  0  0  0  0
  -30.4640  -19.6614   23.1040 H   0  0  0  0  0  0
  -27.2725  -24.7124   19.8549 H   0  0  0  0  0  0
  -28.6057  -25.0071   18.7494 H   0  0  0  0  0  0
  -28.9385  -15.2182   21.3435 H   0  0  0  0  0  0
  -28.5716  -22.4632   19.5885 H   0  0  0  0  0  0
  1 25  1  0  0  0
  1 30  2  0  0  0
  1 79  1  0  0  0
  2  3  1  0  0  0
  2 25  1  0  0  0
  2 85  1  0  0  0
  2 86  1  0  0  0
  3  4  1  0  0  0
  3 87  1  0  0  0
  3 88  1  0  0  0
  4  5  1  0  0  0
  4 89  1  0  0  0
  4 90  1  0  0  0
  5  6  1  0  0  0
  5 26  1  0  0  0
  5 91  1  0  0  0
  6 25  1  0  0  0
  6 92  1  0  0  0
  6 93  1  0  0  0
  7  8  2  0  0  0
  7 26  1  0  0  0
  7 29  1  0  0  0
  8  9  1  0  0  0
  8 22  1  0  0  0
  9 10  1  0  0  0
  9 27  2  0  0  0
 10 11  2  0  0  0
 10 15  1  0  0  0
 11 12  1  0  0  0
 11 94  1  0  0  0
 12 13  2  0  0  0
 12 95  1  0  0  0
 13 14  1  0  0  0
 13 31  1  0  0  0
 14 15  2  0  0  0
 14 96  1  0  0  0
 15 97  1  0  0  0
 16 17  2  0  0  0
 16 21  1  0  0  0
 16 31  1  0  0  0
 17 18  1  0  0  0
 17 98  1  0  0  0
 18 19  2  0  0  0
 18 99  1  0  0  0
 19 20  1  0  0  0
 19 24  1  0  0  0
 20 21  2  0  0  0
 20100  1  0  0  0
 21 23  1  0  0  0
 22 28  1  0  0  0
 22 32  2  0  0  0
 26 27  1  0  0  0
 28101  1  0  0  0
 28102  1  0  0  0
 29103  1  0  0  0
 29104  1  0  0  0
 33 34  1  0  0  0
 33 66  1  0  0  0
 33 70  2  0  0  0
 34 36  1  0  0  0
 34 59  1  0  0  0
 34105  1  0  0  0
 35 44  2  0  0  0
 35 45  1  0  0  0
 35 68  1  0  0  0
 36 56  1  0  0  0
 36106  1  0  0  0
 37 39  1  0  0  0
 37 47  1  0  0  0
 37 66  1  0  0  0
 37107  1  0  0  0
 38 43  2  0  0  0
 38 46  1  0  0  0
 38 47  1  0  0  0
 39 64  1  0  0  0
 39 67  2  0  0  0
 40 52  1  0  0  0
 40 53  2  0  0  0
 40 58  1  0  0  0
 41108  1  0  0  0
 41109  1  0  0  0
 41110  1  0  0  0
 41 48  1  0  0  0
 42 43  1  0  0  0
 42 66  1  0  0  0
 42111  1  0  0  0
 42112  1  0  0  0
 43 44  1  0  0  0
 44113  1  0  0  0
 45 46  2  0  0  0
 45114  1  0  0  0
 46115  1  0  0  0
 47116  1  0  0  0
 47117  1  0  0  0
 48 56  1  0  0  0
 48 65  1  0  0  0
 48118  1  0  0  0
 49 50  1  0  0  0
 49 53  1  0  0  0
 49 64  1  0  0  0
 49119  1  0  0  0
 50 51  1  0  0  0
 50120  1  0  0  0
 50121  1  0  0  0
 51 52  1  0  0  0
 51122  1  0  0  0
 51123  1  0  0  0
 52124  1  0  0  0
 52125  1  0  0  0
 53 54  1  0  0  0
 54 55  2  0  0  0
 54126  1  0  0  0
 55 57  1  0  0  0
 55127  1  0  0  0
 56 69  2  0  0  0
 57 58  2  0  0  0
 57128  1  0  0  0
 58129  1  0  0  0
 59 60  1  0  0  0
 59 61  1  0  0  0
 59 62  1  0  0  0
 60130  1  0  0  0
 60131  1  0  0  0
 60132  1  0  0  0
 61133  1  0  0  0
 61134  1  0  0  0
 61135  1  0  0  0
 62136  1  0  0  0
 62137  1  0  0  0
 62138  1  0  0  0
 63 65  1  0  0  0
 63139  1  0  0  0
 63140  1  0  0  0
 63141  1  0  0  0
 64142  1  0  0  0
 65143  1  0  0  0
 68 78  1  0  0  0
 71 73  2  0  0  0
 71 75  1  0  0  0
 71144  1  0  0  0
 72 74  1  0  0  0
 72 75  2  0  0  0
 72145  1  0  0  0
 73 76  1  0  0  0
 73146  1  0  0  0
 74 76  2  0  0  0
 74147  1  0  0  0
 75 79  1  0  0  0
 76 84  1  0  0  0
 77 78  1  0  0  0
 77 80  1  0  0  0
 77 81  2  0  0  0
 78148  1  0  0  0
 78149  1  0  0  0
 79150  1  0  0  0
 80151  1  0  0  0
 80 84  1  0  0  0
 82 84  2  0  0  0
 83 84  2  0  0  0
M  ISO  4   1 100  68 101  78 101  79 100
M  END
> <chiral flag>
0

> <version>
0

> <s_m_source_file>
/data/baiqing/PycharmProjects/Reinvent-master-3.2/result/LINK_invent/BTK/process_docking_weight1_custom_product_contain_oxygen_bond_distance_aromatic_linkinvent_7_9_3/rearranged_h_0073.sdf

> <i_m_source_file_index>
58

> <r_mmod_Potential_Energy-OPLS-2005>
-108.573295593262

> <r_mmod_Stretch_Energy-OPLS-2005>
62.5946311950684

> <r_mmod_Bend_Energy-OPLS-2005>
131.083267211914

> <r_mmod_Torsional_Energy-OPLS-2005>
284.260559082031

> <r_mmod_Improper_Torsional_Energy-OPLS-2005>
10.8862018585205

> <r_mmod_Van_der_Waal_Energy-OPLS-2005>
140.139663696289

> <r_mmod_Electrostatic_Energy-OPLS-2005>
-478.614807128906

> <r_mmod_Solvation_Energy-OPLS-2005>
-294.174987792969

> <b_mmod_Minimization_Converged-OPLS-2005>
0

> <r_mmod_RMS_Derivative-OPLS-2005>
3.87706613540649

$$$$
58
                    3D
 Structure written by MMmdl.
151160  0  0  1  0            999 V2000
  -30.5679  -14.7958   20.4643 C   0  0  0  0  0  0
  -30.4451  -12.4944   19.4734 C   0  0  0  0  0  0
  -29.5197  -12.5062   18.2346 C   0  0  0  0  0  0
  -28.0449  -12.3217   18.6445 C   0  0  0  0  0  0
  -27.6344  -13.2315   19.8351 C   0  0  2  0  0  0
  -28.6760  -13.1885   20.9728 C   0  0  0  0  0  0
  -25.2457  -13.8199   20.5632 C   0  0  0  0  0  0
  -24.1756  -13.0488   20.9237 C   0  0  0  0  0  0
  -24.6357  -11.6944   20.8748 C   0  0  0  0  0  0
  -23.9038  -10.4319   21.0417 C   0  0  0  0  0  0
  -24.3602   -9.4243   21.9198 C   0  0  0  0  0  0
  -23.6282   -8.2277   22.0794 C   0  0  0  0  0  0
  -22.4251   -8.0284   21.3583 C   0  0  0  0  0  0
  -21.9868   -9.0264   20.4692 C   0  0  0  0  0  0
  -22.7202  -10.2152   20.3078 C   0  0  0  0  0  0
  -21.6876   -6.0716   22.5259 C   0  0  0  0  0  0
  -21.4016   -6.5628   23.8187 C   0  0  0  0  0  0
  -21.3673   -5.6790   24.9152 C   0  0  0  0  0  0
  -21.6051   -4.3050   24.7202 C   0  0  0  0  0  0
  -21.8823   -3.8128   23.4323 C   0  0  0  0  0  0
  -21.9216   -4.6945   22.3373 C   0  0  0  0  0  0
  -22.7768  -13.5263   21.1871 C   0  0  0  0  0  0
  -22.1661   -4.2140   21.0953 F   0  0  0  0  0  0
  -21.5665   -3.4530   25.7736 F   0  0  0  0  0  0
  -29.9693  -13.5576   20.3847 N   0  0  0  0  0  0
  -26.2885  -12.9417   20.3132 N   0  0  0  0  0  0
  -25.9286  -11.6568   20.5666 N   0  0  0  0  0  0
  -22.0355  -12.8328   22.0432 N   0  0  0  0  0  0
  -25.4129  -15.1940   20.3950 N   0  0  0  0  0  0
  -31.7807  -14.9102   20.2489 O   0  0  0  0  0  0
  -21.6658   -6.8851   21.4219 O   0  0  0  0  0  0
  -22.3483  -14.5554   20.6699 O   0  0  0  0  0  0
  -24.6373  -31.8544   23.1943 C   0  0  0  0  0  0
  -25.9174  -32.4737   23.8325 C   0  0  1  0  0  0
  -27.2361  -27.2523   20.0975 C   0  0  0  0  0  0
  -25.5929  -33.8539   24.2244 N   0  0  0  0  0  0
  -23.4323  -30.4782   21.5405 C   0  0  2  0  0  0
  -24.8797  -28.9213   20.1125 C   0  0  0  0  0  0
  -22.7524  -29.4621   22.4903 C   0  0  0  0  0  0
  -18.0297  -28.1379   22.8489 C   0  0  0  0  0  0
  -24.1510  -36.7298   23.2636 C   0  0  0  0  0  0
  -25.9833  -30.7610   21.3785 C   0  0  0  0  0  0
  -26.0580  -29.3827   20.7144 C   0  0  0  0  0  0
  -27.2358  -28.5642   20.6933 C   0  0  0  0  0  0
  -26.0228  -26.8568   19.4885 C   0  0  0  0  0  0
  -24.8680  -27.6654   19.4949 C   0  0  0  0  0  0
  -23.6523  -29.8095   20.1597 C   0  0  0  0  0  0
  -25.4128  -36.3074   24.0330 C   0  0  1  0  0  0
  -20.5897  -28.3730   23.1242 C   0  0  2  0  0  0
  -20.6776  -26.9438   22.5388 C   0  0  0  0  0  0
  -19.5755  -26.6383   21.5196 C   0  0  0  0  0  0
  -18.1942  -26.7924   22.1625 C   0  0  0  0  0  0
  -19.1546  -28.8866   23.2871 C   0  0  0  0  0  0
  -18.9464  -30.1460   23.8892 C   0  0  0  0  0  0
  -17.6471  -30.6601   24.0556 C   0  0  0  0  0  0
  -25.9060  -34.9440   23.5109 C   0  0  0  0  0  0
  -16.5362  -29.9097   23.6318 C   0  0  0  0  0  0
  -16.7281  -28.6498   23.0359 C   0  0  0  0  0  0
  -26.4482  -31.6546   25.0724 C   0  0  0  0  0  0
  -25.3689  -31.3737   26.1438 C   0  0  0  0  0  0
  -27.0250  -30.2919   24.6254 C   0  0  0  0  0  0
  -27.6097  -32.4221   25.7469 C   0  0  0  0  0  0
  -27.5572  -37.1832   24.8478 C   0  0  0  0  0  0
  -21.4226  -29.3069   22.3641 N   0  0  0  0  0  0
  -26.4314  -37.3737   23.9369 N   0  0  0  0  0  0
  -24.7048  -31.0491   22.0943 N   0  0  0  0  0  0
  -23.4221  -28.8200   23.3016 O   0  0  0  0  0  0
  -28.3465  -26.3591   20.1072 O   0  0  0  0  0  0
  -26.5653  -34.8909   22.4685 O   0  0  0  0  0  0
  -23.5513  -32.1351   23.7241 O   0  0  0  0  0  0
  -29.6898  -18.5097   19.8940 C   0  0  0  0  0  0
  -29.9655  -17.7615   22.1092 C   0  0  0  0  0  0
  -29.8821  -17.3477   20.7966 C   0  0  0  0  0  0
  -29.6304  -19.7870   20.5116 C   0  0  0  0  0  0
  -29.7190  -23.0994   18.7156 C   0  0  0  0  0  0
  -29.8989  -21.5462   18.8012 C   0  0  0  0  0  0
  -28.8538  -22.2808   20.7318 C   0  0  0  0  0  0
  -29.2195  -23.6808   20.0442 C   0  0  2  0  0  0
  -28.1052  -24.8704   19.9380 C   0  0  0  0  0  0
  -29.4713  -21.1029   20.0068 N   0  0  0  0  0  0
  -29.7249  -15.9061   20.4536 N   0  0  0  0  0  0
  -29.9776  -23.7838   17.7147 O   0  0  0  0  0  0
  -30.3753  -20.8559   17.8913 O   0  0  0  0  0  0
  -29.8352  -19.5144   22.2458 S   0  0  0  0  0  0
  -31.4840  -12.6523   19.1673 H   0  0  0  0  0  0
  -30.4115  -11.5249   19.9713 H   0  0  0  0  0  0
  -29.8186  -11.7283   17.5340 H   0  0  0  0  0  0
  -29.6318  -13.4539   17.7008 H   0  0  0  0  0  0
  -27.8994  -11.2752   18.9151 H   0  0  0  0  0  0
  -27.3941  -12.5021   17.7870 H   0  0  0  0  0  0
  -27.6182  -14.2460   19.4381 H   0  0  0  0  0  0
  -28.7275  -12.1933   21.4202 H   0  0  0  0  0  0
  -28.3969  -13.8732   21.7745 H   0  0  0  0  0  0
  -25.2779   -9.5735   22.4761 H   0  0  0  0  0  0
  -24.0022   -7.4673   22.7512 H   0  0  0  0  0  0
  -21.0821   -8.8733   19.9021 H   0  0  0  0  0  0
  -22.3622  -10.9651   19.6161 H   0  0  0  0  0  0
  -21.1964   -7.6118   23.9658 H   0  0  0  0  0  0
  -21.1513   -6.0520   25.9059 H   0  0  0  0  0  0
  -22.0606   -2.7596   23.2786 H   0  0  0  0  0  0
  -22.3896  -12.0016   22.4914 H   0  0  0  0  0  0
  -21.0961  -13.1404   22.2536 H   0  0  0  0  0  0
  -24.6333  -15.8395   20.4711 H   0  0  0  0  0  0
  -26.2244  -15.6103   19.9558 H   0  0  0  0  0  0
  -26.7276  -32.5372   23.1098 H   0  0  0  0  0  0
  -24.9981  -33.9638   25.0345 H   0  0  0  0  0  0
  -22.7299  -31.3032   21.3935 H   0  0  0  0  0  0
  -23.3697  -35.9710   23.3415 H   0  0  0  0  0  0
  -24.3574  -36.8779   22.2027 H   0  0  0  0  0  0
  -23.7380  -37.6591   23.6575 H   0  0  0  0  0  0
  -26.1236  -31.5240   20.6121 H   0  0  0  0  0  0
  -26.8605  -30.8089   22.0123 H   0  0  0  0  0  0
  -28.1383  -28.9199   21.1706 H   0  0  0  0  0  0
  -25.9242  -25.9009   19.0002 H   0  0  0  0  0  0
  -23.9672  -27.2979   19.0215 H   0  0  0  0  0  0
  -23.7770  -30.5843   19.4022 H   0  0  0  0  0  0
  -22.7686  -29.2458   19.8557 H   0  0  0  0  0  0
  -25.1318  -36.1931   25.0826 H   0  0  0  0  0  0
  -20.9986  -28.3316   24.1379 H   0  0  0  0  0  0
  -20.5669  -26.2352   23.3621 H   0  0  0  0  0  0
  -21.6672  -26.7463   22.1208 H   0  0  0  0  0  0
  -19.6925  -25.6285   21.1279 H   0  0  0  0  0  0
  -19.6679  -27.3162   20.6714 H   0  0  0  0  0  0
  -17.4206  -26.6653   21.4035 H   0  0  0  0  0  0
  -18.0365  -26.0077   22.9037 H   0  0  0  0  0  0
  -19.7931  -30.7263   24.2285 H   0  0  0  0  0  0
  -17.5016  -31.6284   24.5137 H   0  0  0  0  0  0
  -15.5345  -30.2996   23.7605 H   0  0  0  0  0  0
  -15.8686  -28.0799   22.7081 H   0  0  0  0  0  0
  -24.5856  -30.7089   25.7759 H   0  0  0  0  0  0
  -24.8873  -32.2916   26.4829 H   0  0  0  0  0  0
  -25.7966  -30.8915   27.0245 H   0  0  0  0  0  0
  -26.2792  -29.6703   24.1266 H   0  0  0  0  0  0
  -27.3822  -29.7152   25.4803 H   0  0  0  0  0  0
  -27.8769  -30.4072   23.9542 H   0  0  0  0  0  0
  -27.2794  -33.3542   26.2059 H   0  0  0  0  0  0
  -28.3897  -32.6710   25.0265 H   0  0  0  0  0  0
  -28.0787  -31.8311   26.5347 H   0  0  0  0  0  0
  -28.2691  -38.0025   24.7349 H   0  0  0  0  0  0
  -28.0963  -36.2543   24.6514 H   0  0  0  0  0  0
  -27.2277  -37.1774   25.8884 H   0  0  0  0  0  0
  -20.9415  -29.8791   21.6831 H   0  0  0  0  0  0
  -26.0211  -38.2850   24.1176 H   0  0  0  0  0  0
  -29.5694  -18.3687   18.8214 H   0  0  0  0  0  0
  -30.0289  -17.1789   23.0256 H   0  0  0  0  0  0
  -27.7723  -22.1397   20.7094 H   0  0  0  0  0  0
  -29.1477  -22.2965   21.7817 H   0  0  0  0  0  0
  -30.0957  -24.0840   20.5543 H   0  0  0  0  0  0
  -27.3186  -24.6126   20.6497 H   0  0  0  0  0  0
  -27.6571  -24.7406   18.9541 H   0  0  0  0  0  0
  -28.7641  -15.6496   20.2714 H   0  0  0  0  0  0
  1 25  1  0  0  0
  1 30  2  0  0  0
  1 81  1  0  0  0
  2  3  1  0  0  0
  2 25  1  0  0  0
  2 85  1  0  0  0
  2 86  1  0  0  0
  3  4  1  0  0  0
  3 87  1  0  0  0
  3 88  1  0  0  0
  4  5  1  0  0  0
  4 89  1  0  0  0
  4 90  1  0  0  0
  5  6  1  0  0  0
  5 26  1  0  0  0
  5 91  1  0  0  0
  6 25  1  0  0  0
  6 92  1  0  0  0
  6 93  1  0  0  0
  7  8  2  0  0  0
  7 26  1  0  0  0
  7 29  1  0  0  0
  8  9  1  0  0  0
  8 22  1  0  0  0
  9 10  1  0  0  0
  9 27  2  0  0  0
 10 11  2  0  0  0
 10 15  1  0  0  0
 11 12  1  0  0  0
 11 94  1  0  0  0
 12 13  2  0  0  0
 12 95  1  0  0  0
 13 14  1  0  0  0
 13 31  1  0  0  0
 14 15  2  0  0  0
 14 96  1  0  0  0
 15 97  1  0  0  0
 16 17  2  0  0  0
 16 21  1  0  0  0
 16 31  1  0  0  0
 17 18  1  0  0  0
 17 98  1  0  0  0
 18 19  2  0  0  0
 18 99  1  0  0  0
 19 20  1  0  0  0
 19 24  1  0  0  0
 20 21  2  0  0  0
 20100  1  0  0  0
 21 23  1  0  0  0
 22 28  1  0  0  0
 22 32  2  0  0  0
 26 27  1  0  0  0
 28101  1  0  0  0
 28102  1  0  0  0
 29103  1  0  0  0
 29104  1  0  0  0
 33 34  1  0  0  0
 33 66  1  0  0  0
 33 70  2  0  0  0
 34 36  1  0  0  0
 34 59  1  0  0  0
 34105  1  0  0  0
 35 44  2  0  0  0
 35 45  1  0  0  0
 35 68  1  0  0  0
 36 56  1  0  0  0
 36106  1  0  0  0
 37 39  1  0  0  0
 37 47  1  0  0  0
 37 66  1  0  0  0
 37107  1  0  0  0
 38 43  2  0  0  0
 38 46  1  0  0  0
 38 47  1  0  0  0
 39 64  1  0  0  0
 39 67  2  0  0  0
 40 52  1  0  0  0
 40 53  2  0  0  0
 40 58  1  0  0  0
 41108  1  0  0  0
 41109  1  0  0  0
 41110  1  0  0  0
 41 48  1  0  0  0
 42 43  1  0  0  0
 42 66  1  0  0  0
 42111  1  0  0  0
 42112  1  0  0  0
 43 44  1  0  0  0
 44113  1  0  0  0
 45 46  2  0  0  0
 45114  1  0  0  0
 46115  1  0  0  0
 47116  1  0  0  0
 47117  1  0  0  0
 48 56  1  0  0  0
 48 65  1  0  0  0
 48118  1  0  0  0
 49 50  1  0  0  0
 49 53  1  0  0  0
 49 64  1  0  0  0
 49119  1  0  0  0
 50 51  1  0  0  0
 50120  1  0  0  0
 50121  1  0  0  0
 51 52  1  0  0  0
 51122  1  0  0  0
 51123  1  0  0  0
 52124  1  0  0  0
 52125  1  0  0  0
 53 54  1  0  0  0
 54 55  2  0  0  0
 54126  1  0  0  0
 55 57  1  0  0  0
 55127  1  0  0  0
 56 69  2  0  0  0
 57 58  2  0  0  0
 57128  1  0  0  0
 58129  1  0  0  0
 59 60  1  0  0  0
 59 61  1  0  0  0
 59 62  1  0  0  0
 60130  1  0  0  0
 60131  1  0  0  0
 60132  1  0  0  0
 61133  1  0  0  0
 61134  1  0  0  0
 61135  1  0  0  0
 62136  1  0  0  0
 62137  1  0  0  0
 62138  1  0  0  0
 63 65  1  0  0  0
 63139  1  0  0  0
 63140  1  0  0  0
 63141  1  0  0  0
 64142  1  0  0  0
 65143  1  0  0  0
 68 79  1  0  0  0
 71 73  1  0  0  0
 71 74  2  0  0  0
 71144  1  0  0  0
 72 73  2  0  0  0
 72 84  1  0  0  0
 72145  1  0  0  0
 73 81  1  0  0  0
 74 80  1  0  0  0
 74 84  1  0  0  0
 75 76  1  0  0  0
 75 78  1  0  0  0
 75 82  2  0  0  0
 76 80  1  0  0  0
 76 83  2  0  0  0
 77 78  1  0  0  0
 77 80  1  0  0  0
 77146  1  0  0  0
 77147  1  0  0  0
 78 79  1  0  0  0
 78148  1  0  0  0
 79149  1  0  0  0
 79150  1  0  0  0
 81151  1  0  0  0
M  ISO  4   1 100  68 101  79 101  81 100
M  END
> <chiral flag>
0

> <version>
0

> <s_m_source_file>
/data/baiqing/PycharmProjects/Reinvent-master-3.2/result/LINK_invent/BTK/process_docking_weight1_custom_product_contain_oxygen_bond_distance_aromatic_linkinvent_7_9_3/rearranged_h_0073.sdf

> <i_m_source_file_index>
59

> <r_mmod_Potential_Energy-OPLS-2005>
303.956909179688

> <r_mmod_Stretch_Energy-OPLS-2005>
131.235168457031

> <r_mmod_Bend_Energy-OPLS-2005>
201.628524780273

> <r_mmod_Torsional_Energy-OPLS-2005>
275.372497558594

> <r_mmod_Improper_Torsional_Energy-OPLS-2005>
11.200982093811

> <r_mmod_Van_der_Waal_Energy-OPLS-2005>
114.60863494873

> <r_mmod_Electrostatic_Energy-OPLS-2005>
-277.872497558594

> <r_mmod_Solvation_Energy-OPLS-2005>
-255.899475097656

> <b_mmod_Minimization_Converged-OPLS-2005>
0

> <r_mmod_RMS_Derivative-OPLS-2005>
7.35442924499512

$$$$
59
                    3D
 Structure written by MMmdl.
156165  0  0  1  0            999 V2000
  -30.7629  -14.4759   20.5633 C   0  0  0  0  0  0
  -30.3971  -12.3120   19.4320 C   0  0  0  0  0  0
  -29.4843  -12.4952   18.2066 C   0  0  0  0  0  0
  -28.0086  -12.3599   18.6225 C   0  0  0  0  0  0
  -27.6518  -13.2208   19.8649 C   0  0  2  0  0  0
  -28.6973  -13.0668   20.9929 C   0  0  0  0  0  0
  -25.2548  -13.8199   20.5696 C   0  0  0  0  0  0
  -24.1819  -13.0451   20.9192 C   0  0  0  0  0  0
  -24.6391  -11.6924   20.8746 C   0  0  0  0  0  0
  -23.9063  -10.4300   21.0405 C   0  0  0  0  0  0
  -24.3614   -9.4215   21.9183 C   0  0  0  0  0  0
  -23.6291   -8.2250   22.0753 C   0  0  0  0  0  0
  -22.4274   -8.0284   21.3542 C   0  0  0  0  0  0
  -21.9908   -9.0258   20.4646 C   0  0  0  0  0  0
  -22.7233  -10.2141   20.3056 C   0  0  0  0  0  0
  -21.6854   -6.0736   22.5274 C   0  0  0  0  0  0
  -21.4012   -6.5638   23.8207 C   0  0  0  0  0  0
  -21.3655   -5.6790   24.9168 C   0  0  0  0  0  0
  -21.6044   -4.3053   24.7219 C   0  0  0  0  0  0
  -21.8822   -3.8145   23.4341 C   0  0  0  0  0  0
  -21.9194   -4.6964   22.3397 C   0  0  0  0  0  0
  -22.7841  -13.5240   21.1849 C   0  0  0  0  0  0
  -22.1665   -4.2148   21.0975 F   0  0  0  0  0  0
  -21.5629   -3.4538   25.7734 F   0  0  0  0  0  0
  -30.0199  -13.3422   20.4171 N   0  0  0  0  0  0
  -26.2982  -12.9393   20.3351 N   0  0  0  0  0  0
  -25.9322  -11.6540   20.5777 N   0  0  0  0  0  0
  -22.0487  -12.8223   22.0405 N   0  0  0  0  0  0
  -25.4271  -15.1916   20.4104 N   0  0  0  0  0  0
  -31.9061  -14.5339   20.1018 O   0  0  0  0  0  0
  -21.6639   -6.8879   21.4237 O   0  0  0  0  0  0
  -22.3524  -14.5546   20.6698 O   0  0  0  0  0  0
  -24.6149  -31.8679   23.2086 C   0  0  0  0  0  0
  -25.9040  -32.4820   23.8392 C   0  0  1  0  0  0
  -27.2280  -27.4127   20.0957 C   0  0  0  0  0  0
  -25.5900  -33.8620   24.2323 N   0  0  0  0  0  0
  -23.4030  -30.4923   21.5482 C   0  0  2  0  0  0
  -24.8477  -28.9550   20.1122 C   0  0  0  0  0  0
  -22.7413  -29.4663   22.4964 C   0  0  0  0  0  0
  -18.0281  -28.1382   22.8493 C   0  0  0  0  0  0
  -24.1493  -36.7328   23.2640 C   0  0  0  0  0  0
  -25.9335  -30.8258   21.3648 C   0  0  0  0  0  0
  -26.0072  -29.4576   20.7135 C   0  0  0  0  0  0
  -27.1961  -28.6913   20.7054 C   0  0  0  0  0  0
  -26.0487  -26.9320   19.4814 C   0  0  0  0  0  0
  -24.8645  -27.6930   19.4944 C   0  0  0  0  0  0
  -23.6122  -29.8263   20.1619 C   0  0  0  0  0  0
  -25.4113  -36.3113   24.0336 C   0  0  1  0  0  0
  -20.5870  -28.3674   23.1313 C   0  0  2  0  0  0
  -20.6771  -26.9411   22.5417 C   0  0  0  0  0  0
  -19.5749  -26.6388   21.5214 C   0  0  0  0  0  0
  -18.1925  -26.7933   22.1619 C   0  0  0  0  0  0
  -19.1529  -28.8844   23.2904 C   0  0  0  0  0  0
  -18.9456  -30.1446   23.8921 C   0  0  0  0  0  0
  -17.6458  -30.6588   24.0567 C   0  0  0  0  0  0
  -25.9035  -34.9474   23.5126 C   0  0  0  0  0  0
  -16.5351  -29.9092   23.6318 C   0  0  0  0  0  0
  -16.7270  -28.6505   23.0348 C   0  0  0  0  0  0
  -26.4464  -31.6601   25.0724 C   0  0  0  0  0  0
  -25.3724  -31.3705   26.1467 C   0  0  0  0  0  0
  -27.0294  -30.3043   24.6101 C   0  0  0  0  0  0
  -27.6044  -32.4318   25.7490 C   0  0  0  0  0  0
  -27.5587  -37.1818   24.8459 C   0  0  0  0  0  0
  -21.4140  -29.3041   22.3712 N   0  0  0  0  0  0
  -26.4302  -37.3792   23.9399 N   0  0  0  0  0  0
  -24.6689  -31.0768   22.0991 N   0  0  0  0  0  0
  -23.4190  -28.8205   23.3004 O   0  0  0  0  0  0
  -28.4088  -26.6923   20.1363 O   0  0  0  0  0  0
  -26.5591  -34.8919   22.4686 O   0  0  0  0  0  0
  -23.5337  -32.1447   23.7464 O   0  0  0  0  0  0
  -30.5209  -19.0517   22.3287 C   0  0  0  0  0  0
  -29.0719  -18.3972   20.4937 C   0  0  0  0  0  0
  -30.0518  -20.3783   22.2411 C   0  0  0  0  0  0
  -28.5866  -19.7314   20.4095 C   0  0  0  0  0  0
  -30.0636  -18.0445   21.4442 C   0  0  0  0  0  0
  -29.0946  -20.7356   21.2710 C   0  0  0  0  0  0
  -28.6954  -23.0002   22.2027 C   0  0  0  0  0  0
  -30.7984  -16.7160   21.4173 C   0  0  0  0  0  0
  -28.1800  -22.7755   19.9569 C   0  0  0  0  0  0
  -27.8410  -24.2218   20.4230 C   0  0  2  0  0  0
  -28.5002  -25.3599   19.5872 C   0  0  0  0  0  0
  -28.7131  -22.1407   21.1759 N   0  0  0  0  0  0
  -28.2741  -24.2156   21.8255 N   0  3  0  0  0  0
  -30.1493  -15.5794   21.0614 N   0  0  0  0  0  0
  -31.9887  -16.7344   21.7592 O   0  0  0  0  0  0
  -31.4448  -12.3621   19.1301 H   0  0  0  0  0  0
  -30.2647  -11.3176   19.8618 H   0  0  0  0  0  0
  -29.7259  -11.7572   17.4406 H   0  0  0  0  0  0
  -29.6555  -13.4738   17.7554 H   0  0  0  0  0  0
  -27.8224  -11.3067   18.8356 H   0  0  0  0  0  0
  -27.3568  -12.6183   17.7874 H   0  0  0  0  0  0
  -27.6781  -14.2597   19.5362 H   0  0  0  0  0  0
  -28.6765  -12.0558   21.4024 H   0  0  0  0  0  0
  -28.4678  -13.7318   21.8267 H   0  0  0  0  0  0
  -25.2761   -9.5690   22.4753 H   0  0  0  0  0  0
  -24.0000   -7.4643   22.7475 H   0  0  0  0  0  0
  -21.0838   -8.8776   19.8953 H   0  0  0  0  0  0
  -22.3689  -10.9678   19.6164 H   0  0  0  0  0  0
  -21.2007   -7.6147   23.9706 H   0  0  0  0  0  0
  -21.1472   -6.0521   25.9069 H   0  0  0  0  0  0
  -22.0606   -2.7607   23.2840 H   0  0  0  0  0  0
  -22.4107  -11.9877   22.4776 H   0  0  0  0  0  0
  -21.1107  -13.1243   22.2625 H   0  0  0  0  0  0
  -24.6610  -15.8478   20.5173 H   0  0  0  0  0  0
  -26.2774  -15.6275   20.0772 H   0  0  0  0  0  0
  -26.7110  -32.5511   23.1154 H   0  0  0  0  0  0
  -25.0063  -33.9796   25.0475 H   0  0  0  0  0  0
  -22.6914  -31.3089   21.4090 H   0  0  0  0  0  0
  -23.3747  -35.9667   23.3295 H   0  0  0  0  0  0
  -24.3596  -36.8958   22.2058 H   0  0  0  0  0  0
  -23.7252  -37.6533   23.6663 H   0  0  0  0  0  0
  -26.0456  -31.5901   20.5944 H   0  0  0  0  0  0
  -26.8227  -30.8813   21.9812 H   0  0  0  0  0  0
  -28.0913  -29.0741   21.1757 H   0  0  0  0  0  0
  -26.0151  -25.9743   18.9854 H   0  0  0  0  0  0
  -23.9731  -27.3042   19.0215 H   0  0  0  0  0  0
  -23.7242  -30.6033   19.4046 H   0  0  0  0  0  0
  -22.7348  -29.2502   19.8626 H   0  0  0  0  0  0
  -25.1289  -36.1989   25.0830 H   0  0  0  0  0  0
  -20.9969  -28.3255   24.1432 H   0  0  0  0  0  0
  -20.5682  -26.2286   23.3603 H   0  0  0  0  0  0
  -21.6641  -26.7464   22.1204 H   0  0  0  0  0  0
  -19.6908  -25.6300   21.1245 H   0  0  0  0  0  0
  -19.6693  -27.3198   20.6744 H   0  0  0  0  0  0
  -17.4201  -26.6701   21.4012 H   0  0  0  0  0  0
  -18.0309  -26.0070   22.9006 H   0  0  0  0  0  0
  -19.7933  -30.7251   24.2310 H   0  0  0  0  0  0
  -17.5014  -31.6269   24.5169 H   0  0  0  0  0  0
  -15.5351  -30.3003   23.7620 H   0  0  0  0  0  0
  -15.8671  -28.0828   22.7058 H   0  0  0  0  0  0
  -24.5924  -30.7021   25.7805 H   0  0  0  0  0  0
  -24.8874  -32.2850   26.4888 H   0  0  0  0  0  0
  -25.8078  -30.8908   27.0242 H   0  0  0  0  0  0
  -26.2839  -29.6805   24.1155 H   0  0  0  0  0  0
  -27.4068  -29.7278   25.4557 H   0  0  0  0  0  0
  -27.8669  -30.4366   23.9247 H   0  0  0  0  0  0
  -27.2681  -33.3618   26.2085 H   0  0  0  0  0  0
  -28.3846  -32.6882   25.0312 H   0  0  0  0  0  0
  -28.0714  -31.8428   26.5392 H   0  0  0  0  0  0
  -28.2597  -38.0121   24.7508 H   0  0  0  0  0  0
  -28.1095  -36.2652   24.6287 H   0  0  0  0  0  0
  -27.2302  -37.1466   25.8861 H   0  0  0  0  0  0
  -20.9291  -29.8775   21.6951 H   0  0  0  0  0  0
  -26.0197  -38.2877   24.1382 H   0  0  0  0  0  0
  -31.2936  -18.8241   23.0510 H   0  0  0  0  0  0
  -28.7197  -17.6637   19.7818 H   0  0  0  0  0  0
  -30.4682  -21.1243   22.9021 H   0  0  0  0  0  0
  -27.8561  -19.9795   19.6534 H   0  0  0  0  0  0
  -28.9731  -22.7526   23.2206 H   0  0  0  0  0  0
  -28.9269  -22.7617   19.1635 H   0  0  0  0  0  0
  -27.2875  -22.2589   19.6057 H   0  0  0  0  0  0
  -26.7586  -24.3468   20.4167 H   0  0  0  0  0  0
  -28.1247  -25.3478   18.5636 H   0  0  0  0  0  0
  -29.5645  -25.1419   19.4958 H   0  0  0  0  0  0
  -28.1604  -25.0108   22.4398 H   0  0  0  0  0  0
  -29.1454  -15.5815   21.1080 H   0  0  0  0  0  0
  1 25  1  0  0  0
  1 30  2  0  0  0
  1 84  1  0  0  0
  2  3  1  0  0  0
  2 25  1  0  0  0
  2 86  1  0  0  0
  2 87  1  0  0  0
  3  4  1  0  0  0
  3 88  1  0  0  0
  3 89  1  0  0  0
  4  5  1  0  0  0
  4 90  1  0  0  0
  4 91  1  0  0  0
  5  6  1  0  0  0
  5 26  1  0  0  0
  5 92  1  0  0  0
  6 25  1  0  0  0
  6 93  1  0  0  0
  6 94  1  0  0  0
  7  8  2  0  0  0
  7 26  1  0  0  0
  7 29  1  0  0  0
  8  9  1  0  0  0
  8 22  1  0  0  0
  9 10  1  0  0  0
  9 27  2  0  0  0
 10 11  2  0  0  0
 10 15  1  0  0  0
 11 12  1  0  0  0
 11 95  1  0  0  0
 12 13  2  0  0  0
 12 96  1  0  0  0
 13 14  1  0  0  0
 13 31  1  0  0  0
 14 15  2  0  0  0
 14 97  1  0  0  0
 15 98  1  0  0  0
 16 17  2  0  0  0
 16 21  1  0  0  0
 16 31  1  0  0  0
 17 18  1  0  0  0
 17 99  1  0  0  0
 18 19  2  0  0  0
 18100  1  0  0  0
 19 20  1  0  0  0
 19 24  1  0  0  0
 20 21  2  0  0  0
 20101  1  0  0  0
 21 23  1  0  0  0
 22 28  1  0  0  0
 22 32  2  0  0  0
 26 27  1  0  0  0
 28102  1  0  0  0
 28103  1  0  0  0
 29104  1  0  0  0
 29105  1  0  0  0
 33 34  1  0  0  0
 33 66  1  0  0  0
 33 70  2  0  0  0
 34 36  1  0  0  0
 34 59  1  0  0  0
 34106  1  0  0  0
 35 44  2  0  0  0
 35 45  1  0  0  0
 35 68  1  0  0  0
 36 56  1  0  0  0
 36107  1  0  0  0
 37 39  1  0  0  0
 37 47  1  0  0  0
 37 66  1  0  0  0
 37108  1  0  0  0
 38 43  2  0  0  0
 38 46  1  0  0  0
 38 47  1  0  0  0
 39 64  1  0  0  0
 39 67  2  0  0  0
 40 52  1  0  0  0
 40 53  2  0  0  0
 40 58  1  0  0  0
 41109  1  0  0  0
 41110  1  0  0  0
 41111  1  0  0  0
 41 48  1  0  0  0
 42 43  1  0  0  0
 42 66  1  0  0  0
 42112  1  0  0  0
 42113  1  0  0  0
 43 44  1  0  0  0
 44114  1  0  0  0
 45 46  2  0  0  0
 45115  1  0  0  0
 46116  1  0  0  0
 47117  1  0  0  0
 47118  1  0  0  0
 48 56  1  0  0  0
 48 65  1  0  0  0
 48119  1  0  0  0
 49 50  1  0  0  0
 49 53  1  0  0  0
 49 64  1  0  0  0
 49120  1  0  0  0
 50 51  1  0  0  0
 50121  1  0  0  0
 50122  1  0  0  0
 51 52  1  0  0  0
 51123  1  0  0  0
 51124  1  0  0  0
 52125  1  0  0  0
 52126  1  0  0  0
 53 54  1  0  0  0
 54 55  2  0  0  0
 54127  1  0  0  0
 55 57  1  0  0  0
 55128  1  0  0  0
 56 69  2  0  0  0
 57 58  2  0  0  0
 57129  1  0  0  0
 58130  1  0  0  0
 59 60  1  0  0  0
 59 61  1  0  0  0
 59 62  1  0  0  0
 60131  1  0  0  0
 60132  1  0  0  0
 60133  1  0  0  0
 61134  1  0  0  0
 61135  1  0  0  0
 61136  1  0  0  0
 62137  1  0  0  0
 62138  1  0  0  0
 62139  1  0  0  0
 63 65  1  0  0  0
 63140  1  0  0  0
 63141  1  0  0  0
 63142  1  0  0  0
 64143  1  0  0  0
 65144  1  0  0  0
 68 81  1  0  0  0
 71 73  2  0  0  0
 71 75  1  0  0  0
 71145  1  0  0  0
 72 74  1  0  0  0
 72 75  2  0  0  0
 72146  1  0  0  0
 73 76  1  0  0  0
 73147  1  0  0  0
 74 76  2  0  0  0
 74148  1  0  0  0
 75 78  1  0  0  0
 76 82  1  0  0  0
 77 82  1  0  0  0
 77 83  2  0  0  0
 77149  1  0  0  0
 78 84  1  0  0  0
 78 85  2  0  0  0
 79 80  1  0  0  0
 79 82  1  0  0  0
 79150  1  0  0  0
 79151  1  0  0  0
 80 81  1  0  0  0
 80 83  1  0  0  0
 80152  1  0  0  0
 81153  1  0  0  0
 81154  1  0  0  0
 83155  1  0  0  0
 84156  1  0  0  0
M  CHG  1  83   1
M  ISO  4   1 100  68 101  81 101  84 100
M  END
> <chiral flag>
0

> <version>
0

> <s_m_source_file>
/data/baiqing/PycharmProjects/Reinvent-master-3.2/result/LINK_invent/BTK/process_docking_weight1_custom_product_contain_oxygen_bond_distance_aromatic_linkinvent_7_9_3/rearranged_h_0073.sdf

> <i_m_source_file_index>
60

> <r_mmod_Potential_Energy-OPLS-2005>
-108.496795654297

> <r_mmod_Stretch_Energy-OPLS-2005>
41.9156188964844

> <r_mmod_Bend_Energy-OPLS-2005>
175.116165161133

> <r_mmod_Torsional_Energy-OPLS-2005>
234.046661376953

> <r_mmod_Improper_Torsional_Energy-OPLS-2005>
5.02382898330688

> <r_mmod_Van_der_Waal_Energy-OPLS-2005>
158.358657836914

> <r_mmod_Electrostatic_Energy-OPLS-2005>
-305.247314453125

> <r_mmod_Solvation_Energy-OPLS-2005>
-437.929840087891

> <b_mmod_Minimization_Converged-OPLS-2005>
0

> <r_mmod_RMS_Derivative-OPLS-2005>
0.757141351699829

$$$$
60
                    3D
 Structure written by MMmdl.
159168  0  0  1  0            999 V2000
  -30.7195  -14.4115   20.6603 C   0  0  0  0  0  0
  -30.4350  -12.3030   19.4053 C   0  0  0  0  0  0
  -29.4904  -12.5029   18.2012 C   0  0  0  0  0  0
  -28.0182  -12.3478   18.6286 C   0  0  0  0  0  0
  -27.6731  -13.1893   19.8838 C   0  0  2  0  0  0
  -28.7095  -12.9316   20.9999 C   0  0  0  0  0  0
  -25.2644  -13.8151   20.5660 C   0  0  0  0  0  0
  -24.1865  -13.0445   20.9142 C   0  0  0  0  0  0
  -24.6406  -11.6899   20.8755 C   0  0  0  0  0  0
  -23.9062  -10.4287   21.0412 C   0  0  0  0  0  0
  -24.3621   -9.4201   21.9174 C   0  0  0  0  0  0
  -23.6292   -8.2241   22.0754 C   0  0  0  0  0  0
  -22.4275   -8.0288   21.3548 C   0  0  0  0  0  0
  -21.9908   -9.0258   20.4646 C   0  0  0  0  0  0
  -22.7236  -10.2133   20.3046 C   0  0  0  0  0  0
  -21.6836   -6.0741   22.5268 C   0  0  0  0  0  0
  -21.4014   -6.5641   23.8209 C   0  0  0  0  0  0
  -21.3648   -5.6797   24.9168 C   0  0  0  0  0  0
  -21.6051   -4.3063   24.7236 C   0  0  0  0  0  0
  -21.8815   -3.8148   23.4352 C   0  0  0  0  0  0
  -21.9192   -4.6961   22.3407 C   0  0  0  0  0  0
  -22.7897  -13.5246   21.1820 C   0  0  0  0  0  0
  -22.1652   -4.2141   21.0992 F   0  0  0  0  0  0
  -21.5621   -3.4551   25.7750 F   0  0  0  0  0  0
  -30.0530  -13.2414   20.4733 N   0  0  0  0  0  0
  -26.3085  -12.9285   20.3398 N   0  0  0  0  0  0
  -25.9332  -11.6458   20.5817 N   0  0  0  0  0  0
  -22.0553  -12.8222   22.0394 N   0  0  0  0  0  0
  -25.4490  -15.1860   20.4083 N   0  0  0  0  0  0
  -31.7768  -14.6864   20.0832 O   0  0  0  0  0  0
  -21.6629   -6.8881   21.4245 O   0  0  0  0  0  0
  -22.3597  -14.5562   20.6681 O   0  0  0  0  0  0
  -24.6145  -31.8683   23.2086 C   0  0  0  0  0  0
  -25.9026  -32.4836   23.8401 C   0  0  1  0  0  0
  -27.2448  -27.4539   20.0979 C   0  0  0  0  0  0
  -25.5853  -33.8634   24.2344 N   0  0  0  0  0  0
  -23.4041  -30.4936   21.5480 C   0  0  2  0  0  0
  -24.8512  -28.9537   20.1184 C   0  0  0  0  0  0
  -22.7421  -29.4678   22.4972 C   0  0  0  0  0  0
  -18.0310  -28.1402   22.8504 C   0  0  0  0  0  0
  -24.1495  -36.7330   23.2641 C   0  0  0  0  0  0
  -25.9346  -30.8382   21.3613 C   0  0  0  0  0  0
  -26.0118  -29.4758   20.7075 C   0  0  0  0  0  0
  -27.2132  -28.7339   20.6892 C   0  0  0  0  0  0
  -26.0696  -26.9286   19.5248 C   0  0  0  0  0  0
  -24.8749  -27.6765   19.5270 C   0  0  0  0  0  0
  -23.6132  -29.8220   20.1649 C   0  0  0  0  0  0
  -25.4104  -36.3128   24.0360 C   0  0  1  0  0  0
  -20.5896  -28.3717   23.1352 C   0  0  2  0  0  0
  -20.6826  -26.9442   22.5451 C   0  0  0  0  0  0
  -19.5832  -26.6457   21.5224 C   0  0  0  0  0  0
  -18.1994  -26.7967   22.1598 C   0  0  0  0  0  0
  -19.1554  -28.8877   23.2932 C   0  0  0  0  0  0
  -18.9444  -30.1473   23.8960 C   0  0  0  0  0  0
  -17.6428  -30.6614   24.0564 C   0  0  0  0  0  0
  -25.9025  -34.9490   23.5169 C   0  0  0  0  0  0
  -16.5336  -29.9103   23.6314 C   0  0  0  0  0  0
  -16.7289  -28.6511   23.0355 C   0  0  0  0  0  0
  -26.4455  -31.6618   25.0739 C   0  0  0  0  0  0
  -25.3729  -31.3732   26.1503 C   0  0  0  0  0  0
  -27.0278  -30.3057   24.6127 C   0  0  0  0  0  0
  -27.6065  -32.4316   25.7468 C   0  0  0  0  0  0
  -27.5585  -37.1819   24.8458 C   0  0  0  0  0  0
  -21.4154  -29.3051   22.3743 N   0  0  0  0  0  0
  -26.4291  -37.3794   23.9421 N   0  0  0  0  0  0
  -24.6703  -31.0790   22.0986 N   0  0  0  0  0  0
  -23.4207  -28.8196   23.3008 O   0  0  0  0  0  0
  -28.4160  -26.7324   20.0659 O   0  0  0  0  0  0
  -26.5573  -34.8936   22.4719 O   0  0  0  0  0  0
  -23.5331  -32.1373   23.7490 O   0  0  0  0  0  0
  -29.5959  -18.7129   22.8049 C   0  0  0  0  0  0
  -29.8753  -17.3331   22.7281 C   0  0  0  0  0  0
  -29.6473  -18.8401   20.3884 C   0  0  0  0  0  0
  -29.8930  -17.4532   20.2948 C   0  0  0  0  0  0
  -29.4407  -19.4843   21.6262 C   0  0  0  0  0  0
  -30.0183  -16.6773   21.4856 C   0  0  0  0  0  0
  -27.8649  -22.7661   22.0250 C   0  0  0  0  0  0
  -28.5704  -23.0042   20.9191 C   0  0  0  0  0  0
  -28.1534  -21.4318   22.5042 C   0  0  0  0  0  0
  -29.4092  -21.8103   20.5766 C   0  0  0  0  0  0
  -29.9267  -16.8632   18.8951 C   0  0  0  0  0  0
  -28.5640  -24.2593   20.0509 C   0  0  0  0  0  0
  -28.4207  -25.5557   20.8801 C   0  0  0  0  0  0
  -29.0501  -20.8678   21.6504 N   0  0  0  0  0  0
  -30.1338  -15.2560   21.5269 N   0  0  0  0  0  0
  -27.6660  -20.9090   23.5129 O   0  0  0  0  0  0
  -31.4688  -12.4408   19.0820 H   0  0  0  0  0  0
  -30.3682  -11.2803   19.7817 H   0  0  0  0  0  0
  -29.7334  -11.7806   17.4205 H   0  0  0  0  0  0
  -29.6468  -13.4897   17.7630 H   0  0  0  0  0  0
  -27.8500  -11.2912   18.8444 H   0  0  0  0  0  0
  -27.3488  -12.5962   17.8043 H   0  0  0  0  0  0
  -27.7323  -14.2401   19.6011 H   0  0  0  0  0  0
  -28.6746  -11.8848   21.3021 H   0  0  0  0  0  0
  -28.4500  -13.4938   21.8983 H   0  0  0  0  0  0
  -25.2760   -9.5683   22.4752 H   0  0  0  0  0  0
  -23.9986   -7.4639   22.7472 H   0  0  0  0  0  0
  -21.0822   -8.8790   19.8967 H   0  0  0  0  0  0
  -22.3683  -10.9687   19.6173 H   0  0  0  0  0  0
  -21.2009   -7.6146   23.9701 H   0  0  0  0  0  0
  -21.1463   -6.0534   25.9068 H   0  0  0  0  0  0
  -22.0607   -2.7604   23.2860 H   0  0  0  0  0  0
  -22.4171  -11.9897   22.4780 H   0  0  0  0  0  0
  -21.1210  -13.1291   22.2648 H   0  0  0  0  0  0
  -24.7046  -15.8614   20.5353 H   0  0  0  0  0  0
  -26.3248  -15.6127   20.1308 H   0  0  0  0  0  0
  -26.7099  -32.5551   23.1169 H   0  0  0  0  0  0
  -25.0011  -33.9826   25.0490 H   0  0  0  0  0  0
  -22.6927  -31.3102   21.4044 H   0  0  0  0  0  0
  -23.3758  -35.9660   23.3316 H   0  0  0  0  0  0
  -24.3584  -36.8900   22.2044 H   0  0  0  0  0  0
  -23.7255  -37.6554   23.6619 H   0  0  0  0  0  0
  -26.0482  -31.6075   20.5973 H   0  0  0  0  0  0
  -26.8222  -30.8858   21.9796 H   0  0  0  0  0  0
  -28.1122  -29.1376   21.1339 H   0  0  0  0  0  0
  -26.0788  -25.9436   19.0755 H   0  0  0  0  0  0
  -23.9829  -27.2569   19.0826 H   0  0  0  0  0  0
  -23.7251  -30.5995   19.4062 H   0  0  0  0  0  0
  -22.7366  -29.2427   19.8652 H   0  0  0  0  0  0
  -25.1298  -36.1998   25.0851 H   0  0  0  0  0  0
  -21.0010  -28.3308   24.1458 H   0  0  0  0  0  0
  -20.5698  -26.2334   23.3641 H   0  0  0  0  0  0
  -21.6735  -26.7476   22.1297 H   0  0  0  0  0  0
  -19.7076  -25.6415   21.1147 H   0  0  0  0  0  0
  -19.6792  -27.3311   20.6801 H   0  0  0  0  0  0
  -17.4317  -26.6757   21.3939 H   0  0  0  0  0  0
  -18.0291  -26.0095   22.8965 H   0  0  0  0  0  0
  -19.7904  -30.7309   24.2369 H   0  0  0  0  0  0
  -17.4946  -31.6318   24.5125 H   0  0  0  0  0  0
  -15.5317  -30.2988   23.7625 H   0  0  0  0  0  0
  -15.8716  -28.0827   22.7073 H   0  0  0  0  0  0
  -24.5888  -30.7089   25.7854 H   0  0  0  0  0  0
  -24.8936  -32.2895   26.4963 H   0  0  0  0  0  0
  -25.8075  -30.8893   27.0252 H   0  0  0  0  0  0
  -26.2817  -29.6813   24.1199 H   0  0  0  0  0  0
  -27.4053  -29.7307   25.4585 H   0  0  0  0  0  0
  -27.8652  -30.4400   23.9278 H   0  0  0  0  0  0
  -27.2728  -33.3587   26.2133 H   0  0  0  0  0  0
  -28.3807  -32.6902   25.0242 H   0  0  0  0  0  0
  -28.0811  -31.8383   26.5289 H   0  0  0  0  0  0
  -28.2636  -38.0081   24.7493 H   0  0  0  0  0  0
  -28.1052  -36.2628   24.6307 H   0  0  0  0  0  0
  -27.2312  -37.1499   25.8857 H   0  0  0  0  0  0
  -20.9281  -29.8651   21.6879 H   0  0  0  0  0  0
  -26.0202  -38.2889   24.1365 H   0  0  0  0  0  0
  -29.4843  -19.1673   23.7788 H   0  0  0  0  0  0
  -29.9497  -16.7620   23.6436 H   0  0  0  0  0  0
  -29.5539  -19.3971   19.4700 H   0  0  0  0  0  0
  -27.1588  -23.4407   22.4803 H   0  0  0  0  0  0
  -30.4696  -22.0634   20.6147 H   0  0  0  0  0  0
  -29.1495  -21.4591   19.5790 H   0  0  0  0  0  0
  -29.4286  -17.5223   18.1825 H   0  0  0  0  0  0
  -29.4034  -15.9097   18.8447 H   0  0  0  0  0  0
  -30.9538  -16.7340   18.5581 H   0  0  0  0  0  0
  -27.7678  -24.1678   19.3070 H   0  0  0  0  0  0
  -29.5026  -24.2839   19.4940 H   0  0  0  0  0  0
  -29.2714  -25.6280   21.5629 H   0  0  0  0  0  0
  -27.5356  -25.5140   21.5190 H   0  0  0  0  0  0
  -29.5056  -14.8006   22.1747 H   0  0  0  0  0  0
  1 25  1  0  0  0
  1 30  2  0  0  0
  1 85  1  0  0  0
  2  3  1  0  0  0
  2 25  1  0  0  0
  2 87  1  0  0  0
  2 88  1  0  0  0
  3  4  1  0  0  0
  3 89  1  0  0  0
  3 90  1  0  0  0
  4  5  1  0  0  0
  4 91  1  0  0  0
  4 92  1  0  0  0
  5  6  1  0  0  0
  5 26  1  0  0  0
  5 93  1  0  0  0
  6 25  1  0  0  0
  6 94  1  0  0  0
  6 95  1  0  0  0
  7  8  2  0  0  0
  7 26  1  0  0  0
  7 29  1  0  0  0
  8  9  1  0  0  0
  8 22  1  0  0  0
  9 10  1  0  0  0
  9 27  2  0  0  0
 10 11  2  0  0  0
 10 15  1  0  0  0
 11 12  1  0  0  0
 11 96  1  0  0  0
 12 13  2  0  0  0
 12 97  1  0  0  0
 13 14  1  0  0  0
 13 31  1  0  0  0
 14 15  2  0  0  0
 14 98  1  0  0  0
 15 99  1  0  0  0
 16 17  2  0  0  0
 16 21  1  0  0  0
 16 31  1  0  0  0
 17 18  1  0  0  0
 17100  1  0  0  0
 18 19  2  0  0  0
 18101  1  0  0  0
 19 20  1  0  0  0
 19 24  1  0  0  0
 20 21  2  0  0  0
 20102  1  0  0  0
 21 23  1  0  0  0
 22 28  1  0  0  0
 22 32  2  0  0  0
 26 27  1  0  0  0
 28103  1  0  0  0
 28104  1  0  0  0
 29105  1  0  0  0
 29106  1  0  0  0
 33 34  1  0  0  0
 33 66  1  0  0  0
 33 70  2  0  0  0
 34 36  1  0  0  0
 34 59  1  0  0  0
 34107  1  0  0  0
 35 44  2  0  0  0
 35 45  1  0  0  0
 35 68  1  0  0  0
 36 56  1  0  0  0
 36108  1  0  0  0
 37 39  1  0  0  0
 37 47  1  0  0  0
 37 66  1  0  0  0
 37109  1  0  0  0
 38 43  2  0  0  0
 38 46  1  0  0  0
 38 47  1  0  0  0
 39 64  1  0  0  0
 39 67  2  0  0  0
 40 52  1  0  0  0
 40 53  2  0  0  0
 40 58  1  0  0  0
 41110  1  0  0  0
 41111  1  0  0  0
 41112  1  0  0  0
 41 48  1  0  0  0
 42 43  1  0  0  0
 42 66  1  0  0  0
 42113  1  0  0  0
 42114  1  0  0  0
 43 44  1  0  0  0
 44115  1  0  0  0
 45 46  2  0  0  0
 45116  1  0  0  0
 46117  1  0  0  0
 47118  1  0  0  0
 47119  1  0  0  0
 48 56  1  0  0  0
 48 65  1  0  0  0
 48120  1  0  0  0
 49 50  1  0  0  0
 49 53  1  0  0  0
 49 64  1  0  0  0
 49121  1  0  0  0
 50 51  1  0  0  0
 50122  1  0  0  0
 50123  1  0  0  0
 51 52  1  0  0  0
 51124  1  0  0  0
 51125  1  0  0  0
 52126  1  0  0  0
 52127  1  0  0  0
 53 54  1  0  0  0
 54 55  2  0  0  0
 54128  1  0  0  0
 55 57  1  0  0  0
 55129  1  0  0  0
 56 69  2  0  0  0
 57 58  2  0  0  0
 57130  1  0  0  0
 58131  1  0  0  0
 59 60  1  0  0  0
 59 61  1  0  0  0
 59 62  1  0  0  0
 60132  1  0  0  0
 60133  1  0  0  0
 60134  1  0  0  0
 61135  1  0  0  0
 61136  1  0  0  0
 61137  1  0  0  0
 62138  1  0  0  0
 62139  1  0  0  0
 62140  1  0  0  0
 63 65  1  0  0  0
 63141  1  0  0  0
 63142  1  0  0  0
 63143  1  0  0  0
 64144  1  0  0  0
 65145  1  0  0  0
 68 83  1  0  0  0
 71 72  2  0  0  0
 71 75  1  0  0  0
 71146  1  0  0  0
 72 76  1  0  0  0
 72147  1  0  0  0
 73 74  1  0  0  0
 73 75  2  0  0  0
 73148  1  0  0  0
 74 76  2  0  0  0
 74 81  1  0  0  0
 75 84  1  0  0  0
 76 85  1  0  0  0
 77 78  2  0  0  0
 77 79  1  0  0  0
 77149  1  0  0  0
 78 80  1  0  0  0
 78 82  1  0  0  0
 79 84  1  0  0  0
 79 86  2  0  0  0
 80 84  1  0  0  0
 80150  1  0  0  0
 80151  1  0  0  0
 81152  1  0  0  0
 81153  1  0  0  0
 81154  1  0  0  0
 82 83  1  0  0  0
 82155  1  0  0  0
 82156  1  0  0  0
 83157  1  0  0  0
 83158  1  0  0  0
 85159  1  0  0  0
M  ISO  4   1 100  68 101  83 101  85 100
M  END
> <chiral flag>
0

> <version>
0

> <s_m_source_file>
/data/baiqing/PycharmProjects/Reinvent-master-3.2/result/LINK_invent/BTK/process_docking_weight1_custom_product_contain_oxygen_bond_distance_aromatic_linkinvent_7_9_3/rearranged_h_0073.sdf

> <i_m_source_file_index>
61

> <r_mmod_Potential_Energy-OPLS-2005>
64.0370025634766

> <r_mmod_Stretch_Energy-OPLS-2005>
39.1387710571289

> <r_mmod_Bend_Energy-OPLS-2005>
146.456787109375

> <r_mmod_Torsional_Energy-OPLS-2005>
294.454162597656

> <r_mmod_Improper_Torsional_Energy-OPLS-2005>
3.48725485801697

> <r_mmod_Van_der_Waal_Energy-OPLS-2005>
155.679824829102

> <r_mmod_Electrostatic_Energy-OPLS-2005>
-367.126861572266

> <r_mmod_Solvation_Energy-OPLS-2005>
-216.639389038086

> <b_mmod_Minimization_Converged-OPLS-2005>
0

> <r_mmod_RMS_Derivative-OPLS-2005>
5.31819868087769

$$$$
61
                    3D
 Structure written by MMmdl.
165174  0  0  1  0            999 V2000
  -30.7152  -14.4265   20.5388 C   0  0  0  0  0  0
  -30.4132  -12.2697   19.4184 C   0  0  0  0  0  0
  -29.4907  -12.4963   18.2029 C   0  0  0  0  0  0
  -28.0104  -12.3653   18.6136 C   0  0  0  0  0  0
  -27.6616  -13.2031   19.8738 C   0  0  2  0  0  0
  -28.7021  -12.9791   20.9950 C   0  0  0  0  0  0
  -25.2603  -13.8162   20.5691 C   0  0  0  0  0  0
  -24.1841  -13.0449   20.9181 C   0  0  0  0  0  0
  -24.6380  -11.6913   20.8736 C   0  0  0  0  0  0
  -23.9046  -10.4301   21.0405 C   0  0  0  0  0  0
  -24.3601   -9.4220   21.9186 C   0  0  0  0  0  0
  -23.6284   -8.2250   22.0755 C   0  0  0  0  0  0
  -22.4269   -8.0280   21.3543 C   0  0  0  0  0  0
  -21.9898   -9.0252   20.4647 C   0  0  0  0  0  0
  -22.7220  -10.2136   20.3056 C   0  0  0  0  0  0
  -21.6852   -6.0738   22.5279 C   0  0  0  0  0  0
  -21.4012   -6.5640   23.8213 C   0  0  0  0  0  0
  -21.3660   -5.6791   24.9174 C   0  0  0  0  0  0
  -21.6046   -4.3055   24.7225 C   0  0  0  0  0  0
  -21.8817   -3.8150   23.4344 C   0  0  0  0  0  0
  -21.9193   -4.6968   22.3402 C   0  0  0  0  0  0
  -22.7862  -13.5257   21.1833 C   0  0  0  0  0  0
  -22.1661   -4.2152   21.0981 F   0  0  0  0  0  0
  -21.5629   -3.4538   25.7738 F   0  0  0  0  0  0
  -30.0378  -13.2550   20.4418 N   0  0  0  0  0  0
  -26.3023  -12.9320   20.3360 N   0  0  0  0  0  0
  -25.9307  -11.6486   20.5769 N   0  0  0  0  0  0
  -22.0476  -12.8269   22.0382 N   0  0  0  0  0  0
  -25.4369  -15.1879   20.4117 N   0  0  0  0  0  0
  -31.8759  -14.5582   20.1410 O   0  0  0  0  0  0
  -21.6638   -6.8877   21.4239 O   0  0  0  0  0  0
  -22.3565  -14.5568   20.6676 O   0  0  0  0  0  0
  -24.6085  -31.8726   23.2133 C   0  0  0  0  0  0
  -25.8999  -32.4851   23.8411 C   0  0  1  0  0  0
  -27.2471  -27.4832   20.0967 C   0  0  0  0  0  0
  -25.5858  -33.8648   24.2341 N   0  0  0  0  0  0
  -23.3940  -30.4940   21.5540 C   0  0  2  0  0  0
  -24.8432  -28.9643   20.1189 C   0  0  0  0  0  0
  -22.7379  -29.4672   22.5036 C   0  0  0  0  0  0
  -18.0255  -28.1373   22.8497 C   0  0  0  0  0  0
  -24.1482  -36.7349   23.2636 C   0  0  0  0  0  0
  -25.9157  -30.8549   21.3572 C   0  0  0  0  0  0
  -25.9977  -29.4906   20.7113 C   0  0  0  0  0  0
  -27.2028  -28.7602   20.7024 C   0  0  0  0  0  0
  -26.0772  -26.9645   19.5045 C   0  0  0  0  0  0
  -24.8747  -27.6961   19.5136 C   0  0  0  0  0  0
  -23.5997  -29.8212   20.1693 C   0  0  0  0  0  0
  -25.4103  -36.3144   24.0336 C   0  0  1  0  0  0
  -20.5841  -28.3648   23.1344 C   0  0  2  0  0  0
  -20.6747  -26.9390   22.5427 C   0  0  0  0  0  0
  -19.5727  -26.6377   21.5224 C   0  0  0  0  0  0
  -18.1905  -26.7921   22.1627 C   0  0  0  0  0  0
  -19.1504  -28.8827   23.2916 C   0  0  0  0  0  0
  -18.9435  -30.1436   23.8917 C   0  0  0  0  0  0
  -17.6440  -30.6582   24.0558 C   0  0  0  0  0  0
  -25.9024  -34.9498   23.5144 C   0  0  0  0  0  0
  -16.5330  -29.9083   23.6321 C   0  0  0  0  0  0
  -16.7245  -28.6498   23.0345 C   0  0  0  0  0  0
  -26.4446  -31.6611   25.0716 C   0  0  0  0  0  0
  -25.3726  -31.3689   26.1468 C   0  0  0  0  0  0
  -27.0252  -30.3057   24.6049 C   0  0  0  0  0  0
  -27.6037  -32.4314   25.7472 C   0  0  0  0  0  0
  -27.5585  -37.1827   24.8456 C   0  0  0  0  0  0
  -21.4114  -29.3026   22.3771 N   0  0  0  0  0  0
  -26.4300  -37.3818   23.9401 N   0  0  0  0  0  0
  -24.6574  -31.0864   22.1015 N   0  0  0  0  0  0
  -23.4174  -28.8224   23.3066 O   0  0  0  0  0  0
  -28.3660  -26.6887   20.0340 O   0  0  0  0  0  0
  -26.5608  -34.8943   22.4719 O   0  0  0  0  0  0
  -23.5293  -32.1450   23.7570 O   0  0  0  0  0  0
  -29.4367  -17.8301   21.3120 C   0  0  0  0  0  0
  -30.9837  -17.2707   19.5273 C   0  0  0  0  0  0
  -29.5628  -19.1970   20.9813 C   0  0  0  0  0  0
  -31.1214  -18.6318   19.2102 C   0  0  0  0  0  0
  -30.1589  -16.8491   20.5993 C   0  0  0  0  0  0
  -30.4159  -19.6184   19.9391 C   0  0  0  0  0  0
  -31.0696  -25.5384   22.0404 C   0  0  0  0  0  0
  -30.4591  -25.8618   20.8851 C   0  0  0  0  0  0
  -32.0041  -24.3507   22.1741 C   0  0  0  0  0  0
  -30.6652  -25.0373   19.6173 C   0  0  0  0  0  0
  -32.4178  -23.7790   20.8037 C   0  0  0  0  0  0
  -29.5306  -27.0586   20.7609 C   0  0  0  0  0  0
  -31.4802  -22.9339   18.6435 C   0  0  0  0  0  0
  -31.5879  -21.4195   18.8647 C   0  0  0  0  0  0
  -29.9830  -15.4761   20.9517 N   0  0  0  0  0  0
  -31.2451  -23.6961   19.8964 N   0  3  2  0  0  0
  -30.5032  -20.9714   19.6801 O   0  0  0  0  0  0
  -31.4602  -12.3489   19.1181 H   0  0  0  0  0  0
  -30.2938  -11.2578   19.8085 H   0  0  0  0  0  0
  -29.7252  -11.7805   17.4140 H   0  0  0  0  0  0
  -29.6682  -13.4867   17.7802 H   0  0  0  0  0  0
  -27.8147  -11.3096   18.8051 H   0  0  0  0  0  0
  -27.3611  -12.6454   17.7829 H   0  0  0  0  0  0
  -27.7079  -14.2511   19.5784 H   0  0  0  0  0  0
  -28.6611  -11.9484   21.3495 H   0  0  0  0  0  0
  -28.4790  -13.5968   21.8658 H   0  0  0  0  0  0
  -25.2742   -9.5709   22.4763 H   0  0  0  0  0  0
  -24.0002   -7.4644   22.7474 H   0  0  0  0  0  0
  -21.0828   -8.8761   19.8953 H   0  0  0  0  0  0
  -22.3670  -10.9669   19.6165 H   0  0  0  0  0  0
  -21.1999   -7.6146   23.9721 H   0  0  0  0  0  0
  -21.1485   -6.0518   25.9078 H   0  0  0  0  0  0
  -22.0599   -2.7613   23.2841 H   0  0  0  0  0  0
  -22.4056  -11.9928   22.4793 H   0  0  0  0  0  0
  -21.1092  -13.1324   22.2545 H   0  0  0  0  0  0
  -24.6776  -15.8504   20.5288 H   0  0  0  0  0  0
  -26.2971  -15.6227   20.1009 H   0  0  0  0  0  0
  -26.7080  -32.5594   23.1197 H   0  0  0  0  0  0
  -24.9939  -33.9815   25.0435 H   0  0  0  0  0  0
  -22.6796  -31.3080   21.4153 H   0  0  0  0  0  0
  -23.3736  -35.9690   23.3315 H   0  0  0  0  0  0
  -24.3571  -36.8953   22.2046 H   0  0  0  0  0  0
  -23.7245  -37.6565   23.6640 H   0  0  0  0  0  0
  -26.0142  -31.6193   20.5850 H   0  0  0  0  0  0
  -26.8080  -30.9179   21.9679 H   0  0  0  0  0  0
  -28.0818  -29.1968   21.1540 H   0  0  0  0  0  0
  -26.1000  -25.9897   19.0372 H   0  0  0  0  0  0
  -23.9868  -27.2819   19.0549 H   0  0  0  0  0  0
  -23.6958  -30.5914   19.4038 H   0  0  0  0  0  0
  -22.7277  -29.2300   19.8833 H   0  0  0  0  0  0
  -25.1286  -36.2019   25.0832 H   0  0  0  0  0  0
  -20.9916  -28.3197   24.1471 H   0  0  0  0  0  0
  -20.5658  -26.2252   23.3610 H   0  0  0  0  0  0
  -21.6618  -26.7451   22.1210 H   0  0  0  0  0  0
  -19.6884  -25.6291   21.1242 H   0  0  0  0  0  0
  -19.6670  -27.3198   20.6766 H   0  0  0  0  0  0
  -17.4183  -26.6677   21.4021 H   0  0  0  0  0  0
  -18.0289  -26.0057   22.9015 H   0  0  0  0  0  0
  -19.7914  -30.7240   24.2296 H   0  0  0  0  0  0
  -17.4998  -31.6271   24.5143 H   0  0  0  0  0  0
  -15.5331  -30.2993   23.7635 H   0  0  0  0  0  0
  -15.8643  -28.0825   22.7053 H   0  0  0  0  0  0
  -24.5870  -30.7086   25.7781 H   0  0  0  0  0  0
  -24.8951  -32.2835   26.4994 H   0  0  0  0  0  0
  -25.8072  -30.8774   27.0180 H   0  0  0  0  0  0
  -26.2773  -29.6855   24.1095 H   0  0  0  0  0  0
  -27.4016  -29.7258   25.4488 H   0  0  0  0  0  0
  -27.8617  -30.4383   23.9183 H   0  0  0  0  0  0
  -27.2663  -33.3589   26.2114 H   0  0  0  0  0  0
  -28.3809  -32.6918   25.0273 H   0  0  0  0  0  0
  -28.0750  -31.8396   26.5332 H   0  0  0  0  0  0
  -28.2613  -38.0115   24.7507 H   0  0  0  0  0  0
  -28.1072  -36.2651   24.6282 H   0  0  0  0  0  0
  -27.2299  -37.1480   25.8857 H   0  0  0  0  0  0
  -20.9269  -29.8747   21.6996 H   0  0  0  0  0  0
  -26.0201  -38.2904   24.1394 H   0  0  0  0  0  0
  -28.7800  -17.5442   22.1218 H   0  0  0  0  0  0
  -31.5267  -16.5690   18.9126 H   0  0  0  0  0  0
  -29.0020  -19.9310   21.5425 H   0  0  0  0  0  0
  -31.7724  -18.8772   18.3850 H   0  0  0  0  0  0
  -30.8952  -26.1235   22.9332 H   0  0  0  0  0  0
  -31.4991  -23.5871   22.7668 H   0  0  0  0  0  0
  -32.8901  -24.6490   22.7358 H   0  0  0  0  0  0
  -31.3062  -25.5998   18.9371 H   0  0  0  0  0  0
  -29.7112  -24.8941   19.1093 H   0  0  0  0  0  0
  -32.8764  -22.8012   20.9501 H   0  0  0  0  0  0
  -33.1796  -24.4133   20.3469 H   0  0  0  0  0  0
  -30.0482  -27.8592   20.2311 H   0  0  0  0  0  0
  -29.2838  -27.4154   21.7628 H   0  0  0  0  0  0
  -30.6419  -23.1004   17.9663 H   0  0  0  0  0  0
  -32.3665  -23.3081   18.1300 H   0  0  0  0  0  0
  -32.5402  -21.1588   19.3281 H   0  0  0  0  0  0
  -31.5600  -20.9465   17.8823 H   0  0  0  0  0  0
  -29.1141  -15.2410   21.4062 H   0  0  0  0  0  0
  -30.5358  -23.1785   20.3984 H   0  0  0  0  0  0
  1 25  1  0  0  0
  1 30  2  0  0  0
  1 85  1  0  0  0
  2  3  1  0  0  0
  2 25  1  0  0  0
  2 88  1  0  0  0
  2 89  1  0  0  0
  3  4  1  0  0  0
  3 90  1  0  0  0
  3 91  1  0  0  0
  4  5  1  0  0  0
  4 92  1  0  0  0
  4 93  1  0  0  0
  5  6  1  0  0  0
  5 26  1  0  0  0
  5 94  1  0  0  0
  6 25  1  0  0  0
  6 95  1  0  0  0
  6 96  1  0  0  0
  7  8  2  0  0  0
  7 26  1  0  0  0
  7 29  1  0  0  0
  8  9  1  0  0  0
  8 22  1  0  0  0
  9 10  1  0  0  0
  9 27  2  0  0  0
 10 11  2  0  0  0
 10 15  1  0  0  0
 11 12  1  0  0  0
 11 97  1  0  0  0
 12 13  2  0  0  0
 12 98  1  0  0  0
 13 14  1  0  0  0
 13 31  1  0  0  0
 14 15  2  0  0  0
 14 99  1  0  0  0
 15100  1  0  0  0
 16 17  2  0  0  0
 16 21  1  0  0  0
 16 31  1  0  0  0
 17 18  1  0  0  0
 17101  1  0  0  0
 18 19  2  0  0  0
 18102  1  0  0  0
 19 20  1  0  0  0
 19 24  1  0  0  0
 20 21  2  0  0  0
 20103  1  0  0  0
 21 23  1  0  0  0
 22 28  1  0  0  0
 22 32  2  0  0  0
 26 27  1  0  0  0
 28104  1  0  0  0
 28105  1  0  0  0
 29106  1  0  0  0
 29107  1  0  0  0
 33 34  1  0  0  0
 33 66  1  0  0  0
 33 70  2  0  0  0
 34 36  1  0  0  0
 34 59  1  0  0  0
 34108  1  0  0  0
 35 44  2  0  0  0
 35 45  1  0  0  0
 35 68  1  0  0  0
 36 56  1  0  0  0
 36109  1  0  0  0
 37 39  1  0  0  0
 37 47  1  0  0  0
 37 66  1  0  0  0
 37110  1  0  0  0
 38 43  2  0  0  0
 38 46  1  0  0  0
 38 47  1  0  0  0
 39 64  1  0  0  0
 39 67  2  0  0  0
 40 52  1  0  0  0
 40 53  2  0  0  0
 40 58  1  0  0  0
 41111  1  0  0  0
 41112  1  0  0  0
 41113  1  0  0  0
 41 48  1  0  0  0
 42 43  1  0  0  0
 42 66  1  0  0  0
 42114  1  0  0  0
 42115  1  0  0  0
 43 44  1  0  0  0
 44116  1  0  0  0
 45 46  2  0  0  0
 45117  1  0  0  0
 46118  1  0  0  0
 47119  1  0  0  0
 47120  1  0  0  0
 48 56  1  0  0  0
 48 65  1  0  0  0
 48121  1  0  0  0
 49 50  1  0  0  0
 49 53  1  0  0  0
 49 64  1  0  0  0
 49122  1  0  0  0
 50 51  1  0  0  0
 50123  1  0  0  0
 50124  1  0  0  0
 51 52  1  0  0  0
 51125  1  0  0  0
 51126  1  0  0  0
 52127  1  0  0  0
 52128  1  0  0  0
 53 54  1  0  0  0
 54 55  2  0  0  0
 54129  1  0  0  0
 55 57  1  0  0  0
 55130  1  0  0  0
 56 69  2  0  0  0
 57 58  2  0  0  0
 57131  1  0  0  0
 58132  1  0  0  0
 59 60  1  0  0  0
 59 61  1  0  0  0
 59 62  1  0  0  0
 60133  1  0  0  0
 60134  1  0  0  0
 60135  1  0  0  0
 61136  1  0  0  0
 61137  1  0  0  0
 61138  1  0  0  0
 62139  1  0  0  0
 62140  1  0  0  0
 62141  1  0  0  0
 63 65  1  0  0  0
 63142  1  0  0  0
 63143  1  0  0  0
 63144  1  0  0  0
 64145  1  0  0  0
 65146  1  0  0  0
 68 82  1  0  0  0
 71 73  2  0  0  0
 71 75  1  0  0  0
 71147  1  0  0  0
 72 74  1  0  0  0
 72 75  2  0  0  0
 72148  1  0  0  0
 73 76  1  0  0  0
 73149  1  0  0  0
 74 76  2  0  0  0
 74150  1  0  0  0
 75 85  1  0  0  0
 76 87  1  0  0  0
 77 78  2  0  0  0
 77 79  1  0  0  0
 77151  1  0  0  0
 78 80  1  0  0  0
 78 82  1  0  0  0
 79 81  1  0  0  0
 79152  1  0  0  0
 79153  1  0  0  0
 80 86  1  0  0  0
 80154  1  0  0  0
 80155  1  0  0  0
 81 86  1  0  0  0
 81156  1  0  0  0
 81157  1  0  0  0
 82158  1  0  0  0
 82159  1  0  0  0
 83 84  1  0  0  0
 83160  1  0  0  0
 83161  1  0  0  0
 83 86  1  0  0  0
 84 87  1  0  0  0
 84162  1  0  0  0
 84163  1  0  0  0
 85164  1  0  0  0
 86165  1  0  0  0
M  CHG  1  86   1
M  ISO  4   1 100  68 101  82 101  85 100
M  END
> <chiral flag>
0

> <version>
0

> <s_m_source_file>
/data/baiqing/PycharmProjects/Reinvent-master-3.2/result/LINK_invent/BTK/process_docking_weight1_custom_product_contain_oxygen_bond_distance_aromatic_linkinvent_7_9_3/rearranged_h_0073.sdf

> <i_m_source_file_index>
62

> <r_mmod_Potential_Energy-OPLS-2005>
-126.908462524414

> <r_mmod_Stretch_Energy-OPLS-2005>
33.9831771850586

> <r_mmod_Bend_Energy-OPLS-2005>
105.973114013672

> <r_mmod_Torsional_Energy-OPLS-2005>
229.136474609375

> <r_mmod_Improper_Torsional_Energy-OPLS-2005>
4.05611181259155

> <r_mmod_Van_der_Waal_Energy-OPLS-2005>
178.977661132812

> <r_mmod_Electrostatic_Energy-OPLS-2005>
-287.068786621094

> <r_mmod_Solvation_Energy-OPLS-2005>
-403.346038818359

> <b_mmod_Minimization_Converged-OPLS-2005>
0

> <r_mmod_RMS_Derivative-OPLS-2005>
1.18143618106842

$$$$
62
                    3D
 Structure written by MMmdl.
167176  0  0  1  0            999 V2000
  -30.6903  -14.5114   20.5737 C   0  0  0  0  0  0
  -30.4289  -12.3190   19.4375 C   0  0  0  0  0  0
  -29.5000  -12.5007   18.2174 C   0  0  0  0  0  0
  -28.0295  -12.2928   18.6262 C   0  0  0  0  0  0
  -27.6543  -13.1481   19.8580 C   0  0  2  0  0  0
  -28.7006  -13.0010   20.9952 C   0  0  0  0  0  0
  -25.2678  -13.7968   20.5673 C   0  0  0  0  0  0
  -24.1852  -13.0365   20.9219 C   0  0  0  0  0  0
  -24.6312  -11.6798   20.8787 C   0  0  0  0  0  0
  -23.8972  -10.4234   21.0467 C   0  0  0  0  0  0
  -24.3552   -9.4150   21.9232 C   0  0  0  0  0  0
  -23.6244   -8.2181   22.0761 C   0  0  0  0  0  0
  -22.4230   -8.0248   21.3542 C   0  0  0  0  0  0
  -21.9869   -9.0224   20.4647 C   0  0  0  0  0  0
  -22.7178  -10.2103   20.3081 C   0  0  0  0  0  0
  -21.6813   -6.0717   22.5297 C   0  0  0  0  0  0
  -21.4003   -6.5628   23.8242 C   0  0  0  0  0  0
  -21.3652   -5.6774   24.9198 C   0  0  0  0  0  0
  -21.6025   -4.3042   24.7243 C   0  0  0  0  0  0
  -21.8810   -3.8139   23.4371 C   0  0  0  0  0  0
  -21.9183   -4.6948   22.3423 C   0  0  0  0  0  0
  -22.7899  -13.5261   21.1885 C   0  0  0  0  0  0
  -22.1645   -4.2135   21.0996 F   0  0  0  0  0  0
  -21.5630   -3.4531   25.7758 F   0  0  0  0  0  0
  -30.0404  -13.3122   20.4603 N   0  0  0  0  0  0
  -26.2982  -12.8985   20.3287 N   0  0  0  0  0  0
  -25.9209  -11.6226   20.5776 N   0  0  0  0  0  0
  -22.0476  -12.8284   22.0409 N   0  0  0  0  0  0
  -25.4606  -15.1664   20.4056 N   0  0  0  0  0  0
  -31.7902  -14.7101   20.0472 O   0  0  0  0  0  0
  -21.6582   -6.8853   21.4257 O   0  0  0  0  0  0
  -22.3643  -14.5589   20.6731 O   0  0  0  0  0  0
  -24.6162  -31.8698   23.2078 C   0  0  0  0  0  0
  -25.9040  -32.4850   23.8389 C   0  0  1  0  0  0
  -27.2291  -27.4059   20.1052 C   0  0  0  0  0  0
  -25.5879  -33.8640   24.2341 N   0  0  0  0  0  0
  -23.4053  -30.4932   21.5556 C   0  0  2  0  0  0
  -24.8495  -28.9601   20.1164 C   0  0  0  0  0  0
  -22.7445  -29.4652   22.5030 C   0  0  0  0  0  0
  -18.0276  -28.1373   22.8492 C   0  0  0  0  0  0
  -24.1475  -36.7281   23.2636 C   0  0  0  0  0  0
  -25.9399  -30.8217   21.3713 C   0  0  0  0  0  0
  -26.0149  -29.4570   20.7151 C   0  0  0  0  0  0
  -27.2049  -28.6910   20.7042 C   0  0  0  0  0  0
  -26.0392  -26.9352   19.4921 C   0  0  0  0  0  0
  -24.8611  -27.7021   19.4997 C   0  0  0  0  0  0
  -23.6120  -29.8302   20.1679 C   0  0  0  0  0  0
  -25.4119  -36.3127   24.0305 C   0  0  1  0  0  0
  -20.5865  -28.3675   23.1324 C   0  0  2  0  0  0
  -20.6803  -26.9441   22.5394 C   0  0  0  0  0  0
  -19.5761  -26.6407   21.5209 C   0  0  0  0  0  0
  -18.1946  -26.7930   22.1645 C   0  0  0  0  0  0
  -19.1516  -28.8844   23.2890 C   0  0  0  0  0  0
  -18.9451  -30.1446   23.8900 C   0  0  0  0  0  0
  -17.6456  -30.6598   24.0537 C   0  0  0  0  0  0
  -25.9033  -34.9464   23.5137 C   0  0  0  0  0  0
  -16.5344  -29.9087   23.6318 C   0  0  0  0  0  0
  -16.7263  -28.6489   23.0368 C   0  0  0  0  0  0
  -26.4434  -31.6620   25.0716 C   0  0  0  0  0  0
  -25.3690  -31.3738   26.1453 C   0  0  0  0  0  0
  -27.0293  -30.3099   24.6071 C   0  0  0  0  0  0
  -27.6009  -32.4310   25.7506 C   0  0  0  0  0  0
  -27.5598  -37.1794   24.8466 C   0  0  0  0  0  0
  -21.4175  -29.3034   22.3758 N   0  0  0  0  0  0
  -26.4326  -37.3801   23.9391 N   0  0  0  0  0  0
  -24.6726  -31.0742   22.1019 N   0  0  0  0  0  0
  -23.4183  -28.8219   23.3112 O   0  0  0  0  0  0
  -28.3877  -26.6391   20.1553 O   0  0  0  0  0  0
  -26.5612  -34.8898   22.4712 O   0  0  0  0  0  0
  -23.5333  -32.1437   23.7451 O   0  0  0  0  0  0
  -29.9687  -18.6658   19.4925 C   0  0  0  0  0  0
  -30.0164  -20.0732   19.4509 C   0  0  0  0  0  0
  -29.6216  -20.1463   21.8053 C   0  0  0  0  0  0
  -29.7293  -17.9552   20.6882 C   0  0  0  0  0  0
  -29.5303  -18.7239   21.8723 C   0  0  0  0  0  0
  -29.8358  -20.8746   20.6048 C   0  0  0  0  0  0
  -29.3769  -23.3588   21.3310 C   0  0  0  0  0  0
  -29.4076  -16.4813   20.5307 C   0  0  0  0  0  0
  -27.5587  -19.6344   24.4876 C   0  0  0  0  0  0
  -29.4954  -22.9711   19.3030 C   0  0  0  0  0  0
  -29.4906  -24.3114   20.0858 C   0  0  2  0  0  0
  -26.1595  -20.2417   24.5459 C   0  0  0  0  0  0
  -30.7973  -25.1177   20.1203 C   0  0  0  0  0  0
  -29.0664  -18.1154   23.1973 C   0  0  0  0  0  0
  -28.2560  -25.2266   19.8529 C   0  0  0  0  0  0
  -29.8552  -22.3114   20.5463 N   0  0  0  0  0  0
  -30.0349  -15.5033   21.2221 N   0  0  0  0  0  0
  -27.7661  -18.6524   23.5981 N   0  0  0  0  0  0
  -28.9390  -23.3974   22.4601 O   0  0  0  0  0  0
  -28.5072  -16.2342   19.7302 O   0  0  0  0  0  0
  -28.4507  -20.0806   25.2072 O   0  0  0  0  0  0
  -31.4735  -12.4042   19.1326 H   0  0  0  0  0  0
  -30.3269  -11.3086   19.8390 H   0  0  0  0  0  0
  -29.7717  -11.8074   17.4200 H   0  0  0  0  0  0
  -29.6322  -13.5013   17.8068 H   0  0  0  0  0  0
  -27.8801  -11.2363   18.8554 H   0  0  0  0  0  0
  -27.3722  -12.5160   17.7834 H   0  0  0  0  0  0
  -27.6548  -14.1518   19.4735 H   0  0  0  0  0  0
  -28.6943  -11.9801   21.3804 H   0  0  0  0  0  0
  -28.4357  -13.6311   21.8441 H   0  0  0  0  0  0
  -25.2687   -9.5599   22.4837 H   0  0  0  0  0  0
  -23.9920   -7.4539   22.7467 H   0  0  0  0  0  0
  -21.0804   -8.8751   19.8960 H   0  0  0  0  0  0
  -22.3657  -10.9662   19.6202 H   0  0  0  0  0  0
  -21.1992   -7.6130   23.9754 H   0  0  0  0  0  0
  -21.1485   -6.0498   25.9096 H   0  0  0  0  0  0
  -22.0602   -2.7605   23.2878 H   0  0  0  0  0  0
  -22.3994  -11.9928   22.4846 H   0  0  0  0  0  0
  -21.1116  -13.1405   22.2552 H   0  0  0  0  0  0
  -24.7149  -15.8454   20.5102 H   0  0  0  0  0  0
  -26.3135  -15.5726   20.0350 H   0  0  0  0  0  0
  -26.7154  -32.5548   23.1195 H   0  0  0  0  0  0
  -25.0084  -33.9831   25.0539 H   0  0  0  0  0  0
  -22.6929  -31.3117   21.4261 H   0  0  0  0  0  0
  -23.3776  -35.9590   23.3350 H   0  0  0  0  0  0
  -24.3614  -36.8855   22.2061 H   0  0  0  0  0  0
  -23.7137  -37.6457   23.6613 H   0  0  0  0  0  0
  -26.0538  -31.5841   20.5993 H   0  0  0  0  0  0
  -26.8238  -30.8718   21.9970 H   0  0  0  0  0  0
  -28.0989  -29.0758   21.1738 H   0  0  0  0  0  0
  -25.9864  -25.9723   19.0046 H   0  0  0  0  0  0
  -23.9679  -27.3147   19.0255 H   0  0  0  0  0  0
  -23.7250  -30.6019   19.4087 H   0  0  0  0  0  0
  -22.7328  -29.2608   19.8676 H   0  0  0  0  0  0
  -25.1315  -36.2034   25.0811 H   0  0  0  0  0  0
  -20.9858  -28.3214   24.1478 H   0  0  0  0  0  0
  -20.5726  -26.2318   23.3583 H   0  0  0  0  0  0
  -21.6688  -26.7548   22.1183 H   0  0  0  0  0  0
  -19.6929  -25.6311   21.1260 H   0  0  0  0  0  0
  -19.6653  -27.3220   20.6735 H   0  0  0  0  0  0
  -17.4208  -26.6634   21.4062 H   0  0  0  0  0  0
  -18.0353  -26.0081   22.9056 H   0  0  0  0  0  0
  -19.7924  -30.7235   24.2294 H   0  0  0  0  0  0
  -17.5022  -31.6271   24.5134 H   0  0  0  0  0  0
  -15.5342  -30.2995   23.7630 H   0  0  0  0  0  0
  -15.8673  -28.0789   22.7120 H   0  0  0  0  0  0
  -24.5839  -30.7110   25.7809 H   0  0  0  0  0  0
  -24.8910  -32.2907   26.4870 H   0  0  0  0  0  0
  -25.8000  -30.8917   27.0233 H   0  0  0  0  0  0
  -26.2848  -29.6916   24.1041 H   0  0  0  0  0  0
  -27.4061  -29.7253   25.4453 H   0  0  0  0  0  0
  -27.8689  -30.4550   23.9285 H   0  0  0  0  0  0
  -27.2638  -33.3605   26.2098 H   0  0  0  0  0  0
  -28.3800  -32.6881   25.0318 H   0  0  0  0  0  0
  -28.0657  -31.8397   26.5421 H   0  0  0  0  0  0
  -28.2638  -38.0075   24.7529 H   0  0  0  0  0  0
  -28.1084  -36.2595   24.6329 H   0  0  0  0  0  0
  -27.2288  -37.1471   25.8864 H   0  0  0  0  0  0
  -20.9387  -29.8764   21.6974 H   0  0  0  0  0  0
  -26.0235  -38.2906   24.1394 H   0  0  0  0  0  0
  -30.0315  -18.1116   18.5637 H   0  0  0  0  0  0
  -30.1582  -20.5327   18.4830 H   0  0  0  0  0  0
  -29.4537  -20.7133   22.7107 H   0  0  0  0  0  0
  -30.2501  -22.8991   18.5174 H   0  0  0  0  0  0
  -28.5052  -22.6689   18.9443 H   0  0  0  0  0  0
  -25.8466  -20.5717   23.5534 H   0  0  0  0  0  0
  -26.1422  -21.1109   25.2055 H   0  0  0  0  0  0
  -25.4287  -19.5255   24.9215 H   0  0  0  0  0  0
  -30.8665  -25.7309   21.0200 H   0  0  0  0  0  0
  -30.8835  -25.7810   19.2602 H   0  0  0  0  0  0
  -31.6745  -24.4687   20.1179 H   0  0  0  0  0  0
  -29.8197  -18.3041   23.9657 H   0  0  0  0  0  0
  -28.9750  -17.0323   23.1402 H   0  0  0  0  0  0
  -27.4047  -24.8261   20.4072 H   0  0  0  0  0  0
  -27.9863  -25.1499   18.7982 H   0  0  0  0  0  0
  -29.3633  -15.0185   21.7899 H   0  0  0  0  0  0
  -26.9645  -18.3097   23.0860 H   0  0  0  0  0  0
  1 25  1  0  0  0
  1 30  2  0  0  0
  1 87  1  0  0  0
  2  3  1  0  0  0
  2 25  1  0  0  0
  2 92  1  0  0  0
  2 93  1  0  0  0
  3  4  1  0  0  0
  3 94  1  0  0  0
  3 95  1  0  0  0
  4  5  1  0  0  0
  4 96  1  0  0  0
  4 97  1  0  0  0
  5  6  1  0  0  0
  5 26  1  0  0  0
  5 98  1  0  0  0
  6 25  1  0  0  0
  6 99  1  0  0  0
  6100  1  0  0  0
  7  8  2  0  0  0
  7 26  1  0  0  0
  7 29  1  0  0  0
  8  9  1  0  0  0
  8 22  1  0  0  0
  9 10  1  0  0  0
  9 27  2  0  0  0
 10 11  2  0  0  0
 10 15  1  0  0  0
 11 12  1  0  0  0
 11101  1  0  0  0
 12 13  2  0  0  0
 12102  1  0  0  0
 13 14  1  0  0  0
 13 31  1  0  0  0
 14 15  2  0  0  0
 14103  1  0  0  0
 15104  1  0  0  0
 16 17  2  0  0  0
 16 21  1  0  0  0
 16 31  1  0  0  0
 17 18  1  0  0  0
 17105  1  0  0  0
 18 19  2  0  0  0
 18106  1  0  0  0
 19 20  1  0  0  0
 19 24  1  0  0  0
 20 21  2  0  0  0
 20107  1  0  0  0
 21 23  1  0  0  0
 22 28  1  0  0  0
 22 32  2  0  0  0
 26 27  1  0  0  0
 28108  1  0  0  0
 28109  1  0  0  0
 29110  1  0  0  0
 29111  1  0  0  0
 33 34  1  0  0  0
 33 66  1  0  0  0
 33 70  2  0  0  0
 34 36  1  0  0  0
 34 59  1  0  0  0
 34112  1  0  0  0
 35 44  2  0  0  0
 35 45  1  0  0  0
 35 68  1  0  0  0
 36 56  1  0  0  0
 36113  1  0  0  0
 37 39  1  0  0  0
 37 47  1  0  0  0
 37 66  1  0  0  0
 37114  1  0  0  0
 38 43  2  0  0  0
 38 46  1  0  0  0
 38 47  1  0  0  0
 39 64  1  0  0  0
 39 67  2  0  0  0
 40 52  1  0  0  0
 40 53  2  0  0  0
 40 58  1  0  0  0
 41115  1  0  0  0
 41116  1  0  0  0
 41117  1  0  0  0
 41 48  1  0  0  0
 42 43  1  0  0  0
 42 66  1  0  0  0
 42118  1  0  0  0
 42119  1  0  0  0
 43 44  1  0  0  0
 44120  1  0  0  0
 45 46  2  0  0  0
 45121  1  0  0  0
 46122  1  0  0  0
 47123  1  0  0  0
 47124  1  0  0  0
 48 56  1  0  0  0
 48 65  1  0  0  0
 48125  1  0  0  0
 49 50  1  0  0  0
 49 53  1  0  0  0
 49 64  1  0  0  0
 49126  1  0  0  0
 50 51  1  0  0  0
 50127  1  0  0  0
 50128  1  0  0  0
 51 52  1  0  0  0
 51129  1  0  0  0
 51130  1  0  0  0
 52131  1  0  0  0
 52132  1  0  0  0
 53 54  1  0  0  0
 54 55  2  0  0  0
 54133  1  0  0  0
 55 57  1  0  0  0
 55134  1  0  0  0
 56 69  2  0  0  0
 57 58  2  0  0  0
 57135  1  0  0  0
 58136  1  0  0  0
 59 60  1  0  0  0
 59 61  1  0  0  0
 59 62  1  0  0  0
 60137  1  0  0  0
 60138  1  0  0  0
 60139  1  0  0  0
 61140  1  0  0  0
 61141  1  0  0  0
 61142  1  0  0  0
 62143  1  0  0  0
 62144  1  0  0  0
 62145  1  0  0  0
 63 65  1  0  0  0
 63146  1  0  0  0
 63147  1  0  0  0
 63148  1  0  0  0
 64149  1  0  0  0
 65150  1  0  0  0
 68 85  1  0  0  0
 71 72  2  0  0  0
 71 74  1  0  0  0
 71151  1  0  0  0
 72 76  1  0  0  0
 72152  1  0  0  0
 73 75  1  0  0  0
 73 76  2  0  0  0
 73153  1  0  0  0
 74 75  2  0  0  0
 74 78  1  0  0  0
 75 84  1  0  0  0
 76 86  1  0  0  0
 77 81  1  0  0  0
 77 86  1  0  0  0
 77 89  2  0  0  0
 78 87  1  0  0  0
 78 90  2  0  0  0
 79 82  1  0  0  0
 79 88  1  0  0  0
 79 91  2  0  0  0
 80 81  1  0  0  0
 80 86  1  0  0  0
 80154  1  0  0  0
 80155  1  0  0  0
 81 83  1  0  0  0
 81 85  1  0  0  0
 82156  1  0  0  0
 82157  1  0  0  0
 82158  1  0  0  0
 83159  1  0  0  0
 83160  1  0  0  0
 83161  1  0  0  0
 84 88  1  0  0  0
 84162  1  0  0  0
 84163  1  0  0  0
 85164  1  0  0  0
 85165  1  0  0  0
 87166  1  0  0  0
 88167  1  0  0  0
M  ISO  4   1 100  68 101  85 101  87 100
M  END
> <chiral flag>
0

> <version>
0

> <s_m_source_file>
/data/baiqing/PycharmProjects/Reinvent-master-3.2/result/LINK_invent/BTK/process_docking_weight1_custom_product_contain_oxygen_bond_distance_aromatic_linkinvent_7_9_3/rearranged_h_0073.sdf

> <i_m_source_file_index>
63

> <r_mmod_Potential_Energy-OPLS-2005>
-69.4833831787109

> <r_mmod_Stretch_Energy-OPLS-2005>
47.8155288696289

> <r_mmod_Bend_Energy-OPLS-2005>
163.567764282227

> <r_mmod_Torsional_Energy-OPLS-2005>
349.629455566406

> <r_mmod_Improper_Torsional_Energy-OPLS-2005>
16.1818733215332

> <r_mmod_Van_der_Waal_Energy-OPLS-2005>
162.688674926758

> <r_mmod_Electrostatic_Energy-OPLS-2005>
-577.862243652344

> <r_mmod_Solvation_Energy-OPLS-2005>
-251.517547607422

> <b_mmod_Minimization_Converged-OPLS-2005>
0

> <r_mmod_RMS_Derivative-OPLS-2005>
5.85248279571533

$$$$
63
                    3D
 Structure written by MMmdl.
161170  0  0  1  0            999 V2000
  -30.6973  -14.5147   20.5728 C   0  0  0  0  0  0
  -30.4322  -12.3413   19.4185 C   0  0  0  0  0  0
  -29.4991  -12.5300   18.2035 C   0  0  0  0  0  0
  -28.0214  -12.3723   18.6191 C   0  0  0  0  0  0
  -27.6608  -13.2081   19.8771 C   0  0  2  0  0  0
  -28.7116  -13.0013   20.9942 C   0  0  0  0  0  0
  -25.2494  -13.8085   20.5675 C   0  0  0  0  0  0
  -24.1790  -13.0349   20.9153 C   0  0  0  0  0  0
  -24.6378  -11.6837   20.8723 C   0  0  0  0  0  0
  -23.9064  -10.4230   21.0368 C   0  0  0  0  0  0
  -24.3603   -9.4161   21.9159 C   0  0  0  0  0  0
  -23.6261   -8.2210   22.0759 C   0  0  0  0  0  0
  -22.4243   -8.0237   21.3556 C   0  0  0  0  0  0
  -21.9884   -9.0207   20.4659 C   0  0  0  0  0  0
  -22.7223  -10.2070   20.3037 C   0  0  0  0  0  0
  -21.6829   -6.0693   22.5272 C   0  0  0  0  0  0
  -21.3983   -6.5613   23.8191 C   0  0  0  0  0  0
  -21.3676   -5.6789   24.9184 C   0  0  0  0  0  0
  -21.6062   -4.3048   24.7248 C   0  0  0  0  0  0
  -21.8824   -3.8117   23.4375 C   0  0  0  0  0  0
  -21.9179   -4.6927   22.3409 C   0  0  0  0  0  0
  -22.7823  -13.5146   21.1837 C   0  0  0  0  0  0
  -22.1636   -4.2103   21.0989 F   0  0  0  0  0  0
  -21.5657   -3.4537   25.7770 F   0  0  0  0  0  0
  -30.0444  -13.3231   20.4441 N   0  0  0  0  0  0
  -26.3009  -12.9315   20.3380 N   0  0  0  0  0  0
  -25.9321  -11.6467   20.5772 N   0  0  0  0  0  0
  -22.0487  -12.8159   22.0410 N   0  0  0  0  0  0
  -25.3995  -15.1807   20.4145 N   0  0  0  0  0  0
  -31.8115  -14.7242   20.0824 O   0  0  0  0  0  0
  -21.6625   -6.8828   21.4233 O   0  0  0  0  0  0
  -22.3516  -14.5484   20.6738 O   0  0  0  0  0  0
  -24.6190  -31.8588   23.2069 C   0  0  0  0  0  0
  -25.9068  -32.4768   23.8371 C   0  0  1  0  0  0
  -27.2568  -27.3998   20.0794 C   0  0  0  0  0  0
  -25.5916  -33.8578   24.2303 N   0  0  0  0  0  0
  -23.4116  -30.4799   21.5454 C   0  0  2  0  0  0
  -24.8629  -28.9446   20.1076 C   0  0  0  0  0  0
  -22.7425  -29.4576   22.4956 C   0  0  0  0  0  0
  -18.0243  -28.1420   22.8470 C   0  0  0  0  0  0
  -24.1483  -36.7285   23.2659 C   0  0  0  0  0  0
  -25.9451  -30.8139   21.3687 C   0  0  0  0  0  0
  -26.0213  -29.4461   20.7108 C   0  0  0  0  0  0
  -27.2111  -28.6777   20.7002 C   0  0  0  0  0  0
  -26.0737  -26.9256   19.4634 C   0  0  0  0  0  0
  -24.8847  -27.6850   19.4840 C   0  0  0  0  0  0
  -23.6225  -29.8105   20.1598 C   0  0  0  0  0  0
  -25.4117  -36.3081   24.0340 C   0  0  1  0  0  0
  -20.5832  -28.3687   23.1303 C   0  0  2  0  0  0
  -20.6767  -26.9420   22.5437 C   0  0  0  0  0  0
  -19.5735  -26.6360   21.5240 C   0  0  0  0  0  0
  -18.1899  -26.7951   22.1618 C   0  0  0  0  0  0
  -19.1498  -28.8868   23.2869 C   0  0  0  0  0  0
  -18.9446  -30.1484   23.8854 C   0  0  0  0  0  0
  -17.6452  -30.6630   24.0526 C   0  0  0  0  0  0
  -25.9032  -34.9434   23.5099 C   0  0  0  0  0  0
  -16.5328  -29.9129   23.6337 C   0  0  0  0  0  0
  -16.7222  -28.6542   23.0354 C   0  0  0  0  0  0
  -26.4521  -31.6594   25.0718 C   0  0  0  0  0  0
  -25.3803  -31.3632   26.1460 C   0  0  0  0  0  0
  -27.0412  -30.3042   24.6175 C   0  0  0  0  0  0
  -27.6074  -32.4375   25.7452 C   0  0  0  0  0  0
  -27.5562  -37.1783   24.8479 C   0  0  0  0  0  0
  -21.4140  -29.3014   22.3708 N   0  0  0  0  0  0
  -26.4269  -37.3786   23.9430 N   0  0  0  0  0  0
  -24.6764  -31.0667   22.0983 N   0  0  0  0  0  0
  -23.4158  -28.8111   23.3028 O   0  0  0  0  0  0
  -28.4419  -26.6688   20.1248 O   0  0  0  0  0  0
  -26.5567  -34.8871   22.4655 O   0  0  0  0  0  0
  -23.5375  -32.1354   23.7434 O   0  0  0  0  0  0
  -30.8608  -19.1752   20.7386 C   0  0  0  0  0  0
  -31.0467  -17.7849   20.9899 C   0  0  0  0  0  0
  -28.5158  -18.7828   20.3093 C   0  0  0  0  0  0
  -29.5889  -19.7119   20.3837 C   0  0  0  0  0  0
  -29.9593  -16.8811   20.8885 C   0  0  0  0  0  0
  -28.7017  -17.4057   20.5405 C   0  0  0  0  0  0
  -28.6235  -21.5547   19.0565 C   0  0  0  0  0  0
  -28.4989  -23.0572   18.7257 C   0  0  0  0  0  0
  -29.8519  -23.6497   20.6726 C   0  0  0  0  0  0
  -29.9513  -22.1328   21.0567 C   0  0  0  0  0  0
  -28.5731  -24.0619   19.9016 C   0  0  2  0  0  0
  -27.3258  -23.9731   20.8055 C   0  0  0  0  0  0
  -28.6674  -25.5132   19.2767 C   0  0  0  0  0  0
  -29.3827  -21.1353   20.1118 N   0  0  0  0  0  0
  -30.0048  -15.4814   21.2055 N   0  0  0  0  0  0
  -28.0509  -20.7761   18.2857 O   0  0  0  0  0  0
  -27.6511  -16.5634   20.4295 F   0  0  0  0  0  0
  -31.4763  -12.4539   19.1181 H   0  0  0  0  0  0
  -30.3401  -11.3289   19.8148 H   0  0  0  0  0  0
  -29.7508  -11.8071   17.4284 H   0  0  0  0  0  0
  -29.6550  -13.5194   17.7655 H   0  0  0  0  0  0
  -27.8459  -11.3138   18.8169 H   0  0  0  0  0  0
  -27.3627  -12.6472   17.7942 H   0  0  0  0  0  0
  -27.6947  -14.2553   19.5756 H   0  0  0  0  0  0
  -28.6997  -11.9651   21.3354 H   0  0  0  0  0  0
  -28.4660  -13.5958   21.8742 H   0  0  0  0  0  0
  -25.2732   -9.5659   22.4760 H   0  0  0  0  0  0
  -23.9974   -7.4601   22.7482 H   0  0  0  0  0  0
  -21.0810   -8.8695   19.8970 H   0  0  0  0  0  0
  -22.3638  -10.9605   19.6159 H   0  0  0  0  0  0
  -21.1930   -7.6106   23.9684 H   0  0  0  0  0  0
  -21.1513   -6.0519   25.9077 H   0  0  0  0  0  0
  -22.0596   -2.7580   23.2893 H   0  0  0  0  0  0
  -22.4080  -11.9795   22.4791 H   0  0  0  0  0  0
  -21.1097  -13.1193   22.2558 H   0  0  0  0  0  0
  -24.6411  -15.8258   20.5980 H   0  0  0  0  0  0
  -26.2868  -15.6537   20.2500 H   0  0  0  0  0  0
  -26.7121  -32.5431   23.1097 H   0  0  0  0  0  0
  -25.0163  -33.9817   25.0512 H   0  0  0  0  0  0
  -22.7052  -31.3005   21.4010 H   0  0  0  0  0  0
  -23.3732  -35.9633   23.3339 H   0  0  0  0  0  0
  -24.3542  -36.8879   22.2061 H   0  0  0  0  0  0
  -23.7206  -37.6481   23.6667 H   0  0  0  0  0  0
  -26.0754  -31.5862   20.6105 H   0  0  0  0  0  0
  -26.8276  -30.8574   21.9953 H   0  0  0  0  0  0
  -28.1020  -29.0720   21.1694 H   0  0  0  0  0  0
  -26.0429  -25.9669   18.9687 H   0  0  0  0  0  0
  -23.9923  -27.2981   19.0117 H   0  0  0  0  0  0
  -23.7239  -30.5835   19.3979 H   0  0  0  0  0  0
  -22.7496  -29.2237   19.8660 H   0  0  0  0  0  0
  -25.1305  -36.1926   25.0829 H   0  0  0  0  0  0
  -20.9857  -28.3295   24.1455 H   0  0  0  0  0  0
  -20.5674  -26.2327   23.3676 H   0  0  0  0  0  0
  -21.6662  -26.7499   22.1246 H   0  0  0  0  0  0
  -19.6900  -25.6247   21.1346 H   0  0  0  0  0  0
  -19.6674  -27.3147   20.6756 H   0  0  0  0  0  0
  -17.4196  -26.6643   21.4012 H   0  0  0  0  0  0
  -18.0256  -26.0157   22.9066 H   0  0  0  0  0  0
  -19.7932  -30.7300   24.2209 H   0  0  0  0  0  0
  -17.5020  -31.6307   24.5151 H   0  0  0  0  0  0
  -15.5338  -30.3012   23.7735 H   0  0  0  0  0  0
  -15.8614  -28.0846   22.7118 H   0  0  0  0  0  0
  -24.6011  -30.6967   25.7755 H   0  0  0  0  0  0
  -24.8978  -32.2753   26.4976 H   0  0  0  0  0  0
  -25.8199  -30.8724   27.0155 H   0  0  0  0  0  0
  -26.2985  -29.6667   24.1358 H   0  0  0  0  0  0
  -27.4298  -29.7417   25.4680 H   0  0  0  0  0  0
  -27.8775  -30.4367   23.9304 H   0  0  0  0  0  0
  -27.2701  -33.3697   26.2002 H   0  0  0  0  0  0
  -28.3866  -32.6893   25.0245 H   0  0  0  0  0  0
  -28.0777  -31.8507   26.5360 H   0  0  0  0  0  0
  -28.2606  -38.0065   24.7560 H   0  0  0  0  0  0
  -28.1023  -36.2584   24.6309 H   0  0  0  0  0  0
  -27.2264  -37.1465   25.8878 H   0  0  0  0  0  0
  -20.9332  -29.8658   21.6838 H   0  0  0  0  0  0
  -26.0126  -38.2838   24.1484 H   0  0  0  0  0  0
  -31.7225  -19.8235   20.8107 H   0  0  0  0  0  0
  -32.0256  -17.4249   21.2754 H   0  0  0  0  0  0
  -27.5142  -19.1098   20.0698 H   0  0  0  0  0  0
  -27.5825  -23.2194   18.1555 H   0  0  0  0  0  0
  -29.3156  -23.2684   18.0356 H   0  0  0  0  0  0
  -30.7242  -23.8900   20.0608 H   0  0  0  0  0  0
  -29.9548  -24.2615   21.5694 H   0  0  0  0  0  0
  -29.4438  -21.9823   22.0086 H   0  0  0  0  0  0
  -30.9991  -21.9023   21.2468 H   0  0  0  0  0  0
  -27.2466  -23.0147   21.3179 H   0  0  0  0  0  0
  -26.4081  -24.1029   20.2320 H   0  0  0  0  0  0
  -27.3468  -24.7579   21.5654 H   0  0  0  0  0  0
  -28.0568  -25.5791   18.3770 H   0  0  0  0  0  0
  -29.6805  -25.6363   18.8881 H   0  0  0  0  0  0
  -29.1241  -15.1272   21.5504 H   0  0  0  0  0  0
  1 25  1  0  0  0
  1 30  2  0  0  0
  1 85  1  0  0  0
  2  3  1  0  0  0
  2 25  1  0  0  0
  2 88  1  0  0  0
  2 89  1  0  0  0
  3  4  1  0  0  0
  3 90  1  0  0  0
  3 91  1  0  0  0
  4  5  1  0  0  0
  4 92  1  0  0  0
  4 93  1  0  0  0
  5  6  1  0  0  0
  5 26  1  0  0  0
  5 94  1  0  0  0
  6 25  1  0  0  0
  6 95  1  0  0  0
  6 96  1  0  0  0
  7  8  2  0  0  0
  7 26  1  0  0  0
  7 29  1  0  0  0
  8  9  1  0  0  0
  8 22  1  0  0  0
  9 10  1  0  0  0
  9 27  2  0  0  0
 10 11  2  0  0  0
 10 15  1  0  0  0
 11 12  1  0  0  0
 11 97  1  0  0  0
 12 13  2  0  0  0
 12 98  1  0  0  0
 13 14  1  0  0  0
 13 31  1  0  0  0
 14 15  2  0  0  0
 14 99  1  0  0  0
 15100  1  0  0  0
 16 17  2  0  0  0
 16 21  1  0  0  0
 16 31  1  0  0  0
 17 18  1  0  0  0
 17101  1  0  0  0
 18 19  2  0  0  0
 18102  1  0  0  0
 19 20  1  0  0  0
 19 24  1  0  0  0
 20 21  2  0  0  0
 20103  1  0  0  0
 21 23  1  0  0  0
 22 28  1  0  0  0
 22 32  2  0  0  0
 26 27  1  0  0  0
 28104  1  0  0  0
 28105  1  0  0  0
 29106  1  0  0  0
 29107  1  0  0  0
 33 34  1  0  0  0
 33 66  1  0  0  0
 33 70  2  0  0  0
 34 36  1  0  0  0
 34 59  1  0  0  0
 34108  1  0  0  0
 35 44  2  0  0  0
 35 45  1  0  0  0
 35 68  1  0  0  0
 36 56  1  0  0  0
 36109  1  0  0  0
 37 39  1  0  0  0
 37 47  1  0  0  0
 37 66  1  0  0  0
 37110  1  0  0  0
 38 43  2  0  0  0
 38 46  1  0  0  0
 38 47  1  0  0  0
 39 64  1  0  0  0
 39 67  2  0  0  0
 40 52  1  0  0  0
 40 53  2  0  0  0
 40 58  1  0  0  0
 41111  1  0  0  0
 41112  1  0  0  0
 41113  1  0  0  0
 41 48  1  0  0  0
 42 43  1  0  0  0
 42 66  1  0  0  0
 42114  1  0  0  0
 42115  1  0  0  0
 43 44  1  0  0  0
 44116  1  0  0  0
 45 46  2  0  0  0
 45117  1  0  0  0
 46118  1  0  0  0
 47119  1  0  0  0
 47120  1  0  0  0
 48 56  1  0  0  0
 48 65  1  0  0  0
 48121  1  0  0  0
 49 50  1  0  0  0
 49 53  1  0  0  0
 49 64  1  0  0  0
 49122  1  0  0  0
 50 51  1  0  0  0
 50123  1  0  0  0
 50124  1  0  0  0
 51 52  1  0  0  0
 51125  1  0  0  0
 51126  1  0  0  0
 52127  1  0  0  0
 52128  1  0  0  0
 53 54  1  0  0  0
 54 55  2  0  0  0
 54129  1  0  0  0
 55 57  1  0  0  0
 55130  1  0  0  0
 56 69  2  0  0  0
 57 58  2  0  0  0
 57131  1  0  0  0
 58132  1  0  0  0
 59 60  1  0  0  0
 59 61  1  0  0  0
 59 62  1  0  0  0
 60133  1  0  0  0
 60134  1  0  0  0
 60135  1  0  0  0
 61136  1  0  0  0
 61137  1  0  0  0
 61138  1  0  0  0
 62139  1  0  0  0
 62140  1  0  0  0
 62141  1  0  0  0
 63 65  1  0  0  0
 63142  1  0  0  0
 63143  1  0  0  0
 63144  1  0  0  0
 64145  1  0  0  0
 65146  1  0  0  0
 68 83  1  0  0  0
 71 72  2  0  0  0
 71 74  1  0  0  0
 71147  1  0  0  0
 72 75  1  0  0  0
 72148  1  0  0  0
 73 74  2  0  0  0
 73 76  1  0  0  0
 73149  1  0  0  0
 74 84  1  0  0  0
 75 76  2  0  0  0
 75 85  1  0  0  0
 76 87  1  0  0  0
 77 78  1  0  0  0
 77 84  1  0  0  0
 77 86  2  0  0  0
 78 81  1  0  0  0
 78150  1  0  0  0
 78151  1  0  0  0
 79 80  1  0  0  0
 79 81  1  0  0  0
 79152  1  0  0  0
 79153  1  0  0  0
 80 84  1  0  0  0
 80154  1  0  0  0
 80155  1  0  0  0
 81 82  1  0  0  0
 81 83  1  0  0  0
 82156  1  0  0  0
 82157  1  0  0  0
 82158  1  0  0  0
 83159  1  0  0  0
 83160  1  0  0  0
 85161  1  0  0  0
M  ISO  4   1 100  68 101  83 101  85 100
M  END
> <chiral flag>
0

> <version>
0

> <s_m_source_file>
/data/baiqing/PycharmProjects/Reinvent-master-3.2/result/LINK_invent/BTK/process_docking_weight1_custom_product_contain_oxygen_bond_distance_aromatic_linkinvent_7_9_3/rearranged_h_0073.sdf

> <i_m_source_file_index>
64

> <r_mmod_Potential_Energy-OPLS-2005>
65.7470169067383

> <r_mmod_Stretch_Energy-OPLS-2005>
58.065788269043

> <r_mmod_Bend_Energy-OPLS-2005>
140.55500793457

> <r_mmod_Torsional_Energy-OPLS-2005>
282.547546386719

> <r_mmod_Improper_Torsional_Energy-OPLS-2005>
5.72522735595703

> <r_mmod_Van_der_Waal_Energy-OPLS-2005>
167.121276855469

> <r_mmod_Electrostatic_Energy-OPLS-2005>
-400.455017089844

> <r_mmod_Solvation_Energy-OPLS-2005>
-206.158615112305

> <b_mmod_Minimization_Converged-OPLS-2005>
0

> <r_mmod_RMS_Derivative-OPLS-2005>
4.2829442024231

$$$$
64
                    3D
 Structure written by MMmdl.
172181  0  0  1  0            999 V2000
  -30.8223  -14.4524   20.4081 C   0  0  0  0  0  0
  -30.3824  -12.2596   19.4443 C   0  0  0  0  0  0
  -29.4803  -12.4202   18.2077 C   0  0  0  0  0  0
  -28.0032  -12.3173   18.6277 C   0  0  0  0  0  0
  -27.6405  -13.2253   19.8346 C   0  0  2  0  0  0
  -28.6980  -13.1497   20.9598 C   0  0  0  0  0  0
  -25.2418  -13.8121   20.5671 C   0  0  0  0  0  0
  -24.1755  -13.0392   20.9267 C   0  0  0  0  0  0
  -24.6390  -11.6898   20.8784 C   0  0  0  0  0  0
  -23.9071  -10.4304   21.0414 C   0  0  0  0  0  0
  -24.3614   -9.4230   21.9200 C   0  0  0  0  0  0
  -23.6297   -8.2264   22.0734 C   0  0  0  0  0  0
  -22.4285   -8.0308   21.3529 C   0  0  0  0  0  0
  -21.9926   -9.0281   20.4635 C   0  0  0  0  0  0
  -22.7241  -10.2169   20.3057 C   0  0  0  0  0  0
  -21.6869   -6.0768   22.5271 C   0  0  0  0  0  0
  -21.4026   -6.5657   23.8214 C   0  0  0  0  0  0
  -21.3633   -5.6793   24.9168 C   0  0  0  0  0  0
  -21.6016   -4.3056   24.7209 C   0  0  0  0  0  0
  -21.8831   -3.8167   23.4334 C   0  0  0  0  0  0
  -21.9210   -4.6995   22.3400 C   0  0  0  0  0  0
  -22.7756  -13.5142   21.1898 C   0  0  0  0  0  0
  -22.1678   -4.2185   21.0981 F   0  0  0  0  0  0
  -21.5606   -3.4543   25.7722 F   0  0  0  0  0  0
  -30.0306  -13.3455   20.3770 N   0  0  0  0  0  0
  -26.2927  -12.9410   20.3277 N   0  0  0  0  0  0
  -25.9326  -11.6558   20.5798 N   0  0  0  0  0  0
  -22.0423  -12.8127   22.0446 N   0  0  0  0  0  0
  -25.3879  -15.1806   20.3975 N   0  0  0  0  0  0
  -32.0354  -14.3294   20.2749 O   0  0  0  0  0  0
  -21.6650   -6.8916   21.4230 O   0  0  0  0  0  0
  -22.3446  -14.5463   20.6768 O   0  0  0  0  0  0
  -24.6095  -31.8725   23.2148 C   0  0  0  0  0  0
  -25.9005  -32.4868   23.8426 C   0  0  1  0  0  0
  -27.2395  -27.4749   20.1009 C   0  0  0  0  0  0
  -25.5883  -33.8659   24.2370 N   0  0  0  0  0  0
  -23.3962  -30.4894   21.5590 C   0  0  2  0  0  0
  -24.8400  -28.9576   20.1174 C   0  0  0  0  0  0
  -22.7416  -29.4637   22.5098 C   0  0  0  0  0  0
  -18.0281  -28.1382   22.8497 C   0  0  0  0  0  0
  -24.1488  -36.7323   23.2630 C   0  0  0  0  0  0
  -25.9146  -30.8491   21.3567 C   0  0  0  0  0  0
  -25.9941  -29.4835   20.7119 C   0  0  0  0  0  0
  -27.1960  -28.7495   20.6960 C   0  0  0  0  0  0
  -26.0758  -26.9570   19.4901 C   0  0  0  0  0  0
  -24.8745  -27.6917   19.5044 C   0  0  0  0  0  0
  -23.5991  -29.8166   20.1736 C   0  0  0  0  0  0
  -25.4113  -36.3134   24.0339 C   0  0  1  0  0  0
  -20.5861  -28.3629   23.1387 C   0  0  2  0  0  0
  -20.6770  -26.9403   22.5421 C   0  0  0  0  0  0
  -19.5776  -26.6439   21.5190 C   0  0  0  0  0  0
  -18.1929  -26.7954   22.1556 C   0  0  0  0  0  0
  -19.1534  -28.8814   23.2955 C   0  0  0  0  0  0
  -18.9469  -30.1435   23.8940 C   0  0  0  0  0  0
  -17.6481  -30.6580   24.0581 C   0  0  0  0  0  0
  -25.9030  -34.9503   23.5153 C   0  0  0  0  0  0
  -16.5365  -29.9077   23.6364 C   0  0  0  0  0  0
  -16.7285  -28.6513   23.0349 C   0  0  0  0  0  0
  -26.4460  -31.6627   25.0738 C   0  0  0  0  0  0
  -25.3734  -31.3731   26.1495 C   0  0  0  0  0  0
  -27.0276  -30.3085   24.6057 C   0  0  0  0  0  0
  -27.6048  -32.4336   25.7503 C   0  0  0  0  0  0
  -27.5589  -37.1824   24.8466 C   0  0  0  0  0  0
  -21.4135  -29.3058   22.3882 N   0  0  0  0  0  0
  -26.4305  -37.3806   23.9409 N   0  0  0  0  0  0
  -24.6587  -31.0830   22.1054 N   0  0  0  0  0  0
  -23.4209  -28.8149   23.3079 O   0  0  0  0  0  0
  -28.4408  -26.8128   20.1056 O   0  0  0  0  0  0
  -26.5561  -34.8939   22.4702 O   0  0  0  0  0  0
  -23.5293  -32.1451   23.7564 O   0  0  0  0  0  0
  -28.9926  -19.4763   20.4122 C   0  0  0  0  0  0
  -28.8943  -20.8320   20.7507 C   0  0  0  0  0  0
  -26.9316  -20.3412   22.1016 C   0  0  0  0  0  0
  -28.0754  -18.5320   20.9183 C   0  0  0  0  0  0
  -27.0258  -18.9731   21.7636 C   0  0  0  0  0  0
  -27.8608  -21.2806   21.6011 C   0  0  0  0  0  0
  -28.7063  -23.5643   21.9845 C   0  0  0  0  0  0
  -28.1919  -17.1242   20.4234 C   0  0  0  0  0  0
  -26.7005  -24.7978   22.1584 C   0  0  0  0  0  0
  -26.4054  -23.3276   21.8452 C   0  0  0  0  0  0
  -28.1925  -24.9968   21.8321 C   0  0  1  0  0  0
  -25.9542  -18.0336   22.2894 C   0  0  0  0  0  0
  -28.8818  -25.9515   22.8347 C   0  0  0  0  0  0
  -30.1752  -16.0382   18.5921 C   0  0  0  0  0  0
  -31.5155  -16.8704   20.5290 C   0  0  0  0  0  0
  -28.4644  -25.4084   20.3515 C   0  0  0  0  0  0
  -30.3457  -15.9159   20.1362 C   0  0  0  0  0  0
  -27.7071  -22.6714   21.8706 N   0  0  0  0  0  0
  -29.2039  -16.4030   20.9307 N   0  0  0  0  0  0
  -29.8956  -23.3050   22.2041 O   0  0  0  0  0  0
  -27.4907  -16.7588   19.4827 O   0  0  0  0  0  0
  -30.2217  -11.2873   19.9167 H   0  0  0  0  0  0
  -31.4304  -12.2638   19.1390 H   0  0  0  0  0  0
  -29.7064  -11.6463   17.4723 H   0  0  0  0  0  0
  -29.6795  -13.3649   17.7056 H   0  0  0  0  0  0
  -27.8268  -11.2747   18.8930 H   0  0  0  0  0  0
  -27.3539  -12.5322   17.7782 H   0  0  0  0  0  0
  -27.6417  -14.2435   19.4526 H   0  0  0  0  0  0
  -28.4984  -13.8945   21.7293 H   0  0  0  0  0  0
  -28.6635  -12.1780   21.4560 H   0  0  0  0  0  0
  -25.2770   -9.5723   22.4778 H   0  0  0  0  0  0
  -24.0040   -7.4631   22.7407 H   0  0  0  0  0  0
  -21.0896   -8.8795   19.8897 H   0  0  0  0  0  0
  -22.3711  -10.9724   19.6168 H   0  0  0  0  0  0
  -21.2044   -7.6171   23.9731 H   0  0  0  0  0  0
  -21.1405   -6.0524   25.9070 H   0  0  0  0  0  0
  -22.0637   -2.7646   23.2812 H   0  0  0  0  0  0
  -22.4096  -11.9787   22.4838 H   0  0  0  0  0  0
  -21.1020  -13.1109   22.2643 H   0  0  0  0  0  0
  -24.6002  -15.8112   20.4833 H   0  0  0  0  0  0
  -26.2030  -15.6330   19.9782 H   0  0  0  0  0  0
  -26.7090  -32.5597   23.1205 H   0  0  0  0  0  0
  -25.0117  -33.9844   25.0568 H   0  0  0  0  0  0
  -22.6800  -31.3033   21.4284 H   0  0  0  0  0  0
  -23.3747  -35.9649   23.3305 H   0  0  0  0  0  0
  -24.3555  -36.8919   22.2034 H   0  0  0  0  0  0
  -23.7254  -37.6546   23.6623 H   0  0  0  0  0  0
  -26.0046  -31.6116   20.5814 H   0  0  0  0  0  0
  -26.8112  -30.9151   21.9632 H   0  0  0  0  0  0
  -28.0947  -29.1576   21.1392 H   0  0  0  0  0  0
  -26.0966  -25.9997   18.9914 H   0  0  0  0  0  0
  -23.9884  -27.2837   19.0355 H   0  0  0  0  0  0
  -23.6930  -30.5888   19.4092 H   0  0  0  0  0  0
  -22.7284  -29.2214   19.8925 H   0  0  0  0  0  0
  -25.1296  -36.2004   25.0826 H   0  0  0  0  0  0
  -20.9937  -28.3099   24.1503 H   0  0  0  0  0  0
  -20.5624  -26.2269   23.3568 H   0  0  0  0  0  0
  -21.6657  -26.7443   22.1257 H   0  0  0  0  0  0
  -19.6982  -25.6379   21.1176 H   0  0  0  0  0  0
  -19.6727  -27.3329   20.6776 H   0  0  0  0  0  0
  -17.4236  -26.6773   21.3904 H   0  0  0  0  0  0
  -18.0241  -26.0053   22.8891 H   0  0  0  0  0  0
  -19.7968  -30.7231   24.2302 H   0  0  0  0  0  0
  -17.5039  -31.6266   24.5174 H   0  0  0  0  0  0
  -15.5369  -30.2985   23.7644 H   0  0  0  0  0  0
  -15.8679  -28.0859   22.7022 H   0  0  0  0  0  0
  -24.5887  -30.7115   25.7830 H   0  0  0  0  0  0
  -24.8946  -32.2890   26.4964 H   0  0  0  0  0  0
  -25.8061  -30.8880   27.0249 H   0  0  0  0  0  0
  -26.2814  -29.6888   24.1086 H   0  0  0  0  0  0
  -27.4063  -29.7278   25.4474 H   0  0  0  0  0  0
  -27.8626  -30.4460   23.9185 H   0  0  0  0  0  0
  -27.2681  -33.3609   26.2143 H   0  0  0  0  0  0
  -28.3812  -32.6940   25.0303 H   0  0  0  0  0  0
  -28.0757  -31.8427   26.5364 H   0  0  0  0  0  0
  -28.2633  -38.0102   24.7508 H   0  0  0  0  0  0
  -28.1068  -36.2639   24.6299 H   0  0  0  0  0  0
  -27.2300  -37.1498   25.8868 H   0  0  0  0  0  0
  -20.9283  -29.8874   21.7191 H   0  0  0  0  0  0
  -26.0198  -38.2893   24.1373 H   0  0  0  0  0  0
  -29.7565  -19.1739   19.7076 H   0  0  0  0  0  0
  -29.5963  -21.5281   20.3112 H   0  0  0  0  0  0
  -26.1220  -20.6671   22.7391 H   0  0  0  0  0  0
  -26.5166  -24.9790   23.2196 H   0  0  0  0  0  0
  -26.0354  -25.4697   21.6239 H   0  0  0  0  0  0
  -25.9769  -23.2261   20.8470 H   0  0  0  0  0  0
  -25.7006  -22.9047   22.5598 H   0  0  0  0  0  0
  -26.3693  -17.0728   22.5941 H   0  0  0  0  0  0
  -25.2044  -17.8583   21.5187 H   0  0  0  0  0  0
  -25.4520  -18.4675   23.1554 H   0  0  0  0  0  0
  -28.8782  -25.5466   23.8474 H   0  0  0  0  0  0
  -28.3747  -26.9156   22.8712 H   0  0  0  0  0  0
  -29.9227  -26.1312   22.5648 H   0  0  0  0  0  0
  -30.0794  -17.0759   18.2710 H   0  0  0  0  0  0
  -29.2958  -15.5058   18.2321 H   0  0  0  0  0  0
  -31.0302  -15.6262   18.0524 H   0  0  0  0  0  0
  -31.2712  -17.9238   20.4561 H   0  0  0  0  0  0
  -31.8454  -16.6943   21.5527 H   0  0  0  0  0  0
  -32.3859  -16.7305   19.8840 H   0  0  0  0  0  0
  -27.8237  -24.8573   19.6647 H   0  0  0  0  0  0
  -29.4775  -25.1093   20.0757 H   0  0  0  0  0  0
  -29.4920  -16.7294   21.8433 H   0  0  0  0  0  0
  1 25  1  0  0  0
  1 30  2  0  0  0
  1 87  1  0  0  0
  2  3  1  0  0  0
  2 25  1  0  0  0
  2 92  1  0  0  0
  2 93  1  0  0  0
  3  4  1  0  0  0
  3 94  1  0  0  0
  3 95  1  0  0  0
  4  5  1  0  0  0
  4 96  1  0  0  0
  4 97  1  0  0  0
  5  6  1  0  0  0
  5 26  1  0  0  0
  5 98  1  0  0  0
  6 25  1  0  0  0
  6 99  1  0  0  0
  6100  1  0  0  0
  7  8  2  0  0  0
  7 26  1  0  0  0
  7 29  1  0  0  0
  8  9  1  0  0  0
  8 22  1  0  0  0
  9 10  1  0  0  0
  9 27  2  0  0  0
 10 11  2  0  0  0
 10 15  1  0  0  0
 11 12  1  0  0  0
 11101  1  0  0  0
 12 13  2  0  0  0
 12102  1  0  0  0
 13 14  1  0  0  0
 13 31  1  0  0  0
 14 15  2  0  0  0
 14103  1  0  0  0
 15104  1  0  0  0
 16 17  2  0  0  0
 16 21  1  0  0  0
 16 31  1  0  0  0
 17 18  1  0  0  0
 17105  1  0  0  0
 18 19  2  0  0  0
 18106  1  0  0  0
 19 20  1  0  0  0
 19 24  1  0  0  0
 20 21  2  0  0  0
 20107  1  0  0  0
 21 23  1  0  0  0
 22 28  1  0  0  0
 22 32  2  0  0  0
 26 27  1  0  0  0
 28108  1  0  0  0
 28109  1  0  0  0
 29110  1  0  0  0
 29111  1  0  0  0
 33 34  1  0  0  0
 33 66  1  0  0  0
 33 70  2  0  0  0
 34 36  1  0  0  0
 34 59  1  0  0  0
 34112  1  0  0  0
 35 44  2  0  0  0
 35 45  1  0  0  0
 35 68  1  0  0  0
 36 56  1  0  0  0
 36113  1  0  0  0
 37 39  1  0  0  0
 37 47  1  0  0  0
 37 66  1  0  0  0
 37114  1  0  0  0
 38 43  2  0  0  0
 38 46  1  0  0  0
 38 47  1  0  0  0
 39 64  1  0  0  0
 39 67  2  0  0  0
 40 52  1  0  0  0
 40 53  2  0  0  0
 40 58  1  0  0  0
 41115  1  0  0  0
 41116  1  0  0  0
 41117  1  0  0  0
 41 48  1  0  0  0
 42 43  1  0  0  0
 42 66  1  0  0  0
 42118  1  0  0  0
 42119  1  0  0  0
 43 44  1  0  0  0
 44120  1  0  0  0
 45 46  2  0  0  0
 45121  1  0  0  0
 46122  1  0  0  0
 47123  1  0  0  0
 47124  1  0  0  0
 48 56  1  0  0  0
 48 65  1  0  0  0
 48125  1  0  0  0
 49 50  1  0  0  0
 49 53  1  0  0  0
 49 64  1  0  0  0
 49126  1  0  0  0
 50 51  1  0  0  0
 50127  1  0  0  0
 50128  1  0  0  0
 51 52  1  0  0  0
 51129  1  0  0  0
 51130  1  0  0  0
 52131  1  0  0  0
 52132  1  0  0  0
 53 54  1  0  0  0
 54 55  2  0  0  0
 54133  1  0  0  0
 55 57  1  0  0  0
 55134  1  0  0  0
 56 69  2  0  0  0
 57 58  2  0  0  0
 57135  1  0  0  0
 58136  1  0  0  0
 59 60  1  0  0  0
 59 61  1  0  0  0
 59 62  1  0  0  0
 60137  1  0  0  0
 60138  1  0  0  0
 60139  1  0  0  0
 61140  1  0  0  0
 61141  1  0  0  0
 61142  1  0  0  0
 62143  1  0  0  0
 62144  1  0  0  0
 62145  1  0  0  0
 63 65  1  0  0  0
 63146  1  0  0  0
 63147  1  0  0  0
 63148  1  0  0  0
 64149  1  0  0  0
 65150  1  0  0  0
 68 86  1  0  0  0
 71 72  2  0  0  0
 71 74  1  0  0  0
 71151  1  0  0  0
 72 76  1  0  0  0
 72152  1  0  0  0
 73 75  1  0  0  0
 73 76  2  0  0  0
 73153  1  0  0  0
 74 75  2  0  0  0
 74 78  1  0  0  0
 75 82  1  0  0  0
 76 88  1  0  0  0
 77 81  1  0  0  0
 77 88  1  0  0  0
 77 90  2  0  0  0
 78 89  1  0  0  0
 78 91  2  0  0  0
 79 80  1  0  0  0
 79 81  1  0  0  0
 79154  1  0  0  0
 79155  1  0  0  0
 80 88  1  0  0  0
 80156  1  0  0  0
 80157  1  0  0  0
 81 83  1  0  0  0
 81 86  1  0  0  0
 82158  1  0  0  0
 82159  1  0  0  0
 82160  1  0  0  0
 83161  1  0  0  0
 83162  1  0  0  0
 83163  1  0  0  0
 84164  1  0  0  0
 84165  1  0  0  0
 84166  1  0  0  0
 84 87  1  0  0  0
 85 87  1  0  0  0
 85167  1  0  0  0
 85168  1  0  0  0
 85169  1  0  0  0
 86170  1  0  0  0
 86171  1  0  0  0
 87 89  1  0  0  0
 89172  1  0  0  0
M  ISO  4   1 100  68 101  86 101  87 100
M  END
> <chiral flag>
0

> <version>
0

> <s_m_source_file>
/data/baiqing/PycharmProjects/Reinvent-master-3.2/result/LINK_invent/BTK/process_docking_weight1_custom_product_contain_oxygen_bond_distance_aromatic_linkinvent_7_9_3/rearranged_h_0073.sdf

> <i_m_source_file_index>
65

> <r_mmod_Potential_Energy-OPLS-2005>
228.827896118164

> <r_mmod_Stretch_Energy-OPLS-2005>
38.5507278442383

> <r_mmod_Bend_Energy-OPLS-2005>
163.056137084961

> <r_mmod_Torsional_Energy-OPLS-2005>
351.068572998047

> <r_mmod_Improper_Torsional_Energy-OPLS-2005>
19.2576999664307

> <r_mmod_Van_der_Waal_Energy-OPLS-2005>
163.690444946289

> <r_mmod_Electrostatic_Energy-OPLS-2005>
-357.826904296875

> <r_mmod_Solvation_Energy-OPLS-2005>
-196.77946472168

> <b_mmod_Minimization_Converged-OPLS-2005>
0

> <r_mmod_RMS_Derivative-OPLS-2005>
4.51457595825195

$$$$
65
                    3D
 Structure written by MMmdl.
153162  0  0  1  0            999 V2000
  -30.6231  -14.7695   20.4320 C   0  0  0  0  0  0
  -30.4227  -12.4671   19.4926 C   0  0  0  0  0  0
  -29.5153  -12.5242   18.2444 C   0  0  0  0  0  0
  -28.0386  -12.3451   18.6482 C   0  0  0  0  0  0
  -27.6366  -13.2459   19.8474 C   0  0  2  0  0  0
  -28.6780  -13.2085   20.9871 C   0  0  0  0  0  0
  -25.2486  -13.8217   20.5733 C   0  0  0  0  0  0
  -24.1790  -13.0447   20.9249 C   0  0  0  0  0  0
  -24.6397  -11.6931   20.8770 C   0  0  0  0  0  0
  -23.9081  -10.4296   21.0439 C   0  0  0  0  0  0
  -24.3623   -9.4209   21.9221 C   0  0  0  0  0  0
  -23.6306   -8.2236   22.0784 C   0  0  0  0  0  0
  -22.4291   -8.0287   21.3571 C   0  0  0  0  0  0
  -21.9930   -9.0253   20.4682 C   0  0  0  0  0  0
  -22.7254  -10.2130   20.3091 C   0  0  0  0  0  0
  -21.6857   -6.0755   22.5268 C   0  0  0  0  0  0
  -21.4019   -6.5660   23.8200 C   0  0  0  0  0  0
  -21.3663   -5.6804   24.9163 C   0  0  0  0  0  0
  -21.6032   -4.3065   24.7209 C   0  0  0  0  0  0
  -21.8809   -3.8171   23.4330 C   0  0  0  0  0  0
  -21.9184   -4.6988   22.3394 C   0  0  0  0  0  0
  -22.7797  -13.5236   21.1861 C   0  0  0  0  0  0
  -22.1655   -4.2178   21.0963 F   0  0  0  0  0  0
  -21.5626   -3.4553   25.7724 F   0  0  0  0  0  0
  -29.9814  -13.5496   20.4033 N   0  0  0  0  0  0
  -26.2910  -12.9451   20.3275 N   0  0  0  0  0  0
  -25.9330  -11.6582   20.5749 N   0  0  0  0  0  0
  -22.0424  -12.8246   22.0405 N   0  0  0  0  0  0
  -25.4162  -15.1943   20.4162 N   0  0  0  0  0  0
  -31.8339  -14.8066   20.2060 O   0  0  0  0  0  0
  -21.6650   -6.8890   21.4229 O   0  0  0  0  0  0
  -22.3484  -14.5532   20.6681 O   0  0  0  0  0  0
  -24.6337  -31.8525   23.1949 C   0  0  0  0  0  0
  -25.9152  -32.4735   23.8300 C   0  0  1  0  0  0
  -27.2230  -27.2435   20.1224 C   0  0  0  0  0  0
  -25.5929  -33.8536   24.2233 N   0  0  0  0  0  0
  -23.4301  -30.4721   21.5421 C   0  0  2  0  0  0
  -24.8768  -28.9161   20.1076 C   0  0  0  0  0  0
  -22.7513  -29.4572   22.4938 C   0  0  0  0  0  0
  -18.0298  -28.1366   22.8506 C   0  0  0  0  0  0
  -24.1488  -36.7262   23.2639 C   0  0  0  0  0  0
  -25.9765  -30.7582   21.3797 C   0  0  0  0  0  0
  -26.0477  -29.3792   20.7198 C   0  0  0  0  0  0
  -27.2179  -28.5533   20.7199 C   0  0  0  0  0  0
  -26.0193  -26.8466   19.4962 C   0  0  0  0  0  0
  -24.8689  -27.6584   19.4868 C   0  0  0  0  0  0
  -23.6468  -29.8024   20.1595 C   0  0  0  0  0  0
  -25.4116  -36.3052   24.0328 C   0  0  1  0  0  0
  -20.5900  -28.3677   23.1290 C   0  0  2  0  0  0
  -20.6787  -26.9399   22.5410 C   0  0  0  0  0  0
  -19.5748  -26.6378   21.5223 C   0  0  0  0  0  0
  -18.1933  -26.7911   22.1642 C   0  0  0  0  0  0
  -19.1549  -28.8838   23.2886 C   0  0  0  0  0  0
  -18.9471  -30.1453   23.8884 C   0  0  0  0  0  0
  -17.6458  -30.6568   24.0566 C   0  0  0  0  0  0
  -25.9059  -34.9425   23.5081 C   0  0  0  0  0  0
  -16.5356  -29.9058   23.6331 C   0  0  0  0  0  0
  -16.7286  -28.6479   23.0358 C   0  0  0  0  0  0
  -26.4489  -31.6563   25.0702 C   0  0  0  0  0  0
  -25.3692  -31.3730   26.1412 C   0  0  0  0  0  0
  -27.0346  -30.2973   24.6217 C   0  0  0  0  0  0
  -27.6020  -32.4318   25.7489 C   0  0  0  0  0  0
  -27.5580  -37.1779   24.8460 C   0  0  0  0  0  0
  -21.4215  -29.3022   22.3678 N   0  0  0  0  0  0
  -26.4280  -37.3765   23.9408 N   0  0  0  0  0  0
  -24.6987  -31.0467   22.0948 N   0  0  0  0  0  0
  -23.4201  -28.8133   23.3060 O   0  0  0  0  0  0
  -28.3229  -26.3537   20.2187 O   0  0  0  0  0  0
  -26.5643  -34.8911   22.4660 O   0  0  0  0  0  0
  -23.5480  -32.1355   23.7235 O   0  0  0  0  0  0
  -29.5036  -18.5713   20.4532 C   0  0  0  0  0  0
  -30.6172  -19.8790   18.7343 C   0  0  0  0  0  0
  -29.7275  -19.8881   19.8327 C   0  0  0  0  0  0
  -30.1119  -17.3174   19.9792 C   0  0  0  0  0  0
  -31.1959  -18.6998   18.2436 C   0  0  0  0  0  0
  -30.9261  -17.4457   18.8219 C   0  0  0  0  0  0
  -28.1629  -23.0885   21.1988 C   0  0  0  0  0  0
  -28.6062  -23.6215   20.0533 C   0  0  0  0  0  0
  -28.4863  -21.6480   21.2919 C   0  0  0  0  0  0
  -29.2799  -22.4617   19.2998 C   0  0  0  0  0  0
  -28.4465  -25.0844   19.4222 C   0  0  0  0  0  0
  -29.1502  -21.2394   20.1718 N   0  0  0  0  0  0
  -29.8713  -15.9443   20.5433 N   0  0  0  0  0  0
  -28.1970  -20.9135   22.2395 O   0  0  0  0  0  0
  -32.0160  -18.7706   17.1673 F   0  0  0  0  0  0
  -31.4333  -16.3635   18.1893 F   0  0  0  0  0  0
  -31.4727  -12.5646   19.2124 H   0  0  0  0  0  0
  -30.3360  -11.4990   19.9888 H   0  0  0  0  0  0
  -29.8094  -11.7554   17.5274 H   0  0  0  0  0  0
  -29.6432  -13.4813   17.7348 H   0  0  0  0  0  0
  -27.8929  -11.2963   18.9091 H   0  0  0  0  0  0
  -27.3880  -12.5428   17.7953 H   0  0  0  0  0  0
  -27.6228  -14.2659   19.4582 H   0  0  0  0  0  0
  -28.7116  -12.2264   21.4620 H   0  0  0  0  0  0
  -28.4139  -13.9145   21.7761 H   0  0  0  0  0  0
  -25.2773   -9.5694   22.4779 H   0  0  0  0  0  0
  -24.0045   -7.4632   22.7489 H   0  0  0  0  0  0
  -21.0879   -8.8750   19.8974 H   0  0  0  0  0  0
  -22.3736  -10.9654   19.6184 H   0  0  0  0  0  0
  -21.2026   -7.6170   23.9708 H   0  0  0  0  0  0
  -21.1500   -6.0548   25.9056 H   0  0  0  0  0  0
  -22.0596   -2.7643   23.2800 H   0  0  0  0  0  0
  -22.4093  -11.9967   22.4849 H   0  0  0  0  0  0
  -21.1013  -13.1233   22.2531 H   0  0  0  0  0  0
  -24.6450  -15.8441   20.5269 H   0  0  0  0  0  0
  -26.2479  -15.6284   20.0357 H   0  0  0  0  0  0
  -26.7224  -32.5375   23.1040 H   0  0  0  0  0  0
  -25.0047  -33.9655   25.0358 H   0  0  0  0  0  0
  -22.7261  -31.2933   21.3957 H   0  0  0  0  0  0
  -23.3764  -35.9577   23.3280 H   0  0  0  0  0  0
  -24.3586  -36.8910   22.2058 H   0  0  0  0  0  0
  -23.7229  -37.6447   23.6685 H   0  0  0  0  0  0
  -26.1210  -31.5214   20.6131 H   0  0  0  0  0  0
  -26.8503  -30.8021   22.0180 H   0  0  0  0  0  0
  -28.1115  -28.9021   21.2182 H   0  0  0  0  0  0
  -25.9118  -25.8744   19.0446 H   0  0  0  0  0  0
  -23.9691  -27.2895   19.0132 H   0  0  0  0  0  0
  -23.7652  -30.5742   19.3986 H   0  0  0  0  0  0
  -22.7652  -29.2309   19.8654 H   0  0  0  0  0  0
  -25.1302  -36.1877   25.0823 H   0  0  0  0  0  0
  -20.9989  -28.3248   24.1414 H   0  0  0  0  0  0
  -20.5713  -26.2276   23.3609 H   0  0  0  0  0  0
  -21.6654  -26.7441   22.1193 H   0  0  0  0  0  0
  -19.6903  -25.6293   21.1243 H   0  0  0  0  0  0
  -19.6666  -27.3205   20.6763 H   0  0  0  0  0  0
  -17.4209  -26.6692   21.4041 H   0  0  0  0  0  0
  -18.0311  -26.0039   22.9022 H   0  0  0  0  0  0
  -19.7941  -30.7290   24.2230 H   0  0  0  0  0  0
  -17.5005  -31.6247   24.5172 H   0  0  0  0  0  0
  -15.5346  -30.2946   23.7643 H   0  0  0  0  0  0
  -15.8704  -28.0785   22.7052 H   0  0  0  0  0  0
  -24.5844  -30.7116   25.7723 H   0  0  0  0  0  0
  -24.8908  -32.2916   26.4821 H   0  0  0  0  0  0
  -25.7978  -30.8890   27.0196 H   0  0  0  0  0  0
  -26.2949  -29.6707   24.1224 H   0  0  0  0  0  0
  -27.3996  -29.7242   25.4748 H   0  0  0  0  0  0
  -27.8834  -30.4228   23.9492 H   0  0  0  0  0  0
  -27.2592  -33.3606   26.2058 H   0  0  0  0  0  0
  -28.3829  -32.6906   25.0328 H   0  0  0  0  0  0
  -28.0691  -31.8460   26.5413 H   0  0  0  0  0  0
  -28.2576  -38.0098   24.7549 H   0  0  0  0  0  0
  -28.1098  -36.2633   24.6235 H   0  0  0  0  0  0
  -27.2300  -37.1373   25.8861 H   0  0  0  0  0  0
  -20.9391  -29.8710   21.6866 H   0  0  0  0  0  0
  -26.0151  -38.2832   24.1414 H   0  0  0  0  0  0
  -28.8371  -18.5168   21.3019 H   0  0  0  0  0  0
  -30.8759  -20.7880   18.2142 H   0  0  0  0  0  0
  -27.6083  -23.6328   21.9469 H   0  0  0  0  0  0
  -30.3221  -22.7186   19.1122 H   0  0  0  0  0  0
  -28.7800  -22.2938   18.3443 H   0  0  0  0  0  0
  -27.7160  -25.0152   18.6213 H   0  0  0  0  0  0
  -29.3825  -25.2278   18.8822 H   0  0  0  0  0  0
  -28.9539  -15.8052   20.9393 H   0  0  0  0  0  0
  1 25  1  0  0  0
  1 30  2  0  0  0
  1 83  1  0  0  0
  2  3  1  0  0  0
  2 25  1  0  0  0
  2 87  1  0  0  0
  2 88  1  0  0  0
  3  4  1  0  0  0
  3 89  1  0  0  0
  3 90  1  0  0  0
  4  5  1  0  0  0
  4 91  1  0  0  0
  4 92  1  0  0  0
  5  6  1  0  0  0
  5 26  1  0  0  0
  5 93  1  0  0  0
  6 25  1  0  0  0
  6 94  1  0  0  0
  6 95  1  0  0  0
  7  8  2  0  0  0
  7 26  1  0  0  0
  7 29  1  0  0  0
  8  9  1  0  0  0
  8 22  1  0  0  0
  9 10  1  0  0  0
  9 27  2  0  0  0
 10 11  2  0  0  0
 10 15  1  0  0  0
 11 12  1  0  0  0
 11 96  1  0  0  0
 12 13  2  0  0  0
 12 97  1  0  0  0
 13 14  1  0  0  0
 13 31  1  0  0  0
 14 15  2  0  0  0
 14 98  1  0  0  0
 15 99  1  0  0  0
 16 17  2  0  0  0
 16 21  1  0  0  0
 16 31  1  0  0  0
 17 18  1  0  0  0
 17100  1  0  0  0
 18 19  2  0  0  0
 18101  1  0  0  0
 19 20  1  0  0  0
 19 24  1  0  0  0
 20 21  2  0  0  0
 20102  1  0  0  0
 21 23  1  0  0  0
 22 28  1  0  0  0
 22 32  2  0  0  0
 26 27  1  0  0  0
 28103  1  0  0  0
 28104  1  0  0  0
 29105  1  0  0  0
 29106  1  0  0  0
 33 34  1  0  0  0
 33 66  1  0  0  0
 33 70  2  0  0  0
 34 36  1  0  0  0
 34 59  1  0  0  0
 34107  1  0  0  0
 35 44  2  0  0  0
 35 45  1  0  0  0
 35 68  1  0  0  0
 36 56  1  0  0  0
 36108  1  0  0  0
 37 39  1  0  0  0
 37 47  1  0  0  0
 37 66  1  0  0  0
 37109  1  0  0  0
 38 43  2  0  0  0
 38 46  1  0  0  0
 38 47  1  0  0  0
 39 64  1  0  0  0
 39 67  2  0  0  0
 40 52  1  0  0  0
 40 53  2  0  0  0
 40 58  1  0  0  0
 41110  1  0  0  0
 41111  1  0  0  0
 41112  1  0  0  0
 41 48  1  0  0  0
 42 43  1  0  0  0
 42 66  1  0  0  0
 42113  1  0  0  0
 42114  1  0  0  0
 43 44  1  0  0  0
 44115  1  0  0  0
 45 46  2  0  0  0
 45116  1  0  0  0
 46117  1  0  0  0
 47118  1  0  0  0
 47119  1  0  0  0
 48 56  1  0  0  0
 48 65  1  0  0  0
 48120  1  0  0  0
 49 50  1  0  0  0
 49 53  1  0  0  0
 49 64  1  0  0  0
 49121  1  0  0  0
 50 51  1  0  0  0
 50122  1  0  0  0
 50123  1  0  0  0
 51 52  1  0  0  0
 51124  1  0  0  0
 51125  1  0  0  0
 52126  1  0  0  0
 52127  1  0  0  0
 53 54  1  0  0  0
 54 55  2  0  0  0
 54128  1  0  0  0
 55 57  1  0  0  0
 55129  1  0  0  0
 56 69  2  0  0  0
 57 58  2  0  0  0
 57130  1  0  0  0
 58131  1  0  0  0
 59 60  1  0  0  0
 59 61  1  0  0  0
 59 62  1  0  0  0
 60132  1  0  0  0
 60133  1  0  0  0
 60134  1  0  0  0
 61135  1  0  0  0
 61136  1  0  0  0
 61137  1  0  0  0
 62138  1  0  0  0
 62139  1  0  0  0
 62140  1  0  0  0
 63 65  1  0  0  0
 63141  1  0  0  0
 63142  1  0  0  0
 63143  1  0  0  0
 64144  1  0  0  0
 65145  1  0  0  0
 68 81  1  0  0  0
 71 73  2  0  0  0
 71 74  1  0  0  0
 71146  1  0  0  0
 72 73  1  0  0  0
 72 75  2  0  0  0
 72147  1  0  0  0
 73 82  1  0  0  0
 74 76  2  0  0  0
 74 83  1  0  0  0
 75 76  1  0  0  0
 75 85  1  0  0  0
 76 86  1  0  0  0
 77 78  2  0  0  0
 77 79  1  0  0  0
 77148  1  0  0  0
 78 80  1  0  0  0
 78 81  1  0  0  0
 79 82  1  0  0  0
 79 84  2  0  0  0
 80 82  1  0  0  0
 80149  1  0  0  0
 80150  1  0  0  0
 81151  1  0  0  0
 81152  1  0  0  0
 83153  1  0  0  0
M  ISO  4   1 100  68 101  81 101  83 100
M  END
> <chiral flag>
0

> <version>
0

> <s_m_source_file>
/data/baiqing/PycharmProjects/Reinvent-master-3.2/result/LINK_invent/BTK/process_docking_weight1_custom_product_contain_oxygen_bond_distance_aromatic_linkinvent_7_9_3/rearranged_h_0073.sdf

> <i_m_source_file_index>
66

> <r_mmod_Potential_Energy-OPLS-2005>
309.722595214844

> <r_mmod_Stretch_Energy-OPLS-2005>
138.569595336914

> <r_mmod_Bend_Energy-OPLS-2005>
237.232681274414

> <r_mmod_Torsional_Energy-OPLS-2005>
258.169219970703

> <r_mmod_Improper_Torsional_Energy-OPLS-2005>
4.75019550323486

> <r_mmod_Van_der_Waal_Energy-OPLS-2005>
144.967895507812

> <r_mmod_Electrostatic_Energy-OPLS-2005>
-351.009002685547

> <r_mmod_Solvation_Energy-OPLS-2005>
-222.155975341797

> <b_mmod_Minimization_Converged-OPLS-2005>
0

> <r_mmod_RMS_Derivative-OPLS-2005>
2.89667391777039

$$$$
66
                    3D
 Structure written by MMmdl.
158167  0  0  1  0            999 V2000
  -30.6102  -14.6666   20.5066 C   0  0  0  0  0  0
  -30.4427  -12.4104   19.4597 C   0  0  0  0  0  0
  -29.5120  -12.5154   18.2302 C   0  0  0  0  0  0
  -28.0351  -12.3483   18.6399 C   0  0  0  0  0  0
  -27.6548  -13.2188   19.8669 C   0  0  2  0  0  0
  -28.6985  -13.0760   20.9982 C   0  0  0  0  0  0
  -25.2540  -13.8154   20.5636 C   0  0  0  0  0  0
  -24.1824  -13.0425   20.9190 C   0  0  0  0  0  0
  -24.6402  -11.6902   20.8748 C   0  0  0  0  0  0
  -23.9067  -10.4288   21.0407 C   0  0  0  0  0  0
  -24.3614   -9.4203   21.9185 C   0  0  0  0  0  0
  -23.6288   -8.2242   22.0751 C   0  0  0  0  0  0
  -22.4270   -8.0283   21.3542 C   0  0  0  0  0  0
  -21.9907   -9.0258   20.4643 C   0  0  0  0  0  0
  -22.7239  -10.2137   20.3053 C   0  0  0  0  0  0
  -21.6851   -6.0738   22.5282 C   0  0  0  0  0  0
  -21.4012   -6.5642   23.8217 C   0  0  0  0  0  0
  -21.3656   -5.6793   24.9178 C   0  0  0  0  0  0
  -21.6041   -4.3054   24.7225 C   0  0  0  0  0  0
  -21.8818   -3.8149   23.4344 C   0  0  0  0  0  0
  -21.9191   -4.6967   22.3402 C   0  0  0  0  0  0
  -22.7846  -13.5219   21.1853 C   0  0  0  0  0  0
  -22.1654   -4.2152   21.0978 F   0  0  0  0  0  0
  -21.5628   -3.4537   25.7735 F   0  0  0  0  0  0
  -30.0140  -13.4309   20.4398 N   0  0  0  0  0  0
  -26.2994  -12.9353   20.3322 N   0  0  0  0  0  0
  -25.9335  -11.6508   20.5770 N   0  0  0  0  0  0
  -22.0483  -12.8219   22.0412 N   0  0  0  0  0  0
  -25.4195  -15.1860   20.3927 N   0  0  0  0  0  0
  -31.7607  -14.8396   20.0914 O   0  0  0  0  0  0
  -21.6631   -6.8882   21.4245 O   0  0  0  0  0  0
  -22.3533  -14.5525   20.6697 O   0  0  0  0  0  0
  -24.6272  -31.8590   23.2018 C   0  0  0  0  0  0
  -25.9116  -32.4772   23.8353 C   0  0  1  0  0  0
  -27.2241  -27.3107   20.1297 C   0  0  0  0  0  0
  -25.5933  -33.8571   24.2285 N   0  0  0  0  0  0
  -23.4217  -30.4823   21.5439 C   0  0  2  0  0  0
  -24.8707  -28.9351   20.1116 C   0  0  0  0  0  0
  -22.7482  -29.4620   22.4929 C   0  0  0  0  0  0
  -18.0285  -28.1385   22.8481 C   0  0  0  0  0  0
  -24.1488  -36.7289   23.2640 C   0  0  0  0  0  0
  -25.9635  -30.7882   21.3743 C   0  0  0  0  0  0
  -26.0396  -29.4141   20.7186 C   0  0  0  0  0  0
  -27.2224  -28.6142   20.7165 C   0  0  0  0  0  0
  -26.0399  -26.8918   19.4858 C   0  0  0  0  0  0
  -24.8733  -27.6797   19.4841 C   0  0  0  0  0  0
  -23.6381  -29.8155   20.1597 C   0  0  0  0  0  0
  -25.4111  -36.3080   24.0336 C   0  0  1  0  0  0
  -20.5887  -28.3689   23.1280 C   0  0  2  0  0  0
  -20.6772  -26.9413   22.5409 C   0  0  0  0  0  0
  -19.5750  -26.6386   21.5210 C   0  0  0  0  0  0
  -18.1928  -26.7927   22.1621 C   0  0  0  0  0  0
  -19.1538  -28.8853   23.2874 C   0  0  0  0  0  0
  -18.9462  -30.1455   23.8890 C   0  0  0  0  0  0
  -17.6463  -30.6586   24.0561 C   0  0  0  0  0  0
  -25.9049  -34.9448   23.5110 C   0  0  0  0  0  0
  -16.5352  -29.9083   23.6333 C   0  0  0  0  0  0
  -16.7273  -28.6502   23.0350 C   0  0  0  0  0  0
  -26.4501  -31.6579   25.0722 C   0  0  0  0  0  0
  -25.3736  -31.3716   26.1450 C   0  0  0  0  0  0
  -27.0343  -30.3001   24.6177 C   0  0  0  0  0  0
  -27.6062  -32.4313   25.7490 C   0  0  0  0  0  0
  -27.5581  -37.1799   24.8466 C   0  0  0  0  0  0
  -21.4193  -29.3042   22.3672 N   0  0  0  0  0  0
  -26.4288  -37.3775   23.9412 N   0  0  0  0  0  0
  -24.6895  -31.0602   22.0968 N   0  0  0  0  0  0
  -23.4201  -28.8166   23.3017 O   0  0  0  0  0  0
  -28.3173  -26.4307   20.1650 O   0  0  0  0  0  0
  -26.5615  -34.8920   22.4674 O   0  0  0  0  0  0
  -23.5435  -32.1386   23.7350 O   0  0  0  0  0  0
  -30.6137  -19.2998   19.7555 C   0  0  0  0  0  0
  -30.7096  -17.8812   19.9222 C   0  0  0  0  0  0
  -28.7802  -19.3796   21.2873 C   0  0  0  0  0  0
  -28.8696  -17.9606   21.4664 C   0  0  0  0  0  0
  -29.6399  -20.1046   20.4209 C   0  0  0  0  0  0
  -29.8324  -17.1612   20.7770 C   0  0  0  0  0  0
  -28.6619  -22.5248   20.7409 C   0  0  0  0  0  0
  -28.8774  -23.8082   20.3196 C   0  0  0  0  0  0
  -30.0117  -23.7014   19.4276 C   0  0  0  0  0  0
  -30.5917  -24.7142   18.7638 C   0  0  0  0  0  0
  -30.4699  -22.2471   19.3453 C   0  0  0  0  0  0
  -27.8988  -17.2976   22.4293 C   0  0  0  0  0  0
  -28.0521  -25.0869   20.7465 C   0  0  0  0  0  0
  -29.5395  -21.5381   20.2279 N   0  0  0  0  0  0
  -29.8140  -15.6976   20.9445 N   0  0  0  0  0  0
  -31.4832  -12.5426   19.1576 H   0  0  0  0  0  0
  -30.3850  -11.4148   19.9024 H   0  0  0  0  0  0
  -29.7819  -11.7634   17.4875 H   0  0  0  0  0  0
  -29.6496  -13.4840   17.7470 H   0  0  0  0  0  0
  -27.8743  -11.2950   18.8718 H   0  0  0  0  0  0
  -27.3807  -12.5767   17.7981 H   0  0  0  0  0  0
  -27.6726  -14.2545   19.5277 H   0  0  0  0  0  0
  -28.7158  -12.0525   21.3759 H   0  0  0  0  0  0
  -28.4345  -13.7005   21.8530 H   0  0  0  0  0  0
  -25.2757   -9.5679   22.4762 H   0  0  0  0  0  0
  -23.9993   -7.4626   22.7467 H   0  0  0  0  0  0
  -21.0837   -8.8782   19.8946 H   0  0  0  0  0  0
  -22.3698  -10.9676   19.6162 H   0  0  0  0  0  0
  -21.2007   -7.6151   23.9723 H   0  0  0  0  0  0
  -21.1476   -6.0519   25.9080 H   0  0  0  0  0  0
  -22.0600   -2.7613   23.2840 H   0  0  0  0  0  0
  -22.4088  -11.9882   22.4811 H   0  0  0  0  0  0
  -21.1106  -13.1260   22.2618 H   0  0  0  0  0  0
  -24.6398  -15.8292   20.4722 H   0  0  0  0  0  0
  -26.2504  -15.6170   20.0082 H   0  0  0  0  0  0
  -26.7182  -32.5444   23.1105 H   0  0  0  0  0  0
  -25.0094  -33.9711   25.0439 H   0  0  0  0  0  0
  -22.7159  -31.3027   21.3994 H   0  0  0  0  0  0
  -23.3754  -35.9620   23.3298 H   0  0  0  0  0  0
  -24.3583  -36.8907   22.2055 H   0  0  0  0  0  0
  -23.7238  -37.6492   23.6655 H   0  0  0  0  0  0
  -26.0950  -31.5504   20.6048 H   0  0  0  0  0  0
  -26.8437  -30.8391   22.0033 H   0  0  0  0  0  0
  -28.1180  -28.9756   21.2027 H   0  0  0  0  0  0
  -26.0059  -25.9314   18.9907 H   0  0  0  0  0  0
  -23.9803  -27.3094   18.9993 H   0  0  0  0  0  0
  -23.7575  -30.5910   19.4023 H   0  0  0  0  0  0
  -22.7585  -29.2442   19.8575 H   0  0  0  0  0  0
  -25.1288  -36.1933   25.0830 H   0  0  0  0  0  0
  -20.9981  -28.3263   24.1400 H   0  0  0  0  0  0
  -20.5672  -26.2301   23.3607 H   0  0  0  0  0  0
  -21.6641  -26.7438   22.1205 H   0  0  0  0  0  0
  -19.6911  -25.6295   21.1241 H   0  0  0  0  0  0
  -19.6691  -27.3193   20.6738 H   0  0  0  0  0  0
  -17.4202  -26.6676   21.4019 H   0  0  0  0  0  0
  -18.0330  -26.0068   22.9017 H   0  0  0  0  0  0
  -19.7939  -30.7272   24.2254 H   0  0  0  0  0  0
  -17.5019  -31.6264   24.5165 H   0  0  0  0  0  0
  -15.5352  -30.2983   23.7661 H   0  0  0  0  0  0
  -15.8673  -28.0822   22.7065 H   0  0  0  0  0  0
  -24.5916  -30.7058   25.7783 H   0  0  0  0  0  0
  -24.8922  -32.2880   26.4873 H   0  0  0  0  0  0
  -25.8068  -30.8901   27.0227 H   0  0  0  0  0  0
  -26.2915  -29.6748   24.1210 H   0  0  0  0  0  0
  -27.4048  -29.7260   25.4683 H   0  0  0  0  0  0
  -27.8786  -30.4283   23.9397 H   0  0  0  0  0  0
  -27.2674  -33.3616   26.2062 H   0  0  0  0  0  0
  -28.3876  -32.6865   25.0318 H   0  0  0  0  0  0
  -28.0728  -31.8439   26.5411 H   0  0  0  0  0  0
  -28.2595  -38.0099   24.7517 H   0  0  0  0  0  0
  -28.1078  -36.2631   24.6283 H   0  0  0  0  0  0
  -27.2302  -37.1441   25.8870 H   0  0  0  0  0  0
  -20.9375  -29.8768   21.6880 H   0  0  0  0  0  0
  -26.0172  -38.2853   24.1408 H   0  0  0  0  0  0
  -31.3164  -19.7634   19.0793 H   0  0  0  0  0  0
  -31.4657  -17.3500   19.3624 H   0  0  0  0  0  0
  -28.0229  -19.9231   21.8330 H   0  0  0  0  0  0
  -27.8894  -22.2016   21.4262 H   0  0  0  0  0  0
  -30.2422  -25.7319   18.8458 H   0  0  0  0  0  0
  -31.4403  -24.5365   18.1183 H   0  0  0  0  0  0
  -31.4987  -22.1503   19.6958 H   0  0  0  0  0  0
  -30.4036  -21.8807   18.3197 H   0  0  0  0  0  0
  -28.4400  -16.7357   23.1912 H   0  0  0  0  0  0
  -27.2397  -16.6123   21.8991 H   0  0  0  0  0  0
  -27.2743  -18.0305   22.9411 H   0  0  0  0  0  0
  -28.1962  -25.1935   21.8222 H   0  0  0  0  0  0
  -27.0049  -24.8068   20.6390 H   0  0  0  0  0  0
  -28.9688  -15.3536   21.3721 H   0  0  0  0  0  0
  1 25  1  0  0  0
  1 30  2  0  0  0
  1 85  1  0  0  0
  2  3  1  0  0  0
  2 25  1  0  0  0
  2 86  1  0  0  0
  2 87  1  0  0  0
  3  4  1  0  0  0
  3 88  1  0  0  0
  3 89  1  0  0  0
  4  5  1  0  0  0
  4 90  1  0  0  0
  4 91  1  0  0  0
  5  6  1  0  0  0
  5 26  1  0  0  0
  5 92  1  0  0  0
  6 25  1  0  0  0
  6 93  1  0  0  0
  6 94  1  0  0  0
  7  8  2  0  0  0
  7 26  1  0  0  0
  7 29  1  0  0  0
  8  9  1  0  0  0
  8 22  1  0  0  0
  9 10  1  0  0  0
  9 27  2  0  0  0
 10 11  2  0  0  0
 10 15  1  0  0  0
 11 12  1  0  0  0
 11 95  1  0  0  0
 12 13  2  0  0  0
 12 96  1  0  0  0
 13 14  1  0  0  0
 13 31  1  0  0  0
 14 15  2  0  0  0
 14 97  1  0  0  0
 15 98  1  0  0  0
 16 17  2  0  0  0
 16 21  1  0  0  0
 16 31  1  0  0  0
 17 18  1  0  0  0
 17 99  1  0  0  0
 18 19  2  0  0  0
 18100  1  0  0  0
 19 20  1  0  0  0
 19 24  1  0  0  0
 20 21  2  0  0  0
 20101  1  0  0  0
 21 23  1  0  0  0
 22 28  1  0  0  0
 22 32  2  0  0  0
 26 27  1  0  0  0
 28102  1  0  0  0
 28103  1  0  0  0
 29104  1  0  0  0
 29105  1  0  0  0
 33 34  1  0  0  0
 33 66  1  0  0  0
 33 70  2  0  0  0
 34 36  1  0  0  0
 34 59  1  0  0  0
 34106  1  0  0  0
 35 44  2  0  0  0
 35 45  1  0  0  0
 35 68  1  0  0  0
 36 56  1  0  0  0
 36107  1  0  0  0
 37 39  1  0  0  0
 37 47  1  0  0  0
 37 66  1  0  0  0
 37108  1  0  0  0
 38 43  2  0  0  0
 38 46  1  0  0  0
 38 47  1  0  0  0
 39 64  1  0  0  0
 39 67  2  0  0  0
 40 52  1  0  0  0
 40 53  2  0  0  0
 40 58  1  0  0  0
 41109  1  0  0  0
 41110  1  0  0  0
 41111  1  0  0  0
 41 48  1  0  0  0
 42 43  1  0  0  0
 42 66  1  0  0  0
 42112  1  0  0  0
 42113  1  0  0  0
 43 44  1  0  0  0
 44114  1  0  0  0
 45 46  2  0  0  0
 45115  1  0  0  0
 46116  1  0  0  0
 47117  1  0  0  0
 47118  1  0  0  0
 48 56  1  0  0  0
 48 65  1  0  0  0
 48119  1  0  0  0
 49 50  1  0  0  0
 49 53  1  0  0  0
 49 64  1  0  0  0
 49120  1  0  0  0
 50 51  1  0  0  0
 50121  1  0  0  0
 50122  1  0  0  0
 51 52  1  0  0  0
 51123  1  0  0  0
 51124  1  0  0  0
 52125  1  0  0  0
 52126  1  0  0  0
 53 54  1  0  0  0
 54 55  2  0  0  0
 54127  1  0  0  0
 55 57  1  0  0  0
 55128  1  0  0  0
 56 69  2  0  0  0
 57 58  2  0  0  0
 57129  1  0  0  0
 58130  1  0  0  0
 59 60  1  0  0  0
 59 61  1  0  0  0
 59 62  1  0  0  0
 60131  1  0  0  0
 60132  1  0  0  0
 60133  1  0  0  0
 61134  1  0  0  0
 61135  1  0  0  0
 61136  1  0  0  0
 62137  1  0  0  0
 62138  1  0  0  0
 62139  1  0  0  0
 63 65  1  0  0  0
 63140  1  0  0  0
 63141  1  0  0  0
 63142  1  0  0  0
 64143  1  0  0  0
 65144  1  0  0  0
 68 83  1  0  0  0
 71 72  2  0  0  0
 71 75  1  0  0  0
 71145  1  0  0  0
 72 76  1  0  0  0
 72146  1  0  0  0
 73 74  1  0  0  0
 73 75  2  0  0  0
 73147  1  0  0  0
 74 76  2  0  0  0
 74 82  1  0  0  0
 75 84  1  0  0  0
 76 85  1  0  0  0
 77 78  2  0  0  0
 77 84  1  0  0  0
 77148  1  0  0  0
 78 79  1  0  0  0
 78 83  1  0  0  0
 79 80  2  0  0  0
 79 81  1  0  0  0
 80149  1  0  0  0
 80150  1  0  0  0
 81 84  1  0  0  0
 81151  1  0  0  0
 81152  1  0  0  0
 82153  1  0  0  0
 82154  1  0  0  0
 82155  1  0  0  0
 83156  1  0  0  0
 83157  1  0  0  0
 85158  1  0  0  0
M  ISO  4   1 100  68 101  83 101  85 100
M  END
> <chiral flag>
0

> <version>
0

> <s_m_source_file>
/data/baiqing/PycharmProjects/Reinvent-master-3.2/result/LINK_invent/BTK/process_docking_weight1_custom_product_contain_oxygen_bond_distance_aromatic_linkinvent_7_9_3/rearranged_h_0073.sdf

> <i_m_source_file_index>
67

> <r_mmod_Potential_Energy-OPLS-2005>
138.908828735352

> <r_mmod_Stretch_Energy-OPLS-2005>
84.30224609375

> <r_mmod_Bend_Energy-OPLS-2005>
234.812347412109

> <r_mmod_Torsional_Energy-OPLS-2005>
214.967361450195

> <r_mmod_Improper_Torsional_Energy-OPLS-2005>
3.53963422775269

> <r_mmod_Van_der_Waal_Energy-OPLS-2005>
139.99153137207

> <r_mmod_Electrostatic_Energy-OPLS-2005>
-389.520874023438

> <r_mmod_Solvation_Energy-OPLS-2005>
-205.253051757812

> <b_mmod_Minimization_Converged-OPLS-2005>
0

> <r_mmod_RMS_Derivative-OPLS-2005>
0.733320593833923

$$$$
67
                    3D
 Structure written by MMmdl.
164172  0  0  1  0            999 V2000
  -31.0739  -13.1880   20.9247 C   0  0  0  0  0  0
  -31.0198  -13.6171   18.7659 C   0  0  0  0  0  0
  -30.0154  -12.8267   17.4065 C   0  0  0  0  0  0
  -28.1781  -12.4962   17.7318 C   0  0  0  0  0  0
  -27.3705  -13.0707   19.7672 C   0  0  2  0  0  0
  -28.6528  -13.8115   21.0295 C   0  0  0  0  0  0
  -25.0697  -13.8516   20.7292 C   0  0  0  0  0  0
  -24.0127  -13.0700   21.0499 C   0  0  0  0  0  0
  -24.4805  -11.7202   21.0742 C   0  0  0  0  0  0
  -23.8113  -10.4338   21.1335 C   0  0  0  0  0  0
  -24.3031   -9.4082   21.9679 C   0  0  0  0  0  0
  -23.6052   -8.1932   22.0779 C   0  0  0  0  0  0
  -22.4104   -8.0024   21.3460 C   0  0  0  0  0  0
  -21.9660   -9.0022   20.4635 C   0  0  0  0  0  0
  -22.6666  -10.2113   20.3483 C   0  0  0  0  0  0
  -21.6753   -6.0597   22.5238 C   0  0  0  0  0  0
  -21.3941   -6.5569   23.8160 C   0  0  0  0  0  0
  -21.3635   -5.6766   24.9160 C   0  0  0  0  0  0
  -21.6042   -4.3028   24.7245 C   0  0  0  0  0  0
  -21.8824   -3.8073   23.4391 C   0  0  0  0  0  0
  -21.9167   -4.6844   22.3413 C   0  0  0  0  0  0
  -22.6249  -13.5401   21.2204 C   0  0  0  0  0  0
  -22.1654   -4.2021   21.1000 F   0  0  0  0  0  0
  -21.5640   -3.4548   25.7787 F   0  0  0  0  0  0
  -30.3120  -13.9722   20.4137 N   0  0  0  0  0  0
  -26.0339  -12.9277   20.5562 N   0  0  0  0  0  0
  -25.7756  -11.7087   21.0297 N   0  0  0  0  0  0
  -21.8770  -12.8470   22.0638 N   0  0  0  0  0  0
  -25.3042  -15.2020   20.4983 N   0  0  0  0  0  0
  -32.2408  -13.5999   20.9834 O   0  0  0  0  0  0
  -21.6533   -6.8620   21.4136 O   0  0  0  0  0  0
  -22.2285  -14.5610   20.6645 O   0  0  0  0  0  0
  -24.6311  -31.8599   23.2035 C   0  0  0  0  0  0
  -25.9148  -32.4776   23.8365 C   0  0  1  0  0  0
  -27.1526  -27.2818   20.0630 C   0  0  0  0  0  0
  -25.5962  -33.8578   24.2293 N   0  0  0  0  0  0
  -23.4196  -30.4931   21.5517 C   0  0  2  0  0  0
  -24.8447  -28.9497   20.1056 C   0  0  0  0  0  0
  -22.7482  -29.4645   22.4939 C   0  0  0  0  0  0
  -18.0287  -28.1384   22.8484 C   0  0  0  0  0  0
  -24.1480  -36.7285   23.2642 C   0  0  0  0  0  0
  -25.9680  -30.7731   21.3800 C   0  0  0  0  0  0
  -26.0258  -29.4026   20.7081 C   0  0  0  0  0  0
  -27.1947  -28.5777   20.6769 C   0  0  0  0  0  0
  -25.9518  -26.8947   19.4445 C   0  0  0  0  0  0
  -24.8087  -27.7030   19.4701 C   0  0  0  0  0  0
  -23.6267  -29.8456   20.1614 C   0  0  0  0  0  0
  -25.4107  -36.3088   24.0337 C   0  0  1  0  0  0
  -20.5891  -28.3692   23.1268 C   0  0  2  0  0  0
  -20.6777  -26.9415   22.5398 C   0  0  0  0  0  0
  -19.5753  -26.6382   21.5204 C   0  0  0  0  0  0
  -18.1933  -26.7925   22.1622 C   0  0  0  0  0  0
  -19.1541  -28.8853   23.2873 C   0  0  0  0  0  0
  -18.9464  -30.1451   23.8896 C   0  0  0  0  0  0
  -17.6467  -30.6586   24.0559 C   0  0  0  0  0  0
  -25.9054  -34.9457   23.5115 C   0  0  0  0  0  0
  -16.5355  -29.9086   23.6333 C   0  0  0  0  0  0
  -16.7275  -28.6504   23.0353 C   0  0  0  0  0  0
  -26.4513  -31.6595   25.0750 C   0  0  0  0  0  0
  -25.3741  -31.3722   26.1474 C   0  0  0  0  0  0
  -27.0371  -30.3025   24.6224 C   0  0  0  0  0  0
  -27.6066  -32.4333   25.7527 C   0  0  0  0  0  0
  -27.5578  -37.1803   24.8470 C   0  0  0  0  0  0
  -21.4197  -29.3052   22.3672 N   0  0  0  0  0  0
  -26.4282  -37.3788   23.9422 N   0  0  0  0  0  0
  -24.6932  -31.0588   22.1014 N   0  0  0  0  0  0
  -23.4207  -28.8154   23.2996 O   0  0  0  0  0  0
  -28.2066  -26.3625   20.0387 O   0  0  0  0  0  0
  -26.5614  -34.8931   22.4674 O   0  0  0  0  0  0
  -23.5464  -32.1424   23.7358 O   0  0  0  0  0  0
  -28.7534  -14.4007   18.7081 C   0  0  0  0  0  0
  -25.8922  -13.1070   17.8982 C   0  0  0  0  0  0
  -27.9575  -10.8158   19.2897 C   0  0  0  0  0  0
  -27.0374  -14.6066   18.0360 C   0  0  0  0  0  0
  -29.3518  -12.0960   19.5594 C   0  0  0  0  0  0
  -26.3175  -11.3365   18.4545 C   0  0  0  0  0  0
  -27.1276  -21.1372   18.5208 C   0  0  0  0  0  0
  -27.1813  -17.2275   18.1946 C   0  0  0  0  0  0
  -31.0408  -10.6655   20.9149 C   0  0  0  0  0  0
  -27.4351  -22.2664   19.6047 C   0  0  0  0  0  0
  -26.4434  -18.6292   18.0674 C   0  0  0  0  0  0
  -27.7392  -23.7928   19.1587 C   0  0  0  0  0  0
  -27.8800  -24.9228   20.3003 C   0  0  0  0  0  0
  -26.5879  -16.0144   17.8308 N   0  0  0  0  0  0
  -26.9559  -19.8172   18.8801 N   0  0  0  0  0  0
  -30.4993  -11.9667   20.5499 N   0  0  0  0  0  0
  -27.0092  -21.4770   17.3431 O   0  0  0  0  0  0
  -28.3326  -17.3024   18.6212 O   0  0  0  0  0  0
  -25.3840  -10.3761   18.2446 F   0  0  0  0  0  0
  -31.3570  -14.5902   18.3986 H   0  0  0  0  0  0
  -31.9733  -13.0671   18.7204 H   0  0  0  0  0  0
  -30.4893  -11.8780   17.1452 H   0  0  0  0  0  0
  -30.1135  -13.4280   16.5017 H   0  0  0  0  0  0
  -27.5241  -12.7718   19.3786 H   0  0  0  0  0  0
  -28.1354  -11.4516   17.1057 H   0  0  0  0  0  0
  -27.8662  -12.7745   18.0011 H   0  0  0  0  0  0
  -28.6298  -13.2334   21.9542 H   0  0  0  0  0  0
  -28.3203  -14.8071   21.3267 H   0  0  0  0  0  0
  -25.2001   -9.5673   22.5500 H   0  0  0  0  0  0
  -23.9850   -7.4237   22.7344 H   0  0  0  0  0  0
  -21.0703   -8.8449   19.8789 H   0  0  0  0  0  0
  -22.3029  -10.9786   19.6784 H   0  0  0  0  0  0
  -21.1907   -7.6080   23.9616 H   0  0  0  0  0  0
  -21.1460   -6.0528   25.9051 H   0  0  0  0  0  0
  -22.0631   -2.7535   23.2936 H   0  0  0  0  0  0
  -22.2394  -12.0331   22.5367 H   0  0  0  0  0  0
  -20.9276  -13.1394   22.2471 H   0  0  0  0  0  0
  -24.5802  -15.9084   20.5669 H   0  0  0  0  0  0
  -26.1898  -15.5563   20.1599 H   0  0  0  0  0  0
  -26.7209  -32.5401   23.1093 H   0  0  0  0  0  0
  -25.0128  -33.9720   25.0454 H   0  0  0  0  0  0
  -22.7144  -31.3167   21.4190 H   0  0  0  0  0  0
  -23.3762  -35.9597   23.3296 H   0  0  0  0  0  0
  -24.3568  -36.8913   22.2058 H   0  0  0  0  0  0
  -23.7204  -37.6475   23.6661 H   0  0  0  0  0  0
  -26.1122  -31.5405   20.6175 H   0  0  0  0  0  0
  -26.8446  -30.8072   22.0150 H   0  0  0  0  0  0
  -28.1059  -28.9113   21.1525 H   0  0  0  0  0  0
  -25.8752  -25.9480   18.9331 H   0  0  0  0  0  0
  -23.9006  -27.3576   18.9952 H   0  0  0  0  0  0
  -23.7610  -30.6305   19.4163 H   0  0  0  0  0  0
  -22.7365  -29.2971   19.8491 H   0  0  0  0  0  0
  -25.1279  -36.1946   25.0829 H   0  0  0  0  0  0
  -20.9982  -28.3264   24.1388 H   0  0  0  0  0  0
  -20.5675  -26.2304   23.3598 H   0  0  0  0  0  0
  -21.6643  -26.7440   22.1190 H   0  0  0  0  0  0
  -19.6912  -25.6290   21.1236 H   0  0  0  0  0  0
  -19.6682  -27.3187   20.6728 H   0  0  0  0  0  0
  -17.4195  -26.6664   21.4030 H   0  0  0  0  0  0
  -18.0341  -26.0068   22.9020 H   0  0  0  0  0  0
  -19.7938  -30.7263   24.2271 H   0  0  0  0  0  0
  -17.5019  -31.6265   24.5159 H   0  0  0  0  0  0
  -15.5355  -30.2986   23.7650 H   0  0  0  0  0  0
  -15.8674  -28.0814   22.7077 H   0  0  0  0  0  0
  -24.5900  -30.7094   25.7796 H   0  0  0  0  0  0
  -24.8952  -32.2882   26.4946 H   0  0  0  0  0  0
  -25.8061  -30.8860   27.0231 H   0  0  0  0  0  0
  -26.2960  -29.6763   24.1244 H   0  0  0  0  0  0
  -27.4069  -29.7296   25.4739 H   0  0  0  0  0  0
  -27.8830  -30.4327   23.9468 H   0  0  0  0  0  0
  -27.2680  -33.3631   26.2116 H   0  0  0  0  0  0
  -28.3878  -32.6902   25.0356 H   0  0  0  0  0  0
  -28.0746  -31.8459   26.5442 H   0  0  0  0  0  0
  -28.2587  -38.0110   24.7540 H   0  0  0  0  0  0
  -28.1083  -36.2644   24.6261 H   0  0  0  0  0  0
  -27.2306  -37.1415   25.8877 H   0  0  0  0  0  0
  -20.9366  -29.8820   21.6922 H   0  0  0  0  0  0
  -26.0168  -38.2863   24.1431 H   0  0  0  0  0  0
  -29.3421  -15.3010   18.8045 H   0  0  0  0  0  0
  -24.8970  -13.2736   17.5104 H   0  0  0  0  0  0
  -28.0726   -9.8071   19.6597 H   0  0  0  0  0  0
  -30.3114  -10.1075   21.5029 H   0  0  0  0  0  0
  -31.9462  -10.7651   21.5158 H   0  0  0  0  0  0
  -31.2863  -10.0859   20.0249 H   0  0  0  0  0  0
  -28.2601  -21.9138   20.2246 H   0  0  0  0  0  0
  -26.5653  -22.2871   20.2635 H   0  0  0  0  0  0
  -25.4061  -18.4669   18.3630 H   0  0  0  0  0  0
  -26.4137  -18.8966   17.0118 H   0  0  0  0  0  0
  -26.9633  -24.0944   18.4566 H   0  0  0  0  0  0
  -28.6627  -23.7893   18.5783 H   0  0  0  0  0  0
  -28.6691  -24.5880   20.9735 H   0  0  0  0  0  0
  -26.9834  -24.8816   20.9216 H   0  0  0  0  0  0
  -25.6454  -16.1119   17.4781 H   0  0  0  0  0  0
  -27.1226  -19.6038   19.8547 H   0  0  0  0  0  0
  1 25  1  0  0  0
  1 30  2  0  0  0
  1 86  1  0  0  0
  2  3  1  0  0  0
  2 25  1  0  0  0
  2 90  1  0  0  0
  2 91  1  0  0  0
  3  4  1  0  0  0
  3 92  1  0  0  0
  3 93  1  0  0  0
  4  5  1  0  0  0
  4 94  1  0  0  0
  4 95  1  0  0  0
  5  6  1  0  0  0
  5 26  1  0  0  0
  5 96  1  0  0  0
  6 25  1  0  0  0
  6 97  1  0  0  0
  6 98  1  0  0  0
  7  8  2  0  0  0
  7 26  1  0  0  0
  7 29  1  0  0  0
  8  9  1  0  0  0
  8 22  1  0  0  0
  9 10  1  0  0  0
  9 27  2  0  0  0
 10 11  2  0  0  0
 10 15  1  0  0  0
 11 12  1  0  0  0
 11 99  1  0  0  0
 12 13  2  0  0  0
 12100  1  0  0  0
 13 14  1  0  0  0
 13 31  1  0  0  0
 14 15  2  0  0  0
 14101  1  0  0  0
 15102  1  0  0  0
 16 17  2  0  0  0
 16 21  1  0  0  0
 16 31  1  0  0  0
 17 18  1  0  0  0
 17103  1  0  0  0
 18 19  2  0  0  0
 18104  1  0  0  0
 19 20  1  0  0  0
 19 24  1  0  0  0
 20 21  2  0  0  0
 20105  1  0  0  0
 21 23  1  0  0  0
 22 28  1  0  0  0
 22 32  2  0  0  0
 26 27  1  0  0  0
 28106  1  0  0  0
 28107  1  0  0  0
 29108  1  0  0  0
 29109  1  0  0  0
 33 34  1  0  0  0
 33 66  1  0  0  0
 33 70  2  0  0  0
 34 36  1  0  0  0
 34 59  1  0  0  0
 34110  1  0  0  0
 35 44  2  0  0  0
 35 45  1  0  0  0
 35 68  1  0  0  0
 36 56  1  0  0  0
 36111  1  0  0  0
 37 39  1  0  0  0
 37 47  1  0  0  0
 37 66  1  0  0  0
 37112  1  0  0  0
 38 43  2  0  0  0
 38 46  1  0  0  0
 38 47  1  0  0  0
 39 64  1  0  0  0
 39 67  2  0  0  0
 40 52  1  0  0  0
 40 53  2  0  0  0
 40 58  1  0  0  0
 41113  1  0  0  0
 41114  1  0  0  0
 41115  1  0  0  0
 41 48  1  0  0  0
 42 43  1  0  0  0
 42 66  1  0  0  0
 42116  1  0  0  0
 42117  1  0  0  0
 43 44  1  0  0  0
 44118  1  0  0  0
 45 46  2  0  0  0
 45119  1  0  0  0
 46120  1  0  0  0
 47121  1  0  0  0
 47122  1  0  0  0
 48 56  1  0  0  0
 48 65  1  0  0  0
 48123  1  0  0  0
 49 50  1  0  0  0
 49 53  1  0  0  0
 49 64  1  0  0  0
 49124  1  0  0  0
 50 51  1  0  0  0
 50125  1  0  0  0
 50126  1  0  0  0
 51 52  1  0  0  0
 51127  1  0  0  0
 51128  1  0  0  0
 52129  1  0  0  0
 52130  1  0  0  0
 53 54  1  0  0  0
 54 55  2  0  0  0
 54131  1  0  0  0
 55 57  1  0  0  0
 55132  1  0  0  0
 56 69  2  0  0  0
 57 58  2  0  0  0
 57133  1  0  0  0
 58134  1  0  0  0
 59 60  1  0  0  0
 59 61  1  0  0  0
 59 62  1  0  0  0
 60135  1  0  0  0
 60136  1  0  0  0
 60137  1  0  0  0
 61138  1  0  0  0
 61139  1  0  0  0
 61140  1  0  0  0
 62141  1  0  0  0
 62142  1  0  0  0
 62143  1  0  0  0
 63 65  1  0  0  0
 63144  1  0  0  0
 63145  1  0  0  0
 63146  1  0  0  0
 64147  1  0  0  0
 65148  1  0  0  0
 68 83  1  0  0  0
 71 74  2  0  0  0
 71 75  1  0  0  0
 71149  1  0  0  0
 72 74  1  0  0  0
 72 76  2  0  0  0
 72150  1  0  0  0
 73 75  2  0  0  0
 73 76  1  0  0  0
 73151  1  0  0  0
 74 84  1  0  0  0
 75 86  1  0  0  0
 76 89  1  0  0  0
 77 80  1  0  0  0
 77 85  1  0  0  0
 77 87  2  0  0  0
 78 81  1  0  0  0
 78 84  1  0  0  0
 78 88  2  0  0  0
 79 86  1  0  0  0
 79152  1  0  0  0
 79153  1  0  0  0
 79154  1  0  0  0
 80 82  1  0  0  0
 80155  1  0  0  0
 80156  1  0  0  0
 81 85  1  0  0  0
 81157  1  0  0  0
 81158  1  0  0  0
 82 83  1  0  0  0
 82159  1  0  0  0
 82160  1  0  0  0
 83161  1  0  0  0
 83162  1  0  0  0
 84163  1  0  0  0
 85164  1  0  0  0
M  ISO  4   1 100  68 101  83 101  86 100
M  END
> <chiral flag>
0

> <version>
0

> <s_m_source_file>
/data/baiqing/PycharmProjects/Reinvent-master-3.2/result/LINK_invent/BTK/process_docking_weight1_custom_product_contain_oxygen_bond_distance_aromatic_linkinvent_7_9_3/rearranged_h_0073.sdf

> <i_m_source_file_index>
68

> <r_mmod_Potential_Energy-OPLS-2005>
14753.162109375

> <r_mmod_Stretch_Energy-OPLS-2005>
8096.6748046875

> <r_mmod_Bend_Energy-OPLS-2005>
1512.82238769531

> <r_mmod_Torsional_Energy-OPLS-2005>
374.14404296875

> <r_mmod_Improper_Torsional_Energy-OPLS-2005>
50.3512802124023

> <r_mmod_Van_der_Waal_Energy-OPLS-2005>
4346.947265625

> <r_mmod_Electrostatic_Energy-OPLS-2005>
-447.408477783203

> <r_mmod_Solvation_Energy-OPLS-2005>
-251.943817138672

> <b_mmod_Minimization_Converged-OPLS-2005>
0

> <r_mmod_RMS_Derivative-OPLS-2005>
6.30006837844849

$$$$
68
                    3D
 Structure written by MMmdl.
168177  0  0  1  0            999 V2000
  -30.7138  -14.5380   20.5293 C   0  0  0  0  0  0
  -30.4118  -12.3380   19.4445 C   0  0  0  0  0  0
  -29.4927  -12.4957   18.2167 C   0  0  0  0  0  0
  -28.0166  -12.3527   18.6310 C   0  0  0  0  0  0
  -27.6524  -13.2210   19.8658 C   0  0  2  0  0  0
  -28.6973  -13.0742   20.9957 C   0  0  0  0  0  0
  -25.2549  -13.8193   20.5696 C   0  0  0  0  0  0
  -24.1819  -13.0448   20.9193 C   0  0  0  0  0  0
  -24.6394  -11.6921   20.8749 C   0  0  0  0  0  0
  -23.9067  -10.4297   21.0406 C   0  0  0  0  0  0
  -24.3619   -9.4211   21.9183 C   0  0  0  0  0  0
  -23.6295   -8.2246   22.0754 C   0  0  0  0  0  0
  -22.4278   -8.0283   21.3543 C   0  0  0  0  0  0
  -21.9913   -9.0256   20.4646 C   0  0  0  0  0  0
  -22.7241  -10.2137   20.3056 C   0  0  0  0  0  0
  -21.6856   -6.0736   22.5278 C   0  0  0  0  0  0
  -21.4015   -6.5640   23.8211 C   0  0  0  0  0  0
  -21.3659   -5.6793   24.9173 C   0  0  0  0  0  0
  -21.6045   -4.3056   24.7226 C   0  0  0  0  0  0
  -21.8819   -3.8147   23.4347 C   0  0  0  0  0  0
  -21.9193   -4.6963   22.3401 C   0  0  0  0  0  0
  -22.7840  -13.5232   21.1853 C   0  0  0  0  0  0
  -22.1662   -4.2148   21.0979 F   0  0  0  0  0  0
  -21.5629   -3.4539   25.7740 F   0  0  0  0  0  0
  -30.0192  -13.3678   20.4250 N   0  0  0  0  0  0
  -26.2985  -12.9387   20.3351 N   0  0  0  0  0  0
  -25.9326  -11.6534   20.5783 N   0  0  0  0  0  0
  -22.0491  -12.8215   22.0412 N   0  0  0  0  0  0
  -25.4250  -15.1916   20.4111 N   0  0  0  0  0  0
  -31.8644  -14.6296   20.0958 O   0  0  0  0  0  0
  -21.6644   -6.8880   21.4240 O   0  0  0  0  0  0
  -22.3516  -14.5535   20.6706 O   0  0  0  0  0  0
  -24.6185  -31.8648   23.2070 C   0  0  0  0  0  0
  -25.9060  -32.4805   23.8379 C   0  0  1  0  0  0
  -27.2244  -27.3949   20.1170 C   0  0  0  0  0  0
  -25.5908  -33.8602   24.2317 N   0  0  0  0  0  0
  -23.4096  -30.4874   21.5474 C   0  0  2  0  0  0
  -24.8583  -28.9570   20.1038 C   0  0  0  0  0  0
  -22.7448  -29.4627   22.4962 C   0  0  0  0  0  0
  -18.0282  -28.1381   22.8485 C   0  0  0  0  0  0
  -24.1492  -36.7309   23.2642 C   0  0  0  0  0  0
  -25.9417  -30.8229   21.3645 C   0  0  0  0  0  0
  -26.0204  -29.4574   20.7061 C   0  0  0  0  0  0
  -27.2112  -28.6882   20.7029 C   0  0  0  0  0  0
  -26.0571  -26.9352   19.4748 C   0  0  0  0  0  0
  -24.8749  -27.6992   19.4774 C   0  0  0  0  0  0
  -23.6198  -29.8250   20.1599 C   0  0  0  0  0  0
  -25.4115  -36.3102   24.0340 C   0  0  1  0  0  0
  -20.5879  -28.3664   23.1305 C   0  0  2  0  0  0
  -20.6776  -26.9393   22.5417 C   0  0  0  0  0  0
  -19.5752  -26.6377   21.5217 C   0  0  0  0  0  0
  -18.1926  -26.7927   22.1623 C   0  0  0  0  0  0
  -19.1535  -28.8842   23.2889 C   0  0  0  0  0  0
  -18.9463  -30.1450   23.8894 C   0  0  0  0  0  0
  -17.6464  -30.6583   24.0561 C   0  0  0  0  0  0
  -25.9045  -34.9465   23.5126 C   0  0  0  0  0  0
  -16.5354  -29.9080   23.6332 C   0  0  0  0  0  0
  -16.7272  -28.6504   23.0342 C   0  0  0  0  0  0
  -26.4478  -31.6584   25.0713 C   0  0  0  0  0  0
  -25.3733  -31.3703   26.1455 C   0  0  0  0  0  0
  -27.0313  -30.3022   24.6098 C   0  0  0  0  0  0
  -27.6046  -32.4304   25.7477 C   0  0  0  0  0  0
  -27.5583  -37.1808   24.8468 C   0  0  0  0  0  0
  -21.4169  -29.3020   22.3708 N   0  0  0  0  0  0
  -26.4299  -37.3784   23.9411 N   0  0  0  0  0  0
  -24.6748  -31.0726   22.0982 N   0  0  0  0  0  0
  -23.4203  -28.8168   23.3015 O   0  0  0  0  0  0
  -28.3103  -26.5303   20.1810 O   0  0  0  0  0  0
  -26.5603  -34.8923   22.4684 O   0  0  0  0  0  0
  -23.5368  -32.1406   23.7448 O   0  0  0  0  0  0
  -32.3865  -18.5737   21.3825 C   0  0  0  0  0  0
  -31.5362  -19.6648   21.1432 C   0  0  0  0  0  0
  -31.8893  -17.2614   21.3377 C   0  0  0  0  0  0
  -30.1607  -19.4736   20.8716 C   0  0  0  0  0  0
  -30.5326  -17.0027   21.0246 C   0  0  0  0  0  0
  -29.6673  -18.1255   20.8225 C   0  0  0  0  0  0
  -29.6445  -21.8560   20.2099 C   0  0  0  0  0  0
  -27.7245  -22.2142   21.5530 C   0  0  0  0  0  0
  -27.9886  -20.7151   21.3302 C   0  0  0  0  0  0
  -28.6325  -22.9755   20.5621 C   0  0  1  0  0  0
  -29.0776  -26.5304   22.4082 C   0  0  0  0  0  0
  -27.0089  -25.2331   21.9118 C   0  0  0  0  0  0
  -31.4084  -24.1787   22.1977 C   0  0  0  0  0  0
  -29.2882  -24.3347   21.0632 C   0  0  1  0  0  0
  -28.3924  -25.6358   21.3445 C   0  0  0  0  0  0
  -29.3141  -20.6461   20.7378 N   0  0  0  0  0  0
  -30.0358  -15.6410   20.9485 N   0  0  0  0  0  0
  -30.6248  -22.0740   19.4899 O   0  0  0  0  0  0
  -29.9981  -23.9964   22.2611 O   0  0  0  0  0  0
  -28.3574  -17.8931   20.5624 F   0  0  0  0  0  0
  -31.4579  -12.4137   19.1434 H   0  0  0  0  0  0
  -30.3031  -11.3441   19.8815 H   0  0  0  0  0  0
  -29.7418  -11.7501   17.4606 H   0  0  0  0  0  0
  -29.6538  -13.4697   17.7525 H   0  0  0  0  0  0
  -27.8389  -11.3000   18.8533 H   0  0  0  0  0  0
  -27.3637  -12.5981   17.7928 H   0  0  0  0  0  0
  -27.6749  -14.2578   19.5299 H   0  0  0  0  0  0
  -28.6858  -12.0613   21.4011 H   0  0  0  0  0  0
  -28.4609  -13.7343   21.8317 H   0  0  0  0  0  0
  -25.2765   -9.5688   22.4756 H   0  0  0  0  0  0
  -24.0007   -7.4638   22.7472 H   0  0  0  0  0  0
  -21.0846   -8.8772   19.8950 H   0  0  0  0  0  0
  -22.3696  -10.9675   19.6166 H   0  0  0  0  0  0
  -21.2008   -7.6150   23.9713 H   0  0  0  0  0  0
  -21.1482   -6.0525   25.9076 H   0  0  0  0  0  0
  -22.0599   -2.7610   23.2848 H   0  0  0  0  0  0
  -22.4120  -11.9876   22.4789 H   0  0  0  0  0  0
  -21.1110  -13.1229   22.2631 H   0  0  0  0  0  0
  -24.6587  -15.8459   20.5262 H   0  0  0  0  0  0
  -26.2781  -15.6366   20.0963 H   0  0  0  0  0  0
  -26.7134  -32.5510   23.1142 H   0  0  0  0  0  0
  -25.0050  -33.9752   25.0460 H   0  0  0  0  0  0
  -22.7004  -31.3061   21.4093 H   0  0  0  0  0  0
  -23.3748  -35.9646   23.3317 H   0  0  0  0  0  0
  -24.3583  -36.8910   22.2054 H   0  0  0  0  0  0
  -23.7250  -37.6519   23.6648 H   0  0  0  0  0  0
  -26.0595  -31.5914   20.5997 H   0  0  0  0  0  0
  -26.8273  -30.8724   21.9866 H   0  0  0  0  0  0
  -28.1029  -29.0696   21.1791 H   0  0  0  0  0  0
  -26.0527  -25.9590   19.0108 H   0  0  0  0  0  0
  -23.9846  -27.3110   19.0022 H   0  0  0  0  0  0
  -23.7279  -30.6037   19.4041 H   0  0  0  0  0  0
  -22.7436  -29.2463   19.8623 H   0  0  0  0  0  0
  -25.1290  -36.1966   25.0832 H   0  0  0  0  0  0
  -20.9966  -28.3228   24.1430 H   0  0  0  0  0  0
  -20.5693  -26.2263   23.3605 H   0  0  0  0  0  0
  -21.6641  -26.7435   22.1196 H   0  0  0  0  0  0
  -19.6911  -25.6292   21.1237 H   0  0  0  0  0  0
  -19.6703  -27.3201   20.6758 H   0  0  0  0  0  0
  -17.4201  -26.6684   21.4020 H   0  0  0  0  0  0
  -18.0308  -26.0078   22.9026 H   0  0  0  0  0  0
  -19.7943  -30.7263   24.2258 H   0  0  0  0  0  0
  -17.5022  -31.6266   24.5159 H   0  0  0  0  0  0
  -15.5355  -30.2975   23.7668 H   0  0  0  0  0  0
  -15.8675  -28.0829   22.7041 H   0  0  0  0  0  0
  -24.5902  -30.7058   25.7787 H   0  0  0  0  0  0
  -24.8927  -32.2863   26.4896 H   0  0  0  0  0  0
  -25.8068  -30.8867   27.0217 H   0  0  0  0  0  0
  -26.2863  -29.6781   24.1147 H   0  0  0  0  0  0
  -27.4079  -29.7254   25.4554 H   0  0  0  0  0  0
  -27.8696  -30.4342   23.9257 H   0  0  0  0  0  0
  -27.2660  -33.3598   26.2069 H   0  0  0  0  0  0
  -28.3842  -32.6872   25.0295 H   0  0  0  0  0  0
  -28.0728  -31.8420   26.5381 H   0  0  0  0  0  0
  -28.2600  -38.0105   24.7494 H   0  0  0  0  0  0
  -28.1074  -36.2625   24.6309 H   0  0  0  0  0  0
  -27.2291  -37.1476   25.8869 H   0  0  0  0  0  0
  -20.9341  -29.8739   21.6926 H   0  0  0  0  0  0
  -26.0192  -38.2864   24.1401 H   0  0  0  0  0  0
  -33.4289  -18.7451   21.6132 H   0  0  0  0  0  0
  -31.9540  -20.6596   21.2124 H   0  0  0  0  0  0
  -32.5786  -16.4574   21.5489 H   0  0  0  0  0  0
  -27.9854  -22.4680   22.5808 H   0  0  0  0  0  0
  -26.6681  -22.4429   21.4151 H   0  0  0  0  0  0
  -27.2638  -20.2920   20.6329 H   0  0  0  0  0  0
  -27.9292  -20.1515   22.2624 H   0  0  0  0  0  0
  -28.0708  -23.1787   19.6496 H   0  0  0  0  0  0
  -29.2504  -26.0000   23.3444 H   0  0  0  0  0  0
  -28.4689  -27.3915   22.6776 H   0  0  0  0  0  0
  -30.0365  -26.9067   22.0528 H   0  0  0  0  0  0
  -27.1173  -24.5938   22.7866 H   0  0  0  0  0  0
  -26.4088  -24.7040   21.1738 H   0  0  0  0  0  0
  -26.4282  -26.0929   22.2472 H   0  0  0  0  0  0
  -31.8505  -23.9342   23.1634 H   0  0  0  0  0  0
  -31.6716  -25.2106   21.9642 H   0  0  0  0  0  0
  -31.8637  -23.5301   21.4493 H   0  0  0  0  0  0
  -30.0081  -24.6363   20.2986 H   0  0  0  0  0  0
  -29.0487  -15.5201   21.1169 H   0  0  0  0  0  0
  1 25  1  0  0  0
  1 30  2  0  0  0
  1 87  1  0  0  0
  2  3  1  0  0  0
  2 25  1  0  0  0
  2 91  1  0  0  0
  2 92  1  0  0  0
  3  4  1  0  0  0
  3 93  1  0  0  0
  3 94  1  0  0  0
  4  5  1  0  0  0
  4 95  1  0  0  0
  4 96  1  0  0  0
  5  6  1  0  0  0
  5 26  1  0  0  0
  5 97  1  0  0  0
  6 25  1  0  0  0
  6 98  1  0  0  0
  6 99  1  0  0  0
  7  8  2  0  0  0
  7 26  1  0  0  0
  7 29  1  0  0  0
  8  9  1  0  0  0
  8 22  1  0  0  0
  9 10  1  0  0  0
  9 27  2  0  0  0
 10 11  2  0  0  0
 10 15  1  0  0  0
 11 12  1  0  0  0
 11100  1  0  0  0
 12 13  2  0  0  0
 12101  1  0  0  0
 13 14  1  0  0  0
 13 31  1  0  0  0
 14 15  2  0  0  0
 14102  1  0  0  0
 15103  1  0  0  0
 16 17  2  0  0  0
 16 21  1  0  0  0
 16 31  1  0  0  0
 17 18  1  0  0  0
 17104  1  0  0  0
 18 19  2  0  0  0
 18105  1  0  0  0
 19 20  1  0  0  0
 19 24  1  0  0  0
 20 21  2  0  0  0
 20106  1  0  0  0
 21 23  1  0  0  0
 22 28  1  0  0  0
 22 32  2  0  0  0
 26 27  1  0  0  0
 28107  1  0  0  0
 28108  1  0  0  0
 29109  1  0  0  0
 29110  1  0  0  0
 33 34  1  0  0  0
 33 66  1  0  0  0
 33 70  2  0  0  0
 34 36  1  0  0  0
 34 59  1  0  0  0
 34111  1  0  0  0
 35 44  2  0  0  0
 35 45  1  0  0  0
 35 68  1  0  0  0
 36 56  1  0  0  0
 36112  1  0  0  0
 37 39  1  0  0  0
 37 47  1  0  0  0
 37 66  1  0  0  0
 37113  1  0  0  0
 38 43  2  0  0  0
 38 46  1  0  0  0
 38 47  1  0  0  0
 39 64  1  0  0  0
 39 67  2  0  0  0
 40 52  1  0  0  0
 40 53  2  0  0  0
 40 58  1  0  0  0
 41114  1  0  0  0
 41115  1  0  0  0
 41116  1  0  0  0
 41 48  1  0  0  0
 42 43  1  0  0  0
 42 66  1  0  0  0
 42117  1  0  0  0
 42118  1  0  0  0
 43 44  1  0  0  0
 44119  1  0  0  0
 45 46  2  0  0  0
 45120  1  0  0  0
 46121  1  0  0  0
 47122  1  0  0  0
 47123  1  0  0  0
 48 56  1  0  0  0
 48 65  1  0  0  0
 48124  1  0  0  0
 49 50  1  0  0  0
 49 53  1  0  0  0
 49 64  1  0  0  0
 49125  1  0  0  0
 50 51  1  0  0  0
 50126  1  0  0  0
 50127  1  0  0  0
 51 52  1  0  0  0
 51128  1  0  0  0
 51129  1  0  0  0
 52130  1  0  0  0
 52131  1  0  0  0
 53 54  1  0  0  0
 54 55  2  0  0  0
 54132  1  0  0  0
 55 57  1  0  0  0
 55133  1  0  0  0
 56 69  2  0  0  0
 57 58  2  0  0  0
 57134  1  0  0  0
 58135  1  0  0  0
 59 60  1  0  0  0
 59 61  1  0  0  0
 59 62  1  0  0  0
 60136  1  0  0  0
 60137  1  0  0  0
 60138  1  0  0  0
 61139  1  0  0  0
 61140  1  0  0  0
 61141  1  0  0  0
 62142  1  0  0  0
 62143  1  0  0  0
 62144  1  0  0  0
 63 65  1  0  0  0
 63145  1  0  0  0
 63146  1  0  0  0
 63147  1  0  0  0
 64148  1  0  0  0
 65149  1  0  0  0
 68 85  1  0  0  0
 71 72  2  0  0  0
 71 73  1  0  0  0
 71150  1  0  0  0
 72 74  1  0  0  0
 72151  1  0  0  0
 73 75  2  0  0  0
 73152  1  0  0  0
 74 76  2  0  0  0
 74 86  1  0  0  0
 75 76  1  0  0  0
 75 87  1  0  0  0
 76 90  1  0  0  0
 77 80  1  0  0  0
 77 86  1  0  0  0
 77 88  2  0  0  0
 78 79  1  0  0  0
 78153  1  0  0  0
 78154  1  0  0  0
 78 80  1  0  0  0
 79 86  1  0  0  0
 79155  1  0  0  0
 79156  1  0  0  0
 80 84  1  0  0  0
 80157  1  0  0  0
 81158  1  0  0  0
 81159  1  0  0  0
 81160  1  0  0  0
 81 85  1  0  0  0
 82 85  1  0  0  0
 82161  1  0  0  0
 82162  1  0  0  0
 82163  1  0  0  0
 83 89  1  0  0  0
 83164  1  0  0  0
 83165  1  0  0  0
 83166  1  0  0  0
 84 85  1  0  0  0
 84 89  1  0  0  0
 84167  1  0  0  0
 87168  1  0  0  0
M  ISO  4   1 100  68 101  85 101  87 100
M  END
> <chiral flag>
0

> <version>
0

> <s_m_source_file>
/data/baiqing/PycharmProjects/Reinvent-master-3.2/result/LINK_invent/BTK/process_docking_weight1_custom_product_contain_oxygen_bond_distance_aromatic_linkinvent_7_9_3/rearranged_h_0073.sdf

> <i_m_source_file_index>
69

> <r_mmod_Potential_Energy-OPLS-2005>
105.134696960449

> <r_mmod_Stretch_Energy-OPLS-2005>
65.7196197509766

> <r_mmod_Bend_Energy-OPLS-2005>
147.243087768555

> <r_mmod_Torsional_Energy-OPLS-2005>
313.326812744141

> <r_mmod_Improper_Torsional_Energy-OPLS-2005>
4.5557541847229

> <r_mmod_Van_der_Waal_Energy-OPLS-2005>
161.98713684082

> <r_mmod_Electrostatic_Energy-OPLS-2005>
-413.701782226562

> <r_mmod_Solvation_Energy-OPLS-2005>
-202.812911987305

> <b_mmod_Minimization_Converged-OPLS-2005>
0

> <r_mmod_RMS_Derivative-OPLS-2005>
0.854434370994568

$$$$
69
                    3D
 Structure written by MMmdl.
162171  0  0  1  0            999 V2000
  -30.5882  -14.8043   20.4412 C   0  0  0  0  0  0
  -30.4332  -12.4852   19.5002 C   0  0  0  0  0  0
  -29.5177  -12.5101   18.2549 C   0  0  0  0  0  0
  -28.0435  -12.3362   18.6631 C   0  0  0  0  0  0
  -27.6426  -13.2413   19.8583 C   0  0  2  0  0  0
  -28.6835  -13.1939   20.9991 C   0  0  0  0  0  0
  -25.2506  -13.8232   20.5736 C   0  0  0  0  0  0
  -24.1799  -13.0463   20.9217 C   0  0  0  0  0  0
  -24.6398  -11.6941   20.8729 C   0  0  0  0  0  0
  -23.9070  -10.4315   21.0380 C   0  0  0  0  0  0
  -24.3616   -9.4244   21.9177 C   0  0  0  0  0  0
  -23.6303   -8.2274   22.0762 C   0  0  0  0  0  0
  -22.4289   -8.0294   21.3547 C   0  0  0  0  0  0
  -21.9909   -9.0268   20.4649 C   0  0  0  0  0  0
  -22.7230  -10.2148   20.3046 C   0  0  0  0  0  0
  -21.6868   -6.0739   22.5276 C   0  0  0  0  0  0
  -21.4024   -6.5644   23.8200 C   0  0  0  0  0  0
  -21.3667   -5.6797   24.9167 C   0  0  0  0  0  0
  -21.6047   -4.3057   24.7226 C   0  0  0  0  0  0
  -21.8821   -3.8148   23.4351 C   0  0  0  0  0  0
  -21.9195   -4.6965   22.3401 C   0  0  0  0  0  0
  -22.7817  -13.5230   21.1855 C   0  0  0  0  0  0
  -22.1663   -4.2153   21.0975 F   0  0  0  0  0  0
  -21.5637   -3.4537   25.7740 F   0  0  0  0  0  0
  -29.9843  -13.5592   20.4243 N   0  0  0  0  0  0
  -26.2947  -12.9462   20.3323 N   0  0  0  0  0  0
  -25.9339  -11.6594   20.5779 N   0  0  0  0  0  0
  -22.0464  -12.8227   22.0400 N   0  0  0  0  0  0
  -25.4204  -15.1960   20.4194 N   0  0  0  0  0  0
  -31.7609  -14.9013   20.0663 O   0  0  0  0  0  0
  -21.6659   -6.8888   21.4237 O   0  0  0  0  0  0
  -22.3508  -14.5539   20.6698 O   0  0  0  0  0  0
  -24.6386  -31.8529   23.1976 C   0  0  0  0  0  0
  -25.9179  -32.4736   23.8339 C   0  0  1  0  0  0
  -27.2133  -27.2104   20.1226 C   0  0  0  0  0  0
  -25.5957  -33.8540   24.2245 N   0  0  0  0  0  0
  -23.4372  -30.4774   21.5448 C   0  0  2  0  0  0
  -24.8818  -28.9232   20.1110 C   0  0  0  0  0  0
  -22.7539  -29.4598   22.4919 C   0  0  0  0  0  0
  -18.0305  -28.1395   22.8489 C   0  0  0  0  0  0
  -24.1493  -36.7268   23.2643 C   0  0  0  0  0  0
  -25.9903  -30.7448   21.3898 C   0  0  0  0  0  0
  -26.0600  -29.3667   20.7253 C   0  0  0  0  0  0
  -27.2273  -28.5238   20.7218 C   0  0  0  0  0  0
  -26.0091  -26.8676   19.4587 C   0  0  0  0  0  0
  -24.8635  -27.6806   19.4698 C   0  0  0  0  0  0
  -23.6560  -29.8157   20.1611 C   0  0  0  0  0  0
  -25.4121  -36.3056   24.0328 C   0  0  1  0  0  0
  -20.5909  -28.3725   23.1245 C   0  0  2  0  0  0
  -20.6791  -26.9435   22.5397 C   0  0  0  0  0  0
  -19.5752  -26.6386   21.5215 C   0  0  0  0  0  0
  -18.1934  -26.7936   22.1628 C   0  0  0  0  0  0
  -19.1558  -28.8877   23.2857 C   0  0  0  0  0  0
  -18.9478  -30.1477   23.8872 C   0  0  0  0  0  0
  -17.6475  -30.6596   24.0557 C   0  0  0  0  0  0
  -25.9070  -34.9428   23.5088 C   0  0  0  0  0  0
  -16.5367  -29.9086   23.6344 C   0  0  0  0  0  0
  -16.7289  -28.6503   23.0370 C   0  0  0  0  0  0
  -26.4518  -31.6587   25.0758 C   0  0  0  0  0  0
  -25.3713  -31.3755   26.1460 C   0  0  0  0  0  0
  -27.0397  -30.2993   24.6311 C   0  0  0  0  0  0
  -27.6054  -32.4362   25.7527 C   0  0  0  0  0  0
  -27.5580  -37.1781   24.8461 C   0  0  0  0  0  0
  -21.4240  -29.3054   22.3628 N   0  0  0  0  0  0
  -26.4286  -37.3769   23.9418 N   0  0  0  0  0  0
  -24.7085  -31.0444   22.0988 N   0  0  0  0  0  0
  -23.4216  -28.8136   23.3038 O   0  0  0  0  0  0
  -28.2664  -26.2431   20.2022 O   0  0  0  0  0  0
  -26.5639  -34.8913   22.4655 O   0  0  0  0  0  0
  -23.5520  -32.1388   23.7225 O   0  0  0  0  0  0
  -29.2126  -19.6488   18.5204 C   0  0  0  0  0  0
  -29.6301  -18.6171   20.6781 C   0  0  0  0  0  0
  -29.3091  -18.3771   17.9171 C   0  0  0  0  0  0
  -29.3623  -19.8457   19.9096 C   0  0  0  0  0  0
  -29.7416  -17.2715   20.0808 C   0  0  0  0  0  0
  -29.5632  -17.2171   18.6787 C   0  0  0  0  0  0
  -28.7313  -23.4746   20.3222 C   0  0  0  0  0  0
  -29.7840  -21.7363   21.6127 C   0  0  0  0  0  0
  -29.5805  -23.2913   21.5600 C   0  0  0  0  0  0
  -29.1086  -18.2461   16.4186 C   0  0  0  0  0  0
  -28.8462  -23.8044   22.8121 C   0  0  0  0  0  0
  -30.9277  -24.0214   21.3855 C   0  0  0  0  0  0
  -27.9241  -24.7933   19.8634 C   0  0  0  0  0  0
  -28.6345  -22.3087   19.7127 N   0  0  0  0  0  0
  -29.2257  -21.2392   20.3628 N   0  0  0  0  0  0
  -29.8515  -15.9447   20.7834 N   0  0  0  0  0  0
  -29.5684  -16.0222   18.0410 F   0  0  0  0  0  0
  -31.4740  -12.6075   19.1985 H   0  0  0  0  0  0
  -30.3833  -11.5142   19.9955 H   0  0  0  0  0  0
  -29.8060  -11.7201   17.5594 H   0  0  0  0  0  0
  -29.6469  -13.4526   17.7212 H   0  0  0  0  0  0
  -27.9033  -11.2895   18.9329 H   0  0  0  0  0  0
  -27.3899  -12.5214   17.8106 H   0  0  0  0  0  0
  -27.6341  -14.2614   19.4740 H   0  0  0  0  0  0
  -28.7271  -12.2003   21.4470 H   0  0  0  0  0  0
  -28.4084  -13.8783   21.8034 H   0  0  0  0  0  0
  -25.2749   -9.5763   22.4752 H   0  0  0  0  0  0
  -24.0021   -7.4682   22.7491 H   0  0  0  0  0  0
  -21.0839   -8.8779   19.8952 H   0  0  0  0  0  0
  -22.3665  -10.9689   19.6163 H   0  0  0  0  0  0
  -21.2018   -7.6148   23.9707 H   0  0  0  0  0  0
  -21.1482   -6.0531   25.9070 H   0  0  0  0  0  0
  -22.0582   -2.7611   23.2845 H   0  0  0  0  0  0
  -22.4082  -11.9878   22.4759 H   0  0  0  0  0  0
  -21.1089  -13.1259   22.2606 H   0  0  0  0  0  0
  -24.6566  -15.8507   20.5471 H   0  0  0  0  0  0
  -26.2731  -15.6381   20.1026 H   0  0  0  0  0  0
  -26.7236  -32.5354   23.1072 H   0  0  0  0  0  0
  -25.0115  -33.9679   25.0393 H   0  0  0  0  0  0
  -22.7361  -31.3021   21.3993 H   0  0  0  0  0  0
  -23.3775  -35.9577   23.3280 H   0  0  0  0  0  0
  -24.3575  -36.8925   22.2057 H   0  0  0  0  0  0
  -23.7221  -37.6451   23.6692 H   0  0  0  0  0  0
  -26.1456  -31.5055   20.6241 H   0  0  0  0  0  0
  -26.8598  -30.7840   22.0334 H   0  0  0  0  0  0
  -28.1227  -28.8563   21.2268 H   0  0  0  0  0  0
  -25.8955  -25.9341   18.9312 H   0  0  0  0  0  0
  -23.9641  -27.3342   18.9779 H   0  0  0  0  0  0
  -23.7837  -30.5941   19.4080 H   0  0  0  0  0  0
  -22.7709  -29.2558   19.8539 H   0  0  0  0  0  0
  -25.1299  -36.1902   25.0823 H   0  0  0  0  0  0
  -20.9993  -28.3314   24.1371 H   0  0  0  0  0  0
  -20.5711  -26.2342   23.3620 H   0  0  0  0  0  0
  -21.6658  -26.7456   22.1185 H   0  0  0  0  0  0
  -19.6917  -25.6291   21.1262 H   0  0  0  0  0  0
  -19.6679  -27.3183   20.6729 H   0  0  0  0  0  0
  -17.4208  -26.6707   21.4022 H   0  0  0  0  0  0
  -18.0308  -26.0074   22.9015 H   0  0  0  0  0  0
  -19.7950  -30.7303   24.2230 H   0  0  0  0  0  0
  -17.5027  -31.6272   24.5160 H   0  0  0  0  0  0
  -15.5363  -30.2979   23.7680 H   0  0  0  0  0  0
  -15.8693  -28.0809   22.7103 H   0  0  0  0  0  0
  -24.5904  -30.7087   25.7782 H   0  0  0  0  0  0
  -24.8888  -32.2931   26.4839 H   0  0  0  0  0  0
  -25.8012  -30.8970   27.0270 H   0  0  0  0  0  0
  -26.3021  -29.6713   24.1299 H   0  0  0  0  0  0
  -27.4008  -29.7288   25.4881 H   0  0  0  0  0  0
  -27.8931  -30.4255   23.9641 H   0  0  0  0  0  0
  -27.2645  -33.3687   26.2048 H   0  0  0  0  0  0
  -28.3885  -32.6893   25.0360 H   0  0  0  0  0  0
  -28.0705  -31.8534   26.5493 H   0  0  0  0  0  0
  -28.2575  -38.0100   24.7555 H   0  0  0  0  0  0
  -28.1108  -36.2638   24.6247 H   0  0  0  0  0  0
  -27.2301  -37.1369   25.8863 H   0  0  0  0  0  0
  -20.9448  -29.8775   21.6810 H   0  0  0  0  0  0
  -26.0166  -38.2844   24.1435 H   0  0  0  0  0  0
  -29.0121  -20.5008   17.8860 H   0  0  0  0  0  0
  -29.7320  -18.7036   21.7503 H   0  0  0  0  0  0
  -29.2503  -21.2902   22.4523 H   0  0  0  0  0  0
  -30.8354  -21.4627   21.7076 H   0  0  0  0  0  0
  -28.7863  -19.1857   15.9669 H   0  0  0  0  0  0
  -28.3494  -17.4954   16.2006 H   0  0  0  0  0  0
  -30.0350  -17.9349   15.9366 H   0  0  0  0  0  0
  -27.8844  -23.3083   22.9414 H   0  0  0  0  0  0
  -28.6558  -24.8768   22.7539 H   0  0  0  0  0  0
  -29.4305  -23.6257   23.7147 H   0  0  0  0  0  0
  -31.4602  -23.6708   20.4992 H   0  0  0  0  0  0
  -31.5807  -23.8581   22.2442 H   0  0  0  0  0  0
  -30.7910  -25.0994   21.2800 H   0  0  0  0  0  0
  -26.9355  -24.6199   20.2897 H   0  0  0  0  0  0
  -27.7986  -24.7403   18.7812 H   0  0  0  0  0  0
  -29.0391  -15.7233   21.3380 H   0  0  0  0  0  0
  1 25  1  0  0  0
  1 30  2  0  0  0
  1 86  1  0  0  0
  2  3  1  0  0  0
  2 25  1  0  0  0
  2 88  1  0  0  0
  2 89  1  0  0  0
  3  4  1  0  0  0
  3 90  1  0  0  0
  3 91  1  0  0  0
  4  5  1  0  0  0
  4 92  1  0  0  0
  4 93  1  0  0  0
  5  6  1  0  0  0
  5 26  1  0  0  0
  5 94  1  0  0  0
  6 25  1  0  0  0
  6 95  1  0  0  0
  6 96  1  0  0  0
  7  8  2  0  0  0
  7 26  1  0  0  0
  7 29  1  0  0  0
  8  9  1  0  0  0
  8 22  1  0  0  0
  9 10  1  0  0  0
  9 27  2  0  0  0
 10 11  2  0  0  0
 10 15  1  0  0  0
 11 12  1  0  0  0
 11 97  1  0  0  0
 12 13  2  0  0  0
 12 98  1  0  0  0
 13 14  1  0  0  0
 13 31  1  0  0  0
 14 15  2  0  0  0
 14 99  1  0  0  0
 15100  1  0  0  0
 16 17  2  0  0  0
 16 21  1  0  0  0
 16 31  1  0  0  0
 17 18  1  0  0  0
 17101  1  0  0  0
 18 19  2  0  0  0
 18102  1  0  0  0
 19 20  1  0  0  0
 19 24  1  0  0  0
 20 21  2  0  0  0
 20103  1  0  0  0
 21 23  1  0  0  0
 22 28  1  0  0  0
 22 32  2  0  0  0
 26 27  1  0  0  0
 28104  1  0  0  0
 28105  1  0  0  0
 29106  1  0  0  0
 29107  1  0  0  0
 33 34  1  0  0  0
 33 66  1  0  0  0
 33 70  2  0  0  0
 34 36  1  0  0  0
 34 59  1  0  0  0
 34108  1  0  0  0
 35 44  2  0  0  0
 35 45  1  0  0  0
 35 68  1  0  0  0
 36 56  1  0  0  0
 36109  1  0  0  0
 37 39  1  0  0  0
 37 47  1  0  0  0
 37 66  1  0  0  0
 37110  1  0  0  0
 38 43  2  0  0  0
 38 46  1  0  0  0
 38 47  1  0  0  0
 39 64  1  0  0  0
 39 67  2  0  0  0
 40 52  1  0  0  0
 40 53  2  0  0  0
 40 58  1  0  0  0
 41111  1  0  0  0
 41112  1  0  0  0
 41113  1  0  0  0
 41 48  1  0  0  0
 42 43  1  0  0  0
 42 66  1  0  0  0
 42114  1  0  0  0
 42115  1  0  0  0
 43 44  1  0  0  0
 44116  1  0  0  0
 45 46  2  0  0  0
 45117  1  0  0  0
 46118  1  0  0  0
 47119  1  0  0  0
 47120  1  0  0  0
 48 56  1  0  0  0
 48 65  1  0  0  0
 48121  1  0  0  0
 49 50  1  0  0  0
 49 53  1  0  0  0
 49 64  1  0  0  0
 49122  1  0  0  0
 50 51  1  0  0  0
 50123  1  0  0  0
 50124  1  0  0  0
 51 52  1  0  0  0
 51125  1  0  0  0
 51126  1  0  0  0
 52127  1  0  0  0
 52128  1  0  0  0
 53 54  1  0  0  0
 54 55  2  0  0  0
 54129  1  0  0  0
 55 57  1  0  0  0
 55130  1  0  0  0
 56 69  2  0  0  0
 57 58  2  0  0  0
 57131  1  0  0  0
 58132  1  0  0  0
 59 60  1  0  0  0
 59 61  1  0  0  0
 59 62  1  0  0  0
 60133  1  0  0  0
 60134  1  0  0  0
 60135  1  0  0  0
 61136  1  0  0  0
 61137  1  0  0  0
 61138  1  0  0  0
 62139  1  0  0  0
 62140  1  0  0  0
 62141  1  0  0  0
 63 65  1  0  0  0
 63142  1  0  0  0
 63143  1  0  0  0
 63144  1  0  0  0
 64145  1  0  0  0
 65146  1  0  0  0
 68 83  1  0  0  0
 71 73  2  0  0  0
 71 74  1  0  0  0
 71147  1  0  0  0
 72 74  2  0  0  0
 72 75  1  0  0  0
 72148  1  0  0  0
 73 76  1  0  0  0
 73 80  1  0  0  0
 74 85  1  0  0  0
 75 76  2  0  0  0
 75 86  1  0  0  0
 76 87  1  0  0  0
 77 79  1  0  0  0
 77 83  1  0  0  0
 77 84  2  0  0  0
 78 79  1  0  0  0
 78 85  1  0  0  0
 78149  1  0  0  0
 78150  1  0  0  0
 79 81  1  0  0  0
 79 82  1  0  0  0
 80151  1  0  0  0
 80152  1  0  0  0
 80153  1  0  0  0
 81154  1  0  0  0
 81155  1  0  0  0
 81156  1  0  0  0
 82157  1  0  0  0
 82158  1  0  0  0
 82159  1  0  0  0
 83160  1  0  0  0
 83161  1  0  0  0
 84 85  1  0  0  0
 86162  1  0  0  0
M  ISO  4   1 100  68 101  83 101  86 100
M  END
> <chiral flag>
0

> <version>
0

> <s_m_source_file>
/data/baiqing/PycharmProjects/Reinvent-master-3.2/result/LINK_invent/BTK/process_docking_weight1_custom_product_contain_oxygen_bond_distance_aromatic_linkinvent_7_9_3/rearranged_h_0073.sdf

> <i_m_source_file_index>
70

> <r_mmod_Potential_Energy-OPLS-2005>
326.634735107422

> <r_mmod_Stretch_Energy-OPLS-2005>
159.776336669922

> <r_mmod_Bend_Energy-OPLS-2005>
228.797241210938

> <r_mmod_Torsional_Energy-OPLS-2005>
265.559356689453

> <r_mmod_Improper_Torsional_Energy-OPLS-2005>
6.44096183776855

> <r_mmod_Van_der_Waal_Energy-OPLS-2005>
139.096237182617

> <r_mmod_Electrostatic_Energy-OPLS-2005>
-382.313018798828

> <r_mmod_Solvation_Energy-OPLS-2005>
-210.62939453125

> <b_mmod_Minimization_Converged-OPLS-2005>
0

> <r_mmod_RMS_Derivative-OPLS-2005>
2.12054991722107

$$$$
70
                    3D
 Structure written by MMmdl.
164172  0  0  1  0            999 V2000
  -30.7353  -14.4107   20.6886 C   0  0  0  0  0  0
  -30.4355  -12.3203   19.3970 C   0  0  0  0  0  0
  -29.4922  -12.5452   18.1965 C   0  0  0  0  0  0
  -28.0154  -12.3937   18.6089 C   0  0  0  0  0  0
  -27.6728  -13.2006   19.8884 C   0  0  2  0  0  0
  -28.7146  -12.9275   20.9969 C   0  0  0  0  0  0
  -25.2632  -13.8133   20.5680 C   0  0  0  0  0  0
  -24.1863  -13.0432   20.9152 C   0  0  0  0  0  0
  -24.6387  -11.6890   20.8710 C   0  0  0  0  0  0
  -23.9029  -10.4285   21.0377 C   0  0  0  0  0  0
  -24.3593   -9.4215   21.9170 C   0  0  0  0  0  0
  -23.6276   -8.2249   22.0753 C   0  0  0  0  0  0
  -22.4266   -8.0265   21.3537 C   0  0  0  0  0  0
  -21.9887   -9.0233   20.4648 C   0  0  0  0  0  0
  -22.7193  -10.2121   20.3043 C   0  0  0  0  0  0
  -21.6853   -6.0719   22.5265 C   0  0  0  0  0  0
  -21.4005   -6.5630   23.8192 C   0  0  0  0  0  0
  -21.3666   -5.6793   24.9165 C   0  0  0  0  0  0
  -21.6047   -4.3049   24.7224 C   0  0  0  0  0  0
  -21.8820   -3.8131   23.4343 C   0  0  0  0  0  0
  -21.9194   -4.6946   22.3394 C   0  0  0  0  0  0
  -22.7881  -13.5251   21.1799 C   0  0  0  0  0  0
  -22.1672   -4.2128   21.0974 F   0  0  0  0  0  0
  -21.5640   -3.4540   25.7740 F   0  0  0  0  0  0
  -30.0605  -13.2481   20.4769 N   0  0  0  0  0  0
  -26.3075  -12.9294   20.3417 N   0  0  0  0  0  0
  -25.9323  -11.6448   20.5764 N   0  0  0  0  0  0
  -22.0504  -12.8269   22.0363 N   0  0  0  0  0  0
  -25.4375  -15.1852   20.4088 N   0  0  0  0  0  0
  -31.7454  -14.7273   20.0516 O   0  0  0  0  0  0
  -21.6643   -6.8858   21.4225 O   0  0  0  0  0  0
  -22.3578  -14.5560   20.6640 O   0  0  0  0  0  0
  -24.6144  -31.8694   23.2128 C   0  0  0  0  0  0
  -25.9028  -32.4842   23.8424 C   0  0  1  0  0  0
  -27.2397  -27.4409   20.0821 C   0  0  0  0  0  0
  -25.5893  -33.8642   24.2354 N   0  0  0  0  0  0
  -23.4030  -30.4987   21.5517 C   0  0  2  0  0  0
  -24.8501  -28.9742   20.1100 C   0  0  0  0  0  0
  -22.7427  -29.4676   22.4957 C   0  0  0  0  0  0
  -18.0287  -28.1397   22.8490 C   0  0  0  0  0  0
  -24.1465  -36.7315   23.2647 C   0  0  0  0  0  0
  -25.9356  -30.8380   21.3671 C   0  0  0  0  0  0
  -26.0132  -29.4748   20.7075 C   0  0  0  0  0  0
  -27.2093  -28.7171   20.6909 C   0  0  0  0  0  0
  -26.0523  -26.9693   19.4646 C   0  0  0  0  0  0
  -24.8657  -27.7194   19.4854 C   0  0  0  0  0  0
  -23.6120  -29.8412   20.1629 C   0  0  0  0  0  0
  -25.4093  -36.3134   24.0349 C   0  0  1  0  0  0
  -20.5878  -28.3675   23.1314 C   0  0  2  0  0  0
  -20.6761  -26.9404   22.5412 C   0  0  0  0  0  0
  -19.5733  -26.6387   21.5216 C   0  0  0  0  0  0
  -18.1921  -26.7942   22.1633 C   0  0  0  0  0  0
  -19.1538  -28.8849   23.2902 C   0  0  0  0  0  0
  -18.9464  -30.1462   23.8914 C   0  0  0  0  0  0
  -17.6464  -30.6594   24.0570 C   0  0  0  0  0  0
  -25.9030  -34.9493   23.5141 C   0  0  0  0  0  0
  -16.5353  -29.9103   23.6327 C   0  0  0  0  0  0
  -16.7276  -28.6521   23.0340 C   0  0  0  0  0  0
  -26.4457  -31.6628   25.0754 C   0  0  0  0  0  0
  -25.3721  -31.3735   26.1503 C   0  0  0  0  0  0
  -27.0303  -30.3092   24.6120 C   0  0  0  0  0  0
  -27.6043  -32.4342   25.7509 C   0  0  0  0  0  0
  -27.5570  -37.1814   24.8478 C   0  0  0  0  0  0
  -21.4144  -29.3048   22.3716 N   0  0  0  0  0  0
  -26.4282  -37.3809   23.9419 N   0  0  0  0  0  0
  -24.6697  -31.0811   22.1024 N   0  0  0  0  0  0
  -23.4204  -28.8184   23.2968 O   0  0  0  0  0  0
  -28.3934  -26.6693   20.1289 O   0  0  0  0  0  0
  -26.5591  -34.8935   22.4707 O   0  0  0  0  0  0
  -23.5334  -32.1439   23.7521 O   0  0  0  0  0  0
  -30.0561  -18.8392   20.8797 C   0  0  0  0  0  0
  -30.4440  -17.4817   20.7801 C   0  0  0  0  0  0
  -29.5168  -17.0745   22.9849 C   0  0  0  0  0  0
  -29.3426  -19.3246   22.0027 C   0  0  0  0  0  0
  -30.1200  -16.5688   21.8121 C   0  0  0  0  0  0
  -29.1337  -18.4306   23.1024 C   0  0  0  0  0  0
  -28.7002  -20.6634   21.9001 C   0  0  0  0  0  0
  -29.9499  -24.7754   21.9170 C   0  0  0  0  0  0
  -30.2854  -24.0542   19.5125 C   0  0  0  0  0  0
  -28.4831  -22.9571   20.9380 C   0  0  0  0  0  0
  -28.1417  -25.2524   20.1688 C   0  0  0  0  0  0
  -29.2561  -24.2701   20.6380 C   0  0  0  0  0  0
  -28.4949  -18.7972   24.2972 N   0  0  0  0  0  0
  -27.4550  -20.7855   22.3632 N   0  0  0  0  0  0
  -30.2724  -15.1492   21.7128 N   0  0  0  0  0  0
  -29.2601  -21.7446   21.3061 N   0  3  0  0  0  0
  -31.4739  -12.4475   19.0858 H   0  0  0  0  0  0
  -30.3616  -11.2908   19.7515 H   0  0  0  0  0  0
  -29.7318  -11.8494   17.3913 H   0  0  0  0  0  0
  -29.6544  -13.5436   17.7878 H   0  0  0  0  0  0
  -27.8148  -11.3346   18.7656 H   0  0  0  0  0  0
  -27.3646  -12.7015   17.7897 H   0  0  0  0  0  0
  -27.7331  -14.2586   19.6330 H   0  0  0  0  0  0
  -28.6874  -11.8718   21.2740 H   0  0  0  0  0  0
  -28.4538  -13.4648   21.9081 H   0  0  0  0  0  0
  -25.2735   -9.5715   22.4746 H   0  0  0  0  0  0
  -23.9986   -7.4653   22.7488 H   0  0  0  0  0  0
  -21.0810   -8.8721   19.8968 H   0  0  0  0  0  0
  -22.3610  -10.9653   19.6159 H   0  0  0  0  0  0
  -21.1982   -7.6138   23.9681 H   0  0  0  0  0  0
  -21.1506   -6.0533   25.9069 H   0  0  0  0  0  0
  -22.0595   -2.7590   23.2847 H   0  0  0  0  0  0
  -22.4126  -11.9962   22.4810 H   0  0  0  0  0  0
  -21.1102  -13.1291   22.2504 H   0  0  0  0  0  0
  -24.6754  -15.8444   20.5205 H   0  0  0  0  0  0
  -26.2974  -15.6228   20.1030 H   0  0  0  0  0  0
  -26.7106  -32.5551   23.1195 H   0  0  0  0  0  0
  -25.0030  -33.9809   25.0491 H   0  0  0  0  0  0
  -22.6931  -31.3171   21.4184 H   0  0  0  0  0  0
  -23.3735  -35.9645   23.3344 H   0  0  0  0  0  0
  -24.3560  -36.8895   22.2059 H   0  0  0  0  0  0
  -23.7206  -37.6525   23.6633 H   0  0  0  0  0  0
  -26.0524  -31.6080   20.6029 H   0  0  0  0  0  0
  -26.8225  -30.8869   21.9877 H   0  0  0  0  0  0
  -28.1027  -29.0990   21.1650 H   0  0  0  0  0  0
  -26.0089  -26.0181   18.9582 H   0  0  0  0  0  0
  -23.9739  -27.3305   19.0130 H   0  0  0  0  0  0
  -23.7232  -30.6235   19.4118 H   0  0  0  0  0  0
  -22.7339  -29.2687   19.8589 H   0  0  0  0  0  0
  -25.1266  -36.2004   25.0845 H   0  0  0  0  0  0
  -20.9992  -28.3223   24.1425 H   0  0  0  0  0  0
  -20.5667  -26.2274   23.3594 H   0  0  0  0  0  0
  -21.6630  -26.7435   22.1200 H   0  0  0  0  0  0
  -19.6883  -25.6300   21.1242 H   0  0  0  0  0  0
  -19.6675  -27.3198   20.6750 H   0  0  0  0  0  0
  -17.4181  -26.6704   21.4036 H   0  0  0  0  0  0
  -18.0312  -26.0092   22.9040 H   0  0  0  0  0  0
  -19.7944  -30.7279   24.2265 H   0  0  0  0  0  0
  -17.5032  -31.6279   24.5176 H   0  0  0  0  0  0
  -15.5362  -30.3018   23.7649 H   0  0  0  0  0  0
  -15.8677  -28.0867   22.7025 H   0  0  0  0  0  0
  -24.5893  -30.7081   25.7842 H   0  0  0  0  0  0
  -24.8904  -32.2885   26.4965 H   0  0  0  0  0  0
  -25.8074  -30.8900   27.0262 H   0  0  0  0  0  0
  -26.2864  -29.6857   24.1148 H   0  0  0  0  0  0
  -27.4091  -29.7320   25.4568 H   0  0  0  0  0  0
  -27.8679  -30.4470   23.9280 H   0  0  0  0  0  0
  -27.2685  -33.3646   26.2105 H   0  0  0  0  0  0
  -28.3831  -32.6901   25.0312 H   0  0  0  0  0  0
  -28.0730  -31.8455   26.5407 H   0  0  0  0  0  0
  -28.2614  -38.0086   24.7511 H   0  0  0  0  0  0
  -28.1035  -36.2621   24.6319 H   0  0  0  0  0  0
  -27.2290  -37.1495   25.8883 H   0  0  0  0  0  0
  -20.9286  -29.8836   21.7002 H   0  0  0  0  0  0
  -26.0182  -38.2892   24.1433 H   0  0  0  0  0  0
  -30.2417  -19.4892   20.0372 H   0  0  0  0  0  0
  -30.9247  -17.1470   19.8714 H   0  0  0  0  0  0
  -29.2960  -16.3921   23.7937 H   0  0  0  0  0  0
  -29.2305  -24.9413   22.7209 H   0  0  0  0  0  0
  -30.4735  -25.7162   21.7444 H   0  0  0  0  0  0
  -30.6887  -24.0587   22.2799 H   0  0  0  0  0  0
  -31.0932  -23.3929   19.8277 H   0  0  0  0  0  0
  -30.7387  -24.9964   19.2013 H   0  0  0  0  0  0
  -29.8235  -23.6078   18.6301 H   0  0  0  0  0  0
  -27.8526  -22.6990   20.0856 H   0  0  0  0  0  0
  -27.7994  -23.1794   21.7589 H   0  0  0  0  0  0
  -27.2879  -25.1073   20.8358 H   0  0  0  0  0  0
  -27.8236  -24.9288   19.1760 H   0  0  0  0  0  0
  -28.5636  -18.1723   25.0958 H   0  0  0  0  0  0
  -28.4879  -19.7723   24.5815 H   0  0  0  0  0  0
  -26.9334  -21.6444   22.3504 H   0  0  0  0  0  0
  -27.0841  -19.9930   22.8729 H   0  0  0  0  0  0
  -29.6781  -14.6247   22.3354 H   0  0  0  0  0  0
  -30.2030  -21.6602   20.9486 H   0  0  0  0  0  0
  1 25  1  0  0  0
  1 30  2  0  0  0
  1 85  1  0  0  0
  2  3  1  0  0  0
  2 25  1  0  0  0
  2 87  1  0  0  0
  2 88  1  0  0  0
  3  4  1  0  0  0
  3 89  1  0  0  0
  3 90  1  0  0  0
  4  5  1  0  0  0
  4 91  1  0  0  0
  4 92  1  0  0  0
  5  6  1  0  0  0
  5 26  1  0  0  0
  5 93  1  0  0  0
  6 25  1  0  0  0
  6 94  1  0  0  0
  6 95  1  0  0  0
  7  8  2  0  0  0
  7 26  1  0  0  0
  7 29  1  0  0  0
  8  9  1  0  0  0
  8 22  1  0  0  0
  9 10  1  0  0  0
  9 27  2  0  0  0
 10 11  2  0  0  0
 10 15  1  0  0  0
 11 12  1  0  0  0
 11 96  1  0  0  0
 12 13  2  0  0  0
 12 97  1  0  0  0
 13 14  1  0  0  0
 13 31  1  0  0  0
 14 15  2  0  0  0
 14 98  1  0  0  0
 15 99  1  0  0  0
 16 17  2  0  0  0
 16 21  1  0  0  0
 16 31  1  0  0  0
 17 18  1  0  0  0
 17100  1  0  0  0
 18 19  2  0  0  0
 18101  1  0  0  0
 19 20  1  0  0  0
 19 24  1  0  0  0
 20 21  2  0  0  0
 20102  1  0  0  0
 21 23  1  0  0  0
 22 28  1  0  0  0
 22 32  2  0  0  0
 26 27  1  0  0  0
 28103  1  0  0  0
 28104  1  0  0  0
 29105  1  0  0  0
 29106  1  0  0  0
 33 34  1  0  0  0
 33 66  1  0  0  0
 33 70  2  0  0  0
 34 36  1  0  0  0
 34 59  1  0  0  0
 34107  1  0  0  0
 35 44  2  0  0  0
 35 45  1  0  0  0
 35 68  1  0  0  0
 36 56  1  0  0  0
 36108  1  0  0  0
 37 39  1  0  0  0
 37 47  1  0  0  0
 37 66  1  0  0  0
 37109  1  0  0  0
 38 43  2  0  0  0
 38 46  1  0  0  0
 38 47  1  0  0  0
 39 64  1  0  0  0
 39 67  2  0  0  0
 40 52  1  0  0  0
 40 53  2  0  0  0
 40 58  1  0  0  0
 41110  1  0  0  0
 41111  1  0  0  0
 41112  1  0  0  0
 41 48  1  0  0  0
 42 43  1  0  0  0
 42 66  1  0  0  0
 42113  1  0  0  0
 42114  1  0  0  0
 43 44  1  0  0  0
 44115  1  0  0  0
 45 46  2  0  0  0
 45116  1  0  0  0
 46117  1  0  0  0
 47118  1  0  0  0
 47119  1  0  0  0
 48 56  1  0  0  0
 48 65  1  0  0  0
 48120  1  0  0  0
 49 50  1  0  0  0
 49 53  1  0  0  0
 49 64  1  0  0  0
 49121  1  0  0  0
 50 51  1  0  0  0
 50122  1  0  0  0
 50123  1  0  0  0
 51 52  1  0  0  0
 51124  1  0  0  0
 51125  1  0  0  0
 52126  1  0  0  0
 52127  1  0  0  0
 53 54  1  0  0  0
 54 55  2  0  0  0
 54128  1  0  0  0
 55 57  1  0  0  0
 55129  1  0  0  0
 56 69  2  0  0  0
 57 58  2  0  0  0
 57130  1  0  0  0
 58131  1  0  0  0
 59 60  1  0  0  0
 59 61  1  0  0  0
 59 62  1  0  0  0
 60132  1  0  0  0
 60133  1  0  0  0
 60134  1  0  0  0
 61135  1  0  0  0
 61136  1  0  0  0
 61137  1  0  0  0
 62138  1  0  0  0
 62139  1  0  0  0
 62140  1  0  0  0
 63 65  1  0  0  0
 63141  1  0  0  0
 63142  1  0  0  0
 63143  1  0  0  0
 64144  1  0  0  0
 65145  1  0  0  0
 68 81  1  0  0  0
 71 72  2  0  0  0
 71 74  1  0  0  0
 71146  1  0  0  0
 72 75  1  0  0  0
 72147  1  0  0  0
 73 75  2  0  0  0
 73 76  1  0  0  0
 73148  1  0  0  0
 74 76  2  0  0  0
 74 77  1  0  0  0
 75 85  1  0  0  0
 76 83  1  0  0  0
 77 84  1  0  0  0
 77 86  2  0  0  0
 78149  1  0  0  0
 78150  1  0  0  0
 78151  1  0  0  0
 78 82  1  0  0  0
 79 82  1  0  0  0
 79152  1  0  0  0
 79153  1  0  0  0
 79154  1  0  0  0
 80 82  1  0  0  0
 80 86  1  0  0  0
 80155  1  0  0  0
 80156  1  0  0  0
 81 82  1  0  0  0
 81157  1  0  0  0
 81158  1  0  0  0
 83159  1  0  0  0
 83160  1  0  0  0
 84161  1  0  0  0
 84162  1  0  0  0
 85163  1  0  0  0
 86164  1  0  0  0
M  CHG  1  86   1
M  ISO  4   1 100  68 101  81 101  85 100
M  END
> <chiral flag>
0

> <version>
0

> <s_m_source_file>
/data/baiqing/PycharmProjects/Reinvent-master-3.2/result/LINK_invent/BTK/process_docking_weight1_custom_product_contain_oxygen_bond_distance_aromatic_linkinvent_7_9_3/rearranged_h_0073.sdf

> <i_m_source_file_index>
71

> <r_mmod_Potential_Energy-OPLS-2005>
-48.9837303161621

> <r_mmod_Stretch_Energy-OPLS-2005>
43.5334854125977

> <r_mmod_Bend_Energy-OPLS-2005>
124.125152587891

> <r_mmod_Torsional_Energy-OPLS-2005>
249.763656616211

> <r_mmod_Improper_Torsional_Energy-OPLS-2005>
8.96836757659912

> <r_mmod_Van_der_Waal_Energy-OPLS-2005>
175.575408935547

> <r_mmod_Electrostatic_Energy-OPLS-2005>
-252.590591430664

> <r_mmod_Solvation_Energy-OPLS-2005>
-409.567260742188

> <b_mmod_Minimization_Converged-OPLS-2005>
0

> <r_mmod_RMS_Derivative-OPLS-2005>
3.0304274559021

$$$$
71
                    3D
 Structure written by MMmdl.
156164  0  0  1  0            999 V2000
  -30.6848  -14.4846   20.5214 C   0  0  0  0  0  0
  -30.4295  -12.2983   19.4359 C   0  0  0  0  0  0
  -29.5055  -12.4948   18.2144 C   0  0  0  0  0  0
  -28.0232  -12.3600   18.6222 C   0  0  0  0  0  0
  -27.6633  -13.2052   19.8737 C   0  0  2  0  0  0
  -28.7055  -12.9967   20.9991 C   0  0  0  0  0  0
  -25.2592  -13.8164   20.5667 C   0  0  0  0  0  0
  -24.1832  -13.0447   20.9166 C   0  0  0  0  0  0
  -24.6385  -11.6916   20.8733 C   0  0  0  0  0  0
  -23.9058  -10.4304   21.0412 C   0  0  0  0  0  0
  -24.3617   -9.4212   21.9187 C   0  0  0  0  0  0
  -23.6282   -8.2253   22.0759 C   0  0  0  0  0  0
  -22.4263   -8.0298   21.3552 C   0  0  0  0  0  0
  -21.9901   -9.0274   20.4654 C   0  0  0  0  0  0
  -22.7238  -10.2150   20.3048 C   0  0  0  0  0  0
  -21.6843   -6.0741   22.5276 C   0  0  0  0  0  0
  -21.4026   -6.5643   23.8215 C   0  0  0  0  0  0
  -21.3652   -5.6788   24.9175 C   0  0  0  0  0  0
  -21.6036   -4.3045   24.7216 C   0  0  0  0  0  0
  -21.8818   -3.8142   23.4332 C   0  0  0  0  0  0
  -21.9196   -4.6972   22.3396 C   0  0  0  0  0  0
  -22.7851  -13.5258   21.1805 C   0  0  0  0  0  0
  -22.1659   -4.2163   21.0970 F   0  0  0  0  0  0
  -21.5617   -3.4525   25.7723 F   0  0  0  0  0  0
  -30.0383  -13.2909   20.4486 N   0  0  0  0  0  0
  -26.3027  -12.9325   20.3341 N   0  0  0  0  0  0
  -25.9314  -11.6494   20.5756 N   0  0  0  0  0  0
  -22.0460  -12.8295   22.0374 N   0  0  0  0  0  0
  -25.4317  -15.1880   20.4046 N   0  0  0  0  0  0
  -31.8326  -14.6521   20.0959 O   0  0  0  0  0  0
  -21.6623   -6.8893   21.4243 O   0  0  0  0  0  0
  -22.3559  -14.5563   20.6635 O   0  0  0  0  0  0
  -24.6151  -31.8669   23.2107 C   0  0  0  0  0  0
  -25.9040  -32.4827   23.8398 C   0  0  1  0  0  0
  -27.2362  -27.4373   20.0954 C   0  0  0  0  0  0
  -25.5909  -33.8628   24.2337 N   0  0  0  0  0  0
  -23.4028  -30.4892   21.5500 C   0  0  2  0  0  0
  -24.8514  -28.9511   20.1174 C   0  0  0  0  0  0
  -22.7401  -29.4664   22.5004 C   0  0  0  0  0  0
  -18.0264  -28.1393   22.8504 C   0  0  0  0  0  0
  -24.1477  -36.7315   23.2636 C   0  0  0  0  0  0
  -25.9304  -30.8328   21.3619 C   0  0  0  0  0  0
  -26.0110  -29.4670   20.7098 C   0  0  0  0  0  0
  -27.2121  -28.7186   20.6902 C   0  0  0  0  0  0
  -26.0628  -26.9319   19.5002 C   0  0  0  0  0  0
  -24.8711  -27.6836   19.5089 C   0  0  0  0  0  0
  -23.6116  -29.8162   20.1664 C   0  0  0  0  0  0
  -25.4097  -36.3121   24.0347 C   0  0  1  0  0  0
  -20.5850  -28.3680   23.1329 C   0  0  2  0  0  0
  -20.6756  -26.9423   22.5414 C   0  0  0  0  0  0
  -19.5736  -26.6400   21.5210 C   0  0  0  0  0  0
  -18.1916  -26.7943   22.1624 C   0  0  0  0  0  0
  -19.1511  -28.8853   23.2910 C   0  0  0  0  0  0
  -18.9443  -30.1459   23.8918 C   0  0  0  0  0  0
  -17.6449  -30.6600   24.0576 C   0  0  0  0  0  0
  -25.9026  -34.9484   23.5129 C   0  0  0  0  0  0
  -16.5339  -29.9102   23.6339 C   0  0  0  0  0  0
  -16.7257  -28.6516   23.0365 C   0  0  0  0  0  0
  -26.4467  -31.6630   25.0736 C   0  0  0  0  0  0
  -25.3738  -31.3744   26.1489 C   0  0  0  0  0  0
  -27.0291  -30.3073   24.6125 C   0  0  0  0  0  0
  -27.6033  -32.4358   25.7497 C   0  0  0  0  0  0
  -27.5578  -37.1814   24.8464 C   0  0  0  0  0  0
  -21.4133  -29.3045   22.3737 N   0  0  0  0  0  0
  -26.4286  -37.3808   23.9419 N   0  0  0  0  0  0
  -24.6677  -31.0763   22.1010 N   0  0  0  0  0  0
  -23.4173  -28.8211   23.3052 O   0  0  0  0  0  0
  -28.3891  -26.6840   20.0818 O   0  0  0  0  0  0
  -26.5565  -34.8941   22.4677 O   0  0  0  0  0  0
  -23.5346  -32.1424   23.7497 O   0  0  0  0  0  0
  -29.6636  -18.0169   20.9156 C   0  0  0  0  0  0
  -30.1241  -16.8817   18.8101 C   0  0  0  0  0  0
  -29.6611  -19.2783   20.2486 C   0  0  0  0  0  0
  -29.9261  -16.8117   20.2112 C   0  0  0  0  0  0
  -30.0889  -18.1157   18.1379 C   0  0  0  0  0  0
  -29.8690  -19.3100   18.8485 C   0  0  0  0  0  0
  -29.4748  -20.5377   21.0051 C   0  0  0  0  0  0
  -28.6292  -24.1848   20.1468 C   0  0  0  0  0  0
  -28.6651  -22.9621   21.1036 C   0  0  0  0  0  0
  -28.3480  -25.5065   20.9062 C   0  0  0  0  0  0
  -29.8483  -20.5993   22.2840 N   0  0  0  0  0  0
  -29.9319  -15.5428   20.8892 N   0  0  0  0  0  0
  -28.9471  -21.6551   20.4502 N   0  3  0  0  0  0
  -30.2679  -18.1528   16.7934 F   0  0  0  0  0  0
  -29.8469  -20.4837   18.1644 F   0  0  0  0  0  0
  -31.4765  -12.3895   19.1406 H   0  0  0  0  0  0
  -30.3276  -11.2911   19.8424 H   0  0  0  0  0  0
  -29.7476  -11.7687   17.4373 H   0  0  0  0  0  0
  -29.6788  -13.4775   17.7727 H   0  0  0  0  0  0
  -27.8297  -11.3051   18.8237 H   0  0  0  0  0  0
  -27.3768  -12.6323   17.7866 H   0  0  0  0  0  0
  -27.7063  -14.2498   19.5642 H   0  0  0  0  0  0
  -28.6803  -11.9632   21.3478 H   0  0  0  0  0  0
  -28.4764  -13.6098   21.8721 H   0  0  0  0  0  0
  -25.2778   -9.5666   22.4752 H   0  0  0  0  0  0
  -23.9980   -7.4629   22.7465 H   0  0  0  0  0  0
  -21.0827   -8.8790   19.8955 H   0  0  0  0  0  0
  -22.3705  -10.9683   19.6131 H   0  0  0  0  0  0
  -21.2035   -7.6149   23.9732 H   0  0  0  0  0  0
  -21.1462   -6.0506   25.9079 H   0  0  0  0  0  0
  -22.0604   -2.7607   23.2813 H   0  0  0  0  0  0
  -22.4050  -11.9999   22.4863 H   0  0  0  0  0  0
  -21.1063  -13.1336   22.2492 H   0  0  0  0  0  0
  -24.6580  -15.8386   20.4886 H   0  0  0  0  0  0
  -26.2729  -15.6217   20.0488 H   0  0  0  0  0  0
  -26.7113  -32.5540   23.1166 H   0  0  0  0  0  0
  -25.0135  -33.9790   25.0533 H   0  0  0  0  0  0
  -22.6911  -31.3046   21.4080 H   0  0  0  0  0  0
  -23.3743  -35.9642   23.3305 H   0  0  0  0  0  0
  -24.3569  -36.8911   22.2047 H   0  0  0  0  0  0
  -23.7224  -37.6527   23.6633 H   0  0  0  0  0  0
  -26.0374  -31.5983   20.5920 H   0  0  0  0  0  0
  -26.8172  -30.8878   21.9806 H   0  0  0  0  0  0
  -28.1129  -29.1134   21.1398 H   0  0  0  0  0  0
  -26.0715  -25.9601   19.0270 H   0  0  0  0  0  0
  -23.9798  -27.2786   19.0515 H   0  0  0  0  0  0
  -23.7154  -30.5847   19.3990 H   0  0  0  0  0  0
  -22.7367  -29.2315   19.8779 H   0  0  0  0  0  0
  -25.1272  -36.1991   25.0846 H   0  0  0  0  0  0
  -20.9938  -28.3240   24.1450 H   0  0  0  0  0  0
  -20.5669  -26.2293   23.3599 H   0  0  0  0  0  0
  -21.6634  -26.7478   22.1208 H   0  0  0  0  0  0
  -19.6893  -25.6304   21.1259 H   0  0  0  0  0  0
  -19.6679  -27.3186   20.6725 H   0  0  0  0  0  0
  -17.4191  -26.6702   21.4024 H   0  0  0  0  0  0
  -18.0317  -26.0065   22.9004 H   0  0  0  0  0  0
  -19.7914  -30.7266   24.2309 H   0  0  0  0  0  0
  -17.5007  -31.6291   24.5157 H   0  0  0  0  0  0
  -15.5344  -30.3020   23.7651 H   0  0  0  0  0  0
  -15.8653  -28.0842   22.7091 H   0  0  0  0  0  0
  -24.5903  -30.7098   25.7840 H   0  0  0  0  0  0
  -24.8941  -32.2903   26.4955 H   0  0  0  0  0  0
  -25.8101  -30.8916   27.0241 H   0  0  0  0  0  0
  -26.2840  -29.6854   24.1156 H   0  0  0  0  0  0
  -27.4020  -29.7312   25.4603 H   0  0  0  0  0  0
  -27.8696  -30.4381   23.9301 H   0  0  0  0  0  0
  -27.2643  -33.3646   26.2099 H   0  0  0  0  0  0
  -28.3832  -32.6948   25.0322 H   0  0  0  0  0  0
  -28.0717  -31.8480   26.5402 H   0  0  0  0  0  0
  -28.2601  -38.0109   24.7519 H   0  0  0  0  0  0
  -28.1075  -36.2646   24.6276 H   0  0  0  0  0  0
  -27.2304  -37.1447   25.8870 H   0  0  0  0  0  0
  -20.9303  -29.8778   21.6959 H   0  0  0  0  0  0
  -26.0179  -38.2888   24.1444 H   0  0  0  0  0  0
  -29.4858  -17.9720   21.9803 H   0  0  0  0  0  0
  -30.2937  -15.9919   18.2214 H   0  0  0  0  0  0
  -27.8671  -24.0437   19.3812 H   0  0  0  0  0  0
  -29.5819  -24.2660   19.6233 H   0  0  0  0  0  0
  -27.7143  -22.8839   21.6343 H   0  0  0  0  0  0
  -29.4288  -23.1511   21.8592 H   0  0  0  0  0  0
  -29.1018  -25.6378   21.6844 H   0  0  0  0  0  0
  -27.3962  -25.4201   21.4340 H   0  0  0  0  0  0
  -30.3167  -19.8145   22.7119 H   0  0  0  0  0  0
  -29.7380  -21.4350   22.8325 H   0  0  0  0  0  0
  -29.1276  -15.3377   21.4642 H   0  0  0  0  0  0
  -28.7076  -21.5741   19.4660 H   0  0  0  0  0  0
  1 25  1  0  0  0
  1 30  2  0  0  0
  1 82  1  0  0  0
  2  3  1  0  0  0
  2 25  1  0  0  0
  2 86  1  0  0  0
  2 87  1  0  0  0
  3  4  1  0  0  0
  3 88  1  0  0  0
  3 89  1  0  0  0
  4  5  1  0  0  0
  4 90  1  0  0  0
  4 91  1  0  0  0
  5  6  1  0  0  0
  5 26  1  0  0  0
  5 92  1  0  0  0
  6 25  1  0  0  0
  6 93  1  0  0  0
  6 94  1  0  0  0
  7  8  2  0  0  0
  7 26  1  0  0  0
  7 29  1  0  0  0
  8  9  1  0  0  0
  8 22  1  0  0  0
  9 10  1  0  0  0
  9 27  2  0  0  0
 10 11  2  0  0  0
 10 15  1  0  0  0
 11 12  1  0  0  0
 11 95  1  0  0  0
 12 13  2  0  0  0
 12 96  1  0  0  0
 13 14  1  0  0  0
 13 31  1  0  0  0
 14 15  2  0  0  0
 14 97  1  0  0  0
 15 98  1  0  0  0
 16 17  2  0  0  0
 16 21  1  0  0  0
 16 31  1  0  0  0
 17 18  1  0  0  0
 17 99  1  0  0  0
 18 19  2  0  0  0
 18100  1  0  0  0
 19 20  1  0  0  0
 19 24  1  0  0  0
 20 21  2  0  0  0
 20101  1  0  0  0
 21 23  1  0  0  0
 22 28  1  0  0  0
 22 32  2  0  0  0
 26 27  1  0  0  0
 28102  1  0  0  0
 28103  1  0  0  0
 29104  1  0  0  0
 29105  1  0  0  0
 33 34  1  0  0  0
 33 66  1  0  0  0
 33 70  2  0  0  0
 34 36  1  0  0  0
 34 59  1  0  0  0
 34106  1  0  0  0
 35 44  2  0  0  0
 35 45  1  0  0  0
 35 68  1  0  0  0
 36 56  1  0  0  0
 36107  1  0  0  0
 37 39  1  0  0  0
 37 47  1  0  0  0
 37 66  1  0  0  0
 37108  1  0  0  0
 38 43  2  0  0  0
 38 46  1  0  0  0
 38 47  1  0  0  0
 39 64  1  0  0  0
 39 67  2  0  0  0
 40 52  1  0  0  0
 40 53  2  0  0  0
 40 58  1  0  0  0
 41109  1  0  0  0
 41110  1  0  0  0
 41111  1  0  0  0
 41 48  1  0  0  0
 42 43  1  0  0  0
 42 66  1  0  0  0
 42112  1  0  0  0
 42113  1  0  0  0
 43 44  1  0  0  0
 44114  1  0  0  0
 45 46  2  0  0  0
 45115  1  0  0  0
 46116  1  0  0  0
 47117  1  0  0  0
 47118  1  0  0  0
 48 56  1  0  0  0
 48 65  1  0  0  0
 48119  1  0  0  0
 49 50  1  0  0  0
 49 53  1  0  0  0
 49 64  1  0  0  0
 49120  1  0  0  0
 50 51  1  0  0  0
 50121  1  0  0  0
 50122  1  0  0  0
 51 52  1  0  0  0
 51123  1  0  0  0
 51124  1  0  0  0
 52125  1  0  0  0
 52126  1  0  0  0
 53 54  1  0  0  0
 54 55  2  0  0  0
 54127  1  0  0  0
 55 57  1  0  0  0
 55128  1  0  0  0
 56 69  2  0  0  0
 57 58  2  0  0  0
 57129  1  0  0  0
 58130  1  0  0  0
 59 60  1  0  0  0
 59 61  1  0  0  0
 59 62  1  0  0  0
 60131  1  0  0  0
 60132  1  0  0  0
 60133  1  0  0  0
 61134  1  0  0  0
 61135  1  0  0  0
 61136  1  0  0  0
 62137  1  0  0  0
 62138  1  0  0  0
 62139  1  0  0  0
 63 65  1  0  0  0
 63140  1  0  0  0
 63141  1  0  0  0
 63142  1  0  0  0
 64143  1  0  0  0
 65144  1  0  0  0
 68 80  1  0  0  0
 71 73  2  0  0  0
 71 74  1  0  0  0
 71145  1  0  0  0
 72 74  2  0  0  0
 72 75  1  0  0  0
 72146  1  0  0  0
 73 76  1  0  0  0
 73 77  1  0  0  0
 74 82  1  0  0  0
 75 76  2  0  0  0
 75 84  1  0  0  0
 76 85  1  0  0  0
 77 81  1  0  0  0
 77 83  2  0  0  0
 78 79  1  0  0  0
 78 80  1  0  0  0
 78147  1  0  0  0
 78148  1  0  0  0
 79 83  1  0  0  0
 79149  1  0  0  0
 79150  1  0  0  0
 80151  1  0  0  0
 80152  1  0  0  0
 81153  1  0  0  0
 81154  1  0  0  0
 82155  1  0  0  0
 83156  1  0  0  0
M  CHG  1  83   1
M  ISO  4   1 100  68 101  80 101  82 100
M  END
> <chiral flag>
0

> <version>
0

> <s_m_source_file>
/data/baiqing/PycharmProjects/Reinvent-master-3.2/result/LINK_invent/BTK/process_docking_weight1_custom_product_contain_oxygen_bond_distance_aromatic_linkinvent_7_9_3/rearranged_h_0073.sdf

> <i_m_source_file_index>
72

> <r_mmod_Potential_Energy-OPLS-2005>
-241.744812011719

> <r_mmod_Stretch_Energy-OPLS-2005>
40.2288627624512

> <r_mmod_Bend_Energy-OPLS-2005>
90.7313385009766

> <r_mmod_Torsional_Energy-OPLS-2005>
255.47233581543

> <r_mmod_Improper_Torsional_Energy-OPLS-2005>
6.25143575668335

> <r_mmod_Van_der_Waal_Energy-OPLS-2005>
155.996658325195

> <r_mmod_Electrostatic_Energy-OPLS-2005>
-366.401275634766

> <r_mmod_Solvation_Energy-OPLS-2005>
-438.331970214844

> <b_mmod_Minimization_Converged-OPLS-2005>
0

> <r_mmod_RMS_Derivative-OPLS-2005>
2.49799275398254

$$$$
72
                    3D
 Structure written by MMmdl.
164172  0  0  1  0            999 V2000
  -30.6821  -14.4774   20.5837 C   0  0  0  0  0  0
  -30.4311  -12.3138   19.4167 C   0  0  0  0  0  0
  -29.4973  -12.5095   18.2035 C   0  0  0  0  0  0
  -28.0176  -12.3676   18.6152 C   0  0  0  0  0  0
  -27.6627  -13.2021   19.8747 C   0  0  2  0  0  0
  -28.7038  -12.9682   20.9927 C   0  0  0  0  0  0
  -25.2594  -13.8147   20.5668 C   0  0  0  0  0  0
  -24.1838  -13.0436   20.9169 C   0  0  0  0  0  0
  -24.6382  -11.6899   20.8719 C   0  0  0  0  0  0
  -23.9040  -10.4289   21.0394 C   0  0  0  0  0  0
  -24.3594   -9.4213   21.9179 C   0  0  0  0  0  0
  -23.6278   -8.2243   22.0747 C   0  0  0  0  0  0
  -22.4260   -8.0275   21.3540 C   0  0  0  0  0  0
  -21.9891   -9.0246   20.4645 C   0  0  0  0  0  0
  -22.7210  -10.2128   20.3054 C   0  0  0  0  0  0
  -21.6852   -6.0731   22.5277 C   0  0  0  0  0  0
  -21.4015   -6.5637   23.8209 C   0  0  0  0  0  0
  -21.3659   -5.6783   24.9173 C   0  0  0  0  0  0
  -21.6043   -4.3049   24.7223 C   0  0  0  0  0  0
  -21.8821   -3.8143   23.4341 C   0  0  0  0  0  0
  -21.9196   -4.6958   22.3400 C   0  0  0  0  0  0
  -22.7865  -13.5249   21.1836 C   0  0  0  0  0  0
  -22.1663   -4.2146   21.0978 F   0  0  0  0  0  0
  -21.5628   -3.4534   25.7735 F   0  0  0  0  0  0
  -30.0345  -13.2878   20.4450 N   0  0  0  0  0  0
  -26.3022  -12.9302   20.3345 N   0  0  0  0  0  0
  -25.9304  -11.6466   20.5737 N   0  0  0  0  0  0
  -22.0492  -12.8254   22.0392 N   0  0  0  0  0  0
  -25.4339  -15.1861   20.4074 N   0  0  0  0  0  0
  -31.8053  -14.6910   20.1162 O   0  0  0  0  0  0
  -21.6634   -6.8867   21.4235 O   0  0  0  0  0  0
  -22.3562  -14.5564   20.6695 O   0  0  0  0  0  0
  -24.6146  -31.8675   23.2092 C   0  0  0  0  0  0
  -25.9040  -32.4823   23.8390 C   0  0  1  0  0  0
  -27.2379  -27.4348   20.1005 C   0  0  0  0  0  0
  -25.5894  -33.8618   24.2321 N   0  0  0  0  0  0
  -23.4038  -30.4893   21.5492 C   0  0  2  0  0  0
  -24.8537  -28.9515   20.1187 C   0  0  0  0  0  0
  -22.7411  -29.4654   22.4988 C   0  0  0  0  0  0
  -18.0272  -28.1372   22.8491 C   0  0  0  0  0  0
  -24.1489  -36.7318   23.2638 C   0  0  0  0  0  0
  -25.9325  -30.8319   21.3642 C   0  0  0  0  0  0
  -26.0129  -29.4643   20.7165 C   0  0  0  0  0  0
  -27.2114  -28.7121   20.7074 C   0  0  0  0  0  0
  -26.0660  -26.9338   19.5008 C   0  0  0  0  0  0
  -24.8739  -27.6839   19.5093 C   0  0  0  0  0  0
  -23.6143  -29.8179   20.1656 C   0  0  0  0  0  0
  -25.4108  -36.3108   24.0336 C   0  0  1  0  0  0
  -20.5862  -28.3662   23.1316 C   0  0  2  0  0  0
  -20.6762  -26.9397   22.5417 C   0  0  0  0  0  0
  -19.5741  -26.6382   21.5210 C   0  0  0  0  0  0
  -18.1919  -26.7920   22.1622 C   0  0  0  0  0  0
  -19.1522  -28.8831   23.2902 C   0  0  0  0  0  0
  -18.9453  -30.1439   23.8909 C   0  0  0  0  0  0
  -17.6455  -30.6581   24.0562 C   0  0  0  0  0  0
  -25.9032  -34.9475   23.5124 C   0  0  0  0  0  0
  -16.5345  -29.9082   23.6326 C   0  0  0  0  0  0
  -16.7262  -28.6498   23.0347 C   0  0  0  0  0  0
  -26.4467  -31.6599   25.0718 C   0  0  0  0  0  0
  -25.3739  -31.3716   26.1472 C   0  0  0  0  0  0
  -27.0293  -30.3039   24.6096 C   0  0  0  0  0  0
  -27.6044  -32.4318   25.7478 C   0  0  0  0  0  0
  -27.5577  -37.1815   24.8464 C   0  0  0  0  0  0
  -21.4139  -29.3033   22.3725 N   0  0  0  0  0  0
  -26.4298  -37.3787   23.9400 N   0  0  0  0  0  0
  -24.6681  -31.0775   22.0994 N   0  0  0  0  0  0
  -23.4181  -28.8202   23.3037 O   0  0  0  0  0  0
  -28.3791  -26.6686   20.0551 O   0  0  0  0  0  0
  -26.5594  -34.8924   22.4688 O   0  0  0  0  0  0
  -23.5339  -32.1426   23.7486 O   0  0  0  0  0  0
  -31.1435  -18.7384   22.4744 C   0  0  0  0  0  0
  -30.6511  -19.6309   21.5003 C   0  0  0  0  0  0
  -30.9430  -17.3494   22.3404 C   0  0  0  0  0  0
  -29.7473  -17.7399   20.2513 C   0  0  0  0  0  0
  -29.9538  -19.1397   20.3768 C   0  0  0  0  0  0
  -30.2454  -16.8391   21.2261 C   0  0  0  0  0  0
  -28.5497  -25.7587   21.0723 C   0  0  0  0  0  0
  -29.1321  -24.5430   20.9293 C   0  0  0  0  0  0
  -28.9896  -21.4939   19.5989 C   0  0  0  0  0  0
  -30.9233  -24.6252   19.0498 C   0  0  0  0  0  0
  -29.3290  -23.6501   22.1472 C   0  0  0  0  0  0
  -29.4836  -20.0940   19.2751 C   0  0  0  0  0  0
  -29.6166  -24.0026   19.5717 C   0  0  1  0  0  0
  -27.6949  -21.6730   19.9220 N   0  0  0  0  0  0
  -30.9403  -25.9239   18.7791 N   0  0  0  0  0  0
  -29.9467  -15.4498   21.1565 N   0  0  0  0  0  0
  -29.8497  -22.5371   19.5393 N   0  3  0  0  0  0
  -31.9267  -23.9303   18.8729 O   0  0  0  0  0  0
  -31.4740  -12.4284   19.1156 H   0  0  0  0  0  0
  -30.3435  -11.2993   19.8091 H   0  0  0  0  0  0
  -29.7377  -11.7857   17.4235 H   0  0  0  0  0  0
  -29.6629  -13.4955   17.7666 H   0  0  0  0  0  0
  -27.8262  -11.3106   18.8055 H   0  0  0  0  0  0
  -27.3688  -12.6483   17.7847 H   0  0  0  0  0  0
  -27.7111  -14.2516   19.5836 H   0  0  0  0  0  0
  -28.6826  -11.9260   21.3148 H   0  0  0  0  0  0
  -28.4601  -13.5469   21.8845 H   0  0  0  0  0  0
  -25.2738   -9.5701   22.4752 H   0  0  0  0  0  0
  -23.9995   -7.4637   22.7466 H   0  0  0  0  0  0
  -21.0824   -8.8761   19.8952 H   0  0  0  0  0  0
  -22.3662  -10.9665   19.6162 H   0  0  0  0  0  0
  -21.2006   -7.6141   23.9712 H   0  0  0  0  0  0
  -21.1477   -6.0515   25.9073 H   0  0  0  0  0  0
  -22.0603   -2.7605   23.2844 H   0  0  0  0  0  0
  -22.4087  -11.9914   22.4796 H   0  0  0  0  0  0
  -21.1112  -13.1295   22.2580 H   0  0  0  0  0  0
  -24.6702  -15.8442   20.5185 H   0  0  0  0  0  0
  -26.2877  -15.6222   20.0831 H   0  0  0  0  0  0
  -26.7114  -32.5537   23.1159 H   0  0  0  0  0  0
  -25.0048  -33.9779   25.0469 H   0  0  0  0  0  0
  -22.6924  -31.3055   21.4073 H   0  0  0  0  0  0
  -23.3733  -35.9671   23.3332 H   0  0  0  0  0  0
  -24.3576  -36.8900   22.2046 H   0  0  0  0  0  0
  -23.7268  -37.6544   23.6633 H   0  0  0  0  0  0
  -26.0444  -31.5957   20.5934 H   0  0  0  0  0  0
  -26.8200  -30.8880   21.9825 H   0  0  0  0  0  0
  -28.1095  -29.1028   21.1647 H   0  0  0  0  0  0
  -26.0809  -25.9611   19.0299 H   0  0  0  0  0  0
  -23.9834  -27.2817   19.0462 H   0  0  0  0  0  0
  -23.7219  -30.5898   19.4027 H   0  0  0  0  0  0
  -22.7394  -29.2353   19.8715 H   0  0  0  0  0  0
  -25.1289  -36.1975   25.0829 H   0  0  0  0  0  0
  -20.9955  -28.3226   24.1436 H   0  0  0  0  0  0
  -20.5661  -26.2267   23.3603 H   0  0  0  0  0  0
  -21.6636  -26.7437   22.1214 H   0  0  0  0  0  0
  -19.6905  -25.6296   21.1228 H   0  0  0  0  0  0
  -19.6681  -27.3202   20.6747 H   0  0  0  0  0  0
  -17.4192  -26.6671   21.4022 H   0  0  0  0  0  0
  -18.0321  -26.0055   22.9011 H   0  0  0  0  0  0
  -19.7928  -30.7250   24.2285 H   0  0  0  0  0  0
  -17.5011  -31.6263   24.5161 H   0  0  0  0  0  0
  -15.5347  -30.2990   23.7638 H   0  0  0  0  0  0
  -15.8663  -28.0821   22.7058 H   0  0  0  0  0  0
  -24.5899  -30.7074   25.7817 H   0  0  0  0  0  0
  -24.8946  -32.2879   26.4930 H   0  0  0  0  0  0
  -25.8096  -30.8879   27.0224 H   0  0  0  0  0  0
  -26.2834  -29.6807   24.1146 H   0  0  0  0  0  0
  -27.4053  -29.7267   25.4554 H   0  0  0  0  0  0
  -27.8675  -30.4348   23.9248 H   0  0  0  0  0  0
  -27.2658  -33.3599   26.2096 H   0  0  0  0  0  0
  -28.3833  -32.6912   25.0297 H   0  0  0  0  0  0
  -28.0737  -31.8423   26.5365 H   0  0  0  0  0  0
  -28.2619  -38.0089   24.7480 H   0  0  0  0  0  0
  -28.1050  -36.2620   24.6329 H   0  0  0  0  0  0
  -27.2292  -37.1516   25.8868 H   0  0  0  0  0  0
  -20.9297  -29.8754   21.6948 H   0  0  0  0  0  0
  -26.0189  -38.2873   24.1376 H   0  0  0  0  0  0
  -31.6767  -19.1214   23.3330 H   0  0  0  0  0  0
  -30.8213  -20.6921   21.6179 H   0  0  0  0  0  0
  -31.3128  -16.6823   23.1067 H   0  0  0  0  0  0
  -29.2052  -17.3529   19.3991 H   0  0  0  0  0  0
  -28.1830  -26.1328   22.0198 H   0  0  0  0  0  0
  -29.0206  -24.1583   23.0617 H   0  0  0  0  0  0
  -30.3807  -23.3846   22.2574 H   0  0  0  0  0  0
  -28.7489  -22.7317   22.0776 H   0  0  0  0  0  0
  -28.6960  -19.5932   18.7112 H   0  0  0  0  0  0
  -30.3072  -20.1815   18.5653 H   0  0  0  0  0  0
  -28.8430  -24.2200   18.8338 H   0  0  0  0  0  0
  -27.0617  -20.8858   19.9728 H   0  0  0  0  0  0
  -27.3121  -22.5820   20.1316 H   0  0  0  0  0  0
  -30.1138  -26.4840   18.9490 H   0  0  0  0  0  0
  -31.7779  -26.3653   18.4274 H   0  0  0  0  0  0
  -29.0264  -15.1715   21.4615 H   0  0  0  0  0  0
  -30.8195  -22.3584   19.2912 H   0  0  0  0  0  0
  1 25  1  0  0  0
  1 30  2  0  0  0
  1 86  1  0  0  0
  2  3  1  0  0  0
  2 25  1  0  0  0
  2 89  1  0  0  0
  2 90  1  0  0  0
  3  4  1  0  0  0
  3 91  1  0  0  0
  3 92  1  0  0  0
  4  5  1  0  0  0
  4 93  1  0  0  0
  4 94  1  0  0  0
  5  6  1  0  0  0
  5 26  1  0  0  0
  5 95  1  0  0  0
  6 25  1  0  0  0
  6 96  1  0  0  0
  6 97  1  0  0  0
  7  8  2  0  0  0
  7 26  1  0  0  0
  7 29  1  0  0  0
  8  9  1  0  0  0
  8 22  1  0  0  0
  9 10  1  0  0  0
  9 27  2  0  0  0
 10 11  2  0  0  0
 10 15  1  0  0  0
 11 12  1  0  0  0
 11 98  1  0  0  0
 12 13  2  0  0  0
 12 99  1  0  0  0
 13 14  1  0  0  0
 13 31  1  0  0  0
 14 15  2  0  0  0
 14100  1  0  0  0
 15101  1  0  0  0
 16 17  2  0  0  0
 16 21  1  0  0  0
 16 31  1  0  0  0
 17 18  1  0  0  0
 17102  1  0  0  0
 18 19  2  0  0  0
 18103  1  0  0  0
 19 20  1  0  0  0
 19 24  1  0  0  0
 20 21  2  0  0  0
 20104  1  0  0  0
 21 23  1  0  0  0
 22 28  1  0  0  0
 22 32  2  0  0  0
 26 27  1  0  0  0
 28105  1  0  0  0
 28106  1  0  0  0
 29107  1  0  0  0
 29108  1  0  0  0
 33 34  1  0  0  0
 33 66  1  0  0  0
 33 70  2  0  0  0
 34 36  1  0  0  0
 34 59  1  0  0  0
 34109  1  0  0  0
 35 44  2  0  0  0
 35 45  1  0  0  0
 35 68  1  0  0  0
 36 56  1  0  0  0
 36110  1  0  0  0
 37 39  1  0  0  0
 37 47  1  0  0  0
 37 66  1  0  0  0
 37111  1  0  0  0
 38 43  2  0  0  0
 38 46  1  0  0  0
 38 47  1  0  0  0
 39 64  1  0  0  0
 39 67  2  0  0  0
 40 52  1  0  0  0
 40 53  2  0  0  0
 40 58  1  0  0  0
 41112  1  0  0  0
 41113  1  0  0  0
 41114  1  0  0  0
 41 48  1  0  0  0
 42 43  1  0  0  0
 42 66  1  0  0  0
 42115  1  0  0  0
 42116  1  0  0  0
 43 44  1  0  0  0
 44117  1  0  0  0
 45 46  2  0  0  0
 45118  1  0  0  0
 46119  1  0  0  0
 47120  1  0  0  0
 47121  1  0  0  0
 48 56  1  0  0  0
 48 65  1  0  0  0
 48122  1  0  0  0
 49 50  1  0  0  0
 49 53  1  0  0  0
 49 64  1  0  0  0
 49123  1  0  0  0
 50 51  1  0  0  0
 50124  1  0  0  0
 50125  1  0  0  0
 51 52  1  0  0  0
 51126  1  0  0  0
 51127  1  0  0  0
 52128  1  0  0  0
 52129  1  0  0  0
 53 54  1  0  0  0
 54 55  2  0  0  0
 54130  1  0  0  0
 55 57  1  0  0  0
 55131  1  0  0  0
 56 69  2  0  0  0
 57 58  2  0  0  0
 57132  1  0  0  0
 58133  1  0  0  0
 59 60  1  0  0  0
 59 61  1  0  0  0
 59 62  1  0  0  0
 60134  1  0  0  0
 60135  1  0  0  0
 60136  1  0  0  0
 61137  1  0  0  0
 61138  1  0  0  0
 61139  1  0  0  0
 62140  1  0  0  0
 62141  1  0  0  0
 62142  1  0  0  0
 63 65  1  0  0  0
 63143  1  0  0  0
 63144  1  0  0  0
 63145  1  0  0  0
 64146  1  0  0  0
 65147  1  0  0  0
 68 77  1  0  0  0
 71 72  2  0  0  0
 71 73  1  0  0  0
 71148  1  0  0  0
 72 75  1  0  0  0
 72149  1  0  0  0
 73 76  2  0  0  0
 73150  1  0  0  0
 74 75  2  0  0  0
 74 76  1  0  0  0
 74151  1  0  0  0
 75 82  1  0  0  0
 76 86  1  0  0  0
 77 78  2  0  0  0
 77152  1  0  0  0
 78 81  1  0  0  0
 78 83  1  0  0  0
 79 82  1  0  0  0
 79 84  1  0  0  0
 79 87  2  0  0  0
 80 83  1  0  0  0
 80 85  1  0  0  0
 80 88  2  0  0  0
 81153  1  0  0  0
 81154  1  0  0  0
 81155  1  0  0  0
 82156  1  0  0  0
 82157  1  0  0  0
 83 87  1  0  0  0
 83158  1  0  0  0
 84159  1  0  0  0
 84160  1  0  0  0
 85161  1  0  0  0
 85162  1  0  0  0
 86163  1  0  0  0
 87164  1  0  0  0
M  CHG  1  87   1
M  ISO  4   1 100  68 101  77 101  86 100
M  END
> <chiral flag>
0

> <version>
0

> <s_m_source_file>
/data/baiqing/PycharmProjects/Reinvent-master-3.2/result/LINK_invent/BTK/process_docking_weight1_custom_product_contain_oxygen_bond_distance_aromatic_linkinvent_7_9_3/rearranged_h_0073.sdf

> <i_m_source_file_index>
73

> <r_mmod_Potential_Energy-OPLS-2005>
-291.513763427734

> <r_mmod_Stretch_Energy-OPLS-2005>
38.5928421020508

> <r_mmod_Bend_Energy-OPLS-2005>
105.580825805664

> <r_mmod_Torsional_Energy-OPLS-2005>
246.714248657227

> <r_mmod_Improper_Torsional_Energy-OPLS-2005>
3.91265225410461

> <r_mmod_Van_der_Waal_Energy-OPLS-2005>
146.837966918945

> <r_mmod_Electrostatic_Energy-OPLS-2005>
-386.778869628906

> <r_mmod_Solvation_Energy-OPLS-2005>
-458.509063720703

> <b_mmod_Minimization_Converged-OPLS-2005>
0

> <r_mmod_RMS_Derivative-OPLS-2005>
0.908085227012634

$$$$
73
                    3D
 Structure written by MMmdl.
154162  0  0  1  0            999 V2000
  -30.6151  -14.6589   20.4885 C   0  0  0  0  0  0
  -30.4414  -12.4028   19.4527 C   0  0  0  0  0  0
  -29.5091  -12.5031   18.2242 C   0  0  0  0  0  0
  -28.0328  -12.3359   18.6375 C   0  0  0  0  0  0
  -27.6513  -13.2142   19.8584 C   0  0  2  0  0  0
  -28.6974  -13.0838   20.9890 C   0  0  0  0  0  0
  -25.2555  -13.8155   20.5668 C   0  0  0  0  0  0
  -24.1829  -13.0431   20.9208 C   0  0  0  0  0  0
  -24.6394  -11.6901   20.8750 C   0  0  0  0  0  0
  -23.9062  -10.4288   21.0414 C   0  0  0  0  0  0
  -24.3616   -9.4202   21.9186 C   0  0  0  0  0  0
  -23.6291   -8.2239   22.0755 C   0  0  0  0  0  0
  -22.4273   -8.0280   21.3545 C   0  0  0  0  0  0
  -21.9908   -9.0255   20.4648 C   0  0  0  0  0  0
  -22.7238  -10.2133   20.3059 C   0  0  0  0  0  0
  -21.6851   -6.0733   22.5278 C   0  0  0  0  0  0
  -21.4015   -6.5637   23.8213 C   0  0  0  0  0  0
  -21.3658   -5.6790   24.9174 C   0  0  0  0  0  0
  -21.6043   -4.3052   24.7224 C   0  0  0  0  0  0
  -21.8819   -3.8146   23.4345 C   0  0  0  0  0  0
  -21.9194   -4.6962   22.3401 C   0  0  0  0  0  0
  -22.7853  -13.5231   21.1862 C   0  0  0  0  0  0
  -22.1662   -4.2150   21.0978 F   0  0  0  0  0  0
  -21.5628   -3.4536   25.7737 F   0  0  0  0  0  0
  -30.0111  -13.4291   20.4228 N   0  0  0  0  0  0
  -26.2978  -12.9331   20.3289 N   0  0  0  0  0  0
  -25.9318  -11.6493   20.5750 N   0  0  0  0  0  0
  -22.0487  -12.8230   22.0417 N   0  0  0  0  0  0
  -25.4250  -15.1869   20.4020 N   0  0  0  0  0  0
  -31.7888  -14.8148   20.1374 O   0  0  0  0  0  0
  -21.6637   -6.8878   21.4240 O   0  0  0  0  0  0
  -22.3546  -14.5539   20.6706 O   0  0  0  0  0  0
  -24.6273  -31.8599   23.2025 C   0  0  0  0  0  0
  -25.9118  -32.4780   23.8353 C   0  0  1  0  0  0
  -27.2243  -27.3132   20.1125 C   0  0  0  0  0  0
  -25.5932  -33.8580   24.2281 N   0  0  0  0  0  0
  -23.4208  -30.4845   21.5463 C   0  0  2  0  0  0
  -24.8662  -28.9395   20.1136 C   0  0  0  0  0  0
  -22.7479  -29.4628   22.4939 C   0  0  0  0  0  0
  -18.0289  -28.1390   22.8487 C   0  0  0  0  0  0
  -24.1492  -36.7292   23.2640 C   0  0  0  0  0  0
  -25.9634  -30.7893   21.3741 C   0  0  0  0  0  0
  -26.0374  -29.4165   20.7150 C   0  0  0  0  0  0
  -27.2199  -28.6166   20.7021 C   0  0  0  0  0  0
  -26.0242  -26.8901   19.4935 C   0  0  0  0  0  0
  -24.8620  -27.6819   19.4947 C   0  0  0  0  0  0
  -23.6352  -29.8210   20.1617 C   0  0  0  0  0  0
  -25.4119  -36.3085   24.0328 C   0  0  1  0  0  0
  -20.5889  -28.3694   23.1283 C   0  0  2  0  0  0
  -20.6779  -26.9417   22.5410 C   0  0  0  0  0  0
  -19.5753  -26.6389   21.5213 C   0  0  0  0  0  0
  -18.1933  -26.7933   22.1625 C   0  0  0  0  0  0
  -19.1541  -28.8859   23.2880 C   0  0  0  0  0  0
  -18.9463  -30.1462   23.8896 C   0  0  0  0  0  0
  -17.6462  -30.6589   24.0567 C   0  0  0  0  0  0
  -25.9055  -34.9452   23.5104 C   0  0  0  0  0  0
  -16.5355  -29.9088   23.6331 C   0  0  0  0  0  0
  -16.7275  -28.6507   23.0348 C   0  0  0  0  0  0
  -26.4499  -31.6587   25.0723 C   0  0  0  0  0  0
  -25.3727  -31.3733   26.1447 C   0  0  0  0  0  0
  -27.0340  -30.3012   24.6176 C   0  0  0  0  0  0
  -27.6061  -32.4319   25.7491 C   0  0  0  0  0  0
  -27.5579  -37.1809   24.8471 C   0  0  0  0  0  0
  -21.4192  -29.3048   22.3677 N   0  0  0  0  0  0
  -26.4300  -37.3775   23.9400 N   0  0  0  0  0  0
  -24.6895  -31.0608   22.0979 N   0  0  0  0  0  0
  -23.4201  -28.8160   23.3014 O   0  0  0  0  0  0
  -28.3452  -26.4646   20.1472 O   0  0  0  0  0  0
  -26.5620  -34.8917   22.4669 O   0  0  0  0  0  0
  -23.5435  -32.1401   23.7349 O   0  0  0  0  0  0
  -31.1736  -19.3050   20.6330 C   0  0  0  0  0  0
  -31.1282  -17.8831   20.7486 C   0  0  0  0  0  0
  -28.7653  -17.9709   20.3485 C   0  0  0  0  0  0
  -30.0355  -20.1191   20.3311 C   0  0  0  0  0  0
  -29.9161  -17.1664   20.6035 C   0  0  0  0  0  0
  -28.8073  -19.3977   20.1910 C   0  0  0  0  0  0
  -30.2263  -21.6333   20.1536 C   0  0  0  0  0  0
  -29.3999  -24.0894   20.1795 C   0  0  0  0  0  0
  -28.1123  -24.9942   20.0981 C   0  0  0  0  0  0
  -27.6069  -20.0619   19.9011 N   0  0  0  0  0  0
  -29.7801  -15.7128   20.7636 N   0  0  0  0  0  0
  -29.2545  -22.6093   20.2839 N   0  0  0  0  0  0
  -31.4623  -22.0313   19.8157 N   0  3  0  0  0  0
  -30.5226  -24.6084   20.1129 O   0  0  0  0  0  0
  -31.4814  -12.5341   19.1485 H   0  0  0  0  0  0
  -30.3834  -11.4101   19.9020 H   0  0  0  0  0  0
  -29.7773  -11.7471   17.4849 H   0  0  0  0  0  0
  -29.6456  -13.4690   17.7354 H   0  0  0  0  0  0
  -27.8763  -11.2837   18.8782 H   0  0  0  0  0  0
  -27.3767  -12.5544   17.7943 H   0  0  0  0  0  0
  -27.6634  -14.2452   19.5055 H   0  0  0  0  0  0
  -28.7133  -12.0658   21.3813 H   0  0  0  0  0  0
  -28.4409  -13.7240   21.8347 H   0  0  0  0  0  0
  -25.2763   -9.5674   22.4758 H   0  0  0  0  0  0
  -24.0001   -7.4627   22.7471 H   0  0  0  0  0  0
  -21.0841   -8.8775   19.8952 H   0  0  0  0  0  0
  -22.3700  -10.9673   19.6169 H   0  0  0  0  0  0
  -21.2007   -7.6145   23.9715 H   0  0  0  0  0  0
  -21.1478   -6.0519   25.9076 H   0  0  0  0  0  0
  -22.0600   -2.7608   23.2844 H   0  0  0  0  0  0
  -22.4094  -11.9887   22.4805 H   0  0  0  0  0  0
  -21.1106  -13.1263   22.2619 H   0  0  0  0  0  0
  -24.6440  -15.8294   20.4826 H   0  0  0  0  0  0
  -26.2403  -15.6088   19.9796 H   0  0  0  0  0  0
  -26.7184  -32.5448   23.1099 H   0  0  0  0  0  0
  -25.0083  -33.9725   25.0428 H   0  0  0  0  0  0
  -22.7153  -31.3059   21.4043 H   0  0  0  0  0  0
  -23.3746  -35.9634   23.3328 H   0  0  0  0  0  0
  -24.3578  -36.8885   22.2049 H   0  0  0  0  0  0
  -23.7255  -37.6506   23.6644 H   0  0  0  0  0  0
  -26.0962  -31.5533   20.6070 H   0  0  0  0  0  0
  -26.8432  -30.8369   22.0040 H   0  0  0  0  0  0
  -28.1194  -28.9805   21.1785 H   0  0  0  0  0  0
  -25.9458  -25.9342   19.0008 H   0  0  0  0  0  0
  -23.9639  -27.3107   19.0202 H   0  0  0  0  0  0
  -23.7563  -30.5982   19.4063 H   0  0  0  0  0  0
  -22.7542  -29.2525   19.8583 H   0  0  0  0  0  0
  -25.1302  -36.1945   25.0822 H   0  0  0  0  0  0
  -20.9983  -28.3270   24.1404 H   0  0  0  0  0  0
  -20.5682  -26.2303   23.3608 H   0  0  0  0  0  0
  -21.6647  -26.7452   22.1201 H   0  0  0  0  0  0
  -19.6914  -25.6299   21.1243 H   0  0  0  0  0  0
  -19.6688  -27.3198   20.6742 H   0  0  0  0  0  0
  -17.4201  -26.6680   21.4028 H   0  0  0  0  0  0
  -18.0335  -26.0076   22.9023 H   0  0  0  0  0  0
  -19.7938  -30.7283   24.2260 H   0  0  0  0  0  0
  -17.5016  -31.6268   24.5172 H   0  0  0  0  0  0
  -15.5354  -30.2989   23.7659 H   0  0  0  0  0  0
  -15.8675  -28.0830   22.7059 H   0  0  0  0  0  0
  -24.5902  -30.7081   25.7777 H   0  0  0  0  0  0
  -24.8915  -32.2900   26.4864 H   0  0  0  0  0  0
  -25.8045  -30.8916   27.0228 H   0  0  0  0  0  0
  -26.2915  -29.6762   24.1201 H   0  0  0  0  0  0
  -27.4044  -29.7271   25.4680 H   0  0  0  0  0  0
  -27.8781  -30.4303   23.9397 H   0  0  0  0  0  0
  -27.2681  -33.3622   26.2068 H   0  0  0  0  0  0
  -28.3869  -32.6874   25.0313 H   0  0  0  0  0  0
  -28.0729  -31.8440   26.5405 H   0  0  0  0  0  0
  -28.2622  -38.0081   24.7488 H   0  0  0  0  0  0
  -28.1049  -36.2613   24.6339 H   0  0  0  0  0  0
  -27.2291  -37.1512   25.8874 H   0  0  0  0  0  0
  -20.9369  -29.8774   21.6891 H   0  0  0  0  0  0
  -26.0185  -38.2857   24.1375 H   0  0  0  0  0  0
  -32.1382  -19.7687   20.7785 H   0  0  0  0  0  0
  -32.0420  -17.3498   20.9711 H   0  0  0  0  0  0
  -27.8144  -17.4690   20.2478 H   0  0  0  0  0  0
  -27.4309  -24.7042   20.8985 H   0  0  0  0  0  0
  -27.6459  -24.7226   19.1524 H   0  0  0  0  0  0
  -26.7812  -19.4797   20.0119 H   0  0  0  0  0  0
  -27.5644  -20.4337   18.9554 H   0  0  0  0  0  0
  -28.8450  -15.4047   20.9766 H   0  0  0  0  0  0
  -28.3482  -22.1670   20.3965 H   0  0  0  0  0  0
  -32.1890  -21.3623   19.6188 H   0  0  0  0  0  0
  -31.6523  -23.0242   19.7464 H   0  0  0  0  0  0
  1 25  1  0  0  0
  1 30  2  0  0  0
  1 81  1  0  0  0
  2  3  1  0  0  0
  2 25  1  0  0  0
  2 85  1  0  0  0
  2 86  1  0  0  0
  3  4  1  0  0  0
  3 87  1  0  0  0
  3 88  1  0  0  0
  4  5  1  0  0  0
  4 89  1  0  0  0
  4 90  1  0  0  0
  5  6  1  0  0  0
  5 26  1  0  0  0
  5 91  1  0  0  0
  6 25  1  0  0  0
  6 92  1  0  0  0
  6 93  1  0  0  0
  7  8  2  0  0  0
  7 26  1  0  0  0
  7 29  1  0  0  0
  8  9  1  0  0  0
  8 22  1  0  0  0
  9 10  1  0  0  0
  9 27  2  0  0  0
 10 11  2  0  0  0
 10 15  1  0  0  0
 11 12  1  0  0  0
 11 94  1  0  0  0
 12 13  2  0  0  0
 12 95  1  0  0  0
 13 14  1  0  0  0
 13 31  1  0  0  0
 14 15  2  0  0  0
 14 96  1  0  0  0
 15 97  1  0  0  0
 16 17  2  0  0  0
 16 21  1  0  0  0
 16 31  1  0  0  0
 17 18  1  0  0  0
 17 98  1  0  0  0
 18 19  2  0  0  0
 18 99  1  0  0  0
 19 20  1  0  0  0
 19 24  1  0  0  0
 20 21  2  0  0  0
 20100  1  0  0  0
 21 23  1  0  0  0
 22 28  1  0  0  0
 22 32  2  0  0  0
 26 27  1  0  0  0
 28101  1  0  0  0
 28102  1  0  0  0
 29103  1  0  0  0
 29104  1  0  0  0
 33 34  1  0  0  0
 33 66  1  0  0  0
 33 70  2  0  0  0
 34 36  1  0  0  0
 34 59  1  0  0  0
 34105  1  0  0  0
 35 44  2  0  0  0
 35 45  1  0  0  0
 35 68  1  0  0  0
 36 56  1  0  0  0
 36106  1  0  0  0
 37 39  1  0  0  0
 37 47  1  0  0  0
 37 66  1  0  0  0
 37107  1  0  0  0
 38 43  2  0  0  0
 38 46  1  0  0  0
 38 47  1  0  0  0
 39 64  1  0  0  0
 39 67  2  0  0  0
 40 52  1  0  0  0
 40 53  2  0  0  0
 40 58  1  0  0  0
 41108  1  0  0  0
 41109  1  0  0  0
 41110  1  0  0  0
 41 48  1  0  0  0
 42 43  1  0  0  0
 42 66  1  0  0  0
 42111  1  0  0  0
 42112  1  0  0  0
 43 44  1  0  0  0
 44113  1  0  0  0
 45 46  2  0  0  0
 45114  1  0  0  0
 46115  1  0  0  0
 47116  1  0  0  0
 47117  1  0  0  0
 48 56  1  0  0  0
 48 65  1  0  0  0
 48118  1  0  0  0
 49 50  1  0  0  0
 49 53  1  0  0  0
 49 64  1  0  0  0
 49119  1  0  0  0
 50 51  1  0  0  0
 50120  1  0  0  0
 50121  1  0  0  0
 51 52  1  0  0  0
 51122  1  0  0  0
 51123  1  0  0  0
 52124  1  0  0  0
 52125  1  0  0  0
 53 54  1  0  0  0
 54 55  2  0  0  0
 54126  1  0  0  0
 55 57  1  0  0  0
 55127  1  0  0  0
 56 69  2  0  0  0
 57 58  2  0  0  0
 57128  1  0  0  0
 58129  1  0  0  0
 59 60  1  0  0  0
 59 61  1  0  0  0
 59 62  1  0  0  0
 60130  1  0  0  0
 60131  1  0  0  0
 60132  1  0  0  0
 61133  1  0  0  0
 61134  1  0  0  0
 61135  1  0  0  0
 62136  1  0  0  0
 62137  1  0  0  0
 62138  1  0  0  0
 63 65  1  0  0  0
 63139  1  0  0  0
 63140  1  0  0  0
 63141  1  0  0  0
 64142  1  0  0  0
 65143  1  0  0  0
 68 79  1  0  0  0
 71 72  2  0  0  0
 71 74  1  0  0  0
 71144  1  0  0  0
 72 75  1  0  0  0
 72145  1  0  0  0
 73 75  2  0  0  0
 73 76  1  0  0  0
 73146  1  0  0  0
 74 76  2  0  0  0
 74 77  1  0  0  0
 75 81  1  0  0  0
 76 80  1  0  0  0
 77 82  1  0  0  0
 77 83  2  0  0  0
 78 79  1  0  0  0
 78 82  1  0  0  0
 78 84  2  0  0  0
 79147  1  0  0  0
 79148  1  0  0  0
 80149  1  0  0  0
 80150  1  0  0  0
 81151  1  0  0  0
 82152  1  0  0  0
 83153  1  0  0  0
 83154  1  0  0  0
M  CHG  1  83   1
M  ISO  4   1 100  68 101  79 101  81 100
M  END
> <chiral flag>
0

> <version>
0

> <s_m_source_file>
/data/baiqing/PycharmProjects/Reinvent-master-3.2/result/LINK_invent/BTK/process_docking_weight1_custom_product_contain_oxygen_bond_distance_aromatic_linkinvent_7_9_3/rearranged_h_0073.sdf

> <i_m_source_file_index>
74

> <r_mmod_Potential_Energy-OPLS-2005>
-59.794620513916

> <r_mmod_Stretch_Energy-OPLS-2005>
90.7111740112305

> <r_mmod_Bend_Energy-OPLS-2005>
145.303558349609

> <r_mmod_Torsional_Energy-OPLS-2005>
230.414321899414

> <r_mmod_Improper_Torsional_Energy-OPLS-2005>
11.8798027038574

> <r_mmod_Van_der_Waal_Energy-OPLS-2005>
163.050445556641

> <r_mmod_Electrostatic_Energy-OPLS-2005>
-298.842834472656

> <r_mmod_Solvation_Energy-OPLS-2005>
-455.189056396484

> <b_mmod_Minimization_Converged-OPLS-2005>
0

> <r_mmod_RMS_Derivative-OPLS-2005>
0.414398461580276

$$$$
74
                    3D
 Structure written by MMmdl.
159168  0  0  1  0            999 V2000
  -30.6774  -14.5740   20.4476 C   0  0  0  0  0  0
  -30.4274  -12.3219   19.4579 C   0  0  0  0  0  0
  -29.5006  -12.3786   18.2239 C   0  0  0  0  0  0
  -28.0143  -12.3071   18.6375 C   0  0  0  0  0  0
  -27.6461  -13.2033   19.8530 C   0  0  2  0  0  0
  -28.6979  -13.0989   20.9796 C   0  0  0  0  0  0
  -25.2555  -13.8151   20.5719 C   0  0  0  0  0  0
  -24.1804  -13.0437   20.9215 C   0  0  0  0  0  0
  -24.6356  -11.6902   20.8782 C   0  0  0  0  0  0
  -23.9034  -10.4288   21.0431 C   0  0  0  0  0  0
  -24.3601   -9.4200   21.9195 C   0  0  0  0  0  0
  -23.6284   -8.2233   22.0754 C   0  0  0  0  0  0
  -22.4265   -8.0277   21.3548 C   0  0  0  0  0  0
  -21.9899   -9.0248   20.4651 C   0  0  0  0  0  0
  -22.7219  -10.2131   20.3069 C   0  0  0  0  0  0
  -21.6845   -6.0736   22.5282 C   0  0  0  0  0  0
  -21.3998   -6.5637   23.8214 C   0  0  0  0  0  0
  -21.3657   -5.6791   24.9178 C   0  0  0  0  0  0
  -21.6049   -4.3057   24.7228 C   0  0  0  0  0  0
  -21.8822   -3.8148   23.4347 C   0  0  0  0  0  0
  -21.9190   -4.6963   22.3406 C   0  0  0  0  0  0
  -22.7832  -13.5239   21.1875 C   0  0  0  0  0  0
  -22.1659   -4.2152   21.0983 F   0  0  0  0  0  0
  -21.5639   -3.4541   25.7739 F   0  0  0  0  0  0
  -30.0111  -13.3836   20.3894 N   0  0  0  0  0  0
  -26.2961  -12.9298   20.3358 N   0  0  0  0  0  0
  -25.9285  -11.6473   20.5847 N   0  0  0  0  0  0
  -22.0474  -12.8229   22.0432 N   0  0  0  0  0  0
  -25.4315  -15.1868   20.4145 N   0  0  0  0  0  0
  -31.8800  -14.6586   20.1847 O   0  0  0  0  0  0
  -21.6631   -6.8878   21.4243 O   0  0  0  0  0  0
  -22.3513  -14.5543   20.6723 O   0  0  0  0  0  0
  -24.6172  -31.8670   23.2086 C   0  0  0  0  0  0
  -25.9050  -32.4821   23.8396 C   0  0  1  0  0  0
  -27.2278  -27.4009   20.1114 C   0  0  0  0  0  0
  -25.5889  -33.8621   24.2326 N   0  0  0  0  0  0
  -23.4073  -30.4919   21.5493 C   0  0  2  0  0  0
  -24.8531  -28.9606   20.1107 C   0  0  0  0  0  0
  -22.7428  -29.4660   22.4968 C   0  0  0  0  0  0
  -18.0273  -28.1385   22.8487 C   0  0  0  0  0  0
  -24.1480  -36.7314   23.2640 C   0  0  0  0  0  0
  -25.9404  -30.8250   21.3671 C   0  0  0  0  0  0
  -26.0165  -29.4593   20.7100 C   0  0  0  0  0  0
  -27.2072  -28.6892   20.7031 C   0  0  0  0  0  0
  -26.0457  -26.9403   19.4810 C   0  0  0  0  0  0
  -24.8651  -27.7026   19.4896 C   0  0  0  0  0  0
  -23.6167  -29.8290   20.1626 C   0  0  0  0  0  0
  -25.4103  -36.3115   24.0341 C   0  0  1  0  0  0
  -20.5868  -28.3677   23.1291 C   0  0  2  0  0  0
  -20.6761  -26.9408   22.5404 C   0  0  0  0  0  0
  -19.5738  -26.6388   21.5202 C   0  0  0  0  0  0
  -18.1920  -26.7927   22.1619 C   0  0  0  0  0  0
  -19.1527  -28.8845   23.2889 C   0  0  0  0  0  0
  -18.9460  -30.1449   23.8907 C   0  0  0  0  0  0
  -17.6463  -30.6589   24.0568 C   0  0  0  0  0  0
  -25.9033  -34.9479   23.5137 C   0  0  0  0  0  0
  -16.5353  -29.9096   23.6329 C   0  0  0  0  0  0
  -16.7263  -28.6512   23.0351 C   0  0  0  0  0  0
  -26.4462  -31.6607   25.0736 C   0  0  0  0  0  0
  -25.3721  -31.3709   26.1479 C   0  0  0  0  0  0
  -27.0297  -30.3045   24.6131 C   0  0  0  0  0  0
  -27.6039  -32.4324   25.7499 C   0  0  0  0  0  0
  -27.5583  -37.1808   24.8464 C   0  0  0  0  0  0
  -21.4151  -29.3041   22.3697 N   0  0  0  0  0  0
  -26.4288  -37.3801   23.9415 N   0  0  0  0  0  0
  -24.6735  -31.0755   22.0998 N   0  0  0  0  0  0
  -23.4190  -28.8206   23.3025 O   0  0  0  0  0  0
  -28.3687  -26.6106   20.1809 O   0  0  0  0  0  0
  -26.5607  -34.8931   22.4708 O   0  0  0  0  0  0
  -23.5355  -32.1437   23.7458 O   0  0  0  0  0  0
  -30.8277  -17.8819   23.3253 C   0  0  0  0  0  0
  -30.4029  -19.1552   22.8960 C   0  0  0  0  0  0
  -30.6513  -16.7434   22.5126 C   0  0  0  0  0  0
  -29.5831  -18.1541   20.8479 C   0  0  0  0  0  0
  -29.7701  -19.3197   21.6424 C   0  0  0  0  0  0
  -30.0442  -16.8546   21.2393 C   0  0  0  0  0  0
  -29.0000  -22.8715   20.8251 C   0  0  0  0  0  0
  -29.8526  -21.8366   21.4192 C   0  0  0  0  0  0
  -29.2377  -24.2536   20.7805 C   0  0  0  0  0  0
  -27.7849  -22.2041   20.2318 C   0  0  0  0  0  0
  -28.0952  -20.7124   20.3503 C   0  0  0  0  0  0
  -29.4655  -16.0240   18.9868 C   0  0  0  0  0  0
  -28.1622  -25.1687   20.1169 C   0  0  0  0  0  0
  -29.2888  -20.6151   21.1928 N   0  0  0  0  0  0
  -29.9060  -15.7045   20.3571 N   0  0  0  0  0  0
  -30.1896  -24.9509   21.2068 O   0  5  0  0  0  0
  -30.9106  -22.0239   22.0221 O   0  0  0  0  0  0
  -31.4706  -12.4192   19.1515 H   0  0  0  0  0  0
  -30.3497  -11.3499   19.9476 H   0  0  0  0  0  0
  -29.7254  -11.5367   17.5680 H   0  0  0  0  0  0
  -29.7019  -13.2554   17.6151 H   0  0  0  0  0  0
  -27.8118  -11.2649   18.8863 H   0  0  0  0  0  0
  -27.3710  -12.5388   17.7874 H   0  0  0  0  0  0
  -27.6394  -14.2254   19.4867 H   0  0  0  0  0  0
  -28.6912  -12.1021   21.4224 H   0  0  0  0  0  0
  -28.4734  -13.8002   21.7855 H   0  0  0  0  0  0
  -25.2746   -9.5678   22.4765 H   0  0  0  0  0  0
  -24.0003   -7.4614   22.7458 H   0  0  0  0  0  0
  -21.0841   -8.8759   19.8944 H   0  0  0  0  0  0
  -22.3677  -10.9674   19.6178 H   0  0  0  0  0  0
  -21.1966   -7.6141   23.9717 H   0  0  0  0  0  0
  -21.1478   -6.0523   25.9084 H   0  0  0  0  0  0
  -22.0598   -2.7611   23.2848 H   0  0  0  0  0  0
  -22.4084  -11.9877   22.4802 H   0  0  0  0  0  0
  -21.1095  -13.1260   22.2666 H   0  0  0  0  0  0
  -24.6756  -15.8521   20.5358 H   0  0  0  0  0  0
  -26.3048  -15.6219   20.1456 H   0  0  0  0  0  0
  -26.7130  -32.5521   23.1167 H   0  0  0  0  0  0
  -25.0008  -33.9783   25.0448 H   0  0  0  0  0  0
  -22.6976  -31.3097   21.4093 H   0  0  0  0  0  0
  -23.3747  -35.9641   23.3299 H   0  0  0  0  0  0
  -24.3578  -36.8937   22.2056 H   0  0  0  0  0  0
  -23.7223  -37.6514   23.6655 H   0  0  0  0  0  0
  -26.0589  -31.5916   20.6001 H   0  0  0  0  0  0
  -26.8261  -30.8756   21.9890 H   0  0  0  0  0  0
  -28.1005  -29.0658   21.1813 H   0  0  0  0  0  0
  -26.0102  -25.9808   18.9861 H   0  0  0  0  0  0
  -23.9734  -27.3147   19.0168 H   0  0  0  0  0  0
  -23.7274  -30.6058   19.4052 H   0  0  0  0  0  0
  -22.7407  -29.2499   19.8641 H   0  0  0  0  0  0
  -25.1275  -36.1986   25.0833 H   0  0  0  0  0  0
  -20.9959  -28.3249   24.1410 H   0  0  0  0  0  0
  -20.5655  -26.2291   23.3603 H   0  0  0  0  0  0
  -21.6634  -26.7441   22.1202 H   0  0  0  0  0  0
  -19.6900  -25.6300   21.1232 H   0  0  0  0  0  0
  -19.6677  -27.3199   20.6736 H   0  0  0  0  0  0
  -17.4187  -26.6674   21.4029 H   0  0  0  0  0  0
  -18.0327  -26.0069   22.9016 H   0  0  0  0  0  0
  -19.7940  -30.7255   24.2286 H   0  0  0  0  0  0
  -17.5026  -31.6271   24.5167 H   0  0  0  0  0  0
  -15.5360  -30.3011   23.7643 H   0  0  0  0  0  0
  -15.8659  -28.0837   22.7064 H   0  0  0  0  0  0
  -24.5891  -30.7065   25.7803 H   0  0  0  0  0  0
  -24.8916  -32.2862   26.4946 H   0  0  0  0  0  0
  -25.8061  -30.8856   27.0227 H   0  0  0  0  0  0
  -26.2850  -29.6810   24.1168 H   0  0  0  0  0  0
  -27.4040  -29.7277   25.4598 H   0  0  0  0  0  0
  -27.8696  -30.4357   23.9307 H   0  0  0  0  0  0
  -27.2659  -33.3613   26.2103 H   0  0  0  0  0  0
  -28.3833  -32.6903   25.0318 H   0  0  0  0  0  0
  -28.0723  -31.8438   26.5395 H   0  0  0  0  0  0
  -28.2592  -38.0114   24.7532 H   0  0  0  0  0  0
  -28.1089  -36.2651   24.6258 H   0  0  0  0  0  0
  -27.2307  -37.1419   25.8869 H   0  0  0  0  0  0
  -20.9319  -29.8771   21.6919 H   0  0  0  0  0  0
  -26.0182  -38.2878   24.1428 H   0  0  0  0  0  0
  -31.3010  -17.7775   24.2917 H   0  0  0  0  0  0
  -30.5506  -20.0005   23.5538 H   0  0  0  0  0  0
  -31.0058  -15.7918   22.8826 H   0  0  0  0  0  0
  -29.0961  -18.2925   19.8973 H   0  0  0  0  0  0
  -27.6216  -22.4997   19.1940 H   0  0  0  0  0  0
  -26.8969  -22.4640   20.8108 H   0  0  0  0  0  0
  -28.3031  -20.2991   19.3622 H   0  0  0  0  0  0
  -27.2626  -20.1576   20.7854 H   0  0  0  0  0  0
  -30.1333  -16.7569   18.5313 H   0  0  0  0  0  0
  -28.4494  -16.4203   18.9791 H   0  0  0  0  0  0
  -29.4603  -15.1772   18.3123 H   0  0  0  0  0  0
  -27.2137  -24.9253   20.6001 H   0  0  0  0  0  0
  -28.0572  -24.8951   19.0658 H   0  0  0  0  0  0
  1 25  1  0  0  0
  1 30  2  0  0  0
  1 85  1  0  0  0
  2  3  1  0  0  0
  2 25  1  0  0  0
  2 88  1  0  0  0
  2 89  1  0  0  0
  3  4  1  0  0  0
  3 90  1  0  0  0
  3 91  1  0  0  0
  4  5  1  0  0  0
  4 92  1  0  0  0
  4 93  1  0  0  0
  5  6  1  0  0  0
  5 26  1  0  0  0
  5 94  1  0  0  0
  6 25  1  0  0  0
  6 95  1  0  0  0
  6 96  1  0  0  0
  7  8  2  0  0  0
  7 26  1  0  0  0
  7 29  1  0  0  0
  8  9  1  0  0  0
  8 22  1  0  0  0
  9 10  1  0  0  0
  9 27  2  0  0  0
 10 11  2  0  0  0
 10 15  1  0  0  0
 11 12  1  0  0  0
 11 97  1  0  0  0
 12 13  2  0  0  0
 12 98  1  0  0  0
 13 14  1  0  0  0
 13 31  1  0  0  0
 14 15  2  0  0  0
 14 99  1  0  0  0
 15100  1  0  0  0
 16 17  2  0  0  0
 16 21  1  0  0  0
 16 31  1  0  0  0
 17 18  1  0  0  0
 17101  1  0  0  0
 18 19  2  0  0  0
 18102  1  0  0  0
 19 20  1  0  0  0
 19 24  1  0  0  0
 20 21  2  0  0  0
 20103  1  0  0  0
 21 23  1  0  0  0
 22 28  1  0  0  0
 22 32  2  0  0  0
 26 27  1  0  0  0
 28104  1  0  0  0
 28105  1  0  0  0
 29106  1  0  0  0
 29107  1  0  0  0
 33 34  1  0  0  0
 33 66  1  0  0  0
 33 70  2  0  0  0
 34 36  1  0  0  0
 34 59  1  0  0  0
 34108  1  0  0  0
 35 44  2  0  0  0
 35 45  1  0  0  0
 35 68  1  0  0  0
 36 56  1  0  0  0
 36109  1  0  0  0
 37 39  1  0  0  0
 37 47  1  0  0  0
 37 66  1  0  0  0
 37110  1  0  0  0
 38 43  2  0  0  0
 38 46  1  0  0  0
 38 47  1  0  0  0
 39 64  1  0  0  0
 39 67  2  0  0  0
 40 52  1  0  0  0
 40 53  2  0  0  0
 40 58  1  0  0  0
 41111  1  0  0  0
 41112  1  0  0  0
 41113  1  0  0  0
 41 48  1  0  0  0
 42 43  1  0  0  0
 42 66  1  0  0  0
 42114  1  0  0  0
 42115  1  0  0  0
 43 44  1  0  0  0
 44116  1  0  0  0
 45 46  2  0  0  0
 45117  1  0  0  0
 46118  1  0  0  0
 47119  1  0  0  0
 47120  1  0  0  0
 48 56  1  0  0  0
 48 65  1  0  0  0
 48121  1  0  0  0
 49 50  1  0  0  0
 49 53  1  0  0  0
 49 64  1  0  0  0
 49122  1  0  0  0
 50 51  1  0  0  0
 50123  1  0  0  0
 50124  1  0  0  0
 51 52  1  0  0  0
 51125  1  0  0  0
 51126  1  0  0  0
 52127  1  0  0  0
 52128  1  0  0  0
 53 54  1  0  0  0
 54 55  2  0  0  0
 54129  1  0  0  0
 55 57  1  0  0  0
 55130  1  0  0  0
 56 69  2  0  0  0
 57 58  2  0  0  0
 57131  1  0  0  0
 58132  1  0  0  0
 59 60  1  0  0  0
 59 61  1  0  0  0
 59 62  1  0  0  0
 60133  1  0  0  0
 60134  1  0  0  0
 60135  1  0  0  0
 61136  1  0  0  0
 61137  1  0  0  0
 61138  1  0  0  0
 62139  1  0  0  0
 62140  1  0  0  0
 62141  1  0  0  0
 63 65  1  0  0  0
 63142  1  0  0  0
 63143  1  0  0  0
 63144  1  0  0  0
 64145  1  0  0  0
 65146  1  0  0  0
 68 83  1  0  0  0
 71 72  2  0  0  0
 71 73  1  0  0  0
 71147  1  0  0  0
 72 75  1  0  0  0
 72148  1  0  0  0
 73 76  2  0  0  0
 73149  1  0  0  0
 74 75  2  0  0  0
 74 76  1  0  0  0
 74150  1  0  0  0
 75 84  1  0  0  0
 76 85  1  0  0  0
 77 78  1  0  0  0
 77 79  2  0  0  0
 77 80  1  0  0  0
 78 84  1  0  0  0
 78 87  2  0  0  0
 79 83  1  0  0  0
 79 86  1  0  0  0
 80 81  1  0  0  0
 80151  1  0  0  0
 80152  1  0  0  0
 81 84  1  0  0  0
 81153  1  0  0  0
 81154  1  0  0  0
 82 85  1  0  0  0
 82155  1  0  0  0
 82156  1  0  0  0
 82157  1  0  0  0
 83158  1  0  0  0
 83159  1  0  0  0
M  CHG  1  86  -1
M  ISO  4   1 100  68 101  83 101  85 100
M  END
> <chiral flag>
0

> <version>
0

> <s_m_source_file>
/data/baiqing/PycharmProjects/Reinvent-master-3.2/result/LINK_invent/BTK/process_docking_weight1_custom_product_contain_oxygen_bond_distance_aromatic_linkinvent_7_9_3/rearranged_h_0073.sdf

> <i_m_source_file_index>
75

> <r_mmod_Potential_Energy-OPLS-2005>
71.4899826049805

> <r_mmod_Stretch_Energy-OPLS-2005>
57.7254791259766

> <r_mmod_Bend_Energy-OPLS-2005>
142.455078125

> <r_mmod_Torsional_Energy-OPLS-2005>
332.611694335938

> <r_mmod_Improper_Torsional_Energy-OPLS-2005>
14.9985475540161

> <r_mmod_Van_der_Waal_Energy-OPLS-2005>
172.784042358398

> <r_mmod_Electrostatic_Energy-OPLS-2005>
-180.219589233398

> <r_mmod_Solvation_Energy-OPLS-2005>
-505.149688720703

> <b_mmod_Minimization_Converged-OPLS-2005>
0

> <r_mmod_RMS_Derivative-OPLS-2005>
1.09654760360718

$$$$
75
                    3D
 Structure written by MMmdl.
155164  0  0  1  0            999 V2000
  -30.6200  -14.7815   20.4904 C   0  0  0  0  0  0
  -30.4382  -12.4879   19.4866 C   0  0  0  0  0  0
  -29.5161  -12.5009   18.2512 C   0  0  0  0  0  0
  -28.0467  -12.3000   18.6683 C   0  0  0  0  0  0
  -27.6357  -13.2259   19.8442 C   0  0  2  0  0  0
  -28.6798  -13.2078   20.9820 C   0  0  0  0  0  0
  -25.2531  -13.8163   20.5746 C   0  0  0  0  0  0
  -24.1800  -13.0428   20.9195 C   0  0  0  0  0  0
  -24.6363  -11.6894   20.8713 C   0  0  0  0  0  0
  -23.9044  -10.4287   21.0368 C   0  0  0  0  0  0
  -24.3614   -9.4240   21.9167 C   0  0  0  0  0  0
  -23.6292   -8.2291   22.0779 C   0  0  0  0  0  0
  -22.4280   -8.0291   21.3558 C   0  0  0  0  0  0
  -21.9888   -9.0267   20.4669 C   0  0  0  0  0  0
  -22.7209  -10.2155   20.3052 C   0  0  0  0  0  0
  -21.6861   -6.0740   22.5278 C   0  0  0  0  0  0
  -21.4011   -6.5649   23.8205 C   0  0  0  0  0  0
  -21.3663   -5.6798   24.9165 C   0  0  0  0  0  0
  -21.6054   -4.3064   24.7221 C   0  0  0  0  0  0
  -21.8814   -3.8157   23.4336 C   0  0  0  0  0  0
  -21.9200   -4.6959   22.3389 C   0  0  0  0  0  0
  -22.7849  -13.5233   21.1869 C   0  0  0  0  0  0
  -22.1653   -4.2137   21.0959 F   0  0  0  0  0  0
  -21.5652   -3.4545   25.7733 F   0  0  0  0  0  0
  -29.9787  -13.5646   20.3948 N   0  0  0  0  0  0
  -26.2913  -12.9347   20.3276 N   0  0  0  0  0  0
  -25.9279  -11.6486   20.5699 N   0  0  0  0  0  0
  -22.0483  -12.8232   22.0405 N   0  0  0  0  0  0
  -25.4301  -15.1898   20.4266 N   0  0  0  0  0  0
  -31.8150  -14.8498   20.1908 O   0  0  0  0  0  0
  -21.6659   -6.8891   21.4246 O   0  0  0  0  0  0
  -22.3545  -14.5548   20.6706 O   0  0  0  0  0  0
  -24.6351  -31.8533   23.1956 C   0  0  0  0  0  0
  -25.9158  -32.4749   23.8316 C   0  0  1  0  0  0
  -27.2136  -27.2280   20.1635 C   0  0  0  0  0  0
  -25.5940  -33.8555   24.2219 N   0  0  0  0  0  0
  -23.4363  -30.4752   21.5405 C   0  0  2  0  0  0
  -24.8842  -28.9201   20.1155 C   0  0  0  0  0  0
  -22.7549  -29.4620   22.4916 C   0  0  0  0  0  0
  -18.0324  -28.1396   22.8424 C   0  0  0  0  0  0
  -24.1506  -36.7283   23.2635 C   0  0  0  0  0  0
  -25.9848  -30.7616   21.3811 C   0  0  0  0  0  0
  -26.0591  -29.3823   20.7252 C   0  0  0  0  0  0
  -27.2320  -28.5519   20.7321 C   0  0  0  0  0  0
  -26.0181  -26.8465   19.5192 C   0  0  0  0  0  0
  -24.8717  -27.6612   19.4989 C   0  0  0  0  0  0
  -23.6580  -29.8095   20.1573 C   0  0  0  0  0  0
  -25.4126  -36.3048   24.0315 C   0  0  1  0  0  0
  -20.5942  -28.3686   23.1229 C   0  0  2  0  0  0
  -20.6822  -26.9486   22.5135 C   0  0  0  0  0  0
  -19.5775  -26.6677   21.4906 C   0  0  0  0  0  0
  -18.1983  -26.8012   22.1399 C   0  0  0  0  0  0
  -19.1572  -28.8818   23.2885 C   0  0  0  0  0  0
  -18.9493  -30.1388   23.8948 C   0  0  0  0  0  0
  -17.6507  -30.6534   24.0642 C   0  0  0  0  0  0
  -25.9064  -34.9428   23.5054 C   0  0  0  0  0  0
  -16.5385  -29.9063   23.6364 C   0  0  0  0  0  0
  -16.7311  -28.6526   23.0302 C   0  0  0  0  0  0
  -26.4506  -31.6592   25.0727 C   0  0  0  0  0  0
  -25.3736  -31.3797   26.1455 C   0  0  0  0  0  0
  -27.0361  -30.2990   24.6296 C   0  0  0  0  0  0
  -27.6038  -32.4342   25.7532 C   0  0  0  0  0  0
  -27.5574  -37.1786   24.8459 C   0  0  0  0  0  0
  -21.4240  -29.3115   22.3692 N   0  0  0  0  0  0
  -26.4285  -37.3740   23.9405 N   0  0  0  0  0  0
  -24.7040  -31.0483   22.0947 N   0  0  0  0  0  0
  -23.4244  -28.8107   23.2986 O   0  0  0  0  0  0
  -28.2688  -26.2774   20.2035 O   0  0  0  0  0  0
  -26.5634  -34.8918   22.4636 O   0  0  0  0  0  0
  -23.5485  -32.1345   23.7228 O   0  0  0  0  0  0
  -31.8945  -18.9752   21.7747 C   0  0  0  0  0  0
  -31.0508  -20.0811   21.5343 C   0  0  0  0  0  0
  -31.5009  -17.6572   21.4623 C   0  0  0  0  0  0
  -29.3905  -18.5497   20.6459 C   0  0  0  0  0  0
  -29.7793  -19.9344   20.9385 C   0  0  0  0  0  0
  -30.2366  -17.3737   20.8964 C   0  0  0  0  0  0
  -29.1280  -22.5212   21.1124 C   0  0  0  0  0  0
  -28.4301  -23.4888   20.4202 C   0  0  0  0  0  0
  -27.8138  -22.7056   19.3620 C   0  0  0  0  0  0
  -27.1205  -23.2177   18.3362 C   0  0  0  0  0  0
  -28.0918  -21.2068   19.5356 C   0  0  0  0  0  0
  -27.9953  -24.9673   20.9180 C   0  0  0  0  0  0
  -29.0208  -21.1567   20.6585 N   0  0  0  0  0  0
  -29.8525  -15.9376   20.6744 N   0  0  0  0  0  0
  -31.4726  -12.6310   19.1684 H   0  0  0  0  0  0
  -30.4090  -11.5237   19.9973 H   0  0  0  0  0  0
  -29.8145  -11.7175   17.5520 H   0  0  0  0  0  0
  -29.6189  -13.4511   17.7247 H   0  0  0  0  0  0
  -27.9305  -11.2578   18.9634 H   0  0  0  0  0  0
  -27.3862  -12.4448   17.8116 H   0  0  0  0  0  0
  -27.6125  -14.2339   19.4340 H   0  0  0  0  0  0
  -28.7308  -12.2240   21.4512 H   0  0  0  0  0  0
  -28.4052  -13.9124   21.7721 H   0  0  0  0  0  0
  -25.2755   -9.5743   22.4731 H   0  0  0  0  0  0
  -24.0007   -7.4699   22.7522 H   0  0  0  0  0  0
  -21.0830   -8.8811   19.8976 H   0  0  0  0  0  0
  -22.3654  -10.9709   19.6203 H   0  0  0  0  0  0
  -21.1990   -7.6150   23.9676 H   0  0  0  0  0  0
  -21.1485   -6.0546   25.9054 H   0  0  0  0  0  0
  -22.0577   -2.7609   23.2845 H   0  0  0  0  0  0
  -22.4095  -11.9851   22.4737 H   0  0  0  0  0  0
  -21.1145  -13.1348   22.2667 H   0  0  0  0  0  0
  -24.6735  -15.8519   20.5470 H   0  0  0  0  0  0
  -26.3073  -15.6296   20.1793 H   0  0  0  0  0  0
  -26.7245  -32.5402   23.1066 H   0  0  0  0  0  0
  -25.0084  -33.9691   25.0359 H   0  0  0  0  0  0
  -22.7370  -31.3008   21.3893 H   0  0  0  0  0  0
  -23.3753  -35.9621   23.3280 H   0  0  0  0  0  0
  -24.3603  -36.8915   22.2048 H   0  0  0  0  0  0
  -23.7283  -37.6492   23.6676 H   0  0  0  0  0  0
  -26.1331  -31.5249   20.6164 H   0  0  0  0  0  0
  -26.8592  -30.8053   22.0216 H   0  0  0  0  0  0
  -28.1283  -28.9045   21.2202 H   0  0  0  0  0  0
  -25.9435  -25.8768   19.0571 H   0  0  0  0  0  0
  -23.9700  -27.2984   19.0266 H   0  0  0  0  0  0
  -23.7938  -30.5869   19.4054 H   0  0  0  0  0  0
  -22.7760  -29.2451   19.8482 H   0  0  0  0  0  0
  -25.1307  -36.1864   25.0800 H   0  0  0  0  0  0
  -21.0059  -28.3117   24.1350 H   0  0  0  0  0  0
  -20.5805  -26.2156   23.3161 H   0  0  0  0  0  0
  -21.6657  -26.7671   22.0780 H   0  0  0  0  0  0
  -19.6985  -25.6777   21.0511 H   0  0  0  0  0  0
  -19.6669  -27.3823   20.6716 H   0  0  0  0  0  0
  -17.4253  -26.6923   21.3766 H   0  0  0  0  0  0
  -18.0430  -25.9945   22.8581 H   0  0  0  0  0  0
  -19.7991  -30.7134   24.2419 H   0  0  0  0  0  0
  -17.5059  -31.6162   24.5342 H   0  0  0  0  0  0
  -15.5372  -30.2914   23.7739 H   0  0  0  0  0  0
  -15.8718  -28.0862   22.6942 H   0  0  0  0  0  0
  -24.5884  -30.7151   25.7826 H   0  0  0  0  0  0
  -24.8960  -32.2994   26.4841 H   0  0  0  0  0  0
  -25.8046  -30.9012   27.0256 H   0  0  0  0  0  0
  -26.2963  -29.6748   24.1269 H   0  0  0  0  0  0
  -27.3935  -29.7248   25.4856 H   0  0  0  0  0  0
  -27.8890  -30.4218   23.9625 H   0  0  0  0  0  0
  -27.2599  -33.3624   26.2109 H   0  0  0  0  0  0
  -28.3874  -32.6929   25.0404 H   0  0  0  0  0  0
  -28.0694  -31.8483   26.5460 H   0  0  0  0  0  0
  -28.2573  -38.0090   24.7472 H   0  0  0  0  0  0
  -28.1069  -36.2614   24.6297 H   0  0  0  0  0  0
  -27.2299  -37.1458   25.8860 H   0  0  0  0  0  0
  -20.9398  -29.8880   21.6954 H   0  0  0  0  0  0
  -26.0157  -38.2809   24.1376 H   0  0  0  0  0  0
  -32.8707  -19.1368   22.2147 H   0  0  0  0  0  0
  -31.4102  -21.0666   21.7982 H   0  0  0  0  0  0
  -32.1926  -16.8592   21.6980 H   0  0  0  0  0  0
  -28.4068  -18.3803   20.2311 H   0  0  0  0  0  0
  -29.6011  -22.6783   22.0736 H   0  0  0  0  0  0
  -26.9976  -24.2785   18.2148 H   0  0  0  0  0  0
  -26.6949  -22.5759   17.5799 H   0  0  0  0  0  0
  -28.5336  -20.7776   18.6323 H   0  0  0  0  0  0
  -27.1747  -20.6627   19.7670 H   0  0  0  0  0  0
  -28.4229  -25.0877   21.9127 H   0  0  0  0  0  0
  -26.9231  -24.8940   21.1024 H   0  0  0  0  0  0
  -28.8618  -15.7597   20.6778 H   0  0  0  0  0  0
  1 25  1  0  0  0
  1 30  2  0  0  0
  1 84  1  0  0  0
  2  3  1  0  0  0
  2 25  1  0  0  0
  2 85  1  0  0  0
  2 86  1  0  0  0
  3  4  1  0  0  0
  3 87  1  0  0  0
  3 88  1  0  0  0
  4  5  1  0  0  0
  4 89  1  0  0  0
  4 90  1  0  0  0
  5  6  1  0  0  0
  5 26  1  0  0  0
  5 91  1  0  0  0
  6 25  1  0  0  0
  6 92  1  0  0  0
  6 93  1  0  0  0
  7  8  2  0  0  0
  7 26  1  0  0  0
  7 29  1  0  0  0
  8  9  1  0  0  0
  8 22  1  0  0  0
  9 10  1  0  0  0
  9 27  2  0  0  0
 10 11  2  0  0  0
 10 15  1  0  0  0
 11 12  1  0  0  0
 11 94  1  0  0  0
 12 13  2  0  0  0
 12 95  1  0  0  0
 13 14  1  0  0  0
 13 31  1  0  0  0
 14 15  2  0  0  0
 14 96  1  0  0  0
 15 97  1  0  0  0
 16 17  2  0  0  0
 16 21  1  0  0  0
 16 31  1  0  0  0
 17 18  1  0  0  0
 17 98  1  0  0  0
 18 19  2  0  0  0
 18 99  1  0  0  0
 19 20  1  0  0  0
 19 24  1  0  0  0
 20 21  2  0  0  0
 20100  1  0  0  0
 21 23  1  0  0  0
 22 28  1  0  0  0
 22 32  2  0  0  0
 26 27  1  0  0  0
 28101  1  0  0  0
 28102  1  0  0  0
 29103  1  0  0  0
 29104  1  0  0  0
 33 34  1  0  0  0
 33 66  1  0  0  0
 33 70  2  0  0  0
 34 36  1  0  0  0
 34 59  1  0  0  0
 34105  1  0  0  0
 35 44  2  0  0  0
 35 45  1  0  0  0
 35 68  1  0  0  0
 36 56  1  0  0  0
 36106  1  0  0  0
 37 39  1  0  0  0
 37 47  1  0  0  0
 37 66  1  0  0  0
 37107  1  0  0  0
 38 43  2  0  0  0
 38 46  1  0  0  0
 38 47  1  0  0  0
 39 64  1  0  0  0
 39 67  2  0  0  0
 40 52  1  0  0  0
 40 53  2  0  0  0
 40 58  1  0  0  0
 41108  1  0  0  0
 41109  1  0  0  0
 41110  1  0  0  0
 41 48  1  0  0  0
 42 43  1  0  0  0
 42 66  1  0  0  0
 42111  1  0  0  0
 42112  1  0  0  0
 43 44  1  0  0  0
 44113  1  0  0  0
 45 46  2  0  0  0
 45114  1  0  0  0
 46115  1  0  0  0
 47116  1  0  0  0
 47117  1  0  0  0
 48 56  1  0  0  0
 48 65  1  0  0  0
 48118  1  0  0  0
 49 50  1  0  0  0
 49 53  1  0  0  0
 49 64  1  0  0  0
 49119  1  0  0  0
 50 51  1  0  0  0
 50120  1  0  0  0
 50121  1  0  0  0
 51 52  1  0  0  0
 51122  1  0  0  0
 51123  1  0  0  0
 52124  1  0  0  0
 52125  1  0  0  0
 53 54  1  0  0  0
 54 55  2  0  0  0
 54126  1  0  0  0
 55 57  1  0  0  0
 55127  1  0  0  0
 56 69  2  0  0  0
 57 58  2  0  0  0
 57128  1  0  0  0
 58129  1  0  0  0
 59 60  1  0  0  0
 59 61  1  0  0  0
 59 62  1  0  0  0
 60130  1  0  0  0
 60131  1  0  0  0
 60132  1  0  0  0
 61133  1  0  0  0
 61134  1  0  0  0
 61135  1  0  0  0
 62136  1  0  0  0
 62137  1  0  0  0
 62138  1  0  0  0
 63 65  1  0  0  0
 63139  1  0  0  0
 63140  1  0  0  0
 63141  1  0  0  0
 64142  1  0  0  0
 65143  1  0  0  0
 68 82  1  0  0  0
 71 72  2  0  0  0
 71 73  1  0  0  0
 71144  1  0  0  0
 72 75  1  0  0  0
 72145  1  0  0  0
 73 76  2  0  0  0
 73146  1  0  0  0
 74 75  2  0  0  0
 74 76  1  0  0  0
 74147  1  0  0  0
 75 83  1  0  0  0
 76 84  1  0  0  0
 77 78  2  0  0  0
 77 83  1  0  0  0
 77148  1  0  0  0
 78 79  1  0  0  0
 78 82  1  0  0  0
 79 80  2  0  0  0
 79 81  1  0  0  0
 80149  1  0  0  0
 80150  1  0  0  0
 81 83  1  0  0  0
 81151  1  0  0  0
 81152  1  0  0  0
 82153  1  0  0  0
 82154  1  0  0  0
 84155  1  0  0  0
M  ISO  4   1 100  68 101  82 101  84 100
M  END
> <chiral flag>
0

> <version>
0

> <s_m_source_file>
/data/baiqing/PycharmProjects/Reinvent-master-3.2/result/LINK_invent/BTK/process_docking_weight1_custom_product_contain_oxygen_bond_distance_aromatic_linkinvent_7_9_3/rearranged_h_0073.sdf

> <i_m_source_file_index>
76

> <r_mmod_Potential_Energy-OPLS-2005>
348.430633544922

> <r_mmod_Stretch_Energy-OPLS-2005>
142.166732788086

> <r_mmod_Bend_Energy-OPLS-2005>
261.381774902344

> <r_mmod_Torsional_Energy-OPLS-2005>
240.30387878418

> <r_mmod_Improper_Torsional_Energy-OPLS-2005>
7.65624856948853

> <r_mmod_Van_der_Waal_Energy-OPLS-2005>
133.428848266602

> <r_mmod_Electrostatic_Energy-OPLS-2005>
-334.602813720703

> <r_mmod_Solvation_Energy-OPLS-2005>
-212.450164794922

> <b_mmod_Minimization_Converged-OPLS-2005>
0

> <r_mmod_RMS_Derivative-OPLS-2005>
5.06523704528809

$$$$
76
                    3D
 Structure written by MMmdl.
161170  0  0  1  0            999 V2000
  -30.7883  -14.4069   20.6687 C   0  0  0  0  0  0
  -30.4084  -12.3052   19.4262 C   0  0  0  0  0  0
  -29.4906  -12.5278   18.2106 C   0  0  0  0  0  0
  -28.0160  -12.3804   18.6212 C   0  0  0  0  0  0
  -27.6622  -13.2161   19.8806 C   0  0  2  0  0  0
  -28.6999  -13.0077   21.0062 C   0  0  0  0  0  0
  -25.2571  -13.8172   20.5694 C   0  0  0  0  0  0
  -24.1830  -13.0438   20.9174 C   0  0  0  0  0  0
  -24.6394  -11.6911   20.8717 C   0  0  0  0  0  0
  -23.9074  -10.4286   21.0392 C   0  0  0  0  0  0
  -24.3624   -9.4203   21.9185 C   0  0  0  0  0  0
  -23.6285   -8.2238   22.0742 C   0  0  0  0  0  0
  -22.4263   -8.0282   21.3540 C   0  0  0  0  0  0
  -21.9915   -9.0253   20.4635 C   0  0  0  0  0  0
  -22.7251  -10.2133   20.3042 C   0  0  0  0  0  0
  -21.6852   -6.0740   22.5273 C   0  0  0  0  0  0
  -21.4013   -6.5624   23.8207 C   0  0  0  0  0  0
  -21.3660   -5.6775   24.9169 C   0  0  0  0  0  0
  -21.6038   -4.3040   24.7207 C   0  0  0  0  0  0
  -21.8818   -3.8144   23.4327 C   0  0  0  0  0  0
  -21.9200   -4.6965   22.3394 C   0  0  0  0  0  0
  -22.7848  -13.5254   21.1842 C   0  0  0  0  0  0
  -22.1671   -4.2157   21.0974 F   0  0  0  0  0  0
  -21.5629   -3.4525   25.7723 F   0  0  0  0  0  0
  -30.0358  -13.2895   20.4573 N   0  0  0  0  0  0
  -26.3028  -12.9368   20.3395 N   0  0  0  0  0  0
  -25.9333  -11.6515   20.5772 N   0  0  0  0  0  0
  -22.0507  -12.8210   22.0384 N   0  0  0  0  0  0
  -25.4284  -15.1895   20.4088 N   0  0  0  0  0  0
  -31.8661  -14.5681   20.0869 O   0  0  0  0  0  0
  -21.6618   -6.8881   21.4234 O   0  0  0  0  0  0
  -22.3535  -14.5577   20.6741 O   0  0  0  0  0  0
  -24.6158  -31.8684   23.2126 C   0  0  0  0  0  0
  -25.9064  -32.4816   23.8422 C   0  0  1  0  0  0
  -27.2076  -27.4491   20.1147 C   0  0  0  0  0  0
  -25.5966  -33.8614   24.2371 N   0  0  0  0  0  0
  -23.4001  -30.4957   21.5518 C   0  0  2  0  0  0
  -24.8413  -28.9743   20.0986 C   0  0  0  0  0  0
  -22.7397  -29.4690   22.5005 C   0  0  0  0  0  0
  -18.0273  -28.1378   22.8509 C   0  0  0  0  0  0
  -24.1475  -36.7267   23.2634 C   0  0  0  0  0  0
  -25.9232  -30.8517   21.3534 C   0  0  0  0  0  0
  -25.9991  -29.4906   20.6945 C   0  0  0  0  0  0
  -27.1912  -28.7373   20.6930 C   0  0  0  0  0  0
  -26.0491  -26.9495   19.4936 C   0  0  0  0  0  0
  -24.8615  -27.7062   19.4878 C   0  0  0  0  0  0
  -23.5998  -29.8338   20.1612 C   0  0  0  0  0  0
  -25.4088  -36.3082   24.0362 C   0  0  1  0  0  0
  -20.5866  -28.3667   23.1307 C   0  0  2  0  0  0
  -20.6748  -26.9393   22.5430 C   0  0  0  0  0  0
  -19.5725  -26.6386   21.5223 C   0  0  0  0  0  0
  -18.1902  -26.7942   22.1613 C   0  0  0  0  0  0
  -19.1524  -28.8846   23.2912 C   0  0  0  0  0  0
  -18.9445  -30.1448   23.8925 C   0  0  0  0  0  0
  -17.6444  -30.6582   24.0576 C   0  0  0  0  0  0
  -25.9044  -34.9461   23.5149 C   0  0  0  0  0  0
  -16.5337  -29.9078   23.6336 C   0  0  0  0  0  0
  -16.7257  -28.6495   23.0366 C   0  0  0  0  0  0
  -26.4507  -31.6570   25.0722 C   0  0  0  0  0  0
  -25.3802  -31.3596   26.1487 C   0  0  0  0  0  0
  -27.0325  -30.3016   24.6047 C   0  0  0  0  0  0
  -27.6104  -32.4289   25.7468 C   0  0  0  0  0  0
  -27.5601  -37.1739   24.8443 C   0  0  0  0  0  0
  -21.4135  -29.3033   22.3707 N   0  0  0  0  0  0
  -26.4245  -37.3803   23.9496 N   0  0  0  0  0  0
  -24.6654  -31.0831   22.0995 N   0  0  0  0  0  0
  -23.4169  -28.8243   23.3056 O   0  0  0  0  0  0
  -28.2941  -26.6263   20.2372 O   0  0  0  0  0  0
  -26.5557  -34.8911   22.4681 O   0  0  0  0  0  0
  -23.5367  -32.1443   23.7532 O   0  0  0  0  0  0
  -29.0063  -19.6652   21.0500 C   0  0  0  0  0  0
  -29.9248  -19.8756   23.2762 C   0  0  0  0  0  0
  -30.1583  -17.7453   22.0677 C   0  0  0  0  0  0
  -29.4142  -18.3106   20.9907 C   0  0  0  0  0  0
  -29.3267  -20.4933   22.1507 C   0  0  0  0  0  0
  -30.3573  -18.5332   23.2298 C   0  0  0  0  0  0
  -29.8551  -24.2179   22.1862 C   0  0  0  0  0  0
  -28.6797  -24.7313   21.7861 C   0  0  0  0  0  0
  -30.0867  -22.8031   22.4462 C   0  0  0  0  0  0
  -30.9168  -16.4430   21.9184 C   0  0  0  0  0  0
  -27.4734  -23.8348   21.6110 C   0  0  0  0  0  0
  -27.9115  -22.3839   21.3218 C   0  0  0  0  0  0
  -29.0896  -17.5361   19.7180 C   0  0  0  0  0  0
  -28.4935  -26.2349   21.6072 C   0  0  0  0  0  0
  -29.0972  -21.9228   22.0836 N   0  0  0  0  0  0
  -30.2555  -15.3568   21.4647 N   0  0  0  0  0  0
  -31.1433  -22.4462   22.9790 O   0  0  0  0  0  0
  -32.1260  -16.4352   22.1855 O   0  0  0  0  0  0
  -31.0136  -18.0300   24.3045 F   0  0  0  0  0  0
  -31.4559  -12.3759   19.1278 H   0  0  0  0  0  0
  -30.2879  -11.2935   19.8200 H   0  0  0  0  0  0
  -29.7299  -11.8136   17.4224 H   0  0  0  0  0  0
  -29.6607  -13.5217   17.7904 H   0  0  0  0  0  0
  -27.8340  -11.3232   18.8162 H   0  0  0  0  0  0
  -27.3638  -12.6547   17.7908 H   0  0  0  0  0  0
  -27.7062  -14.2652   19.5852 H   0  0  0  0  0  0
  -28.6576  -11.9782   21.3668 H   0  0  0  0  0  0
  -28.4535  -13.6251   21.8719 H   0  0  0  0  0  0
  -25.2788   -9.5653   22.4747 H   0  0  0  0  0  0
  -23.9994   -7.4617   22.7441 H   0  0  0  0  0  0
  -21.0865   -8.8756   19.8928 H   0  0  0  0  0  0
  -22.3732  -10.9649   19.6108 H   0  0  0  0  0  0
  -21.1984   -7.6126   23.9716 H   0  0  0  0  0  0
  -21.1478   -6.0502   25.9072 H   0  0  0  0  0  0
  -22.0599   -2.7608   23.2817 H   0  0  0  0  0  0
  -22.4151  -11.9863   22.4724 H   0  0  0  0  0  0
  -21.1111  -13.1185   22.2603 H   0  0  0  0  0  0
  -24.6594  -15.8446   20.4942 H   0  0  0  0  0  0
  -26.2861  -15.6268   20.0977 H   0  0  0  0  0  0
  -26.7156  -32.5509   23.1214 H   0  0  0  0  0  0
  -25.0271  -33.9805   25.0618 H   0  0  0  0  0  0
  -22.6899  -31.3128   21.4166 H   0  0  0  0  0  0
  -23.3796  -35.9531   23.3175 H   0  0  0  0  0  0
  -24.3643  -36.8984   22.2082 H   0  0  0  0  0  0
  -23.7105  -37.6392   23.6700 H   0  0  0  0  0  0
  -26.0301  -31.6242   20.5907 H   0  0  0  0  0  0
  -26.8163  -30.9020   21.9650 H   0  0  0  0  0  0
  -28.0845  -29.1242   21.1639 H   0  0  0  0  0  0
  -26.0477  -25.9598   19.0593 H   0  0  0  0  0  0
  -23.9677  -27.3040   19.0314 H   0  0  0  0  0  0
  -23.6924  -30.6130   19.4038 H   0  0  0  0  0  0
  -22.7262  -29.2475   19.8720 H   0  0  0  0  0  0
  -25.1238  -36.1923   25.0848 H   0  0  0  0  0  0
  -20.9983  -28.3227   24.1419 H   0  0  0  0  0  0
  -20.5633  -26.2280   23.3626 H   0  0  0  0  0  0
  -21.6599  -26.7421   22.1190 H   0  0  0  0  0  0
  -19.6853  -25.6300   21.1245 H   0  0  0  0  0  0
  -19.6666  -27.3210   20.6766 H   0  0  0  0  0  0
  -17.4184  -26.6762   21.3989 H   0  0  0  0  0  0
  -18.0249  -26.0051   22.8972 H   0  0  0  0  0  0
  -19.7927  -30.7264   24.2284 H   0  0  0  0  0  0
  -17.4993  -31.6265   24.5170 H   0  0  0  0  0  0
  -15.5334  -30.2983   23.7648 H   0  0  0  0  0  0
  -15.8654  -28.0803   22.7080 H   0  0  0  0  0  0
  -24.6078  -30.6826   25.7834 H   0  0  0  0  0  0
  -24.8881  -32.2692   26.4941 H   0  0  0  0  0  0
  -25.8233  -30.8813   27.0239 H   0  0  0  0  0  0
  -26.2821  -29.6741   24.1229 H   0  0  0  0  0  0
  -27.4245  -29.7281   25.4466 H   0  0  0  0  0  0
  -27.8597  -30.4333   23.9062 H   0  0  0  0  0  0
  -27.2767  -33.3636   26.1981 H   0  0  0  0  0  0
  -28.3929  -32.6778   25.0283 H   0  0  0  0  0  0
  -28.0750  -31.8448   26.5416 H   0  0  0  0  0  0
  -28.2450  -38.0201   24.7747 H   0  0  0  0  0  0
  -28.1267  -36.2765   24.5932 H   0  0  0  0  0  0
  -27.2379  -37.0938   25.8839 H   0  0  0  0  0  0
  -20.9298  -29.8761   21.6931 H   0  0  0  0  0  0
  -26.0111  -38.2830   24.1713 H   0  0  0  0  0  0
  -28.5062  -20.0863   20.1905 H   0  0  0  0  0  0
  -30.1302  -20.4523   24.1672 H   0  0  0  0  0  0
  -30.6851  -24.8911   22.3450 H   0  0  0  0  0  0
  -26.8329  -24.2019   20.8077 H   0  0  0  0  0  0
  -26.8786  -23.8778   22.5257 H   0  0  0  0  0  0
  -28.1638  -22.3239   20.2612 H   0  0  0  0  0  0
  -27.0731  -21.7046   21.4819 H   0  0  0  0  0  0
  -28.6261  -18.1784   18.9692 H   0  0  0  0  0  0
  -28.3839  -16.7347   19.9376 H   0  0  0  0  0  0
  -29.9841  -17.1072   19.2641 H   0  0  0  0  0  0
  -29.3762  -26.7602   21.9686 H   0  0  0  0  0  0
  -27.6747  -26.5340   22.2686 H   0  0  0  0  0  0
  -29.2659  -15.3089   21.6387 H   0  0  0  0  0  0
  1 25  1  0  0  0
  1 30  2  0  0  0
  1 86  1  0  0  0
  2  3  1  0  0  0
  2 25  1  0  0  0
  2 90  1  0  0  0
  2 91  1  0  0  0
  3  4  1  0  0  0
  3 92  1  0  0  0
  3 93  1  0  0  0
  4  5  1  0  0  0
  4 94  1  0  0  0
  4 95  1  0  0  0
  5  6  1  0  0  0
  5 26  1  0  0  0
  5 96  1  0  0  0
  6 25  1  0  0  0
  6 97  1  0  0  0
  6 98  1  0  0  0
  7  8  2  0  0  0
  7 26  1  0  0  0
  7 29  1  0  0  0
  8  9  1  0  0  0
  8 22  1  0  0  0
  9 10  1  0  0  0
  9 27  2  0  0  0
 10 11  2  0  0  0
 10 15  1  0  0  0
 11 12  1  0  0  0
 11 99  1  0  0  0
 12 13  2  0  0  0
 12100  1  0  0  0
 13 14  1  0  0  0
 13 31  1  0  0  0
 14 15  2  0  0  0
 14101  1  0  0  0
 15102  1  0  0  0
 16 17  2  0  0  0
 16 21  1  0  0  0
 16 31  1  0  0  0
 17 18  1  0  0  0
 17103  1  0  0  0
 18 19  2  0  0  0
 18104  1  0  0  0
 19 20  1  0  0  0
 19 24  1  0  0  0
 20 21  2  0  0  0
 20105  1  0  0  0
 21 23  1  0  0  0
 22 28  1  0  0  0
 22 32  2  0  0  0
 26 27  1  0  0  0
 28106  1  0  0  0
 28107  1  0  0  0
 29108  1  0  0  0
 29109  1  0  0  0
 33 34  1  0  0  0
 33 66  1  0  0  0
 33 70  2  0  0  0
 34 36  1  0  0  0
 34 59  1  0  0  0
 34110  1  0  0  0
 35 44  2  0  0  0
 35 45  1  0  0  0
 35 68  1  0  0  0
 36 56  1  0  0  0
 36111  1  0  0  0
 37 39  1  0  0  0
 37 47  1  0  0  0
 37 66  1  0  0  0
 37112  1  0  0  0
 38 43  2  0  0  0
 38 46  1  0  0  0
 38 47  1  0  0  0
 39 64  1  0  0  0
 39 67  2  0  0  0
 40 52  1  0  0  0
 40 53  2  0  0  0
 40 58  1  0  0  0
 41113  1  0  0  0
 41114  1  0  0  0
 41115  1  0  0  0
 41 48  1  0  0  0
 42 43  1  0  0  0
 42 66  1  0  0  0
 42116  1  0  0  0
 42117  1  0  0  0
 43 44  1  0  0  0
 44118  1  0  0  0
 45 46  2  0  0  0
 45119  1  0  0  0
 46120  1  0  0  0
 47121  1  0  0  0
 47122  1  0  0  0
 48 56  1  0  0  0
 48 65  1  0  0  0
 48123  1  0  0  0
 49 50  1  0  0  0
 49 53  1  0  0  0
 49 64  1  0  0  0
 49124  1  0  0  0
 50 51  1  0  0  0
 50125  1  0  0  0
 50126  1  0  0  0
 51 52  1  0  0  0
 51127  1  0  0  0
 51128  1  0  0  0
 52129  1  0  0  0
 52130  1  0  0  0
 53 54  1  0  0  0
 54 55  2  0  0  0
 54131  1  0  0  0
 55 57  1  0  0  0
 55132  1  0  0  0
 56 69  2  0  0  0
 57 58  2  0  0  0
 57133  1  0  0  0
 58134  1  0  0  0
 59 60  1  0  0  0
 59 61  1  0  0  0
 59 62  1  0  0  0
 60135  1  0  0  0
 60136  1  0  0  0
 60137  1  0  0  0
 61138  1  0  0  0
 61139  1  0  0  0
 61140  1  0  0  0
 62141  1  0  0  0
 62142  1  0  0  0
 62143  1  0  0  0
 63 65  1  0  0  0
 63144  1  0  0  0
 63145  1  0  0  0
 63146  1  0  0  0
 64147  1  0  0  0
 65148  1  0  0  0
 68 84  1  0  0  0
 71 74  2  0  0  0
 71 75  1  0  0  0
 71149  1  0  0  0
 72 75  2  0  0  0
 72 76  1  0  0  0
 72150  1  0  0  0
 73 74  1  0  0  0
 73 76  2  0  0  0
 73 80  1  0  0  0
 74 83  1  0  0  0
 75 85  1  0  0  0
 76 89  1  0  0  0
 77 78  2  0  0  0
 77 79  1  0  0  0
 77151  1  0  0  0
 78 81  1  0  0  0
 78 84  1  0  0  0
 79 85  1  0  0  0
 79 87  2  0  0  0
 80 86  1  0  0  0
 80 88  2  0  0  0
 81 82  1  0  0  0
 81152  1  0  0  0
 81153  1  0  0  0
 82 85  1  0  0  0
 82154  1  0  0  0
 82155  1  0  0  0
 83156  1  0  0  0
 83157  1  0  0  0
 83158  1  0  0  0
 84159  1  0  0  0
 84160  1  0  0  0
 86161  1  0  0  0
M  ISO  4   1 100  68 101  84 101  86 100
M  END
> <chiral flag>
0

> <version>
0

> <s_m_source_file>
/data/baiqing/PycharmProjects/Reinvent-master-3.2/result/LINK_invent/BTK/process_docking_weight1_custom_product_contain_oxygen_bond_distance_aromatic_linkinvent_7_9_3/rearranged_h_0073.sdf

> <i_m_source_file_index>
77

> <r_mmod_Potential_Energy-OPLS-2005>
91.5753326416016

> <r_mmod_Stretch_Energy-OPLS-2005>
44.7774963378906

> <r_mmod_Bend_Energy-OPLS-2005>
106.330390930176

> <r_mmod_Torsional_Energy-OPLS-2005>
320.212371826172

> <r_mmod_Improper_Torsional_Energy-OPLS-2005>
4.69947004318237

> <r_mmod_Van_der_Waal_Energy-OPLS-2005>
185.684112548828

> <r_mmod_Electrostatic_Energy-OPLS-2005>
-354.273071289062

> <r_mmod_Solvation_Energy-OPLS-2005>
-233.601577758789

> <b_mmod_Minimization_Converged-OPLS-2005>
0

> <r_mmod_RMS_Derivative-OPLS-2005>
3.47916316986084

$$$$
77
                    3D
 Structure written by MMmdl.
157165  0  0  1  0            999 V2000
  -30.4660  -15.2722   20.3166 C   0  0  0  0  0  0
  -30.4362  -12.8099   19.5175 C   0  0  0  0  0  0
  -29.5301  -12.5447   18.2909 C   0  0  0  0  0  0
  -28.0887  -12.2650   18.7434 C   0  0  0  0  0  0
  -27.6116  -13.2679   19.8223 C   0  0  2  0  0  0
  -28.6476  -13.4808   20.9480 C   0  0  0  0  0  0
  -25.2459  -13.8237   20.5854 C   0  0  0  0  0  0
  -24.1796  -13.0451   20.9320 C   0  0  0  0  0  0
  -24.6404  -11.6928   20.8791 C   0  0  0  0  0  0
  -23.9085  -10.4297   21.0415 C   0  0  0  0  0  0
  -24.3626   -9.4209   21.9197 C   0  0  0  0  0  0
  -23.6304   -8.2242   22.0752 C   0  0  0  0  0  0
  -22.4285   -8.0281   21.3537 C   0  0  0  0  0  0
  -21.9923   -9.0256   20.4646 C   0  0  0  0  0  0
  -22.7247  -10.2146   20.3070 C   0  0  0  0  0  0
  -21.6860   -6.0743   22.5272 C   0  0  0  0  0  0
  -21.4007   -6.5644   23.8196 C   0  0  0  0  0  0
  -21.3657   -5.6796   24.9165 C   0  0  0  0  0  0
  -21.6036   -4.3058   24.7212 C   0  0  0  0  0  0
  -21.8823   -3.8150   23.4332 C   0  0  0  0  0  0
  -21.9199   -4.6970   22.3392 C   0  0  0  0  0  0
  -22.7800  -13.5204   21.1905 C   0  0  0  0  0  0
  -22.1678   -4.2152   21.0967 F   0  0  0  0  0  0
  -21.5634   -3.4552   25.7727 F   0  0  0  0  0  0
  -29.8715  -13.9762   20.2992 N   0  0  0  0  0  0
  -26.2855  -12.9496   20.3282 N   0  0  0  0  0  0
  -25.9337  -11.6598   20.5757 N   0  0  0  0  0  0
  -22.0445  -12.8205   22.0451 N   0  0  0  0  0  0
  -25.4142  -15.1980   20.4334 N   0  0  0  0  0  0
  -31.6931  -15.1763   20.1658 O   0  0  0  0  0  0
  -21.6644   -6.8884   21.4232 O   0  0  0  0  0  0
  -22.3504  -14.5510   20.6719 O   0  0  0  0  0  0
  -24.6608  -31.8263   23.1731 C   0  0  0  0  0  0
  -25.9301  -32.4612   23.8180 C   0  0  1  0  0  0
  -27.2157  -26.9461   20.1752 C   0  0  0  0  0  0
  -25.5987  -33.8426   24.2095 N   0  0  0  0  0  0
  -23.4744  -30.4351   21.5251 C   0  0  2  0  0  0
  -24.9245  -28.8239   20.1176 C   0  0  0  0  0  0
  -22.7666  -29.4430   22.4834 C   0  0  0  0  0  0
  -18.0306  -28.1416   22.8474 C   0  0  0  0  0  0
  -24.1492  -36.7208   23.2648 C   0  0  0  0  0  0
  -26.0421  -30.6359   21.4024 C   0  0  0  0  0  0
  -26.1080  -29.2246   20.7525 C   0  0  0  0  0  0
  -27.2470  -28.3032   20.7629 C   0  0  0  0  0  0
  -26.0082  -26.6972   19.4917 C   0  0  0  0  0  0
  -24.8966  -27.5788   19.4699 C   0  0  0  0  0  0
  -23.7127  -29.7528   20.1503 C   0  0  0  0  0  0
  -25.4139  -36.2977   24.0295 C   0  0  1  0  0  0
  -20.5937  -28.3745   23.1211 C   0  0  2  0  0  0
  -20.6793  -26.9436   22.5393 C   0  0  0  0  0  0
  -19.5759  -26.6385   21.5217 C   0  0  0  0  0  0
  -18.1944  -26.7948   22.1637 C   0  0  0  0  0  0
  -19.1571  -28.8902   23.2826 C   0  0  0  0  0  0
  -18.9491  -30.1505   23.8832 C   0  0  0  0  0  0
  -17.6485  -30.6601   24.0559 C   0  0  0  0  0  0
  -25.9099  -34.9360   23.5023 C   0  0  0  0  0  0
  -16.5370  -29.9085   23.6353 C   0  0  0  0  0  0
  -16.7295  -28.6513   23.0357 C   0  0  0  0  0  0
  -26.4575  -31.6543   25.0695 C   0  0  0  0  0  0
  -25.3701  -31.3768   26.1353 C   0  0  0  0  0  0
  -27.0478  -30.2915   24.6400 C   0  0  0  0  0  0
  -27.6063  -32.4361   25.7489 C   0  0  0  0  0  0
  -27.5560  -37.1771   24.8480 C   0  0  0  0  0  0
  -21.4331  -29.3034   22.3556 N   0  0  0  0  0  0
  -26.4288  -37.3701   23.9394 N   0  0  0  0  0  0
  -24.7473  -30.9937   22.0873 N   0  0  0  0  0  0
  -23.4234  -28.8008   23.3082 O   0  0  0  0  0  0
  -28.2329  -25.8606   20.1723 O   0  0  0  0  0  0
  -26.5710  -34.8901   22.4617 O   0  0  0  0  0  0
  -23.5681  -32.1232   23.6829 O   0  0  0  0  0  0
  -30.1209  -17.9927   20.0448 C   0  0  0  0  0  0
  -28.8670  -21.8121   21.3100 C   0  0  0  0  0  0
  -28.2413  -21.7188   19.1566 C   0  0  0  0  0  0
  -29.6680  -20.3519   21.1427 C   0  0  0  0  0  0
  -29.0114  -20.2279   19.0136 C   0  0  0  0  0  0
  -28.7469  -22.9378   20.1304 C   0  0  0  0  0  0
  -32.3232  -23.0666   18.9599 C   0  0  0  0  0  0
  -30.1446  -23.5069   19.7678 C   0  0  0  0  0  0
  -29.2757  -19.2134   20.1767 N   0  0  0  0  0  0
  -29.7429  -16.5891   20.3248 N   0  0  0  0  0  0
  -27.7807  -24.2412   20.3528 N   0  0  0  0  0  0
  -31.0123  -22.5564   19.1572 O   0  0  0  0  0  0
  -31.6680  -18.3070   19.4718 S   0  0  0  0  0  0
  -31.4490  -13.0110   19.1642 H   0  0  0  0  0  0
  -30.5201  -11.9201   20.1420 H   0  0  0  0  0  0
  -29.9095  -11.6994   17.7154 H   0  0  0  0  0  0
  -29.5520  -13.4087   17.6258 H   0  0  0  0  0  0
  -28.0734  -11.2573   19.1616 H   0  0  0  0  0  0
  -27.4083  -12.2506   17.8919 H   0  0  0  0  0  0
  -27.5193  -14.2188   19.2966 H   0  0  0  0  0  0
  -28.8313  -12.5622   21.5084 H   0  0  0  0  0  0
  -28.2862  -14.2220   21.6622 H   0  0  0  0  0  0
  -25.2769   -9.5705   22.4770 H   0  0  0  0  0  0
  -24.0013   -7.4650   22.7488 H   0  0  0  0  0  0
  -21.0850   -8.8773   19.8961 H   0  0  0  0  0  0
  -22.3681  -10.9694   19.6194 H   0  0  0  0  0  0
  -21.1972   -7.6150   23.9691 H   0  0  0  0  0  0
  -21.1490   -6.0537   25.9068 H   0  0  0  0  0  0
  -22.0597   -2.7613   23.2827 H   0  0  0  0  0  0
  -22.4074  -11.9878   22.4854 H   0  0  0  0  0  0
  -21.1033  -13.1200   22.2604 H   0  0  0  0  0  0
  -24.6515  -15.8507   20.5805 H   0  0  0  0  0  0
  -26.2407  -15.6390   20.0562 H   0  0  0  0  0  0
  -26.7364  -32.5166   23.0890 H   0  0  0  0  0  0
  -25.0072  -33.9503   25.0207 H   0  0  0  0  0  0
  -22.7840  -31.2646   21.3559 H   0  0  0  0  0  0
  -23.3755  -35.9536   23.3321 H   0  0  0  0  0  0
  -24.3532  -36.8839   22.2050 H   0  0  0  0  0  0
  -23.7254  -37.6410   23.6692 H   0  0  0  0  0  0
  -26.2195  -31.3743   20.6187 H   0  0  0  0  0  0
  -26.9032  -30.6950   22.0556 H   0  0  0  0  0  0
  -28.1498  -28.6083   21.2716 H   0  0  0  0  0  0
  -25.9040  -25.7487   18.9858 H   0  0  0  0  0  0
  -23.9996  -27.2663   18.9529 H   0  0  0  0  0  0
  -23.8665  -30.5231   19.3918 H   0  0  0  0  0  0
  -22.8227  -29.2053   19.8351 H   0  0  0  0  0  0
  -25.1333  -36.1773   25.0778 H   0  0  0  0  0  0
  -21.0017  -28.3339   24.1348 H   0  0  0  0  0  0
  -20.5696  -26.2367   23.3619 H   0  0  0  0  0  0
  -21.6658  -26.7430   22.1190 H   0  0  0  0  0  0
  -19.6921  -25.6287   21.1264 H   0  0  0  0  0  0
  -19.6697  -27.3183   20.6731 H   0  0  0  0  0  0
  -17.4212  -26.6688   21.4035 H   0  0  0  0  0  0
  -18.0348  -26.0096   22.9042 H   0  0  0  0  0  0
  -19.7962  -30.7339   24.2186 H   0  0  0  0  0  0
  -17.5025  -31.6271   24.5181 H   0  0  0  0  0  0
  -15.5368  -30.2971   23.7698 H   0  0  0  0  0  0
  -15.8700  -28.0804   22.7119 H   0  0  0  0  0  0
  -24.5873  -30.7156   25.7628 H   0  0  0  0  0  0
  -24.8932  -32.2979   26.4716 H   0  0  0  0  0  0
  -25.7931  -30.8944   27.0174 H   0  0  0  0  0  0
  -26.3149  -29.6597   24.1390 H   0  0  0  0  0  0
  -27.4015  -29.7261   25.5030 H   0  0  0  0  0  0
  -27.9080  -30.4113   23.9811 H   0  0  0  0  0  0
  -27.2621  -33.3687   26.1969 H   0  0  0  0  0  0
  -28.3922  -32.6900   25.0359 H   0  0  0  0  0  0
  -28.0699  -31.8579   26.5494 H   0  0  0  0  0  0
  -28.2616  -38.0035   24.7479 H   0  0  0  0  0  0
  -28.1035  -36.2568   24.6391 H   0  0  0  0  0  0
  -27.2268  -37.1495   25.8886 H   0  0  0  0  0  0
  -20.9589  -29.8700   21.6641 H   0  0  0  0  0  0
  -26.0149  -38.2767   24.1388 H   0  0  0  0  0  0
  -29.3026  -22.3044   22.1779 H   0  0  0  0  0  0
  -27.8569  -21.5581   21.6368 H   0  0  0  0  0  0
  -27.2115  -21.4814   19.4380 H   0  0  0  0  0  0
  -28.1199  -22.1307   18.1532 H   0  0  0  0  0  0
  -29.7159  -19.8843   22.1265 H   0  0  0  0  0  0
  -30.6987  -20.6168   20.9051 H   0  0  0  0  0  0
  -29.9742  -20.4519   18.5427 H   0  0  0  0  0  0
  -28.4402  -19.6874   18.2558 H   0  0  0  0  0  0
  -32.3066  -23.9978   18.3898 H   0  0  0  0  0  0
  -32.9397  -22.3552   18.4073 H   0  0  0  0  0  0
  -32.8134  -23.2545   19.9165 H   0  0  0  0  0  0
  -30.6075  -23.8848   20.6820 H   0  0  0  0  0  0
  -30.0406  -24.3581   19.0930 H   0  0  0  0  0  0
  -28.7699  -16.4844   20.5533 H   0  0  0  0  0  0
  -27.4067  -24.1821   21.2957 H   0  0  0  0  0  0
  1 25  1  0  0  0
  1 30  2  0  0  0
  1 80  1  0  0  0
  2  3  1  0  0  0
  2 25  1  0  0  0
  2 84  1  0  0  0
  2 85  1  0  0  0
  3  4  1  0  0  0
  3 86  1  0  0  0
  3 87  1  0  0  0
  4  5  1  0  0  0
  4 88  1  0  0  0
  4 89  1  0  0  0
  5  6  1  0  0  0
  5 26  1  0  0  0
  5 90  1  0  0  0
  6 25  1  0  0  0
  6 91  1  0  0  0
  6 92  1  0  0  0
  7  8  2  0  0  0
  7 26  1  0  0  0
  7 29  1  0  0  0
  8  9  1  0  0  0
  8 22  1  0  0  0
  9 10  1  0  0  0
  9 27  2  0  0  0
 10 11  2  0  0  0
 10 15  1  0  0  0
 11 12  1  0  0  0
 11 93  1  0  0  0
 12 13  2  0  0  0
 12 94  1  0  0  0
 13 14  1  0  0  0
 13 31  1  0  0  0
 14 15  2  0  0  0
 14 95  1  0  0  0
 15 96  1  0  0  0
 16 17  2  0  0  0
 16 21  1  0  0  0
 16 31  1  0  0  0
 17 18  1  0  0  0
 17 97  1  0  0  0
 18 19  2  0  0  0
 18 98  1  0  0  0
 19 20  1  0  0  0
 19 24  1  0  0  0
 20 21  2  0  0  0
 20 99  1  0  0  0
 21 23  1  0  0  0
 22 28  1  0  0  0
 22 32  2  0  0  0
 26 27  1  0  0  0
 28100  1  0  0  0
 28101  1  0  0  0
 29102  1  0  0  0
 29103  1  0  0  0
 33 34  1  0  0  0
 33 66  1  0  0  0
 33 70  2  0  0  0
 34 36  1  0  0  0
 34 59  1  0  0  0
 34104  1  0  0  0
 35 44  2  0  0  0
 35 45  1  0  0  0
 35 68  1  0  0  0
 36 56  1  0  0  0
 36105  1  0  0  0
 37 39  1  0  0  0
 37 47  1  0  0  0
 37 66  1  0  0  0
 37106  1  0  0  0
 38 43  2  0  0  0
 38 46  1  0  0  0
 38 47  1  0  0  0
 39 64  1  0  0  0
 39 67  2  0  0  0
 40 52  1  0  0  0
 40 53  2  0  0  0
 40 58  1  0  0  0
 41107  1  0  0  0
 41108  1  0  0  0
 41109  1  0  0  0
 41 48  1  0  0  0
 42 43  1  0  0  0
 42 66  1  0  0  0
 42110  1  0  0  0
 42111  1  0  0  0
 43 44  1  0  0  0
 44112  1  0  0  0
 45 46  2  0  0  0
 45113  1  0  0  0
 46114  1  0  0  0
 47115  1  0  0  0
 47116  1  0  0  0
 48 56  1  0  0  0
 48 65  1  0  0  0
 48117  1  0  0  0
 49 50  1  0  0  0
 49 53  1  0  0  0
 49 64  1  0  0  0
 49118  1  0  0  0
 50 51  1  0  0  0
 50119  1  0  0  0
 50120  1  0  0  0
 51 52  1  0  0  0
 51121  1  0  0  0
 51122  1  0  0  0
 52123  1  0  0  0
 52124  1  0  0  0
 53 54  1  0  0  0
 54 55  2  0  0  0
 54125  1  0  0  0
 55 57  1  0  0  0
 55126  1  0  0  0
 56 69  2  0  0  0
 57 58  2  0  0  0
 57127  1  0  0  0
 58128  1  0  0  0
 59 60  1  0  0  0
 59 61  1  0  0  0
 59 62  1  0  0  0
 60129  1  0  0  0
 60130  1  0  0  0
 60131  1  0  0  0
 61132  1  0  0  0
 61133  1  0  0  0
 61134  1  0  0  0
 62135  1  0  0  0
 62136  1  0  0  0
 62137  1  0  0  0
 63 65  1  0  0  0
 63138  1  0  0  0
 63139  1  0  0  0
 63140  1  0  0  0
 64141  1  0  0  0
 65142  1  0  0  0
 68 81  1  0  0  0
 71 79  1  0  0  0
 71 80  1  0  0  0
 71 83  2  0  0  0
 72 74  1  0  0  0
 72 76  1  0  0  0
 72143  1  0  0  0
 72144  1  0  0  0
 73 75  1  0  0  0
 73 76  1  0  0  0
 73145  1  0  0  0
 73146  1  0  0  0
 74 79  1  0  0  0
 74147  1  0  0  0
 74148  1  0  0  0
 75 79  1  0  0  0
 75149  1  0  0  0
 75150  1  0  0  0
 76 78  1  0  0  0
 76 81  1  0  0  0
 77 82  1  0  0  0
 77151  1  0  0  0
 77152  1  0  0  0
 77153  1  0  0  0
 78 82  1  0  0  0
 78154  1  0  0  0
 78155  1  0  0  0
 80156  1  0  0  0
 81157  1  0  0  0
M  ISO  4   1 100  68 101  80 100  81 101
M  END
> <chiral flag>
0

> <version>
0

> <s_m_source_file>
/data/baiqing/PycharmProjects/Reinvent-master-3.2/result/LINK_invent/BTK/process_docking_weight1_custom_product_contain_oxygen_bond_distance_aromatic_linkinvent_7_9_3/rearranged_h_0073.sdf

> <i_m_source_file_index>
78

> <r_mmod_Potential_Energy-OPLS-2005>
1308.59411621094

> <r_mmod_Stretch_Energy-OPLS-2005>
504.122161865234

> <r_mmod_Bend_Energy-OPLS-2005>
505.045593261719

> <r_mmod_Torsional_Energy-OPLS-2005>
348.025054931641

> <r_mmod_Improper_Torsional_Energy-OPLS-2005>
10.2381401062012

> <r_mmod_Van_der_Waal_Energy-OPLS-2005>
143.541473388672

> <r_mmod_Electrostatic_Energy-OPLS-2005>
-384.595489501953

> <r_mmod_Solvation_Energy-OPLS-2005>
-260.236175537109

> <b_mmod_Minimization_Converged-OPLS-2005>
0

> <r_mmod_RMS_Derivative-OPLS-2005>
5.88660383224487

$$$$
78
                    3D
 Structure written by MMmdl.
160169  0  0  1  0            999 V2000
  -30.7621  -14.3971   20.6419 C   0  0  0  0  0  0
  -30.4089  -12.2830   19.4137 C   0  0  0  0  0  0
  -29.4913  -12.5020   18.1968 C   0  0  0  0  0  0
  -28.0135  -12.3603   18.6117 C   0  0  0  0  0  0
  -27.6581  -13.2051   19.8653 C   0  0  2  0  0  0
  -28.6955  -12.9849   20.9865 C   0  0  0  0  0  0
  -25.2567  -13.8179   20.5657 C   0  0  0  0  0  0
  -24.1815  -13.0454   20.9182 C   0  0  0  0  0  0
  -24.6358  -11.6917   20.8730 C   0  0  0  0  0  0
  -23.9031  -10.4303   21.0385 C   0  0  0  0  0  0
  -24.3589   -9.4209   21.9155 C   0  0  0  0  0  0
  -23.6272   -8.2239   22.0748 C   0  0  0  0  0  0
  -22.4248   -8.0270   21.3557 C   0  0  0  0  0  0
  -21.9867   -9.0230   20.4657 C   0  0  0  0  0  0
  -22.7200  -10.2104   20.3049 C   0  0  0  0  0  0
  -21.6840   -6.0712   22.5271 C   0  0  0  0  0  0
  -21.4014   -6.5624   23.8201 C   0  0  0  0  0  0
  -21.3666   -5.6771   24.9164 C   0  0  0  0  0  0
  -21.6034   -4.3034   24.7209 C   0  0  0  0  0  0
  -21.8824   -3.8127   23.4331 C   0  0  0  0  0  0
  -21.9190   -4.6939   22.3385 C   0  0  0  0  0  0
  -22.7837  -13.5264   21.1806 C   0  0  0  0  0  0
  -22.1661   -4.2128   21.0968 F   0  0  0  0  0  0
  -21.5626   -3.4533   25.7726 F   0  0  0  0  0  0
  -30.0305  -13.2695   20.4372 N   0  0  0  0  0  0
  -26.2984  -12.9336   20.3277 N   0  0  0  0  0  0
  -25.9279  -11.6505   20.5722 N   0  0  0  0  0  0
  -22.0436  -12.8313   22.0379 N   0  0  0  0  0  0
  -25.4316  -15.1888   20.4035 N   0  0  0  0  0  0
  -31.8805  -14.5478   20.1386 O   0  0  0  0  0  0
  -21.6635   -6.8849   21.4227 O   0  0  0  0  0  0
  -22.3530  -14.5527   20.6584 O   0  0  0  0  0  0
  -24.6134  -31.8681   23.2046 C   0  0  0  0  0  0
  -25.9004  -32.4833   23.8369 C   0  0  1  0  0  0
  -27.2525  -27.4396   20.1063 C   0  0  0  0  0  0
  -25.5829  -33.8626   24.2306 N   0  0  0  0  0  0
  -23.4075  -30.4872   21.5438 C   0  0  2  0  0  0
  -24.8624  -28.9555   20.1116 C   0  0  0  0  0  0
  -22.7434  -29.4634   22.4941 C   0  0  0  0  0  0
  -18.0273  -28.1377   22.8507 C   0  0  0  0  0  0
  -24.1472  -36.7342   23.2652 C   0  0  0  0  0  0
  -25.9321  -30.8430   21.3510 C   0  0  0  0  0  0
  -26.0204  -29.4732   20.7063 C   0  0  0  0  0  0
  -27.2214  -28.7243   20.6981 C   0  0  0  0  0  0
  -26.0833  -26.9458   19.4877 C   0  0  0  0  0  0
  -24.8898  -27.6924   19.4963 C   0  0  0  0  0  0
  -23.6197  -29.8170   20.1595 C   0  0  0  0  0  0
  -25.4087  -36.3133   24.0352 C   0  0  1  0  0  0
  -20.5877  -28.3663   23.1311 C   0  0  2  0  0  0
  -20.6745  -26.9387   22.5427 C   0  0  0  0  0  0
  -19.5716  -26.6394   21.5221 C   0  0  0  0  0  0
  -18.1903  -26.7924   22.1636 C   0  0  0  0  0  0
  -19.1531  -28.8830   23.2909 C   0  0  0  0  0  0
  -18.9459  -30.1427   23.8928 C   0  0  0  0  0  0
  -17.6462  -30.6580   24.0575 C   0  0  0  0  0  0
  -25.9015  -34.9491   23.5146 C   0  0  0  0  0  0
  -16.5346  -29.9095   23.6315 C   0  0  0  0  0  0
  -16.7263  -28.6511   23.0335 C   0  0  0  0  0  0
  -26.4430  -31.6599   25.0687 C   0  0  0  0  0  0
  -25.3703  -31.3758   26.1457 C   0  0  0  0  0  0
  -27.0237  -30.3036   24.6030 C   0  0  0  0  0  0
  -27.6007  -32.4324   25.7433 C   0  0  0  0  0  0
  -27.5577  -37.1812   24.8451 C   0  0  0  0  0  0
  -21.4152  -29.3034   22.3712 N   0  0  0  0  0  0
  -26.4277  -37.3807   23.9417 N   0  0  0  0  0  0
  -24.6699  -31.0792   22.0929 N   0  0  0  0  0  0
  -23.4211  -28.8188   23.2980 O   0  0  0  0  0  0
  -28.3983  -26.6686   20.1260 O   0  0  0  0  0  0
  -26.5615  -34.8949   22.4727 O   0  0  0  0  0  0
  -23.5318  -32.1376   23.7451 O   0  0  0  0  0  0
  -29.7232  -20.1845   22.0495 C   0  0  0  0  0  0
  -29.3176  -19.4563   19.7787 C   0  0  0  0  0  0
  -30.0935  -17.8309   21.4457 C   0  0  0  0  0  0
  -29.4148  -20.5231   20.7086 C   0  0  0  0  0  0
  -30.0738  -18.8665   22.4113 C   0  0  0  0  0  0
  -29.6625  -18.1355   20.1325 C   0  0  0  0  0  0
  -29.4697  -22.4202   19.0817 C   0  0  0  0  0  0
  -30.7457  -16.5048   21.7449 C   0  0  0  0  0  0
  -29.2229  -23.9197   19.0547 C   0  0  0  0  0  0
  -28.9127  -22.9897   21.2409 C   0  0  0  0  0  0
  -29.2752  -24.3269   20.5320 C   0  0  1  0  0  0
  -30.7147  -24.7441   20.9257 C   0  0  0  0  0  0
  -28.2676  -25.4567   20.8953 C   0  0  0  0  0  0
  -29.2407  -21.9020   20.3093 N   0  0  0  0  0  0
  -30.1368  -15.3869   21.3050 N   0  0  0  0  0  0
  -29.8591  -21.8192   18.0771 O   0  0  0  0  0  0
  -31.8270  -16.4813   22.3510 O   0  0  0  0  0  0
  -30.4350  -18.6238   23.6951 F   0  0  0  0  0  0
  -29.6292  -17.1808   19.1699 F   0  0  0  0  0  0
  -31.4564  -12.3557   19.1147 H   0  0  0  0  0  0
  -30.2866  -11.2713   19.8065 H   0  0  0  0  0  0
  -29.7372  -11.7821   17.4159 H   0  0  0  0  0  0
  -29.6684  -13.4917   17.7733 H   0  0  0  0  0  0
  -27.8338  -11.3033   18.8194 H   0  0  0  0  0  0
  -27.3604  -12.6185   17.7759 H   0  0  0  0  0  0
  -27.7080  -14.2538   19.5687 H   0  0  0  0  0  0
  -28.6558  -11.9540   21.3383 H   0  0  0  0  0  0
  -28.4562  -13.5953   21.8567 H   0  0  0  0  0  0
  -25.2720   -9.5691   22.4746 H   0  0  0  0  0  0
  -23.9974   -7.4632   22.7477 H   0  0  0  0  0  0
  -21.0799   -8.8728   19.8980 H   0  0  0  0  0  0
  -22.3628  -10.9631   19.6166 H   0  0  0  0  0  0
  -21.2025   -7.6125   23.9706 H   0  0  0  0  0  0
  -21.1489   -6.0498   25.9066 H   0  0  0  0  0  0
  -22.0610   -2.7589   23.2830 H   0  0  0  0  0  0
  -22.4010  -12.0009   22.4881 H   0  0  0  0  0  0
  -21.1038  -13.1364   22.2504 H   0  0  0  0  0  0
  -24.6631  -15.8445   20.5016 H   0  0  0  0  0  0
  -26.2659  -15.6149   20.0218 H   0  0  0  0  0  0
  -26.7099  -32.5577   23.1166 H   0  0  0  0  0  0
  -24.9853  -33.9768   25.0367 H   0  0  0  0  0  0
  -22.6946  -31.3016   21.3990 H   0  0  0  0  0  0
  -23.3727  -35.9681   23.3307 H   0  0  0  0  0  0
  -24.3572  -36.8962   22.2068 H   0  0  0  0  0  0
  -23.7219  -37.6548   23.6663 H   0  0  0  0  0  0
  -26.0251  -31.6048   20.5751 H   0  0  0  0  0  0
  -26.8263  -30.9162   21.9588 H   0  0  0  0  0  0
  -28.1149  -29.1214   21.1596 H   0  0  0  0  0  0
  -26.0953  -25.9803   19.0028 H   0  0  0  0  0  0
  -24.0031  -27.2912   19.0263 H   0  0  0  0  0  0
  -23.7251  -30.5886   19.3947 H   0  0  0  0  0  0
  -22.7472  -29.2323   19.8660 H   0  0  0  0  0  0
  -25.1259  -36.2009   25.0843 H   0  0  0  0  0  0
  -20.9980  -28.3223   24.1425 H   0  0  0  0  0  0
  -20.5619  -26.2270   23.3621 H   0  0  0  0  0  0
  -21.6612  -26.7389   22.1228 H   0  0  0  0  0  0
  -19.6866  -25.6326   21.1193 H   0  0  0  0  0  0
  -19.6644  -27.3248   20.6790 H   0  0  0  0  0  0
  -17.4171  -26.6689   21.4035 H   0  0  0  0  0  0
  -18.0283  -26.0057   22.9018 H   0  0  0  0  0  0
  -19.7935  -30.7231   24.2316 H   0  0  0  0  0  0
  -17.5018  -31.6254   24.5180 H   0  0  0  0  0  0
  -15.5348  -30.3008   23.7611 H   0  0  0  0  0  0
  -15.8665  -28.0845   22.7020 H   0  0  0  0  0  0
  -24.5821  -30.7154   25.7821 H   0  0  0  0  0  0
  -24.8959  -32.2955   26.4895 H   0  0  0  0  0  0
  -25.8042  -30.8926   27.0220 H   0  0  0  0  0  0
  -26.2765  -29.6827   24.1073 H   0  0  0  0  0  0
  -27.4011  -29.7234   25.4459 H   0  0  0  0  0  0
  -27.8588  -30.4353   23.9147 H   0  0  0  0  0  0
  -27.2590  -33.3584   26.2066 H   0  0  0  0  0  0
  -28.3755  -32.6961   25.0225 H   0  0  0  0  0  0
  -28.0735  -31.8432   26.5294 H   0  0  0  0  0  0
  -28.2591  -38.0121   24.7524 H   0  0  0  0  0  0
  -28.1083  -36.2653   24.6226 H   0  0  0  0  0  0
  -27.2317  -37.1406   25.8864 H   0  0  0  0  0  0
  -20.9303  -29.8816   21.6999 H   0  0  0  0  0  0
  -26.0184  -38.2892   24.1431 H   0  0  0  0  0  0
  -29.7680  -20.9332   22.8254 H   0  0  0  0  0  0
  -29.0278  -19.6311   18.7533 H   0  0  0  0  0  0
  -28.2428  -24.1047   18.6153 H   0  0  0  0  0  0
  -29.9740  -24.4287   18.4512 H   0  0  0  0  0  0
  -27.8427  -22.9239   21.4501 H   0  0  0  0  0  0
  -29.4284  -22.9147   22.1972 H   0  0  0  0  0  0
  -31.4353  -23.9400   20.7602 H   0  0  0  0  0  0
  -30.7781  -25.0185   21.9791 H   0  0  0  0  0  0
  -31.0470  -25.6057   20.3459 H   0  0  0  0  0  0
  -28.3985  -25.7205   21.9466 H   0  0  0  0  0  0
  -27.2563  -25.0547   20.8209 H   0  0  0  0  0  0
  -29.1321  -15.3628   21.2967 H   0  0  0  0  0  0
  1 25  1  0  0  0
  1 30  2  0  0  0
  1 85  1  0  0  0
  2  3  1  0  0  0
  2 25  1  0  0  0
  2 90  1  0  0  0
  2 91  1  0  0  0
  3  4  1  0  0  0
  3 92  1  0  0  0
  3 93  1  0  0  0
  4  5  1  0  0  0
  4 94  1  0  0  0
  4 95  1  0  0  0
  5  6  1  0  0  0
  5 26  1  0  0  0
  5 96  1  0  0  0
  6 25  1  0  0  0
  6 97  1  0  0  0
  6 98  1  0  0  0
  7  8  2  0  0  0
  7 26  1  0  0  0
  7 29  1  0  0  0
  8  9  1  0  0  0
  8 22  1  0  0  0
  9 10  1  0  0  0
  9 27  2  0  0  0
 10 11  2  0  0  0
 10 15  1  0  0  0
 11 12  1  0  0  0
 11 99  1  0  0  0
 12 13  2  0  0  0
 12100  1  0  0  0
 13 14  1  0  0  0
 13 31  1  0  0  0
 14 15  2  0  0  0
 14101  1  0  0  0
 15102  1  0  0  0
 16 17  2  0  0  0
 16 21  1  0  0  0
 16 31  1  0  0  0
 17 18  1  0  0  0
 17103  1  0  0  0
 18 19  2  0  0  0
 18104  1  0  0  0
 19 20  1  0  0  0
 19 24  1  0  0  0
 20 21  2  0  0  0
 20105  1  0  0  0
 21 23  1  0  0  0
 22 28  1  0  0  0
 22 32  2  0  0  0
 26 27  1  0  0  0
 28106  1  0  0  0
 28107  1  0  0  0
 29108  1  0  0  0
 29109  1  0  0  0
 33 34  1  0  0  0
 33 66  1  0  0  0
 33 70  2  0  0  0
 34 36  1  0  0  0
 34 59  1  0  0  0
 34110  1  0  0  0
 35 44  2  0  0  0
 35 45  1  0  0  0
 35 68  1  0  0  0
 36 56  1  0  0  0
 36111  1  0  0  0
 37 39  1  0  0  0
 37 47  1  0  0  0
 37 66  1  0  0  0
 37112  1  0  0  0
 38 43  2  0  0  0
 38 46  1  0  0  0
 38 47  1  0  0  0
 39 64  1  0  0  0
 39 67  2  0  0  0
 40 52  1  0  0  0
 40 53  2  0  0  0
 40 58  1  0  0  0
 41113  1  0  0  0
 41114  1  0  0  0
 41115  1  0  0  0
 41 48  1  0  0  0
 42 43  1  0  0  0
 42 66  1  0  0  0
 42116  1  0  0  0
 42117  1  0  0  0
 43 44  1  0  0  0
 44118  1  0  0  0
 45 46  2  0  0  0
 45119  1  0  0  0
 46120  1  0  0  0
 47121  1  0  0  0
 47122  1  0  0  0
 48 56  1  0  0  0
 48 65  1  0  0  0
 48123  1  0  0  0
 49 50  1  0  0  0
 49 53  1  0  0  0
 49 64  1  0  0  0
 49124  1  0  0  0
 50 51  1  0  0  0
 50125  1  0  0  0
 50126  1  0  0  0
 51 52  1  0  0  0
 51127  1  0  0  0
 51128  1  0  0  0
 52129  1  0  0  0
 52130  1  0  0  0
 53 54  1  0  0  0
 54 55  2  0  0  0
 54131  1  0  0  0
 55 57  1  0  0  0
 55132  1  0  0  0
 56 69  2  0  0  0
 57 58  2  0  0  0
 57133  1  0  0  0
 58134  1  0  0  0
 59 60  1  0  0  0
 59 61  1  0  0  0
 59 62  1  0  0  0
 60135  1  0  0  0
 60136  1  0  0  0
 60137  1  0  0  0
 61138  1  0  0  0
 61139  1  0  0  0
 61140  1  0  0  0
 62141  1  0  0  0
 62142  1  0  0  0
 62143  1  0  0  0
 63 65  1  0  0  0
 63144  1  0  0  0
 63145  1  0  0  0
 63146  1  0  0  0
 64147  1  0  0  0
 65148  1  0  0  0
 68 83  1  0  0  0
 71 74  2  0  0  0
 71 75  1  0  0  0
 71149  1  0  0  0
 72 74  1  0  0  0
 72 76  2  0  0  0
 72150  1  0  0  0
 73 75  2  0  0  0
 73 76  1  0  0  0
 73 78  1  0  0  0
 74 84  1  0  0  0
 75 88  1  0  0  0
 76 89  1  0  0  0
 77 79  1  0  0  0
 77 84  1  0  0  0
 77 86  2  0  0  0
 78 85  1  0  0  0
 78 87  2  0  0  0
 79 81  1  0  0  0
 79151  1  0  0  0
 79152  1  0  0  0
 80 81  1  0  0  0
 80 84  1  0  0  0
 80153  1  0  0  0
 80154  1  0  0  0
 81 82  1  0  0  0
 81 83  1  0  0  0
 82155  1  0  0  0
 82156  1  0  0  0
 82157  1  0  0  0
 83158  1  0  0  0
 83159  1  0  0  0
 85160  1  0  0  0
M  ISO  4   1 100  68 101  83 101  85 100
M  END
> <chiral flag>
0

> <version>
0

> <s_m_source_file>
/data/baiqing/PycharmProjects/Reinvent-master-3.2/result/LINK_invent/BTK/process_docking_weight1_custom_product_contain_oxygen_bond_distance_aromatic_linkinvent_7_9_3/rearranged_h_0073.sdf

> <i_m_source_file_index>
79

> <r_mmod_Potential_Energy-OPLS-2005>
62.3341026306152

> <r_mmod_Stretch_Energy-OPLS-2005>
41.1446990966797

> <r_mmod_Bend_Energy-OPLS-2005>
122.729415893555

> <r_mmod_Torsional_Energy-OPLS-2005>
340.070281982422

> <r_mmod_Improper_Torsional_Energy-OPLS-2005>
4.76312446594238

> <r_mmod_Van_der_Waal_Energy-OPLS-2005>
165.962997436523

> <r_mmod_Electrostatic_Energy-OPLS-2005>
-399.756866455078

> <r_mmod_Solvation_Energy-OPLS-2005>
-225.492950439453

> <b_mmod_Minimization_Converged-OPLS-2005>
0

> <r_mmod_RMS_Derivative-OPLS-2005>
3.76645660400391

$$$$
79
                    3D
 Structure written by MMmdl.
152160  0  0  1  0            999 V2000
  -30.6423  -14.6021   20.5104 C   0  0  0  0  0  0
  -30.4273  -12.3700   19.4474 C   0  0  0  0  0  0
  -29.5030  -12.5225   18.2181 C   0  0  0  0  0  0
  -28.0215  -12.3716   18.6203 C   0  0  0  0  0  0
  -27.6549  -13.2183   19.8701 C   0  0  2  0  0  0
  -28.6972  -13.0287   20.9924 C   0  0  0  0  0  0
  -25.2555  -13.8177   20.5686 C   0  0  0  0  0  0
  -24.1816  -13.0433   20.9166 C   0  0  0  0  0  0
  -24.6391  -11.6908   20.8717 C   0  0  0  0  0  0
  -23.9062  -10.4292   21.0394 C   0  0  0  0  0  0
  -24.3618   -9.4213   21.9177 C   0  0  0  0  0  0
  -23.6296   -8.2249   22.0760 C   0  0  0  0  0  0
  -22.4281   -8.0280   21.3551 C   0  0  0  0  0  0
  -21.9909   -9.0246   20.4651 C   0  0  0  0  0  0
  -22.7233  -10.2128   20.3051 C   0  0  0  0  0  0
  -21.6857   -6.0731   22.5278 C   0  0  0  0  0  0
  -21.4018   -6.5636   23.8210 C   0  0  0  0  0  0
  -21.3660   -5.6795   24.9175 C   0  0  0  0  0  0
  -21.6044   -4.3059   24.7231 C   0  0  0  0  0  0
  -21.8820   -3.8148   23.4352 C   0  0  0  0  0  0
  -21.9196   -4.6960   22.3404 C   0  0  0  0  0  0
  -22.7842  -13.5225   21.1845 C   0  0  0  0  0  0
  -22.1663   -4.2142   21.0987 F   0  0  0  0  0  0
  -21.5627   -3.4543   25.7746 F   0  0  0  0  0  0
  -30.0160  -13.3815   20.4433 N   0  0  0  0  0  0
  -26.2992  -12.9363   20.3347 N   0  0  0  0  0  0
  -25.9323  -11.6510   20.5734 N   0  0  0  0  0  0
  -22.0496  -12.8209   22.0408 N   0  0  0  0  0  0
  -25.4271  -15.1897   20.4128 N   0  0  0  0  0  0
  -31.7904  -14.7361   20.0754 O   0  0  0  0  0  0
  -21.6651   -6.8878   21.4247 O   0  0  0  0  0  0
  -22.3516  -14.5525   20.6698 O   0  0  0  0  0  0
  -24.6226  -31.8630   23.2047 C   0  0  0  0  0  0
  -25.9088  -32.4798   23.8371 C   0  0  1  0  0  0
  -27.2302  -27.3614   20.0963 C   0  0  0  0  0  0
  -25.5916  -33.8601   24.2296 N   0  0  0  0  0  0
  -23.4155  -30.4871   21.5455 C   0  0  2  0  0  0
  -24.8631  -28.9470   20.1081 C   0  0  0  0  0  0
  -22.7452  -29.4648   22.4936 C   0  0  0  0  0  0
  -18.0285  -28.1392   22.8499 C   0  0  0  0  0  0
  -24.1485  -36.7296   23.2636 C   0  0  0  0  0  0
  -25.9534  -30.8045   21.3718 C   0  0  0  0  0  0
  -26.0291  -29.4353   20.7120 C   0  0  0  0  0  0
  -27.2151  -28.6494   20.7046 C   0  0  0  0  0  0
  -26.0381  -26.9067   19.4893 C   0  0  0  0  0  0
  -24.8662  -27.6855   19.4919 C   0  0  0  0  0  0
  -23.6287  -29.8216   20.1600 C   0  0  0  0  0  0
  -25.4111  -36.3095   24.0330 C   0  0  1  0  0  0
  -20.5882  -28.3699   23.1289 C   0  0  2  0  0  0
  -20.6779  -26.9427   22.5418 C   0  0  0  0  0  0
  -19.5753  -26.6393   21.5222 C   0  0  0  0  0  0
  -18.1928  -26.7940   22.1626 C   0  0  0  0  0  0
  -19.1535  -28.8859   23.2897 C   0  0  0  0  0  0
  -18.9461  -30.1459   23.8916 C   0  0  0  0  0  0
  -17.6462  -30.6600   24.0567 C   0  0  0  0  0  0
  -25.9049  -34.9464   23.5113 C   0  0  0  0  0  0
  -16.5352  -29.9102   23.6327 C   0  0  0  0  0  0
  -16.7272  -28.6514   23.0360 C   0  0  0  0  0  0
  -26.4485  -31.6602   25.0734 C   0  0  0  0  0  0
  -25.3720  -31.3734   26.1458 C   0  0  0  0  0  0
  -27.0324  -30.3026   24.6181 C   0  0  0  0  0  0
  -27.6045  -32.4333   25.7510 C   0  0  0  0  0  0
  -27.5582  -37.1801   24.8459 C   0  0  0  0  0  0
  -21.4167  -29.3053   22.3677 N   0  0  0  0  0  0
  -26.4286  -37.3791   23.9417 N   0  0  0  0  0  0
  -24.6821  -31.0668   22.0980 N   0  0  0  0  0  0
  -23.4187  -28.8185   23.3007 O   0  0  0  0  0  0
  -28.3375  -26.5160   20.1620 O   0  0  0  0  0  0
  -26.5617  -34.8925   22.4678 O   0  0  0  0  0  0
  -23.5395  -32.1409   23.7393 O   0  0  0  0  0  0
  -28.1401  -20.7665   21.9552 C   0  0  0  0  0  0
  -28.0088  -19.5702   22.6815 C   0  0  0  0  0  0
  -29.5177  -19.5825   20.3383 C   0  0  0  0  0  0
  -29.4057  -18.3452   21.0689 C   0  0  0  0  0  0
  -28.9038  -20.8125   20.7686 C   0  0  0  0  0  0
  -28.6261  -18.3807   22.2539 C   0  0  0  0  0  0
  -30.0759  -17.0601   20.6051 C   0  0  0  0  0  0
  -29.8507  -15.7625   21.0002 C   0  0  0  0  0  0
  -28.5690  -25.6205   19.1248 C   0  0  0  0  0  0
  -28.7675  -24.2601   19.1332 C   0  0  0  0  0  0
  -28.7461  -23.3563   20.3121 C   0  0  0  0  0  0
  -28.9942  -22.0430   19.9899 N   0  0  0  0  0  0
  -28.5498  -23.7362   21.4683 O   0  0  0  0  0  0
  -28.9913  -23.6844   17.9381 O   0  0  0  0  0  0
  -28.4701  -17.2795   23.0259 F   0  0  0  0  0  0
  -31.4715  -12.4744   19.1488 H   0  0  0  0  0  0
  -30.3408  -11.3662   19.8665 H   0  0  0  0  0  0
  -29.7580  -11.7862   17.4548 H   0  0  0  0  0  0
  -29.6608  -13.5015   17.7612 H   0  0  0  0  0  0
  -27.8372  -11.3151   18.8197 H   0  0  0  0  0  0
  -27.3752  -12.6370   17.7824 H   0  0  0  0  0  0
  -27.6868  -14.2638   19.5627 H   0  0  0  0  0  0
  -28.7019  -11.9898   21.3249 H   0  0  0  0  0  0
  -28.4374  -13.6019   21.8804 H   0  0  0  0  0  0
  -25.2769   -9.5690   22.4741 H   0  0  0  0  0  0
  -24.0008   -7.4648   22.7490 H   0  0  0  0  0  0
  -21.0841   -8.8757   19.8960 H   0  0  0  0  0  0
  -22.3688  -10.9661   19.6153 H   0  0  0  0  0  0
  -21.2008   -7.6147   23.9706 H   0  0  0  0  0  0
  -21.1481   -6.0532   25.9075 H   0  0  0  0  0  0
  -22.0596   -2.7607   23.2861 H   0  0  0  0  0  0
  -22.4134  -11.9873   22.4786 H   0  0  0  0  0  0
  -21.1108  -13.1219   22.2615 H   0  0  0  0  0  0
  -24.6659  -15.8486   20.5344 H   0  0  0  0  0  0
  -26.2934  -15.6331   20.1329 H   0  0  0  0  0  0
  -26.7164  -32.5483   23.1128 H   0  0  0  0  0  0
  -25.0074  -33.9764   25.0447 H   0  0  0  0  0  0
  -22.7083  -31.3067   21.4025 H   0  0  0  0  0  0
  -23.3762  -35.9612   23.3294 H   0  0  0  0  0  0
  -24.3574  -36.8922   22.2050 H   0  0  0  0  0  0
  -23.7215  -37.6486   23.6667 H   0  0  0  0  0  0
  -26.0822  -31.5702   20.6057 H   0  0  0  0  0  0
  -26.8346  -30.8507   22.0006 H   0  0  0  0  0  0
  -28.1098  -29.0149   21.1892 H   0  0  0  0  0  0
  -25.9938  -25.9268   19.0358 H   0  0  0  0  0  0
  -23.9683  -27.3013   19.0284 H   0  0  0  0  0  0
  -23.7438  -30.5973   19.4028 H   0  0  0  0  0  0
  -22.7506  -29.2475   19.8594 H   0  0  0  0  0  0
  -25.1284  -36.1953   25.0823 H   0  0  0  0  0  0
  -20.9986  -28.3290   24.1403 H   0  0  0  0  0  0
  -20.5694  -26.2313   23.3620 H   0  0  0  0  0  0
  -21.6648  -26.7468   22.1204 H   0  0  0  0  0  0
  -19.6925  -25.6304   21.1248 H   0  0  0  0  0  0
  -19.6688  -27.3204   20.6752 H   0  0  0  0  0  0
  -17.4204  -26.6697   21.4024 H   0  0  0  0  0  0
  -18.0326  -26.0077   22.9015 H   0  0  0  0  0  0
  -19.7934  -30.7267   24.2303 H   0  0  0  0  0  0
  -17.5017  -31.6279   24.5173 H   0  0  0  0  0  0
  -15.5356  -30.3012   23.7636 H   0  0  0  0  0  0
  -15.8671  -28.0829   22.7080 H   0  0  0  0  0  0
  -24.5903  -30.7072   25.7789 H   0  0  0  0  0  0
  -24.8900  -32.2893   26.4883 H   0  0  0  0  0  0
  -25.8038  -30.8916   27.0237 H   0  0  0  0  0  0
  -26.2898  -29.6790   24.1187 H   0  0  0  0  0  0
  -27.3997  -29.7269   25.4688 H   0  0  0  0  0  0
  -27.8778  -30.4312   23.9417 H   0  0  0  0  0  0
  -27.2662  -33.3633   26.2092 H   0  0  0  0  0  0
  -28.3861  -32.6888   25.0345 H   0  0  0  0  0  0
  -28.0712  -31.8455   26.5426 H   0  0  0  0  0  0
  -28.2579  -38.0122   24.7549 H   0  0  0  0  0  0
  -28.1101  -36.2653   24.6229 H   0  0  0  0  0  0
  -27.2309  -37.1388   25.8864 H   0  0  0  0  0  0
  -20.9346  -29.8767   21.6879 H   0  0  0  0  0  0
  -26.0169  -38.2859   24.1453 H   0  0  0  0  0  0
  -27.6226  -21.6390   22.3244 H   0  0  0  0  0  0
  -27.4212  -19.5611   23.5872 H   0  0  0  0  0  0
  -30.0940  -19.5860   19.4246 H   0  0  0  0  0  0
  -30.8581  -17.2152   19.8745 H   0  0  0  0  0  0
  -29.0692  -15.5769   21.7134 H   0  0  0  0  0  0
  -28.5915  -26.1673   18.1914 H   0  0  0  0  0  0
  -29.2365  -21.9394   19.0119 H   0  0  0  0  0  0
  -28.9651  -24.3676   17.2801 H   0  0  0  0  0  0
  1 25  1  0  0  0
  1 30  2  0  0  0
  1 78  1  0  0  0
  2  3  1  0  0  0
  2 25  1  0  0  0
  2 86  1  0  0  0
  2 87  1  0  0  0
  3  4  1  0  0  0
  3 88  1  0  0  0
  3 89  1  0  0  0
  4  5  1  0  0  0
  4 90  1  0  0  0
  4 91  1  0  0  0
  5  6  1  0  0  0
  5 26  1  0  0  0
  5 92  1  0  0  0
  6 25  1  0  0  0
  6 93  1  0  0  0
  6 94  1  0  0  0
  7  8  2  0  0  0
  7 26  1  0  0  0
  7 29  1  0  0  0
  8  9  1  0  0  0
  8 22  1  0  0  0
  9 10  1  0  0  0
  9 27  2  0  0  0
 10 11  2  0  0  0
 10 15  1  0  0  0
 11 12  1  0  0  0
 11 95  1  0  0  0
 12 13  2  0  0  0
 12 96  1  0  0  0
 13 14  1  0  0  0
 13 31  1  0  0  0
 14 15  2  0  0  0
 14 97  1  0  0  0
 15 98  1  0  0  0
 16 17  2  0  0  0
 16 21  1  0  0  0
 16 31  1  0  0  0
 17 18  1  0  0  0
 17 99  1  0  0  0
 18 19  2  0  0  0
 18100  1  0  0  0
 19 20  1  0  0  0
 19 24  1  0  0  0
 20 21  2  0  0  0
 20101  1  0  0  0
 21 23  1  0  0  0
 22 28  1  0  0  0
 22 32  2  0  0  0
 26 27  1  0  0  0
 28102  1  0  0  0
 28103  1  0  0  0
 29104  1  0  0  0
 29105  1  0  0  0
 33 34  1  0  0  0
 33 66  1  0  0  0
 33 70  2  0  0  0
 34 36  1  0  0  0
 34 59  1  0  0  0
 34106  1  0  0  0
 35 44  2  0  0  0
 35 45  1  0  0  0
 35 68  1  0  0  0
 36 56  1  0  0  0
 36107  1  0  0  0
 37 39  1  0  0  0
 37 47  1  0  0  0
 37 66  1  0  0  0
 37108  1  0  0  0
 38 43  2  0  0  0
 38 46  1  0  0  0
 38 47  1  0  0  0
 39 64  1  0  0  0
 39 67  2  0  0  0
 40 52  1  0  0  0
 40 53  2  0  0  0
 40 58  1  0  0  0
 41109  1  0  0  0
 41110  1  0  0  0
 41111  1  0  0  0
 41 48  1  0  0  0
 42 43  1  0  0  0
 42 66  1  0  0  0
 42112  1  0  0  0
 42113  1  0  0  0
 43 44  1  0  0  0
 44114  1  0  0  0
 45 46  2  0  0  0
 45115  1  0  0  0
 46116  1  0  0  0
 47117  1  0  0  0
 47118  1  0  0  0
 48 56  1  0  0  0
 48 65  1  0  0  0
 48119  1  0  0  0
 49 50  1  0  0  0
 49 53  1  0  0  0
 49 64  1  0  0  0
 49120  1  0  0  0
 50 51  1  0  0  0
 50121  1  0  0  0
 50122  1  0  0  0
 51 52  1  0  0  0
 51123  1  0  0  0
 51124  1  0  0  0
 52125  1  0  0  0
 52126  1  0  0  0
 53 54  1  0  0  0
 54 55  2  0  0  0
 54127  1  0  0  0
 55 57  1  0  0  0
 55128  1  0  0  0
 56 69  2  0  0  0
 57 58  2  0  0  0
 57129  1  0  0  0
 58130  1  0  0  0
 59 60  1  0  0  0
 59 61  1  0  0  0
 59 62  1  0  0  0
 60131  1  0  0  0
 60132  1  0  0  0
 60133  1  0  0  0
 61134  1  0  0  0
 61135  1  0  0  0
 61136  1  0  0  0
 62137  1  0  0  0
 62138  1  0  0  0
 62139  1  0  0  0
 63 65  1  0  0  0
 63140  1  0  0  0
 63141  1  0  0  0
 63142  1  0  0  0
 64143  1  0  0  0
 65144  1  0  0  0
 68 79  1  0  0  0
 71 72  2  0  0  0
 71 75  1  0  0  0
 71145  1  0  0  0
 72 76  1  0  0  0
 72146  1  0  0  0
 73 74  1  0  0  0
 73 75  2  0  0  0
 73147  1  0  0  0
 74 76  2  0  0  0
 74 77  1  0  0  0
 75 82  1  0  0  0
 76 85  1  0  0  0
 77 78  2  0  0  0
 77148  1  0  0  0
 78149  1  0  0  0
 79 80  2  0  0  0
 79150  1  0  0  0
 80 81  1  0  0  0
 80 84  1  0  0  0
 81 82  1  0  0  0
 81 83  2  0  0  0
 82151  1  0  0  0
 84152  1  0  0  0
M  ISO  4   1 100  68 101  78 100  79 101
M  END
> <chiral flag>
0

> <version>
0

> <s_m_source_file>
/data/baiqing/PycharmProjects/Reinvent-master-3.2/result/LINK_invent/BTK/process_docking_weight1_custom_product_contain_oxygen_bond_distance_aromatic_linkinvent_7_9_3/rearranged_h_0073.sdf

> <i_m_source_file_index>
80

> <r_mmod_Potential_Energy-OPLS-2005>
14.8326539993286

> <r_mmod_Stretch_Energy-OPLS-2005>
69.6163940429688

> <r_mmod_Bend_Energy-OPLS-2005>
133.650039672852

> <r_mmod_Torsional_Energy-OPLS-2005>
187.248352050781

> <r_mmod_Improper_Torsional_Energy-OPLS-2005>
3.35497260093689

> <r_mmod_Van_der_Waal_Energy-OPLS-2005>
161.703430175781

> <r_mmod_Electrostatic_Energy-OPLS-2005>
-355.514007568359

> <r_mmod_Solvation_Energy-OPLS-2005>
-220.590103149414

> <b_mmod_Minimization_Converged-OPLS-2005>
0

> <r_mmod_RMS_Derivative-OPLS-2005>
1.27337026596069

$$$$
80
                    3D
 Structure written by MMmdl.
166175  0  0  1  0            999 V2000
  -30.6069  -14.8271   20.4233 C   0  0  0  0  0  0
  -30.4310  -12.5031   19.4950 C   0  0  0  0  0  0
  -29.5167  -12.5172   18.2502 C   0  0  0  0  0  0
  -28.0443  -12.3326   18.6621 C   0  0  0  0  0  0
  -27.6370  -13.2474   19.8480 C   0  0  2  0  0  0
  -28.6816  -13.2306   20.9863 C   0  0  0  0  0  0
  -25.2446  -13.8169   20.5674 C   0  0  0  0  0  0
  -24.1773  -13.0403   20.9206 C   0  0  0  0  0  0
  -24.6408  -11.6903   20.8751 C   0  0  0  0  0  0
  -23.9092  -10.4279   21.0407 C   0  0  0  0  0  0
  -24.3636   -9.4194   21.9184 C   0  0  0  0  0  0
  -23.6303   -8.2236   22.0752 C   0  0  0  0  0  0
  -22.4281   -8.0283   21.3547 C   0  0  0  0  0  0
  -21.9924   -9.0259   20.4647 C   0  0  0  0  0  0
  -22.7264  -10.2131   20.3055 C   0  0  0  0  0  0
  -21.6853   -6.0742   22.5284 C   0  0  0  0  0  0
  -21.4016   -6.5642   23.8218 C   0  0  0  0  0  0
  -21.3655   -5.6793   24.9178 C   0  0  0  0  0  0
  -21.6044   -4.3056   24.7228 C   0  0  0  0  0  0
  -21.8820   -3.8153   23.4345 C   0  0  0  0  0  0
  -21.9192   -4.6970   22.3402 C   0  0  0  0  0  0
  -22.7797  -13.5187   21.1878 C   0  0  0  0  0  0
  -22.1663   -4.2159   21.0979 F   0  0  0  0  0  0
  -21.5624   -3.4536   25.7735 F   0  0  0  0  0  0
  -29.9778  -13.5932   20.3993 N   0  0  0  0  0  0
  -26.2926  -12.9446   20.3293 N   0  0  0  0  0  0
  -25.9352  -11.6567   20.5770 N   0  0  0  0  0  0
  -22.0451  -12.8179   22.0445 N   0  0  0  0  0  0
  -25.3964  -15.1874   20.4064 N   0  0  0  0  0  0
  -31.8030  -14.8719   20.1232 O   0  0  0  0  0  0
  -21.6636   -6.8888   21.4246 O   0  0  0  0  0  0
  -22.3473  -14.5497   20.6736 O   0  0  0  0  0  0
  -24.6370  -31.8506   23.1945 C   0  0  0  0  0  0
  -25.9172  -32.4729   23.8312 C   0  0  1  0  0  0
  -27.2227  -27.2171   20.1388 C   0  0  0  0  0  0
  -25.5950  -33.8532   24.2234 N   0  0  0  0  0  0
  -23.4381  -30.4713   21.5377 C   0  0  2  0  0  0
  -24.8906  -28.9128   20.1083 C   0  0  0  0  0  0
  -22.7539  -29.4574   22.4879 C   0  0  0  0  0  0
  -18.0302  -28.1393   22.8478 C   0  0  0  0  0  0
  -24.1490  -36.7266   23.2639 C   0  0  0  0  0  0
  -25.9884  -30.7493   21.3836 C   0  0  0  0  0  0
  -26.0647  -29.3678   20.7251 C   0  0  0  0  0  0
  -27.2366  -28.5322   20.7311 C   0  0  0  0  0  0
  -26.0297  -26.8463   19.4849 C   0  0  0  0  0  0
  -24.8804  -27.6612   19.4747 C   0  0  0  0  0  0
  -23.6619  -29.8041   20.1549 C   0  0  0  0  0  0
  -25.4116  -36.3051   24.0324 C   0  0  1  0  0  0
  -20.5910  -28.3711   23.1251 C   0  0  2  0  0  0
  -20.6784  -26.9420   22.5403 C   0  0  0  0  0  0
  -19.5758  -26.6384   21.5210 C   0  0  0  0  0  0
  -18.1942  -26.7931   22.1625 C   0  0  0  0  0  0
  -19.1556  -28.8871   23.2856 C   0  0  0  0  0  0
  -18.9476  -30.1469   23.8878 C   0  0  0  0  0  0
  -17.6471  -30.6590   24.0559 C   0  0  0  0  0  0
  -25.9063  -34.9423   23.5081 C   0  0  0  0  0  0
  -16.5362  -29.9081   23.6336 C   0  0  0  0  0  0
  -16.7286  -28.6503   23.0352 C   0  0  0  0  0  0
  -26.4518  -31.6568   25.0721 C   0  0  0  0  0  0
  -25.3726  -31.3749   26.1437 C   0  0  0  0  0  0
  -27.0361  -30.2969   24.6249 C   0  0  0  0  0  0
  -27.6067  -32.4313   25.7493 C   0  0  0  0  0  0
  -27.5580  -37.1781   24.8458 C   0  0  0  0  0  0
  -21.4238  -29.3046   22.3628 N   0  0  0  0  0  0
  -26.4281  -37.3760   23.9418 N   0  0  0  0  0  0
  -24.7068  -31.0428   22.0944 N   0  0  0  0  0  0
  -23.4209  -28.8120   23.3007 O   0  0  0  0  0  0
  -28.2440  -26.2241   20.1928 O   0  0  0  0  0  0
  -26.5631  -34.8909   22.4648 O   0  0  0  0  0  0
  -23.5505  -32.1354   23.7206 O   0  0  0  0  0  0
  -31.1965  -18.8921   18.4862 C   0  0  0  0  0  0
  -30.5785  -20.0562   18.9837 C   0  0  0  0  0  0
  -30.9629  -17.6195   19.0427 C   0  0  0  0  0  0
  -29.4784  -18.6721   20.6530 C   0  0  0  0  0  0
  -29.6877  -20.0211   20.0805 C   0  0  0  0  0  0
  -30.1027  -17.4285   20.1475 C   0  0  0  0  0  0
  -27.3750  -18.1408   21.7611 C   0  0  0  0  0  0
  -28.2157  -23.6297   20.8753 C   0  0  0  0  0  0
  -27.9014  -25.0048   20.8724 C   0  0  0  0  0  0
  -29.1029  -22.6595   20.1278 C   0  0  0  0  0  0
  -27.8324  -18.8790   23.9878 C   0  0  0  0  0  0
  -29.0983  -18.9012   23.1218 C   0  0  0  0  0  0
  -26.7672  -18.1236   23.1670 C   0  0  0  0  0  0
  -25.4038  -18.8419   23.1977 C   0  0  0  0  0  0
  -26.6142  -16.6683   23.6534 C   0  0  0  0  0  0
  -28.6397  -18.5709   21.7846 N   0  0  0  0  0  0
  -29.0377  -21.3102   20.5436 N   0  0  0  0  0  0
  -29.8681  -16.0081   20.6230 N   0  0  0  0  0  0
  -26.7539  -17.8019   20.7512 O   0  0  0  0  0  0
  -29.8393  -23.0270   19.2116 O   0  0  0  0  0  0
  -31.4729  -12.6194   19.1919 H   0  0  0  0  0  0
  -30.3774  -11.5389   20.0029 H   0  0  0  0  0  0
  -29.8122  -11.7311   17.5537 H   0  0  0  0  0  0
  -29.6356  -13.4610   17.7159 H   0  0  0  0  0  0
  -27.9130  -11.2868   18.9424 H   0  0  0  0  0  0
  -27.3874  -12.5033   17.8084 H   0  0  0  0  0  0
  -27.6136  -14.2612   19.4466 H   0  0  0  0  0  0
  -28.7322  -12.2473   21.4558 H   0  0  0  0  0  0
  -28.4033  -13.9332   21.7733 H   0  0  0  0  0  0
  -25.2781   -9.5670   22.4759 H   0  0  0  0  0  0
  -24.0014   -7.4623   22.7466 H   0  0  0  0  0  0
  -21.0857   -8.8790   19.8951 H   0  0  0  0  0  0
  -22.3731  -10.9676   19.6166 H   0  0  0  0  0  0
  -21.2011   -7.6150   23.9727 H   0  0  0  0  0  0
  -21.1470   -6.0519   25.9082 H   0  0  0  0  0  0
  -22.0599   -2.7617   23.2840 H   0  0  0  0  0  0
  -22.4064  -11.9841   22.4835 H   0  0  0  0  0  0
  -21.1069  -13.1205   22.2649 H   0  0  0  0  0  0
  -24.6226  -15.8248   20.5546 H   0  0  0  0  0  0
  -26.2472  -15.6834   20.1675 H   0  0  0  0  0  0
  -26.7236  -32.5371   23.1048 H   0  0  0  0  0  0
  -25.0102  -33.9659   25.0384 H   0  0  0  0  0  0
  -22.7368  -31.2947   21.3869 H   0  0  0  0  0  0
  -23.3758  -35.9592   23.3283 H   0  0  0  0  0  0
  -24.3590  -36.8908   22.2057 H   0  0  0  0  0  0
  -23.7234  -37.6458   23.6673 H   0  0  0  0  0  0
  -26.1332  -31.5085   20.6137 H   0  0  0  0  0  0
  -26.8624  -30.7998   22.0209 H   0  0  0  0  0  0
  -28.1300  -28.8675   21.2385 H   0  0  0  0  0  0
  -25.9741  -25.8770   19.0094 H   0  0  0  0  0  0
  -23.9836  -27.3056   18.9858 H   0  0  0  0  0  0
  -23.7910  -30.5796   19.3991 H   0  0  0  0  0  0
  -22.7799  -29.2398   19.8470 H   0  0  0  0  0  0
  -25.1295  -36.1884   25.0815 H   0  0  0  0  0  0
  -21.0006  -28.3297   24.1369 H   0  0  0  0  0  0
  -20.5679  -26.2324   23.3618 H   0  0  0  0  0  0
  -21.6653  -26.7431   22.1208 H   0  0  0  0  0  0
  -19.6918  -25.6290   21.1251 H   0  0  0  0  0  0
  -19.6697  -27.3182   20.6729 H   0  0  0  0  0  0
  -17.4211  -26.6680   21.4024 H   0  0  0  0  0  0
  -18.0339  -26.0078   22.9028 H   0  0  0  0  0  0
  -19.7953  -30.7289   24.2239 H   0  0  0  0  0  0
  -17.5027  -31.6269   24.5162 H   0  0  0  0  0  0
  -15.5359  -30.2973   23.7671 H   0  0  0  0  0  0
  -15.8691  -28.0811   22.7071 H   0  0  0  0  0  0
  -24.5892  -30.7106   25.7768 H   0  0  0  0  0  0
  -24.8931  -32.2933   26.4835 H   0  0  0  0  0  0
  -25.8036  -30.8942   27.0229 H   0  0  0  0  0  0
  -26.2955  -29.6709   24.1256 H   0  0  0  0  0  0
  -27.3989  -29.7246   25.4796 H   0  0  0  0  0  0
  -27.8860  -30.4209   23.9535 H   0  0  0  0  0  0
  -27.2677  -33.3627   26.2040 H   0  0  0  0  0  0
  -28.3893  -32.6853   25.0329 H   0  0  0  0  0  0
  -28.0715  -31.8455   26.5434 H   0  0  0  0  0  0
  -28.2569  -38.0105   24.7542 H   0  0  0  0  0  0
  -28.1103  -36.2638   24.6229 H   0  0  0  0  0  0
  -27.2313  -37.1371   25.8863 H   0  0  0  0  0  0
  -20.9434  -29.8765   21.6822 H   0  0  0  0  0  0
  -26.0152  -38.2822   24.1448 H   0  0  0  0  0  0
  -31.8626  -18.9759   17.6387 H   0  0  0  0  0  0
  -30.8121  -20.9818   18.4821 H   0  0  0  0  0  0
  -31.4564  -16.7803   18.5745 H   0  0  0  0  0  0
  -27.6449  -23.1211   21.6384 H   0  0  0  0  0  0
  -27.1657  -25.2683   21.6216 H   0  0  0  0  0  0
  -27.5124  -19.9038   24.1838 H   0  0  0  0  0  0
  -28.0232  -18.4194   24.9584 H   0  0  0  0  0  0
  -29.8091  -18.1415   23.4505 H   0  0  0  0  0  0
  -29.5996  -19.8692   23.1525 H   0  0  0  0  0  0
  -25.4707  -19.8491   22.7836 H   0  0  0  0  0  0
  -25.0279  -18.9297   24.2175 H   0  0  0  0  0  0
  -24.6556  -18.2997   22.6176 H   0  0  0  0  0  0
  -27.5572  -16.1222   23.5980 H   0  0  0  0  0  0
  -25.8846  -16.1215   23.0551 H   0  0  0  0  0  0
  -26.2769  -16.6329   24.6897 H   0  0  0  0  0  0
  -28.4006  -21.1838   21.3161 H   0  0  0  0  0  0
  -28.9560  -15.8435   21.0193 H   0  0  0  0  0  0
  1 25  1  0  0  0
  1 30  2  0  0  0
  1 88  1  0  0  0
  2  3  1  0  0  0
  2 25  1  0  0  0
  2 91  1  0  0  0
  2 92  1  0  0  0
  3  4  1  0  0  0
  3 93  1  0  0  0
  3 94  1  0  0  0
  4  5  1  0  0  0
  4 95  1  0  0  0
  4 96  1  0  0  0
  5  6  1  0  0  0
  5 26  1  0  0  0
  5 97  1  0  0  0
  6 25  1  0  0  0
  6 98  1  0  0  0
  6 99  1  0  0  0
  7  8  2  0  0  0
  7 26  1  0  0  0
  7 29  1  0  0  0
  8  9  1  0  0  0
  8 22  1  0  0  0
  9 10  1  0  0  0
  9 27  2  0  0  0
 10 11  2  0  0  0
 10 15  1  0  0  0
 11 12  1  0  0  0
 11100  1  0  0  0
 12 13  2  0  0  0
 12101  1  0  0  0
 13 14  1  0  0  0
 13 31  1  0  0  0
 14 15  2  0  0  0
 14102  1  0  0  0
 15103  1  0  0  0
 16 17  2  0  0  0
 16 21  1  0  0  0
 16 31  1  0  0  0
 17 18  1  0  0  0
 17104  1  0  0  0
 18 19  2  0  0  0
 18105  1  0  0  0
 19 20  1  0  0  0
 19 24  1  0  0  0
 20 21  2  0  0  0
 20106  1  0  0  0
 21 23  1  0  0  0
 22 28  1  0  0  0
 22 32  2  0  0  0
 26 27  1  0  0  0
 28107  1  0  0  0
 28108  1  0  0  0
 29109  1  0  0  0
 29110  1  0  0  0
 33 34  1  0  0  0
 33 66  1  0  0  0
 33 70  2  0  0  0
 34 36  1  0  0  0
 34 59  1  0  0  0
 34111  1  0  0  0
 35 44  2  0  0  0
 35 45  1  0  0  0
 35 68  1  0  0  0
 36 56  1  0  0  0
 36112  1  0  0  0
 37 39  1  0  0  0
 37 47  1  0  0  0
 37 66  1  0  0  0
 37113  1  0  0  0
 38 43  2  0  0  0
 38 46  1  0  0  0
 38 47  1  0  0  0
 39 64  1  0  0  0
 39 67  2  0  0  0
 40 52  1  0  0  0
 40 53  2  0  0  0
 40 58  1  0  0  0
 41114  1  0  0  0
 41115  1  0  0  0
 41116  1  0  0  0
 41 48  1  0  0  0
 42 43  1  0  0  0
 42 66  1  0  0  0
 42117  1  0  0  0
 42118  1  0  0  0
 43 44  1  0  0  0
 44119  1  0  0  0
 45 46  2  0  0  0
 45120  1  0  0  0
 46121  1  0  0  0
 47122  1  0  0  0
 47123  1  0  0  0
 48 56  1  0  0  0
 48 65  1  0  0  0
 48124  1  0  0  0
 49 50  1  0  0  0
 49 53  1  0  0  0
 49 64  1  0  0  0
 49125  1  0  0  0
 50 51  1  0  0  0
 50126  1  0  0  0
 50127  1  0  0  0
 51 52  1  0  0  0
 51128  1  0  0  0
 51129  1  0  0  0
 52130  1  0  0  0
 52131  1  0  0  0
 53 54  1  0  0  0
 54 55  2  0  0  0
 54132  1  0  0  0
 55 57  1  0  0  0
 55133  1  0  0  0
 56 69  2  0  0  0
 57 58  2  0  0  0
 57134  1  0  0  0
 58135  1  0  0  0
 59 60  1  0  0  0
 59 61  1  0  0  0
 59 62  1  0  0  0
 60136  1  0  0  0
 60137  1  0  0  0
 60138  1  0  0  0
 61139  1  0  0  0
 61140  1  0  0  0
 61141  1  0  0  0
 62142  1  0  0  0
 62143  1  0  0  0
 62144  1  0  0  0
 63 65  1  0  0  0
 63145  1  0  0  0
 63146  1  0  0  0
 63147  1  0  0  0
 64148  1  0  0  0
 65149  1  0  0  0
 68 79  1  0  0  0
 71 72  2  0  0  0
 71 73  1  0  0  0
 71150  1  0  0  0
 72 75  1  0  0  0
 72151  1  0  0  0
 73 76  2  0  0  0
 73152  1  0  0  0
 74 75  2  0  0  0
 74 76  1  0  0  0
 74 86  1  0  0  0
 75 87  1  0  0  0
 76 88  1  0  0  0
 77 83  1  0  0  0
 77 86  1  0  0  0
 77 89  2  0  0  0
 78 79  2  0  0  0
 78 80  1  0  0  0
 78153  1  0  0  0
 79154  1  0  0  0
 80 87  1  0  0  0
 80 90  2  0  0  0
 81 82  1  0  0  0
 81 83  1  0  0  0
 81155  1  0  0  0
 81156  1  0  0  0
 82 86  1  0  0  0
 82157  1  0  0  0
 82158  1  0  0  0
 83 84  1  0  0  0
 83 85  1  0  0  0
 84159  1  0  0  0
 84160  1  0  0  0
 84161  1  0  0  0
 85162  1  0  0  0
 85163  1  0  0  0
 85164  1  0  0  0
 87165  1  0  0  0
 88166  1  0  0  0
M  ISO  4   1 100  68 101  79 101  88 100
M  END
> <chiral flag>
0

> <version>
0

> <s_m_source_file>
/data/baiqing/PycharmProjects/Reinvent-master-3.2/result/LINK_invent/BTK/process_docking_weight1_custom_product_contain_oxygen_bond_distance_aromatic_linkinvent_7_9_3/rearranged_h_0073.sdf

> <i_m_source_file_index>
81

> <r_mmod_Potential_Energy-OPLS-2005>
380.352996826172

> <r_mmod_Stretch_Energy-OPLS-2005>
168.587753295898

> <r_mmod_Bend_Energy-OPLS-2005>
270.083770751953

> <r_mmod_Torsional_Energy-OPLS-2005>
328.583038330078

> <r_mmod_Improper_Torsional_Energy-OPLS-2005>
3.88354063034058

> <r_mmod_Van_der_Waal_Energy-OPLS-2005>
123.118316650391

> <r_mmod_Electrostatic_Energy-OPLS-2005>
-408.065216064453

> <r_mmod_Solvation_Energy-OPLS-2005>
-234.299560546875

> <b_mmod_Minimization_Converged-OPLS-2005>
0

> <r_mmod_RMS_Derivative-OPLS-2005>
0.68782103061676

$$$$
81
                    3D
 Structure written by MMmdl.
159168  0  0  1  0            999 V2000
  -30.6185  -14.7675   20.4320 C   0  0  0  0  0  0
  -30.4182  -12.4634   19.4830 C   0  0  0  0  0  0
  -29.5049  -12.5015   18.2403 C   0  0  0  0  0  0
  -28.0329  -12.3215   18.6547 C   0  0  0  0  0  0
  -27.6339  -13.2347   19.8455 C   0  0  2  0  0  0
  -28.6766  -13.2016   20.9835 C   0  0  0  0  0  0
  -25.2470  -13.8202   20.5695 C   0  0  0  0  0  0
  -24.1775  -13.0442   20.9215 C   0  0  0  0  0  0
  -24.6367  -11.6920   20.8750 C   0  0  0  0  0  0
  -23.9042  -10.4294   21.0405 C   0  0  0  0  0  0
  -24.3599   -9.4210   21.9182 C   0  0  0  0  0  0
  -23.6281   -8.2246   22.0757 C   0  0  0  0  0  0
  -22.4268   -8.0269   21.3539 C   0  0  0  0  0  0
  -21.9896   -9.0237   20.4637 C   0  0  0  0  0  0
  -22.7217  -10.2123   20.3046 C   0  0  0  0  0  0
  -21.6857   -6.0713   22.5267 C   0  0  0  0  0  0
  -21.4017   -6.5624   23.8195 C   0  0  0  0  0  0
  -21.3660   -5.6782   24.9164 C   0  0  0  0  0  0
  -21.6048   -4.3043   24.7221 C   0  0  0  0  0  0
  -21.8819   -3.8126   23.4347 C   0  0  0  0  0  0
  -21.9198   -4.6944   22.3400 C   0  0  0  0  0  0
  -22.7801  -13.5224   21.1856 C   0  0  0  0  0  0
  -22.1662   -4.2121   21.0981 F   0  0  0  0  0  0
  -21.5631   -3.4538   25.7743 F   0  0  0  0  0  0
  -29.9732  -13.5487   20.3929 N   0  0  0  0  0  0
  -26.2888  -12.9410   20.3267 N   0  0  0  0  0  0
  -25.9296  -11.6552   20.5758 N   0  0  0  0  0  0
  -22.0450  -12.8213   22.0414 N   0  0  0  0  0  0
  -25.4155  -15.1921   20.4089 N   0  0  0  0  0  0
  -31.8174  -14.7821   20.1471 O   0  0  0  0  0  0
  -21.6645   -6.8861   21.4226 O   0  0  0  0  0  0
  -22.3494  -14.5535   20.6702 O   0  0  0  0  0  0
  -24.6364  -31.8509   23.1965 C   0  0  0  0  0  0
  -25.9177  -32.4722   23.8320 C   0  0  1  0  0  0
  -27.2087  -27.2323   20.1198 C   0  0  0  0  0  0
  -25.5960  -33.8535   24.2246 N   0  0  0  0  0  0
  -23.4332  -30.4773   21.5392 C   0  0  2  0  0  0
  -24.8736  -28.9223   20.1048 C   0  0  0  0  0  0
  -22.7534  -29.4589   22.4875 C   0  0  0  0  0  0
  -18.0296  -28.1398   22.8464 C   0  0  0  0  0  0
  -24.1483  -36.7266   23.2643 C   0  0  0  0  0  0
  -25.9817  -30.7528   21.3812 C   0  0  0  0  0  0
  -26.0472  -29.3760   20.7179 C   0  0  0  0  0  0
  -27.2127  -28.5427   20.7163 C   0  0  0  0  0  0
  -26.0022  -26.8452   19.4924 C   0  0  0  0  0  0
  -24.8584  -27.6664   19.4820 C   0  0  0  0  0  0
  -23.6505  -29.8160   20.1531 C   0  0  0  0  0  0
  -25.4110  -36.3064   24.0331 C   0  0  1  0  0  0
  -20.5905  -28.3716   23.1228 C   0  0  2  0  0  0
  -20.6781  -26.9432   22.5378 C   0  0  0  0  0  0
  -19.5750  -26.6394   21.5195 C   0  0  0  0  0  0
  -18.1932  -26.7936   22.1605 C   0  0  0  0  0  0
  -19.1553  -28.8874   23.2842 C   0  0  0  0  0  0
  -18.9478  -30.1466   23.8878 C   0  0  0  0  0  0
  -17.6480  -30.6593   24.0568 C   0  0  0  0  0  0
  -25.9062  -34.9432   23.5089 C   0  0  0  0  0  0
  -16.5367  -29.9092   23.6342 C   0  0  0  0  0  0
  -16.7285  -28.6509   23.0359 C   0  0  0  0  0  0
  -26.4525  -31.6570   25.0735 C   0  0  0  0  0  0
  -25.3732  -31.3724   26.1441 C   0  0  0  0  0  0
  -27.0403  -30.2987   24.6261 C   0  0  0  0  0  0
  -27.6070  -32.4335   25.7506 C   0  0  0  0  0  0
  -27.5585  -37.1775   24.8460 C   0  0  0  0  0  0
  -21.4237  -29.3057   22.3621 N   0  0  0  0  0  0
  -26.4274  -37.3782   23.9437 N   0  0  0  0  0  0
  -24.7034  -31.0468   22.0943 N   0  0  0  0  0  0
  -23.4212  -28.8127   23.2993 O   0  0  0  0  0  0
  -28.3052  -26.3364   20.2112 O   0  0  0  0  0  0
  -26.5649  -34.8921   22.4667 O   0  0  0  0  0  0
  -23.5506  -32.1337   23.7239 O   0  0  0  0  0  0
  -31.9704  -19.0462   19.7381 C   0  0  0  0  0  0
  -31.0821  -20.1229   19.8530 C   0  0  0  0  0  0
  -31.5609  -17.7294   19.9926 C   0  0  0  0  0  0
  -29.3177  -18.5501   20.4785 C   0  0  0  0  0  0
  -29.7336  -19.9446   20.2285 C   0  0  0  0  0  0
  -30.2330  -17.3993   20.3640 C   0  0  0  0  0  0
  -28.4729  -23.5730   20.1859 C   0  0  0  0  0  0
  -28.0956  -23.1611   21.4043 C   0  0  0  0  0  0
  -29.0031  -22.3389   19.5275 C   0  0  0  0  0  0
  -28.3502  -21.6699   21.6240 C   0  0  0  0  0  0
  -27.8681  -18.2689   20.8347 C   0  0  0  0  0  0
  -27.4604  -23.9880   22.5028 C   0  0  0  0  0  0
  -28.3862  -25.0151   19.4809 C   0  0  0  0  0  0
  -28.9594  -21.2271   20.3635 N   0  0  0  0  0  0
  -29.8783  -15.9502   20.5879 N   0  0  0  0  0  0
  -29.4060  -22.2897   18.3600 O   0  0  0  0  0  0
  -31.4610  -12.5684   19.1810 H   0  0  0  0  0  0
  -30.3522  -11.4952   19.9828 H   0  0  0  0  0  0
  -29.7939  -11.7217   17.5348 H   0  0  0  0  0  0
  -29.6268  -13.4514   17.7173 H   0  0  0  0  0  0
  -27.8984  -11.2753   18.9324 H   0  0  0  0  0  0
  -27.3729  -12.4960   17.8046 H   0  0  0  0  0  0
  -27.6191  -14.2493   19.4482 H   0  0  0  0  0  0
  -28.7188  -12.2154   21.4485 H   0  0  0  0  0  0
  -28.4081  -13.9048   21.7741 H   0  0  0  0  0  0
  -25.2741   -9.5707   22.4757 H   0  0  0  0  0  0
  -23.9982   -7.4652   22.7488 H   0  0  0  0  0  0
  -21.0825   -8.8732   19.8953 H   0  0  0  0  0  0
  -22.3648  -10.9649   19.6148 H   0  0  0  0  0  0
  -21.2003   -7.6132   23.9689 H   0  0  0  0  0  0
  -21.1487   -6.0520   25.9065 H   0  0  0  0  0  0
  -22.0605   -2.7591   23.2860 H   0  0  0  0  0  0
  -22.4062  -11.9856   22.4782 H   0  0  0  0  0  0
  -21.1062  -13.1226   22.2619 H   0  0  0  0  0  0
  -24.6413  -15.8397   20.5066 H   0  0  0  0  0  0
  -26.2442  -15.6219   20.0211 H   0  0  0  0  0  0
  -26.7238  -32.5328   23.1051 H   0  0  0  0  0  0
  -25.0150  -33.9659   25.0421 H   0  0  0  0  0  0
  -22.7334  -31.3022   21.3925 H   0  0  0  0  0  0
  -23.3781  -35.9562   23.3264 H   0  0  0  0  0  0
  -24.3607  -36.8940   22.2075 H   0  0  0  0  0  0
  -23.7174  -37.6430   23.6681 H   0  0  0  0  0  0
  -26.1386  -31.5142   20.6156 H   0  0  0  0  0  0
  -26.8549  -30.7881   22.0217 H   0  0  0  0  0  0
  -28.1096  -28.8821   21.2143 H   0  0  0  0  0  0
  -25.8831  -25.8752   19.0374 H   0  0  0  0  0  0
  -23.9558  -27.3082   19.0064 H   0  0  0  0  0  0
  -23.7847  -30.5928   19.3994 H   0  0  0  0  0  0
  -22.7635  -29.2606   19.8414 H   0  0  0  0  0  0
  -25.1283  -36.1910   25.0821 H   0  0  0  0  0  0
  -20.9986  -28.3292   24.1353 H   0  0  0  0  0  0
  -20.5682  -26.2346   23.3601 H   0  0  0  0  0  0
  -21.6643  -26.7455   22.1162 H   0  0  0  0  0  0
  -19.6923  -25.6310   21.1220 H   0  0  0  0  0  0
  -19.6666  -27.3206   20.6732 H   0  0  0  0  0  0
  -17.4200  -26.6695   21.4004 H   0  0  0  0  0  0
  -18.0321  -26.0077   22.8997 H   0  0  0  0  0  0
  -19.7964  -30.7275   24.2233 H   0  0  0  0  0  0
  -17.5045  -31.6262   24.5194 H   0  0  0  0  0  0
  -15.5368  -30.3000   23.7683 H   0  0  0  0  0  0
  -15.8679  -28.0828   22.7101 H   0  0  0  0  0  0
  -24.5916  -30.7068   25.7757 H   0  0  0  0  0  0
  -24.8919  -32.2892   26.4848 H   0  0  0  0  0  0
  -25.8030  -30.8905   27.0232 H   0  0  0  0  0  0
  -26.3004  -29.6698   24.1289 H   0  0  0  0  0  0
  -27.4097  -29.7286   25.4801 H   0  0  0  0  0  0
  -27.8870  -30.4294   23.9520 H   0  0  0  0  0  0
  -27.2679  -33.3664   26.2026 H   0  0  0  0  0  0
  -28.3891  -32.6853   25.0330 H   0  0  0  0  0  0
  -28.0718  -31.8502   26.5468 H   0  0  0  0  0  0
  -28.2542  -38.0138   24.7627 H   0  0  0  0  0  0
  -28.1142  -36.2678   24.6123 H   0  0  0  0  0  0
  -27.2335  -37.1238   25.8869 H   0  0  0  0  0  0
  -20.9453  -29.8814   21.6837 H   0  0  0  0  0  0
  -26.0150  -38.2845   24.1493 H   0  0  0  0  0  0
  -32.9966  -19.2375   19.4552 H   0  0  0  0  0  0
  -31.4723  -21.1137   19.6651 H   0  0  0  0  0  0
  -32.3330  -16.9884   19.8785 H   0  0  0  0  0  0
  -27.4147  -21.1462   21.8214 H   0  0  0  0  0  0
  -29.0303  -21.5079   22.4616 H   0  0  0  0  0  0
  -27.2251  -19.1169   20.6045 H   0  0  0  0  0  0
  -27.7689  -18.0393   21.8958 H   0  0  0  0  0  0
  -27.4902  -17.4215   20.2619 H   0  0  0  0  0  0
  -27.2873  -25.0149   22.1848 H   0  0  0  0  0  0
  -28.1071  -24.0101   23.3794 H   0  0  0  0  0  0
  -26.5025  -23.5555   22.7938 H   0  0  0  0  0  0
  -27.6560  -24.9394   18.6807 H   0  0  0  0  0  0
  -29.3279  -25.0980   18.9367 H   0  0  0  0  0  0
  -28.9129  -15.7847   20.8243 H   0  0  0  0  0  0
  1 25  1  0  0  0
  1 30  2  0  0  0
  1 85  1  0  0  0
  2  3  1  0  0  0
  2 25  1  0  0  0
  2 87  1  0  0  0
  2 88  1  0  0  0
  3  4  1  0  0  0
  3 89  1  0  0  0
  3 90  1  0  0  0
  4  5  1  0  0  0
  4 91  1  0  0  0
  4 92  1  0  0  0
  5  6  1  0  0  0
  5 26  1  0  0  0
  5 93  1  0  0  0
  6 25  1  0  0  0
  6 94  1  0  0  0
  6 95  1  0  0  0
  7  8  2  0  0  0
  7 26  1  0  0  0
  7 29  1  0  0  0
  8  9  1  0  0  0
  8 22  1  0  0  0
  9 10  1  0  0  0
  9 27  2  0  0  0
 10 11  2  0  0  0
 10 15  1  0  0  0
 11 12  1  0  0  0
 11 96  1  0  0  0
 12 13  2  0  0  0
 12 97  1  0  0  0
 13 14  1  0  0  0
 13 31  1  0  0  0
 14 15  2  0  0  0
 14 98  1  0  0  0
 15 99  1  0  0  0
 16 17  2  0  0  0
 16 21  1  0  0  0
 16 31  1  0  0  0
 17 18  1  0  0  0
 17100  1  0  0  0
 18 19  2  0  0  0
 18101  1  0  0  0
 19 20  1  0  0  0
 19 24  1  0  0  0
 20 21  2  0  0  0
 20102  1  0  0  0
 21 23  1  0  0  0
 22 28  1  0  0  0
 22 32  2  0  0  0
 26 27  1  0  0  0
 28103  1  0  0  0
 28104  1  0  0  0
 29105  1  0  0  0
 29106  1  0  0  0
 33 34  1  0  0  0
 33 66  1  0  0  0
 33 70  2  0  0  0
 34 36  1  0  0  0
 34 59  1  0  0  0
 34107  1  0  0  0
 35 44  2  0  0  0
 35 45  1  0  0  0
 35 68  1  0  0  0
 36 56  1  0  0  0
 36108  1  0  0  0
 37 39  1  0  0  0
 37 47  1  0  0  0
 37 66  1  0  0  0
 37109  1  0  0  0
 38 43  2  0  0  0
 38 46  1  0  0  0
 38 47  1  0  0  0
 39 64  1  0  0  0
 39 67  2  0  0  0
 40 52  1  0  0  0
 40 53  2  0  0  0
 40 58  1  0  0  0
 41110  1  0  0  0
 41111  1  0  0  0
 41112  1  0  0  0
 41 48  1  0  0  0
 42 43  1  0  0  0
 42 66  1  0  0  0
 42113  1  0  0  0
 42114  1  0  0  0
 43 44  1  0  0  0
 44115  1  0  0  0
 45 46  2  0  0  0
 45116  1  0  0  0
 46117  1  0  0  0
 47118  1  0  0  0
 47119  1  0  0  0
 48 56  1  0  0  0
 48 65  1  0  0  0
 48120  1  0  0  0
 49 50  1  0  0  0
 49 53  1  0  0  0
 49 64  1  0  0  0
 49121  1  0  0  0
 50 51  1  0  0  0
 50122  1  0  0  0
 50123  1  0  0  0
 51 52  1  0  0  0
 51124  1  0  0  0
 51125  1  0  0  0
 52126  1  0  0  0
 52127  1  0  0  0
 53 54  1  0  0  0
 54 55  2  0  0  0
 54128  1  0  0  0
 55 57  1  0  0  0
 55129  1  0  0  0
 56 69  2  0  0  0
 57 58  2  0  0  0
 57130  1  0  0  0
 58131  1  0  0  0
 59 60  1  0  0  0
 59 61  1  0  0  0
 59 62  1  0  0  0
 60132  1  0  0  0
 60133  1  0  0  0
 60134  1  0  0  0
 61135  1  0  0  0
 61136  1  0  0  0
 61137  1  0  0  0
 62138  1  0  0  0
 62139  1  0  0  0
 62140  1  0  0  0
 63 65  1  0  0  0
 63141  1  0  0  0
 63142  1  0  0  0
 63143  1  0  0  0
 64144  1  0  0  0
 65145  1  0  0  0
 68 83  1  0  0  0
 71 72  2  0  0  0
 71 73  1  0  0  0
 71146  1  0  0  0
 72 75  1  0  0  0
 72147  1  0  0  0
 73 76  2  0  0  0
 73148  1  0  0  0
 74 75  2  0  0  0
 74 76  1  0  0  0
 74 81  1  0  0  0
 75 84  1  0  0  0
 76 85  1  0  0  0
 77 78  2  0  0  0
 77 79  1  0  0  0
 77 83  1  0  0  0
 78 80  1  0  0  0
 78 82  1  0  0  0
 79 84  1  0  0  0
 79 86  2  0  0  0
 80 84  1  0  0  0
 80149  1  0  0  0
 80150  1  0  0  0
 81151  1  0  0  0
 81152  1  0  0  0
 81153  1  0  0  0
 82154  1  0  0  0
 82155  1  0  0  0
 82156  1  0  0  0
 83157  1  0  0  0
 83158  1  0  0  0
 85159  1  0  0  0
M  ISO  4   1 100  68 101  83 101  85 100
M  END
> <chiral flag>
0

> <version>
0

> <s_m_source_file>
/data/baiqing/PycharmProjects/Reinvent-master-3.2/result/LINK_invent/BTK/process_docking_weight1_custom_product_contain_oxygen_bond_distance_aromatic_linkinvent_7_9_3/rearranged_h_0073.sdf

> <i_m_source_file_index>
82

> <r_mmod_Potential_Energy-OPLS-2005>
335.305480957031

> <r_mmod_Stretch_Energy-OPLS-2005>
148.673690795898

> <r_mmod_Bend_Energy-OPLS-2005>
235.657989501953

> <r_mmod_Torsional_Energy-OPLS-2005>
259.725006103516

> <r_mmod_Improper_Torsional_Energy-OPLS-2005>
5.74393129348755

> <r_mmod_Van_der_Waal_Energy-OPLS-2005>
139.208023071289

> <r_mmod_Electrostatic_Energy-OPLS-2005>
-341.614349365234

> <r_mmod_Solvation_Energy-OPLS-2005>
-212.253753662109

> <b_mmod_Minimization_Converged-OPLS-2005>
0

> <r_mmod_RMS_Derivative-OPLS-2005>
1.98403966426849

$$$$
82
                    3D
 Structure written by MMmdl.
159168  0  0  1  0            999 V2000
  -30.6915  -14.4701   20.5574 C   0  0  0  0  0  0
  -30.4248  -12.2984   19.4284 C   0  0  0  0  0  0
  -29.4977  -12.5022   18.2110 C   0  0  0  0  0  0
  -28.0175  -12.3664   18.6201 C   0  0  0  0  0  0
  -27.6636  -13.2049   19.8777 C   0  0  2  0  0  0
  -28.7035  -12.9795   20.9998 C   0  0  0  0  0  0
  -25.2595  -13.8156   20.5675 C   0  0  0  0  0  0
  -24.1842  -13.0438   20.9171 C   0  0  0  0  0  0
  -24.6392  -11.6904   20.8731 C   0  0  0  0  0  0
  -23.9057  -10.4292   21.0403 C   0  0  0  0  0  0
  -24.3611   -9.4209   21.9181 C   0  0  0  0  0  0
  -23.6288   -8.2244   22.0756 C   0  0  0  0  0  0
  -22.4270   -8.0280   21.3545 C   0  0  0  0  0  0
  -21.9902   -9.0253   20.4649 C   0  0  0  0  0  0
  -22.7229  -10.2133   20.3055 C   0  0  0  0  0  0
  -21.6852   -6.0733   22.5278 C   0  0  0  0  0  0
  -21.4014   -6.5638   23.8210 C   0  0  0  0  0  0
  -21.3660   -5.6792   24.9173 C   0  0  0  0  0  0
  -21.6044   -4.3055   24.7224 C   0  0  0  0  0  0
  -21.8820   -3.8145   23.4347 C   0  0  0  0  0  0
  -21.9193   -4.6961   22.3402 C   0  0  0  0  0  0
  -22.7866  -13.5242   21.1837 C   0  0  0  0  0  0
  -22.1661   -4.2146   21.0980 F   0  0  0  0  0  0
  -21.5630   -3.4539   25.7737 F   0  0  0  0  0  0
  -30.0396  -13.2799   20.4547 N   0  0  0  0  0  0
  -26.3032  -12.9323   20.3371 N   0  0  0  0  0  0
  -25.9320  -11.6485   20.5767 N   0  0  0  0  0  0
  -22.0505  -12.8239   22.0396 N   0  0  0  0  0  0
  -25.4323  -15.1871   20.4076 N   0  0  0  0  0  0
  -31.8169  -14.6558   20.0852 O   0  0  0  0  0  0
  -21.6638   -6.8875   21.4239 O   0  0  0  0  0  0
  -22.3554  -14.5552   20.6690 O   0  0  0  0  0  0
  -24.6139  -31.8682   23.2102 C   0  0  0  0  0  0
  -25.9033  -32.4826   23.8398 C   0  0  1  0  0  0
  -27.2342  -27.4419   20.0996 C   0  0  0  0  0  0
  -25.5891  -33.8623   24.2331 N   0  0  0  0  0  0
  -23.4026  -30.4910   21.5502 C   0  0  2  0  0  0
  -24.8512  -28.9582   20.1135 C   0  0  0  0  0  0
  -22.7410  -29.4657   22.4989 C   0  0  0  0  0  0
  -18.0272  -28.1375   22.8494 C   0  0  0  0  0  0
  -24.1486  -36.7320   23.2638 C   0  0  0  0  0  0
  -25.9304  -30.8369   21.3620 C   0  0  0  0  0  0
  -26.0108  -29.4717   20.7097 C   0  0  0  0  0  0
  -27.2090  -28.7211   20.6990 C   0  0  0  0  0  0
  -26.0634  -26.9430   19.4924 C   0  0  0  0  0  0
  -24.8719  -27.6926   19.5008 C   0  0  0  0  0  0
  -23.6114  -29.8227   20.1648 C   0  0  0  0  0  0
  -25.4106  -36.3115   24.0338 C   0  0  1  0  0  0
  -20.5862  -28.3662   23.1320 C   0  0  2  0  0  0
  -20.6763  -26.9399   22.5417 C   0  0  0  0  0  0
  -19.5742  -26.6385   21.5212 C   0  0  0  0  0  0
  -18.1922  -26.7921   22.1626 C   0  0  0  0  0  0
  -19.1522  -28.8834   23.2905 C   0  0  0  0  0  0
  -18.9450  -30.1441   23.8914 C   0  0  0  0  0  0
  -17.6453  -30.6583   24.0565 C   0  0  0  0  0  0
  -25.9031  -34.9478   23.5133 C   0  0  0  0  0  0
  -16.5343  -29.9086   23.6323 C   0  0  0  0  0  0
  -16.7262  -28.6502   23.0347 C   0  0  0  0  0  0
  -26.4467  -31.6599   25.0719 C   0  0  0  0  0  0
  -25.3740  -31.3701   26.1473 C   0  0  0  0  0  0
  -27.0293  -30.3043   24.6080 C   0  0  0  0  0  0
  -27.6049  -32.4312   25.7477 C   0  0  0  0  0  0
  -27.5582  -37.1813   24.8465 C   0  0  0  0  0  0
  -21.4138  -29.3031   22.3729 N   0  0  0  0  0  0
  -26.4296  -37.3796   23.9407 N   0  0  0  0  0  0
  -24.6672  -31.0789   22.0998 N   0  0  0  0  0  0
  -23.4183  -28.8198   23.3031 O   0  0  0  0  0  0
  -28.3727  -26.6691   20.1103 O   0  0  0  0  0  0
  -26.5594  -34.8927   22.4695 O   0  0  0  0  0  0
  -23.5333  -32.1427   23.7501 O   0  0  0  0  0  0
  -30.4296  -18.7587   19.2874 C   0  0  0  0  0  0
  -30.6528  -17.4179   19.6744 C   0  0  0  0  0  0
  -28.7769  -19.0028   21.0517 C   0  0  0  0  0  0
  -29.4815  -19.5621   19.9620 C   0  0  0  0  0  0
  -29.9161  -16.8417   20.7408 C   0  0  0  0  0  0
  -28.9887  -17.6570   21.4283 C   0  0  0  0  0  0
  -28.9510  -23.4027   19.7168 C   0  0  0  0  0  0
  -29.1541  -20.9046   19.4374 C   0  0  0  0  0  0
  -29.5676  -23.5662   22.0204 C   0  0  0  0  0  0
  -29.8392  -22.1420   21.5151 C   0  0  0  0  0  0
  -29.3332  -24.4395   20.7780 C   0  0  2  0  0  0
  -28.2801  -25.5550   21.0141 C   0  0  0  0  0  0
  -29.2676  -22.0604   20.1597 N   0  0  0  0  0  0
  -29.9831  -15.4633   21.1235 N   0  0  0  0  0  0
  -28.7333  -20.9355   18.1706 N   0  3  0  0  0  0
  -28.4519  -23.6733   18.6189 O   0  0  0  0  0  0
  -28.2601  -17.1242   22.4394 F   0  0  0  0  0  0
  -31.4703  -12.3933   19.1292 H   0  0  0  0  0  0
  -30.3220  -11.2863   19.8229 H   0  0  0  0  0  0
  -29.7362  -11.7771   17.4317 H   0  0  0  0  0  0
  -29.6703  -13.4872   17.7746 H   0  0  0  0  0  0
  -27.8244  -11.3105   18.8139 H   0  0  0  0  0  0
  -27.3695  -12.6440   17.7879 H   0  0  0  0  0  0
  -27.7096  -14.2535   19.5829 H   0  0  0  0  0  0
  -28.6744  -11.9425   21.3380 H   0  0  0  0  0  0
  -28.4626  -13.5759   21.8808 H   0  0  0  0  0  0
  -25.2759   -9.5685   22.4750 H   0  0  0  0  0  0
  -23.9998   -7.4638   22.7477 H   0  0  0  0  0  0
  -21.0833   -8.8769   19.8957 H   0  0  0  0  0  0
  -22.3687  -10.9670   19.6163 H   0  0  0  0  0  0
  -21.2005   -7.6147   23.9712 H   0  0  0  0  0  0
  -21.1482   -6.0524   25.9075 H   0  0  0  0  0  0
  -22.0599   -2.7608   23.2847 H   0  0  0  0  0  0
  -22.4113  -11.9896   22.4783 H   0  0  0  0  0  0
  -21.1128  -13.1274   22.2606 H   0  0  0  0  0  0
  -24.6679  -15.8437   20.5208 H   0  0  0  0  0  0
  -26.2883  -15.6261   20.0949 H   0  0  0  0  0  0
  -26.7107  -32.5546   23.1169 H   0  0  0  0  0  0
  -25.0044  -33.9787   25.0477 H   0  0  0  0  0  0
  -22.6909  -31.3074   21.4110 H   0  0  0  0  0  0
  -23.3741  -35.9661   23.3313 H   0  0  0  0  0  0
  -24.3581  -36.8919   22.2049 H   0  0  0  0  0  0
  -23.7247  -37.6534   23.6640 H   0  0  0  0  0  0
  -26.0395  -31.6032   20.5933 H   0  0  0  0  0  0
  -26.8192  -30.8923   21.9787 H   0  0  0  0  0  0
  -28.1044  -29.1104   21.1634 H   0  0  0  0  0  0
  -26.0736  -25.9702   19.0205 H   0  0  0  0  0  0
  -23.9813  -27.2918   19.0366 H   0  0  0  0  0  0
  -23.7171  -30.5976   19.4047 H   0  0  0  0  0  0
  -22.7364  -29.2405   19.8701 H   0  0  0  0  0  0
  -25.1282  -36.1985   25.0832 H   0  0  0  0  0  0
  -20.9954  -28.3225   24.1440 H   0  0  0  0  0  0
  -20.5667  -26.2269   23.3603 H   0  0  0  0  0  0
  -21.6633  -26.7444   22.1209 H   0  0  0  0  0  0
  -19.6905  -25.6301   21.1230 H   0  0  0  0  0  0
  -19.6683  -27.3206   20.6751 H   0  0  0  0  0  0
  -17.4192  -26.6668   21.4028 H   0  0  0  0  0  0
  -18.0327  -26.0059   22.9020 H   0  0  0  0  0  0
  -19.7926  -30.7251   24.2293 H   0  0  0  0  0  0
  -17.5009  -31.6265   24.5163 H   0  0  0  0  0  0
  -15.5345  -30.2996   23.7636 H   0  0  0  0  0  0
  -15.8661  -28.0827   22.7053 H   0  0  0  0  0  0
  -24.5902  -30.7062   25.7809 H   0  0  0  0  0  0
  -24.8945  -32.2858   26.4944 H   0  0  0  0  0  0
  -25.8097  -30.8850   27.0217 H   0  0  0  0  0  0
  -26.2831  -29.6811   24.1137 H   0  0  0  0  0  0
  -27.4075  -29.7270   25.4527 H   0  0  0  0  0  0
  -27.8660  -30.4369   23.9217 H   0  0  0  0  0  0
  -27.2672  -33.3597   26.2093 H   0  0  0  0  0  0
  -28.3837  -32.6896   25.0290 H   0  0  0  0  0  0
  -28.0741  -31.8412   26.5360 H   0  0  0  0  0  0
  -28.2607  -38.0103   24.7507 H   0  0  0  0  0  0
  -28.1070  -36.2635   24.6296 H   0  0  0  0  0  0
  -27.2300  -37.1470   25.8868 H   0  0  0  0  0  0
  -20.9295  -29.8759   21.6958 H   0  0  0  0  0  0
  -26.0189  -38.2878   24.1401 H   0  0  0  0  0  0
  -30.9740  -19.1600   18.4428 H   0  0  0  0  0  0
  -31.3668  -16.8419   19.1054 H   0  0  0  0  0  0
  -28.0222  -19.5773   21.5688 H   0  0  0  0  0  0
  -30.4066  -23.9400   22.6081 H   0  0  0  0  0  0
  -28.6935  -23.5644   22.6733 H   0  0  0  0  0  0
  -29.4110  -21.4118   22.2017 H   0  0  0  0  0  0
  -30.9131  -21.9531   21.4628 H   0  0  0  0  0  0
  -30.2804  -24.8868   20.4760 H   0  0  0  0  0  0
  -28.4094  -25.9555   22.0208 H   0  0  0  0  0  0
  -27.2835  -25.1089   21.0020 H   0  0  0  0  0  0
  -29.1994  -15.1620   21.6823 H   0  0  0  0  0  0
  -28.6092  -20.0818   17.6494 H   0  0  0  0  0  0
  -28.4696  -21.8238   17.7627 H   0  0  0  0  0  0
  1 25  1  0  0  0
  1 30  2  0  0  0
  1 84  1  0  0  0
  2  3  1  0  0  0
  2 25  1  0  0  0
  2 88  1  0  0  0
  2 89  1  0  0  0
  3  4  1  0  0  0
  3 90  1  0  0  0
  3 91  1  0  0  0
  4  5  1  0  0  0
  4 92  1  0  0  0
  4 93  1  0  0  0
  5  6  1  0  0  0
  5 26  1  0  0  0
  5 94  1  0  0  0
  6 25  1  0  0  0
  6 95  1  0  0  0
  6 96  1  0  0  0
  7  8  2  0  0  0
  7 26  1  0  0  0
  7 29  1  0  0  0
  8  9  1  0  0  0
  8 22  1  0  0  0
  9 10  1  0  0  0
  9 27  2  0  0  0
 10 11  2  0  0  0
 10 15  1  0  0  0
 11 12  1  0  0  0
 11 97  1  0  0  0
 12 13  2  0  0  0
 12 98  1  0  0  0
 13 14  1  0  0  0
 13 31  1  0  0  0
 14 15  2  0  0  0
 14 99  1  0  0  0
 15100  1  0  0  0
 16 17  2  0  0  0
 16 21  1  0  0  0
 16 31  1  0  0  0
 17 18  1  0  0  0
 17101  1  0  0  0
 18 19  2  0  0  0
 18102  1  0  0  0
 19 20  1  0  0  0
 19 24  1  0  0  0
 20 21  2  0  0  0
 20103  1  0  0  0
 21 23  1  0  0  0
 22 28  1  0  0  0
 22 32  2  0  0  0
 26 27  1  0  0  0
 28104  1  0  0  0
 28105  1  0  0  0
 29106  1  0  0  0
 29107  1  0  0  0
 33 34  1  0  0  0
 33 66  1  0  0  0
 33 70  2  0  0  0
 34 36  1  0  0  0
 34 59  1  0  0  0
 34108  1  0  0  0
 35 44  2  0  0  0
 35 45  1  0  0  0
 35 68  1  0  0  0
 36 56  1  0  0  0
 36109  1  0  0  0
 37 39  1  0  0  0
 37 47  1  0  0  0
 37 66  1  0  0  0
 37110  1  0  0  0
 38 43  2  0  0  0
 38 46  1  0  0  0
 38 47  1  0  0  0
 39 64  1  0  0  0
 39 67  2  0  0  0
 40 52  1  0  0  0
 40 53  2  0  0  0
 40 58  1  0  0  0
 41111  1  0  0  0
 41112  1  0  0  0
 41113  1  0  0  0
 41 48  1  0  0  0
 42 43  1  0  0  0
 42 66  1  0  0  0
 42114  1  0  0  0
 42115  1  0  0  0
 43 44  1  0  0  0
 44116  1  0  0  0
 45 46  2  0  0  0
 45117  1  0  0  0
 46118  1  0  0  0
 47119  1  0  0  0
 47120  1  0  0  0
 48 56  1  0  0  0
 48 65  1  0  0  0
 48121  1  0  0  0
 49 50  1  0  0  0
 49 53  1  0  0  0
 49 64  1  0  0  0
 49122  1  0  0  0
 50 51  1  0  0  0
 50123  1  0  0  0
 50124  1  0  0  0
 51 52  1  0  0  0
 51125  1  0  0  0
 51126  1  0  0  0
 52127  1  0  0  0
 52128  1  0  0  0
 53 54  1  0  0  0
 54 55  2  0  0  0
 54129  1  0  0  0
 55 57  1  0  0  0
 55130  1  0  0  0
 56 69  2  0  0  0
 57 58  2  0  0  0
 57131  1  0  0  0
 58132  1  0  0  0
 59 60  1  0  0  0
 59 61  1  0  0  0
 59 62  1  0  0  0
 60133  1  0  0  0
 60134  1  0  0  0
 60135  1  0  0  0
 61136  1  0  0  0
 61137  1  0  0  0
 61138  1  0  0  0
 62139  1  0  0  0
 62140  1  0  0  0
 62141  1  0  0  0
 63 65  1  0  0  0
 63142  1  0  0  0
 63143  1  0  0  0
 63144  1  0  0  0
 64145  1  0  0  0
 65146  1  0  0  0
 68 82  1  0  0  0
 71 72  2  0  0  0
 71 74  1  0  0  0
 71147  1  0  0  0
 72 75  1  0  0  0
 72148  1  0  0  0
 73 74  2  0  0  0
 73 76  1  0  0  0
 73149  1  0  0  0
 74 78  1  0  0  0
 75 76  2  0  0  0
 75 84  1  0  0  0
 76 87  1  0  0  0
 77 81  1  0  0  0
 77 83  1  0  0  0
 77 86  2  0  0  0
 78 83  1  0  0  0
 78 85  2  0  0  0
 79 80  1  0  0  0
 79 81  1  0  0  0
 79150  1  0  0  0
 79151  1  0  0  0
 80 83  1  0  0  0
 80152  1  0  0  0
 80153  1  0  0  0
 81 82  1  0  0  0
 81154  1  0  0  0
 82155  1  0  0  0
 82156  1  0  0  0
 84157  1  0  0  0
 85158  1  0  0  0
 85159  1  0  0  0
M  CHG  1  85   1
M  ISO  4   1 100  68 101  82 101  84 100
M  END
> <chiral flag>
0

> <version>
0

> <s_m_source_file>
/data/baiqing/PycharmProjects/Reinvent-master-3.2/result/LINK_invent/BTK/process_docking_weight1_custom_product_contain_oxygen_bond_distance_aromatic_linkinvent_7_9_3/rearranged_h_0073.sdf

> <i_m_source_file_index>
83

> <r_mmod_Potential_Energy-OPLS-2005>
-252.65104675293

> <r_mmod_Stretch_Energy-OPLS-2005>
38.962329864502

> <r_mmod_Bend_Energy-OPLS-2005>
127.553192138672

> <r_mmod_Torsional_Energy-OPLS-2005>
277.9541015625

> <r_mmod_Improper_Torsional_Energy-OPLS-2005>
4.54280185699463

> <r_mmod_Van_der_Waal_Energy-OPLS-2005>
159.341995239258

> <r_mmod_Electrostatic_Energy-OPLS-2005>
-457.18408203125

> <r_mmod_Solvation_Energy-OPLS-2005>
-416.303649902344

> <b_mmod_Minimization_Converged-OPLS-2005>
0

> <r_mmod_RMS_Derivative-OPLS-2005>
0.234752148389816

$$$$
83
                    3D
 Structure written by MMmdl.
157165  0  0  1  0            999 V2000
  -30.7400  -14.3681   20.6350 C   0  0  0  0  0  0
  -30.4128  -12.2728   19.3796 C   0  0  0  0  0  0
  -29.4771  -12.5216   18.1809 C   0  0  0  0  0  0
  -28.0011  -12.3960   18.5978 C   0  0  0  0  0  0
  -27.6738  -13.1938   19.8875 C   0  0  2  0  0  0
  -28.7150  -12.9063   20.9930 C   0  0  0  0  0  0
  -25.2671  -13.8143   20.5701 C   0  0  0  0  0  0
  -24.1885  -13.0457   20.9170 C   0  0  0  0  0  0
  -24.6395  -11.6898   20.8728 C   0  0  0  0  0  0
  -23.9055  -10.4293   21.0400 C   0  0  0  0  0  0
  -24.3611   -9.4206   21.9175 C   0  0  0  0  0  0
  -23.6289   -8.2246   22.0761 C   0  0  0  0  0  0
  -22.4277   -8.0297   21.3547 C   0  0  0  0  0  0
  -21.9893   -9.0278   20.4652 C   0  0  0  0  0  0
  -22.7222  -10.2148   20.3051 C   0  0  0  0  0  0
  -21.6852   -6.0745   22.5279 C   0  0  0  0  0  0
  -21.4025   -6.5640   23.8219 C   0  0  0  0  0  0
  -21.3654   -5.6786   24.9176 C   0  0  0  0  0  0
  -21.6060   -4.3059   24.7215 C   0  0  0  0  0  0
  -21.8820   -3.8157   23.4327 C   0  0  0  0  0  0
  -21.9185   -4.6972   22.3387 C   0  0  0  0  0  0
  -22.7905  -13.5276   21.1806 C   0  0  0  0  0  0
  -22.1659   -4.2155   21.0962 F   0  0  0  0  0  0
  -21.5615   -3.4528   25.7722 F   0  0  0  0  0  0
  -30.0576  -13.2075   20.4569 N   0  0  0  0  0  0
  -26.3100  -12.9277   20.3423 N   0  0  0  0  0  0
  -25.9330  -11.6447   20.5776 N   0  0  0  0  0  0
  -22.0518  -12.8315   22.0356 N   0  0  0  0  0  0
  -25.4462  -15.1861   20.4122 N   0  0  0  0  0  0
  -31.7768  -14.6512   20.0238 O   0  0  0  0  0  0
  -21.6640   -6.8894   21.4249 O   0  0  0  0  0  0
  -22.3622  -14.5582   20.6653 O   0  0  0  0  0  0
  -24.6127  -31.8671   23.2142 C   0  0  0  0  0  0
  -25.9034  -32.4830   23.8418 C   0  0  1  0  0  0
  -27.2538  -27.4560   20.0981 C   0  0  0  0  0  0
  -25.5873  -33.8620   24.2343 N   0  0  0  0  0  0
  -23.4009  -30.4924   21.5479 C   0  0  2  0  0  0
  -24.8529  -28.9612   20.1098 C   0  0  0  0  0  0
  -22.7388  -29.4678   22.4965 C   0  0  0  0  0  0
  -18.0281  -28.1371   22.8516 C   0  0  0  0  0  0
  -24.1444  -36.7313   23.2660 C   0  0  0  0  0  0
  -25.9287  -30.8389   21.3645 C   0  0  0  0  0  0
  -26.0060  -29.4741   20.7153 C   0  0  0  0  0  0
  -27.2018  -28.7249   20.7137 C   0  0  0  0  0  0
  -26.0831  -26.9575   19.4742 C   0  0  0  0  0  0
  -24.8877  -27.7010   19.4862 C   0  0  0  0  0  0
  -23.6099  -29.8221   20.1614 C   0  0  0  0  0  0
  -25.4075  -36.3123   24.0355 C   0  0  1  0  0  0
  -20.5863  -28.3653   23.1311 C   0  0  2  0  0  0
  -20.6752  -26.9376   22.5418 C   0  0  0  0  0  0
  -19.5735  -26.6380   21.5212 C   0  0  0  0  0  0
  -18.1918  -26.7921   22.1637 C   0  0  0  0  0  0
  -19.1528  -28.8837   23.2916 C   0  0  0  0  0  0
  -18.9457  -30.1442   23.8932 C   0  0  0  0  0  0
  -17.6458  -30.6580   24.0571 C   0  0  0  0  0  0
  -25.9006  -34.9477   23.5147 C   0  0  0  0  0  0
  -16.5347  -29.9081   23.6321 C   0  0  0  0  0  0
  -16.7271  -28.6486   23.0366 C   0  0  0  0  0  0
  -26.4472  -31.6637   25.0749 C   0  0  0  0  0  0
  -25.3759  -31.3745   26.1524 C   0  0  0  0  0  0
  -27.0326  -30.3085   24.6152 C   0  0  0  0  0  0
  -27.6042  -32.4386   25.7496 C   0  0  0  0  0  0
  -27.5565  -37.1805   24.8468 C   0  0  0  0  0  0
  -21.4117  -29.3029   22.3704 N   0  0  0  0  0  0
  -26.4262  -37.3815   23.9426 N   0  0  0  0  0  0
  -24.6659  -31.0806   22.1020 N   0  0  0  0  0  0
  -23.4167  -28.8234   23.3022 O   0  0  0  0  0  0
  -28.4504  -26.7725   20.1513 O   0  0  0  0  0  0
  -26.5562  -34.8936   22.4703 O   0  0  0  0  0  0
  -23.5314  -32.1410   23.7538 O   0  0  0  0  0  0
  -30.6093  -18.7474   22.6667 C   0  0  0  0  0  0
  -30.5310  -17.3381   22.6887 C   0  0  0  0  0  0
  -30.4396  -19.4571   21.4593 C   0  0  0  0  0  0
  -30.1269  -17.3378   20.2846 C   0  0  0  0  0  0
  -30.3087  -16.6235   21.4939 C   0  0  0  0  0  0
  -30.1864  -18.7459   20.2687 C   0  0  0  0  0  0
  -29.6837  -22.3066   19.3362 C   0  0  0  0  0  0
  -30.3741  -23.6673   19.1681 C   0  0  0  0  0  0
  -29.8466  -24.8076   20.0657 C   0  0  0  0  0  0
  -28.5868  -25.5058   19.5129 C   0  0  0  0  0  0
  -30.2203  -15.2071   21.5393 N   0  0  0  0  0  0
  -30.4473  -21.2166   18.9144 N   0  0  0  0  0  0
  -28.5480  -22.1986   19.8012 O   0  0  0  0  0  0
  -28.5230  -19.5566   18.3429 O   0  0  0  0  0  0
  -30.9218  -18.9919   17.7441 O   0  0  0  0  0  0
  -29.9549  -19.5784   18.6881 S   0  0  0  0  0  0
  -31.4507  -12.3713   19.0636 H   0  0  0  0  0  0
  -30.3110  -11.2474   19.7341 H   0  0  0  0  0  0
  -29.6971  -11.8135   17.3803 H   0  0  0  0  0  0
  -29.6516  -13.5183   17.7709 H   0  0  0  0  0  0
  -27.7818  -11.3393   18.7391 H   0  0  0  0  0  0
  -27.3566  -12.7290   17.7833 H   0  0  0  0  0  0
  -27.7425  -14.2525   19.6424 H   0  0  0  0  0  0
  -28.6677  -11.8573   21.2896 H   0  0  0  0  0  0
  -28.4690  -13.4686   21.8939 H   0  0  0  0  0  0
  -25.2765   -9.5678   22.4744 H   0  0  0  0  0  0
  -23.9997   -7.4636   22.7488 H   0  0  0  0  0  0
  -21.0819   -8.8803   19.8953 H   0  0  0  0  0  0
  -22.3697  -10.9702   19.6159 H   0  0  0  0  0  0
  -21.2043   -7.6149   23.9730 H   0  0  0  0  0  0
  -21.1477   -6.0505   25.9074 H   0  0  0  0  0  0
  -22.0605   -2.7619   23.2821 H   0  0  0  0  0  0
  -22.4113  -11.9980   22.4782 H   0  0  0  0  0  0
  -21.1143  -13.1409   22.2515 H   0  0  0  0  0  0
  -24.7017  -15.8559   20.5651 H   0  0  0  0  0  0
  -26.3113  -15.6181   20.1111 H   0  0  0  0  0  0
  -26.7107  -32.5563   23.1189 H   0  0  0  0  0  0
  -25.0018  -33.9763   25.0481 H   0  0  0  0  0  0
  -22.6922  -31.3100   21.4068 H   0  0  0  0  0  0
  -23.3706  -35.9646   23.3337 H   0  0  0  0  0  0
  -24.3545  -36.8911   22.2070 H   0  0  0  0  0  0
  -23.7165  -37.6514   23.6654 H   0  0  0  0  0  0
  -26.0398  -31.6043   20.5956 H   0  0  0  0  0  0
  -26.8154  -30.8918   21.9854 H   0  0  0  0  0  0
  -28.0899  -29.1215   21.1870 H   0  0  0  0  0  0
  -26.0686  -26.0026   18.9703 H   0  0  0  0  0  0
  -24.0051  -27.3060   19.0030 H   0  0  0  0  0  0
  -23.7126  -30.5937   19.3972 H   0  0  0  0  0  0
  -22.7355  -29.2349   19.8742 H   0  0  0  0  0  0
  -25.1240  -36.2008   25.0851 H   0  0  0  0  0  0
  -21.0003  -28.3235   24.1417 H   0  0  0  0  0  0
  -20.5632  -26.2265   23.3611 H   0  0  0  0  0  0
  -21.6623  -26.7414   22.1224 H   0  0  0  0  0  0
  -19.6881  -25.6298   21.1222 H   0  0  0  0  0  0
  -19.6671  -27.3215   20.6752 H   0  0  0  0  0  0
  -17.4181  -26.6696   21.4032 H   0  0  0  0  0  0
  -18.0325  -26.0042   22.9020 H   0  0  0  0  0  0
  -19.7933  -30.7239   24.2316 H   0  0  0  0  0  0
  -17.5014  -31.6268   24.5155 H   0  0  0  0  0  0
  -15.5345  -30.3000   23.7608 H   0  0  0  0  0  0
  -15.8670  -28.0806   22.7073 H   0  0  0  0  0  0
  -24.5895  -30.7125   25.7884 H   0  0  0  0  0  0
  -24.8988  -32.2900   26.5029 H   0  0  0  0  0  0
  -25.8131  -30.8882   27.0248 H   0  0  0  0  0  0
  -26.2885  -29.6834   24.1201 H   0  0  0  0  0  0
  -27.4083  -29.7359   25.4638 H   0  0  0  0  0  0
  -27.8720  -30.4419   23.9326 H   0  0  0  0  0  0
  -27.2647  -33.3661   26.2113 H   0  0  0  0  0  0
  -28.3813  -32.6995   25.0308 H   0  0  0  0  0  0
  -28.0756  -31.8505   26.5380 H   0  0  0  0  0  0
  -28.2596  -38.0087   24.7516 H   0  0  0  0  0  0
  -28.1031  -36.2622   24.6273 H   0  0  0  0  0  0
  -27.2295  -37.1455   25.8873 H   0  0  0  0  0  0
  -20.9266  -29.8723   21.6900 H   0  0  0  0  0  0
  -26.0161  -38.2893   24.1436 H   0  0  0  0  0  0
  -30.8066  -19.2866   23.5809 H   0  0  0  0  0  0
  -30.6677  -16.8145   23.6253 H   0  0  0  0  0  0
  -30.4981  -20.5341   21.4582 H   0  0  0  0  0  0
  -29.9374  -16.8169   19.3572 H   0  0  0  0  0  0
  -30.2955  -23.9611   18.1206 H   0  0  0  0  0  0
  -31.4369  -23.5351   19.3672 H   0  0  0  0  0  0
  -30.6464  -25.5413   20.1756 H   0  0  0  0  0  0
  -29.6537  -24.4363   21.0745 H   0  0  0  0  0  0
  -27.7315  -24.8510   19.6823 H   0  0  0  0  0  0
  -28.6822  -25.6822   18.4381 H   0  0  0  0  0  0
  -29.5552  -14.8060   22.1869 H   0  0  0  0  0  0
  -31.4407  -21.3355   18.7274 H   0  0  0  0  0  0
  1 25  1  0  0  0
  1 30  2  0  0  0
  1 81  1  0  0  0
  2  3  1  0  0  0
  2 25  1  0  0  0
  2 87  1  0  0  0
  2 88  1  0  0  0
  3  4  1  0  0  0
  3 89  1  0  0  0
  3 90  1  0  0  0
  4  5  1  0  0  0
  4 91  1  0  0  0
  4 92  1  0  0  0
  5  6  1  0  0  0
  5 26  1  0  0  0
  5 93  1  0  0  0
  6 25  1  0  0  0
  6 94  1  0  0  0
  6 95  1  0  0  0
  7  8  2  0  0  0
  7 26  1  0  0  0
  7 29  1  0  0  0
  8  9  1  0  0  0
  8 22  1  0  0  0
  9 10  1  0  0  0
  9 27  2  0  0  0
 10 11  2  0  0  0
 10 15  1  0  0  0
 11 12  1  0  0  0
 11 96  1  0  0  0
 12 13  2  0  0  0
 12 97  1  0  0  0
 13 14  1  0  0  0
 13 31  1  0  0  0
 14 15  2  0  0  0
 14 98  1  0  0  0
 15 99  1  0  0  0
 16 17  2  0  0  0
 16 21  1  0  0  0
 16 31  1  0  0  0
 17 18  1  0  0  0
 17100  1  0  0  0
 18 19  2  0  0  0
 18101  1  0  0  0
 19 20  1  0  0  0
 19 24  1  0  0  0
 20 21  2  0  0  0
 20102  1  0  0  0
 21 23  1  0  0  0
 22 28  1  0  0  0
 22 32  2  0  0  0
 26 27  1  0  0  0
 28103  1  0  0  0
 28104  1  0  0  0
 29105  1  0  0  0
 29106  1  0  0  0
 33 34  1  0  0  0
 33 66  1  0  0  0
 33 70  2  0  0  0
 34 36  1  0  0  0
 34 59  1  0  0  0
 34107  1  0  0  0
 35 44  2  0  0  0
 35 45  1  0  0  0
 35 68  1  0  0  0
 36 56  1  0  0  0
 36108  1  0  0  0
 37 39  1  0  0  0
 37 47  1  0  0  0
 37 66  1  0  0  0
 37109  1  0  0  0
 38 43  2  0  0  0
 38 46  1  0  0  0
 38 47  1  0  0  0
 39 64  1  0  0  0
 39 67  2  0  0  0
 40 52  1  0  0  0
 40 53  2  0  0  0
 40 58  1  0  0  0
 41110  1  0  0  0
 41111  1  0  0  0
 41112  1  0  0  0
 41 48  1  0  0  0
 42 43  1  0  0  0
 42 66  1  0  0  0
 42113  1  0  0  0
 42114  1  0  0  0
 43 44  1  0  0  0
 44115  1  0  0  0
 45 46  2  0  0  0
 45116  1  0  0  0
 46117  1  0  0  0
 47118  1  0  0  0
 47119  1  0  0  0
 48 56  1  0  0  0
 48 65  1  0  0  0
 48120  1  0  0  0
 49 50  1  0  0  0
 49 53  1  0  0  0
 49 64  1  0  0  0
 49121  1  0  0  0
 50 51  1  0  0  0
 50122  1  0  0  0
 50123  1  0  0  0
 51 52  1  0  0  0
 51124  1  0  0  0
 51125  1  0  0  0
 52126  1  0  0  0
 52127  1  0  0  0
 53 54  1  0  0  0
 54 55  2  0  0  0
 54128  1  0  0  0
 55 57  1  0  0  0
 55129  1  0  0  0
 56 69  2  0  0  0
 57 58  2  0  0  0
 57130  1  0  0  0
 58131  1  0  0  0
 59 60  1  0  0  0
 59 61  1  0  0  0
 59 62  1  0  0  0
 60132  1  0  0  0
 60133  1  0  0  0
 60134  1  0  0  0
 61135  1  0  0  0
 61136  1  0  0  0
 61137  1  0  0  0
 62138  1  0  0  0
 62139  1  0  0  0
 62140  1  0  0  0
 63 65  1  0  0  0
 63141  1  0  0  0
 63142  1  0  0  0
 63143  1  0  0  0
 64144  1  0  0  0
 65145  1  0  0  0
 68 80  1  0  0  0
 71 72  2  0  0  0
 71 73  1  0  0  0
 71146  1  0  0  0
 72 75  1  0  0  0
 72147  1  0  0  0
 73 76  2  0  0  0
 73148  1  0  0  0
 74 75  2  0  0  0
 74 76  1  0  0  0
 74149  1  0  0  0
 75 81  1  0  0  0
 76 86  1  0  0  0
 77 78  1  0  0  0
 77 82  1  0  0  0
 77 83  2  0  0  0
 78 79  1  0  0  0
 78150  1  0  0  0
 78151  1  0  0  0
 79 80  1  0  0  0
 79152  1  0  0  0
 79153  1  0  0  0
 80154  1  0  0  0
 80155  1  0  0  0
 81156  1  0  0  0
 82157  1  0  0  0
 82 86  1  0  0  0
 84 86  2  0  0  0
 85 86  2  0  0  0
M  ISO  4   1 100  68 101  80 101  81 100
M  END
> <chiral flag>
0

> <version>
0

> <s_m_source_file>
/data/baiqing/PycharmProjects/Reinvent-master-3.2/result/LINK_invent/BTK/process_docking_weight1_custom_product_contain_oxygen_bond_distance_aromatic_linkinvent_7_9_3/rearranged_h_0073.sdf

> <i_m_source_file_index>
84

> <r_mmod_Potential_Energy-OPLS-2005>
-291.835876464844

> <r_mmod_Stretch_Energy-OPLS-2005>
33.5700950622559

> <r_mmod_Bend_Energy-OPLS-2005>
106.659942626953

> <r_mmod_Torsional_Energy-OPLS-2005>
227.539611816406

> <r_mmod_Improper_Torsional_Energy-OPLS-2005>
2.51232385635376

> <r_mmod_Van_der_Waal_Energy-OPLS-2005>
147.389984130859

> <r_mmod_Electrostatic_Energy-OPLS-2005>
-547.072692871094

> <r_mmod_Solvation_Energy-OPLS-2005>
-271.9423828125

> <b_mmod_Minimization_Converged-OPLS-2005>
0

> <r_mmod_RMS_Derivative-OPLS-2005>
4.66277885437012

$$$$
84
                    3D
 Structure written by MMmdl.
162171  0  0  1  0            999 V2000
  -30.5963  -14.6658   20.5219 C   0  0  0  0  0  0
  -30.4454  -12.4109   19.4671 C   0  0  0  0  0  0
  -29.5186  -12.5142   18.2339 C   0  0  0  0  0  0
  -28.0390  -12.3460   18.6357 C   0  0  0  0  0  0
  -27.6542  -13.2136   19.8636 C   0  0  2  0  0  0
  -28.6923  -13.0644   20.9975 C   0  0  0  0  0  0
  -25.2561  -13.8164   20.5563 C   0  0  0  0  0  0
  -24.1839  -13.0457   20.9165 C   0  0  0  0  0  0
  -24.6396  -11.6920   20.8755 C   0  0  0  0  0  0
  -23.9057  -10.4310   21.0418 C   0  0  0  0  0  0
  -24.3622   -9.4228   21.9198 C   0  0  0  0  0  0
  -23.6293   -8.2267   22.0763 C   0  0  0  0  0  0
  -22.4278   -8.0306   21.3543 C   0  0  0  0  0  0
  -21.9908   -9.0277   20.4653 C   0  0  0  0  0  0
  -22.7231  -10.2158   20.3058 C   0  0  0  0  0  0
  -21.6870   -6.0747   22.5275 C   0  0  0  0  0  0
  -21.4028   -6.5649   23.8203 C   0  0  0  0  0  0
  -21.3655   -5.6794   24.9163 C   0  0  0  0  0  0
  -21.6029   -4.3048   24.7218 C   0  0  0  0  0  0
  -21.8827   -3.8145   23.4336 C   0  0  0  0  0  0
  -21.9189   -4.6972   22.3390 C   0  0  0  0  0  0
  -22.7862  -13.5275   21.1829 C   0  0  0  0  0  0
  -22.1662   -4.2160   21.0972 F   0  0  0  0  0  0
  -21.5610   -3.4527   25.7719 F   0  0  0  0  0  0
  -30.0071  -13.4281   20.4461 N   0  0  0  0  0  0
  -26.2986  -12.9331   20.3272 N   0  0  0  0  0  0
  -25.9324  -11.6503   20.5766 N   0  0  0  0  0  0
  -22.0459  -12.8292   22.0371 N   0  0  0  0  0  0
  -25.4289  -15.1859   20.3786 N   0  0  0  0  0  0
  -31.7514  -14.8402   20.1148 O   0  0  0  0  0  0
  -21.6648   -6.8897   21.4242 O   0  0  0  0  0  0
  -22.3565  -14.5581   20.6659 O   0  0  0  0  0  0
  -24.6272  -31.8558   23.2013 C   0  0  0  0  0  0
  -25.9108  -32.4757   23.8350 C   0  0  1  0  0  0
  -27.2362  -27.3096   20.1196 C   0  0  0  0  0  0
  -25.5912  -33.8557   24.2274 N   0  0  0  0  0  0
  -23.4238  -30.4784   21.5425 C   0  0  2  0  0  0
  -24.8739  -28.9288   20.1118 C   0  0  0  0  0  0
  -22.7490  -29.4599   22.4927 C   0  0  0  0  0  0
  -18.0303  -28.1388   22.8485 C   0  0  0  0  0  0
  -24.1496  -36.7302   23.2653 C   0  0  0  0  0  0
  -25.9655  -30.7813   21.3762 C   0  0  0  0  0  0
  -26.0421  -29.4074   20.7209 C   0  0  0  0  0  0
  -27.2269  -28.6091   20.7167 C   0  0  0  0  0  0
  -26.0463  -26.8859   19.4865 C   0  0  0  0  0  0
  -24.8769  -27.6718   19.4861 C   0  0  0  0  0  0
  -23.6410  -29.8110   20.1590 C   0  0  0  0  0  0
  -25.4118  -36.3071   24.0334 C   0  0  1  0  0  0
  -20.5900  -28.3703   23.1271 C   0  0  2  0  0  0
  -20.6791  -26.9427   22.5402 C   0  0  0  0  0  0
  -19.5763  -26.6385   21.5209 C   0  0  0  0  0  0
  -18.1947  -26.7928   22.1628 C   0  0  0  0  0  0
  -19.1556  -28.8865   23.2868 C   0  0  0  0  0  0
  -18.9473  -30.1460   23.8898 C   0  0  0  0  0  0
  -17.6467  -30.6580   24.0574 C   0  0  0  0  0  0
  -25.9034  -34.9434   23.5111 C   0  0  0  0  0  0
  -16.5357  -29.9082   23.6326 C   0  0  0  0  0  0
  -16.7286  -28.6499   23.0345 C   0  0  0  0  0  0
  -26.4487  -31.6569   25.0720 C   0  0  0  0  0  0
  -25.3720  -31.3716   26.1446 C   0  0  0  0  0  0
  -27.0332  -30.2988   24.6192 C   0  0  0  0  0  0
  -27.6054  -32.4307   25.7468 C   0  0  0  0  0  0
  -27.5555  -37.1844   24.8485 C   0  0  0  0  0  0
  -21.4207  -29.3043   22.3652 N   0  0  0  0  0  0
  -26.4321  -37.3732   23.9352 N   0  0  0  0  0  0
  -24.6906  -31.0562   22.0968 N   0  0  0  0  0  0
  -23.4194  -28.8157   23.3028 O   0  0  0  0  0  0
  -28.3383  -26.4364   20.1294 O   0  0  0  0  0  0
  -26.5611  -34.8894   22.4675 O   0  0  0  0  0  0
  -23.5430  -32.1379   23.7321 O   0  0  0  0  0  0
  -30.6681  -19.2574   19.7171 C   0  0  0  0  0  0
  -30.7198  -17.8428   19.9096 C   0  0  0  0  0  0
  -28.8250  -19.4201   21.2249 C   0  0  0  0  0  0
  -28.8799  -18.0050   21.4452 C   0  0  0  0  0  0
  -29.7197  -20.1127   20.3637 C   0  0  0  0  0  0
  -29.8261  -17.1614   20.7750 C   0  0  0  0  0  0
  -28.8539  -23.9545   20.1862 C   0  0  0  0  0  0
  -30.5849  -22.3730   19.5607 C   0  0  0  0  0  0
  -28.1144  -25.0838   20.4816 C   0  0  0  0  0  0
  -28.5421  -22.4907   20.6171 C   0  0  0  0  0  0
  -30.1480  -23.8513   19.4099 C   0  0  0  0  0  0
  -27.8819  -17.4308   22.4416 C   0  0  0  0  0  0
  -29.9161  -24.1479   17.9143 C   0  0  0  0  0  0
  -31.2276  -24.8063   19.9646 C   0  0  0  0  0  0
  -29.6505  -21.5893   20.1613 N   0  0  0  0  0  0
  -29.7926  -15.6975   20.9496 N   0  0  0  0  0  0
  -31.6986  -22.0081   19.1683 O   0  0  0  0  0  0
  -31.4862  -12.5496   19.1696 H   0  0  0  0  0  0
  -30.3946  -11.4145   19.9108 H   0  0  0  0  0  0
  -29.7916  -11.7600   17.4945 H   0  0  0  0  0  0
  -29.6616  -13.4825   17.7515 H   0  0  0  0  0  0
  -27.8779  -11.2915   18.8638 H   0  0  0  0  0  0
  -27.3911  -12.5767   17.7891 H   0  0  0  0  0  0
  -27.6719  -14.2502   19.5270 H   0  0  0  0  0  0
  -28.7096  -12.0348   21.3600 H   0  0  0  0  0  0
  -28.4267  -13.6769   21.8596 H   0  0  0  0  0  0
  -25.2791   -9.5707   22.4741 H   0  0  0  0  0  0
  -24.0001   -7.4669   22.7492 H   0  0  0  0  0  0
  -21.0823   -8.8815   19.8966 H   0  0  0  0  0  0
  -22.3718  -10.9700   19.6147 H   0  0  0  0  0  0
  -21.2049   -7.6159   23.9716 H   0  0  0  0  0  0
  -21.1455   -6.0518   25.9060 H   0  0  0  0  0  0
  -22.0607   -2.7605   23.2833 H   0  0  0  0  0  0
  -22.4053  -11.9994   22.4839 H   0  0  0  0  0  0
  -21.1075  -13.1367   22.2527 H   0  0  0  0  0  0
  -24.6376  -15.8193   20.3846 H   0  0  0  0  0  0
  -26.2377  -15.5757   19.9103 H   0  0  0  0  0  0
  -26.7176  -32.5420   23.1101 H   0  0  0  0  0  0
  -25.0019  -33.9681   25.0395 H   0  0  0  0  0  0
  -22.7193  -31.3000   21.3985 H   0  0  0  0  0  0
  -23.3674  -35.9736   23.3461 H   0  0  0  0  0  0
  -24.3558  -36.8757   22.2039 H   0  0  0  0  0  0
  -23.7373  -37.6606   23.6565 H   0  0  0  0  0  0
  -26.1007  -31.5419   20.6060 H   0  0  0  0  0  0
  -26.8451  -30.8298   22.0069 H   0  0  0  0  0  0
  -28.1245  -28.9720   21.1985 H   0  0  0  0  0  0
  -26.0155  -25.9223   18.9990 H   0  0  0  0  0  0
  -23.9853  -27.2981   19.0010 H   0  0  0  0  0  0
  -23.7602  -30.5879   19.4029 H   0  0  0  0  0  0
  -22.7617  -29.2405   19.8555 H   0  0  0  0  0  0
  -25.1317  -36.1959   25.0836 H   0  0  0  0  0  0
  -20.9999  -28.3289   24.1386 H   0  0  0  0  0  0
  -20.5694  -26.2321   23.3603 H   0  0  0  0  0  0
  -21.6657  -26.7440   22.1203 H   0  0  0  0  0  0
  -19.6922  -25.6294   21.1232 H   0  0  0  0  0  0
  -19.6690  -27.3201   20.6745 H   0  0  0  0  0  0
  -17.4214  -26.6685   21.4031 H   0  0  0  0  0  0
  -18.0345  -26.0063   22.9019 H   0  0  0  0  0  0
  -19.7943  -30.7289   24.2260 H   0  0  0  0  0  0
  -17.5010  -31.6255   24.5187 H   0  0  0  0  0  0
  -15.5358  -30.2991   23.7617 H   0  0  0  0  0  0
  -15.8694  -28.0807   22.7053 H   0  0  0  0  0  0
  -24.5885  -30.7077   25.7768 H   0  0  0  0  0  0
  -24.8927  -32.2889   26.4883 H   0  0  0  0  0  0
  -25.8034  -30.8869   27.0217 H   0  0  0  0  0  0
  -26.2911  -29.6724   24.1221 H   0  0  0  0  0  0
  -27.4027  -29.7254   25.4708 H   0  0  0  0  0  0
  -27.8790  -30.4268   23.9430 H   0  0  0  0  0  0
  -27.2668  -33.3600   26.2062 H   0  0  0  0  0  0
  -28.3841  -32.6875   25.0271 H   0  0  0  0  0  0
  -28.0755  -31.8427   26.5363 H   0  0  0  0  0  0
  -28.2707  -37.9993   24.7295 H   0  0  0  0  0  0
  -28.0909  -36.2523   24.6623 H   0  0  0  0  0  0
  -27.2235  -37.1877   25.8881 H   0  0  0  0  0  0
  -20.9400  -29.8757   21.6849 H   0  0  0  0  0  0
  -26.0213  -38.2847   24.1180 H   0  0  0  0  0  0
  -31.3904  -19.6610   19.0264 H   0  0  0  0  0  0
  -31.4604  -17.2815   19.3573 H   0  0  0  0  0  0
  -28.0683  -19.9885   21.7470 H   0  0  0  0  0  0
  -27.2175  -24.9871   21.0782 H   0  0  0  0  0  0
  -27.5964  -22.1762   20.1740 H   0  0  0  0  0  0
  -28.4384  -22.4386   21.7008 H   0  0  0  0  0  0
  -27.8691  -18.0329   23.3515 H   0  0  0  0  0  0
  -28.1087  -16.4107   22.7460 H   0  0  0  0  0  0
  -26.8759  -17.4454   22.0234 H   0  0  0  0  0  0
  -29.1843  -23.4654   17.4793 H   0  0  0  0  0  0
  -30.8384  -24.0371   17.3415 H   0  0  0  0  0  0
  -29.5544  -25.1648   17.7611 H   0  0  0  0  0  0
  -31.3786  -24.6654   21.0353 H   0  0  0  0  0  0
  -30.9538  -25.8487   19.8027 H   0  0  0  0  0  0
  -32.1916  -24.6512   19.4766 H   0  0  0  0  0  0
  -28.9352  -15.3594   21.3588 H   0  0  0  0  0  0
  1 25  1  0  0  0
  1 30  2  0  0  0
  1 86  1  0  0  0
  2  3  1  0  0  0
  2 25  1  0  0  0
  2 88  1  0  0  0
  2 89  1  0  0  0
  3  4  1  0  0  0
  3 90  1  0  0  0
  3 91  1  0  0  0
  4  5  1  0  0  0
  4 92  1  0  0  0
  4 93  1  0  0  0
  5  6  1  0  0  0
  5 26  1  0  0  0
  5 94  1  0  0  0
  6 25  1  0  0  0
  6 95  1  0  0  0
  6 96  1  0  0  0
  7  8  2  0  0  0
  7 26  1  0  0  0
  7 29  1  0  0  0
  8  9  1  0  0  0
  8 22  1  0  0  0
  9 10  1  0  0  0
  9 27  2  0  0  0
 10 11  2  0  0  0
 10 15  1  0  0  0
 11 12  1  0  0  0
 11 97  1  0  0  0
 12 13  2  0  0  0
 12 98  1  0  0  0
 13 14  1  0  0  0
 13 31  1  0  0  0
 14 15  2  0  0  0
 14 99  1  0  0  0
 15100  1  0  0  0
 16 17  2  0  0  0
 16 21  1  0  0  0
 16 31  1  0  0  0
 17 18  1  0  0  0
 17101  1  0  0  0
 18 19  2  0  0  0
 18102  1  0  0  0
 19 20  1  0  0  0
 19 24  1  0  0  0
 20 21  2  0  0  0
 20103  1  0  0  0
 21 23  1  0  0  0
 22 28  1  0  0  0
 22 32  2  0  0  0
 26 27  1  0  0  0
 28104  1  0  0  0
 28105  1  0  0  0
 29106  1  0  0  0
 29107  1  0  0  0
 33 34  1  0  0  0
 33 66  1  0  0  0
 33 70  2  0  0  0
 34 36  1  0  0  0
 34 59  1  0  0  0
 34108  1  0  0  0
 35 44  2  0  0  0
 35 45  1  0  0  0
 35 68  1  0  0  0
 36 56  1  0  0  0
 36109  1  0  0  0
 37 39  1  0  0  0
 37 47  1  0  0  0
 37 66  1  0  0  0
 37110  1  0  0  0
 38 43  2  0  0  0
 38 46  1  0  0  0
 38 47  1  0  0  0
 39 64  1  0  0  0
 39 67  2  0  0  0
 40 52  1  0  0  0
 40 53  2  0  0  0
 40 58  1  0  0  0
 41111  1  0  0  0
 41112  1  0  0  0
 41113  1  0  0  0
 41 48  1  0  0  0
 42 43  1  0  0  0
 42 66  1  0  0  0
 42114  1  0  0  0
 42115  1  0  0  0
 43 44  1  0  0  0
 44116  1  0  0  0
 45 46  2  0  0  0
 45117  1  0  0  0
 46118  1  0  0  0
 47119  1  0  0  0
 47120  1  0  0  0
 48 56  1  0  0  0
 48 65  1  0  0  0
 48121  1  0  0  0
 49 50  1  0  0  0
 49 53  1  0  0  0
 49 64  1  0  0  0
 49122  1  0  0  0
 50 51  1  0  0  0
 50123  1  0  0  0
 50124  1  0  0  0
 51 52  1  0  0  0
 51125  1  0  0  0
 51126  1  0  0  0
 52127  1  0  0  0
 52128  1  0  0  0
 53 54  1  0  0  0
 54 55  2  0  0  0
 54129  1  0  0  0
 55 57  1  0  0  0
 55130  1  0  0  0
 56 69  2  0  0  0
 57 58  2  0  0  0
 57131  1  0  0  0
 58132  1  0  0  0
 59 60  1  0  0  0
 59 61  1  0  0  0
 59 62  1  0  0  0
 60133  1  0  0  0
 60134  1  0  0  0
 60135  1  0  0  0
 61136  1  0  0  0
 61137  1  0  0  0
 61138  1  0  0  0
 62139  1  0  0  0
 62140  1  0  0  0
 62141  1  0  0  0
 63 65  1  0  0  0
 63142  1  0  0  0
 63143  1  0  0  0
 63144  1  0  0  0
 64145  1  0  0  0
 65146  1  0  0  0
 68 79  1  0  0  0
 71 72  2  0  0  0
 71 75  1  0  0  0
 71147  1  0  0  0
 72 76  1  0  0  0
 72148  1  0  0  0
 73 74  1  0  0  0
 73 75  2  0  0  0
 73149  1  0  0  0
 74 76  2  0  0  0
 74 82  1  0  0  0
 75 85  1  0  0  0
 76 86  1  0  0  0
 77 79  2  0  0  0
 77 80  1  0  0  0
 77 81  1  0  0  0
 78 81  1  0  0  0
 78 85  1  0  0  0
 78 87  2  0  0  0
 79150  1  0  0  0
 80 85  1  0  0  0
 80151  1  0  0  0
 80152  1  0  0  0
 81 83  1  0  0  0
 81 84  1  0  0  0
 82153  1  0  0  0
 82154  1  0  0  0
 82155  1  0  0  0
 83156  1  0  0  0
 83157  1  0  0  0
 83158  1  0  0  0
 84159  1  0  0  0
 84160  1  0  0  0
 84161  1  0  0  0
 86162  1  0  0  0
M  ISO  4   1 100  68 101  79 101  86 100
M  END
> <chiral flag>
0

> <version>
0

> <s_m_source_file>
/data/baiqing/PycharmProjects/Reinvent-master-3.2/result/LINK_invent/BTK/process_docking_weight1_custom_product_contain_oxygen_bond_distance_aromatic_linkinvent_7_9_3/rearranged_h_0073.sdf

> <i_m_source_file_index>
85

> <r_mmod_Potential_Energy-OPLS-2005>
150.142883300781

> <r_mmod_Stretch_Energy-OPLS-2005>
90.1680374145508

> <r_mmod_Bend_Energy-OPLS-2005>
174.059982299805

> <r_mmod_Torsional_Energy-OPLS-2005>
255.364669799805

> <r_mmod_Improper_Torsional_Energy-OPLS-2005>
4.62306308746338

> <r_mmod_Van_der_Waal_Energy-OPLS-2005>
142.494812011719

> <r_mmod_Electrostatic_Energy-OPLS-2005>
-364.161560058594

> <r_mmod_Solvation_Energy-OPLS-2005>
-207.687271118164

> <b_mmod_Minimization_Converged-OPLS-2005>
0

> <r_mmod_RMS_Derivative-OPLS-2005>
2.80744671821594

$$$$
85
                    3D
 Structure written by MMmdl.
150158  0  0  1  0            999 V2000
  -30.6068  -14.6767   20.4859 C   0  0  0  0  0  0
  -30.4403  -12.4122   19.4593 C   0  0  0  0  0  0
  -29.5106  -12.5080   18.2285 C   0  0  0  0  0  0
  -28.0338  -12.3410   18.6395 C   0  0  0  0  0  0
  -27.6511  -13.2185   19.8608 C   0  0  2  0  0  0
  -28.6960  -13.0917   20.9924 C   0  0  0  0  0  0
  -25.2554  -13.8173   20.5683 C   0  0  0  0  0  0
  -24.1826  -13.0438   20.9196 C   0  0  0  0  0  0
  -24.6396  -11.6908   20.8743 C   0  0  0  0  0  0
  -23.9064  -10.4291   21.0407 C   0  0  0  0  0  0
  -24.3616   -9.4207   21.9184 C   0  0  0  0  0  0
  -23.6290   -8.2243   22.0754 C   0  0  0  0  0  0
  -22.4273   -8.0281   21.3543 C   0  0  0  0  0  0
  -21.9908   -9.0256   20.4647 C   0  0  0  0  0  0
  -22.7236  -10.2135   20.3057 C   0  0  0  0  0  0
  -21.6854   -6.0735   22.5278 C   0  0  0  0  0  0
  -21.4016   -6.5639   23.8211 C   0  0  0  0  0  0
  -21.3659   -5.6791   24.9173 C   0  0  0  0  0  0
  -21.6043   -4.3054   24.7224 C   0  0  0  0  0  0
  -21.8819   -3.8146   23.4345 C   0  0  0  0  0  0
  -21.9193   -4.6962   22.3401 C   0  0  0  0  0  0
  -22.7848  -13.5230   21.1856 C   0  0  0  0  0  0
  -22.1661   -4.2148   21.0978 F   0  0  0  0  0  0
  -21.5628   -3.4538   25.7737 F   0  0  0  0  0  0
  -30.0074  -13.4426   20.4260 N   0  0  0  0  0  0
  -26.2979  -12.9355   20.3306 N   0  0  0  0  0  0
  -25.9324  -11.6510   20.5756 N   0  0  0  0  0  0
  -22.0488  -12.8225   22.0413 N   0  0  0  0  0  0
  -25.4263  -15.1897   20.4085 N   0  0  0  0  0  0
  -31.7770  -14.8269   20.1216 O   0  0  0  0  0  0
  -21.6639   -6.8878   21.4240 O   0  0  0  0  0  0
  -22.3534  -14.5535   20.6701 O   0  0  0  0  0  0
  -24.6279  -31.8583   23.2013 C   0  0  0  0  0  0
  -25.9118  -32.4771   23.8346 C   0  0  1  0  0  0
  -27.2233  -27.3013   20.1185 C   0  0  0  0  0  0
  -25.5926  -33.8572   24.2272 N   0  0  0  0  0  0
  -23.4224  -30.4821   21.5443 C   0  0  2  0  0  0
  -24.8689  -28.9355   20.1105 C   0  0  0  0  0  0
  -22.7483  -29.4617   22.4927 C   0  0  0  0  0  0
  -18.0288  -28.1385   22.8486 C   0  0  0  0  0  0
  -24.1489  -36.7292   23.2639 C   0  0  0  0  0  0
  -25.9655  -30.7838   21.3751 C   0  0  0  0  0  0
  -26.0393  -29.4103   20.7158 C   0  0  0  0  0  0
  -27.2195  -28.6055   20.7085 C   0  0  0  0  0  0
  -26.0280  -26.8849   19.4874 C   0  0  0  0  0  0
  -24.8664  -27.6793   19.4868 C   0  0  0  0  0  0
  -23.6379  -29.8177   20.1596 C   0  0  0  0  0  0
  -25.4114  -36.3079   24.0328 C   0  0  1  0  0  0
  -20.5890  -28.3691   23.1278 C   0  0  2  0  0  0
  -20.6776  -26.9412   22.5409 C   0  0  0  0  0  0
  -19.5751  -26.6383   21.5212 C   0  0  0  0  0  0
  -18.1932  -26.7927   22.1626 C   0  0  0  0  0  0
  -19.1541  -28.8855   23.2878 C   0  0  0  0  0  0
  -18.9463  -30.1457   23.8895 C   0  0  0  0  0  0
  -17.6462  -30.6587   24.0563 C   0  0  0  0  0  0
  -25.9052  -34.9448   23.5101 C   0  0  0  0  0  0
  -16.5354  -29.9085   23.6329 C   0  0  0  0  0  0
  -16.7275  -28.6503   23.0351 C   0  0  0  0  0  0
  -26.4495  -31.6587   25.0724 C   0  0  0  0  0  0
  -25.3724  -31.3732   26.1449 C   0  0  0  0  0  0
  -27.0341  -30.3007   24.6192 C   0  0  0  0  0  0
  -27.6050  -32.4327   25.7497 C   0  0  0  0  0  0
  -27.5579  -37.1801   24.8464 C   0  0  0  0  0  0
  -21.4195  -29.3044   22.3670 N   0  0  0  0  0  0
  -26.4291  -37.3774   23.9407 N   0  0  0  0  0  0
  -24.6909  -31.0582   22.0970 N   0  0  0  0  0  0
  -23.4200  -28.8155   23.3011 O   0  0  0  0  0  0
  -28.3346  -26.4386   20.1737 O   0  0  0  0  0  0
  -26.5622  -34.8918   22.4669 O   0  0  0  0  0  0
  -23.5438  -32.1387   23.7332 O   0  0  0  0  0  0
  -31.0735  -19.3280   20.1619 C   0  0  0  0  0  0
  -28.8199  -19.4610   20.9662 C   0  0  0  0  0  0
  -31.0390  -17.9004   20.2188 C   0  0  0  0  0  0
  -28.7843  -18.0277   21.0253 C   0  0  0  0  0  0
  -29.9793  -20.1639   20.5416 C   0  0  0  0  0  0
  -29.8924  -17.1981   20.6727 C   0  0  0  0  0  0
  -30.1830  -21.7020   20.6515 C   0  0  0  0  0  0
  -29.3055  -24.0265   20.4400 C   0  0  0  0  0  0
  -28.1051  -24.9690   20.0188 C   0  0  0  0  0  0
  -29.7812  -15.7336   20.8002 N   0  0  0  0  0  0
  -29.2078  -22.6402   20.3729 N   0  0  0  0  0  0
  -31.3264  -22.0403   20.9800 O   0  0  0  0  0  0
  -30.3264  -24.6080   20.8290 O   0  0  0  0  0  0
  -31.4808  -12.5424   19.1569 H   0  0  0  0  0  0
  -30.3822  -11.4208   19.9114 H   0  0  0  0  0  0
  -29.7809  -11.7508   17.4914 H   0  0  0  0  0  0
  -29.6475  -13.4737   17.7388 H   0  0  0  0  0  0
  -27.8758  -11.2886   18.8782 H   0  0  0  0  0  0
  -27.3792  -12.5619   17.7955 H   0  0  0  0  0  0
  -27.6629  -14.2502   19.5094 H   0  0  0  0  0  0
  -28.7157  -12.0742   21.3857 H   0  0  0  0  0  0
  -28.4372  -13.7320   21.8371 H   0  0  0  0  0  0
  -25.2763   -9.5681   22.4757 H   0  0  0  0  0  0
  -23.9999   -7.4635   22.7474 H   0  0  0  0  0  0
  -21.0838   -8.8777   19.8954 H   0  0  0  0  0  0
  -22.3696  -10.9675   19.6166 H   0  0  0  0  0  0
  -21.2011   -7.6147   23.9714 H   0  0  0  0  0  0
  -21.1480   -6.0522   25.9076 H   0  0  0  0  0  0
  -22.0599   -2.7608   23.2847 H   0  0  0  0  0  0
  -22.4103  -11.9889   22.4805 H   0  0  0  0  0  0
  -21.1107  -13.1257   22.2617 H   0  0  0  0  0  0
  -24.6543  -15.8401   20.5078 H   0  0  0  0  0  0
  -26.2636  -15.6250   20.0439 H   0  0  0  0  0  0
  -26.7186  -32.5435   23.1093 H   0  0  0  0  0  0
  -25.0067  -33.9712   25.0412 H   0  0  0  0  0  0
  -22.7170  -31.3033   21.4009 H   0  0  0  0  0  0
  -23.3749  -35.9627   23.3302 H   0  0  0  0  0  0
  -24.3580  -36.8914   22.2054 H   0  0  0  0  0  0
  -23.7245  -37.6495   23.6662 H   0  0  0  0  0  0
  -26.1000  -31.5474   20.6076 H   0  0  0  0  0  0
  -26.8447  -30.8314   22.0061 H   0  0  0  0  0  0
  -28.1166  -28.9648   21.1932 H   0  0  0  0  0  0
  -25.9595  -25.9267   18.9951 H   0  0  0  0  0  0
  -23.9699  -27.3109   19.0072 H   0  0  0  0  0  0
  -23.7587  -30.5946   19.4038 H   0  0  0  0  0  0
  -22.7572  -29.2488   19.8561 H   0  0  0  0  0  0
  -25.1295  -36.1930   25.0820 H   0  0  0  0  0  0
  -20.9983  -28.3268   24.1398 H   0  0  0  0  0  0
  -20.5678  -26.2301   23.3610 H   0  0  0  0  0  0
  -21.6645  -26.7440   22.1202 H   0  0  0  0  0  0
  -19.6912  -25.6294   21.1242 H   0  0  0  0  0  0
  -19.6687  -27.3192   20.6742 H   0  0  0  0  0  0
  -17.4199  -26.6671   21.4032 H   0  0  0  0  0  0
  -18.0336  -26.0071   22.9026 H   0  0  0  0  0  0
  -19.7938  -30.7274   24.2263 H   0  0  0  0  0  0
  -17.5016  -31.6266   24.5165 H   0  0  0  0  0  0
  -15.5354  -30.2987   23.7653 H   0  0  0  0  0  0
  -15.8676  -28.0821   22.7067 H   0  0  0  0  0  0
  -24.5895  -30.7087   25.7777 H   0  0  0  0  0  0
  -24.8923  -32.2903   26.4872 H   0  0  0  0  0  0
  -25.8044  -30.8908   27.0225 H   0  0  0  0  0  0
  -26.2921  -29.6756   24.1209 H   0  0  0  0  0  0
  -27.4025  -29.7265   25.4703 H   0  0  0  0  0  0
  -27.8796  -30.4288   23.9429 H   0  0  0  0  0  0
  -27.2653  -33.3625   26.2072 H   0  0  0  0  0  0
  -28.3860  -32.6892   25.0327 H   0  0  0  0  0  0
  -28.0717  -31.8456   26.5416 H   0  0  0  0  0  0
  -28.2594  -38.0101   24.7513 H   0  0  0  0  0  0
  -28.1079  -36.2632   24.6286 H   0  0  0  0  0  0
  -27.2298  -37.1445   25.8867 H   0  0  0  0  0  0
  -20.9373  -29.8771   21.6884 H   0  0  0  0  0  0
  -26.0172  -38.2849   24.1409 H   0  0  0  0  0  0
  -31.9968  -19.7957   19.8482 H   0  0  0  0  0  0
  -27.9556  -20.0182   21.2998 H   0  0  0  0  0  0
  -31.9261  -17.3565   19.9275 H   0  0  0  0  0  0
  -27.8748  -17.5622   21.3794 H   0  0  0  0  0  0
  -27.2398  -24.6693   20.6114 H   0  0  0  0  0  0
  -27.8774  -24.7506   18.9752 H   0  0  0  0  0  0
  -28.8733  -15.4168   21.1032 H   0  0  0  0  0  0
  -28.3231  -22.2684   20.0655 H   0  0  0  0  0  0
  1 25  1  0  0  0
  1 30  2  0  0  0
  1 80  1  0  0  0
  2  3  1  0  0  0
  2 25  1  0  0  0
  2 84  1  0  0  0
  2 85  1  0  0  0
  3  4  1  0  0  0
  3 86  1  0  0  0
  3 87  1  0  0  0
  4  5  1  0  0  0
  4 88  1  0  0  0
  4 89  1  0  0  0
  5  6  1  0  0  0
  5 26  1  0  0  0
  5 90  1  0  0  0
  6 25  1  0  0  0
  6 91  1  0  0  0
  6 92  1  0  0  0
  7  8  2  0  0  0
  7 26  1  0  0  0
  7 29  1  0  0  0
  8  9  1  0  0  0
  8 22  1  0  0  0
  9 10  1  0  0  0
  9 27  2  0  0  0
 10 11  2  0  0  0
 10 15  1  0  0  0
 11 12  1  0  0  0
 11 93  1  0  0  0
 12 13  2  0  0  0
 12 94  1  0  0  0
 13 14  1  0  0  0
 13 31  1  0  0  0
 14 15  2  0  0  0
 14 95  1  0  0  0
 15 96  1  0  0  0
 16 17  2  0  0  0
 16 21  1  0  0  0
 16 31  1  0  0  0
 17 18  1  0  0  0
 17 97  1  0  0  0
 18 19  2  0  0  0
 18 98  1  0  0  0
 19 20  1  0  0  0
 19 24  1  0  0  0
 20 21  2  0  0  0
 20 99  1  0  0  0
 21 23  1  0  0  0
 22 28  1  0  0  0
 22 32  2  0  0  0
 26 27  1  0  0  0
 28100  1  0  0  0
 28101  1  0  0  0
 29102  1  0  0  0
 29103  1  0  0  0
 33 34  1  0  0  0
 33 66  1  0  0  0
 33 70  2  0  0  0
 34 36  1  0  0  0
 34 59  1  0  0  0
 34104  1  0  0  0
 35 44  2  0  0  0
 35 45  1  0  0  0
 35 68  1  0  0  0
 36 56  1  0  0  0
 36105  1  0  0  0
 37 39  1  0  0  0
 37 47  1  0  0  0
 37 66  1  0  0  0
 37106  1  0  0  0
 38 43  2  0  0  0
 38 46  1  0  0  0
 38 47  1  0  0  0
 39 64  1  0  0  0
 39 67  2  0  0  0
 40 52  1  0  0  0
 40 53  2  0  0  0
 40 58  1  0  0  0
 41107  1  0  0  0
 41108  1  0  0  0
 41109  1  0  0  0
 41 48  1  0  0  0
 42 43  1  0  0  0
 42 66  1  0  0  0
 42110  1  0  0  0
 42111  1  0  0  0
 43 44  1  0  0  0
 44112  1  0  0  0
 45 46  2  0  0  0
 45113  1  0  0  0
 46114  1  0  0  0
 47115  1  0  0  0
 47116  1  0  0  0
 48 56  1  0  0  0
 48 65  1  0  0  0
 48117  1  0  0  0
 49 50  1  0  0  0
 49 53  1  0  0  0
 49 64  1  0  0  0
 49118  1  0  0  0
 50 51  1  0  0  0
 50119  1  0  0  0
 50120  1  0  0  0
 51 52  1  0  0  0
 51121  1  0  0  0
 51122  1  0  0  0
 52123  1  0  0  0
 52124  1  0  0  0
 53 54  1  0  0  0
 54 55  2  0  0  0
 54125  1  0  0  0
 55 57  1  0  0  0
 55126  1  0  0  0
 56 69  2  0  0  0
 57 58  2  0  0  0
 57127  1  0  0  0
 58128  1  0  0  0
 59 60  1  0  0  0
 59 61  1  0  0  0
 59 62  1  0  0  0
 60129  1  0  0  0
 60130  1  0  0  0
 60131  1  0  0  0
 61132  1  0  0  0
 61133  1  0  0  0
 61134  1  0  0  0
 62135  1  0  0  0
 62136  1  0  0  0
 62137  1  0  0  0
 63 65  1  0  0  0
 63138  1  0  0  0
 63139  1  0  0  0
 63140  1  0  0  0
 64141  1  0  0  0
 65142  1  0  0  0
 68 79  1  0  0  0
 71 73  2  0  0  0
 71 75  1  0  0  0
 71143  1  0  0  0
 72 74  1  0  0  0
 72 75  2  0  0  0
 72144  1  0  0  0
 73 76  1  0  0  0
 73145  1  0  0  0
 74 76  2  0  0  0
 74146  1  0  0  0
 75 77  1  0  0  0
 76 80  1  0  0  0
 77 81  1  0  0  0
 77 82  2  0  0  0
 78 79  1  0  0  0
 78 81  1  0  0  0
 78 83  2  0  0  0
 79147  1  0  0  0
 79148  1  0  0  0
 80149  1  0  0  0
 81150  1  0  0  0
M  ISO  4   1 100  68 101  79 101  80 100
M  END
> <chiral flag>
0

> <version>
0

> <s_m_source_file>
/data/baiqing/PycharmProjects/Reinvent-master-3.2/result/LINK_invent/BTK/process_docking_weight1_custom_product_contain_oxygen_bond_distance_aromatic_linkinvent_7_9_3/rearranged_h_0073.sdf

> <i_m_source_file_index>
86

> <r_mmod_Potential_Energy-OPLS-2005>
-55.1184234619141

> <r_mmod_Stretch_Energy-OPLS-2005>
92.2701950073242

> <r_mmod_Bend_Energy-OPLS-2005>
148.72624206543

> <r_mmod_Torsional_Energy-OPLS-2005>
220.304656982422

> <r_mmod_Improper_Torsional_Energy-OPLS-2005>
5.15767621994019

> <r_mmod_Van_der_Waal_Energy-OPLS-2005>
152.321136474609

> <r_mmod_Electrostatic_Energy-OPLS-2005>
-438.132751464844

> <r_mmod_Solvation_Energy-OPLS-2005>
-295.065979003906

> <b_mmod_Minimization_Converged-OPLS-2005>
0

> <r_mmod_RMS_Derivative-OPLS-2005>
0.221084013581276

$$$$
86
                    3D
 Structure written by MMmdl.
162171  0  0  1  0            999 V2000
  -30.7194  -14.4241   20.6020 C   0  0  0  0  0  0
  -30.4204  -12.2845   19.4131 C   0  0  0  0  0  0
  -29.4913  -12.5097   18.2030 C   0  0  0  0  0  0
  -28.0124  -12.3741   18.6158 C   0  0  0  0  0  0
  -27.6665  -13.2030   19.8818 C   0  0  2  0  0  0
  -28.7062  -12.9534   20.9986 C   0  0  0  0  0  0
  -25.2609  -13.8151   20.5699 C   0  0  0  0  0  0
  -24.1848  -13.0429   20.9170 C   0  0  0  0  0  0
  -24.6398  -11.6900   20.8727 C   0  0  0  0  0  0
  -23.9063  -10.4290   21.0409 C   0  0  0  0  0  0
  -24.3609   -9.4204   21.9195 C   0  0  0  0  0  0
  -23.6278   -8.2239   22.0757 C   0  0  0  0  0  0
  -22.4261   -8.0278   21.3547 C   0  0  0  0  0  0
  -21.9906   -9.0245   20.4641 C   0  0  0  0  0  0
  -22.7238  -10.2126   20.3055 C   0  0  0  0  0  0
  -21.6842   -6.0740   22.5288 C   0  0  0  0  0  0
  -21.4009   -6.5644   23.8223 C   0  0  0  0  0  0
  -21.3656   -5.6796   24.9181 C   0  0  0  0  0  0
  -21.6046   -4.3061   24.7235 C   0  0  0  0  0  0
  -21.8818   -3.8156   23.4352 C   0  0  0  0  0  0
  -21.9183   -4.6970   22.3405 C   0  0  0  0  0  0
  -22.7875  -13.5235   21.1836 C   0  0  0  0  0  0
  -22.1654   -4.2156   21.0984 F   0  0  0  0  0  0
  -21.5620   -3.4552   25.7749 F   0  0  0  0  0  0
  -30.0462  -13.2514   20.4569 N   0  0  0  0  0  0
  -26.3046  -12.9319   20.3393 N   0  0  0  0  0  0
  -25.9319  -11.6478   20.5748 N   0  0  0  0  0  0
  -22.0512  -12.8221   22.0390 N   0  0  0  0  0  0
  -25.4344  -15.1869   20.4164 N   0  0  0  0  0  0
  -31.8138  -14.6341   20.0708 O   0  0  0  0  0  0
  -21.6619   -6.8881   21.4250 O   0  0  0  0  0  0
  -22.3565  -14.5547   20.6696 O   0  0  0  0  0  0
  -24.6125  -31.8682   23.2125 C   0  0  0  0  0  0
  -25.9039  -32.4820   23.8404 C   0  0  1  0  0  0
  -27.2407  -27.4546   20.0938 C   0  0  0  0  0  0
  -25.5917  -33.8619   24.2349 N   0  0  0  0  0  0
  -23.3980  -30.4913   21.5522 C   0  0  2  0  0  0
  -24.8448  -28.9586   20.1154 C   0  0  0  0  0  0
  -22.7383  -29.4661   22.5010 C   0  0  0  0  0  0
  -18.0264  -28.1367   22.8494 C   0  0  0  0  0  0
  -24.1480  -36.7289   23.2644 C   0  0  0  0  0  0
  -25.9236  -30.8383   21.3632 C   0  0  0  0  0  0
  -26.0005  -29.4739   20.7132 C   0  0  0  0  0  0
  -27.1974  -28.7269   20.7032 C   0  0  0  0  0  0
  -26.0660  -26.9492   19.4864 C   0  0  0  0  0  0
  -24.8708  -27.6940   19.5026 C   0  0  0  0  0  0
  -23.6040  -29.8210   20.1667 C   0  0  0  0  0  0
  -25.4111  -36.3108   24.0338 C   0  0  1  0  0  0
  -20.5847  -28.3645   23.1315 C   0  0  2  0  0  0
  -20.6755  -26.9380   22.5414 C   0  0  0  0  0  0
  -19.5733  -26.6373   21.5210 C   0  0  0  0  0  0
  -18.1906  -26.7918   22.1607 C   0  0  0  0  0  0
  -19.1515  -28.8830   23.2898 C   0  0  0  0  0  0
  -18.9448  -30.1446   23.8894 C   0  0  0  0  0  0
  -17.6454  -30.6578   24.0569 C   0  0  0  0  0  0
  -25.9031  -34.9470   23.5131 C   0  0  0  0  0  0
  -16.5349  -29.9074   23.6344 C   0  0  0  0  0  0
  -16.7258  -28.6494   23.0361 C   0  0  0  0  0  0
  -26.4494  -31.6584   25.0712 C   0  0  0  0  0  0
  -25.3782  -31.3616   26.1460 C   0  0  0  0  0  0
  -27.0380  -30.3056   24.6054 C   0  0  0  0  0  0
  -27.6038  -32.4321   25.7506 C   0  0  0  0  0  0
  -27.5579  -37.1798   24.8481 C   0  0  0  0  0  0
  -21.4113  -29.3030   22.3742 N   0  0  0  0  0  0
  -26.4296  -37.3791   23.9416 N   0  0  0  0  0  0
  -24.6626  -31.0795   22.1020 N   0  0  0  0  0  0
  -23.4162  -28.8212   23.3050 O   0  0  0  0  0  0
  -28.4356  -26.7694   20.1205 O   0  0  0  0  0  0
  -26.5574  -34.8919   22.4680 O   0  0  0  0  0  0
  -23.5322  -32.1436   23.7527 O   0  0  0  0  0  0
  -31.3408  -18.8766   20.7344 C   0  0  0  0  0  0
  -31.3417  -17.4715   20.8564 C   0  0  0  0  0  0
  -28.9945  -17.5338   21.4748 C   0  0  0  0  0  0
  -30.1663  -19.6328   20.9581 C   0  0  0  0  0  0
  -30.1569  -16.7811   21.2049 C   0  0  0  0  0  0
  -28.9922  -18.9390   21.3511 C   0  0  0  0  0  0
  -31.2534  -21.8661   21.1219 C   0  0  0  0  0  0
  -31.9406  -21.7047   22.2656 C   0  0  0  0  0  0
  -29.6401  -24.6735   20.3277 C   0  0  0  0  0  0
  -31.6005  -22.9866   20.1417 C   0  0  0  0  0  0
  -29.4594  -22.5344   18.9147 C   0  0  0  0  0  0
  -29.0318  -21.5645   20.0255 C   0  0  0  0  0  0
  -30.3821  -23.6441   19.4505 C   0  0  1  0  0  0
  -28.4504  -25.4064   19.6950 C   0  0  0  0  0  0
  -30.1896  -21.0357   20.7560 N   0  0  0  0  0  0
  -30.0649  -15.3603   21.3118 N   0  0  0  0  0  0
  -29.9913  -24.9198   21.4869 O   0  0  0  0  0  0
  -27.8458  -19.6111   21.6245 F   0  0  0  0  0  0
  -31.4649  -12.3764   19.1108 H   0  0  0  0  0  0
  -30.3127  -11.2668   19.7919 H   0  0  0  0  0  0
  -29.7232  -11.7939   17.4132 H   0  0  0  0  0  0
  -29.6680  -13.4999   17.7797 H   0  0  0  0  0  0
  -27.8144  -11.3165   18.7999 H   0  0  0  0  0  0
  -27.3627  -12.6657   17.7901 H   0  0  0  0  0  0
  -27.7211  -14.2554   19.6011 H   0  0  0  0  0  0
  -28.6725  -11.9106   21.3172 H   0  0  0  0  0  0
  -28.4620  -13.5293   21.8921 H   0  0  0  0  0  0
  -25.2755   -9.5666   22.4778 H   0  0  0  0  0  0
  -23.9980   -7.4626   22.7481 H   0  0  0  0  0  0
  -21.0837   -8.8764   19.8940 H   0  0  0  0  0  0
  -22.3708  -10.9658   19.6155 H   0  0  0  0  0  0
  -21.2014   -7.6155   23.9731 H   0  0  0  0  0  0
  -21.1470   -6.0529   25.9080 H   0  0  0  0  0  0
  -22.0600   -2.7618   23.2859 H   0  0  0  0  0  0
  -22.4096  -11.9863   22.4769 H   0  0  0  0  0  0
  -21.1138  -13.1268   22.2595 H   0  0  0  0  0  0
  -24.6695  -15.8432   20.5286 H   0  0  0  0  0  0
  -26.2895  -15.6283   20.1044 H   0  0  0  0  0  0
  -26.7110  -32.5542   23.1171 H   0  0  0  0  0  0
  -25.0187  -33.9792   25.0576 H   0  0  0  0  0  0
  -22.6871  -31.3080   21.4117 H   0  0  0  0  0  0
  -23.3754  -35.9605   23.3320 H   0  0  0  0  0  0
  -24.3580  -36.8897   22.2058 H   0  0  0  0  0  0
  -23.7216  -37.6484   23.6655 H   0  0  0  0  0  0
  -26.0359  -31.6026   20.5933 H   0  0  0  0  0  0
  -26.8117  -30.8922   21.9800 H   0  0  0  0  0  0
  -28.0912  -29.1215   21.1660 H   0  0  0  0  0  0
  -26.0482  -25.9910   18.9884 H   0  0  0  0  0  0
  -23.9815  -27.2925   19.0368 H   0  0  0  0  0  0
  -23.7064  -30.5946   19.4049 H   0  0  0  0  0  0
  -22.7292  -29.2368   19.8742 H   0  0  0  0  0  0
  -25.1291  -36.1979   25.0827 H   0  0  0  0  0  0
  -20.9936  -28.3215   24.1433 H   0  0  0  0  0  0
  -20.5660  -26.2250   23.3601 H   0  0  0  0  0  0
  -21.6628  -26.7428   22.1203 H   0  0  0  0  0  0
  -19.6888  -25.6292   21.1223 H   0  0  0  0  0  0
  -19.6676  -27.3199   20.6752 H   0  0  0  0  0  0
  -17.4181  -26.6711   21.3997 H   0  0  0  0  0  0
  -18.0273  -26.0041   22.8974 H   0  0  0  0  0  0
  -19.7925  -30.7274   24.2243 H   0  0  0  0  0  0
  -17.5004  -31.6257   24.5175 H   0  0  0  0  0  0
  -15.5355  -30.2979   23.7667 H   0  0  0  0  0  0
  -15.8653  -28.0827   22.7064 H   0  0  0  0  0  0
  -24.6045  -30.6848   25.7820 H   0  0  0  0  0  0
  -24.8857  -32.2721   26.4875 H   0  0  0  0  0  0
  -25.8185  -30.8869   27.0238 H   0  0  0  0  0  0
  -26.2926  -29.6747   24.1191 H   0  0  0  0  0  0
  -27.4317  -29.7339   25.4474 H   0  0  0  0  0  0
  -27.8667  -30.4448   23.9103 H   0  0  0  0  0  0
  -27.2640  -33.3614   26.2091 H   0  0  0  0  0  0
  -28.3865  -32.6895   25.0358 H   0  0  0  0  0  0
  -28.0685  -31.8443   26.5435 H   0  0  0  0  0  0
  -28.2595  -38.0097   24.7542 H   0  0  0  0  0  0
  -28.1083  -36.2626   24.6316 H   0  0  0  0  0  0
  -27.2282  -37.1462   25.8881 H   0  0  0  0  0  0
  -20.9265  -29.8776   21.6991 H   0  0  0  0  0  0
  -26.0182  -38.2864   24.1425 H   0  0  0  0  0  0
  -32.2545  -19.3736   20.4415 H   0  0  0  0  0  0
  -32.2658  -16.9463   20.6664 H   0  0  0  0  0  0
  -28.0777  -17.0411   21.7632 H   0  0  0  0  0  0
  -32.7522  -22.3696   22.5284 H   0  0  0  0  0  0
  -31.7007  -20.9207   22.9706 H   0  0  0  0  0  0
  -32.2622  -22.5676   19.3832 H   0  0  0  0  0  0
  -32.1948  -23.7482   20.6509 H   0  0  0  0  0  0
  -28.5770  -22.9520   18.4302 H   0  0  0  0  0  0
  -29.9850  -21.9792   18.1366 H   0  0  0  0  0  0
  -28.4471  -20.7674   19.5644 H   0  0  0  0  0  0
  -28.3697  -22.0635   20.7351 H   0  0  0  0  0  0
  -30.7546  -24.2151   18.5995 H   0  0  0  0  0  0
  -27.5517  -24.8816   20.0181 H   0  0  0  0  0  0
  -28.5064  -25.3588   18.6072 H   0  0  0  0  0  0
  -29.2186  -15.0113   21.7346 H   0  0  0  0  0  0
  1 25  1  0  0  0
  1 30  2  0  0  0
  1 86  1  0  0  0
  2  3  1  0  0  0
  2 25  1  0  0  0
  2 89  1  0  0  0
  2 90  1  0  0  0
  3  4  1  0  0  0
  3 91  1  0  0  0
  3 92  1  0  0  0
  4  5  1  0  0  0
  4 93  1  0  0  0
  4 94  1  0  0  0
  5  6  1  0  0  0
  5 26  1  0  0  0
  5 95  1  0  0  0
  6 25  1  0  0  0
  6 96  1  0  0  0
  6 97  1  0  0  0
  7  8  2  0  0  0
  7 26  1  0  0  0
  7 29  1  0  0  0
  8  9  1  0  0  0
  8 22  1  0  0  0
  9 10  1  0  0  0
  9 27  2  0  0  0
 10 11  2  0  0  0
 10 15  1  0  0  0
 11 12  1  0  0  0
 11 98  1  0  0  0
 12 13  2  0  0  0
 12 99  1  0  0  0
 13 14  1  0  0  0
 13 31  1  0  0  0
 14 15  2  0  0  0
 14100  1  0  0  0
 15101  1  0  0  0
 16 17  2  0  0  0
 16 21  1  0  0  0
 16 31  1  0  0  0
 17 18  1  0  0  0
 17102  1  0  0  0
 18 19  2  0  0  0
 18103  1  0  0  0
 19 20  1  0  0  0
 19 24  1  0  0  0
 20 21  2  0  0  0
 20104  1  0  0  0
 21 23  1  0  0  0
 22 28  1  0  0  0
 22 32  2  0  0  0
 26 27  1  0  0  0
 28105  1  0  0  0
 28106  1  0  0  0
 29107  1  0  0  0
 29108  1  0  0  0
 33 34  1  0  0  0
 33 66  1  0  0  0
 33 70  2  0  0  0
 34 36  1  0  0  0
 34 59  1  0  0  0
 34109  1  0  0  0
 35 44  2  0  0  0
 35 45  1  0  0  0
 35 68  1  0  0  0
 36 56  1  0  0  0
 36110  1  0  0  0
 37 39  1  0  0  0
 37 47  1  0  0  0
 37 66  1  0  0  0
 37111  1  0  0  0
 38 43  2  0  0  0
 38 46  1  0  0  0
 38 47  1  0  0  0
 39 64  1  0  0  0
 39 67  2  0  0  0
 40 52  1  0  0  0
 40 53  2  0  0  0
 40 58  1  0  0  0
 41112  1  0  0  0
 41113  1  0  0  0
 41114  1  0  0  0
 41 48  1  0  0  0
 42 43  1  0  0  0
 42 66  1  0  0  0
 42115  1  0  0  0
 42116  1  0  0  0
 43 44  1  0  0  0
 44117  1  0  0  0
 45 46  2  0  0  0
 45118  1  0  0  0
 46119  1  0  0  0
 47120  1  0  0  0
 47121  1  0  0  0
 48 56  1  0  0  0
 48 65  1  0  0  0
 48122  1  0  0  0
 49 50  1  0  0  0
 49 53  1  0  0  0
 49 64  1  0  0  0
 49123  1  0  0  0
 50 51  1  0  0  0
 50124  1  0  0  0
 50125  1  0  0  0
 51 52  1  0  0  0
 51126  1  0  0  0
 51127  1  0  0  0
 52128  1  0  0  0
 52129  1  0  0  0
 53 54  1  0  0  0
 54 55  2  0  0  0
 54130  1  0  0  0
 55 57  1  0  0  0
 55131  1  0  0  0
 56 69  2  0  0  0
 57 58  2  0  0  0
 57132  1  0  0  0
 58133  1  0  0  0
 59 60  1  0  0  0
 59 61  1  0  0  0
 59 62  1  0  0  0
 60134  1  0  0  0
 60135  1  0  0  0
 60136  1  0  0  0
 61137  1  0  0  0
 61138  1  0  0  0
 61139  1  0  0  0
 62140  1  0  0  0
 62141  1  0  0  0
 62142  1  0  0  0
 63 65  1  0  0  0
 63143  1  0  0  0
 63144  1  0  0  0
 63145  1  0  0  0
 64146  1  0  0  0
 65147  1  0  0  0
 68 84  1  0  0  0
 71 72  2  0  0  0
 71 74  1  0  0  0
 71148  1  0  0  0
 72 75  1  0  0  0
 72149  1  0  0  0
 73 75  2  0  0  0
 73 76  1  0  0  0
 73150  1  0  0  0
 74 76  2  0  0  0
 74 85  1  0  0  0
 75 86  1  0  0  0
 76 88  1  0  0  0
 77 78  2  0  0  0
 77 80  1  0  0  0
 77 85  1  0  0  0
 78151  1  0  0  0
 78152  1  0  0  0
 79 84  1  0  0  0
 79 87  2  0  0  0
 79 83  1  0  0  0
 80 83  1  0  0  0
 80153  1  0  0  0
 80154  1  0  0  0
 81 82  1  0  0  0
 81 83  1  0  0  0
 81155  1  0  0  0
 81156  1  0  0  0
 82 85  1  0  0  0
 82157  1  0  0  0
 82158  1  0  0  0
 83159  1  0  0  0
 84160  1  0  0  0
 84161  1  0  0  0
 86162  1  0  0  0
M  ISO  4   1 100  68 101  84 101  86 100
M  END
> <chiral flag>
0

> <version>
0

> <s_m_source_file>
/data/baiqing/PycharmProjects/Reinvent-master-3.2/result/LINK_invent/BTK/process_docking_weight1_custom_product_contain_oxygen_bond_distance_aromatic_linkinvent_7_9_3/rearranged_h_0073.sdf

> <i_m_source_file_index>
87

> <r_mmod_Potential_Energy-OPLS-2005>
-8.04764747619629

> <r_mmod_Stretch_Energy-OPLS-2005>
37.6169471740723

> <r_mmod_Bend_Energy-OPLS-2005>
103.532196044922

> <r_mmod_Torsional_Energy-OPLS-2005>
240.569091796875

> <r_mmod_Improper_Torsional_Energy-OPLS-2005>
3.46460580825806

> <r_mmod_Van_der_Waal_Energy-OPLS-2005>
174.371459960938

> <r_mmod_Electrostatic_Energy-OPLS-2005>
-348.722503662109

> <r_mmod_Solvation_Energy-OPLS-2005>
-228.154281616211

> <b_mmod_Minimization_Converged-OPLS-2005>
0

> <r_mmod_RMS_Derivative-OPLS-2005>
1.52886652946472

$$$$
87
                    3D
 Structure written by MMmdl.
156165  0  0  1  0            999 V2000
  -30.6101  -14.7958   20.5986 C   0  0  0  0  0  0
  -30.4272  -12.5171   19.5068 C   0  0  0  0  0  0
  -29.5181  -12.5396   18.2537 C   0  0  0  0  0  0
  -28.0465  -12.3208   18.6448 C   0  0  0  0  0  0
  -27.6262  -13.2273   19.8241 C   0  0  2  0  0  0
  -28.6411  -13.1693   20.9717 C   0  0  0  0  0  0
  -25.2435  -13.8155   20.5638 C   0  0  0  0  0  0
  -24.1749  -13.0397   20.9176 C   0  0  0  0  0  0
  -24.6331  -11.6868   20.8686 C   0  0  0  0  0  0
  -23.9006  -10.4258   21.0377 C   0  0  0  0  0  0
  -24.3567   -9.4185   21.9152 C   0  0  0  0  0  0
  -23.6255   -8.2218   22.0733 C   0  0  0  0  0  0
  -22.4247   -8.0236   21.3529 C   0  0  0  0  0  0
  -21.9865   -9.0190   20.4640 C   0  0  0  0  0  0
  -22.7173  -10.2080   20.3043 C   0  0  0  0  0  0
  -21.6829   -6.0723   22.5305 C   0  0  0  0  0  0
  -21.4000   -6.5643   23.8235 C   0  0  0  0  0  0
  -21.3662   -5.6805   24.9203 C   0  0  0  0  0  0
  -21.6037   -4.3062   24.7258 C   0  0  0  0  0  0
  -21.8805   -3.8145   23.4382 C   0  0  0  0  0  0
  -21.9180   -4.6957   22.3434 C   0  0  0  0  0  0
  -22.7797  -13.5191   21.1906 C   0  0  0  0  0  0
  -22.1661   -4.2145   21.1011 F   0  0  0  0  0  0
  -21.5623   -3.4551   25.7772 F   0  0  0  0  0  0
  -29.9660  -13.5667   20.4588 N   0  0  0  0  0  0
  -26.2800  -12.9352   20.3032 N   0  0  0  0  0  0
  -25.9229  -11.6502   20.5585 N   0  0  0  0  0  0
  -22.0472  -12.8167   22.0481 N   0  0  0  0  0  0
  -25.4155  -15.1874   20.4160 N   0  0  0  0  0  0
  -31.7133  -14.9410   20.0626 O   0  0  0  0  0  0
  -21.6610   -6.8840   21.4248 O   0  0  0  0  0  0
  -22.3475  -14.5509   20.6784 O   0  0  0  0  0  0
  -24.6363  -31.8529   23.1947 C   0  0  0  0  0  0
  -25.9179  -32.4743   23.8293 C   0  0  1  0  0  0
  -27.2252  -27.2426   20.1069 C   0  0  0  0  0  0
  -25.5953  -33.8541   24.2235 N   0  0  0  0  0  0
  -23.4345  -30.4758   21.5393 C   0  0  2  0  0  0
  -24.8806  -28.9187   20.1065 C   0  0  0  0  0  0
  -22.7531  -29.4611   22.4883 C   0  0  0  0  0  0
  -18.0311  -28.1439   22.8485 C   0  0  0  0  0  0
  -24.1501  -36.7270   23.2646 C   0  0  0  0  0  0
  -25.9837  -30.7561   21.3793 C   0  0  0  0  0  0
  -26.0543  -29.3791   20.7158 C   0  0  0  0  0  0
  -27.2282  -28.5517   20.7070 C   0  0  0  0  0  0
  -26.0206  -26.8513   19.4800 C   0  0  0  0  0  0
  -24.8685  -27.6641   19.4787 C   0  0  0  0  0  0
  -23.6546  -29.8100   20.1553 C   0  0  0  0  0  0
  -25.4131  -36.3059   24.0328 C   0  0  1  0  0  0
  -20.5922  -28.3760   23.1248 C   0  0  2  0  0  0
  -20.6809  -26.9470   22.5413 C   0  0  0  0  0  0
  -19.5772  -26.6420   21.5230 C   0  0  0  0  0  0
  -18.1952  -26.7977   22.1638 C   0  0  0  0  0  0
  -19.1567  -28.8907   23.2873 C   0  0  0  0  0  0
  -18.9485  -30.1505   23.8901 C   0  0  0  0  0  0
  -17.6481  -30.6623   24.0578 C   0  0  0  0  0  0
  -25.9065  -34.9432   23.5083 C   0  0  0  0  0  0
  -16.5375  -29.9126   23.6338 C   0  0  0  0  0  0
  -16.7296  -28.6553   23.0344 C   0  0  0  0  0  0
  -26.4516  -31.6568   25.0695 C   0  0  0  0  0  0
  -25.3692  -31.3763   26.1385 C   0  0  0  0  0  0
  -27.0364  -30.2972   24.6210 C   0  0  0  0  0  0
  -27.6073  -32.4295   25.7473 C   0  0  0  0  0  0
  -27.5575  -37.1818   24.8481 C   0  0  0  0  0  0
  -21.4234  -29.3087   22.3625 N   0  0  0  0  0  0
  -26.4309  -37.3745   23.9392 N   0  0  0  0  0  0
  -24.7040  -31.0458   22.0950 N   0  0  0  0  0  0
  -23.4210  -28.8142   23.2997 O   0  0  0  0  0  0
  -28.3044  -26.3209   20.2018 O   0  0  0  0  0  0
  -26.5637  -34.8908   22.4657 O   0  0  0  0  0  0
  -23.5509  -32.1381   23.7223 O   0  0  0  0  0  0
  -29.8862  -19.7949   21.6569 C   0  0  0  0  0  0
  -29.1309  -19.2174   19.5299 C   0  0  0  0  0  0
  -30.2128  -18.4211   21.9481 C   0  0  0  0  0  0
  -29.3256  -20.3048   20.4518 C   0  0  0  0  0  0
  -29.9304  -17.3294   21.0315 C   0  0  0  0  0  0
  -29.3990  -17.8166   19.7938 C   0  0  0  0  0  0
  -28.6406  -23.7657   19.8013 C   0  0  0  0  0  0
  -29.0192  -23.0059   20.9938 C   0  0  0  0  0  0
  -28.3281  -25.0919   19.4713 C   0  0  0  0  0  0
  -28.7270  -22.4406   18.9856 C   0  0  0  0  0  0
  -30.9437  -18.2377   23.2775 C   0  0  0  0  0  0
  -29.8688  -15.4750   22.7793 C   0  0  0  0  0  0
  -29.0153  -21.7679   20.2713 N   0  0  0  0  0  0
  -30.0492  -15.8409   21.3590 N   0  0  0  0  0  0
  -29.2540  -23.3646   22.1308 O   0  0  0  0  0  0
  -29.0923  -16.9159   18.8296 F   0  0  0  0  0  0
  -31.4688  -12.6603   19.2129 H   0  0  0  0  0  0
  -30.3937  -11.5341   19.9851 H   0  0  0  0  0  0
  -29.8329  -11.7750   17.5433 H   0  0  0  0  0  0
  -29.6245  -13.4972   17.7397 H   0  0  0  0  0  0
  -27.9257  -11.2748   18.9297 H   0  0  0  0  0  0
  -27.3890  -12.4826   17.7892 H   0  0  0  0  0  0
  -27.6185  -14.2476   19.4370 H   0  0  0  0  0  0
  -28.6838  -12.1746   21.4182 H   0  0  0  0  0  0
  -28.2423  -13.8292   21.7356 H   0  0  0  0  0  0
  -25.2712   -9.5697   22.4716 H   0  0  0  0  0  0
  -23.9983   -7.4629   22.7462 H   0  0  0  0  0  0
  -21.0787   -8.8674   19.8961 H   0  0  0  0  0  0
  -22.3583  -10.9594   19.6159 H   0  0  0  0  0  0
  -21.1982   -7.6152   23.9742 H   0  0  0  0  0  0
  -21.1507   -6.0543   25.9107 H   0  0  0  0  0  0
  -22.0574   -2.7605   23.2902 H   0  0  0  0  0  0
  -22.4106  -11.9810   22.4819 H   0  0  0  0  0  0
  -21.1103  -13.1196   22.2732 H   0  0  0  0  0  0
  -24.6533  -15.8447   20.5433 H   0  0  0  0  0  0
  -26.2688  -15.6245   20.0893 H   0  0  0  0  0  0
  -26.7236  -32.5374   23.1019 H   0  0  0  0  0  0
  -25.0076  -33.9650   25.0368 H   0  0  0  0  0  0
  -22.7335  -31.3004   21.3906 H   0  0  0  0  0  0
  -23.3737  -35.9626   23.3350 H   0  0  0  0  0  0
  -24.3564  -36.8846   22.2043 H   0  0  0  0  0  0
  -23.7275  -37.6500   23.6635 H   0  0  0  0  0  0
  -26.1283  -31.5129   20.6073 H   0  0  0  0  0  0
  -26.8602  -30.8032   22.0144 H   0  0  0  0  0  0
  -28.1269  -28.8926   21.2003 H   0  0  0  0  0  0
  -25.9328  -25.8811   19.0146 H   0  0  0  0  0  0
  -23.9656  -27.3036   19.0044 H   0  0  0  0  0  0
  -23.7882  -30.5874   19.4027 H   0  0  0  0  0  0
  -22.7696  -29.2515   19.8448 H   0  0  0  0  0  0
  -25.1313  -36.1911   25.0816 H   0  0  0  0  0  0
  -21.0032  -28.3371   24.1366 H   0  0  0  0  0  0
  -20.5757  -26.2366   23.3637 H   0  0  0  0  0  0
  -21.6666  -26.7518   22.1172 H   0  0  0  0  0  0
  -19.6935  -25.6325   21.1278 H   0  0  0  0  0  0
  -19.6707  -27.3218   20.6750 H   0  0  0  0  0  0
  -17.4227  -26.6738   21.4041 H   0  0  0  0  0  0
  -18.0347  -26.0133   22.9043 H   0  0  0  0  0  0
  -19.7950  -30.7332   24.2280 H   0  0  0  0  0  0
  -17.5027  -31.6297   24.5203 H   0  0  0  0  0  0
  -15.5375  -30.3037   23.7658 H   0  0  0  0  0  0
  -15.8698  -28.0883   22.7046 H   0  0  0  0  0  0
  -24.5872  -30.7121   25.7694 H   0  0  0  0  0  0
  -24.8869  -32.2952   26.4725 H   0  0  0  0  0  0
  -25.7943  -30.8977   27.0212 H   0  0  0  0  0  0
  -26.2970  -29.6711   24.1210 H   0  0  0  0  0  0
  -27.4013  -29.7245   25.4741 H   0  0  0  0  0  0
  -27.8847  -30.4226   23.9482 H   0  0  0  0  0  0
  -27.2700  -33.3611   26.2022 H   0  0  0  0  0  0
  -28.3900  -32.6836   25.0315 H   0  0  0  0  0  0
  -28.0715  -31.8427   26.5407 H   0  0  0  0  0  0
  -28.2654  -38.0057   24.7431 H   0  0  0  0  0  0
  -28.1016  -36.2579   24.6438 H   0  0  0  0  0  0
  -27.2274  -37.1620   25.8885 H   0  0  0  0  0  0
  -20.9459  -29.8745   21.6753 H   0  0  0  0  0  0
  -26.0193  -38.2839   24.1311 H   0  0  0  0  0  0
  -30.0945  -20.5309   22.4214 H   0  0  0  0  0  0
  -28.7265  -19.4565   18.5563 H   0  0  0  0  0  0
  -28.1002  -25.2980   18.4337 H   0  0  0  0  0  0
  -29.5677  -22.3415   18.2953 H   0  0  0  0  0  0
  -27.8080  -22.0748   18.5234 H   0  0  0  0  0  0
  -30.2986  -17.8030   24.0432 H   0  0  0  0  0  0
  -31.2994  -19.1824   23.6931 H   0  0  0  0  0  0
  -31.8315  -17.6196   23.1417 H   0  0  0  0  0  0
  -28.9948  -15.9786   23.1975 H   0  0  0  0  0  0
  -30.7457  -15.7230   23.3687 H   0  0  0  0  0  0
  -29.7589  -14.4135   22.9848 H   0  0  0  0  0  0
  1 25  1  0  0  0
  1 30  2  0  0  0
  1 84  1  0  0  0
  2  3  1  0  0  0
  2 25  1  0  0  0
  2 87  1  0  0  0
  2 88  1  0  0  0
  3  4  1  0  0  0
  3 89  1  0  0  0
  3 90  1  0  0  0
  4  5  1  0  0  0
  4 91  1  0  0  0
  4 92  1  0  0  0
  5  6  1  0  0  0
  5 26  1  0  0  0
  5 93  1  0  0  0
  6 25  1  0  0  0
  6 94  1  0  0  0
  6 95  1  0  0  0
  7  8  2  0  0  0
  7 26  1  0  0  0
  7 29  1  0  0  0
  8  9  1  0  0  0
  8 22  1  0  0  0
  9 10  1  0  0  0
  9 27  2  0  0  0
 10 11  2  0  0  0
 10 15  1  0  0  0
 11 12  1  0  0  0
 11 96  1  0  0  0
 12 13  2  0  0  0
 12 97  1  0  0  0
 13 14  1  0  0  0
 13 31  1  0  0  0
 14 15  2  0  0  0
 14 98  1  0  0  0
 15 99  1  0  0  0
 16 17  2  0  0  0
 16 21  1  0  0  0
 16 31  1  0  0  0
 17 18  1  0  0  0
 17100  1  0  0  0
 18 19  2  0  0  0
 18101  1  0  0  0
 19 20  1  0  0  0
 19 24  1  0  0  0
 20 21  2  0  0  0
 20102  1  0  0  0
 21 23  1  0  0  0
 22 28  1  0  0  0
 22 32  2  0  0  0
 26 27  1  0  0  0
 28103  1  0  0  0
 28104  1  0  0  0
 29105  1  0  0  0
 29106  1  0  0  0
 33 34  1  0  0  0
 33 66  1  0  0  0
 33 70  2  0  0  0
 34 36  1  0  0  0
 34 59  1  0  0  0
 34107  1  0  0  0
 35 44  2  0  0  0
 35 45  1  0  0  0
 35 68  1  0  0  0
 36 56  1  0  0  0
 36108  1  0  0  0
 37 39  1  0  0  0
 37 47  1  0  0  0
 37 66  1  0  0  0
 37109  1  0  0  0
 38 43  2  0  0  0
 38 46  1  0  0  0
 38 47  1  0  0  0
 39 64  1  0  0  0
 39 67  2  0  0  0
 40 52  1  0  0  0
 40 53  2  0  0  0
 40 58  1  0  0  0
 41110  1  0  0  0
 41111  1  0  0  0
 41112  1  0  0  0
 41 48  1  0  0  0
 42 43  1  0  0  0
 42 66  1  0  0  0
 42113  1  0  0  0
 42114  1  0  0  0
 43 44  1  0  0  0
 44115  1  0  0  0
 45 46  2  0  0  0
 45116  1  0  0  0
 46117  1  0  0  0
 47118  1  0  0  0
 47119  1  0  0  0
 48 56  1  0  0  0
 48 65  1  0  0  0
 48120  1  0  0  0
 49 50  1  0  0  0
 49 53  1  0  0  0
 49 64  1  0  0  0
 49121  1  0  0  0
 50 51  1  0  0  0
 50122  1  0  0  0
 50123  1  0  0  0
 51 52  1  0  0  0
 51124  1  0  0  0
 51125  1  0  0  0
 52126  1  0  0  0
 52127  1  0  0  0
 53 54  1  0  0  0
 54 55  2  0  0  0
 54128  1  0  0  0
 55 57  1  0  0  0
 55129  1  0  0  0
 56 69  2  0  0  0
 57 58  2  0  0  0
 57130  1  0  0  0
 58131  1  0  0  0
 59 60  1  0  0  0
 59 61  1  0  0  0
 59 62  1  0  0  0
 60132  1  0  0  0
 60133  1  0  0  0
 60134  1  0  0  0
 61135  1  0  0  0
 61136  1  0  0  0
 61137  1  0  0  0
 62138  1  0  0  0
 62139  1  0  0  0
 62140  1  0  0  0
 63 65  1  0  0  0
 63141  1  0  0  0
 63142  1  0  0  0
 63143  1  0  0  0
 64144  1  0  0  0
 65145  1  0  0  0
 68 79  1  0  0  0
 71 73  2  0  0  0
 71 74  1  0  0  0
 71146  1  0  0  0
 72 74  2  0  0  0
 72 76  1  0  0  0
 72147  1  0  0  0
 73 75  1  0  0  0
 73 81  1  0  0  0
 74 83  1  0  0  0
 75 76  2  0  0  0
 75 84  1  0  0  0
 76 86  1  0  0  0
 77 78  1  0  0  0
 77 79  2  0  0  0
 77 80  1  0  0  0
 78 83  1  0  0  0
 78 85  2  0  0  0
 79148  1  0  0  0
 80 83  1  0  0  0
 80149  1  0  0  0
 80150  1  0  0  0
 81151  1  0  0  0
 81152  1  0  0  0
 81153  1  0  0  0
 82 84  1  0  0  0
 82154  1  0  0  0
 82155  1  0  0  0
 82156  1  0  0  0
M  ISO  4   1 100  68 101  79 101  84 100
M  END
> <chiral flag>
0

> <version>
0

> <s_m_source_file>
/data/baiqing/PycharmProjects/Reinvent-master-3.2/result/LINK_invent/BTK/process_docking_weight1_custom_product_contain_oxygen_bond_distance_aromatic_linkinvent_7_9_3/rearranged_h_0073.sdf

> <i_m_source_file_index>
88

> <r_mmod_Potential_Energy-OPLS-2005>
460.211029052734

> <r_mmod_Stretch_Energy-OPLS-2005>
147.459609985352

> <r_mmod_Bend_Energy-OPLS-2005>
276.580474853516

> <r_mmod_Torsional_Energy-OPLS-2005>
292.345947265625

> <r_mmod_Improper_Torsional_Energy-OPLS-2005>
3.35591411590576

> <r_mmod_Van_der_Waal_Energy-OPLS-2005>
152.769912719727

> <r_mmod_Electrostatic_Energy-OPLS-2005>
-311.039459228516

> <r_mmod_Solvation_Energy-OPLS-2005>
-208.04248046875

> <b_mmod_Minimization_Converged-OPLS-2005>
0

> <r_mmod_RMS_Derivative-OPLS-2005>
4.35341548919678

$$$$
88
                    3D
 Structure written by MMmdl.
161170  0  0  1  0            999 V2000
  -30.6776  -14.6489   20.4948 C   0  0  0  0  0  0
  -30.4197  -12.3971   19.4685 C   0  0  0  0  0  0
  -29.5031  -12.5018   18.2317 C   0  0  0  0  0  0
  -28.0278  -12.3427   18.6437 C   0  0  0  0  0  0
  -27.6477  -13.2295   19.8601 C   0  0  2  0  0  0
  -28.6929  -13.1341   20.9957 C   0  0  0  0  0  0
  -25.2529  -13.8202   20.5706 C   0  0  0  0  0  0
  -24.1812  -13.0448   20.9206 C   0  0  0  0  0  0
  -24.6400  -11.6925   20.8752 C   0  0  0  0  0  0
  -23.9076  -10.4300   21.0410 C   0  0  0  0  0  0
  -24.3626   -9.4211   21.9185 C   0  0  0  0  0  0
  -23.6299   -8.2247   22.0754 C   0  0  0  0  0  0
  -22.4281   -8.0286   21.3545 C   0  0  0  0  0  0
  -21.9920   -9.0260   20.4647 C   0  0  0  0  0  0
  -22.7249  -10.2139   20.3058 C   0  0  0  0  0  0
  -21.6855   -6.0739   22.5279 C   0  0  0  0  0  0
  -21.4014   -6.5642   23.8212 C   0  0  0  0  0  0
  -21.3660   -5.6793   24.9173 C   0  0  0  0  0  0
  -21.6045   -4.3056   24.7223 C   0  0  0  0  0  0
  -21.8819   -3.8149   23.4343 C   0  0  0  0  0  0
  -21.9194   -4.6967   22.3401 C   0  0  0  0  0  0
  -22.7832  -13.5229   21.1861 C   0  0  0  0  0  0
  -22.1662   -4.2153   21.0978 F   0  0  0  0  0  0
  -21.5629   -3.4539   25.7735 F   0  0  0  0  0  0
  -30.0062  -13.4530   20.4201 N   0  0  0  0  0  0
  -26.2967  -12.9410   20.3331 N   0  0  0  0  0  0
  -25.9334  -11.6551   20.5779 N   0  0  0  0  0  0
  -22.0479  -12.8216   22.0416 N   0  0  0  0  0  0
  -25.4221  -15.1926   20.4111 N   0  0  0  0  0  0
  -31.8363  -14.7151   20.0838 O   0  0  0  0  0  0
  -21.6643   -6.8883   21.4241 O   0  0  0  0  0  0
  -22.3516  -14.5535   20.6709 O   0  0  0  0  0  0
  -24.6262  -31.8597   23.2038 C   0  0  0  0  0  0
  -25.9109  -32.4780   23.8367 C   0  0  1  0  0  0
  -27.2170  -27.3227   20.1194 C   0  0  0  0  0  0
  -25.5926  -33.8582   24.2292 N   0  0  0  0  0  0
  -23.4215  -30.4837   21.5450 C   0  0  2  0  0  0
  -24.8717  -28.9475   20.1016 C   0  0  0  0  0  0
  -22.7486  -29.4617   22.4924 C   0  0  0  0  0  0
  -18.0288  -28.1387   22.8486 C   0  0  0  0  0  0
  -24.1488  -36.7291   23.2637 C   0  0  0  0  0  0
  -25.9634  -30.7910   21.3779 C   0  0  0  0  0  0
  -26.0397  -29.4210   20.7159 C   0  0  0  0  0  0
  -27.2197  -28.6174   20.7220 C   0  0  0  0  0  0
  -26.0417  -26.9165   19.4528 C   0  0  0  0  0  0
  -24.8746  -27.7004   19.4587 C   0  0  0  0  0  0
  -23.6371  -29.8233   20.1579 C   0  0  0  0  0  0
  -25.4112  -36.3085   24.0331 C   0  0  1  0  0  0
  -20.5890  -28.3690   23.1278 C   0  0  2  0  0  0
  -20.6778  -26.9411   22.5409 C   0  0  0  0  0  0
  -19.5753  -26.6383   21.5214 C   0  0  0  0  0  0
  -18.1932  -26.7930   22.1624 C   0  0  0  0  0  0
  -19.1542  -28.8855   23.2878 C   0  0  0  0  0  0
  -18.9464  -30.1458   23.8894 C   0  0  0  0  0  0
  -17.6463  -30.6589   24.0562 C   0  0  0  0  0  0
  -25.9049  -34.9453   23.5110 C   0  0  0  0  0  0
  -16.5353  -29.9085   23.6333 C   0  0  0  0  0  0
  -16.7275  -28.6504   23.0352 C   0  0  0  0  0  0
  -26.4495  -31.6586   25.0733 C   0  0  0  0  0  0
  -25.3731  -31.3721   26.1460 C   0  0  0  0  0  0
  -27.0338  -30.3009   24.6186 C   0  0  0  0  0  0
  -27.6058  -32.4319   25.7499 C   0  0  0  0  0  0
  -27.5583  -37.1797   24.8463 C   0  0  0  0  0  0
  -21.4197  -29.3041   22.3670 N   0  0  0  0  0  0
  -26.4291  -37.3780   23.9413 N   0  0  0  0  0  0
  -24.6888  -31.0610   22.0989 N   0  0  0  0  0  0
  -23.4208  -28.8153   23.3002 O   0  0  0  0  0  0
  -28.2563  -26.3862   20.2194 O   0  0  0  0  0  0
  -26.5615  -34.8917   22.4675 O   0  0  0  0  0  0
  -23.5422  -32.1393   23.7361 O   0  0  0  0  0  0
  -29.5616  -18.3888   20.7224 C   0  0  0  0  0  0
  -30.4104  -17.1923   20.8496 C   0  0  0  0  0  0
  -30.2202  -19.6326   20.8349 C   0  0  0  0  0  0
  -31.7074  -17.5772   21.0686 C   0  0  0  0  0  0
  -30.3283  -21.9665   21.5510 C   0  0  0  0  0  0
  -28.1189  -22.8182   19.8690 C   0  0  0  0  0  0
  -28.5165  -21.2922   20.0320 C   0  0  0  0  0  0
  -29.9366  -23.4793   21.3417 C   0  0  1  0  0  0
  -28.4106  -23.7059   21.1125 C   0  0  2  0  0  0
  -30.5153  -24.3905   22.4508 C   0  0  0  0  0  0
  -27.5969  -23.1069   22.3025 C   0  0  0  0  0  0
  -27.8750  -25.2355   21.0715 C   0  0  0  0  0  0
  -29.7465  -20.9603   20.8075 N   0  0  0  0  0  0
  -29.9665  -15.7844   20.8202 N   0  0  0  0  0  0
  -31.1527  -21.7264   22.4399 O   0  0  0  0  0  0
  -32.7430  -16.7593   21.3706 F   0  0  0  0  0  0
  -31.9513  -19.2918   20.9898 S   0  0  0  0  0  0
  -31.4652  -12.4832   19.1678 H   0  0  0  0  0  0
  -30.3287  -11.4140   19.9328 H   0  0  0  0  0  0
  -29.7701  -11.7405   17.4974 H   0  0  0  0  0  0
  -29.6489  -13.4659   17.7419 H   0  0  0  0  0  0
  -27.8680  -11.2920   18.8882 H   0  0  0  0  0  0
  -27.3729  -12.5596   17.7989 H   0  0  0  0  0  0
  -27.6533  -14.2576   19.4972 H   0  0  0  0  0  0
  -28.7042  -12.1327   21.4285 H   0  0  0  0  0  0
  -28.4415  -13.8133   21.8116 H   0  0  0  0  0  0
  -25.2771   -9.5687   22.4759 H   0  0  0  0  0  0
  -24.0010   -7.4639   22.7473 H   0  0  0  0  0  0
  -21.0851   -8.8781   19.8951 H   0  0  0  0  0  0
  -22.3709  -10.9679   19.6167 H   0  0  0  0  0  0
  -21.2003   -7.6149   23.9717 H   0  0  0  0  0  0
  -21.1484   -6.0522   25.9077 H   0  0  0  0  0  0
  -22.0597   -2.7612   23.2841 H   0  0  0  0  0  0
  -22.4098  -11.9876   22.4798 H   0  0  0  0  0  0
  -21.1095  -13.1237   22.2624 H   0  0  0  0  0  0
  -24.6520  -15.8443   20.5166 H   0  0  0  0  0  0
  -26.2645  -15.6316   20.0627 H   0  0  0  0  0  0
  -26.7177  -32.5454   23.1117 H   0  0  0  0  0  0
  -25.0084  -33.9731   25.0443 H   0  0  0  0  0  0
  -22.7152  -31.3044   21.4035 H   0  0  0  0  0  0
  -23.3756  -35.9617   23.3291 H   0  0  0  0  0  0
  -24.3584  -36.8919   22.2054 H   0  0  0  0  0  0
  -23.7233  -37.6488   23.6662 H   0  0  0  0  0  0
  -26.0972  -31.5568   20.6126 H   0  0  0  0  0  0
  -26.8426  -30.8371   22.0088 H   0  0  0  0  0  0
  -28.1072  -28.9616   21.2344 H   0  0  0  0  0  0
  -26.0112  -25.9510   18.9672 H   0  0  0  0  0  0
  -23.9823  -27.3341   18.9699 H   0  0  0  0  0  0
  -23.7522  -30.6023   19.4034 H   0  0  0  0  0  0
  -22.7586  -29.2504   19.8555 H   0  0  0  0  0  0
  -25.1291  -36.1936   25.0824 H   0  0  0  0  0  0
  -20.9983  -28.3264   24.1398 H   0  0  0  0  0  0
  -20.5682  -26.2300   23.3611 H   0  0  0  0  0  0
  -21.6646  -26.7442   22.1198 H   0  0  0  0  0  0
  -19.6912  -25.6293   21.1245 H   0  0  0  0  0  0
  -19.6690  -27.3193   20.6744 H   0  0  0  0  0  0
  -17.4202  -26.6678   21.4026 H   0  0  0  0  0  0
  -18.0330  -26.0074   22.9022 H   0  0  0  0  0  0
  -19.7940  -30.7276   24.2260 H   0  0  0  0  0  0
  -17.5017  -31.6269   24.5163 H   0  0  0  0  0  0
  -15.5353  -30.2985   23.7664 H   0  0  0  0  0  0
  -15.8674  -28.0824   22.7068 H   0  0  0  0  0  0
  -24.5907  -30.7069   25.7789 H   0  0  0  0  0  0
  -24.8922  -32.2885   26.4890 H   0  0  0  0  0  0
  -25.8058  -30.8895   27.0233 H   0  0  0  0  0  0
  -26.2913  -29.6761   24.1209 H   0  0  0  0  0  0
  -27.4034  -29.7262   25.4689 H   0  0  0  0  0  0
  -27.8784  -30.4295   23.9415 H   0  0  0  0  0  0
  -27.2675  -33.3623   26.2071 H   0  0  0  0  0  0
  -28.3869  -32.6873   25.0326 H   0  0  0  0  0  0
  -28.0724  -31.8447   26.5418 H   0  0  0  0  0  0
  -28.2586  -38.0108   24.7531 H   0  0  0  0  0  0
  -28.1093  -36.2641   24.6260 H   0  0  0  0  0  0
  -27.2305  -37.1407   25.8866 H   0  0  0  0  0  0
  -20.9375  -29.8770   21.6885 H   0  0  0  0  0  0
  -26.0171  -38.2851   24.1428 H   0  0  0  0  0  0
  -28.4948  -18.2969   20.5799 H   0  0  0  0  0  0
  -27.0632  -22.8857   19.6022 H   0  0  0  0  0  0
  -28.6521  -23.2317   19.0111 H   0  0  0  0  0  0
  -28.5973  -20.8428   19.0415 H   0  0  0  0  0  0
  -27.6884  -20.7742   20.5174 H   0  0  0  0  0  0
  -30.4506  -23.7779   20.4266 H   0  0  0  0  0  0
  -30.0554  -24.1933   23.4190 H   0  0  0  0  0  0
  -30.3701  -25.4450   22.2178 H   0  0  0  0  0  0
  -31.5910  -24.2493   22.5632 H   0  0  0  0  0  0
  -27.8207  -22.0653   22.5254 H   0  0  0  0  0  0
  -26.5244  -23.1449   22.1072 H   0  0  0  0  0  0
  -27.7667  -23.6586   23.2275 H   0  0  0  0  0  0
  -28.0180  -25.6378   22.0753 H   0  0  0  0  0  0
  -26.7932  -25.1177   21.0122 H   0  0  0  0  0  0
  -28.9880  -15.6299   21.0031 H   0  0  0  0  0  0
  1 25  1  0  0  0
  1 30  2  0  0  0
  1 84  1  0  0  0
  2  3  1  0  0  0
  2 25  1  0  0  0
  2 88  1  0  0  0
  2 89  1  0  0  0
  3  4  1  0  0  0
  3 90  1  0  0  0
  3 91  1  0  0  0
  4  5  1  0  0  0
  4 92  1  0  0  0
  4 93  1  0  0  0
  5  6  1  0  0  0
  5 26  1  0  0  0
  5 94  1  0  0  0
  6 25  1  0  0  0
  6 95  1  0  0  0
  6 96  1  0  0  0
  7  8  2  0  0  0
  7 26  1  0  0  0
  7 29  1  0  0  0
  8  9  1  0  0  0
  8 22  1  0  0  0
  9 10  1  0  0  0
  9 27  2  0  0  0
 10 11  2  0  0  0
 10 15  1  0  0  0
 11 12  1  0  0  0
 11 97  1  0  0  0
 12 13  2  0  0  0
 12 98  1  0  0  0
 13 14  1  0  0  0
 13 31  1  0  0  0
 14 15  2  0  0  0
 14 99  1  0  0  0
 15100  1  0  0  0
 16 17  2  0  0  0
 16 21  1  0  0  0
 16 31  1  0  0  0
 17 18  1  0  0  0
 17101  1  0  0  0
 18 19  2  0  0  0
 18102  1  0  0  0
 19 20  1  0  0  0
 19 24  1  0  0  0
 20 21  2  0  0  0
 20103  1  0  0  0
 21 23  1  0  0  0
 22 28  1  0  0  0
 22 32  2  0  0  0
 26 27  1  0  0  0
 28104  1  0  0  0
 28105  1  0  0  0
 29106  1  0  0  0
 29107  1  0  0  0
 33 34  1  0  0  0
 33 66  1  0  0  0
 33 70  2  0  0  0
 34 36  1  0  0  0
 34 59  1  0  0  0
 34108  1  0  0  0
 35 44  2  0  0  0
 35 45  1  0  0  0
 35 68  1  0  0  0
 36 56  1  0  0  0
 36109  1  0  0  0
 37 39  1  0  0  0
 37 47  1  0  0  0
 37 66  1  0  0  0
 37110  1  0  0  0
 38 43  2  0  0  0
 38 46  1  0  0  0
 38 47  1  0  0  0
 39 64  1  0  0  0
 39 67  2  0  0  0
 40 52  1  0  0  0
 40 53  2  0  0  0
 40 58  1  0  0  0
 41111  1  0  0  0
 41112  1  0  0  0
 41113  1  0  0  0
 41 48  1  0  0  0
 42 43  1  0  0  0
 42 66  1  0  0  0
 42114  1  0  0  0
 42115  1  0  0  0
 43 44  1  0  0  0
 44116  1  0  0  0
 45 46  2  0  0  0
 45117  1  0  0  0
 46118  1  0  0  0
 47119  1  0  0  0
 47120  1  0  0  0
 48 56  1  0  0  0
 48 65  1  0  0  0
 48121  1  0  0  0
 49 50  1  0  0  0
 49 53  1  0  0  0
 49 64  1  0  0  0
 49122  1  0  0  0
 50 51  1  0  0  0
 50123  1  0  0  0
 50124  1  0  0  0
 51 52  1  0  0  0
 51125  1  0  0  0
 51126  1  0  0  0
 52127  1  0  0  0
 52128  1  0  0  0
 53 54  1  0  0  0
 54 55  2  0  0  0
 54129  1  0  0  0
 55 57  1  0  0  0
 55130  1  0  0  0
 56 69  2  0  0  0
 57 58  2  0  0  0
 57131  1  0  0  0
 58132  1  0  0  0
 59 60  1  0  0  0
 59 61  1  0  0  0
 59 62  1  0  0  0
 60133  1  0  0  0
 60134  1  0  0  0
 60135  1  0  0  0
 61136  1  0  0  0
 61137  1  0  0  0
 61138  1  0  0  0
 62139  1  0  0  0
 62140  1  0  0  0
 62141  1  0  0  0
 63 65  1  0  0  0
 63142  1  0  0  0
 63143  1  0  0  0
 63144  1  0  0  0
 64145  1  0  0  0
 65146  1  0  0  0
 68 82  1  0  0  0
 71 72  1  0  0  0
 71 73  2  0  0  0
 71147  1  0  0  0
 72 74  2  0  0  0
 72 84  1  0  0  0
 73 83  1  0  0  0
 73 87  1  0  0  0
 74 86  1  0  0  0
 74 87  1  0  0  0
 75 78  1  0  0  0
 75 83  1  0  0  0
 75 85  2  0  0  0
 76 77  1  0  0  0
 76 79  1  0  0  0
 76148  1  0  0  0
 76149  1  0  0  0
 77 83  1  0  0  0
 77150  1  0  0  0
 77151  1  0  0  0
 78 79  1  0  0  0
 78 80  1  0  0  0
 78152  1  0  0  0
 79 81  1  0  0  0
 79 82  1  0  0  0
 80153  1  0  0  0
 80154  1  0  0  0
 80155  1  0  0  0
 81156  1  0  0  0
 81157  1  0  0  0
 81158  1  0  0  0
 82159  1  0  0  0
 82160  1  0  0  0
 84161  1  0  0  0
M  ISO  4   1 100  68 101  82 101  84 100
M  END
> <chiral flag>
0

> <version>
0

> <s_m_source_file>
/data/baiqing/PycharmProjects/Reinvent-master-3.2/result/LINK_invent/BTK/process_docking_weight1_custom_product_contain_oxygen_bond_distance_aromatic_linkinvent_7_9_3/rearranged_h_0073.sdf

> <i_m_source_file_index>
89

> <r_mmod_Potential_Energy-OPLS-2005>
219.053741455078

> <r_mmod_Stretch_Energy-OPLS-2005>
100.218704223633

> <r_mmod_Bend_Energy-OPLS-2005>
192.228332519531

> <r_mmod_Torsional_Energy-OPLS-2005>
287.774261474609

> <r_mmod_Improper_Torsional_Energy-OPLS-2005>
5.55558156967163

> <r_mmod_Van_der_Waal_Energy-OPLS-2005>
165.386856079102

> <r_mmod_Electrostatic_Energy-OPLS-2005>
-363.3212890625

> <r_mmod_Solvation_Energy-OPLS-2005>
-228.567306518555

> <b_mmod_Minimization_Converged-OPLS-2005>
0

> <r_mmod_RMS_Derivative-OPLS-2005>
0.286878019571304

$$$$
89
                    3D
 Structure written by MMmdl.
161170  0  0  1  0            999 V2000
  -30.6552  -14.5627   20.4459 C   0  0  0  0  0  0
  -30.4158  -12.3318   19.4330 C   0  0  0  0  0  0
  -29.4878  -12.4717   18.2066 C   0  0  0  0  0  0
  -28.0146  -12.3156   18.6305 C   0  0  0  0  0  0
  -27.6446  -13.2028   19.8486 C   0  0  2  0  0  0
  -28.6927  -13.0713   20.9736 C   0  0  0  0  0  0
  -25.2576  -13.8141   20.5725 C   0  0  0  0  0  0
  -24.1822  -13.0408   20.9192 C   0  0  0  0  0  0
  -24.6366  -11.6875   20.8730 C   0  0  0  0  0  0
  -23.9040  -10.4270   21.0394 C   0  0  0  0  0  0
  -24.3604   -9.4188   21.9160 C   0  0  0  0  0  0
  -23.6302   -8.2210   22.0731 C   0  0  0  0  0  0
  -22.4282   -8.0249   21.3516 C   0  0  0  0  0  0
  -21.9898   -9.0220   20.4617 C   0  0  0  0  0  0
  -22.7217  -10.2106   20.3036 C   0  0  0  0  0  0
  -21.6843   -6.0723   22.5277 C   0  0  0  0  0  0
  -21.3995   -6.5638   23.8207 C   0  0  0  0  0  0
  -21.3663   -5.6799   24.9173 C   0  0  0  0  0  0
  -21.6053   -4.3062   24.7229 C   0  0  0  0  0  0
  -21.8827   -3.8141   23.4356 C   0  0  0  0  0  0
  -21.9195   -4.6948   22.3402 C   0  0  0  0  0  0
  -22.7852  -13.5182   21.1882 C   0  0  0  0  0  0
  -22.1676   -4.2137   21.0988 F   0  0  0  0  0  0
  -21.5627   -3.4554   25.7747 F   0  0  0  0  0  0
  -30.0075  -13.3675   20.3924 N   0  0  0  0  0  0
  -26.2962  -12.9275   20.3291 N   0  0  0  0  0  0
  -25.9269  -11.6446   20.5726 N   0  0  0  0  0  0
  -22.0558  -12.8118   22.0461 N   0  0  0  0  0  0
  -25.4407  -15.1859   20.4224 N   0  0  0  0  0  0
  -31.8626  -14.6654   20.2244 O   0  0  0  0  0  0
  -21.6637   -6.8858   21.4235 O   0  0  0  0  0  0
  -22.3491  -14.5491   20.6771 O   0  0  0  0  0  0
  -24.6191  -31.8639   23.2074 C   0  0  0  0  0  0
  -25.9037  -32.4813   23.8410 C   0  0  1  0  0  0
  -27.2323  -27.3764   20.1050 C   0  0  0  0  0  0
  -25.5861  -33.8618   24.2328 N   0  0  0  0  0  0
  -23.4115  -30.4842   21.5497 C   0  0  2  0  0  0
  -24.8596  -28.9442   20.1151 C   0  0  0  0  0  0
  -22.7446  -29.4624   22.5004 C   0  0  0  0  0  0
  -18.0310  -28.1400   22.8511 C   0  0  0  0  0  0
  -24.1474  -36.7314   23.2641 C   0  0  0  0  0  0
  -25.9462  -30.8140   21.3649 C   0  0  0  0  0  0
  -26.0247  -29.4422   20.7133 C   0  0  0  0  0  0
  -27.2162  -28.6699   20.6948 C   0  0  0  0  0  0
  -26.0497  -26.9127   19.4907 C   0  0  0  0  0  0
  -24.8709  -27.6842   19.4935 C   0  0  0  0  0  0
  -23.6226  -29.8148   20.1663 C   0  0  0  0  0  0
  -25.4096  -36.3127   24.0351 C   0  0  1  0  0  0
  -20.5894  -28.3647   23.1305 C   0  0  2  0  0  0
  -20.6784  -26.9419   22.5303 C   0  0  0  0  0  0
  -19.5719  -26.6519   21.5131 C   0  0  0  0  0  0
  -18.1963  -26.7946   22.1678 C   0  0  0  0  0  0
  -19.1561  -28.8840   23.2904 C   0  0  0  0  0  0
  -18.9526  -30.1438   23.8961 C   0  0  0  0  0  0
  -17.6544  -30.6592   24.0642 C   0  0  0  0  0  0
  -25.9010  -34.9470   23.5137 C   0  0  0  0  0  0
  -16.5433  -29.9125   23.6387 C   0  0  0  0  0  0
  -16.7304  -28.6553   23.0351 C   0  0  0  0  0  0
  -26.4458  -31.6602   25.0760 C   0  0  0  0  0  0
  -25.3727  -31.3693   26.1518 C   0  0  0  0  0  0
  -27.0288  -30.3050   24.6143 C   0  0  0  0  0  0
  -27.6049  -32.4322   25.7513 C   0  0  0  0  0  0
  -27.5579  -37.1824   24.8466 C   0  0  0  0  0  0
  -21.4169  -29.3022   22.3729 N   0  0  0  0  0  0
  -26.4291  -37.3806   23.9402 N   0  0  0  0  0  0
  -24.6787  -31.0686   22.1000 N   0  0  0  0  0  0
  -23.4190  -28.8157   23.3072 O   0  0  0  0  0  0
  -28.3745  -26.5851   20.1115 O   0  0  0  0  0  0
  -26.5614  -34.8911   22.4724 O   0  0  0  0  0  0
  -23.5354  -32.1405   23.7412 O   0  0  0  0  0  0
  -29.2797  -18.0290   20.3043 C   0  0  0  0  0  0
  -29.1411  -16.5936   22.2662 C   0  0  0  0  0  0
  -28.3868  -18.9332   22.3975 C   0  0  0  0  0  0
  -28.7500  -19.1360   21.0352 C   0  0  0  0  0  0
  -29.4652  -16.7467   20.9033 C   0  0  0  0  0  0
  -28.6038  -17.6680   23.0020 C   0  0  0  0  0  0
  -27.3358  -22.0014   19.2440 C   0  0  0  0  0  0
  -28.3788  -22.6459   19.7739 C   0  0  0  0  0  0
  -27.3633  -20.6028   19.6209 C   0  0  0  0  0  0
  -29.2382  -21.6509   20.5398 C   0  0  0  0  0  0
  -27.6607  -20.0203   23.1903 C   0  0  0  0  0  0
  -28.7551  -24.1260   19.5082 C   0  0  0  0  0  0
  -28.2259  -25.1904   20.5236 C   0  0  0  0  0  0
  -28.4717  -20.3900   20.3680 N   0  0  0  0  0  0
  -28.2547  -17.4458   24.3361 N   0  0  0  0  0  0
  -29.8818  -15.6263   20.1073 N   0  0  0  0  0  0
  -26.5276  -19.7459   19.3162 O   0  0  0  0  0  0
  -31.4620  -12.4255   19.1382 H   0  0  0  0  0  0
  -30.3113  -11.3433   19.8834 H   0  0  0  0  0  0
  -29.7407  -11.7229   17.4545 H   0  0  0  0  0  0
  -29.6353  -13.4412   17.7299 H   0  0  0  0  0  0
  -27.8601  -11.2670   18.8832 H   0  0  0  0  0  0
  -27.3463  -12.5231   17.7918 H   0  0  0  0  0  0
  -27.6559  -14.2322   19.4917 H   0  0  0  0  0  0
  -28.6832  -12.0652   21.3957 H   0  0  0  0  0  0
  -28.4593  -13.7518   21.7908 H   0  0  0  0  0  0
  -25.2760   -9.5659   22.4710 H   0  0  0  0  0  0
  -24.0018   -7.4598   22.7429 H   0  0  0  0  0  0
  -21.0834   -8.8719   19.8923 H   0  0  0  0  0  0
  -22.3673  -10.9637   19.6134 H   0  0  0  0  0  0
  -21.1985   -7.6148   23.9694 H   0  0  0  0  0  0
  -21.1475   -6.0539   25.9072 H   0  0  0  0  0  0
  -22.0608   -2.7611   23.2870 H   0  0  0  0  0  0
  -22.4238  -11.9757   22.4751 H   0  0  0  0  0  0
  -21.1165  -13.1048   22.2749 H   0  0  0  0  0  0
  -24.7001  -15.8622   20.5746 H   0  0  0  0  0  0
  -26.3293  -15.6167   20.1979 H   0  0  0  0  0  0
  -26.7142  -32.5472   23.1184 H   0  0  0  0  0  0
  -24.9985  -33.9793   25.0461 H   0  0  0  0  0  0
  -22.6996  -31.3012   21.4106 H   0  0  0  0  0  0
  -23.3738  -35.9645   23.3324 H   0  0  0  0  0  0
  -24.3575  -36.8911   22.2059 H   0  0  0  0  0  0
  -23.7236  -37.6527   23.6638 H   0  0  0  0  0  0
  -26.0580  -31.5758   20.5916 H   0  0  0  0  0  0
  -26.8344  -30.8728   21.9839 H   0  0  0  0  0  0
  -28.1168  -29.0508   21.1568 H   0  0  0  0  0  0
  -26.0307  -25.9471   19.0063 H   0  0  0  0  0  0
  -23.9780  -27.3020   19.0187 H   0  0  0  0  0  0
  -23.7285  -30.5914   19.4089 H   0  0  0  0  0  0
  -22.7450  -29.2368   19.8678 H   0  0  0  0  0  0
  -25.1277  -36.2017   25.0858 H   0  0  0  0  0  0
  -20.9985  -28.3173   24.1441 H   0  0  0  0  0  0
  -20.5742  -26.2176   23.3397 H   0  0  0  0  0  0
  -21.6648  -26.7564   22.1046 H   0  0  0  0  0  0
  -19.6863  -25.6500   21.0969 H   0  0  0  0  0  0
  -19.6571  -27.3467   20.6747 H   0  0  0  0  0  0
  -17.4134  -26.6639   21.4198 H   0  0  0  0  0  0
  -18.0588  -26.0107   22.9142 H   0  0  0  0  0  0
  -19.7975  -30.7228   24.2432 H   0  0  0  0  0  0
  -17.5151  -31.6259   24.5327 H   0  0  0  0  0  0
  -15.5484  -30.3073   23.7820 H   0  0  0  0  0  0
  -15.8646  -28.0912   22.7111 H   0  0  0  0  0  0
  -24.5898  -30.7045   25.7853 H   0  0  0  0  0  0
  -24.8904  -32.2828   26.5010 H   0  0  0  0  0  0
  -25.8088  -30.8852   27.0266 H   0  0  0  0  0  0
  -26.2853  -29.6861   24.1119 H   0  0  0  0  0  0
  -27.3973  -29.7259   25.4619 H   0  0  0  0  0  0
  -27.8712  -30.4388   23.9357 H   0  0  0  0  0  0
  -27.2696  -33.3609   26.2142 H   0  0  0  0  0  0
  -28.3818  -32.6916   25.0308 H   0  0  0  0  0  0
  -28.0751  -31.8421   26.5390 H   0  0  0  0  0  0
  -28.2630  -38.0092   24.7492 H   0  0  0  0  0  0
  -28.1056  -36.2635   24.6315 H   0  0  0  0  0  0
  -27.2293  -37.1494   25.8868 H   0  0  0  0  0  0
  -20.9347  -29.8698   21.6931 H   0  0  0  0  0  0
  -26.0194  -38.2894   24.1379 H   0  0  0  0  0  0
  -29.5032  -18.1688   19.2553 H   0  0  0  0  0  0
  -29.2654  -15.6364   22.7453 H   0  0  0  0  0  0
  -26.5891  -22.4406   18.5999 H   0  0  0  0  0  0
  -29.3741  -21.9455   21.5800 H   0  0  0  0  0  0
  -30.2194  -21.5625   20.0737 H   0  0  0  0  0  0
  -26.5861  -19.8916   23.0630 H   0  0  0  0  0  0
  -27.9090  -21.0282   22.8730 H   0  0  0  0  0  0
  -27.8770  -19.9759   24.2578 H   0  0  0  0  0  0
  -28.3503  -24.3717   18.5269 H   0  0  0  0  0  0
  -29.8389  -24.2033   19.3982 H   0  0  0  0  0  0
  -28.7710  -25.0741   21.4625 H   0  0  0  0  0  0
  -27.1913  -24.9515   20.7728 H   0  0  0  0  0  0
  -27.6568  -18.1129   24.8104 H   0  0  0  0  0  0
  -28.1643  -16.4957   24.6857 H   0  0  0  0  0  0
  -30.0860  -15.9032   19.1586 H   0  0  0  0  0  0
  1 25  1  0  0  0
  1 30  2  0  0  0
  1 86  1  0  0  0
  2  3  1  0  0  0
  2 25  1  0  0  0
  2 88  1  0  0  0
  2 89  1  0  0  0
  3  4  1  0  0  0
  3 90  1  0  0  0
  3 91  1  0  0  0
  4  5  1  0  0  0
  4 92  1  0  0  0
  4 93  1  0  0  0
  5  6  1  0  0  0
  5 26  1  0  0  0
  5 94  1  0  0  0
  6 25  1  0  0  0
  6 95  1  0  0  0
  6 96  1  0  0  0
  7  8  2  0  0  0
  7 26  1  0  0  0
  7 29  1  0  0  0
  8  9  1  0  0  0
  8 22  1  0  0  0
  9 10  1  0  0  0
  9 27  2  0  0  0
 10 11  2  0  0  0
 10 15  1  0  0  0
 11 12  1  0  0  0
 11 97  1  0  0  0
 12 13  2  0  0  0
 12 98  1  0  0  0
 13 14  1  0  0  0
 13 31  1  0  0  0
 14 15  2  0  0  0
 14 99  1  0  0  0
 15100  1  0  0  0
 16 17  2  0  0  0
 16 21  1  0  0  0
 16 31  1  0  0  0
 17 18  1  0  0  0
 17101  1  0  0  0
 18 19  2  0  0  0
 18102  1  0  0  0
 19 20  1  0  0  0
 19 24  1  0  0  0
 20 21  2  0  0  0
 20103  1  0  0  0
 21 23  1  0  0  0
 22 28  1  0  0  0
 22 32  2  0  0  0
 26 27  1  0  0  0
 28104  1  0  0  0
 28105  1  0  0  0
 29106  1  0  0  0
 29107  1  0  0  0
 33 34  1  0  0  0
 33 66  1  0  0  0
 33 70  2  0  0  0
 34 36  1  0  0  0
 34 59  1  0  0  0
 34108  1  0  0  0
 35 44  2  0  0  0
 35 45  1  0  0  0
 35 68  1  0  0  0
 36 56  1  0  0  0
 36109  1  0  0  0
 37 39  1  0  0  0
 37 47  1  0  0  0
 37 66  1  0  0  0
 37110  1  0  0  0
 38 43  2  0  0  0
 38 46  1  0  0  0
 38 47  1  0  0  0
 39 64  1  0  0  0
 39 67  2  0  0  0
 40 52  1  0  0  0
 40 53  2  0  0  0
 40 58  1  0  0  0
 41111  1  0  0  0
 41112  1  0  0  0
 41113  1  0  0  0
 41 48  1  0  0  0
 42 43  1  0  0  0
 42 66  1  0  0  0
 42114  1  0  0  0
 42115  1  0  0  0
 43 44  1  0  0  0
 44116  1  0  0  0
 45 46  2  0  0  0
 45117  1  0  0  0
 46118  1  0  0  0
 47119  1  0  0  0
 47120  1  0  0  0
 48 56  1  0  0  0
 48 65  1  0  0  0
 48121  1  0  0  0
 49 50  1  0  0  0
 49 53  1  0  0  0
 49 64  1  0  0  0
 49122  1  0  0  0
 50 51  1  0  0  0
 50123  1  0  0  0
 50124  1  0  0  0
 51 52  1  0  0  0
 51125  1  0  0  0
 51126  1  0  0  0
 52127  1  0  0  0
 52128  1  0  0  0
 53 54  1  0  0  0
 54 55  2  0  0  0
 54129  1  0  0  0
 55 57  1  0  0  0
 55130  1  0  0  0
 56 69  2  0  0  0
 57 58  2  0  0  0
 57131  1  0  0  0
 58132  1  0  0  0
 59 60  1  0  0  0
 59 61  1  0  0  0
 59 62  1  0  0  0
 60133  1  0  0  0
 60134  1  0  0  0
 60135  1  0  0  0
 61136  1  0  0  0
 61137  1  0  0  0
 61138  1  0  0  0
 62139  1  0  0  0
 62140  1  0  0  0
 62141  1  0  0  0
 63 65  1  0  0  0
 63142  1  0  0  0
 63143  1  0  0  0
 63144  1  0  0  0
 64145  1  0  0  0
 65146  1  0  0  0
 68 83  1  0  0  0
 71 74  2  0  0  0
 71 75  1  0  0  0
 71147  1  0  0  0
 72 75  2  0  0  0
 72 76  1  0  0  0
 72148  1  0  0  0
 73 74  1  0  0  0
 73 76  2  0  0  0
 73 81  1  0  0  0
 74 84  1  0  0  0
 75 86  1  0  0  0
 76 85  1  0  0  0
 77 78  2  0  0  0
 77 79  1  0  0  0
 77149  1  0  0  0
 78 80  1  0  0  0
 78 82  1  0  0  0
 79 84  1  0  0  0
 79 87  2  0  0  0
 80 84  1  0  0  0
 80150  1  0  0  0
 80151  1  0  0  0
 81152  1  0  0  0
 81153  1  0  0  0
 81154  1  0  0  0
 82 83  1  0  0  0
 82155  1  0  0  0
 82156  1  0  0  0
 83157  1  0  0  0
 83158  1  0  0  0
 85159  1  0  0  0
 85160  1  0  0  0
 86161  1  0  0  0
M  ISO  4   1 100  68 101  83 101  86 100
M  END
> <chiral flag>
0

> <version>
0

> <s_m_source_file>
/data/baiqing/PycharmProjects/Reinvent-master-3.2/result/LINK_invent/BTK/process_docking_weight1_custom_product_contain_oxygen_bond_distance_aromatic_linkinvent_7_9_3/rearranged_h_0073.sdf

> <i_m_source_file_index>
90

> <r_mmod_Potential_Energy-OPLS-2005>
188.226989746094

> <r_mmod_Stretch_Energy-OPLS-2005>
52.8545303344727

> <r_mmod_Bend_Energy-OPLS-2005>
165.628219604492

> <r_mmod_Torsional_Energy-OPLS-2005>
359.796234130859

> <r_mmod_Improper_Torsional_Energy-OPLS-2005>
28.7245540618896

> <r_mmod_Van_der_Waal_Energy-OPLS-2005>
135.128341674805

> <r_mmod_Electrostatic_Energy-OPLS-2005>
-365.643157958984

> <r_mmod_Solvation_Energy-OPLS-2005>
-222.457611083984

> <b_mmod_Minimization_Converged-OPLS-2005>
0

> <r_mmod_RMS_Derivative-OPLS-2005>
4.21033143997192

$$$$
90
                    3D
 Structure written by MMmdl.
163172  0  0  1  0            999 V2000
  -30.7110  -14.4645   20.5009 C   0  0  0  0  0  0
  -30.4086  -12.2832   19.4309 C   0  0  0  0  0  0
  -29.4915  -12.4846   18.2079 C   0  0  0  0  0  0
  -28.0107  -12.3623   18.6187 C   0  0  0  0  0  0
  -27.6563  -13.2121   19.8694 C   0  0  2  0  0  0
  -28.7001  -13.0262   20.9950 C   0  0  0  0  0  0
  -25.2570  -13.8165   20.5690 C   0  0  0  0  0  0
  -24.1834  -13.0438   20.9191 C   0  0  0  0  0  0
  -24.6392  -11.6902   20.8742 C   0  0  0  0  0  0
  -23.9050  -10.4286   21.0402 C   0  0  0  0  0  0
  -24.3608   -9.4204   21.9177 C   0  0  0  0  0  0
  -23.6292   -8.2238   22.0748 C   0  0  0  0  0  0
  -22.4271   -8.0274   21.3539 C   0  0  0  0  0  0
  -21.9898   -9.0246   20.4646 C   0  0  0  0  0  0
  -22.7222  -10.2128   20.3055 C   0  0  0  0  0  0
  -21.6854   -6.0729   22.5273 C   0  0  0  0  0  0
  -21.4014   -6.5630   23.8207 C   0  0  0  0  0  0
  -21.3662   -5.6787   24.9170 C   0  0  0  0  0  0
  -21.6042   -4.3051   24.7224 C   0  0  0  0  0  0
  -21.8823   -3.8136   23.4347 C   0  0  0  0  0  0
  -21.9199   -4.6953   22.3400 C   0  0  0  0  0  0
  -22.7860  -13.5239   21.1850 C   0  0  0  0  0  0
  -22.1667   -4.2137   21.0984 F   0  0  0  0  0  0
  -21.5631   -3.4534   25.7739 F   0  0  0  0  0  0
  -30.0273  -13.2952   20.4276 N   0  0  0  0  0  0
  -26.3006  -12.9347   20.3358 N   0  0  0  0  0  0
  -25.9319  -11.6494   20.5768 N   0  0  0  0  0  0
  -22.0505  -12.8227   22.0409 N   0  0  0  0  0  0
  -25.4274  -15.1889   20.4098 N   0  0  0  0  0  0
  -31.8938  -14.5607   20.1653 O   0  0  0  0  0  0
  -21.6644   -6.8868   21.4232 O   0  0  0  0  0  0
  -22.3539  -14.5544   20.6702 O   0  0  0  0  0  0
  -24.6142  -31.8689   23.2087 C   0  0  0  0  0  0
  -25.9034  -32.4837   23.8398 C   0  0  1  0  0  0
  -27.2281  -27.4267   20.1012 C   0  0  0  0  0  0
  -25.5900  -33.8637   24.2330 N   0  0  0  0  0  0
  -23.3995  -30.4946   21.5497 C   0  0  2  0  0  0
  -24.8401  -28.9565   20.1196 C   0  0  0  0  0  0
  -22.7399  -29.4691   22.4995 C   0  0  0  0  0  0
  -18.0283  -28.1378   22.8521 C   0  0  0  0  0  0
  -24.1481  -36.7316   23.2635 C   0  0  0  0  0  0
  -25.9296  -30.8350   21.3595 C   0  0  0  0  0  0
  -26.0028  -29.4666   20.7117 C   0  0  0  0  0  0
  -27.1959  -28.7104   20.6961 C   0  0  0  0  0  0
  -26.0377  -26.9253   19.5209 C   0  0  0  0  0  0
  -24.8534  -27.6848   19.5250 C   0  0  0  0  0  0
  -23.6061  -29.8277   20.1639 C   0  0  0  0  0  0
  -25.4105  -36.3122   24.0343 C   0  0  1  0  0  0
  -20.5869  -28.3659   23.1332 C   0  0  2  0  0  0
  -20.6771  -26.9399   22.5413 C   0  0  0  0  0  0
  -19.5748  -26.6392   21.5213 C   0  0  0  0  0  0
  -18.1936  -26.7937   22.1625 C   0  0  0  0  0  0
  -19.1533  -28.8835   23.2930 C   0  0  0  0  0  0
  -18.9457  -30.1443   23.8919 C   0  0  0  0  0  0
  -17.6462  -30.6588   24.0579 C   0  0  0  0  0  0
  -25.9034  -34.9495   23.5133 C   0  0  0  0  0  0
  -16.5360  -29.9096   23.6321 C   0  0  0  0  0  0
  -16.7275  -28.6506   23.0354 C   0  0  0  0  0  0
  -26.4438  -31.6613   25.0734 C   0  0  0  0  0  0
  -25.3696  -31.3741   26.1475 C   0  0  0  0  0  0
  -27.0249  -30.3061   24.6088 C   0  0  0  0  0  0
  -27.6024  -32.4305   25.7499 C   0  0  0  0  0  0
  -27.5575  -37.1828   24.8471 C   0  0  0  0  0  0
  -21.4131  -29.3040   22.3741 N   0  0  0  0  0  0
  -26.4294  -37.3810   23.9400 N   0  0  0  0  0  0
  -24.6667  -31.0816   22.0975 N   0  0  0  0  0  0
  -23.4187  -28.8234   23.3027 O   0  0  0  0  0  0
  -28.4298  -26.7417   20.1009 O   0  0  0  0  0  0
  -26.5614  -34.8947   22.4700 O   0  0  0  0  0  0
  -23.5341  -32.1428   23.7496 O   0  0  0  0  0  0
  -28.5008  -18.5960   20.2438 C   0  0  0  0  0  0
  -28.0137  -19.8761   20.5829 C   0  0  0  0  0  0
  -29.7257  -18.1280   20.7762 C   0  0  0  0  0  0
  -28.7144  -20.7008   21.4903 C   0  0  0  0  0  0
  -30.3823  -18.9170   21.7507 C   0  0  0  0  0  0
  -29.8774  -20.1862   22.1104 C   0  0  0  0  0  0
  -28.5768  -24.7837   22.2117 C   0  0  0  0  0  0
  -28.3649  -24.3957   20.9386 C   0  0  0  0  0  0
  -28.5452  -23.8376   23.4042 C   0  0  0  0  0  0
  -28.0760  -22.9331   20.5968 C   0  0  0  0  0  0
  -27.9457  -22.4540   23.0803 C   0  0  0  0  0  0
  -30.4218  -16.9661   18.6353 C   0  0  0  0  0  0
  -28.4942  -25.3486   19.7474 C   0  0  0  0  0  0
  -30.4275  -16.8977   20.1820 C   0  0  2  0  0  0
  -28.2849  -22.0233   21.7278 N   0  0  0  0  0  0
  -29.9625  -15.5779   20.6519 N   0  0  0  0  0  0
  -31.5430  -18.4905   22.3070 F   0  0  0  0  0  0
  -30.5632  -20.9382   23.0062 F   0  0  0  0  0  0
  -31.4568  -12.3541   19.1330 H   0  0  0  0  0  0
  -30.2829  -11.2812   19.8443 H   0  0  0  0  0  0
  -29.7239  -11.7482   17.4377 H   0  0  0  0  0  0
  -29.6728  -13.4632   17.7608 H   0  0  0  0  0  0
  -27.8117  -11.3088   18.8181 H   0  0  0  0  0  0
  -27.3643  -12.6374   17.7843 H   0  0  0  0  0  0
  -27.6895  -14.2549   19.5542 H   0  0  0  0  0  0
  -28.6679  -12.0063   21.3820 H   0  0  0  0  0  0
  -28.4857  -13.6794   21.8434 H   0  0  0  0  0  0
  -25.2756   -9.5683   22.4745 H   0  0  0  0  0  0
  -24.0003   -7.4627   22.7464 H   0  0  0  0  0  0
  -21.0825   -8.8757   19.8961 H   0  0  0  0  0  0
  -22.3668  -10.9664   19.6165 H   0  0  0  0  0  0
  -21.1998   -7.6139   23.9702 H   0  0  0  0  0  0
  -21.1483   -6.0522   25.9075 H   0  0  0  0  0  0
  -22.0602   -2.7596   23.2851 H   0  0  0  0  0  0
  -22.4136  -11.9900   22.4802 H   0  0  0  0  0  0
  -21.1124  -13.1240   22.2617 H   0  0  0  0  0  0
  -24.6577  -15.8398   20.5237 H   0  0  0  0  0  0
  -26.2717  -15.6299   20.0686 H   0  0  0  0  0  0
  -26.7111  -32.5516   23.1170 H   0  0  0  0  0  0
  -25.0070  -33.9820   25.0492 H   0  0  0  0  0  0
  -22.6892  -31.3119   21.4121 H   0  0  0  0  0  0
  -23.3747  -35.9644   23.3340 H   0  0  0  0  0  0
  -24.3584  -36.8877   22.2040 H   0  0  0  0  0  0
  -23.7245  -37.6547   23.6617 H   0  0  0  0  0  0
  -26.0459  -31.5959   20.5859 H   0  0  0  0  0  0
  -26.8179  -30.8889   21.9763 H   0  0  0  0  0  0
  -28.0933  -29.1106   21.1477 H   0  0  0  0  0  0
  -25.9815  -25.9532   19.0593 H   0  0  0  0  0  0
  -23.9544  -27.2841   19.0749 H   0  0  0  0  0  0
  -23.7205  -30.6002   19.4034 H   0  0  0  0  0  0
  -22.7262  -29.2529   19.8662 H   0  0  0  0  0  0
  -25.1287  -36.1992   25.0844 H   0  0  0  0  0  0
  -20.9979  -28.3197   24.1443 H   0  0  0  0  0  0
  -20.5664  -26.2267   23.3589 H   0  0  0  0  0  0
  -21.6648  -26.7447   22.1210 H   0  0  0  0  0  0
  -19.6905  -25.6305   21.1224 H   0  0  0  0  0  0
  -19.6678  -27.3208   20.6753 H   0  0  0  0  0  0
  -17.4204  -26.6696   21.4026 H   0  0  0  0  0  0
  -18.0341  -26.0070   22.8999 H   0  0  0  0  0  0
  -19.7931  -30.7268   24.2284 H   0  0  0  0  0  0
  -17.5022  -31.6270   24.5177 H   0  0  0  0  0  0
  -15.5365  -30.3010   23.7629 H   0  0  0  0  0  0
  -15.8675  -28.0831   22.7053 H   0  0  0  0  0  0
  -24.5886  -30.7046   25.7836 H   0  0  0  0  0  0
  -24.8854  -32.2906   26.4859 H   0  0  0  0  0  0
  -25.8041  -30.8980   27.0269 H   0  0  0  0  0  0
  -26.2806  -29.6879   24.1055 H   0  0  0  0  0  0
  -27.3956  -29.7225   25.4517 H   0  0  0  0  0  0
  -27.8655  -30.4404   23.9283 H   0  0  0  0  0  0
  -27.2668  -33.3612   26.2091 H   0  0  0  0  0  0
  -28.3845  -32.6840   25.0325 H   0  0  0  0  0  0
  -28.0680  -31.8408   26.5412 H   0  0  0  0  0  0
  -28.2632  -38.0087   24.7515 H   0  0  0  0  0  0
  -28.1050  -36.2645   24.6317 H   0  0  0  0  0  0
  -27.2320  -37.1498   25.8882 H   0  0  0  0  0  0
  -20.9271  -29.8763   21.6976 H   0  0  0  0  0  0
  -26.0184  -38.2891   24.1382 H   0  0  0  0  0  0
  -27.9608  -18.0141   19.5120 H   0  0  0  0  0  0
  -27.1073  -20.2338   20.1176 H   0  0  0  0  0  0
  -28.8305  -25.8113   22.4280 H   0  0  0  0  0  0
  -27.9995  -24.3033   24.2255 H   0  0  0  0  0  0
  -29.5721  -23.7135   23.7481 H   0  0  0  0  0  0
  -28.7274  -22.6369   19.7725 H   0  0  0  0  0  0
  -27.0509  -22.8471   20.2369 H   0  0  0  0  0  0
  -26.8580  -22.5092   23.1435 H   0  0  0  0  0  0
  -28.2560  -21.7208   23.8268 H   0  0  0  0  0  0
  -30.8801  -17.8938   18.2904 H   0  0  0  0  0  0
  -29.4172  -16.9152   18.2145 H   0  0  0  0  0  0
  -30.9937  -16.1531   18.1882 H   0  0  0  0  0  0
  -27.8129  -25.0617   18.9504 H   0  0  0  0  0  0
  -29.4850  -25.1806   19.3228 H   0  0  0  0  0  0
  -31.4752  -16.9894   20.4735 H   0  0  0  0  0  0
  -28.9919  -15.4714   20.9041 H   0  0  0  0  0  0
  1 25  1  0  0  0
  1 30  2  0  0  0
  1 86  1  0  0  0
  2  3  1  0  0  0
  2 25  1  0  0  0
  2 89  1  0  0  0
  2 90  1  0  0  0
  3  4  1  0  0  0
  3 91  1  0  0  0
  3 92  1  0  0  0
  4  5  1  0  0  0
  4 93  1  0  0  0
  4 94  1  0  0  0
  5  6  1  0  0  0
  5 26  1  0  0  0
  5 95  1  0  0  0
  6 25  1  0  0  0
  6 96  1  0  0  0
  6 97  1  0  0  0
  7  8  2  0  0  0
  7 26  1  0  0  0
  7 29  1  0  0  0
  8  9  1  0  0  0
  8 22  1  0  0  0
  9 10  1  0  0  0
  9 27  2  0  0  0
 10 11  2  0  0  0
 10 15  1  0  0  0
 11 12  1  0  0  0
 11 98  1  0  0  0
 12 13  2  0  0  0
 12 99  1  0  0  0
 13 14  1  0  0  0
 13 31  1  0  0  0
 14 15  2  0  0  0
 14100  1  0  0  0
 15101  1  0  0  0
 16 17  2  0  0  0
 16 21  1  0  0  0
 16 31  1  0  0  0
 17 18  1  0  0  0
 17102  1  0  0  0
 18 19  2  0  0  0
 18103  1  0  0  0
 19 20  1  0  0  0
 19 24  1  0  0  0
 20 21  2  0  0  0
 20104  1  0  0  0
 21 23  1  0  0  0
 22 28  1  0  0  0
 22 32  2  0  0  0
 26 27  1  0  0  0
 28105  1  0  0  0
 28106  1  0  0  0
 29107  1  0  0  0
 29108  1  0  0  0
 33 34  1  0  0  0
 33 66  1  0  0  0
 33 70  2  0  0  0
 34 36  1  0  0  0
 34 59  1  0  0  0
 34109  1  0  0  0
 35 44  2  0  0  0
 35 45  1  0  0  0
 35 68  1  0  0  0
 36 56  1  0  0  0
 36110  1  0  0  0
 37 39  1  0  0  0
 37 47  1  0  0  0
 37 66  1  0  0  0
 37111  1  0  0  0
 38 43  2  0  0  0
 38 46  1  0  0  0
 38 47  1  0  0  0
 39 64  1  0  0  0
 39 67  2  0  0  0
 40 52  1  0  0  0
 40 53  2  0  0  0
 40 58  1  0  0  0
 41112  1  0  0  0
 41113  1  0  0  0
 41114  1  0  0  0
 41 48  1  0  0  0
 42 43  1  0  0  0
 42 66  1  0  0  0
 42115  1  0  0  0
 42116  1  0  0  0
 43 44  1  0  0  0
 44117  1  0  0  0
 45 46  2  0  0  0
 45118  1  0  0  0
 46119  1  0  0  0
 47120  1  0  0  0
 47121  1  0  0  0
 48 56  1  0  0  0
 48 65  1  0  0  0
 48122  1  0  0  0
 49 50  1  0  0  0
 49 53  1  0  0  0
 49 64  1  0  0  0
 49123  1  0  0  0
 50 51  1  0  0  0
 50124  1  0  0  0
 50125  1  0  0  0
 51 52  1  0  0  0
 51126  1  0  0  0
 51127  1  0  0  0
 52128  1  0  0  0
 52129  1  0  0  0
 53 54  1  0  0  0
 54 55  2  0  0  0
 54130  1  0  0  0
 55 57  1  0  0  0
 55131  1  0  0  0
 56 69  2  0  0  0
 57 58  2  0  0  0
 57132  1  0  0  0
 58133  1  0  0  0
 59 60  1  0  0  0
 59 61  1  0  0  0
 59 62  1  0  0  0
 60134  1  0  0  0
 60135  1  0  0  0
 60136  1  0  0  0
 61137  1  0  0  0
 61138  1  0  0  0
 61139  1  0  0  0
 62140  1  0  0  0
 62141  1  0  0  0
 62142  1  0  0  0
 63 65  1  0  0  0
 63143  1  0  0  0
 63144  1  0  0  0
 63145  1  0  0  0
 64146  1  0  0  0
 65147  1  0  0  0
 68 83  1  0  0  0
 71 72  2  0  0  0
 71 73  1  0  0  0
 71148  1  0  0  0
 72 74  1  0  0  0
 72149  1  0  0  0
 73 75  2  0  0  0
 73 84  1  0  0  0
 74 76  2  0  0  0
 74 85  1  0  0  0
 75 76  1  0  0  0
 75 87  1  0  0  0
 76 88  1  0  0  0
 77 78  2  0  0  0
 77 79  1  0  0  0
 77150  1  0  0  0
 78 80  1  0  0  0
 78 83  1  0  0  0
 79 81  1  0  0  0
 79151  1  0  0  0
 79152  1  0  0  0
 80 85  1  0  0  0
 80153  1  0  0  0
 80154  1  0  0  0
 81 85  1  0  0  0
 81155  1  0  0  0
 81156  1  0  0  0
 82157  1  0  0  0
 82158  1  0  0  0
 82159  1  0  0  0
 82 84  1  0  0  0
 83160  1  0  0  0
 83161  1  0  0  0
 84 86  1  0  0  0
 84162  1  0  0  0
 86163  1  0  0  0
M  ISO  4   1 100  68 101  83 101  86 100
M  END
> <chiral flag>
0

> <version>
0

> <s_m_source_file>
/data/baiqing/PycharmProjects/Reinvent-master-3.2/result/LINK_invent/BTK/process_docking_weight1_custom_product_contain_oxygen_bond_distance_aromatic_linkinvent_7_9_3/rearranged_h_0073.sdf

> <i_m_source_file_index>
91

> <r_mmod_Potential_Energy-OPLS-2005>
35.9763641357422

> <r_mmod_Stretch_Energy-OPLS-2005>
38.5646514892578

> <r_mmod_Bend_Energy-OPLS-2005>
116.104118347168

> <r_mmod_Torsional_Energy-OPLS-2005>
230.411468505859

> <r_mmod_Improper_Torsional_Energy-OPLS-2005>
9.44986629486084

> <r_mmod_Van_der_Waal_Energy-OPLS-2005>
164.059829711914

> <r_mmod_Electrostatic_Energy-OPLS-2005>
-330.542205810547

> <r_mmod_Solvation_Energy-OPLS-2005>
-210.309600830078

> <b_mmod_Minimization_Converged-OPLS-2005>
0

> <r_mmod_RMS_Derivative-OPLS-2005>
2.46798491477966

$$$$
91
                    3D
 Structure written by MMmdl.
159167  0  0  1  0            999 V2000
  -30.6770  -14.5074   20.5704 C   0  0  0  0  0  0
  -30.4310  -12.3202   19.4439 C   0  0  0  0  0  0
  -29.5079  -12.5050   18.2208 C   0  0  0  0  0  0
  -28.0263  -12.3667   18.6253 C   0  0  0  0  0  0
  -27.6648  -13.2101   19.8780 C   0  0  2  0  0  0
  -28.7015  -12.9948   21.0042 C   0  0  0  0  0  0
  -25.2605  -13.8172   20.5683 C   0  0  0  0  0  0
  -24.1858  -13.0442   20.9160 C   0  0  0  0  0  0
  -24.6412  -11.6906   20.8734 C   0  0  0  0  0  0
  -23.9072  -10.4294   21.0407 C   0  0  0  0  0  0
  -24.3624   -9.4203   21.9182 C   0  0  0  0  0  0
  -23.6292   -8.2243   22.0755 C   0  0  0  0  0  0
  -22.4275   -8.0291   21.3540 C   0  0  0  0  0  0
  -21.9904   -9.0271   20.4653 C   0  0  0  0  0  0
  -22.7237  -10.2146   20.3061 C   0  0  0  0  0  0
  -21.6857   -6.0728   22.5270 C   0  0  0  0  0  0
  -21.4027   -6.5638   23.8206 C   0  0  0  0  0  0
  -21.3659   -5.6784   24.9165 C   0  0  0  0  0  0
  -21.6043   -4.3046   24.7222 C   0  0  0  0  0  0
  -21.8821   -3.8135   23.4342 C   0  0  0  0  0  0
  -21.9198   -4.6952   22.3390 C   0  0  0  0  0  0
  -22.7874  -13.5245   21.1817 C   0  0  0  0  0  0
  -22.1663   -4.2138   21.0974 F   0  0  0  0  0  0
  -21.5617   -3.4540   25.7729 F   0  0  0  0  0  0
  -30.0381  -13.3069   20.4645 N   0  0  0  0  0  0
  -26.3045  -12.9346   20.3359 N   0  0  0  0  0  0
  -25.9348  -11.6498   20.5762 N   0  0  0  0  0  0
  -22.0513  -12.8251   22.0382 N   0  0  0  0  0  0
  -25.4317  -15.1899   20.4147 N   0  0  0  0  0  0
  -31.7781  -14.7261   20.0570 O   0  0  0  0  0  0
  -21.6643   -6.8883   21.4234 O   0  0  0  0  0  0
  -22.3549  -14.5545   20.6661 O   0  0  0  0  0  0
  -24.6158  -31.8659   23.2082 C   0  0  0  0  0  0
  -25.9039  -32.4809   23.8401 C   0  0  1  0  0  0
  -27.2278  -27.4139   20.1024 C   0  0  0  0  0  0
  -25.5876  -33.8609   24.2322 N   0  0  0  0  0  0
  -23.4075  -30.4893   21.5470 C   0  0  2  0  0  0
  -24.8578  -28.9588   20.1061 C   0  0  0  0  0  0
  -22.7434  -29.4640   22.4950 C   0  0  0  0  0  0
  -18.0280  -28.1389   22.8494 C   0  0  0  0  0  0
  -24.1481  -36.7321   23.2646 C   0  0  0  0  0  0
  -25.9389  -30.8276   21.3647 C   0  0  0  0  0  0
  -26.0198  -29.4628   20.7067 C   0  0  0  0  0  0
  -27.2136  -28.6975   20.7026 C   0  0  0  0  0  0
  -26.0548  -26.9341   19.4877 C   0  0  0  0  0  0
  -24.8708  -27.6955   19.4902 C   0  0  0  0  0  0
  -23.6186  -29.8256   20.1607 C   0  0  0  0  0  0
  -25.4100  -36.3105   24.0340 C   0  0  1  0  0  0
  -20.5875  -28.3675   23.1301 C   0  0  2  0  0  0
  -20.6759  -26.9403   22.5422 C   0  0  0  0  0  0
  -19.5742  -26.6386   21.5221 C   0  0  0  0  0  0
  -18.1923  -26.7935   22.1626 C   0  0  0  0  0  0
  -19.1532  -28.8850   23.2898 C   0  0  0  0  0  0
  -18.9459  -30.1447   23.8922 C   0  0  0  0  0  0
  -17.6459  -30.6585   24.0574 C   0  0  0  0  0  0
  -25.9025  -34.9466   23.5137 C   0  0  0  0  0  0
  -16.5348  -29.9092   23.6324 C   0  0  0  0  0  0
  -16.7268  -28.6508   23.0349 C   0  0  0  0  0  0
  -26.4466  -31.6594   25.0730 C   0  0  0  0  0  0
  -25.3732  -31.3733   26.1487 C   0  0  0  0  0  0
  -27.0292  -30.3025   24.6122 C   0  0  0  0  0  0
  -27.6050  -32.4319   25.7467 C   0  0  0  0  0  0
  -27.5567  -37.1824   24.8467 C   0  0  0  0  0  0
  -21.4158  -29.3030   22.3692 N   0  0  0  0  0  0
  -26.4297  -37.3771   23.9385 N   0  0  0  0  0  0
  -24.6724  -31.0751   22.0985 N   0  0  0  0  0  0
  -23.4195  -28.8190   23.3008 O   0  0  0  0  0  0
  -28.3108  -26.5622   20.1771 O   0  0  0  0  0  0
  -26.5605  -34.8919   22.4704 O   0  0  0  0  0  0
  -23.5345  -32.1412   23.7458 O   0  0  0  0  0  0
  -30.3550  -17.4548   19.6972 C   0  0  0  0  0  0
  -30.0559  -18.8077   19.4260 C   0  0  0  0  0  0
  -29.2209  -17.7371   21.8040 C   0  0  0  0  0  0
  -29.9005  -16.8795   20.9095 C   0  0  0  0  0  0
  -29.3517  -19.5653   20.3789 C   0  0  0  0  0  0
  -28.2080  -25.6624   21.2223 C   0  0  0  0  0  0
  -28.7561  -20.8750   20.0245 C   0  0  0  0  0  0
  -28.4155  -24.3173   21.2225 C   0  0  0  0  0  0
  -28.1484  -23.5553   22.5141 C   0  0  0  0  0  0
  -29.9824  -24.1410   19.1970 C   0  0  0  0  0  0
  -28.8815  -23.4572   20.0253 C   0  0  1  0  0  0
  -28.9419  -19.0409   21.5549 N   0  0  0  0  0  0
  -27.6600  -20.8276   19.2596 N   0  0  0  0  0  0
  -29.9961  -15.4752   21.2211 N   0  0  0  0  0  0
  -29.2909  -22.0648   20.4092 N   0  3  0  0  0  0
  -31.4771  -12.4209   19.1501 H   0  0  0  0  0  0
  -30.3337  -11.3120   19.8504 H   0  0  0  0  0  0
  -29.7550  -11.7703   17.4535 H   0  0  0  0  0  0
  -29.6813  -13.4838   17.7722 H   0  0  0  0  0  0
  -27.8365  -11.3117   18.8244 H   0  0  0  0  0  0
  -27.3821  -12.6362   17.7885 H   0  0  0  0  0  0
  -27.7075  -14.2586   19.5813 H   0  0  0  0  0  0
  -28.6791  -11.9593   21.3458 H   0  0  0  0  0  0
  -28.4519  -13.5933   21.8813 H   0  0  0  0  0  0
  -25.2788   -9.5657   22.4745 H   0  0  0  0  0  0
  -23.9996   -7.4630   22.7479 H   0  0  0  0  0  0
  -21.0826   -8.8804   19.8975 H   0  0  0  0  0  0
  -22.3708  -10.9690   19.6172 H   0  0  0  0  0  0
  -21.2039   -7.6146   23.9704 H   0  0  0  0  0  0
  -21.1470   -6.0518   25.9065 H   0  0  0  0  0  0
  -22.0606   -2.7597   23.2850 H   0  0  0  0  0  0
  -22.4151  -11.9932   22.4784 H   0  0  0  0  0  0
  -21.1129  -13.1280   22.2595 H   0  0  0  0  0  0
  -24.6646  -15.8439   20.5301 H   0  0  0  0  0  0
  -26.2849  -15.6301   20.0936 H   0  0  0  0  0  0
  -26.7111  -32.5528   23.1175 H   0  0  0  0  0  0
  -24.9965  -33.9765   25.0424 H   0  0  0  0  0  0
  -22.6964  -31.3061   21.4078 H   0  0  0  0  0  0
  -23.3691  -35.9714   23.3396 H   0  0  0  0  0  0
  -24.3552  -36.8834   22.2040 H   0  0  0  0  0  0
  -23.7302  -37.6586   23.6596 H   0  0  0  0  0  0
  -26.0537  -31.5955   20.5985 H   0  0  0  0  0  0
  -26.8257  -30.8813   21.9849 H   0  0  0  0  0  0
  -28.1060  -29.0682   21.1879 H   0  0  0  0  0  0
  -26.0519  -25.9527   19.0362 H   0  0  0  0  0  0
  -23.9768  -27.3004   19.0274 H   0  0  0  0  0  0
  -23.7269  -30.6041   19.4050 H   0  0  0  0  0  0
  -22.7431  -29.2469   19.8618 H   0  0  0  0  0  0
  -25.1280  -36.1987   25.0837 H   0  0  0  0  0  0
  -20.9973  -28.3262   24.1418 H   0  0  0  0  0  0
  -20.5635  -26.2299   23.3621 H   0  0  0  0  0  0
  -21.6630  -26.7418   22.1235 H   0  0  0  0  0  0
  -19.6894  -25.6307   21.1229 H   0  0  0  0  0  0
  -19.6675  -27.3211   20.6769 H   0  0  0  0  0  0
  -17.4186  -26.6688   21.4038 H   0  0  0  0  0  0
  -18.0315  -26.0081   22.9019 H   0  0  0  0  0  0
  -19.7934  -30.7260   24.2301 H   0  0  0  0  0  0
  -17.5013  -31.6264   24.5179 H   0  0  0  0  0  0
  -15.5351  -30.3002   23.7635 H   0  0  0  0  0  0
  -15.8671  -28.0832   22.7053 H   0  0  0  0  0  0
  -24.5880  -30.7102   25.7838 H   0  0  0  0  0  0
  -24.8959  -32.2910   26.4944 H   0  0  0  0  0  0
  -25.8080  -30.8894   27.0242 H   0  0  0  0  0  0
  -26.2847  -29.6793   24.1151 H   0  0  0  0  0  0
  -27.4019  -29.7259   25.4601 H   0  0  0  0  0  0
  -27.8704  -30.4333   23.9309 H   0  0  0  0  0  0
  -27.2669  -33.3595   26.2103 H   0  0  0  0  0  0
  -28.3815  -32.6918   25.0257 H   0  0  0  0  0  0
  -28.0777  -31.8415   26.5327 H   0  0  0  0  0  0
  -28.2649  -38.0052   24.7398 H   0  0  0  0  0  0
  -28.0990  -36.2580   24.6424 H   0  0  0  0  0  0
  -27.2282  -37.1643   25.8874 H   0  0  0  0  0  0
  -20.9317  -29.8766   21.6925 H   0  0  0  0  0  0
  -26.0194  -38.2864   24.1321 H   0  0  0  0  0  0
  -30.8603  -16.8674   18.9454 H   0  0  0  0  0  0
  -30.3134  -19.2494   18.4731 H   0  0  0  0  0  0
  -28.8469  -17.3537   22.7420 H   0  0  0  0  0  0
  -27.8920  -26.1698   22.1257 H   0  0  0  0  0  0
  -27.7392  -24.2069   23.2878 H   0  0  0  0  0  0
  -29.0639  -23.1156   22.9091 H   0  0  0  0  0  0
  -27.4190  -22.7613   22.3480 H   0  0  0  0  0  0
  -29.5470  -24.8111   18.4548 H   0  0  0  0  0  0
  -30.5964  -23.4157   18.6620 H   0  0  0  0  0  0
  -30.6485  -24.7325   19.8261 H   0  0  0  0  0  0
  -28.0109  -23.3567   19.3794 H   0  0  0  0  0  0
  -27.2969  -19.9150   19.0296 H   0  0  0  0  0  0
  -27.1133  -21.6322   19.0120 H   0  0  0  0  0  0
  -29.2733  -15.1222   21.8327 H   0  0  0  0  0  0
  -30.0834  -21.9917   21.0304 H   0  0  0  0  0  0
  1 25  1  0  0  0
  1 30  2  0  0  0
  1 84  1  0  0  0
  2  3  1  0  0  0
  2 25  1  0  0  0
  2 86  1  0  0  0
  2 87  1  0  0  0
  3  4  1  0  0  0
  3 88  1  0  0  0
  3 89  1  0  0  0
  4  5  1  0  0  0
  4 90  1  0  0  0
  4 91  1  0  0  0
  5  6  1  0  0  0
  5 26  1  0  0  0
  5 92  1  0  0  0
  6 25  1  0  0  0
  6 93  1  0  0  0
  6 94  1  0  0  0
  7  8  2  0  0  0
  7 26  1  0  0  0
  7 29  1  0  0  0
  8  9  1  0  0  0
  8 22  1  0  0  0
  9 10  1  0  0  0
  9 27  2  0  0  0
 10 11  2  0  0  0
 10 15  1  0  0  0
 11 12  1  0  0  0
 11 95  1  0  0  0
 12 13  2  0  0  0
 12 96  1  0  0  0
 13 14  1  0  0  0
 13 31  1  0  0  0
 14 15  2  0  0  0
 14 97  1  0  0  0
 15 98  1  0  0  0
 16 17  2  0  0  0
 16 21  1  0  0  0
 16 31  1  0  0  0
 17 18  1  0  0  0
 17 99  1  0  0  0
 18 19  2  0  0  0
 18100  1  0  0  0
 19 20  1  0  0  0
 19 24  1  0  0  0
 20 21  2  0  0  0
 20101  1  0  0  0
 21 23  1  0  0  0
 22 28  1  0  0  0
 22 32  2  0  0  0
 26 27  1  0  0  0
 28102  1  0  0  0
 28103  1  0  0  0
 29104  1  0  0  0
 29105  1  0  0  0
 33 34  1  0  0  0
 33 66  1  0  0  0
 33 70  2  0  0  0
 34 36  1  0  0  0
 34 59  1  0  0  0
 34106  1  0  0  0
 35 44  2  0  0  0
 35 45  1  0  0  0
 35 68  1  0  0  0
 36 56  1  0  0  0
 36107  1  0  0  0
 37 39  1  0  0  0
 37 47  1  0  0  0
 37 66  1  0  0  0
 37108  1  0  0  0
 38 43  2  0  0  0
 38 46  1  0  0  0
 38 47  1  0  0  0
 39 64  1  0  0  0
 39 67  2  0  0  0
 40 52  1  0  0  0
 40 53  2  0  0  0
 40 58  1  0  0  0
 41109  1  0  0  0
 41110  1  0  0  0
 41111  1  0  0  0
 41 48  1  0  0  0
 42 43  1  0  0  0
 42 66  1  0  0  0
 42112  1  0  0  0
 42113  1  0  0  0
 43 44  1  0  0  0
 44114  1  0  0  0
 45 46  2  0  0  0
 45115  1  0  0  0
 46116  1  0  0  0
 47117  1  0  0  0
 47118  1  0  0  0
 48 56  1  0  0  0
 48 65  1  0  0  0
 48119  1  0  0  0
 49 50  1  0  0  0
 49 53  1  0  0  0
 49 64  1  0  0  0
 49120  1  0  0  0
 50 51  1  0  0  0
 50121  1  0  0  0
 50122  1  0  0  0
 51 52  1  0  0  0
 51123  1  0  0  0
 51124  1  0  0  0
 52125  1  0  0  0
 52126  1  0  0  0
 53 54  1  0  0  0
 54 55  2  0  0  0
 54127  1  0  0  0
 55 57  1  0  0  0
 55128  1  0  0  0
 56 69  2  0  0  0
 57 58  2  0  0  0
 57129  1  0  0  0
 58130  1  0  0  0
 59 60  1  0  0  0
 59 61  1  0  0  0
 59 62  1  0  0  0
 60131  1  0  0  0
 60132  1  0  0  0
 60133  1  0  0  0
 61134  1  0  0  0
 61135  1  0  0  0
 61136  1  0  0  0
 62137  1  0  0  0
 62138  1  0  0  0
 62139  1  0  0  0
 63 65  1  0  0  0
 63140  1  0  0  0
 63141  1  0  0  0
 63142  1  0  0  0
 64143  1  0  0  0
 65144  1  0  0  0
 68 76  1  0  0  0
 71 72  2  0  0  0
 71 74  1  0  0  0
 71145  1  0  0  0
 72 75  1  0  0  0
 72146  1  0  0  0
 73 74  2  0  0  0
 73 82  1  0  0  0
 73147  1  0  0  0
 74 84  1  0  0  0
 75 77  1  0  0  0
 75 82  2  0  0  0
 76 78  2  0  0  0
 76148  1  0  0  0
 77 83  1  0  0  0
 77 85  2  0  0  0
 78 79  1  0  0  0
 78 81  1  0  0  0
 79149  1  0  0  0
 79150  1  0  0  0
 79151  1  0  0  0
 80152  1  0  0  0
 80153  1  0  0  0
 80154  1  0  0  0
 80 81  1  0  0  0
 81 85  1  0  0  0
 81155  1  0  0  0
 83156  1  0  0  0
 83157  1  0  0  0
 84158  1  0  0  0
 85159  1  0  0  0
M  CHG  1  85   1
M  ISO  4   1 100  68 101  76 101  84 100
M  END
> <chiral flag>
0

> <version>
0

> <s_m_source_file>
/data/baiqing/PycharmProjects/Reinvent-master-3.2/result/LINK_invent/BTK/process_docking_weight1_custom_product_contain_oxygen_bond_distance_aromatic_linkinvent_7_9_3/rearranged_h_0073.sdf

> <i_m_source_file_index>
92

> <r_mmod_Potential_Energy-OPLS-2005>
-417.723205566406

> <r_mmod_Stretch_Energy-OPLS-2005>
44.1004867553711

> <r_mmod_Bend_Energy-OPLS-2005>
114.765502929688

> <r_mmod_Torsional_Energy-OPLS-2005>
254.863616943359

> <r_mmod_Improper_Torsional_Energy-OPLS-2005>
6.04806613922119

> <r_mmod_Van_der_Waal_Energy-OPLS-2005>
152.104385375977

> <r_mmod_Electrostatic_Energy-OPLS-2005>
-569.6259765625

> <r_mmod_Solvation_Energy-OPLS-2005>
-441.067291259766

> <b_mmod_Minimization_Converged-OPLS-2005>
0

> <r_mmod_RMS_Derivative-OPLS-2005>
2.26936197280884

$$$$
92
                    3D
 Structure written by MMmdl.
162171  0  0  1  0            999 V2000
  -30.5976  -14.7428   20.4615 C   0  0  0  0  0  0
  -30.4405  -12.4502   19.4948 C   0  0  0  0  0  0
  -29.5273  -12.5215   18.2490 C   0  0  0  0  0  0
  -28.0505  -12.3389   18.6521 C   0  0  0  0  0  0
  -27.6493  -13.2332   19.8565 C   0  0  2  0  0  0
  -28.6849  -13.1517   21.0001 C   0  0  0  0  0  0
  -25.2535  -13.8202   20.5683 C   0  0  0  0  0  0
  -24.1815  -13.0451   20.9176 C   0  0  0  0  0  0
  -24.6394  -11.6935   20.8702 C   0  0  0  0  0  0
  -23.9072  -10.4322   21.0393 C   0  0  0  0  0  0
  -24.3629   -9.4244   21.9178 C   0  0  0  0  0  0
  -23.6294   -8.2273   22.0759 C   0  0  0  0  0  0
  -22.4268   -8.0297   21.3563 C   0  0  0  0  0  0
  -21.9904   -9.0273   20.4669 C   0  0  0  0  0  0
  -22.7237  -10.2148   20.3065 C   0  0  0  0  0  0
  -21.6852   -6.0739   22.5280 C   0  0  0  0  0  0
  -21.4011   -6.5639   23.8207 C   0  0  0  0  0  0
  -21.3668   -5.6779   24.9162 C   0  0  0  0  0  0
  -21.6040   -4.3046   24.7209 C   0  0  0  0  0  0
  -21.8814   -3.8153   23.4326 C   0  0  0  0  0  0
  -21.9194   -4.6981   22.3384 C   0  0  0  0  0  0
  -22.7830  -13.5238   21.1835 C   0  0  0  0  0  0
  -22.1666   -4.2177   21.0962 F   0  0  0  0  0  0
  -21.5643   -3.4529   25.7727 F   0  0  0  0  0  0
  -29.9972  -13.5030   20.4392 N   0  0  0  0  0  0
  -26.2961  -12.9415   20.3261 N   0  0  0  0  0  0
  -25.9329  -11.6554   20.5682 N   0  0  0  0  0  0
  -22.0470  -12.8260   22.0414 N   0  0  0  0  0  0
  -25.4274  -15.1908   20.4124 N   0  0  0  0  0  0
  -31.7576  -14.8690   20.0623 O   0  0  0  0  0  0
  -21.6636   -6.8891   21.4242 O   0  0  0  0  0  0
  -22.3524  -14.5554   20.6693 O   0  0  0  0  0  0
  -24.6324  -31.8583   23.2000 C   0  0  0  0  0  0
  -25.9143  -32.4780   23.8345 C   0  0  1  0  0  0
  -27.2010  -27.2553   20.1211 C   0  0  0  0  0  0
  -25.5927  -33.8583   24.2251 N   0  0  0  0  0  0
  -23.4271  -30.4833   21.5474 C   0  0  2  0  0  0
  -24.8685  -28.9374   20.1063 C   0  0  0  0  0  0
  -22.7503  -29.4621   22.4937 C   0  0  0  0  0  0
  -18.0290  -28.1377   22.8491 C   0  0  0  0  0  0
  -24.1488  -36.7289   23.2637 C   0  0  0  0  0  0
  -25.9765  -30.7676   21.3835 C   0  0  0  0  0  0
  -26.0436  -29.3934   20.7176 C   0  0  0  0  0  0
  -27.2130  -28.5646   20.7137 C   0  0  0  0  0  0
  -26.0049  -26.8804   19.4660 C   0  0  0  0  0  0
  -24.8548  -27.6895   19.4701 C   0  0  0  0  0  0
  -23.6419  -29.8256   20.1597 C   0  0  0  0  0  0
  -25.4125  -36.3097   24.0321 C   0  0  1  0  0  0
  -20.5894  -28.3690   23.1272 C   0  0  2  0  0  0
  -20.6777  -26.9401   22.5420 C   0  0  0  0  0  0
  -19.5754  -26.6375   21.5213 C   0  0  0  0  0  0
  -18.1926  -26.7924   22.1613 C   0  0  0  0  0  0
  -19.1542  -28.8854   23.2872 C   0  0  0  0  0  0
  -18.9470  -30.1453   23.8900 C   0  0  0  0  0  0
  -17.6465  -30.6575   24.0568 C   0  0  0  0  0  0
  -25.9069  -34.9466   23.5096 C   0  0  0  0  0  0
  -16.5359  -29.9077   23.6324 C   0  0  0  0  0  0
  -16.7279  -28.6488   23.0364 C   0  0  0  0  0  0
  -26.4471  -31.6627   25.0757 C   0  0  0  0  0  0
  -25.3646  -31.3849   26.1444 C   0  0  0  0  0  0
  -27.0295  -30.3024   24.6286 C   0  0  0  0  0  0
  -27.6038  -32.4376   25.7510 C   0  0  0  0  0  0
  -27.5596  -37.1792   24.8450 C   0  0  0  0  0  0
  -21.4213  -29.3033   22.3659 N   0  0  0  0  0  0
  -26.4302  -37.3799   23.9415 N   0  0  0  0  0  0
  -24.6981  -31.0534   22.0991 N   0  0  0  0  0  0
  -23.4205  -28.8153   23.3026 O   0  0  0  0  0  0
  -28.2732  -26.3321   20.2000 O   0  0  0  0  0  0
  -26.5650  -34.8942   22.4672 O   0  0  0  0  0  0
  -23.5465  -32.1418   23.7275 O   0  0  0  0  0  0
  -29.1071  -18.1367   17.9187 C   0  0  0  0  0  0
  -29.3753  -17.0080   18.7095 C   0  0  0  0  0  0
  -29.6148  -18.4791   20.6328 C   0  0  0  0  0  0
  -29.1162  -19.4484   18.4433 C   0  0  0  0  0  0
  -29.3389  -19.6783   19.8355 C   0  0  0  0  0  0
  -29.6613  -17.1260   20.0831 C   0  0  0  0  0  0
  -31.3200  -22.7002   20.3737 C   0  0  0  0  0  0
  -28.5102  -22.1358   20.1760 C   0  0  0  0  0  0
  -32.6285  -22.7477   20.0768 C   0  0  0  0  0  0
  -30.3958  -23.8729   20.0565 C   0  0  0  0  0  0
  -30.6761  -21.4655   21.0063 C   0  0  0  0  0  0
  -28.9324  -23.6583   20.4936 C   0  0  1  0  0  0
  -28.9530  -20.5812   17.4403 C   0  0  0  0  0  0
  -27.9888  -24.8662   19.9627 C   0  0  0  0  0  0
  -29.4235  -21.0871   20.3433 N   0  0  0  0  0  0
  -29.8424  -15.8521   20.8222 N   0  0  0  0  0  0
  -27.3492  -21.9261   19.8073 O   0  0  0  0  0  0
  -31.4885  -12.5655   19.2087 H   0  0  0  0  0  0
  -30.3731  -11.4706   19.9697 H   0  0  0  0  0  0
  -29.8188  -11.7617   17.5237 H   0  0  0  0  0  0
  -29.6591  -13.4817   17.7486 H   0  0  0  0  0  0
  -27.9014  -11.2883   18.9042 H   0  0  0  0  0  0
  -27.4024  -12.5433   17.8005 H   0  0  0  0  0  0
  -27.6531  -14.2569   19.4803 H   0  0  0  0  0  0
  -28.7120  -12.1495   21.4264 H   0  0  0  0  0  0
  -28.4118  -13.8226   21.8172 H   0  0  0  0  0  0
  -25.2794   -9.5703   22.4720 H   0  0  0  0  0  0
  -24.0030   -7.4648   22.7447 H   0  0  0  0  0  0
  -21.0844   -8.8768   19.8959 H   0  0  0  0  0  0
  -22.3705  -10.9660   19.6141 H   0  0  0  0  0  0
  -21.2004   -7.6147   23.9715 H   0  0  0  0  0  0
  -21.1489   -6.0514   25.9060 H   0  0  0  0  0  0
  -22.0594   -2.7626   23.2803 H   0  0  0  0  0  0
  -22.4067  -11.9942   22.4830 H   0  0  0  0  0  0
  -21.1076  -13.1291   22.2595 H   0  0  0  0  0  0
  -24.6644  -15.8495   20.5304 H   0  0  0  0  0  0
  -26.2813  -15.6271   20.0912 H   0  0  0  0  0  0
  -26.7209  -32.5411   23.1084 H   0  0  0  0  0  0
  -25.0054  -33.9716   25.0382 H   0  0  0  0  0  0
  -22.7250  -31.3073   21.4079 H   0  0  0  0  0  0
  -23.3784  -35.9580   23.3279 H   0  0  0  0  0  0
  -24.3595  -36.8942   22.2056 H   0  0  0  0  0  0
  -23.7191  -37.6465   23.6682 H   0  0  0  0  0  0
  -26.1267  -31.5341   20.6213 H   0  0  0  0  0  0
  -26.8499  -30.8058   22.0228 H   0  0  0  0  0  0
  -28.1109  -28.9091   21.2079 H   0  0  0  0  0  0
  -25.9172  -25.9332   18.9561 H   0  0  0  0  0  0
  -23.9548  -27.3378   18.9841 H   0  0  0  0  0  0
  -23.7653  -30.6083   19.4101 H   0  0  0  0  0  0
  -22.7582  -29.2634   19.8533 H   0  0  0  0  0  0
  -25.1299  -36.1963   25.0810 H   0  0  0  0  0  0
  -20.9982  -28.3270   24.1396 H   0  0  0  0  0  0
  -20.5670  -26.2291   23.3625 H   0  0  0  0  0  0
  -21.6649  -26.7412   22.1227 H   0  0  0  0  0  0
  -19.6912  -25.6279   21.1265 H   0  0  0  0  0  0
  -19.6699  -27.3175   20.6734 H   0  0  0  0  0  0
  -17.4199  -26.6689   21.4009 H   0  0  0  0  0  0
  -18.0309  -26.0061   22.9000 H   0  0  0  0  0  0
  -19.7946  -30.7268   24.2275 H   0  0  0  0  0  0
  -17.5025  -31.6255   24.5156 H   0  0  0  0  0  0
  -15.5369  -30.2987   23.7642 H   0  0  0  0  0  0
  -15.8676  -28.0808   22.7100 H   0  0  0  0  0  0
  -24.5793  -30.7221   25.7783 H   0  0  0  0  0  0
  -24.8834  -32.3040   26.4806 H   0  0  0  0  0  0
  -25.7879  -30.9069   27.0272 H   0  0  0  0  0  0
  -26.2871  -29.6815   24.1242 H   0  0  0  0  0  0
  -27.3858  -29.7287   25.4853 H   0  0  0  0  0  0
  -27.8821  -30.4288   23.9608 H   0  0  0  0  0  0
  -27.2638  -33.3669   26.2096 H   0  0  0  0  0  0
  -28.3802  -32.6951   25.0300 H   0  0  0  0  0  0
  -28.0735  -31.8500   26.5400 H   0  0  0  0  0  0
  -28.2598  -38.0106   24.7554 H   0  0  0  0  0  0
  -28.1105  -36.2650   24.6201 H   0  0  0  0  0  0
  -27.2322  -37.1359   25.8849 H   0  0  0  0  0  0
  -20.9398  -29.8774   21.6886 H   0  0  0  0  0  0
  -26.0193  -38.2873   24.1449 H   0  0  0  0  0  0
  -28.9140  -17.9786   16.8666 H   0  0  0  0  0  0
  -29.3454  -16.0343   18.2402 H   0  0  0  0  0  0
  -29.8041  -18.6070   21.6895 H   0  0  0  0  0  0
  -33.0670  -23.6258   19.6258 H   0  0  0  0  0  0
  -33.2844  -21.9112   20.2744 H   0  0  0  0  0  0
  -30.4298  -24.0685   18.9823 H   0  0  0  0  0  0
  -30.7889  -24.7652   20.5446 H   0  0  0  0  0  0
  -30.4716  -21.6789   22.0562 H   0  0  0  0  0  0
  -31.3839  -20.6352   20.9946 H   0  0  0  0  0  0
  -28.9142  -23.7208   21.5831 H   0  0  0  0  0  0
  -29.1109  -20.2317   16.4185 H   0  0  0  0  0  0
  -29.6755  -21.3783   17.6166 H   0  0  0  0  0  0
  -27.9479  -20.9980   17.4884 H   0  0  0  0  0  0
  -27.0102  -24.6557   20.3962 H   0  0  0  0  0  0
  -27.8715  -24.7413   18.8847 H   0  0  0  0  0  0
  -29.0503  -15.6080   21.3996 H   0  0  0  0  0  0
  1 25  1  0  0  0
  1 30  2  0  0  0
  1 86  1  0  0  0
  2  3  1  0  0  0
  2 25  1  0  0  0
  2 88  1  0  0  0
  2 89  1  0  0  0
  3  4  1  0  0  0
  3 90  1  0  0  0
  3 91  1  0  0  0
  4  5  1  0  0  0
  4 92  1  0  0  0
  4 93  1  0  0  0
  5  6  1  0  0  0
  5 26  1  0  0  0
  5 94  1  0  0  0
  6 25  1  0  0  0
  6 95  1  0  0  0
  6 96  1  0  0  0
  7  8  2  0  0  0
  7 26  1  0  0  0
  7 29  1  0  0  0
  8  9  1  0  0  0
  8 22  1  0  0  0
  9 10  1  0  0  0
  9 27  2  0  0  0
 10 11  2  0  0  0
 10 15  1  0  0  0
 11 12  1  0  0  0
 11 97  1  0  0  0
 12 13  2  0  0  0
 12 98  1  0  0  0
 13 14  1  0  0  0
 13 31  1  0  0  0
 14 15  2  0  0  0
 14 99  1  0  0  0
 15100  1  0  0  0
 16 17  2  0  0  0
 16 21  1  0  0  0
 16 31  1  0  0  0
 17 18  1  0  0  0
 17101  1  0  0  0
 18 19  2  0  0  0
 18102  1  0  0  0
 19 20  1  0  0  0
 19 24  1  0  0  0
 20 21  2  0  0  0
 20103  1  0  0  0
 21 23  1  0  0  0
 22 28  1  0  0  0
 22 32  2  0  0  0
 26 27  1  0  0  0
 28104  1  0  0  0
 28105  1  0  0  0
 29106  1  0  0  0
 29107  1  0  0  0
 33 34  1  0  0  0
 33 66  1  0  0  0
 33 70  2  0  0  0
 34 36  1  0  0  0
 34 59  1  0  0  0
 34108  1  0  0  0
 35 44  2  0  0  0
 35 45  1  0  0  0
 35 68  1  0  0  0
 36 56  1  0  0  0
 36109  1  0  0  0
 37 39  1  0  0  0
 37 47  1  0  0  0
 37 66  1  0  0  0
 37110  1  0  0  0
 38 43  2  0  0  0
 38 46  1  0  0  0
 38 47  1  0  0  0
 39 64  1  0  0  0
 39 67  2  0  0  0
 40 52  1  0  0  0
 40 53  2  0  0  0
 40 58  1  0  0  0
 41111  1  0  0  0
 41112  1  0  0  0
 41113  1  0  0  0
 41 48  1  0  0  0
 42 43  1  0  0  0
 42 66  1  0  0  0
 42114  1  0  0  0
 42115  1  0  0  0
 43 44  1  0  0  0
 44116  1  0  0  0
 45 46  2  0  0  0
 45117  1  0  0  0
 46118  1  0  0  0
 47119  1  0  0  0
 47120  1  0  0  0
 48 56  1  0  0  0
 48 65  1  0  0  0
 48121  1  0  0  0
 49 50  1  0  0  0
 49 53  1  0  0  0
 49 64  1  0  0  0
 49122  1  0  0  0
 50 51  1  0  0  0
 50123  1  0  0  0
 50124  1  0  0  0
 51 52  1  0  0  0
 51125  1  0  0  0
 51126  1  0  0  0
 52127  1  0  0  0
 52128  1  0  0  0
 53 54  1  0  0  0
 54 55  2  0  0  0
 54129  1  0  0  0
 55 57  1  0  0  0
 55130  1  0  0  0
 56 69  2  0  0  0
 57 58  2  0  0  0
 57131  1  0  0  0
 58132  1  0  0  0
 59 60  1  0  0  0
 59 61  1  0  0  0
 59 62  1  0  0  0
 60133  1  0  0  0
 60134  1  0  0  0
 60135  1  0  0  0
 61136  1  0  0  0
 61137  1  0  0  0
 61138  1  0  0  0
 62139  1  0  0  0
 62140  1  0  0  0
 62141  1  0  0  0
 63 65  1  0  0  0
 63142  1  0  0  0
 63143  1  0  0  0
 63144  1  0  0  0
 64145  1  0  0  0
 65146  1  0  0  0
 68 84  1  0  0  0
 71 72  2  0  0  0
 71 74  1  0  0  0
 71147  1  0  0  0
 72 76  1  0  0  0
 72148  1  0  0  0
 73 75  1  0  0  0
 73 76  2  0  0  0
 73149  1  0  0  0
 74 75  2  0  0  0
 74 83  1  0  0  0
 75 85  1  0  0  0
 76 86  1  0  0  0
 77 79  2  0  0  0
 77 80  1  0  0  0
 77 81  1  0  0  0
 78 82  1  0  0  0
 78 85  1  0  0  0
 78 87  2  0  0  0
 79150  1  0  0  0
 79151  1  0  0  0
 80 82  1  0  0  0
 80152  1  0  0  0
 80153  1  0  0  0
 81 85  1  0  0  0
 81154  1  0  0  0
 81155  1  0  0  0
 82 84  1  0  0  0
 82156  1  0  0  0
 83157  1  0  0  0
 83158  1  0  0  0
 83159  1  0  0  0
 84160  1  0  0  0
 84161  1  0  0  0
 86162  1  0  0  0
M  ISO  4   1 100  68 101  84 101  86 100
M  END
> <chiral flag>
0

> <version>
0

> <s_m_source_file>
/data/baiqing/PycharmProjects/Reinvent-master-3.2/result/LINK_invent/BTK/process_docking_weight1_custom_product_contain_oxygen_bond_distance_aromatic_linkinvent_7_9_3/rearranged_h_0073.sdf

> <i_m_source_file_index>
93

> <r_mmod_Potential_Energy-OPLS-2005>
289.335876464844

> <r_mmod_Stretch_Energy-OPLS-2005>
136.223220825195

> <r_mmod_Bend_Energy-OPLS-2005>
159.225250244141

> <r_mmod_Torsional_Energy-OPLS-2005>
318.845764160156

> <r_mmod_Improper_Torsional_Energy-OPLS-2005>
6.18042373657227

> <r_mmod_Van_der_Waal_Energy-OPLS-2005>
154.727157592773

> <r_mmod_Electrostatic_Energy-OPLS-2005>
-357.854766845703

> <r_mmod_Solvation_Energy-OPLS-2005>
-217.868865966797

> <b_mmod_Minimization_Converged-OPLS-2005>
0

> <r_mmod_RMS_Derivative-OPLS-2005>
3.36989402770996

$$$$
93
                    3D
 Structure written by MMmdl.
159168  0  0  1  0            999 V2000
  -30.6008  -14.6570   20.5062 C   0  0  0  0  0  0
  -30.4504  -12.4068   19.4487 C   0  0  0  0  0  0
  -29.5155  -12.5091   18.2229 C   0  0  0  0  0  0
  -28.0369  -12.3404   18.6316 C   0  0  0  0  0  0
  -27.6555  -13.2108   19.8579 C   0  0  2  0  0  0
  -28.6985  -13.0593   20.9869 C   0  0  0  0  0  0
  -25.2578  -13.8161   20.5658 C   0  0  0  0  0  0
  -24.1848  -13.0433   20.9194 C   0  0  0  0  0  0
  -24.6408  -11.6902   20.8735 C   0  0  0  0  0  0
  -23.9069  -10.4298   21.0404 C   0  0  0  0  0  0
  -24.3619   -9.4202   21.9170 C   0  0  0  0  0  0
  -23.6293   -8.2242   22.0754 C   0  0  0  0  0  0
  -22.4265   -8.0297   21.3563 C   0  0  0  0  0  0
  -21.9897   -9.0270   20.4663 C   0  0  0  0  0  0
  -22.7235  -10.2144   20.3058 C   0  0  0  0  0  0
  -21.6859   -6.0728   22.5278 C   0  0  0  0  0  0
  -21.4015   -6.5623   23.8215 C   0  0  0  0  0  0
  -21.3655   -5.6778   24.9178 C   0  0  0  0  0  0
  -21.6036   -4.3045   24.7227 C   0  0  0  0  0  0
  -21.8817   -3.8151   23.4345 C   0  0  0  0  0  0
  -21.9197   -4.6960   22.3394 C   0  0  0  0  0  0
  -22.7868  -13.5227   21.1852 C   0  0  0  0  0  0
  -22.1664   -4.2151   21.0973 F   0  0  0  0  0  0
  -21.5626   -3.4530   25.7734 F   0  0  0  0  0  0
  -30.0143  -13.4198   20.4304 N   0  0  0  0  0  0
  -26.2996  -12.9320   20.3264 N   0  0  0  0  0  0
  -25.9321  -11.6479   20.5700 N   0  0  0  0  0  0
  -22.0503  -12.8260   22.0429 N   0  0  0  0  0  0
  -25.4283  -15.1879   20.4025 N   0  0  0  0  0  0
  -31.7611  -14.8433   20.1227 O   0  0  0  0  0  0
  -21.6642   -6.8883   21.4245 O   0  0  0  0  0  0
  -22.3552  -14.5521   20.6686 O   0  0  0  0  0  0
  -24.6268  -31.8598   23.2020 C   0  0  0  0  0  0
  -25.9131  -32.4777   23.8336 C   0  0  1  0  0  0
  -27.2300  -27.3139   20.1354 C   0  0  0  0  0  0
  -25.5946  -33.8571   24.2274 N   0  0  0  0  0  0
  -23.4224  -30.4805   21.5434 C   0  0  2  0  0  0
  -24.8728  -28.9314   20.1131 C   0  0  0  0  0  0
  -22.7492  -29.4621   22.4944 C   0  0  0  0  0  0
  -18.0301  -28.1410   22.8494 C   0  0  0  0  0  0
  -24.1488  -36.7271   23.2633 C   0  0  0  0  0  0
  -25.9629  -30.7884   21.3751 C   0  0  0  0  0  0
  -26.0400  -29.4135   20.7211 C   0  0  0  0  0  0
  -27.2240  -28.6167   20.7224 C   0  0  0  0  0  0
  -26.0455  -26.8831   19.5013 C   0  0  0  0  0  0
  -24.8774  -27.6713   19.4931 C   0  0  0  0  0  0
  -23.6388  -29.8116   20.1595 C   0  0  0  0  0  0
  -25.4115  -36.3073   24.0325 C   0  0  1  0  0  0
  -20.5900  -28.3711   23.1302 C   0  0  2  0  0  0
  -20.6789  -26.9424   22.5447 C   0  0  0  0  0  0
  -19.5768  -26.6400   21.5237 C   0  0  0  0  0  0
  -18.1938  -26.7959   22.1619 C   0  0  0  0  0  0
  -19.1557  -28.8878   23.2892 C   0  0  0  0  0  0
  -18.9472  -30.1479   23.8912 C   0  0  0  0  0  0
  -17.6467  -30.6598   24.0574 C   0  0  0  0  0  0
  -25.9060  -34.9441   23.5103 C   0  0  0  0  0  0
  -16.5362  -29.9093   23.6326 C   0  0  0  0  0  0
  -16.7283  -28.6512   23.0351 C   0  0  0  0  0  0
  -26.4496  -31.6587   25.0713 C   0  0  0  0  0  0
  -25.3735  -31.3815   26.1475 C   0  0  0  0  0  0
  -27.0256  -30.2968   24.6189 C   0  0  0  0  0  0
  -27.6111  -32.4275   25.7437 C   0  0  0  0  0  0
  -27.5594  -37.1780   24.8450 C   0  0  0  0  0  0
  -21.4206  -29.3041   22.3673 N   0  0  0  0  0  0
  -26.4295  -37.3773   23.9416 N   0  0  0  0  0  0
  -24.6887  -31.0606   22.0960 N   0  0  0  0  0  0
  -23.4204  -28.8172   23.3042 O   0  0  0  0  0  0
  -28.3290  -26.4435   20.1592 O   0  0  0  0  0  0
  -26.5620  -34.8918   22.4663 O   0  0  0  0  0  0
  -23.5441  -32.1391   23.7358 O   0  0  0  0  0  0
  -28.5390  -17.8238   20.6868 C   0  0  0  0  0  0
  -30.9306  -17.9544   20.6587 C   0  0  0  0  0  0
  -28.4310  -19.2407   20.5517 C   0  0  0  0  0  0
  -30.8463  -19.3835   20.5614 C   0  0  0  0  0  0
  -29.5879  -20.0750   20.4791 C   0  0  0  0  0  0
  -29.7766  -17.1329   20.7201 C   0  0  0  0  0  0
  -29.4614  -23.5988   19.2267 C   0  0  0  0  0  0
  -28.8081  -23.8359   20.3662 C   0  0  0  0  0  0
  -29.8660  -22.1952   19.1453 C   0  0  0  0  0  0
  -28.7720  -22.5183   21.1563 C   0  0  0  0  0  0
  -27.0302  -19.8228   20.4495 C   0  0  0  0  0  0
  -32.1594  -20.1545   20.5715 C   0  0  0  0  0  0
  -28.1179  -25.1568   20.8673 C   0  0  0  0  0  0
  -29.4817  -21.5415   20.2765 N   0  0  0  0  0  0
  -29.7565  -15.6749   20.8718 N   0  0  0  0  0  0
  -30.4494  -21.6758   18.1889 O   0  0  0  0  0  0
  -31.4872  -12.5543   19.1414 H   0  0  0  0  0  0
  -30.4080  -11.4106   19.8907 H   0  0  0  0  0  0
  -29.7858  -11.7568   17.4803 H   0  0  0  0  0  0
  -29.6535  -13.4769   17.7382 H   0  0  0  0  0  0
  -27.8803  -11.2863   18.8652 H   0  0  0  0  0  0
  -27.3844  -12.5662   17.7876 H   0  0  0  0  0  0
  -27.6726  -14.2459   19.5148 H   0  0  0  0  0  0
  -28.7186  -12.0313   21.3519 H   0  0  0  0  0  0
  -28.4332  -13.6719   21.8491 H   0  0  0  0  0  0
  -25.2773   -9.5663   22.4730 H   0  0  0  0  0  0
  -24.0024   -7.4621   22.7444 H   0  0  0  0  0  0
  -21.0839   -8.8780   19.8962 H   0  0  0  0  0  0
  -22.3697  -10.9676   19.6167 H   0  0  0  0  0  0
  -21.2002   -7.6121   23.9719 H   0  0  0  0  0  0
  -21.1466   -6.0505   25.9082 H   0  0  0  0  0  0
  -22.0601   -2.7612   23.2854 H   0  0  0  0  0  0
  -22.4087  -11.9931   22.4859 H   0  0  0  0  0  0
  -21.1129  -13.1330   22.2601 H   0  0  0  0  0  0
  -24.6541  -15.8371   20.4916 H   0  0  0  0  0  0
  -26.2527  -15.6123   20.0007 H   0  0  0  0  0  0
  -26.7194  -32.5445   23.1076 H   0  0  0  0  0  0
  -25.0125  -33.9697   25.0444 H   0  0  0  0  0  0
  -22.7156  -31.3002   21.3999 H   0  0  0  0  0  0
  -23.3760  -35.9595   23.3284 H   0  0  0  0  0  0
  -24.3585  -36.8896   22.2050 H   0  0  0  0  0  0
  -23.7235  -37.6464   23.6662 H   0  0  0  0  0  0
  -26.0993  -31.5502   20.6068 H   0  0  0  0  0  0
  -26.8396  -30.8379   22.0080 H   0  0  0  0  0  0
  -28.1174  -28.9802   21.2097 H   0  0  0  0  0  0
  -26.0164  -25.9132   19.0251 H   0  0  0  0  0  0
  -23.9849  -27.2957   19.0121 H   0  0  0  0  0  0
  -23.7575  -30.5833   19.3978 H   0  0  0  0  0  0
  -22.7576  -29.2404   19.8606 H   0  0  0  0  0  0
  -25.1298  -36.1912   25.0816 H   0  0  0  0  0  0
  -21.0004  -28.3304   24.1421 H   0  0  0  0  0  0
  -20.5699  -26.2312   23.3657 H   0  0  0  0  0  0
  -21.6664  -26.7464   22.1255 H   0  0  0  0  0  0
  -19.6914  -25.6310   21.1274 H   0  0  0  0  0  0
  -19.6700  -27.3203   20.6765 H   0  0  0  0  0  0
  -17.4230  -26.6764   21.3988 H   0  0  0  0  0  0
  -18.0263  -26.0100   22.8994 H   0  0  0  0  0  0
  -19.7945  -30.7311   24.2282 H   0  0  0  0  0  0
  -17.5013  -31.6279   24.5176 H   0  0  0  0  0  0
  -15.5357  -30.2987   23.7656 H   0  0  0  0  0  0
  -15.8687  -28.0827   22.7069 H   0  0  0  0  0  0
  -24.5899  -30.7125   25.7893 H   0  0  0  0  0  0
  -24.8926  -32.3017   26.4805 H   0  0  0  0  0  0
  -25.8079  -30.9108   27.0304 H   0  0  0  0  0  0
  -26.2777  -29.6768   24.1234 H   0  0  0  0  0  0
  -27.3908  -29.7211   25.4705 H   0  0  0  0  0  0
  -27.8695  -30.4173   23.9395 H   0  0  0  0  0  0
  -27.2812  -33.3639   26.1947 H   0  0  0  0  0  0
  -28.3941  -32.6716   25.0242 H   0  0  0  0  0  0
  -28.0734  -31.8412   26.5392 H   0  0  0  0  0  0
  -28.2637  -38.0057   24.7516 H   0  0  0  0  0  0
  -28.1070  -36.2603   24.6239 H   0  0  0  0  0  0
  -27.2336  -37.1407   25.8861 H   0  0  0  0  0  0
  -20.9404  -29.8711   21.6829 H   0  0  0  0  0  0
  -26.0171  -38.2845   24.1439 H   0  0  0  0  0  0
  -27.6243  -17.2521   20.7466 H   0  0  0  0  0  0
  -31.9046  -17.4845   20.7094 H   0  0  0  0  0  0
  -29.6302  -24.3270   18.4486 H   0  0  0  0  0  0
  -27.7432  -22.2307   21.3636 H   0  0  0  0  0  0
  -29.2985  -22.6312   22.1046 H   0  0  0  0  0  0
  -26.3185  -19.0809   20.0855 H   0  0  0  0  0  0
  -26.9931  -20.6603   19.7531 H   0  0  0  0  0  0
  -26.6842  -20.1605   21.4269 H   0  0  0  0  0  0
  -32.9761  -19.5369   20.9493 H   0  0  0  0  0  0
  -32.0952  -21.0302   21.2177 H   0  0  0  0  0  0
  -32.4319  -20.4736   19.5659 H   0  0  0  0  0  0
  -28.4511  -25.3168   21.8930 H   0  0  0  0  0  0
  -27.0549  -24.9248   20.9480 H   0  0  0  0  0  0
  -28.8548  -15.3118   21.1435 H   0  0  0  0  0  0
  1 25  1  0  0  0
  1 30  2  0  0  0
  1 85  1  0  0  0
  2  3  1  0  0  0
  2 25  1  0  0  0
  2 87  1  0  0  0
  2 88  1  0  0  0
  3  4  1  0  0  0
  3 89  1  0  0  0
  3 90  1  0  0  0
  4  5  1  0  0  0
  4 91  1  0  0  0
  4 92  1  0  0  0
  5  6  1  0  0  0
  5 26  1  0  0  0
  5 93  1  0  0  0
  6 25  1  0  0  0
  6 94  1  0  0  0
  6 95  1  0  0  0
  7  8  2  0  0  0
  7 26  1  0  0  0
  7 29  1  0  0  0
  8  9  1  0  0  0
  8 22  1  0  0  0
  9 10  1  0  0  0
  9 27  2  0  0  0
 10 11  2  0  0  0
 10 15  1  0  0  0
 11 12  1  0  0  0
 11 96  1  0  0  0
 12 13  2  0  0  0
 12 97  1  0  0  0
 13 14  1  0  0  0
 13 31  1  0  0  0
 14 15  2  0  0  0
 14 98  1  0  0  0
 15 99  1  0  0  0
 16 17  2  0  0  0
 16 21  1  0  0  0
 16 31  1  0  0  0
 17 18  1  0  0  0
 17100  1  0  0  0
 18 19  2  0  0  0
 18101  1  0  0  0
 19 20  1  0  0  0
 19 24  1  0  0  0
 20 21  2  0  0  0
 20102  1  0  0  0
 21 23  1  0  0  0
 22 28  1  0  0  0
 22 32  2  0  0  0
 26 27  1  0  0  0
 28103  1  0  0  0
 28104  1  0  0  0
 29105  1  0  0  0
 29106  1  0  0  0
 33 34  1  0  0  0
 33 66  1  0  0  0
 33 70  2  0  0  0
 34 36  1  0  0  0
 34 59  1  0  0  0
 34107  1  0  0  0
 35 44  2  0  0  0
 35 45  1  0  0  0
 35 68  1  0  0  0
 36 56  1  0  0  0
 36108  1  0  0  0
 37 39  1  0  0  0
 37 47  1  0  0  0
 37 66  1  0  0  0
 37109  1  0  0  0
 38 43  2  0  0  0
 38 46  1  0  0  0
 38 47  1  0  0  0
 39 64  1  0  0  0
 39 67  2  0  0  0
 40 52  1  0  0  0
 40 53  2  0  0  0
 40 58  1  0  0  0
 41110  1  0  0  0
 41111  1  0  0  0
 41112  1  0  0  0
 41 48  1  0  0  0
 42 43  1  0  0  0
 42 66  1  0  0  0
 42113  1  0  0  0
 42114  1  0  0  0
 43 44  1  0  0  0
 44115  1  0  0  0
 45 46  2  0  0  0
 45116  1  0  0  0
 46117  1  0  0  0
 47118  1  0  0  0
 47119  1  0  0  0
 48 56  1  0  0  0
 48 65  1  0  0  0
 48120  1  0  0  0
 49 50  1  0  0  0
 49 53  1  0  0  0
 49 64  1  0  0  0
 49121  1  0  0  0
 50 51  1  0  0  0
 50122  1  0  0  0
 50123  1  0  0  0
 51 52  1  0  0  0
 51124  1  0  0  0
 51125  1  0  0  0
 52126  1  0  0  0
 52127  1  0  0  0
 53 54  1  0  0  0
 54 55  2  0  0  0
 54128  1  0  0  0
 55 57  1  0  0  0
 55129  1  0  0  0
 56 69  2  0  0  0
 57 58  2  0  0  0
 57130  1  0  0  0
 58131  1  0  0  0
 59 60  1  0  0  0
 59 61  1  0  0  0
 59 62  1  0  0  0
 60132  1  0  0  0
 60133  1  0  0  0
 60134  1  0  0  0
 61135  1  0  0  0
 61136  1  0  0  0
 61137  1  0  0  0
 62138  1  0  0  0
 62139  1  0  0  0
 62140  1  0  0  0
 63 65  1  0  0  0
 63141  1  0  0  0
 63142  1  0  0  0
 63143  1  0  0  0
 64144  1  0  0  0
 65145  1  0  0  0
 68 83  1  0  0  0
 71 73  2  0  0  0
 71 76  1  0  0  0
 71146  1  0  0  0
 72 74  1  0  0  0
 72 76  2  0  0  0
 72147  1  0  0  0
 73 75  1  0  0  0
 73 81  1  0  0  0
 74 75  2  0  0  0
 74 82  1  0  0  0
 75 84  1  0  0  0
 76 85  1  0  0  0
 77 78  2  0  0  0
 77 79  1  0  0  0
 77148  1  0  0  0
 78 80  1  0  0  0
 78 83  1  0  0  0
 79 84  1  0  0  0
 79 86  2  0  0  0
 80 84  1  0  0  0
 80149  1  0  0  0
 80150  1  0  0  0
 81151  1  0  0  0
 81152  1  0  0  0
 81153  1  0  0  0
 82154  1  0  0  0
 82155  1  0  0  0
 82156  1  0  0  0
 83157  1  0  0  0
 83158  1  0  0  0
 85159  1  0  0  0
M  ISO  4   1 100  68 101  83 101  85 100
M  END
> <chiral flag>
0

> <version>
0

> <s_m_source_file>
/data/baiqing/PycharmProjects/Reinvent-master-3.2/result/LINK_invent/BTK/process_docking_weight1_custom_product_contain_oxygen_bond_distance_aromatic_linkinvent_7_9_3/rearranged_h_0073.sdf

> <i_m_source_file_index>
94

> <r_mmod_Potential_Energy-OPLS-2005>
167.868713378906

> <r_mmod_Stretch_Energy-OPLS-2005>
84.2191543579102

> <r_mmod_Bend_Energy-OPLS-2005>
185.607177734375

> <r_mmod_Torsional_Energy-OPLS-2005>
293.666259765625

> <r_mmod_Improper_Torsional_Energy-OPLS-2005>
5.0823712348938

> <r_mmod_Van_der_Waal_Energy-OPLS-2005>
133.29167175293

> <r_mmod_Electrostatic_Energy-OPLS-2005>
-367.170776367188

> <r_mmod_Solvation_Energy-OPLS-2005>
-221.136047363281

> <b_mmod_Minimization_Converged-OPLS-2005>
0

> <r_mmod_RMS_Derivative-OPLS-2005>
2.65042901039124

$$$$
94
                    3D
 Structure written by MMmdl.
164171  0  0  1  0            999 V2000
  -30.6787  -14.6660   20.4210 C   0  0  0  0  0  0
  -30.4229  -12.3978   19.4572 C   0  0  0  0  0  0
  -29.5020  -12.4503   18.2210 C   0  0  0  0  0  0
  -28.0218  -12.3246   18.6359 C   0  0  0  0  0  0
  -27.6374  -13.2293   19.8377 C   0  0  2  0  0  0
  -28.6898  -13.1632   20.9649 C   0  0  0  0  0  0
  -25.2435  -13.8127   20.5667 C   0  0  0  0  0  0
  -24.1740  -13.0386   20.9218 C   0  0  0  0  0  0
  -24.6350  -11.6871   20.8775 C   0  0  0  0  0  0
  -23.9020  -10.4240   21.0413 C   0  0  0  0  0  0
  -24.3563   -9.4155   21.9193 C   0  0  0  0  0  0
  -23.6233   -8.2196   22.0756 C   0  0  0  0  0  0
  -22.4222   -8.0247   21.3541 C   0  0  0  0  0  0
  -21.9859   -9.0212   20.4633 C   0  0  0  0  0  0
  -22.7188  -10.2085   20.3047 C   0  0  0  0  0  0
  -21.6831   -6.0695   22.5269 C   0  0  0  0  0  0
  -21.4005   -6.5618   23.8190 C   0  0  0  0  0  0
  -21.3638   -5.6786   24.9171 C   0  0  0  0  0  0
  -21.6032   -4.3046   24.7236 C   0  0  0  0  0  0
  -21.8825   -3.8115   23.4362 C   0  0  0  0  0  0
  -21.9176   -4.6920   22.3410 C   0  0  0  0  0  0
  -22.7758  -13.5180   21.1880 C   0  0  0  0  0  0
  -22.1643   -4.2096   21.0993 F   0  0  0  0  0  0
  -21.5616   -3.4535   25.7751 F   0  0  0  0  0  0
  -29.9919  -13.4785   20.3640 N   0  0  0  0  0  0
  -26.2889  -12.9379   20.3242 N   0  0  0  0  0  0
  -25.9285  -11.6511   20.5771 N   0  0  0  0  0  0
  -22.0406  -12.8164   22.0441 N   0  0  0  0  0  0
  -25.4091  -15.1814   20.4043 N   0  0  0  0  0  0
  -31.8991  -14.6807   20.2213 O   0  0  0  0  0  0
  -21.6592   -6.8835   21.4229 O   0  0  0  0  0  0
  -22.3423  -14.5475   20.6712 O   0  0  0  0  0  0
  -24.6259  -31.8564   23.1994 C   0  0  0  0  0  0
  -25.9124  -32.4749   23.8309 C   0  0  1  0  0  0
  -27.2314  -27.3417   20.1260 C   0  0  0  0  0  0
  -25.5957  -33.8558   24.2261 N   0  0  0  0  0  0
  -23.4223  -30.4798   21.5347 C   0  0  2  0  0  0
  -24.8729  -28.9337   20.1050 C   0  0  0  0  0  0
  -22.7477  -29.4623   22.4860 C   0  0  0  0  0  0
  -18.0284  -28.1402   22.8475 C   0  0  0  0  0  0
  -24.1477  -36.7286   23.2635 C   0  0  0  0  0  0
  -25.9562  -30.7960   21.3669 C   0  0  0  0  0  0
  -26.0371  -29.4228   20.7187 C   0  0  0  0  0  0
  -27.2200  -28.6311   20.7332 C   0  0  0  0  0  0
  -26.0561  -26.8998   19.4876 C   0  0  0  0  0  0
  -24.8832  -27.6766   19.4815 C   0  0  0  0  0  0
  -23.6409  -29.8102   20.1505 C   0  0  0  0  0  0
  -25.4106  -36.3081   24.0328 C   0  0  1  0  0  0
  -20.5887  -28.3719   23.1258 C   0  0  2  0  0  0
  -20.6773  -26.9436   22.5400 C   0  0  0  0  0  0
  -19.5758  -26.6397   21.5196 C   0  0  0  0  0  0
  -18.1936  -26.7943   22.1609 C   0  0  0  0  0  0
  -19.1540  -28.8876   23.2867 C   0  0  0  0  0  0
  -18.9468  -30.1470   23.8890 C   0  0  0  0  0  0
  -17.6470  -30.6593   24.0568 C   0  0  0  0  0  0
  -25.9048  -34.9449   23.5091 C   0  0  0  0  0  0
  -16.5359  -29.9096   23.6336 C   0  0  0  0  0  0
  -16.7269  -28.6524   23.0341 C   0  0  0  0  0  0
  -26.4549  -31.6545   25.0658 C   0  0  0  0  0  0
  -25.3819  -31.3649   26.1398 C   0  0  0  0  0  0
  -27.0371  -30.2971   24.6075 C   0  0  0  0  0  0
  -27.6107  -32.4266   25.7441 C   0  0  0  0  0  0
  -27.5569  -37.1801   24.8473 C   0  0  0  0  0  0
  -21.4171  -29.3075   22.3641 N   0  0  0  0  0  0
  -26.4277  -37.3788   23.9417 N   0  0  0  0  0  0
  -24.6863  -31.0605   22.0923 N   0  0  0  0  0  0
  -23.4187  -28.8179   23.2956 O   0  0  0  0  0  0
  -28.2918  -26.4387   20.2065 O   0  0  0  0  0  0
  -26.5586  -34.8937   22.4630 O   0  0  0  0  0  0
  -23.5436  -32.1338   23.7354 O   0  0  0  0  0  0
  -28.3955  -24.0891   21.2189 C   0  0  0  0  0  0
  -28.0877  -25.4283   21.1542 C   0  0  0  0  0  0
  -29.1036  -23.1724   20.3029 C   0  0  0  0  0  0
  -29.8433  -16.8797   21.2502 C   0  0  0  0  0  0
  -30.0394  -16.4051   22.6690 C   0  0  0  0  0  0
  -26.8649  -17.9545   19.9156 C   0  0  0  0  0  0
  -27.1155  -20.1196   18.7228 C   0  0  0  0  0  0
  -30.0652  -16.3646   18.8704 C   0  0  0  0  0  0
  -29.8255  -20.6700   20.2467 C   0  0  0  0  0  0
  -27.5625  -19.3254   19.9664 C   0  0  0  0  0  0
  -29.1147  -19.2393   20.0795 C   0  0  2  0  0  0
  -29.0351  -21.8655   20.7100 N   0  0  0  0  0  0
  -29.9666  -15.8475   20.2408 N   0  0  0  0  0  0
  -29.5382  -18.2387   21.1371 N   0  3  0  0  0  0
  -29.7407  -23.5166   19.3070 O   0  0  0  0  0  0
  -31.4665  -12.4982   19.1502 H   0  0  0  0  0  0
  -30.3493  -11.4310   19.9591 H   0  0  0  0  0  0
  -29.7618  -11.6398   17.5390 H   0  0  0  0  0  0
  -29.6580  -13.3766   17.6677 H   0  0  0  0  0  0
  -27.8485  -11.2803   18.8987 H   0  0  0  0  0  0
  -27.3704  -12.5325   17.7852 H   0  0  0  0  0  0
  -27.6290  -14.2504   19.4557 H   0  0  0  0  0  0
  -28.7087  -12.1687   21.4125 H   0  0  0  0  0  0
  -28.4370  -13.8584   21.7660 H   0  0  0  0  0  0
  -25.2695   -9.5593   22.4783 H   0  0  0  0  0  0
  -23.9904   -7.4566   22.7466 H   0  0  0  0  0  0
  -21.0790   -8.8714   19.8934 H   0  0  0  0  0  0
  -22.3646  -10.9617   19.6150 H   0  0  0  0  0  0
  -21.2023   -7.6130   23.9691 H   0  0  0  0  0  0
  -21.1456   -6.0520   25.9071 H   0  0  0  0  0  0
  -22.0640   -2.7571   23.2886 H   0  0  0  0  0  0
  -22.4002  -11.9818   22.4823 H   0  0  0  0  0  0
  -21.1026  -13.1178   22.2684 H   0  0  0  0  0  0
  -24.6432  -15.8373   20.5117 H   0  0  0  0  0  0
  -26.2524  -15.6166   20.0595 H   0  0  0  0  0  0
  -26.7195  -32.5446   23.1064 H   0  0  0  0  0  0
  -25.0214  -33.9682   25.0484 H   0  0  0  0  0  0
  -22.7158  -31.2988   21.3841 H   0  0  0  0  0  0
  -23.3736  -35.9618   23.3283 H   0  0  0  0  0  0
  -24.3582  -36.8906   22.2053 H   0  0  0  0  0  0
  -23.7225  -37.6488   23.6651 H   0  0  0  0  0  0
  -26.0745  -31.5501   20.5867 H   0  0  0  0  0  0
  -26.8453  -30.8589   21.9845 H   0  0  0  0  0  0
  -28.0997  -28.9794   21.2569 H   0  0  0  0  0  0
  -26.0383  -25.9219   19.0266 H   0  0  0  0  0  0
  -23.9946  -27.2888   18.9985 H   0  0  0  0  0  0
  -23.7643  -30.5811   19.3880 H   0  0  0  0  0  0
  -22.7648  -29.2337   19.8455 H   0  0  0  0  0  0
  -25.1291  -36.1918   25.0822 H   0  0  0  0  0  0
  -20.9985  -28.3297   24.1371 H   0  0  0  0  0  0
  -20.5653  -26.2333   23.3606 H   0  0  0  0  0  0
  -21.6646  -26.7451   22.1219 H   0  0  0  0  0  0
  -19.6912  -25.6304   21.1230 H   0  0  0  0  0  0
  -19.6698  -27.3198   20.6717 H   0  0  0  0  0  0
  -17.4215  -26.6690   21.4006 H   0  0  0  0  0  0
  -18.0342  -26.0087   22.9013 H   0  0  0  0  0  0
  -19.7953  -30.7279   24.2233 H   0  0  0  0  0  0
  -17.5041  -31.6257   24.5195 H   0  0  0  0  0  0
  -15.5368  -30.2999   23.7661 H   0  0  0  0  0  0
  -15.8678  -28.0840   22.7028 H   0  0  0  0  0  0
  -24.6042  -30.6938   25.7744 H   0  0  0  0  0  0
  -24.8980  -32.2800   26.4816 H   0  0  0  0  0  0
  -25.8220  -30.8868   27.0159 H   0  0  0  0  0  0
  -26.2916  -29.6718   24.1156 H   0  0  0  0  0  0
  -27.4140  -29.7240   25.4550 H   0  0  0  0  0  0
  -27.8765  -30.4233   23.9229 H   0  0  0  0  0  0
  -27.2709  -33.3574   26.1977 H   0  0  0  0  0  0
  -28.3954  -32.6771   25.0295 H   0  0  0  0  0  0
  -28.0718  -31.8397   26.5386 H   0  0  0  0  0  0
  -28.2594  -38.0095   24.7524 H   0  0  0  0  0  0
  -28.1061  -36.2626   24.6290 H   0  0  0  0  0  0
  -27.2295  -37.1435   25.8883 H   0  0  0  0  0  0
  -20.9323  -29.8816   21.6883 H   0  0  0  0  0  0
  -26.0145  -38.2856   24.1436 H   0  0  0  0  0  0
  -28.0573  -23.6261   22.1342 H   0  0  0  0  0  0
  -27.5598  -25.8430   22.0046 H   0  0  0  0  0  0
  -30.9340  -15.7931   22.7876 H   0  0  0  0  0  0
  -29.1682  -15.8362   22.9971 H   0  0  0  0  0  0
  -30.1551  -17.2486   23.3492 H   0  0  0  0  0  0
  -25.7821  -18.0728   19.9765 H   0  0  0  0  0  0
  -27.1510  -17.3120   20.7457 H   0  0  0  0  0  0
  -27.0702  -17.4268   18.9854 H   0  0  0  0  0  0
  -26.0274  -20.1678   18.6564 H   0  0  0  0  0  0
  -27.4728  -19.6497   17.8065 H   0  0  0  0  0  0
  -27.4787  -21.1443   18.7261 H   0  0  0  0  0  0
  -29.1115  -16.7591   18.5320 H   0  0  0  0  0  0
  -30.3599  -15.6100   18.1383 H   0  0  0  0  0  0
  -30.8162  -17.1557   18.8262 H   0  0  0  0  0  0
  -30.2781  -20.9227   19.2854 H   0  0  0  0  0  0
  -30.6749  -20.5650   20.9237 H   0  0  0  0  0  0
  -27.1871  -19.8456   20.8499 H   0  0  0  0  0  0
  -29.4775  -18.8582   19.1281 H   0  0  0  0  0  0
  -28.4576  -21.7046   21.5227 H   0  0  0  0  0  0
  -29.4987  -18.6909   22.0408 H   0  0  0  0  0  0
  1 25  1  0  0  0
  1 30  2  0  0  0
  1 83  1  0  0  0
  2  3  1  0  0  0
  2 25  1  0  0  0
  2 86  1  0  0  0
  2 87  1  0  0  0
  3  4  1  0  0  0
  3 88  1  0  0  0
  3 89  1  0  0  0
  4  5  1  0  0  0
  4 90  1  0  0  0
  4 91  1  0  0  0
  5  6  1  0  0  0
  5 26  1  0  0  0
  5 92  1  0  0  0
  6 25  1  0  0  0
  6 93  1  0  0  0
  6 94  1  0  0  0
  7  8  2  0  0  0
  7 26  1  0  0  0
  7 29  1  0  0  0
  8  9  1  0  0  0
  8 22  1  0  0  0
  9 10  1  0  0  0
  9 27  2  0  0  0
 10 11  2  0  0  0
 10 15  1  0  0  0
 11 12  1  0  0  0
 11 95  1  0  0  0
 12 13  2  0  0  0
 12 96  1  0  0  0
 13 14  1  0  0  0
 13 31  1  0  0  0
 14 15  2  0  0  0
 14 97  1  0  0  0
 15 98  1  0  0  0
 16 17  2  0  0  0
 16 21  1  0  0  0
 16 31  1  0  0  0
 17 18  1  0  0  0
 17 99  1  0  0  0
 18 19  2  0  0  0
 18100  1  0  0  0
 19 20  1  0  0  0
 19 24  1  0  0  0
 20 21  2  0  0  0
 20101  1  0  0  0
 21 23  1  0  0  0
 22 28  1  0  0  0
 22 32  2  0  0  0
 26 27  1  0  0  0
 28102  1  0  0  0
 28103  1  0  0  0
 29104  1  0  0  0
 29105  1  0  0  0
 33 34  1  0  0  0
 33 66  1  0  0  0
 33 70  2  0  0  0
 34 36  1  0  0  0
 34 59  1  0  0  0
 34106  1  0  0  0
 35 44  2  0  0  0
 35 45  1  0  0  0
 35 68  1  0  0  0
 36 56  1  0  0  0
 36107  1  0  0  0
 37 39  1  0  0  0
 37 47  1  0  0  0
 37 66  1  0  0  0
 37108  1  0  0  0
 38 43  2  0  0  0
 38 46  1  0  0  0
 38 47  1  0  0  0
 39 64  1  0  0  0
 39 67  2  0  0  0
 40 52  1  0  0  0
 40 53  2  0  0  0
 40 58  1  0  0  0
 41109  1  0  0  0
 41110  1  0  0  0
 41111  1  0  0  0
 41 48  1  0  0  0
 42 43  1  0  0  0
 42 66  1  0  0  0
 42112  1  0  0  0
 42113  1  0  0  0
 43 44  1  0  0  0
 44114  1  0  0  0
 45 46  2  0  0  0
 45115  1  0  0  0
 46116  1  0  0  0
 47117  1  0  0  0
 47118  1  0  0  0
 48 56  1  0  0  0
 48 65  1  0  0  0
 48119  1  0  0  0
 49 50  1  0  0  0
 49 53  1  0  0  0
 49 64  1  0  0  0
 49120  1  0  0  0
 50 51  1  0  0  0
 50121  1  0  0  0
 50122  1  0  0  0
 51 52  1  0  0  0
 51123  1  0  0  0
 51124  1  0  0  0
 52125  1  0  0  0
 52126  1  0  0  0
 53 54  1  0  0  0
 54 55  2  0  0  0
 54127  1  0  0  0
 55 57  1  0  0  0
 55128  1  0  0  0
 56 69  2  0  0  0
 57 58  2  0  0  0
 57129  1  0  0  0
 58130  1  0  0  0
 59 60  1  0  0  0
 59 61  1  0  0  0
 59 62  1  0  0  0
 60131  1  0  0  0
 60132  1  0  0  0
 60133  1  0  0  0
 61134  1  0  0  0
 61135  1  0  0  0
 61136  1  0  0  0
 62137  1  0  0  0
 62138  1  0  0  0
 62139  1  0  0  0
 63 65  1  0  0  0
 63140  1  0  0  0
 63141  1  0  0  0
 63142  1  0  0  0
 64143  1  0  0  0
 65144  1  0  0  0
 68 72  1  0  0  0
 71 72  2  0  0  0
 71 73  1  0  0  0
 71145  1  0  0  0
 72146  1  0  0  0
 73 82  1  0  0  0
 73 85  2  0  0  0
 74 75  1  0  0  0
 74 83  1  0  0  0
 74 84  2  0  0  0
 75147  1  0  0  0
 75148  1  0  0  0
 75149  1  0  0  0
 76150  1  0  0  0
 76151  1  0  0  0
 76152  1  0  0  0
 76 80  1  0  0  0
 77 80  1  0  0  0
 77153  1  0  0  0
 77154  1  0  0  0
 77155  1  0  0  0
 78 83  1  0  0  0
 78156  1  0  0  0
 78157  1  0  0  0
 78158  1  0  0  0
 79 82  1  0  0  0
 79159  1  0  0  0
 79160  1  0  0  0
 79 81  1  0  0  0
 80 81  1  0  0  0
 80161  1  0  0  0
 81 84  1  0  0  0
 81162  1  0  0  0
 82163  1  0  0  0
 84164  1  0  0  0
M  CHG  1  84   1
M  ISO  4   1 100  68 101  72 101  83 100
M  END
> <chiral flag>
0

> <version>
0

> <s_m_source_file>
/data/baiqing/PycharmProjects/Reinvent-master-3.2/result/LINK_invent/BTK/process_docking_weight1_custom_product_contain_oxygen_bond_distance_aromatic_linkinvent_7_9_3/rearranged_h_0073.sdf

> <i_m_source_file_index>
95

> <r_mmod_Potential_Energy-OPLS-2005>
217.302947998047

> <r_mmod_Stretch_Energy-OPLS-2005>
83.5740203857422

> <r_mmod_Bend_Energy-OPLS-2005>
205.727127075195

> <r_mmod_Torsional_Energy-OPLS-2005>
316.434753417969

> <r_mmod_Improper_Torsional_Energy-OPLS-2005>
17.133638381958

> <r_mmod_Van_der_Waal_Energy-OPLS-2005>
128.839889526367

> <r_mmod_Electrostatic_Energy-OPLS-2005>
-145.21598815918

> <r_mmod_Solvation_Energy-OPLS-2005>
-454.370819091797

> <b_mmod_Minimization_Converged-OPLS-2005>
0

> <r_mmod_RMS_Derivative-OPLS-2005>
3.61089086532593

$$$$
95
                    3D
 Structure written by MMmdl.
161170  0  0  1  0            999 V2000
  -30.6040  -14.7670   20.3451 C   0  0  0  0  0  0
  -30.4423  -12.4315   19.4754 C   0  0  0  0  0  0
  -29.5097  -12.3576   18.2442 C   0  0  0  0  0  0
  -28.0283  -12.2620   18.6641 C   0  0  0  0  0  0
  -27.6366  -13.2040   19.8346 C   0  0  2  0  0  0
  -28.6919  -13.2083   20.9575 C   0  0  0  0  0  0
  -25.2529  -13.8110   20.5790 C   0  0  0  0  0  0
  -24.1779  -13.0396   20.9228 C   0  0  0  0  0  0
  -24.6346  -11.6874   20.8771 C   0  0  0  0  0  0
  -23.9028  -10.4269   21.0423 C   0  0  0  0  0  0
  -24.3594   -9.4194   21.9196 C   0  0  0  0  0  0
  -23.6279   -8.2226   22.0756 C   0  0  0  0  0  0
  -22.4260   -8.0268   21.3547 C   0  0  0  0  0  0
  -21.9890   -9.0239   20.4651 C   0  0  0  0  0  0
  -22.7208  -10.2121   20.3065 C   0  0  0  0  0  0
  -21.6846   -6.0735   22.5282 C   0  0  0  0  0  0
  -21.4015   -6.5646   23.8215 C   0  0  0  0  0  0
  -21.3647   -5.6797   24.9174 C   0  0  0  0  0  0
  -21.6034   -4.3060   24.7227 C   0  0  0  0  0  0
  -21.8823   -3.8154   23.4350 C   0  0  0  0  0  0
  -21.9195   -4.6967   22.3406 C   0  0  0  0  0  0
  -22.7812  -13.5214   21.1875 C   0  0  0  0  0  0
  -22.1666   -4.2158   21.0982 F   0  0  0  0  0  0
  -21.5619   -3.4541   25.7739 F   0  0  0  0  0  0
  -29.9766  -13.5404   20.3326 N   0  0  0  0  0  0
  -26.2926  -12.9281   20.3315 N   0  0  0  0  0  0
  -25.9272  -11.6460   20.5812 N   0  0  0  0  0  0
  -22.0443  -12.8216   22.0429 N   0  0  0  0  0  0
  -25.4244  -15.1825   20.4391 N   0  0  0  0  0  0
  -31.8378  -14.8132   20.3039 O   0  0  0  0  0  0
  -21.6624   -6.8869   21.4241 O   0  0  0  0  0  0
  -22.3511  -14.5523   20.6714 O   0  0  0  0  0  0
  -24.6277  -31.8583   23.1996 C   0  0  0  0  0  0
  -25.9121  -32.4774   23.8341 C   0  0  1  0  0  0
  -27.2295  -27.3012   20.1353 C   0  0  0  0  0  0
  -25.5934  -33.8571   24.2275 N   0  0  0  0  0  0
  -23.4237  -30.4782   21.5417 C   0  0  2  0  0  0
  -24.8739  -28.9262   20.1124 C   0  0  0  0  0  0
  -22.7484  -29.4609   22.4925 C   0  0  0  0  0  0
  -18.0286  -28.1392   22.8475 C   0  0  0  0  0  0
  -24.1486  -36.7288   23.2638 C   0  0  0  0  0  0
  -25.9645  -30.7839   21.3727 C   0  0  0  0  0  0
  -26.0423  -29.4077   20.7186 C   0  0  0  0  0  0
  -27.2254  -28.6080   20.7161 C   0  0  0  0  0  0
  -26.0446  -26.8759   19.4978 C   0  0  0  0  0  0
  -24.8781  -27.6670   19.4895 C   0  0  0  0  0  0
  -23.6422  -29.8089   20.1584 C   0  0  0  0  0  0
  -25.4107  -36.3077   24.0332 C   0  0  1  0  0  0
  -20.5883  -28.3697   23.1277 C   0  0  2  0  0  0
  -20.6778  -26.9420   22.5405 C   0  0  0  0  0  0
  -19.5760  -26.6384   21.5204 C   0  0  0  0  0  0
  -18.1937  -26.7938   22.1615 C   0  0  0  0  0  0
  -19.1540  -28.8860   23.2873 C   0  0  0  0  0  0
  -18.9463  -30.1459   23.8898 C   0  0  0  0  0  0
  -17.6463  -30.6596   24.0560 C   0  0  0  0  0  0
  -25.9046  -34.9448   23.5102 C   0  0  0  0  0  0
  -16.5353  -29.9093   23.6328 C   0  0  0  0  0  0
  -16.7270  -28.6507   23.0347 C   0  0  0  0  0  0
  -26.4499  -31.6586   25.0715 C   0  0  0  0  0  0
  -25.3731  -31.3744   26.1448 C   0  0  0  0  0  0
  -27.0333  -30.3002   24.6177 C   0  0  0  0  0  0
  -27.6059  -32.4316   25.7494 C   0  0  0  0  0  0
  -27.5578  -37.1794   24.8462 C   0  0  0  0  0  0
  -21.4192  -29.3047   22.3671 N   0  0  0  0  0  0
  -26.4289  -37.3776   23.9414 N   0  0  0  0  0  0
  -24.6905  -31.0573   22.0956 N   0  0  0  0  0  0
  -23.4195  -28.8153   23.3023 O   0  0  0  0  0  0
  -28.3387  -26.4399   20.1599 O   0  0  0  0  0  0
  -26.5603  -34.8924   22.4661 O   0  0  0  0  0  0
  -23.5434  -32.1382   23.7312 O   0  0  0  0  0  0
  -30.4133  -19.4735   20.9348 C   0  0  0  0  0  0
  -30.5627  -18.0435   20.8411 C   0  0  0  0  0  0
  -28.4061  -19.3723   19.7178 C   0  0  0  0  0  0
  -28.5303  -17.9561   19.5926 C   0  0  0  0  0  0
  -29.3463  -20.2272   20.3478 C   0  0  0  0  0  0
  -29.6460  -17.2218   20.1242 C   0  0  0  0  0  0
  -29.7706  -22.8632   20.8666 C   0  0  0  0  0  0
  -28.0207  -22.4144   19.8458 C   0  0  0  0  0  0
  -28.8147  -23.7717   19.9645 C   0  0  2  0  0  0
  -27.4248  -17.2970   18.7871 C   0  0  0  0  0  0
  -29.5581  -24.2390   18.7080 C   0  0  0  0  0  0
  -30.0059  -15.7089   18.2509 C   0  0  0  0  0  0
  -28.1405  -25.0485   20.6687 C   0  0  0  0  0  0
  -29.2134  -21.7009   20.3144 N   0  0  0  0  0  0
  -29.9030  -15.8062   19.7229 N   0  0  0  0  0  0
  -30.6252  -23.0226   21.7125 O   0  0  0  0  0  0
  -31.4755  -12.5709   19.1547 H   0  0  0  0  0  0
  -30.4205  -11.4940   20.0334 H   0  0  0  0  0  0
  -29.7694  -11.4786   17.6526 H   0  0  0  0  0  0
  -29.6645  -13.1937   17.5712 H   0  0  0  0  0  0
  -27.8607  -11.2278   18.9655 H   0  0  0  0  0  0
  -27.3775  -12.4316   17.8056 H   0  0  0  0  0  0
  -27.6115  -14.1984   19.4073 H   0  0  0  0  0  0
  -28.7403  -12.2403   21.4584 H   0  0  0  0  0  0
  -28.4355  -13.9471   21.7184 H   0  0  0  0  0  0
  -25.2744   -9.5677   22.4765 H   0  0  0  0  0  0
  -24.0004   -7.4612   22.7465 H   0  0  0  0  0  0
  -21.0829   -8.8751   19.8948 H   0  0  0  0  0  0
  -22.3674  -10.9663   19.6172 H   0  0  0  0  0  0
  -21.2011   -7.6155   23.9716 H   0  0  0  0  0  0
  -21.1455   -6.0529   25.9074 H   0  0  0  0  0  0
  -22.0612   -2.7619   23.2844 H   0  0  0  0  0  0
  -22.4060  -11.9892   22.4848 H   0  0  0  0  0  0
  -21.1060  -13.1250   22.2615 H   0  0  0  0  0  0
  -24.6674  -15.8409   20.5853 H   0  0  0  0  0  0
  -26.3051  -15.6290   20.2253 H   0  0  0  0  0  0
  -26.7191  -32.5449   23.1092 H   0  0  0  0  0  0
  -25.0128  -33.9712   25.0454 H   0  0  0  0  0  0
  -22.7183  -31.2986   21.3943 H   0  0  0  0  0  0
  -23.3752  -35.9614   23.3297 H   0  0  0  0  0  0
  -24.3581  -36.8906   22.2052 H   0  0  0  0  0  0
  -23.7230  -37.6490   23.6650 H   0  0  0  0  0  0
  -26.0934  -31.5453   20.6022 H   0  0  0  0  0  0
  -26.8455  -30.8385   22.0004 H   0  0  0  0  0  0
  -28.1235  -28.9716   21.1951 H   0  0  0  0  0  0
  -26.0155  -25.9106   19.0126 H   0  0  0  0  0  0
  -23.9850  -27.2950   19.0062 H   0  0  0  0  0  0
  -23.7665  -30.5834   19.4008 H   0  0  0  0  0  0
  -22.7623  -29.2399   19.8532 H   0  0  0  0  0  0
  -25.1286  -36.1932   25.0822 H   0  0  0  0  0  0
  -20.9968  -28.3281   24.1403 H   0  0  0  0  0  0
  -20.5674  -26.2312   23.3606 H   0  0  0  0  0  0
  -21.6650  -26.7453   22.1208 H   0  0  0  0  0  0
  -19.6926  -25.6290   21.1252 H   0  0  0  0  0  0
  -19.6708  -27.3178   20.6720 H   0  0  0  0  0  0
  -17.4204  -26.6664   21.4021 H   0  0  0  0  0  0
  -18.0351  -26.0088   22.9020 H   0  0  0  0  0  0
  -19.7939  -30.7265   24.2278 H   0  0  0  0  0  0
  -17.5023  -31.6274   24.5159 H   0  0  0  0  0  0
  -15.5359  -30.2994   23.7656 H   0  0  0  0  0  0
  -15.8670  -28.0824   22.7073 H   0  0  0  0  0  0
  -24.5904  -30.7093   25.7788 H   0  0  0  0  0  0
  -24.8933  -32.2922   26.4856 H   0  0  0  0  0  0
  -25.8059  -30.8941   27.0229 H   0  0  0  0  0  0
  -26.2906  -29.6768   24.1186 H   0  0  0  0  0  0
  -27.4011  -29.7251   25.4684 H   0  0  0  0  0  0
  -27.8783  -30.4291   23.9409 H   0  0  0  0  0  0
  -27.2668  -33.3609   26.2086 H   0  0  0  0  0  0
  -28.3866  -32.6888   25.0322 H   0  0  0  0  0  0
  -28.0729  -31.8433   26.5405 H   0  0  0  0  0  0
  -28.2588  -38.0100   24.7513 H   0  0  0  0  0  0
  -28.1081  -36.2630   24.6274 H   0  0  0  0  0  0
  -27.2303  -37.1432   25.8869 H   0  0  0  0  0  0
  -20.9378  -29.8773   21.6876 H   0  0  0  0  0  0
  -26.0172  -38.2847   24.1421 H   0  0  0  0  0  0
  -31.1925  -20.0205   21.4466 H   0  0  0  0  0  0
  -31.4509  -17.5953   21.2644 H   0  0  0  0  0  0
  -27.5482  -19.8298   19.2459 H   0  0  0  0  0  0
  -27.7179  -22.1686   18.8266 H   0  0  0  0  0  0
  -27.1842  -22.3238   20.5435 H   0  0  0  0  0  0
  -26.4509  -17.6983   19.0703 H   0  0  0  0  0  0
  -27.3843  -16.2273   18.9322 H   0  0  0  0  0  0
  -27.5719  -17.4885   17.7242 H   0  0  0  0  0  0
  -30.0779  -23.4187   18.2108 H   0  0  0  0  0  0
  -30.3044  -24.9990   18.9423 H   0  0  0  0  0  0
  -28.8684  -24.6671   17.9800 H   0  0  0  0  0  0
  -29.1003  -15.2785   17.8282 H   0  0  0  0  0  0
  -30.8517  -15.1097   17.9050 H   0  0  0  0  0  0
  -30.1428  -16.6844   17.7817 H   0  0  0  0  0  0
  -28.4891  -25.0892   21.7014 H   0  0  0  0  0  0
  -27.0749  -24.8474   20.7787 H   0  0  0  0  0  0
  1 25  1  0  0  0
  1 30  2  0  0  0
  1 85  1  0  0  0
  2  3  1  0  0  0
  2 25  1  0  0  0
  2 87  1  0  0  0
  2 88  1  0  0  0
  3  4  1  0  0  0
  3 89  1  0  0  0
  3 90  1  0  0  0
  4  5  1  0  0  0
  4 91  1  0  0  0
  4 92  1  0  0  0
  5  6  1  0  0  0
  5 26  1  0  0  0
  5 93  1  0  0  0
  6 25  1  0  0  0
  6 94  1  0  0  0
  6 95  1  0  0  0
  7  8  2  0  0  0
  7 26  1  0  0  0
  7 29  1  0  0  0
  8  9  1  0  0  0
  8 22  1  0  0  0
  9 10  1  0  0  0
  9 27  2  0  0  0
 10 11  2  0  0  0
 10 15  1  0  0  0
 11 12  1  0  0  0
 11 96  1  0  0  0
 12 13  2  0  0  0
 12 97  1  0  0  0
 13 14  1  0  0  0
 13 31  1  0  0  0
 14 15  2  0  0  0
 14 98  1  0  0  0
 15 99  1  0  0  0
 16 17  2  0  0  0
 16 21  1  0  0  0
 16 31  1  0  0  0
 17 18  1  0  0  0
 17100  1  0  0  0
 18 19  2  0  0  0
 18101  1  0  0  0
 19 20  1  0  0  0
 19 24  1  0  0  0
 20 21  2  0  0  0
 20102  1  0  0  0
 21 23  1  0  0  0
 22 28  1  0  0  0
 22 32  2  0  0  0
 26 27  1  0  0  0
 28103  1  0  0  0
 28104  1  0  0  0
 29105  1  0  0  0
 29106  1  0  0  0
 33 34  1  0  0  0
 33 66  1  0  0  0
 33 70  2  0  0  0
 34 36  1  0  0  0
 34 59  1  0  0  0
 34107  1  0  0  0
 35 44  2  0  0  0
 35 45  1  0  0  0
 35 68  1  0  0  0
 36 56  1  0  0  0
 36108  1  0  0  0
 37 39  1  0  0  0
 37 47  1  0  0  0
 37 66  1  0  0  0
 37109  1  0  0  0
 38 43  2  0  0  0
 38 46  1  0  0  0
 38 47  1  0  0  0
 39 64  1  0  0  0
 39 67  2  0  0  0
 40 52  1  0  0  0
 40 53  2  0  0  0
 40 58  1  0  0  0
 41110  1  0  0  0
 41111  1  0  0  0
 41112  1  0  0  0
 41 48  1  0  0  0
 42 43  1  0  0  0
 42 66  1  0  0  0
 42113  1  0  0  0
 42114  1  0  0  0
 43 44  1  0  0  0
 44115  1  0  0  0
 45 46  2  0  0  0
 45116  1  0  0  0
 46117  1  0  0  0
 47118  1  0  0  0
 47119  1  0  0  0
 48 56  1  0  0  0
 48 65  1  0  0  0
 48120  1  0  0  0
 49 50  1  0  0  0
 49 53  1  0  0  0
 49 64  1  0  0  0
 49121  1  0  0  0
 50 51  1  0  0  0
 50122  1  0  0  0
 50123  1  0  0  0
 51 52  1  0  0  0
 51124  1  0  0  0
 51125  1  0  0  0
 52126  1  0  0  0
 52127  1  0  0  0
 53 54  1  0  0  0
 54 55  2  0  0  0
 54128  1  0  0  0
 55 57  1  0  0  0
 55129  1  0  0  0
 56 69  2  0  0  0
 57 58  2  0  0  0
 57130  1  0  0  0
 58131  1  0  0  0
 59 60  1  0  0  0
 59 61  1  0  0  0
 59 62  1  0  0  0
 60132  1  0  0  0
 60133  1  0  0  0
 60134  1  0  0  0
 61135  1  0  0  0
 61136  1  0  0  0
 61137  1  0  0  0
 62138  1  0  0  0
 62139  1  0  0  0
 62140  1  0  0  0
 63 65  1  0  0  0
 63141  1  0  0  0
 63142  1  0  0  0
 63143  1  0  0  0
 64144  1  0  0  0
 65145  1  0  0  0
 68 83  1  0  0  0
 71 72  2  0  0  0
 71 75  1  0  0  0
 71146  1  0  0  0
 72 76  1  0  0  0
 72147  1  0  0  0
 73 74  1  0  0  0
 73 75  2  0  0  0
 73148  1  0  0  0
 74 76  2  0  0  0
 74 80  1  0  0  0
 75 84  1  0  0  0
 76 85  1  0  0  0
 77 79  1  0  0  0
 77 84  1  0  0  0
 77 86  2  0  0  0
 78 79  1  0  0  0
 78 84  1  0  0  0
 78149  1  0  0  0
 78150  1  0  0  0
 79 81  1  0  0  0
 79 83  1  0  0  0
 80151  1  0  0  0
 80152  1  0  0  0
 80153  1  0  0  0
 81154  1  0  0  0
 81155  1  0  0  0
 81156  1  0  0  0
 82 85  1  0  0  0
 82157  1  0  0  0
 82158  1  0  0  0
 82159  1  0  0  0
 83160  1  0  0  0
 83161  1  0  0  0
M  ISO  4   1 100  68 101  83 101  85 100
M  END
> <chiral flag>
0

> <version>
0

> <s_m_source_file>
/data/baiqing/PycharmProjects/Reinvent-master-3.2/result/LINK_invent/BTK/process_docking_weight1_custom_product_contain_oxygen_bond_distance_aromatic_linkinvent_7_9_3/rearranged_h_0073.sdf

> <i_m_source_file_index>
96

> <r_mmod_Potential_Energy-OPLS-2005>
413.253051757812

> <r_mmod_Stretch_Energy-OPLS-2005>
105.894515991211

> <r_mmod_Bend_Energy-OPLS-2005>
207.173217773438

> <r_mmod_Torsional_Energy-OPLS-2005>
359.474884033203

> <r_mmod_Improper_Torsional_Energy-OPLS-2005>
30.2794342041016

> <r_mmod_Van_der_Waal_Energy-OPLS-2005>
146.462738037109

> <r_mmod_Electrostatic_Energy-OPLS-2005>
-328.479431152344

> <r_mmod_Solvation_Energy-OPLS-2005>
-204.001861572266

> <b_mmod_Minimization_Converged-OPLS-2005>
0

> <r_mmod_RMS_Derivative-OPLS-2005>
1.42433285713196

$$$$
