0
                    3D
 Structure written by MMmdl.
159167  0  0  1  0            999 V2000
  -29.8633  -12.9303   19.9839 C   0  0  0  0  0  0
  -30.5356  -11.8869   18.9532 C   0  0  0  0  0  0
  -29.4012  -12.6314   17.7041 C   0  0  0  0  0  0
  -28.1376  -13.7191   18.3221 C   0  0  0  0  0  0
  -27.9390  -14.1570   20.0830 C   0  0  2  0  0  0
  -29.0767  -13.4327   21.3050 C   0  0  0  0  0  0
  -25.5206  -14.5642   20.0287 C   0  0  0  0  0  0
  -24.1775  -13.9886   20.4737 C   0  0  0  0  0  0
  -24.8557  -12.0458   21.8797 C   0  0  0  0  0  0
  -24.0497  -10.5189   21.9349 C   0  0  0  0  0  0
  -24.6422   -9.2716   22.1871 C   0  0  0  0  0  0
  -23.9307   -8.0303   22.0712 C   0  0  0  0  0  0
  -22.6357   -7.9282   21.4945 C   0  0  0  0  0  0
  -22.0541   -9.0669   21.0300 C   0  0  0  0  0  0
  -22.6562  -10.2401   21.4575 C   0  0  0  0  0  0
  -21.7331   -6.0268   22.5212 C   0  0  0  0  0  0
  -21.4284   -6.5468   23.7983 C   0  0  0  0  0  0
  -21.3624   -5.6778   24.9054 C   0  0  0  0  0  0
  -21.5903   -4.2975   24.7301 C   0  0  0  0  0  0
  -21.8601   -3.7848   23.4488 C   0  0  0  0  0  0
  -21.9247   -4.6504   22.3470 C   0  0  0  0  0  0
  -22.7615  -14.5288   20.0148 C   0  0  0  0  0  0
  -22.1826   -4.1676   21.1086 F   0  0  0  0  0  0
  -21.5475   -3.4575   25.7908 F   0  0  0  0  0  0
  -30.1625  -12.2291   20.6551 N   0  0  0  0  0  0
  -26.7954  -13.6937   20.5993 N   0  0  0  0  0  0
  -26.5129  -12.2480   21.6753 N   0  0  0  0  0  0
  -21.7024  -13.7009   19.8758 N   0  0  0  0  0  0
  -25.6876  -15.8125   19.5542 N   0  0  0  0  0  0
  -30.9994  -13.7200   20.1657 O   0  0  0  0  0  0
  -21.8628   -6.8075   21.4099 O   0  0  0  0  0  0
  -22.4247  -15.6294   20.3302 O   0  0  0  0  0  0
  -24.6828  -31.8013   23.1624 C   0  0  0  0  0  0
  -25.9455  -32.4412   23.8098 C   0  0  1  0  0  0
  -26.6905  -26.4673   20.4739 C   0  0  0  0  0  0
  -25.6066  -33.8259   24.1957 N   0  0  0  0  0  0
  -23.4873  -30.4378   21.5146 C   0  0  2  0  0  0
  -24.8731  -28.7857   20.0862 C   0  0  0  0  0  0
  -22.7686  -29.4386   22.4625 C   0  0  0  0  0  0
  -18.0341  -28.1408   22.8460 C   0  0  0  0  0  0
  -24.1502  -36.7117   23.2658 C   0  0  0  0  0  0
  -26.0620  -30.4600   21.4596 C   0  0  0  0  0  0
  -26.0329  -29.0161   20.8295 C   0  0  0  0  0  0
  -26.9704  -27.8688   20.9904 C   0  0  0  0  0  0
  -25.6850  -26.5279   19.5034 C   0  0  0  0  0  0
  -24.7724  -27.5972   19.3571 C   0  0  0  0  0  0
  -23.7258  -29.7940   20.1202 C   0  0  0  0  0  0
  -25.4156  -36.2864   24.0278 C   0  0  1  0  0  0
  -20.5965  -28.3764   23.1118 C   0  0  2  0  0  0
  -20.6795  -26.9422   22.5383 C   0  0  0  0  0  0
  -19.5763  -26.6362   21.5206 C   0  0  0  0  0  0
  -18.1958  -26.7937   22.1625 C   0  0  0  0  0  0
  -19.1603  -28.8916   23.2785 C   0  0  0  0  0  0
  -18.9514  -30.1504   23.8833 C   0  0  0  0  0  0
  -17.6505  -30.6596   24.0557 C   0  0  0  0  0  0
  -25.9150  -34.9252   23.4942 C   0  0  0  0  0  0
  -16.5397  -29.9075   23.6354 C   0  0  0  0  0  0
  -16.7326  -28.6493   23.0377 C   0  0  0  0  0  0
  -26.4611  -31.6497   25.0751 C   0  0  0  0  0  0
  -25.3676  -31.3846   26.1370 C   0  0  0  0  0  0
  -27.0554  -30.2821   24.6753 C   0  0  0  0  0  0
  -27.6036  -32.4397   25.7560 C   0  0  0  0  0  0
  -27.5555  -37.1723   24.8470 C   0  0  0  0  0  0
  -21.4347  -29.3029   22.3407 N   0  0  0  0  0  0
  -26.4265  -37.3631   23.9409 N   0  0  0  0  0  0
  -24.7711  -30.9443   22.0929 N   0  0  0  0  0  0
  -23.4189  -28.7970   23.2917 O   0  0  0  0  0  0
  -27.1358  -25.0144   20.8251 O   0  0  0  0  0  0
  -26.5781  -34.8830   22.4550 O   0  0  0  0  0  0
  -23.5866  -32.1187   23.6588 O   0  0  0  0  0  0
  -23.6279  -11.8942   19.8967 C   0  0  0  0  0  0
  -25.2503  -12.2339   19.7873 C   0  0  0  0  0  0
  -24.1626  -14.8296   22.6915 C   0  0  0  0  0  0
  -25.2012  -17.8841   22.2408 C   0  0  0  0  0  0
  -26.7270   -9.9411   19.3424 C   0  0  0  0  0  0
  -23.7844  -20.2259   22.3088 C   0  0  0  0  0  0
  -26.2001  -21.4758   21.5848 C   0  0  0  0  0  0
  -26.2146  -23.4211   20.9682 C   0  0  0  0  0  0
  -26.8890  -11.4655   19.2929 C   0  0  2  0  0  0
  -25.1130  -19.7573   21.7052 C   0  0  1  0  0  0
  -25.3571  -14.1147   22.2842 N   0  0  0  0  0  0
  -24.2568  -16.5921   22.3766 N   0  0  0  0  0  0
  -28.5353  -11.7302   19.9486 N   0  0  0  0  0  0
  -26.3566  -17.6400   22.5918 O   0  0  0  0  0  0
  -22.6456  -13.0689   22.2452 S   0  0  0  0  0  0
  -31.5928  -12.0428   18.6583 H   0  0  0  0  0  0
  -30.5048  -10.7950   18.8135 H   0  0  0  0  0  0
  -28.9312  -11.8170   17.1514 H   0  0  0  0  0  0
  -29.9896  -13.1496   16.9449 H   0  0  0  0  0  0
  -27.1840  -13.6078   17.8066 H   0  0  0  0  0  0
  -28.4473  -14.6741   17.9004 H   0  0  0  0  0  0
  -27.9951  -15.2375   20.2167 H   0  0  0  0  0  0
  -28.6264  -13.0043   22.2038 H   0  0  0  0  0  0
  -29.5520  -14.2687   21.8613 H   0  0  0  0  0  0
  -25.6737   -9.2535   22.5017 H   0  0  0  0  0  0
  -24.4358   -7.1229   22.3664 H   0  0  0  0  0  0
  -21.0586   -9.0601   20.6114 H   0  0  0  0  0  0
  -21.9328  -10.9980   21.2260 H   0  0  0  0  0  0
  -21.2687   -7.6072   23.9276 H   0  0  0  0  0  0
  -21.1474   -6.0752   25.8864 H   0  0  0  0  0  0
  -22.0246   -2.7281   23.3100 H   0  0  0  0  0  0
  -21.8847  -12.7135   19.7858 H   0  0  0  0  0  0
  -20.7676  -14.0778   19.7961 H   0  0  0  0  0  0
  -24.9005  -16.4427   19.4799 H   0  0  0  0  0  0
  -26.5748  -16.2999   19.5819 H   0  0  0  0  0  0
  -26.7497  -32.4754   23.0749 H   0  0  0  0  0  0
  -25.0118  -33.9318   25.0050 H   0  0  0  0  0  0
  -22.8167  -31.2853   21.3608 H   0  0  0  0  0  0
  -23.3782  -35.9426   23.3274 H   0  0  0  0  0  0
  -24.3564  -36.8822   22.2080 H   0  0  0  0  0  0
  -23.7242  -37.6276   23.6761 H   0  0  0  0  0  0
  -26.3073  -31.1600   20.6596 H   0  0  0  0  0  0
  -26.9156  -30.4979   22.1226 H   0  0  0  0  0  0
  -27.7954  -27.9952   21.6778 H   0  0  0  0  0  0
  -25.4478  -25.6181   18.9688 H   0  0  0  0  0  0
  -23.9181  -27.4486   18.7107 H   0  0  0  0  0  0
  -23.9537  -30.5768   19.3959 H   0  0  0  0  0  0
  -22.8103  -29.3186   19.7632 H   0  0  0  0  0  0
  -25.1365  -36.1622   25.0764 H   0  0  0  0  0  0
  -21.0079  -28.3403   24.1234 H   0  0  0  0  0  0
  -20.5651  -26.2402   23.3652 H   0  0  0  0  0  0
  -21.6658  -26.7366   22.1210 H   0  0  0  0  0  0
  -19.6911  -25.6256   21.1280 H   0  0  0  0  0  0
  -19.6694  -27.3136   20.6705 H   0  0  0  0  0  0
  -17.4218  -26.6700   21.4037 H   0  0  0  0  0  0
  -18.0354  -26.0092   22.9033 H   0  0  0  0  0  0
  -19.8000  -30.7334   24.2157 H   0  0  0  0  0  0
  -17.5066  -31.6268   24.5167 H   0  0  0  0  0  0
  -15.5393  -30.2961   23.7706 H   0  0  0  0  0  0
  -15.8730  -28.0790   22.7121 H   0  0  0  0  0  0
  -24.5878  -30.7168   25.7696 H   0  0  0  0  0  0
  -24.8859  -32.3078   26.4598 H   0  0  0  0  0  0
  -25.7863  -30.9154   27.0286 H   0  0  0  0  0  0
  -26.3264  -29.6381   24.1830 H   0  0  0  0  0  0
  -27.3989  -29.7332   25.5533 H   0  0  0  0  0  0
  -27.9261  -30.3907   24.0285 H   0  0  0  0  0  0
  -27.2545  -33.3761   26.1930 H   0  0  0  0  0  0
  -28.3950  -32.6876   25.0474 H   0  0  0  0  0  0
  -28.0603  -31.8696   26.5665 H   0  0  0  0  0  0
  -28.2542  -38.0047   24.7507 H   0  0  0  0  0  0
  -28.1085  -36.2565   24.6317 H   0  0  0  0  0  0
  -27.2265  -37.1371   25.8872 H   0  0  0  0  0  0
  -20.9607  -29.8725   21.6537 H   0  0  0  0  0  0
  -26.0086  -38.2670   24.1428 H   0  0  0  0  0  0
  -23.0864  -11.1782   19.2875 H   0  0  0  0  0  0
  -25.8281   -9.6286   18.8114 H   0  0  0  0  0  0
  -26.6603   -9.5826   20.3659 H   0  0  0  0  0  0
  -27.5766   -9.4366   18.8784 H   0  0  0  0  0  0
  -23.0332  -19.4347   22.3046 H   0  0  0  0  0  0
  -23.3767  -21.0683   21.7512 H   0  0  0  0  0  0
  -23.9223  -20.5529   23.3384 H   0  0  0  0  0  0
  -26.4592  -21.6023   22.6366 H   0  0  0  0  0  0
  -27.1277  -21.1079   21.1415 H   0  0  0  0  0  0
  -25.3027  -23.7910   21.4376 H   0  0  0  0  0  0
  -25.9261  -23.2973   19.9252 H   0  0  0  0  0  0
  -26.9492  -11.5849   18.2159 H   0  0  0  0  0  0
  -24.9104  -19.5942   20.6457 H   0  0  0  0  0  0
  -23.3313  -16.8857   22.0910 H   0  0  0  0  0  0
  -28.7712  -10.9930   20.5924 H   0  0  0  0  0  0
  1 25  1  0  0  0
  1 30  2  0  0  0
  1 83  1  0  0  0
  2  3  1  0  0  0
  2 25  1  0  0  0
  2 86  1  0  0  0
  2 87  1  0  0  0
  3  4  1  0  0  0
  3 88  1  0  0  0
  3 89  1  0  0  0
  4  5  1  0  0  0
  4 90  1  0  0  0
  4 91  1  0  0  0
  5  6  1  0  0  0
  5 26  1  0  0  0
  5 92  1  0  0  0
  6 25  1  0  0  0
  6 93  1  0  0  0
  6 94  1  0  0  0
  7  8  2  0  0  0
  7 26  1  0  0  0
  7 29  1  0  0  0
  8  9  1  0  0  0
  8 22  1  0  0  0
  9 10  1  0  0  0
  9 27  2  0  0  0
 10 11  2  0  0  0
 10 15  1  0  0  0
 11 12  1  0  0  0
 11 95  1  0  0  0
 12 13  2  0  0  0
 12 96  1  0  0  0
 13 14  1  0  0  0
 13 31  1  0  0  0
 14 15  2  0  0  0
 14 97  1  0  0  0
 15 98  1  0  0  0
 16 17  2  0  0  0
 16 21  1  0  0  0
 16 31  1  0  0  0
 17 18  1  0  0  0
 17 99  1  0  0  0
 18 19  2  0  0  0
 18100  1  0  0  0
 19 20  1  0  0  0
 19 24  1  0  0  0
 20 21  2  0  0  0
 20101  1  0  0  0
 21 23  1  0  0  0
 22 28  1  0  0  0
 22 32  2  0  0  0
 26 27  1  0  0  0
 28102  1  0  0  0
 28103  1  0  0  0
 29104  1  0  0  0
 29105  1  0  0  0
 33 34  1  0  0  0
 33 66  1  0  0  0
 33 70  2  0  0  0
 34 36  1  0  0  0
 34 59  1  0  0  0
 34106  1  0  0  0
 35 44  2  0  0  0
 35 45  1  0  0  0
 35 68  1  0  0  0
 36 56  1  0  0  0
 36107  1  0  0  0
 37 39  1  0  0  0
 37 47  1  0  0  0
 37 66  1  0  0  0
 37108  1  0  0  0
 38 43  2  0  0  0
 38 46  1  0  0  0
 38 47  1  0  0  0
 39 64  1  0  0  0
 39 67  2  0  0  0
 40 52  1  0  0  0
 40 53  2  0  0  0
 40 58  1  0  0  0
 41109  1  0  0  0
 41110  1  0  0  0
 41111  1  0  0  0
 41 48  1  0  0  0
 42 43  1  0  0  0
 42 66  1  0  0  0
 42112  1  0  0  0
 42113  1  0  0  0
 43 44  1  0  0  0
 44114  1  0  0  0
 45 46  2  0  0  0
 45115  1  0  0  0
 46116  1  0  0  0
 47117  1  0  0  0
 47118  1  0  0  0
 48 56  1  0  0  0
 48 65  1  0  0  0
 48119  1  0  0  0
 49 50  1  0  0  0
 49 53  1  0  0  0
 49 64  1  0  0  0
 49120  1  0  0  0
 50 51  1  0  0  0
 50121  1  0  0  0
 50122  1  0  0  0
 51 52  1  0  0  0
 51123  1  0  0  0
 51124  1  0  0  0
 52125  1  0  0  0
 52126  1  0  0  0
 53 54  1  0  0  0
 54 55  2  0  0  0
 54127  1  0  0  0
 55 57  1  0  0  0
 55128  1  0  0  0
 56 69  2  0  0  0
 57 58  2  0  0  0
 57129  1  0  0  0
 58130  1  0  0  0
 59 60  1  0  0  0
 59 61  1  0  0  0
 59 62  1  0  0  0
 60131  1  0  0  0
 60132  1  0  0  0
 60133  1  0  0  0
 61134  1  0  0  0
 61135  1  0  0  0
 61136  1  0  0  0
 62137  1  0  0  0
 62138  1  0  0  0
 62139  1  0  0  0
 63 65  1  0  0  0
 63140  1  0  0  0
 63141  1  0  0  0
 63142  1  0  0  0
 64143  1  0  0  0
 65144  1  0  0  0
 68 78  1  0  0  0
 71 72  2  0  0  0
 71 85  1  0  0  0
 71145  1  0  0  0
 72 79  1  0  0  0
 72 81  1  0  0  0
 73 81  2  0  0  0
 73 82  1  0  0  0
 73 85  1  0  0  0
 74 80  1  0  0  0
 74 82  1  0  0  0
 74 84  2  0  0  0
 75146  1  0  0  0
 75147  1  0  0  0
 75148  1  0  0  0
 75 79  1  0  0  0
 76149  1  0  0  0
 76150  1  0  0  0
 76151  1  0  0  0
 76 80  1  0  0  0
 77 78  1  0  0  0
 77 80  1  0  0  0
 77152  1  0  0  0
 77153  1  0  0  0
 78154  1  0  0  0
 78155  1  0  0  0
 79 83  1  0  0  0
 79156  1  0  0  0
 80157  1  0  0  0
 82158  1  0  0  0
 83159  1  0  0  0
M  ISO  4   1 100  68 101  78 101  83 100
M  END
> <chiral flag>
0

> <version>
0

> <s_m_source_file>
/data/baiqing/PycharmProjects/Reinvent-master-3.2/result/LINK_invent/BTK/process_docking_weight1_custom_product_contain_oxygen_bond_distance_aromatic_linkinvent_7_9_3/rearranged_h_0189.sdf

> <i_m_source_file_index>
1

> <r_mmod_Potential_Energy-OPLS-2005>
24422.931640625

> <r_mmod_Stretch_Energy-OPLS-2005>
13500.8349609375

> <r_mmod_Bend_Energy-OPLS-2005>
1953.95654296875

> <r_mmod_Torsional_Energy-OPLS-2005>
545.134094238281

> <r_mmod_Improper_Torsional_Energy-OPLS-2005>
68.4002075195312

> <r_mmod_Van_der_Waal_Energy-OPLS-2005>
5390.9482421875

> <r_mmod_Electrostatic_Energy-OPLS-2005>
-534.907836914062

> <r_mmod_Solvation_Energy-OPLS-2005>
-267.876068115234

> <b_mmod_Minimization_Converged-OPLS-2005>
0

> <r_mmod_RMS_Derivative-OPLS-2005>
8.62988567352295

$$$$
1
                    3D
 Structure written by MMmdl.
160168  0  0  1  0            999 V2000
  -30.7013  -14.4904   20.4844 C   0  0  0  0  0  0
  -30.4161  -12.3053   19.4185 C   0  0  0  0  0  0
  -29.4911  -12.5207   18.2022 C   0  0  0  0  0  0
  -28.0135  -12.3822   18.6117 C   0  0  0  0  0  0
  -27.6575  -13.2154   19.8699 C   0  0  2  0  0  0
  -28.7066  -13.0183   20.9908 C   0  0  0  0  0  0
  -25.2557  -13.8133   20.5711 C   0  0  0  0  0  0
  -24.1821  -13.0399   20.9197 C   0  0  0  0  0  0
  -24.6392  -11.6865   20.8709 C   0  0  0  0  0  0
  -23.9077  -10.4237   21.0385 C   0  0  0  0  0  0
  -24.3611   -9.4150   21.9167 C   0  0  0  0  0  0
  -23.6255   -8.2200   22.0755 C   0  0  0  0  0  0
  -22.4229   -8.0253   21.3562 C   0  0  0  0  0  0
  -21.9876   -9.0232   20.4666 C   0  0  0  0  0  0
  -22.7234  -10.2090   20.3070 C   0  0  0  0  0  0
  -21.6833   -6.0712   22.5266 C   0  0  0  0  0  0
  -21.3991   -6.5603   23.8200 C   0  0  0  0  0  0
  -21.3683   -5.6772   24.9169 C   0  0  0  0  0  0
  -21.6059   -4.3038   24.7207 C   0  0  0  0  0  0
  -21.8811   -3.8132   23.4328 C   0  0  0  0  0  0
  -21.9183   -4.6946   22.3390 C   0  0  0  0  0  0
  -22.7841  -13.5212   21.1843 C   0  0  0  0  0  0
  -22.1653   -4.2139   21.0965 F   0  0  0  0  0  0
  -21.5662   -3.4520   25.7727 F   0  0  0  0  0  0
  -30.0374  -13.3029   20.4315 N   0  0  0  0  0  0
  -26.3002  -12.9336   20.3351 N   0  0  0  0  0  0
  -25.9318  -11.6478   20.5698 N   0  0  0  0  0  0
  -22.0441  -12.8260   22.0421 N   0  0  0  0  0  0
  -25.4229  -15.1871   20.4147 N   0  0  0  0  0  0
  -31.8769  -14.6071   20.1284 O   0  0  0  0  0  0
  -21.6595   -6.8856   21.4240 O   0  0  0  0  0  0
  -22.3549  -14.5527   20.6686 O   0  0  0  0  0  0
  -24.6195  -31.8701   23.2105 C   0  0  0  0  0  0
  -25.9074  -32.4826   23.8425 C   0  0  1  0  0  0
  -27.2185  -27.3820   20.0774 C   0  0  0  0  0  0
  -25.5921  -33.8628   24.2351 N   0  0  0  0  0  0
  -23.4076  -30.4971   21.5551 C   0  0  2  0  0  0
  -24.8496  -28.9702   20.1154 C   0  0  0  0  0  0
  -22.7446  -29.4665   22.4978 C   0  0  0  0  0  0
  -18.0285  -28.1370   22.8480 C   0  0  0  0  0  0
  -24.1493  -36.7316   23.2631 C   0  0  0  0  0  0
  -25.9463  -30.8151   21.3763 C   0  0  0  0  0  0
  -26.0175  -29.4465   20.7208 C   0  0  0  0  0  0
  -27.2016  -28.6579   20.7096 C   0  0  0  0  0  0
  -26.0220  -26.9629   19.4413 C   0  0  0  0  0  0
  -24.8488  -27.7267   19.4758 C   0  0  0  0  0  0
  -23.6184  -29.8444   20.1671 C   0  0  0  0  0  0
  -25.4107  -36.3113   24.0341 C   0  0  1  0  0  0
  -20.5875  -28.3666   23.1296 C   0  0  2  0  0  0
  -20.6772  -26.9395   22.5410 C   0  0  0  0  0  0
  -19.5758  -26.6375   21.5200 C   0  0  0  0  0  0
  -18.1933  -26.7915   22.1612 C   0  0  0  0  0  0
  -19.1532  -28.8833   23.2887 C   0  0  0  0  0  0
  -18.9454  -30.1432   23.8915 C   0  0  0  0  0  0
  -17.6453  -30.6572   24.0546 C   0  0  0  0  0  0
  -25.9049  -34.9474   23.5136 C   0  0  0  0  0  0
  -16.5344  -29.9065   23.6319 C   0  0  0  0  0  0
  -16.7272  -28.6480   23.0344 C   0  0  0  0  0  0
  -26.4475  -31.6588   25.0749 C   0  0  0  0  0  0
  -25.3714  -31.3693   26.1478 C   0  0  0  0  0  0
  -27.0278  -30.3011   24.6125 C   0  0  0  0  0  0
  -27.6085  -32.4273   25.7504 C   0  0  0  0  0  0
  -27.5589  -37.1816   24.8458 C   0  0  0  0  0  0
  -21.4168  -29.3038   22.3721 N   0  0  0  0  0  0
  -26.4293  -37.3787   23.9412 N   0  0  0  0  0  0
  -24.6770  -31.0755   22.1041 N   0  0  0  0  0  0
  -23.4221  -28.8194   23.3017 O   0  0  0  0  0  0
  -28.3655  -26.5815   20.1077 O   0  0  0  0  0  0
  -26.5595  -34.8917   22.4697 O   0  0  0  0  0  0
  -23.5384  -32.1487   23.7458 O   0  0  0  0  0  0
  -30.2676  -18.6569   18.4015 C   0  0  0  0  0  0
  -29.5383  -18.9957   19.5196 C   0  0  0  0  0  0
  -30.0473  -16.8139   20.0364 C   0  0  0  0  0  0
  -30.5567  -19.4827   17.1863 C   0  0  0  0  0  0
  -29.8896  -21.4278   21.5970 C   0  0  0  0  0  0
  -28.6409  -25.4766   17.9949 C   0  0  0  0  0  0
  -28.7672  -22.7022   19.6416 C   0  0  0  0  0  0
  -29.1997  -24.1358   20.1140 C   0  0  0  0  0  0
  -29.5823  -21.4491   20.0951 C   0  0  2  0  0  0
  -28.3157  -25.2620   19.4840 C   0  0  1  0  0  0
  -29.4201  -17.9338   20.4411 N   0  0  0  0  0  0
  -28.8687  -20.2265   19.7023 N   0  0  0  0  0  0
  -29.9514  -15.5761   20.7520 N   0  0  0  0  0  0
  -30.8647  -17.0203   18.4855 S   0  0  0  0  0  0
  -31.4604  -12.3856   19.1155 H   0  0  0  0  0  0
  -30.3005  -11.2982   19.8191 H   0  0  0  0  0  0
  -29.7277  -11.8155   17.4060 H   0  0  0  0  0  0
  -29.6598  -13.5160   17.7824 H   0  0  0  0  0  0
  -27.8097  -11.3248   18.7920 H   0  0  0  0  0  0
  -27.3755  -12.6771   17.7794 H   0  0  0  0  0  0
  -27.6911  -14.2611   19.5613 H   0  0  0  0  0  0
  -28.6766  -11.9905   21.3562 H   0  0  0  0  0  0
  -28.4812  -13.6432   21.8540 H   0  0  0  0  0  0
  -25.2743   -9.5617   22.4743 H   0  0  0  0  0  0
  -23.9963   -7.4597   22.7477 H   0  0  0  0  0  0
  -21.0804   -8.8781   19.8948 H   0  0  0  0  0  0
  -22.3707  -10.9633   19.6192 H   0  0  0  0  0  0
  -21.1931   -7.6100   23.9703 H   0  0  0  0  0  0
  -21.1560   -6.0495   25.9090 H   0  0  0  0  0  0
  -22.0573   -2.7583   23.2834 H   0  0  0  0  0  0
  -22.3980  -11.9895   22.4806 H   0  0  0  0  0  0
  -21.1070  -13.1318   22.2641 H   0  0  0  0  0  0
  -24.6519  -15.8317   20.5381 H   0  0  0  0  0  0
  -26.2624  -15.6338   20.0705 H   0  0  0  0  0  0
  -26.7140  -32.5525   23.1197 H   0  0  0  0  0  0
  -25.0096  -33.9796   25.0511 H   0  0  0  0  0  0
  -22.6961  -31.3149   21.4217 H   0  0  0  0  0  0
  -23.3748  -35.9652   23.3287 H   0  0  0  0  0  0
  -24.3622  -36.8925   22.2049 H   0  0  0  0  0  0
  -23.7243  -37.6519   23.6657 H   0  0  0  0  0  0
  -26.0664  -31.5776   20.6053 H   0  0  0  0  0  0
  -26.8336  -30.8693   21.9951 H   0  0  0  0  0  0
  -28.0980  -29.0183   21.1939 H   0  0  0  0  0  0
  -25.9355  -26.0458   18.8823 H   0  0  0  0  0  0
  -23.9548  -27.3596   18.9908 H   0  0  0  0  0  0
  -23.7376  -30.6269   19.4170 H   0  0  0  0  0  0
  -22.7380  -29.2756   19.8628 H   0  0  0  0  0  0
  -25.1265  -36.1988   25.0826 H   0  0  0  0  0  0
  -20.9956  -28.3221   24.1419 H   0  0  0  0  0  0
  -20.5644  -26.2267   23.3596 H   0  0  0  0  0  0
  -21.6647  -26.7423   22.1219 H   0  0  0  0  0  0
  -19.6902  -25.6279   21.1240 H   0  0  0  0  0  0
  -19.6683  -27.3172   20.6718 H   0  0  0  0  0  0
  -17.4190  -26.6641   21.4021 H   0  0  0  0  0  0
  -18.0342  -26.0061   22.9017 H   0  0  0  0  0  0
  -19.7926  -30.7234   24.2309 H   0  0  0  0  0  0
  -17.5010  -31.6267   24.5125 H   0  0  0  0  0  0
  -15.5345  -30.2970   23.7634 H   0  0  0  0  0  0
  -15.8672  -28.0801   22.7065 H   0  0  0  0  0  0
  -24.5946  -30.6964   25.7818 H   0  0  0  0  0  0
  -24.8824  -32.2825   26.4875 H   0  0  0  0  0  0
  -25.8053  -30.8927   27.0273 H   0  0  0  0  0  0
  -26.2816  -29.6812   24.1128 H   0  0  0  0  0  0
  -27.3965  -29.7209   25.4594 H   0  0  0  0  0  0
  -27.8706  -30.4301   23.9327 H   0  0  0  0  0  0
  -27.2768  -33.3592   26.2101 H   0  0  0  0  0  0
  -28.3900  -32.6774   25.0315 H   0  0  0  0  0  0
  -28.0748  -31.8355   26.5394 H   0  0  0  0  0  0
  -28.2577  -38.0134   24.7528 H   0  0  0  0  0  0
  -28.1104  -36.2669   24.6244 H   0  0  0  0  0  0
  -27.2333  -37.1424   25.8864 H   0  0  0  0  0  0
  -20.9334  -29.8801   21.6969 H   0  0  0  0  0  0
  -26.0182  -38.2866   24.1392 H   0  0  0  0  0  0
  -31.5929  -19.8182   17.1788 H   0  0  0  0  0  0
  -29.9166  -20.3631   17.1331 H   0  0  0  0  0  0
  -30.3915  -18.9020   16.2766 H   0  0  0  0  0  0
  -30.5222  -22.2714   21.8754 H   0  0  0  0  0  0
  -30.4332  -20.5223   21.8714 H   0  0  0  0  0  0
  -28.9833  -21.4727   22.2005 H   0  0  0  0  0  0
  -28.4502  -24.5845   17.4009 H   0  0  0  0  0  0
  -29.6887  -25.7440   17.8649 H   0  0  0  0  0  0
  -28.0441  -26.2799   17.5634 H   0  0  0  0  0  0
  -28.7689  -22.6882   18.5515 H   0  0  0  0  0  0
  -27.7246  -22.5555   19.9275 H   0  0  0  0  0  0
  -30.2536  -24.3104   19.8967 H   0  0  0  0  0  0
  -29.0944  -24.1828   21.1985 H   0  0  0  0  0  0
  -30.5393  -21.4578   19.5683 H   0  0  0  0  0  0
  -27.3236  -24.8355   19.5956 H   0  0  0  0  0  0
  -28.3362  -20.4263   18.8613 H   0  0  0  0  0  0
  -29.0813  -15.4113   21.2319 H   0  0  0  0  0  0
  1 25  1  0  0  0
  1 30  2  0  0  0
  1 83  1  0  0  0
  2  3  1  0  0  0
  2 25  1  0  0  0
  2 85  1  0  0  0
  2 86  1  0  0  0
  3  4  1  0  0  0
  3 87  1  0  0  0
  3 88  1  0  0  0
  4  5  1  0  0  0
  4 89  1  0  0  0
  4 90  1  0  0  0
  5  6  1  0  0  0
  5 26  1  0  0  0
  5 91  1  0  0  0
  6 25  1  0  0  0
  6 92  1  0  0  0
  6 93  1  0  0  0
  7  8  2  0  0  0
  7 26  1  0  0  0
  7 29  1  0  0  0
  8  9  1  0  0  0
  8 22  1  0  0  0
  9 10  1  0  0  0
  9 27  2  0  0  0
 10 11  2  0  0  0
 10 15  1  0  0  0
 11 12  1  0  0  0
 11 94  1  0  0  0
 12 13  2  0  0  0
 12 95  1  0  0  0
 13 14  1  0  0  0
 13 31  1  0  0  0
 14 15  2  0  0  0
 14 96  1  0  0  0
 15 97  1  0  0  0
 16 17  2  0  0  0
 16 21  1  0  0  0
 16 31  1  0  0  0
 17 18  1  0  0  0
 17 98  1  0  0  0
 18 19  2  0  0  0
 18 99  1  0  0  0
 19 20  1  0  0  0
 19 24  1  0  0  0
 20 21  2  0  0  0
 20100  1  0  0  0
 21 23  1  0  0  0
 22 28  1  0  0  0
 22 32  2  0  0  0
 26 27  1  0  0  0
 28101  1  0  0  0
 28102  1  0  0  0
 29103  1  0  0  0
 29104  1  0  0  0
 33 34  1  0  0  0
 33 66  1  0  0  0
 33 70  2  0  0  0
 34 36  1  0  0  0
 34 59  1  0  0  0
 34105  1  0  0  0
 35 44  2  0  0  0
 35 45  1  0  0  0
 35 68  1  0  0  0
 36 56  1  0  0  0
 36106  1  0  0  0
 37 39  1  0  0  0
 37 47  1  0  0  0
 37 66  1  0  0  0
 37107  1  0  0  0
 38 43  2  0  0  0
 38 46  1  0  0  0
 38 47  1  0  0  0
 39 64  1  0  0  0
 39 67  2  0  0  0
 40 52  1  0  0  0
 40 53  2  0  0  0
 40 58  1  0  0  0
 41108  1  0  0  0
 41109  1  0  0  0
 41110  1  0  0  0
 41 48  1  0  0  0
 42 43  1  0  0  0
 42 66  1  0  0  0
 42111  1  0  0  0
 42112  1  0  0  0
 43 44  1  0  0  0
 44113  1  0  0  0
 45 46  2  0  0  0
 45114  1  0  0  0
 46115  1  0  0  0
 47116  1  0  0  0
 47117  1  0  0  0
 48 56  1  0  0  0
 48 65  1  0  0  0
 48118  1  0  0  0
 49 50  1  0  0  0
 49 53  1  0  0  0
 49 64  1  0  0  0
 49119  1  0  0  0
 50 51  1  0  0  0
 50120  1  0  0  0
 50121  1  0  0  0
 51 52  1  0  0  0
 51122  1  0  0  0
 51123  1  0  0  0
 52124  1  0  0  0
 52125  1  0  0  0
 53 54  1  0  0  0
 54 55  2  0  0  0
 54126  1  0  0  0
 55 57  1  0  0  0
 55127  1  0  0  0
 56 69  2  0  0  0
 57 58  2  0  0  0
 57128  1  0  0  0
 58129  1  0  0  0
 59 60  1  0  0  0
 59 61  1  0  0  0
 59 62  1  0  0  0
 60130  1  0  0  0
 60131  1  0  0  0
 60132  1  0  0  0
 61133  1  0  0  0
 61134  1  0  0  0
 61135  1  0  0  0
 62136  1  0  0  0
 62137  1  0  0  0
 62138  1  0  0  0
 63 65  1  0  0  0
 63139  1  0  0  0
 63140  1  0  0  0
 63141  1  0  0  0
 64142  1  0  0  0
 65143  1  0  0  0
 68 80  1  0  0  0
 71 72  2  0  0  0
 71 74  1  0  0  0
 71 84  1  0  0  0
 72 81  1  0  0  0
 72 82  1  0  0  0
 73 81  2  0  0  0
 73 83  1  0  0  0
 73 84  1  0  0  0
 74144  1  0  0  0
 74145  1  0  0  0
 74146  1  0  0  0
 75147  1  0  0  0
 75148  1  0  0  0
 75149  1  0  0  0
 75 79  1  0  0  0
 76150  1  0  0  0
 76151  1  0  0  0
 76152  1  0  0  0
 76 80  1  0  0  0
 77 78  1  0  0  0
 77 79  1  0  0  0
 77153  1  0  0  0
 77154  1  0  0  0
 78 80  1  0  0  0
 78155  1  0  0  0
 78156  1  0  0  0
 79 82  1  0  0  0
 79157  1  0  0  0
 80158  1  0  0  0
 82159  1  0  0  0
 83160  1  0  0  0
M  ISO  4   1 100  68 101  80 101  83 100
M  END
> <chiral flag>
0

> <version>
0

> <s_m_source_file>
/data/baiqing/PycharmProjects/Reinvent-master-3.2/result/LINK_invent/BTK/process_docking_weight1_custom_product_contain_oxygen_bond_distance_aromatic_linkinvent_7_9_3/rearranged_h_0189.sdf

> <i_m_source_file_index>
2

> <r_mmod_Potential_Energy-OPLS-2005>
-134.705230712891

> <r_mmod_Stretch_Energy-OPLS-2005>
44.7467308044434

> <r_mmod_Bend_Energy-OPLS-2005>
115.742034912109

> <r_mmod_Torsional_Energy-OPLS-2005>
247.490371704102

> <r_mmod_Improper_Torsional_Energy-OPLS-2005>
12.0024127960205

> <r_mmod_Van_der_Waal_Energy-OPLS-2005>
135.355346679688

> <r_mmod_Electrostatic_Energy-OPLS-2005>
-498.083923339844

> <r_mmod_Solvation_Energy-OPLS-2005>
-215.680191040039

> <b_mmod_Minimization_Converged-OPLS-2005>
0

> <r_mmod_RMS_Derivative-OPLS-2005>
3.91634035110474

$$$$
2
                    3D
 Structure written by MMmdl.
168176  0  0  1  0            999 V2000
  -30.6691  -14.5638   20.5210 C   0  0  0  0  0  0
  -30.4284  -12.3551   19.4239 C   0  0  0  0  0  0
  -29.4958  -12.4948   18.2021 C   0  0  0  0  0  0
  -28.0173  -12.3530   18.6166 C   0  0  0  0  0  0
  -27.6520  -13.2131   19.8564 C   0  0  2  0  0  0
  -28.6996  -13.0517   20.9794 C   0  0  0  0  0  0
  -25.2576  -13.8171   20.5672 C   0  0  0  0  0  0
  -24.1840  -13.0443   20.9166 C   0  0  0  0  0  0
  -24.6400  -11.6907   20.8725 C   0  0  0  0  0  0
  -23.9064  -10.4298   21.0396 C   0  0  0  0  0  0
  -24.3617   -9.4219   21.9188 C   0  0  0  0  0  0
  -23.6290   -8.2262   22.0769 C   0  0  0  0  0  0
  -22.4271   -8.0294   21.3555 C   0  0  0  0  0  0
  -21.9914   -9.0257   20.4650 C   0  0  0  0  0  0
  -22.7241  -10.2134   20.3047 C   0  0  0  0  0  0
  -21.6860   -6.0739   22.5282 C   0  0  0  0  0  0
  -21.4016   -6.5638   23.8214 C   0  0  0  0  0  0
  -21.3658   -5.6790   24.9175 C   0  0  0  0  0  0
  -21.6030   -4.3059   24.7229 C   0  0  0  0  0  0
  -21.8823   -3.8147   23.4353 C   0  0  0  0  0  0
  -21.9193   -4.6959   22.3406 C   0  0  0  0  0  0
  -22.7866  -13.5248   21.1815 C   0  0  0  0  0  0
  -22.1665   -4.2154   21.0991 F   0  0  0  0  0  0
  -21.5625   -3.4539   25.7740 F   0  0  0  0  0  0
  -30.0168  -13.3704   20.4075 N   0  0  0  0  0  0
  -26.2995  -12.9347   20.3295 N   0  0  0  0  0  0
  -25.9322  -11.6495   20.5728 N   0  0  0  0  0  0
  -22.0482  -12.8242   22.0359 N   0  0  0  0  0  0
  -25.4304  -15.1896   20.4092 N   0  0  0  0  0  0
  -31.8391  -14.7102   20.1568 O   0  0  0  0  0  0
  -21.6648   -6.8882   21.4246 O   0  0  0  0  0  0
  -22.3565  -14.5565   20.6673 O   0  0  0  0  0  0
  -24.6203  -31.8617   23.2100 C   0  0  0  0  0  0
  -25.9076  -32.4779   23.8387 C   0  0  1  0  0  0
  -27.2355  -27.3993   20.0543 C   0  0  0  0  0  0
  -25.5931  -33.8588   24.2316 N   0  0  0  0  0  0
  -23.4097  -30.4878   21.5525 C   0  0  2  0  0  0
  -24.8498  -28.9490   20.1102 C   0  0  0  0  0  0
  -22.7439  -29.4628   22.4999 C   0  0  0  0  0  0
  -18.0267  -28.1401   22.8465 C   0  0  0  0  0  0
  -24.1517  -36.7292   23.2639 C   0  0  0  0  0  0
  -25.9457  -30.8050   21.3785 C   0  0  0  0  0  0
  -26.0138  -29.4416   20.7106 C   0  0  0  0  0  0
  -27.2025  -28.6716   20.6823 C   0  0  0  0  0  0
  -26.0367  -26.9123   19.4803 C   0  0  0  0  0  0
  -24.8566  -27.6805   19.5009 C   0  0  0  0  0  0
  -23.6161  -29.8237   20.1666 C   0  0  0  0  0  0
  -25.4128  -36.3081   24.0347 C   0  0  1  0  0  0
  -20.5877  -28.3645   23.1346 C   0  0  2  0  0  0
  -20.6785  -26.9389   22.5428 C   0  0  0  0  0  0
  -19.5761  -26.6394   21.5233 C   0  0  0  0  0  0
  -18.1930  -26.7940   22.1625 C   0  0  0  0  0  0
  -19.1526  -28.8833   23.2900 C   0  0  0  0  0  0
  -18.9474  -30.1438   23.8901 C   0  0  0  0  0  0
  -17.6466  -30.6579   24.0547 C   0  0  0  0  0  0
  -25.9073  -34.9446   23.5136 C   0  0  0  0  0  0
  -16.5351  -29.9078   23.6339 C   0  0  0  0  0  0
  -16.7246  -28.6509   23.0320 C   0  0  0  0  0  0
  -26.4456  -31.6594   25.0770 C   0  0  0  0  0  0
  -25.3682  -31.3758   26.1515 C   0  0  0  0  0  0
  -27.0289  -30.3006   24.6237 C   0  0  0  0  0  0
  -27.6057  -32.4304   25.7497 C   0  0  0  0  0  0
  -27.5601  -37.1790   24.8456 C   0  0  0  0  0  0
  -21.4173  -29.2996   22.3730 N   0  0  0  0  0  0
  -26.4300  -37.3780   23.9428 N   0  0  0  0  0  0
  -24.6769  -31.0674   22.1024 N   0  0  0  0  0  0
  -23.4206  -28.8162   23.3045 O   0  0  0  0  0  0
  -28.4354  -26.6994   20.0527 O   0  0  0  0  0  0
  -26.5642  -34.8882   22.4712 O   0  0  0  0  0  0
  -23.5379  -32.1409   23.7461 O   0  0  0  0  0  0
  -30.5118  -18.4806   19.1524 C   0  0  0  0  0  0
  -30.1341  -19.8390   18.9094 C   0  0  0  0  0  0
  -30.1249  -18.1675   20.4251 C   0  0  0  0  0  0
  -29.5103  -20.3031   20.0374 C   0  0  0  0  0  0
  -25.2124  -20.9563   19.1187 C   0  0  0  0  0  0
  -26.7807  -21.4480   21.9056 C   0  0  0  0  0  0
  -30.3098  -24.7083   21.0699 C   0  0  0  0  0  0
  -30.3780  -16.9660   21.3377 C   0  0  0  0  0  0
  -26.6623  -20.6048   19.4885 C   0  0  0  0  0  0
  -29.2887  -22.8938   19.5682 C   0  0  0  0  0  0
  -28.6413  -25.4645   19.3188 C   0  0  0  0  0  0
  -28.8689  -21.6453   20.4296 C   0  0  1  0  0  0
  -27.3054  -21.6112   20.4686 C   0  0  2  0  0  0
  -29.0639  -24.2928   20.2662 C   0  0  2  0  0  0
  -29.9137  -15.6204   20.9119 N   0  0  0  0  0  0
  -29.4878  -19.2745   20.9657 O   0  0  0  0  0  0
  -31.4694  -12.4741   19.1168 H   0  0  0  0  0  0
  -30.3551  -11.3565   19.8562 H   0  0  0  0  0  0
  -29.7449  -11.7465   17.4492 H   0  0  0  0  0  0
  -29.6530  -13.4662   17.7298 H   0  0  0  0  0  0
  -27.8312  -11.3001   18.8280 H   0  0  0  0  0  0
  -27.3690  -12.6125   17.7795 H   0  0  0  0  0  0
  -27.6768  -14.2510   19.5256 H   0  0  0  0  0  0
  -28.6990  -12.0311   21.3649 H   0  0  0  0  0  0
  -28.4566  -13.6885   21.8312 H   0  0  0  0  0  0
  -25.2758   -9.5702   22.4760 H   0  0  0  0  0  0
  -23.9988   -7.4666   22.7510 H   0  0  0  0  0  0
  -21.0841   -8.8759   19.8972 H   0  0  0  0  0  0
  -22.3689  -10.9658   19.6150 H   0  0  0  0  0  0
  -21.2017   -7.6145   23.9713 H   0  0  0  0  0  0
  -21.1465   -6.0528   25.9077 H   0  0  0  0  0  0
  -22.0605   -2.7606   23.2851 H   0  0  0  0  0  0
  -22.4063  -11.9867   22.4701 H   0  0  0  0  0  0
  -21.1117  -13.1306   22.2573 H   0  0  0  0  0  0
  -24.6634  -15.8439   20.5257 H   0  0  0  0  0  0
  -26.2765  -15.6285   20.0697 H   0  0  0  0  0  0
  -26.7144  -32.5405   23.1127 H   0  0  0  0  0  0
  -25.0018  -33.9736   25.0414 H   0  0  0  0  0  0
  -22.7005  -31.3056   21.4128 H   0  0  0  0  0  0
  -23.3776  -35.9639   23.3293 H   0  0  0  0  0  0
  -24.3608  -36.8928   22.2054 H   0  0  0  0  0  0
  -23.7257  -37.6490   23.6662 H   0  0  0  0  0  0
  -26.0971  -31.5760   20.6220 H   0  0  0  0  0  0
  -26.8187  -30.8353   22.0154 H   0  0  0  0  0  0
  -28.1010  -29.0495   21.1480 H   0  0  0  0  0  0
  -25.9710  -25.9343   19.0271 H   0  0  0  0  0  0
  -23.9529  -27.2894   19.0563 H   0  0  0  0  0  0
  -23.7244  -30.6012   19.4097 H   0  0  0  0  0  0
  -22.7369  -29.2497   19.8680 H   0  0  0  0  0  0
  -25.1286  -36.1955   25.0837 H   0  0  0  0  0  0
  -20.9926  -28.3177   24.1488 H   0  0  0  0  0  0
  -20.5785  -26.2194   23.3570 H   0  0  0  0  0  0
  -21.6631  -26.7486   22.1144 H   0  0  0  0  0  0
  -19.6954  -25.6332   21.1187 H   0  0  0  0  0  0
  -19.6750  -27.3225   20.6793 H   0  0  0  0  0  0
  -17.4224  -26.6695   21.3993 H   0  0  0  0  0  0
  -18.0280  -26.0080   22.9008 H   0  0  0  0  0  0
  -19.7973  -30.7240   24.2277 H   0  0  0  0  0  0
  -17.5039  -31.6262   24.5133 H   0  0  0  0  0  0
  -15.5346  -30.2963   23.7710 H   0  0  0  0  0  0
  -15.8645  -28.0815   22.7063 H   0  0  0  0  0  0
  -24.5923  -30.7016   25.7870 H   0  0  0  0  0  0
  -24.8765  -32.2918   26.4806 H   0  0  0  0  0  0
  -25.7984  -30.9053   27.0371 H   0  0  0  0  0  0
  -26.2867  -29.6764   24.1255 H   0  0  0  0  0  0
  -27.3958  -29.7252   25.4752 H   0  0  0  0  0  0
  -27.8743  -30.4264   23.9472 H   0  0  0  0  0  0
  -27.2743  -33.3643   26.2027 H   0  0  0  0  0  0
  -28.3849  -32.6806   25.0289 H   0  0  0  0  0  0
  -28.0744  -31.8460   26.5420 H   0  0  0  0  0  0
  -28.2579  -38.0119   24.7515 H   0  0  0  0  0  0
  -28.1125  -36.2643   24.6242 H   0  0  0  0  0  0
  -27.2318  -37.1384   25.8856 H   0  0  0  0  0  0
  -20.9358  -29.8675   21.6900 H   0  0  0  0  0  0
  -26.0190  -38.2869   24.1422 H   0  0  0  0  0  0
  -31.0536  -17.8234   18.4854 H   0  0  0  0  0  0
  -30.3119  -20.4133   18.0117 H   0  0  0  0  0  0
  -24.7641  -20.1663   18.5154 H   0  0  0  0  0  0
  -25.1725  -21.8746   18.5323 H   0  0  0  0  0  0
  -24.5808  -21.0992   19.9947 H   0  0  0  0  0  0
  -25.6957  -21.5373   21.9495 H   0  0  0  0  0  0
  -27.1845  -22.2162   22.5669 H   0  0  0  0  0  0
  -27.0552  -20.4807   22.3254 H   0  0  0  0  0  0
  -31.1738  -24.8424   20.4185 H   0  0  0  0  0  0
  -30.5694  -23.9558   21.8154 H   0  0  0  0  0  0
  -30.1475  -25.6517   21.5923 H   0  0  0  0  0  0
  -29.9251  -17.1626   22.3102 H   0  0  0  0  0  0
  -31.4502  -16.9095   21.5367 H   0  0  0  0  0  0
  -27.2289  -20.5803   18.5561 H   0  0  0  0  0  0
  -26.7125  -19.5950   19.8991 H   0  0  0  0  0  0
  -28.7503  -22.8562   18.6207 H   0  0  0  0  0  0
  -30.3402  -22.8095   19.2907 H   0  0  0  0  0  0
  -27.8155  -25.1691   18.6769 H   0  0  0  0  0  0
  -29.4555  -25.6554   18.6199 H   0  0  0  0  0  0
  -29.2338  -21.8651   21.4330 H   0  0  0  0  0  0
  -26.9371  -22.5911   20.1584 H   0  0  0  0  0  0
  -28.2505  -24.1850   20.9817 H   0  0  0  0  0  0
  -28.9428  -15.4182   21.0904 H   0  0  0  0  0  0
  1 25  1  0  0  0
  1 30  2  0  0  0
  1 85  1  0  0  0
  2  3  1  0  0  0
  2 25  1  0  0  0
  2 87  1  0  0  0
  2 88  1  0  0  0
  3  4  1  0  0  0
  3 89  1  0  0  0
  3 90  1  0  0  0
  4  5  1  0  0  0
  4 91  1  0  0  0
  4 92  1  0  0  0
  5  6  1  0  0  0
  5 26  1  0  0  0
  5 93  1  0  0  0
  6 25  1  0  0  0
  6 94  1  0  0  0
  6 95  1  0  0  0
  7  8  2  0  0  0
  7 26  1  0  0  0
  7 29  1  0  0  0
  8  9  1  0  0  0
  8 22  1  0  0  0
  9 10  1  0  0  0
  9 27  2  0  0  0
 10 11  2  0  0  0
 10 15  1  0  0  0
 11 12  1  0  0  0
 11 96  1  0  0  0
 12 13  2  0  0  0
 12 97  1  0  0  0
 13 14  1  0  0  0
 13 31  1  0  0  0
 14 15  2  0  0  0
 14 98  1  0  0  0
 15 99  1  0  0  0
 16 17  2  0  0  0
 16 21  1  0  0  0
 16 31  1  0  0  0
 17 18  1  0  0  0
 17100  1  0  0  0
 18 19  2  0  0  0
 18101  1  0  0  0
 19 20  1  0  0  0
 19 24  1  0  0  0
 20 21  2  0  0  0
 20102  1  0  0  0
 21 23  1  0  0  0
 22 28  1  0  0  0
 22 32  2  0  0  0
 26 27  1  0  0  0
 28103  1  0  0  0
 28104  1  0  0  0
 29105  1  0  0  0
 29106  1  0  0  0
 33 34  1  0  0  0
 33 66  1  0  0  0
 33 70  2  0  0  0
 34 36  1  0  0  0
 34 59  1  0  0  0
 34107  1  0  0  0
 35 44  2  0  0  0
 35 45  1  0  0  0
 35 68  1  0  0  0
 36 56  1  0  0  0
 36108  1  0  0  0
 37 39  1  0  0  0
 37 47  1  0  0  0
 37 66  1  0  0  0
 37109  1  0  0  0
 38 43  2  0  0  0
 38 46  1  0  0  0
 38 47  1  0  0  0
 39 64  1  0  0  0
 39 67  2  0  0  0
 40 52  1  0  0  0
 40 53  2  0  0  0
 40 58  1  0  0  0
 41110  1  0  0  0
 41111  1  0  0  0
 41112  1  0  0  0
 41 48  1  0  0  0
 42 43  1  0  0  0
 42 66  1  0  0  0
 42113  1  0  0  0
 42114  1  0  0  0
 43 44  1  0  0  0
 44115  1  0  0  0
 45 46  2  0  0  0
 45116  1  0  0  0
 46117  1  0  0  0
 47118  1  0  0  0
 47119  1  0  0  0
 48 56  1  0  0  0
 48 65  1  0  0  0
 48120  1  0  0  0
 49 50  1  0  0  0
 49 53  1  0  0  0
 49 64  1  0  0  0
 49121  1  0  0  0
 50 51  1  0  0  0
 50122  1  0  0  0
 50123  1  0  0  0
 51 52  1  0  0  0
 51124  1  0  0  0
 51125  1  0  0  0
 52126  1  0  0  0
 52127  1  0  0  0
 53 54  1  0  0  0
 54 55  2  0  0  0
 54128  1  0  0  0
 55 57  1  0  0  0
 55129  1  0  0  0
 56 69  2  0  0  0
 57 58  2  0  0  0
 57130  1  0  0  0
 58131  1  0  0  0
 59 60  1  0  0  0
 59 61  1  0  0  0
 59 62  1  0  0  0
 60132  1  0  0  0
 60133  1  0  0  0
 60134  1  0  0  0
 61135  1  0  0  0
 61136  1  0  0  0
 61137  1  0  0  0
 62138  1  0  0  0
 62139  1  0  0  0
 62140  1  0  0  0
 63 65  1  0  0  0
 63141  1  0  0  0
 63142  1  0  0  0
 63143  1  0  0  0
 64144  1  0  0  0
 65145  1  0  0  0
 68 81  1  0  0  0
 71 72  1  0  0  0
 71 73  2  0  0  0
 71146  1  0  0  0
 72 74  2  0  0  0
 72147  1  0  0  0
 73 78  1  0  0  0
 73 86  1  0  0  0
 74 82  1  0  0  0
 74 86  1  0  0  0
 75 79  1  0  0  0
 75148  1  0  0  0
 75149  1  0  0  0
 75150  1  0  0  0
 76151  1  0  0  0
 76152  1  0  0  0
 76153  1  0  0  0
 76 83  1  0  0  0
 77154  1  0  0  0
 77155  1  0  0  0
 77156  1  0  0  0
 77 84  1  0  0  0
 78 85  1  0  0  0
 78157  1  0  0  0
 78158  1  0  0  0
 79 83  1  0  0  0
 79159  1  0  0  0
 79160  1  0  0  0
 80 84  1  0  0  0
 80161  1  0  0  0
 80162  1  0  0  0
 80 82  1  0  0  0
 81 84  1  0  0  0
 81163  1  0  0  0
 81164  1  0  0  0
 82 83  1  0  0  0
 82165  1  0  0  0
 83166  1  0  0  0
 84167  1  0  0  0
 85168  1  0  0  0
M  ISO  4   1 100  68 101  81 101  85 100
M  END
> <chiral flag>
0

> <version>
0

> <s_m_source_file>
/data/baiqing/PycharmProjects/Reinvent-master-3.2/result/LINK_invent/BTK/process_docking_weight1_custom_product_contain_oxygen_bond_distance_aromatic_linkinvent_7_9_3/rearranged_h_0189.sdf

> <i_m_source_file_index>
3

> <r_mmod_Potential_Energy-OPLS-2005>
-45.4049453735352

> <r_mmod_Stretch_Energy-OPLS-2005>
52.6903228759766

> <r_mmod_Bend_Energy-OPLS-2005>
126.507781982422

> <r_mmod_Torsional_Energy-OPLS-2005>
226.617935180664

> <r_mmod_Improper_Torsional_Energy-OPLS-2005>
3.98862767219543

> <r_mmod_Van_der_Waal_Energy-OPLS-2005>
124.449005126953

> <r_mmod_Electrostatic_Energy-OPLS-2005>
-411.552978515625

> <r_mmod_Solvation_Energy-OPLS-2005>
-193.625518798828

> <b_mmod_Minimization_Converged-OPLS-2005>
0

> <r_mmod_RMS_Derivative-OPLS-2005>
4.68097686767578

$$$$
3
                    3D
 Structure written by MMmdl.
166174  0  0  1  0            999 V2000
  -30.4445  -15.1326   20.3705 C   0  0  0  0  0  0
  -30.4514  -12.7099   19.5087 C   0  0  0  0  0  0
  -29.5351  -12.5668   18.2671 C   0  0  0  0  0  0
  -28.0697  -12.3304   18.6829 C   0  0  0  0  0  0
  -27.6202  -13.2717   19.8281 C   0  0  2  0  0  0
  -28.6598  -13.3479   20.9617 C   0  0  0  0  0  0
  -25.2371  -13.8278   20.5676 C   0  0  0  0  0  0
  -24.1749  -13.0476   20.9260 C   0  0  0  0  0  0
  -24.6394  -11.6945   20.8780 C   0  0  0  0  0  0
  -23.9080  -10.4314   21.0431 C   0  0  0  0  0  0
  -24.3603   -9.4204   21.9194 C   0  0  0  0  0  0
  -23.6285   -8.2227   22.0759 C   0  0  0  0  0  0
  -22.4279   -8.0271   21.3531 C   0  0  0  0  0  0
  -21.9913   -9.0267   20.4642 C   0  0  0  0  0  0
  -22.7270  -10.2133   20.3066 C   0  0  0  0  0  0
  -21.6859   -6.0731   22.5281 C   0  0  0  0  0  0
  -21.4042   -6.5624   23.8231 C   0  0  0  0  0  0
  -21.3683   -5.6766   24.9190 C   0  0  0  0  0  0
  -21.6052   -4.3033   24.7228 C   0  0  0  0  0  0
  -21.8830   -3.8119   23.4350 C   0  0  0  0  0  0
  -21.9197   -4.6952   22.3404 C   0  0  0  0  0  0
  -22.7736  -13.5189   21.1904 C   0  0  0  0  0  0
  -22.1641   -4.2128   21.0989 F   0  0  0  0  0  0
  -21.5631   -3.4525   25.7745 F   0  0  0  0  0  0
  -29.9172  -13.8230   20.3626 N   0  0  0  0  0  0
  -26.2832  -12.9558   20.3171 N   0  0  0  0  0  0
  -25.9338  -11.6663   20.5723 N   0  0  0  0  0  0
  -22.0330  -12.8245   22.0445 N   0  0  0  0  0  0
  -25.4035  -15.2025   20.3996 N   0  0  0  0  0  0
  -31.6458  -15.1789   20.0767 O   0  0  0  0  0  0
  -21.6639   -6.8865   21.4239 O   0  0  0  0  0  0
  -22.3414  -14.5475   20.6699 O   0  0  0  0  0  0
  -24.6611  -31.8303   23.1789 C   0  0  0  0  0  0
  -25.9329  -32.4600   23.8225 C   0  0  1  0  0  0
  -27.1880  -27.0016   20.1490 C   0  0  0  0  0  0
  -25.6053  -33.8416   24.2142 N   0  0  0  0  0  0
  -23.4628  -30.4503   21.5328 C   0  0  2  0  0  0
  -24.8983  -28.8398   20.1258 C   0  0  0  0  0  0
  -22.7628  -29.4499   22.4867 C   0  0  0  0  0  0
  -18.0320  -28.1416   22.8465 C   0  0  0  0  0  0
  -24.1463  -36.7121   23.2650 C   0  0  0  0  0  0
  -26.0330  -30.6549   21.3958 C   0  0  0  0  0  0
  -26.0874  -29.2545   20.7362 C   0  0  0  0  0  0
  -27.2369  -28.3596   20.7126 C   0  0  0  0  0  0
  -25.9599  -26.7007   19.5263 C   0  0  0  0  0  0
  -24.8528  -27.5805   19.5083 C   0  0  0  0  0  0
  -23.6914  -29.7690   20.1574 C   0  0  0  0  0  0
  -25.4108  -36.2939   24.0336 C   0  0  1  0  0  0
  -20.5935  -28.3744   23.1227 C   0  0  2  0  0  0
  -20.6798  -26.9437   22.5417 C   0  0  0  0  0  0
  -19.5772  -26.6386   21.5228 C   0  0  0  0  0  0
  -18.1955  -26.7940   22.1617 C   0  0  0  0  0  0
  -19.1575  -28.8890   23.2830 C   0  0  0  0  0  0
  -18.9492  -30.1485   23.8871 C   0  0  0  0  0  0
  -17.6488  -30.6612   24.0551 C   0  0  0  0  0  0
  -25.9110  -34.9354   23.5032 C   0  0  0  0  0  0
  -16.5379  -29.9103   23.6352 C   0  0  0  0  0  0
  -16.7300  -28.6513   23.0381 C   0  0  0  0  0  0
  -26.4607  -31.6530   25.0727 C   0  0  0  0  0  0
  -25.3769  -31.3752   26.1397 C   0  0  0  0  0  0
  -27.0491  -30.2899   24.6424 C   0  0  0  0  0  0
  -27.6118  -32.4331   25.7535 C   0  0  0  0  0  0
  -27.5546  -37.1704   24.8493 C   0  0  0  0  0  0
  -21.4313  -29.3048   22.3585 N   0  0  0  0  0  0
  -26.4230  -37.3698   23.9475 N   0  0  0  0  0  0
  -24.7416  -31.0054   22.0879 N   0  0  0  0  0  0
  -23.4243  -28.8061   23.3043 O   0  0  0  0  0  0
  -28.2488  -25.9976   20.0329 O   0  0  0  0  0  0
  -26.5686  -34.8889   22.4612 O   0  0  0  0  0  0
  -23.5715  -32.1257   23.6963 O   0  0  0  0  0  0
  -31.0209  -22.8975   19.1615 C   0  0  0  0  0  0
  -32.6815  -21.4911   20.2578 C   0  0  0  0  0  0
  -30.4730  -21.8119   19.8117 C   0  0  0  0  0  0
  -29.8930  -16.8765   22.1963 C   0  0  0  0  0  0
  -28.7486  -21.0797   18.2866 C   0  0  0  0  0  0
  -25.1995  -22.9378   20.6917 C   0  0  0  0  0  0
  -29.6927  -18.2120   19.9737 C   0  0  0  0  0  0
  -28.3615  -24.4900   20.5902 C   0  0  0  0  0  0
  -29.6206  -16.6127   20.7052 C   0  0  1  0  0  0
  -28.8893  -19.7237   20.4434 C   0  0  2  0  0  0
  -28.0179  -22.8113   20.1499 C   0  0  1  0  0  0
  -29.0196  -21.3755   19.7874 C   0  0  2  0  0  0
  -31.4441  -21.0281   20.4467 N   0  0  0  0  0  0
  -27.4546  -19.4156   20.5764 N   0  3  0  0  0  0
  -32.7550  -22.9670   19.3158 S   0  0  0  0  0  0
  -26.7495  -22.2586   21.3561 S   0  0  0  0  0  0
  -31.4696  -12.9123   19.1778 H   0  0  0  0  0  0
  -30.5026  -11.7743   20.0667 H   0  0  0  0  0  0
  -29.8776  -11.7478   17.6315 H   0  0  0  0  0  0
  -29.5979  -13.4686   17.6577 H   0  0  0  0  0  0
  -27.9807  -11.2953   19.0117 H   0  0  0  0  0  0
  -27.4165  -12.4520   17.8200 H   0  0  0  0  0  0
  -27.5672  -14.2654   19.3826 H   0  0  0  0  0  0
  -28.7864  -12.3720   21.4326 H   0  0  0  0  0  0
  -28.3223  -14.0387   21.7360 H   0  0  0  0  0  0
  -25.2747   -9.5706   22.4761 H   0  0  0  0  0  0
  -24.0009   -7.4639   22.7491 H   0  0  0  0  0  0
  -21.0837   -8.8860   19.8928 H   0  0  0  0  0  0
  -22.3785  -10.9698   19.6162 H   0  0  0  0  0  0
  -21.2048   -7.6132   23.9749 H   0  0  0  0  0  0
  -21.1479   -6.0471   25.9093 H   0  0  0  0  0  0
  -22.0572   -2.7577   23.2876 H   0  0  0  0  0  0
  -22.3892  -11.9968   22.4994 H   0  0  0  0  0  0
  -21.0926  -13.1336   22.2516 H   0  0  0  0  0  0
  -24.6203  -15.8466   20.4543 H   0  0  0  0  0  0
  -26.2291  -15.6101   19.9828 H   0  0  0  0  0  0
  -26.7381  -32.5070   23.0935 H   0  0  0  0  0  0
  -25.0224  -33.9553   25.0298 H   0  0  0  0  0  0
  -22.7699  -31.2802   21.3723 H   0  0  0  0  0  0
  -23.3808  -35.9365   23.3276 H   0  0  0  0  0  0
  -24.3513  -36.8784   22.2064 H   0  0  0  0  0  0
  -23.7143  -37.6275   23.6698 H   0  0  0  0  0  0
  -26.2224  -31.4023   20.6227 H   0  0  0  0  0  0
  -26.8936  -30.6865   22.0519 H   0  0  0  0  0  0
  -28.1551  -28.6939   21.1748 H   0  0  0  0  0  0
  -25.8353  -25.7418   19.0410 H   0  0  0  0  0  0
  -23.9444  -27.2622   19.0165 H   0  0  0  0  0  0
  -23.8501  -30.5429   19.4043 H   0  0  0  0  0  0
  -22.7954  -29.2320   19.8373 H   0  0  0  0  0  0
  -25.1296  -36.1722   25.0827 H   0  0  0  0  0  0
  -20.9989  -28.3330   24.1363 H   0  0  0  0  0  0
  -20.5698  -26.2355   23.3647 H   0  0  0  0  0  0
  -21.6660  -26.7452   22.1204 H   0  0  0  0  0  0
  -19.6949  -25.6296   21.1272 H   0  0  0  0  0  0
  -19.6722  -27.3179   20.6749 H   0  0  0  0  0  0
  -17.4230  -26.6711   21.4023 H   0  0  0  0  0  0
  -18.0338  -26.0109   22.9028 H   0  0  0  0  0  0
  -19.7980  -30.7294   24.2247 H   0  0  0  0  0  0
  -17.5065  -31.6293   24.5146 H   0  0  0  0  0  0
  -15.5383  -30.3006   23.7709 H   0  0  0  0  0  0
  -15.8693  -28.0826   22.7155 H   0  0  0  0  0  0
  -24.6002  -30.7025   25.7741 H   0  0  0  0  0  0
  -24.8895  -32.2914   26.4720 H   0  0  0  0  0  0
  -25.8055  -30.9024   27.0242 H   0  0  0  0  0  0
  -26.3119  -29.6563   24.1457 H   0  0  0  0  0  0
  -27.4074  -29.7272   25.5065 H   0  0  0  0  0  0
  -27.9056  -30.4121   23.9787 H   0  0  0  0  0  0
  -27.2734  -33.3713   26.1966 H   0  0  0  0  0  0
  -28.4027  -32.6764   25.0419 H   0  0  0  0  0  0
  -28.0665  -31.8525   26.5580 H   0  0  0  0  0  0
  -28.2562  -38.0004   24.7573 H   0  0  0  0  0  0
  -28.1040  -36.2546   24.6269 H   0  0  0  0  0  0
  -27.2263  -37.1293   25.8892 H   0  0  0  0  0  0
  -20.9596  -29.8662   21.6644 H   0  0  0  0  0  0
  -26.0067  -38.2729   24.1564 H   0  0  0  0  0  0
  -30.5117  -23.6443   18.5633 H   0  0  0  0  0  0
  -33.5417  -20.9734   20.6590 H   0  0  0  0  0  0
  -29.3207  -17.7281   22.5592 H   0  0  0  0  0  0
  -30.9485  -17.1035   22.3597 H   0  0  0  0  0  0
  -29.6213  -16.0276   22.8240 H   0  0  0  0  0  0
  -28.8951  -21.9508   17.6473 H   0  0  0  0  0  0
  -27.7344  -20.7280   18.1123 H   0  0  0  0  0  0
  -29.4159  -20.3091   17.8910 H   0  0  0  0  0  0
  -24.9206  -22.4421   19.7616 H   0  0  0  0  0  0
  -25.2868  -24.0054   20.5014 H   0  0  0  0  0  0
  -24.3964  -22.7928   21.4146 H   0  0  0  0  0  0
  -29.4475  -18.0602   18.9211 H   0  0  0  0  0  0
  -30.7567  -18.4427   19.9404 H   0  0  0  0  0  0
  -29.4129  -24.4564   20.8725 H   0  0  0  0  0  0
  -27.8734  -24.6126   21.5586 H   0  0  0  0  0  0
  -28.5759  -16.3259   20.6020 H   0  0  0  0  0  0
  -29.2099  -19.8596   21.4784 H   0  0  0  0  0  0
  -27.4390  -22.9382   19.2361 H   0  0  0  0  0  0
  -27.3035  -18.6365   21.1922 H   0  0  0  0  0  0
  -27.0159  -19.2394   19.6916 H   0  0  0  0  0  0
  -27.0060  -20.2248   20.9879 H   0  0  0  0  0  0
  1 25  1  0  0  0
  1 30  2  0  0  0
  1 79  1  0  0  0
  2  3  1  0  0  0
  2 25  1  0  0  0
  2 87  1  0  0  0
  2 88  1  0  0  0
  3  4  1  0  0  0
  3 89  1  0  0  0
  3 90  1  0  0  0
  4  5  1  0  0  0
  4 91  1  0  0  0
  4 92  1  0  0  0
  5  6  1  0  0  0
  5 26  1  0  0  0
  5 93  1  0  0  0
  6 25  1  0  0  0
  6 94  1  0  0  0
  6 95  1  0  0  0
  7  8  2  0  0  0
  7 26  1  0  0  0
  7 29  1  0  0  0
  8  9  1  0  0  0
  8 22  1  0  0  0
  9 10  1  0  0  0
  9 27  2  0  0  0
 10 11  2  0  0  0
 10 15  1  0  0  0
 11 12  1  0  0  0
 11 96  1  0  0  0
 12 13  2  0  0  0
 12 97  1  0  0  0
 13 14  1  0  0  0
 13 31  1  0  0  0
 14 15  2  0  0  0
 14 98  1  0  0  0
 15 99  1  0  0  0
 16 17  2  0  0  0
 16 21  1  0  0  0
 16 31  1  0  0  0
 17 18  1  0  0  0
 17100  1  0  0  0
 18 19  2  0  0  0
 18101  1  0  0  0
 19 20  1  0  0  0
 19 24  1  0  0  0
 20 21  2  0  0  0
 20102  1  0  0  0
 21 23  1  0  0  0
 22 28  1  0  0  0
 22 32  2  0  0  0
 26 27  1  0  0  0
 28103  1  0  0  0
 28104  1  0  0  0
 29105  1  0  0  0
 29106  1  0  0  0
 33 34  1  0  0  0
 33 66  1  0  0  0
 33 70  2  0  0  0
 34 36  1  0  0  0
 34 59  1  0  0  0
 34107  1  0  0  0
 35 44  2  0  0  0
 35 45  1  0  0  0
 35 68  1  0  0  0
 36 56  1  0  0  0
 36108  1  0  0  0
 37 39  1  0  0  0
 37 47  1  0  0  0
 37 66  1  0  0  0
 37109  1  0  0  0
 38 43  2  0  0  0
 38 46  1  0  0  0
 38 47  1  0  0  0
 39 64  1  0  0  0
 39 67  2  0  0  0
 40 52  1  0  0  0
 40 53  2  0  0  0
 40 58  1  0  0  0
 41110  1  0  0  0
 41111  1  0  0  0
 41112  1  0  0  0
 41 48  1  0  0  0
 42 43  1  0  0  0
 42 66  1  0  0  0
 42113  1  0  0  0
 42114  1  0  0  0
 43 44  1  0  0  0
 44115  1  0  0  0
 45 46  2  0  0  0
 45116  1  0  0  0
 46117  1  0  0  0
 47118  1  0  0  0
 47119  1  0  0  0
 48 56  1  0  0  0
 48 65  1  0  0  0
 48120  1  0  0  0
 49 50  1  0  0  0
 49 53  1  0  0  0
 49 64  1  0  0  0
 49121  1  0  0  0
 50 51  1  0  0  0
 50122  1  0  0  0
 50123  1  0  0  0
 51 52  1  0  0  0
 51124  1  0  0  0
 51125  1  0  0  0
 52126  1  0  0  0
 52127  1  0  0  0
 53 54  1  0  0  0
 54 55  2  0  0  0
 54128  1  0  0  0
 55 57  1  0  0  0
 55129  1  0  0  0
 56 69  2  0  0  0
 57 58  2  0  0  0
 57130  1  0  0  0
 58131  1  0  0  0
 59 60  1  0  0  0
 59 61  1  0  0  0
 59 62  1  0  0  0
 60132  1  0  0  0
 60133  1  0  0  0
 60134  1  0  0  0
 61135  1  0  0  0
 61136  1  0  0  0
 61137  1  0  0  0
 62138  1  0  0  0
 62139  1  0  0  0
 62140  1  0  0  0
 63 65  1  0  0  0
 63141  1  0  0  0
 63142  1  0  0  0
 63143  1  0  0  0
 64144  1  0  0  0
 65145  1  0  0  0
 68 78  1  0  0  0
 71 73  2  0  0  0
 71 85  1  0  0  0
 71146  1  0  0  0
 72 83  2  0  0  0
 72 85  1  0  0  0
 72147  1  0  0  0
 73 82  1  0  0  0
 73 83  1  0  0  0
 74148  1  0  0  0
 74149  1  0  0  0
 74150  1  0  0  0
 74 79  1  0  0  0
 75151  1  0  0  0
 75152  1  0  0  0
 75153  1  0  0  0
 75 82  1  0  0  0
 76 86  1  0  0  0
 76154  1  0  0  0
 76155  1  0  0  0
 76156  1  0  0  0
 77 79  1  0  0  0
 77 80  1  0  0  0
 77157  1  0  0  0
 77158  1  0  0  0
 78159  1  0  0  0
 78160  1  0  0  0
 78 81  1  0  0  0
 79161  1  0  0  0
 80 82  1  0  0  0
 80 84  1  0  0  0
 80162  1  0  0  0
 81 82  1  0  0  0
 81 86  1  0  0  0
 81163  1  0  0  0
 84164  1  0  0  0
 84165  1  0  0  0
 84166  1  0  0  0
M  CHG  1  84   1
M  ISO  4   1 100  68 101  78 101  79 100
M  END
> <chiral flag>
0

> <version>
0

> <s_m_source_file>
/data/baiqing/PycharmProjects/Reinvent-master-3.2/result/LINK_invent/BTK/process_docking_weight1_custom_product_contain_oxygen_bond_distance_aromatic_linkinvent_7_9_3/rearranged_h_0189.sdf

> <i_m_source_file_index>
4

> <r_mmod_Potential_Energy-OPLS-2005>
946.76904296875

> <r_mmod_Stretch_Energy-OPLS-2005>
537.794006347656

> <r_mmod_Bend_Energy-OPLS-2005>
469.586090087891

> <r_mmod_Torsional_Energy-OPLS-2005>
270.492797851562

> <r_mmod_Improper_Torsional_Energy-OPLS-2005>
2.95835185050964

> <r_mmod_Van_der_Waal_Energy-OPLS-2005>
105.02352142334

> <r_mmod_Electrostatic_Energy-OPLS-2005>
-286.360931396484

> <r_mmod_Solvation_Energy-OPLS-2005>
-479.016174316406

> <b_mmod_Minimization_Converged-OPLS-2005>
0

> <r_mmod_RMS_Derivative-OPLS-2005>
6.44735431671143

$$$$
4
                    3D
 Structure written by MMmdl.
156164  0  0  1  0            999 V2000
  -30.6099  -14.7142   20.4180 C   0  0  0  0  0  0
  -30.4250  -12.4181   19.4721 C   0  0  0  0  0  0
  -29.5021  -12.4827   18.2362 C   0  0  0  0  0  0
  -28.0242  -12.3406   18.6524 C   0  0  0  0  0  0
  -27.6458  -13.2288   19.8684 C   0  0  2  0  0  0
  -28.6956  -13.1487   20.9988 C   0  0  0  0  0  0
  -25.2529  -13.8172   20.5806 C   0  0  0  0  0  0
  -24.1795  -13.0404   20.9217 C   0  0  0  0  0  0
  -24.6385  -11.6894   20.8759 C   0  0  0  0  0  0
  -23.9051  -10.4279   21.0399 C   0  0  0  0  0  0
  -24.3593   -9.4211   21.9190 C   0  0  0  0  0  0
  -23.6284   -8.2242   22.0752 C   0  0  0  0  0  0
  -22.4280   -8.0270   21.3535 C   0  0  0  0  0  0
  -21.9908   -9.0239   20.4639 C   0  0  0  0  0  0
  -22.7213  -10.2125   20.3056 C   0  0  0  0  0  0
  -21.6869   -6.0724   22.5272 C   0  0  0  0  0  0
  -21.4018   -6.5638   23.8201 C   0  0  0  0  0  0
  -21.3661   -5.6794   24.9166 C   0  0  0  0  0  0
  -21.6055   -4.3054   24.7229 C   0  0  0  0  0  0
  -21.8819   -3.8143   23.4353 C   0  0  0  0  0  0
  -21.9179   -4.6949   22.3399 C   0  0  0  0  0  0
  -22.7830  -13.5202   21.1867 C   0  0  0  0  0  0
  -22.1652   -4.2137   21.0977 F   0  0  0  0  0  0
  -21.5630   -3.4535   25.7739 F   0  0  0  0  0  0
  -29.9934  -13.4857   20.4047 N   0  0  0  0  0  0
  -26.2971  -12.9389   20.3451 N   0  0  0  0  0  0
  -25.9335  -11.6525   20.5869 N   0  0  0  0  0  0
  -22.0479  -12.8187   22.0424 N   0  0  0  0  0  0
  -25.4227  -15.1882   20.4319 N   0  0  0  0  0  0
  -31.7960  -14.8104   20.0907 O   0  0  0  0  0  0
  -21.6660   -6.8854   21.4229 O   0  0  0  0  0  0
  -22.3528  -14.5517   20.6733 O   0  0  0  0  0  0
  -24.6351  -31.8516   23.1995 C   0  0  0  0  0  0
  -25.9157  -32.4747   23.8343 C   0  0  1  0  0  0
  -27.2124  -27.2444   20.1027 C   0  0  0  0  0  0
  -25.5938  -33.8564   24.2249 N   0  0  0  0  0  0
  -23.4347  -30.4773   21.5439 C   0  0  2  0  0  0
  -24.8750  -28.9256   20.1119 C   0  0  0  0  0  0
  -22.7535  -29.4584   22.4908 C   0  0  0  0  0  0
  -18.0300  -28.1400   22.8499 C   0  0  0  0  0  0
  -24.1489  -36.7271   23.2645 C   0  0  0  0  0  0
  -25.9827  -30.7566   21.3838 C   0  0  0  0  0  0
  -26.0496  -29.3795   20.7217 C   0  0  0  0  0  0
  -27.2192  -28.5471   20.7132 C   0  0  0  0  0  0
  -26.0138  -26.8769   19.4474 C   0  0  0  0  0  0
  -24.8611  -27.6805   19.4726 C   0  0  0  0  0  0
  -23.6510  -29.8165   20.1596 C   0  0  0  0  0  0
  -25.4124  -36.3068   24.0321 C   0  0  1  0  0  0
  -20.5902  -28.3703   23.1273 C   0  0  2  0  0  0
  -20.6780  -26.9415   22.5410 C   0  0  0  0  0  0
  -19.5743  -26.6383   21.5235 C   0  0  0  0  0  0
  -18.1930  -26.7937   22.1644 C   0  0  0  0  0  0
  -19.1551  -28.8876   23.2872 C   0  0  0  0  0  0
  -18.9470  -30.1476   23.8880 C   0  0  0  0  0  0
  -17.6457  -30.6585   24.0575 C   0  0  0  0  0  0
  -25.9063  -34.9443   23.5096 C   0  0  0  0  0  0
  -16.5357  -29.9087   23.6340 C   0  0  0  0  0  0
  -16.7285  -28.6507   23.0351 C   0  0  0  0  0  0
  -26.4528  -31.6602   25.0756 C   0  0  0  0  0  0
  -25.3751  -31.3739   26.1473 C   0  0  0  0  0  0
  -27.0398  -30.3020   24.6280 C   0  0  0  0  0  0
  -27.6077  -32.4374   25.7509 C   0  0  0  0  0  0
  -27.5570  -37.1784   24.8460 C   0  0  0  0  0  0
  -21.4228  -29.3050   22.3657 N   0  0  0  0  0  0
  -26.4289  -37.3773   23.9411 N   0  0  0  0  0  0
  -24.7045  -31.0456   22.0991 N   0  0  0  0  0  0
  -23.4213  -28.8110   23.3012 O   0  0  0  0  0  0
  -28.3040  -26.3379   20.1789 O   0  0  0  0  0  0
  -26.5627  -34.8929   22.4659 O   0  0  0  0  0  0
  -23.5484  -32.1367   23.7251 O   0  0  0  0  0  0
  -28.2219  -18.7189   21.3316 C   0  0  0  0  0  0
  -29.3233  -18.5634   20.4992 C   0  0  0  0  0  0
  -28.9378  -20.9350   20.3478 C   0  0  0  0  0  0
  -27.4454  -17.7295   22.0955 C   0  0  0  0  0  0
  -26.1950  -18.1551   22.8622 C   0  0  0  0  0  0
  -28.7653  -24.9752   18.2460 C   0  0  0  0  0  0
  -30.1849  -17.2745   20.1411 C   0  0  0  0  0  0
  -28.9106  -23.7020   20.5203 C   0  0  0  0  0  0
  -28.2216  -24.9111   19.6819 C   0  0  1  0  0  0
  -29.6608  -19.8529   19.9293 N   0  0  0  0  0  0
  -29.0597  -22.3110   19.9221 N   0  0  0  0  0  0
  -29.8315  -15.8475   20.5474 N   0  0  0  0  0  0
  -27.7392  -16.5337   22.1159 O   0  0  0  0  0  0
  -27.7173  -20.4157   21.4930 S   0  0  0  0  0  0
  -31.4701  -12.5237   19.1726 H   0  0  0  0  0  0
  -30.3533  -11.4396   19.9471 H   0  0  0  0  0  0
  -29.7616  -11.6936   17.5267 H   0  0  0  0  0  0
  -29.6528  -13.4269   17.7152 H   0  0  0  0  0  0
  -27.8486  -11.2890   18.8891 H   0  0  0  0  0  0
  -27.3718  -12.5671   17.8100 H   0  0  0  0  0  0
  -27.6451  -14.2580   19.5054 H   0  0  0  0  0  0
  -28.7243  -12.1533   21.4456 H   0  0  0  0  0  0
  -28.4513  -13.8346   21.8122 H   0  0  0  0  0  0
  -25.2711   -9.5707   22.4798 H   0  0  0  0  0  0
  -23.9989   -7.4639   22.7480 H   0  0  0  0  0  0
  -21.0834   -8.8728   19.8969 H   0  0  0  0  0  0
  -22.3633  -10.9657   19.6182 H   0  0  0  0  0  0
  -21.2055   -7.6148   23.9684 H   0  0  0  0  0  0
  -21.1481   -6.0542   25.9058 H   0  0  0  0  0  0
  -22.0615   -2.7611   23.2862 H   0  0  0  0  0  0
  -22.4089  -11.9823   22.4756 H   0  0  0  0  0  0
  -21.1114  -13.1230   22.2659 H   0  0  0  0  0  0
  -24.6819  -15.8447   20.6447 H   0  0  0  0  0  0
  -26.3303  -15.6231   20.3325 H   0  0  0  0  0  0
  -26.7216  -32.5375   23.1068 H   0  0  0  0  0  0
  -25.0116  -33.9712   25.0413 H   0  0  0  0  0  0
  -22.7343  -31.3008   21.3970 H   0  0  0  0  0  0
  -23.3762  -35.9586   23.3321 H   0  0  0  0  0  0
  -24.3558  -36.8899   22.2052 H   0  0  0  0  0  0
  -23.7242  -37.6476   23.6673 H   0  0  0  0  0  0
  -26.1296  -31.5212   20.6172 H   0  0  0  0  0  0
  -26.8543  -30.8000   22.0247 H   0  0  0  0  0  0
  -28.1180  -28.8833   21.2115 H   0  0  0  0  0  0
  -25.9090  -25.9481   18.9120 H   0  0  0  0  0  0
  -23.9586  -27.3305   18.9918 H   0  0  0  0  0  0
  -23.7873  -30.5921   19.4061 H   0  0  0  0  0  0
  -22.7677  -29.2553   19.8493 H   0  0  0  0  0  0
  -25.1309  -36.1906   25.0808 H   0  0  0  0  0  0
  -21.0009  -28.3278   24.1391 H   0  0  0  0  0  0
  -20.5728  -26.2312   23.3620 H   0  0  0  0  0  0
  -21.6644  -26.7455   22.1179 H   0  0  0  0  0  0
  -19.6914  -25.6302   21.1249 H   0  0  0  0  0  0
  -19.6676  -27.3208   20.6786 H   0  0  0  0  0  0
  -17.4209  -26.6725   21.4028 H   0  0  0  0  0  0
  -18.0294  -26.0064   22.9029 H   0  0  0  0  0  0
  -19.7934  -30.7314   24.2223 H   0  0  0  0  0  0
  -17.5007  -31.6261   24.5188 H   0  0  0  0  0  0
  -15.5349  -30.2981   23.7668 H   0  0  0  0  0  0
  -15.8690  -28.0829   22.7059 H   0  0  0  0  0  0
  -24.5900  -30.7128   25.7782 H   0  0  0  0  0  0
  -24.8982  -32.2909   26.4938 H   0  0  0  0  0  0
  -25.8062  -30.8867   27.0230 H   0  0  0  0  0  0
  -26.2997  -29.6736   24.1316 H   0  0  0  0  0  0
  -27.4081  -29.7323   25.4824 H   0  0  0  0  0  0
  -27.8881  -30.4301   23.9560 H   0  0  0  0  0  0
  -27.2664  -33.3668   26.2081 H   0  0  0  0  0  0
  -28.3858  -32.6962   25.0315 H   0  0  0  0  0  0
  -28.0790  -31.8535   26.5423 H   0  0  0  0  0  0
  -28.2594  -38.0076   24.7516 H   0  0  0  0  0  0
  -28.1067  -36.2614   24.6279 H   0  0  0  0  0  0
  -27.2287  -37.1424   25.8863 H   0  0  0  0  0  0
  -20.9431  -29.8771   21.6844 H   0  0  0  0  0  0
  -26.0163  -38.2843   24.1441 H   0  0  0  0  0  0
  -25.3528  -18.2074   22.1733 H   0  0  0  0  0  0
  -26.3195  -19.1215   23.3495 H   0  0  0  0  0  0
  -25.9600  -17.4210   23.6348 H   0  0  0  0  0  0
  -28.2438  -25.7310   17.6592 H   0  0  0  0  0  0
  -28.6501  -24.0250   17.7274 H   0  0  0  0  0  0
  -29.8241  -25.2346   18.2456 H   0  0  0  0  0  0
  -31.1970  -17.4482   20.5071 H   0  0  0  0  0  0
  -30.2984  -17.2440   19.0559 H   0  0  0  0  0  0
  -28.3865  -23.5970   21.4716 H   0  0  0  0  0  0
  -29.9203  -24.0215   20.7826 H   0  0  0  0  0  0
  -27.1861  -24.5869   19.6385 H   0  0  0  0  0  0
  -29.5762  -22.3561   19.0495 H   0  0  0  0  0  0
  -28.8911  -15.7181   20.9019 H   0  0  0  0  0  0
  1 25  1  0  0  0
  1 30  2  0  0  0
  1 82  1  0  0  0
  2  3  1  0  0  0
  2 25  1  0  0  0
  2 85  1  0  0  0
  2 86  1  0  0  0
  3  4  1  0  0  0
  3 87  1  0  0  0
  3 88  1  0  0  0
  4  5  1  0  0  0
  4 89  1  0  0  0
  4 90  1  0  0  0
  5  6  1  0  0  0
  5 26  1  0  0  0
  5 91  1  0  0  0
  6 25  1  0  0  0
  6 92  1  0  0  0
  6 93  1  0  0  0
  7  8  2  0  0  0
  7 26  1  0  0  0
  7 29  1  0  0  0
  8  9  1  0  0  0
  8 22  1  0  0  0
  9 10  1  0  0  0
  9 27  2  0  0  0
 10 11  2  0  0  0
 10 15  1  0  0  0
 11 12  1  0  0  0
 11 94  1  0  0  0
 12 13  2  0  0  0
 12 95  1  0  0  0
 13 14  1  0  0  0
 13 31  1  0  0  0
 14 15  2  0  0  0
 14 96  1  0  0  0
 15 97  1  0  0  0
 16 17  2  0  0  0
 16 21  1  0  0  0
 16 31  1  0  0  0
 17 18  1  0  0  0
 17 98  1  0  0  0
 18 19  2  0  0  0
 18 99  1  0  0  0
 19 20  1  0  0  0
 19 24  1  0  0  0
 20 21  2  0  0  0
 20100  1  0  0  0
 21 23  1  0  0  0
 22 28  1  0  0  0
 22 32  2  0  0  0
 26 27  1  0  0  0
 28101  1  0  0  0
 28102  1  0  0  0
 29103  1  0  0  0
 29104  1  0  0  0
 33 34  1  0  0  0
 33 66  1  0  0  0
 33 70  2  0  0  0
 34 36  1  0  0  0
 34 59  1  0  0  0
 34105  1  0  0  0
 35 44  2  0  0  0
 35 45  1  0  0  0
 35 68  1  0  0  0
 36 56  1  0  0  0
 36106  1  0  0  0
 37 39  1  0  0  0
 37 47  1  0  0  0
 37 66  1  0  0  0
 37107  1  0  0  0
 38 43  2  0  0  0
 38 46  1  0  0  0
 38 47  1  0  0  0
 39 64  1  0  0  0
 39 67  2  0  0  0
 40 52  1  0  0  0
 40 53  2  0  0  0
 40 58  1  0  0  0
 41108  1  0  0  0
 41109  1  0  0  0
 41110  1  0  0  0
 41 48  1  0  0  0
 42 43  1  0  0  0
 42 66  1  0  0  0
 42111  1  0  0  0
 42112  1  0  0  0
 43 44  1  0  0  0
 44113  1  0  0  0
 45 46  2  0  0  0
 45114  1  0  0  0
 46115  1  0  0  0
 47116  1  0  0  0
 47117  1  0  0  0
 48 56  1  0  0  0
 48 65  1  0  0  0
 48118  1  0  0  0
 49 50  1  0  0  0
 49 53  1  0  0  0
 49 64  1  0  0  0
 49119  1  0  0  0
 50 51  1  0  0  0
 50120  1  0  0  0
 50121  1  0  0  0
 51 52  1  0  0  0
 51122  1  0  0  0
 51123  1  0  0  0
 52124  1  0  0  0
 52125  1  0  0  0
 53 54  1  0  0  0
 54 55  2  0  0  0
 54126  1  0  0  0
 55 57  1  0  0  0
 55127  1  0  0  0
 56 69  2  0  0  0
 57 58  2  0  0  0
 57128  1  0  0  0
 58129  1  0  0  0
 59 60  1  0  0  0
 59 61  1  0  0  0
 59 62  1  0  0  0
 60130  1  0  0  0
 60131  1  0  0  0
 60132  1  0  0  0
 61133  1  0  0  0
 61134  1  0  0  0
 61135  1  0  0  0
 62136  1  0  0  0
 62137  1  0  0  0
 62138  1  0  0  0
 63 65  1  0  0  0
 63139  1  0  0  0
 63140  1  0  0  0
 63141  1  0  0  0
 64142  1  0  0  0
 65143  1  0  0  0
 68 79  1  0  0  0
 71 72  2  0  0  0
 71 74  1  0  0  0
 71 84  1  0  0  0
 72 77  1  0  0  0
 72 80  1  0  0  0
 73 80  2  0  0  0
 73 81  1  0  0  0
 73 84  1  0  0  0
 74 75  1  0  0  0
 74 83  2  0  0  0
 75144  1  0  0  0
 75145  1  0  0  0
 75146  1  0  0  0
 76147  1  0  0  0
 76148  1  0  0  0
 76149  1  0  0  0
 76 79  1  0  0  0
 77 82  1  0  0  0
 77150  1  0  0  0
 77151  1  0  0  0
 78 79  1  0  0  0
 78 81  1  0  0  0
 78152  1  0  0  0
 78153  1  0  0  0
 79154  1  0  0  0
 81155  1  0  0  0
 82156  1  0  0  0
M  ISO  4   1 100  68 101  79 101  82 100
M  END
> <chiral flag>
0

> <version>
0

> <s_m_source_file>
/data/baiqing/PycharmProjects/Reinvent-master-3.2/result/LINK_invent/BTK/process_docking_weight1_custom_product_contain_oxygen_bond_distance_aromatic_linkinvent_7_9_3/rearranged_h_0189.sdf

> <i_m_source_file_index>
5

> <r_mmod_Potential_Energy-OPLS-2005>
-107.01619720459

> <r_mmod_Stretch_Energy-OPLS-2005>
118.265998840332

> <r_mmod_Bend_Energy-OPLS-2005>
166.979919433594

> <r_mmod_Torsional_Energy-OPLS-2005>
209.697402954102

> <r_mmod_Improper_Torsional_Energy-OPLS-2005>
7.30280494689941

> <r_mmod_Van_der_Waal_Energy-OPLS-2005>
125.211311340332

> <r_mmod_Electrostatic_Energy-OPLS-2005>
-603.421508789062

> <r_mmod_Solvation_Energy-OPLS-2005>
-215.928970336914

> <b_mmod_Minimization_Converged-OPLS-2005>
0

> <r_mmod_RMS_Derivative-OPLS-2005>
3.80609440803528

$$$$
5
                    3D
 Structure written by MMmdl.
157165  0  0  1  0            999 V2000
  -30.6581  -14.7493   20.4291 C   0  0  0  0  0  0
  -30.4307  -12.4499   19.4710 C   0  0  0  0  0  0
  -29.5126  -12.4862   18.2321 C   0  0  0  0  0  0
  -28.0395  -12.3158   18.6520 C   0  0  0  0  0  0
  -27.6443  -13.2353   19.8388 C   0  0  2  0  0  0
  -28.6925  -13.2058   20.9733 C   0  0  0  0  0  0
  -25.2536  -13.8208   20.5663 C   0  0  0  0  0  0
  -24.1830  -13.0461   20.9223 C   0  0  0  0  0  0
  -24.6418  -11.6942   20.8742 C   0  0  0  0  0  0
  -23.9073  -10.4309   21.0382 C   0  0  0  0  0  0
  -24.3622   -9.4217   21.9158 C   0  0  0  0  0  0
  -23.6302   -8.2253   22.0737 C   0  0  0  0  0  0
  -22.4293   -8.0277   21.3526 C   0  0  0  0  0  0
  -21.9912   -9.0253   20.4638 C   0  0  0  0  0  0
  -22.7234  -10.2141   20.3036 C   0  0  0  0  0  0
  -21.6859   -6.0725   22.5271 C   0  0  0  0  0  0
  -21.4018   -6.5617   23.8206 C   0  0  0  0  0  0
  -21.3655   -5.6780   24.9158 C   0  0  0  0  0  0
  -21.6055   -4.3042   24.7213 C   0  0  0  0  0  0
  -21.8816   -3.8130   23.4327 C   0  0  0  0  0  0
  -21.9200   -4.6947   22.3396 C   0  0  0  0  0  0
  -22.7832  -13.5227   21.1870 C   0  0  0  0  0  0
  -22.1657   -4.2122   21.0968 F   0  0  0  0  0  0
  -21.5635   -3.4536   25.7732 F   0  0  0  0  0  0
  -29.9948  -13.5391   20.3829 N   0  0  0  0  0  0
  -26.2965  -12.9431   20.3234 N   0  0  0  0  0  0
  -25.9351  -11.6575   20.5734 N   0  0  0  0  0  0
  -22.0450  -12.8245   22.0435 N   0  0  0  0  0  0
  -25.4255  -15.1918   20.4027 N   0  0  0  0  0  0
  -31.8569  -14.7546   20.1413 O   0  0  0  0  0  0
  -21.6646   -6.8871   21.4243 O   0  0  0  0  0  0
  -22.3525  -14.5523   20.6689 O   0  0  0  0  0  0
  -24.6276  -31.8545   23.1968 C   0  0  0  0  0  0
  -25.9138  -32.4729   23.8274 C   0  0  1  0  0  0
  -27.2126  -27.2596   20.1368 C   0  0  0  0  0  0
  -25.5965  -33.8546   24.2196 N   0  0  0  0  0  0
  -23.4204  -30.4767   21.5431 C   0  0  2  0  0  0
  -24.8679  -28.9171   20.1133 C   0  0  0  0  0  0
  -22.7470  -29.4603   22.4966 C   0  0  0  0  0  0
  -18.0264  -28.1370   22.8473 C   0  0  0  0  0  0
  -24.1507  -36.7273   23.2628 C   0  0  0  0  0  0
  -25.9651  -30.7669   21.3772 C   0  0  0  0  0  0
  -26.0391  -29.3887   20.7199 C   0  0  0  0  0  0
  -27.2180  -28.5754   20.7128 C   0  0  0  0  0  0
  -26.0164  -26.8412   19.5212 C   0  0  0  0  0  0
  -24.8620  -27.6528   19.5006 C   0  0  0  0  0  0
  -23.6361  -29.8039   20.1604 C   0  0  0  0  0  0
  -25.4138  -36.3045   24.0293 C   0  0  1  0  0  0
  -20.5864  -28.3676   23.1292 C   0  0  2  0  0  0
  -20.6768  -26.9403   22.5414 C   0  0  0  0  0  0
  -19.5763  -26.6365   21.5207 C   0  0  0  0  0  0
  -18.1938  -26.7907   22.1605 C   0  0  0  0  0  0
  -19.1519  -28.8839   23.2872 C   0  0  0  0  0  0
  -18.9452  -30.1453   23.8871 C   0  0  0  0  0  0
  -17.6464  -30.6584   24.0543 C   0  0  0  0  0  0
  -25.9080  -34.9426   23.5039 C   0  0  0  0  0  0
  -16.5344  -29.9076   23.6337 C   0  0  0  0  0  0
  -16.7268  -28.6487   23.0359 C   0  0  0  0  0  0
  -26.4513  -31.6563   25.0673 C   0  0  0  0  0  0
  -25.3732  -31.3751   26.1396 C   0  0  0  0  0  0
  -27.0350  -30.2955   24.6200 C   0  0  0  0  0  0
  -27.6048  -32.4331   25.7472 C   0  0  0  0  0  0
  -27.5592  -37.1778   24.8450 C   0  0  0  0  0  0
  -21.4190  -29.3027   22.3686 N   0  0  0  0  0  0
  -26.4297  -37.3757   23.9397 N   0  0  0  0  0  0
  -24.6891  -31.0511   22.0944 N   0  0  0  0  0  0
  -23.4192  -28.8169   23.3065 O   0  0  0  0  0  0
  -28.3246  -26.3913   20.0999 O   0  0  0  0  0  0
  -26.5655  -34.8909   22.4611 O   0  0  0  0  0  0
  -23.5454  -32.1417   23.7280 O   0  0  0  0  0  0
  -31.6338  -17.7420   20.1745 C   0  0  0  0  0  0
  -31.0776  -20.1149   20.1169 C   0  0  0  0  0  0
  -32.0265  -19.0844   20.0451 C   0  0  0  0  0  0
  -30.2864  -17.3859   20.4204 C   0  0  0  0  0  0
  -29.7354  -19.7981   20.3514 C   0  0  0  0  0  0
  -29.6619  -23.7920   18.9183 C   0  0  0  0  0  0
  -30.0345  -22.5164   21.8694 C   0  0  0  0  0  0
  -28.2570  -25.0251   20.7264 C   0  0  0  0  0  0
  -28.5611  -23.6058   19.9746 C   0  0  2  0  0  0
  -28.8485  -22.2938   20.9134 C   0  0  1  0  0  0
  -29.3721  -18.4541   20.4957 N   0  0  0  0  0  0
  -29.9320  -15.9361   20.5942 N   0  0  0  0  0  0
  -28.7503  -20.8637   20.3690 N   0  0  0  0  0  0
  -33.3325  -19.3885   19.8472 F   0  0  0  0  0  0
  -31.4729  -12.5495   19.1596 H   0  0  0  0  0  0
  -30.3654  -11.4777   19.9633 H   0  0  0  0  0  0
  -29.7982  -11.6971   17.5334 H   0  0  0  0  0  0
  -29.6496  -13.4286   17.6981 H   0  0  0  0  0  0
  -27.9091  -11.2731   18.9445 H   0  0  0  0  0  0
  -27.3776  -12.4717   17.8000 H   0  0  0  0  0  0
  -27.6321  -14.2486   19.4359 H   0  0  0  0  0  0
  -28.7228  -12.2244   21.4499 H   0  0  0  0  0  0
  -28.4320  -13.9194   21.7560 H   0  0  0  0  0  0
  -25.2756   -9.5712   22.4744 H   0  0  0  0  0  0
  -24.0006   -7.4648   22.7469 H   0  0  0  0  0  0
  -21.0827   -8.8776   19.8970 H   0  0  0  0  0  0
  -22.3662  -10.9681   19.6154 H   0  0  0  0  0  0
  -21.2000   -7.6140   23.9703 H   0  0  0  0  0  0
  -21.1489   -6.0500   25.9068 H   0  0  0  0  0  0
  -22.0608   -2.7600   23.2841 H   0  0  0  0  0  0
  -22.4028  -11.9931   22.4891 H   0  0  0  0  0  0
  -21.1049  -13.1301   22.2537 H   0  0  0  0  0  0
  -24.6667  -15.8566   20.5140 H   0  0  0  0  0  0
  -26.2660  -15.6218   20.0390 H   0  0  0  0  0  0
  -26.7187  -32.5365   23.0995 H   0  0  0  0  0  0
  -25.0075  -33.9681   25.0313 H   0  0  0  0  0  0
  -22.7134  -31.2976   21.3984 H   0  0  0  0  0  0
  -23.3769  -35.9606   23.3275 H   0  0  0  0  0  0
  -24.3580  -36.8935   22.2045 H   0  0  0  0  0  0
  -23.7269  -37.6463   23.6689 H   0  0  0  0  0  0
  -26.1103  -31.5342   20.6159 H   0  0  0  0  0  0
  -26.8376  -30.8047   22.0184 H   0  0  0  0  0  0
  -28.1198  -28.9435   21.1817 H   0  0  0  0  0  0
  -25.9751  -25.8674   19.0533 H   0  0  0  0  0  0
  -23.9649  -27.2885   19.0184 H   0  0  0  0  0  0
  -23.7487  -30.5771   19.3990 H   0  0  0  0  0  0
  -22.7524  -29.2345   19.8625 H   0  0  0  0  0  0
  -25.1326  -36.1851   25.0783 H   0  0  0  0  0  0
  -20.9938  -28.3246   24.1425 H   0  0  0  0  0  0
  -20.5662  -26.2294   23.3615 H   0  0  0  0  0  0
  -21.6645  -26.7449   22.1220 H   0  0  0  0  0  0
  -19.6935  -25.6268   21.1261 H   0  0  0  0  0  0
  -19.6700  -27.3148   20.6716 H   0  0  0  0  0  0
  -17.4212  -26.6650   21.4005 H   0  0  0  0  0  0
  -18.0340  -26.0042   22.8997 H   0  0  0  0  0  0
  -19.7941  -30.7257   24.2240 H   0  0  0  0  0  0
  -17.5026  -31.6262   24.5133 H   0  0  0  0  0  0
  -15.5358  -30.2970   23.7669 H   0  0  0  0  0  0
  -15.8666  -28.0796   22.7109 H   0  0  0  0  0  0
  -24.5865  -30.7158   25.7709 H   0  0  0  0  0  0
  -24.8985  -32.2951   26.4817 H   0  0  0  0  0  0
  -25.8024  -30.8895   27.0169 H   0  0  0  0  0  0
  -26.2924  -29.6703   24.1225 H   0  0  0  0  0  0
  -27.3988  -29.7222   25.4737 H   0  0  0  0  0  0
  -27.8831  -30.4169   23.9460 H   0  0  0  0  0  0
  -27.2594  -33.3602   26.2072 H   0  0  0  0  0  0
  -28.3854  -32.6964   25.0318 H   0  0  0  0  0  0
  -28.0738  -31.8464   26.5389 H   0  0  0  0  0  0
  -28.2572  -38.0113   24.7531 H   0  0  0  0  0  0
  -28.1121  -36.2635   24.6225 H   0  0  0  0  0  0
  -27.2305  -37.1359   25.8853 H   0  0  0  0  0  0
  -20.9380  -29.8733   21.6873 H   0  0  0  0  0  0
  -26.0157  -38.2815   24.1441 H   0  0  0  0  0  0
  -32.4181  -17.0104   20.0755 H   0  0  0  0  0  0
  -31.3994  -21.1346   19.9592 H   0  0  0  0  0  0
  -29.4840  -24.7008   18.3426 H   0  0  0  0  0  0
  -29.6761  -22.9599   18.2133 H   0  0  0  0  0  0
  -30.6551  -23.8742   19.3563 H   0  0  0  0  0  0
  -29.7877  -23.2932   22.5948 H   0  0  0  0  0  0
  -30.9388  -22.8336   21.3497 H   0  0  0  0  0  0
  -30.2590  -21.6254   22.4553 H   0  0  0  0  0  0
  -28.9914  -25.1067   21.5251 H   0  0  0  0  0  0
  -27.3026  -24.9149   21.2428 H   0  0  0  0  0  0
  -27.6535  -23.3809   19.4103 H   0  0  0  0  0  0
  -27.9946  -22.2988   21.5918 H   0  0  0  0  0  0
  -28.9666  -15.7783   20.8252 H   0  0  0  0  0  0
  -27.8090  -20.4968   20.4663 H   0  0  0  0  0  0
  1 25  1  0  0  0
  1 30  2  0  0  0
  1 82  1  0  0  0
  2  3  1  0  0  0
  2 25  1  0  0  0
  2 85  1  0  0  0
  2 86  1  0  0  0
  3  4  1  0  0  0
  3 87  1  0  0  0
  3 88  1  0  0  0
  4  5  1  0  0  0
  4 89  1  0  0  0
  4 90  1  0  0  0
  5  6  1  0  0  0
  5 26  1  0  0  0
  5 91  1  0  0  0
  6 25  1  0  0  0
  6 92  1  0  0  0
  6 93  1  0  0  0
  7  8  2  0  0  0
  7 26  1  0  0  0
  7 29  1  0  0  0
  8  9  1  0  0  0
  8 22  1  0  0  0
  9 10  1  0  0  0
  9 27  2  0  0  0
 10 11  2  0  0  0
 10 15  1  0  0  0
 11 12  1  0  0  0
 11 94  1  0  0  0
 12 13  2  0  0  0
 12 95  1  0  0  0
 13 14  1  0  0  0
 13 31  1  0  0  0
 14 15  2  0  0  0
 14 96  1  0  0  0
 15 97  1  0  0  0
 16 17  2  0  0  0
 16 21  1  0  0  0
 16 31  1  0  0  0
 17 18  1  0  0  0
 17 98  1  0  0  0
 18 19  2  0  0  0
 18 99  1  0  0  0
 19 20  1  0  0  0
 19 24  1  0  0  0
 20 21  2  0  0  0
 20100  1  0  0  0
 21 23  1  0  0  0
 22 28  1  0  0  0
 22 32  2  0  0  0
 26 27  1  0  0  0
 28101  1  0  0  0
 28102  1  0  0  0
 29103  1  0  0  0
 29104  1  0  0  0
 33 34  1  0  0  0
 33 66  1  0  0  0
 33 70  2  0  0  0
 34 36  1  0  0  0
 34 59  1  0  0  0
 34105  1  0  0  0
 35 44  2  0  0  0
 35 45  1  0  0  0
 35 68  1  0  0  0
 36 56  1  0  0  0
 36106  1  0  0  0
 37 39  1  0  0  0
 37 47  1  0  0  0
 37 66  1  0  0  0
 37107  1  0  0  0
 38 43  2  0  0  0
 38 46  1  0  0  0
 38 47  1  0  0  0
 39 64  1  0  0  0
 39 67  2  0  0  0
 40 52  1  0  0  0
 40 53  2  0  0  0
 40 58  1  0  0  0
 41108  1  0  0  0
 41109  1  0  0  0
 41110  1  0  0  0
 41 48  1  0  0  0
 42 43  1  0  0  0
 42 66  1  0  0  0
 42111  1  0  0  0
 42112  1  0  0  0
 43 44  1  0  0  0
 44113  1  0  0  0
 45 46  2  0  0  0
 45114  1  0  0  0
 46115  1  0  0  0
 47116  1  0  0  0
 47117  1  0  0  0
 48 56  1  0  0  0
 48 65  1  0  0  0
 48118  1  0  0  0
 49 50  1  0  0  0
 49 53  1  0  0  0
 49 64  1  0  0  0
 49119  1  0  0  0
 50 51  1  0  0  0
 50120  1  0  0  0
 50121  1  0  0  0
 51 52  1  0  0  0
 51122  1  0  0  0
 51123  1  0  0  0
 52124  1  0  0  0
 52125  1  0  0  0
 53 54  1  0  0  0
 54 55  2  0  0  0
 54126  1  0  0  0
 55 57  1  0  0  0
 55127  1  0  0  0
 56 69  2  0  0  0
 57 58  2  0  0  0
 57128  1  0  0  0
 58129  1  0  0  0
 59 60  1  0  0  0
 59 61  1  0  0  0
 59 62  1  0  0  0
 60130  1  0  0  0
 60131  1  0  0  0
 60132  1  0  0  0
 61133  1  0  0  0
 61134  1  0  0  0
 61135  1  0  0  0
 62136  1  0  0  0
 62137  1  0  0  0
 62138  1  0  0  0
 63 65  1  0  0  0
 63139  1  0  0  0
 63140  1  0  0  0
 63141  1  0  0  0
 64142  1  0  0  0
 65143  1  0  0  0
 68 78  1  0  0  0
 71 73  2  0  0  0
 71 74  1  0  0  0
 71144  1  0  0  0
 72 73  1  0  0  0
 72 75  2  0  0  0
 72145  1  0  0  0
 73 84  1  0  0  0
 74 81  2  0  0  0
 74 82  1  0  0  0
 75 81  1  0  0  0
 75 83  1  0  0  0
 76146  1  0  0  0
 76147  1  0  0  0
 76148  1  0  0  0
 76 79  1  0  0  0
 77149  1  0  0  0
 77150  1  0  0  0
 77151  1  0  0  0
 77 80  1  0  0  0
 78 79  1  0  0  0
 78152  1  0  0  0
 78153  1  0  0  0
 79 80  1  0  0  0
 79154  1  0  0  0
 80 83  1  0  0  0
 80155  1  0  0  0
 82156  1  0  0  0
 83157  1  0  0  0
M  ISO  4   1 100  68 101  78 101  82 100
M  END
> <chiral flag>
0

> <version>
0

> <s_m_source_file>
/data/baiqing/PycharmProjects/Reinvent-master-3.2/result/LINK_invent/BTK/process_docking_weight1_custom_product_contain_oxygen_bond_distance_aromatic_linkinvent_7_9_3/rearranged_h_0189.sdf

> <i_m_source_file_index>
6

> <r_mmod_Potential_Energy-OPLS-2005>
30.9258995056152

> <r_mmod_Stretch_Energy-OPLS-2005>
141.236526489258

> <r_mmod_Bend_Energy-OPLS-2005>
207.926681518555

> <r_mmod_Torsional_Energy-OPLS-2005>
254.699951171875

> <r_mmod_Improper_Torsional_Energy-OPLS-2005>
7.1166844367981

> <r_mmod_Van_der_Waal_Energy-OPLS-2005>
141.094940185547

> <r_mmod_Electrostatic_Energy-OPLS-2005>
-591.216613769531

> <r_mmod_Solvation_Energy-OPLS-2005>
-214.257934570312

> <b_mmod_Minimization_Converged-OPLS-2005>
0

> <r_mmod_RMS_Derivative-OPLS-2005>
4.63014078140259

$$$$
6
                    3D
 Structure written by MMmdl.
189197  0  0  1  0            999 V2000
  -30.8708  -14.3587   20.7189 C   0  0  0  0  0  0
  -30.4164  -12.3210   19.4291 C   0  0  0  0  0  0
  -29.5064  -12.5926   18.2270 C   0  0  0  0  0  0
  -28.0365  -12.4149   18.6422 C   0  0  0  0  0  0
  -27.6785  -13.2265   19.9183 C   0  0  2  0  0  0
  -28.7193  -12.9918   21.0380 C   0  0  0  0  0  0
  -25.2552  -13.8178   20.5723 C   0  0  0  0  0  0
  -24.1838  -13.0403   20.9156 C   0  0  0  0  0  0
  -24.6440  -11.6877   20.8767 C   0  0  0  0  0  0
  -23.9154  -10.4237   21.0436 C   0  0  0  0  0  0
  -24.3615   -9.4078   21.9202 C   0  0  0  0  0  0
  -23.6259   -8.2125   22.0737 C   0  0  0  0  0  0
  -22.4239   -8.0180   21.3508 C   0  0  0  0  0  0
  -21.9949   -9.0205   20.4601 C   0  0  0  0  0  0
  -22.7348  -10.2070   20.3071 C   0  0  0  0  0  0
  -21.6841   -6.0613   22.5253 C   0  0  0  0  0  0
  -21.4001   -6.5543   23.8177 C   0  0  0  0  0  0
  -21.3757   -5.6723   24.9174 C   0  0  0  0  0  0
  -21.6073   -4.2978   24.7203 C   0  0  0  0  0  0
  -21.8803   -3.8032   23.4337 C   0  0  0  0  0  0
  -21.9187   -4.6846   22.3376 C   0  0  0  0  0  0
  -22.7815  -13.5097   21.1778 C   0  0  0  0  0  0
  -22.1646   -4.2010   21.0971 F   0  0  0  0  0  0
  -21.5723   -3.4499   25.7753 F   0  0  0  0  0  0
  -30.0633  -13.2781   20.4907 N   0  0  0  0  0  0
  -26.3129  -12.9436   20.3602 N   0  0  0  0  0  0
  -25.9417  -11.6566   20.5846 N   0  0  0  0  0  0
  -22.0466  -12.8132   22.0314 N   0  0  0  0  0  0
  -25.4080  -15.1937   20.3994 N   0  0  0  0  0  0
  -31.8566  -14.5759   20.0122 O   0  0  0  0  0  0
  -21.6598   -6.8767   21.4192 O   0  0  0  0  0  0
  -22.3484  -14.5430   20.6627 O   0  0  0  0  0  0
  -24.6027  -31.8718   23.2201 C   0  0  0  0  0  0
  -25.8949  -32.4843   23.8503 C   0  0  1  0  0  0
  -27.2685  -27.5181   20.0814 C   0  0  0  0  0  0
  -25.5857  -33.8669   24.2425 N   0  0  0  0  0  0
  -23.3848  -30.4957   21.5544 C   0  0  2  0  0  0
  -24.8403  -28.9777   20.1197 C   0  0  0  0  0  0
  -22.7335  -29.4608   22.5019 C   0  0  0  0  0  0
  -18.0233  -28.1284   22.8529 C   0  0  0  0  0  0
  -24.1468  -36.7277   23.2648 C   0  0  0  0  0  0
  -25.9097  -30.8643   21.3652 C   0  0  0  0  0  0
  -25.9917  -29.5060   20.7117 C   0  0  0  0  0  0
  -27.1982  -28.7827   20.6985 C   0  0  0  0  0  0
  -26.0910  -26.9866   19.4975 C   0  0  0  0  0  0
  -24.8809  -27.7086   19.5133 C   0  0  0  0  0  0
  -23.5963  -29.8312   20.1652 C   0  0  0  0  0  0
  -25.4086  -36.3118   24.0375 C   0  0  1  0  0  0
  -20.5841  -28.3512   23.1359 C   0  0  2  0  0  0
  -20.6729  -26.9257   22.5440 C   0  0  0  0  0  0
  -19.5711  -26.6298   21.5232 C   0  0  0  0  0  0
  -18.1877  -26.7856   22.1634 C   0  0  0  0  0  0
  -19.1492  -28.8757   23.2920 C   0  0  0  0  0  0
  -18.9441  -30.1389   23.8907 C   0  0  0  0  0  0
  -17.6449  -30.6541   24.0560 C   0  0  0  0  0  0
  -25.9008  -34.9483   23.5161 C   0  0  0  0  0  0
  -16.5322  -29.9040   23.6354 C   0  0  0  0  0  0
  -16.7224  -28.6429   23.0402 C   0  0  0  0  0  0
  -26.4472  -31.6568   25.0764 C   0  0  0  0  0  0
  -25.3817  -31.3629   26.1553 C   0  0  0  0  0  0
  -27.0283  -30.3037   24.6061 C   0  0  0  0  0  0
  -27.6084  -32.4246   25.7503 C   0  0  0  0  0  0
  -27.5558  -37.1789   24.8484 C   0  0  0  0  0  0
  -21.4081  -29.2897   22.3819 N   0  0  0  0  0  0
  -26.4260  -37.3814   23.9438 N   0  0  0  0  0  0
  -24.6488  -31.0894   22.1056 N   0  0  0  0  0  0
  -23.4139  -28.8176   23.3054 O   0  0  0  0  0  0
  -28.5067  -26.9140   20.0458 O   0  0  0  0  0  0
  -26.5539  -34.8903   22.4706 O   0  0  0  0  0  0
  -23.5242  -32.1489   23.7592 O   0  0  0  0  0  0
  -27.3245  -20.1064   24.4547 C   0  0  0  0  0  0
  -28.5203  -20.2230   23.7902 C   0  0  0  0  0  0
  -27.3430  -21.8210   22.7265 C   0  0  0  0  0  0
  -29.8649  -17.5821   22.6904 C   0  0  0  0  0  0
  -32.4477  -16.2044   23.7848 C   0  0  0  0  0  0
  -29.8275  -20.3769   27.1692 C   0  0  0  0  0  0
  -32.1576  -19.8373   25.0974 C   0  0  0  0  0  0
  -29.8309  -24.3729   21.5175 C   0  0  0  0  0  0
  -26.6340  -23.2944   19.5153 C   0  0  0  0  0  0
  -29.1358  -18.4819   19.8303 C   0  0  0  0  0  0
  -31.9641  -15.0919   22.8399 C   0  0  0  0  0  0
  -30.2407  -21.2779   25.9834 C   0  0  0  0  0  0
  -28.6484  -25.5635   19.6289 C   0  0  0  0  0  0
  -29.8060  -19.5333   24.1484 C   0  0  2  0  0  0
  -30.7119  -15.3257   21.9135 C   0  0  2  0  0  0
  -30.4452  -16.8359   21.4759 C   0  0  1  0  0  0
  -30.8218  -20.5212   24.7594 C   0  0  2  0  0  0
  -28.4545  -24.6583   20.8690 C   0  0  2  0  0  0
  -27.6936  -23.3234   20.6330 C   0  0  1  0  0  0
  -29.4071  -17.0341   20.3097 C   0  0  2  0  0  0
  -28.4874  -21.1410   22.7385 N   0  0  0  0  0  0
  -27.0704  -22.8658   21.8713 N   0  0  0  0  0  0
  -30.3421  -18.7904   23.0135 N   0  0  0  0  0  0
  -28.9703  -17.0482   23.3539 O   0  0  0  0  0  0
  -29.7432  -16.3967   19.1905 F   0  0  0  0  0  0
  -26.1649  -21.2772   23.9107 S   0  0  0  0  0  0
  -31.4586  -12.3890   19.1153 H   0  0  0  0  0  0
  -30.2864  -11.2992   19.7845 H   0  0  0  0  0  0
  -29.7592  -11.9356   17.3969 H   0  0  0  0  0  0
  -29.6740  -13.6125   17.8743 H   0  0  0  0  0  0
  -27.8792  -11.3542   18.8291 H   0  0  0  0  0  0
  -27.3817  -12.6844   17.8187 H   0  0  0  0  0  0
  -27.7214  -14.2832   19.6637 H   0  0  0  0  0  0
  -28.6695  -11.9462   21.3640 H   0  0  0  0  0  0
  -28.4687  -13.5925   21.9073 H   0  0  0  0  0  0
  -25.2727   -9.5427   22.4836 H   0  0  0  0  0  0
  -23.9897   -7.4424   22.7448 H   0  0  0  0  0  0
  -21.0895   -8.8751   19.8855 H   0  0  0  0  0  0
  -22.3847  -10.9615   19.6153 H   0  0  0  0  0  0
  -21.1934   -7.6028   23.9651 H   0  0  0  0  0  0
  -21.1710   -6.0451   25.9102 H   0  0  0  0  0  0
  -22.0515   -2.7472   23.2897 H   0  0  0  0  0  0
  -22.4098  -11.9887   22.4875 H   0  0  0  0  0  0
  -21.1080  -13.1186   22.2459 H   0  0  0  0  0  0
  -24.6244  -15.8350   20.4730 H   0  0  0  0  0  0
  -26.2247  -15.6285   19.9975 H   0  0  0  0  0  0
  -26.7054  -32.5590   23.1307 H   0  0  0  0  0  0
  -25.0186  -33.9942   25.0697 H   0  0  0  0  0  0
  -22.6680  -31.3089   21.4188 H   0  0  0  0  0  0
  -23.3753  -35.9575   23.3328 H   0  0  0  0  0  0
  -24.3620  -36.8860   22.2061 H   0  0  0  0  0  0
  -23.7166  -37.6472   23.6652 H   0  0  0  0  0  0
  -26.0229  -31.6419   20.6060 H   0  0  0  0  0  0
  -26.8000  -30.9109   21.9817 H   0  0  0  0  0  0
  -28.0803  -29.2060   21.1611 H   0  0  0  0  0  0
  -26.0939  -26.0416   18.9924 H   0  0  0  0  0  0
  -23.9958  -27.2838   19.0602 H   0  0  0  0  0  0
  -23.7027  -30.6154   19.4140 H   0  0  0  0  0  0
  -22.7305  -29.2386   19.8636 H   0  0  0  0  0  0
  -25.1270  -36.2025   25.0884 H   0  0  0  0  0  0
  -20.9927  -28.2994   24.1473 H   0  0  0  0  0  0
  -20.5606  -26.2075   23.3582 H   0  0  0  0  0  0
  -21.6599  -26.7288   22.1262 H   0  0  0  0  0  0
  -19.6838  -25.6234   21.1195 H   0  0  0  0  0  0
  -19.6674  -27.3194   20.6845 H   0  0  0  0  0  0
  -17.4167  -26.6650   21.3982 H   0  0  0  0  0  0
  -18.0205  -25.9974   22.9006 H   0  0  0  0  0  0
  -19.7929  -30.7198   24.2207 H   0  0  0  0  0  0
  -17.5013  -31.6256   24.5070 H   0  0  0  0  0  0
  -15.5329  -30.2931   23.7687 H   0  0  0  0  0  0
  -15.8614  -28.0752   22.7115 H   0  0  0  0  0  0
  -24.6024  -30.6916   25.7954 H   0  0  0  0  0  0
  -24.8968  -32.2756   26.5027 H   0  0  0  0  0  0
  -25.8268  -30.8838   27.0276 H   0  0  0  0  0  0
  -26.2788  -29.6763   24.1235 H   0  0  0  0  0  0
  -27.4240  -29.7313   25.4446 H   0  0  0  0  0  0
  -27.8547  -30.4423   23.9087 H   0  0  0  0  0  0
  -27.2810  -33.3624   26.2011 H   0  0  0  0  0  0
  -28.3955  -32.6632   25.0335 H   0  0  0  0  0  0
  -28.0657  -31.8358   26.5470 H   0  0  0  0  0  0
  -28.2604  -38.0074   24.7580 H   0  0  0  0  0  0
  -28.1029  -36.2612   24.6262 H   0  0  0  0  0  0
  -27.2292  -37.1383   25.8894 H   0  0  0  0  0  0
  -20.9130  -29.8648   21.7191 H   0  0  0  0  0  0
  -26.0135  -38.2866   24.1530 H   0  0  0  0  0  0
  -27.1050  -19.4682   25.2960 H   0  0  0  0  0  0
  -33.3098  -15.8320   24.3409 H   0  0  0  0  0  0
  -31.6856  -16.4887   24.5136 H   0  0  0  0  0  0
  -32.7954  -17.0883   23.2442 H   0  0  0  0  0  0
  -29.4307  -20.9684   27.9940 H   0  0  0  0  0  0
  -30.6683  -19.7947   27.5497 H   0  0  0  0  0  0
  -29.0409  -19.6681   26.9067 H   0  0  0  0  0  0
  -32.8245  -20.5164   25.6294 H   0  0  0  0  0  0
  -32.6751  -19.4928   24.1995 H   0  0  0  0  0  0
  -32.0110  -18.9633   25.7293 H   0  0  0  0  0  0
  -29.7241  -23.9890   22.5308 H   0  0  0  0  0  0
  -30.4521  -25.2672   21.5644 H   0  0  0  0  0  0
  -30.3986  -23.6211   20.9660 H   0  0  0  0  0  0
  -25.8477  -24.0354   19.6661 H   0  0  0  0  0  0
  -26.1649  -22.3130   19.4575 H   0  0  0  0  0  0
  -27.0799  -23.4483   18.5323 H   0  0  0  0  0  0
  -29.9017  -18.8324   19.1347 H   0  0  0  0  0  0
  -29.0665  -19.2068   20.6343 H   0  0  0  0  0  0
  -28.1848  -18.5262   19.2962 H   0  0  0  0  0  0
  -31.7399  -14.2118   23.4471 H   0  0  0  0  0  0
  -32.8407  -14.8054   22.2616 H   0  0  0  0  0  0
  -30.9793  -22.0018   26.3303 H   0  0  0  0  0  0
  -29.3818  -21.8818   25.6797 H   0  0  0  0  0  0
  -28.0168  -25.3312   18.7796 H   0  0  0  0  0  0
  -29.6584  -25.4462   19.2385 H   0  0  0  0  0  0
  -29.5946  -18.8010   24.9271 H   0  0  0  0  0  0
  -29.8689  -14.9835   22.5028 H   0  0  0  0  0  0
  -31.3891  -17.3086   21.1863 H   0  0  0  0  0  0
  -31.0359  -21.2789   24.0002 H   0  0  0  0  0  0
  -27.8784  -25.2481   21.5852 H   0  0  0  0  0  0
  -28.4408  -22.5814   20.3489 H   0  0  0  0  0  0
  -28.4545  -16.6002   20.6254 H   0  0  0  0  0  0
  -26.2518  -23.3927   22.1650 H   0  0  0  0  0  0
  -31.0382  -19.2344   22.4298 H   0  0  0  0  0  0
  1 25  1  0  0  0
  1 30  2  0  0  0
  1 85  1  0  0  0
  2  3  1  0  0  0
  2 25  1  0  0  0
  2 97  1  0  0  0
  2 98  1  0  0  0
  3  4  1  0  0  0
  3 99  1  0  0  0
  3100  1  0  0  0
  4  5  1  0  0  0
  4101  1  0  0  0
  4102  1  0  0  0
  5  6  1  0  0  0
  5 26  1  0  0  0
  5103  1  0  0  0
  6 25  1  0  0  0
  6104  1  0  0  0
  6105  1  0  0  0
  7  8  2  0  0  0
  7 26  1  0  0  0
  7 29  1  0  0  0
  8  9  1  0  0  0
  8 22  1  0  0  0
  9 10  1  0  0  0
  9 27  2  0  0  0
 10 11  2  0  0  0
 10 15  1  0  0  0
 11 12  1  0  0  0
 11106  1  0  0  0
 12 13  2  0  0  0
 12107  1  0  0  0
 13 14  1  0  0  0
 13 31  1  0  0  0
 14 15  2  0  0  0
 14108  1  0  0  0
 15109  1  0  0  0
 16 17  2  0  0  0
 16 21  1  0  0  0
 16 31  1  0  0  0
 17 18  1  0  0  0
 17110  1  0  0  0
 18 19  2  0  0  0
 18111  1  0  0  0
 19 20  1  0  0  0
 19 24  1  0  0  0
 20 21  2  0  0  0
 20112  1  0  0  0
 21 23  1  0  0  0
 22 28  1  0  0  0
 22 32  2  0  0  0
 26 27  1  0  0  0
 28113  1  0  0  0
 28114  1  0  0  0
 29115  1  0  0  0
 29116  1  0  0  0
 33 34  1  0  0  0
 33 66  1  0  0  0
 33 70  2  0  0  0
 34 36  1  0  0  0
 34 59  1  0  0  0
 34117  1  0  0  0
 35 44  2  0  0  0
 35 45  1  0  0  0
 35 68  1  0  0  0
 36 56  1  0  0  0
 36118  1  0  0  0
 37 39  1  0  0  0
 37 47  1  0  0  0
 37 66  1  0  0  0
 37119  1  0  0  0
 38 43  2  0  0  0
 38 46  1  0  0  0
 38 47  1  0  0  0
 39 64  1  0  0  0
 39 67  2  0  0  0
 40 52  1  0  0  0
 40 53  2  0  0  0
 40 58  1  0  0  0
 41120  1  0  0  0
 41121  1  0  0  0
 41122  1  0  0  0
 41 48  1  0  0  0
 42 43  1  0  0  0
 42 66  1  0  0  0
 42123  1  0  0  0
 42124  1  0  0  0
 43 44  1  0  0  0
 44125  1  0  0  0
 45 46  2  0  0  0
 45126  1  0  0  0
 46127  1  0  0  0
 47128  1  0  0  0
 47129  1  0  0  0
 48 56  1  0  0  0
 48 65  1  0  0  0
 48130  1  0  0  0
 49 50  1  0  0  0
 49 53  1  0  0  0
 49 64  1  0  0  0
 49131  1  0  0  0
 50 51  1  0  0  0
 50132  1  0  0  0
 50133  1  0  0  0
 51 52  1  0  0  0
 51134  1  0  0  0
 51135  1  0  0  0
 52136  1  0  0  0
 52137  1  0  0  0
 53 54  1  0  0  0
 54 55  2  0  0  0
 54138  1  0  0  0
 55 57  1  0  0  0
 55139  1  0  0  0
 56 69  2  0  0  0
 57 58  2  0  0  0
 57140  1  0  0  0
 58141  1  0  0  0
 59 60  1  0  0  0
 59 61  1  0  0  0
 59 62  1  0  0  0
 60142  1  0  0  0
 60143  1  0  0  0
 60144  1  0  0  0
 61145  1  0  0  0
 61146  1  0  0  0
 61147  1  0  0  0
 62148  1  0  0  0
 62149  1  0  0  0
 62150  1  0  0  0
 63 65  1  0  0  0
 63151  1  0  0  0
 63152  1  0  0  0
 63153  1  0  0  0
 64154  1  0  0  0
 65155  1  0  0  0
 68 83  1  0  0  0
 71 72  2  0  0  0
 71 96  1  0  0  0
 71156  1  0  0  0
 72 84  1  0  0  0
 72 91  1  0  0  0
 73 91  2  0  0  0
 73 92  1  0  0  0
 73 96  1  0  0  0
 74 93  1  0  0  0
 74 94  2  0  0  0
 74 86  1  0  0  0
 75 81  1  0  0  0
 75157  1  0  0  0
 75158  1  0  0  0
 75159  1  0  0  0
 76 82  1  0  0  0
 76160  1  0  0  0
 76161  1  0  0  0
 76162  1  0  0  0
 77163  1  0  0  0
 77164  1  0  0  0
 77165  1  0  0  0
 77 87  1  0  0  0
 78166  1  0  0  0
 78167  1  0  0  0
 78168  1  0  0  0
 78 88  1  0  0  0
 79169  1  0  0  0
 79170  1  0  0  0
 79171  1  0  0  0
 79 89  1  0  0  0
 80172  1  0  0  0
 80173  1  0  0  0
 80174  1  0  0  0
 80 90  1  0  0  0
 81175  1  0  0  0
 81176  1  0  0  0
 81 85  1  0  0  0
 82 87  1  0  0  0
 82177  1  0  0  0
 82178  1  0  0  0
 83 88  1  0  0  0
 83179  1  0  0  0
 83180  1  0  0  0
 84 87  1  0  0  0
 84 93  1  0  0  0
 84181  1  0  0  0
 85 86  1  0  0  0
 85182  1  0  0  0
 86 90  1  0  0  0
 86183  1  0  0  0
 87184  1  0  0  0
 88 89  1  0  0  0
 88185  1  0  0  0
 89 92  1  0  0  0
 89186  1  0  0  0
 90 95  1  0  0  0
 90187  1  0  0  0
 92188  1  0  0  0
 93189  1  0  0  0
M  ISO  4   1 100  68 101  83 101  85 100
M  END
> <chiral flag>
0

> <version>
0

> <s_m_source_file>
/data/baiqing/PycharmProjects/Reinvent-master-3.2/result/LINK_invent/BTK/process_docking_weight1_custom_product_contain_oxygen_bond_distance_aromatic_linkinvent_7_9_3/rearranged_h_0189.sdf

> <i_m_source_file_index>
7

> <r_mmod_Potential_Energy-OPLS-2005>
-170.340927124023

> <r_mmod_Stretch_Energy-OPLS-2005>
47.7912559509277

> <r_mmod_Bend_Energy-OPLS-2005>
148.174194335938

> <r_mmod_Torsional_Energy-OPLS-2005>
193.699859619141

> <r_mmod_Improper_Torsional_Energy-OPLS-2005>
2.95858430862427

> <r_mmod_Van_der_Waal_Energy-OPLS-2005>
147.981643676758

> <r_mmod_Electrostatic_Energy-OPLS-2005>
-527.587280273438

> <r_mmod_Solvation_Energy-OPLS-2005>
-199.469665527344

> <b_mmod_Minimization_Converged-OPLS-2005>
0

> <r_mmod_RMS_Derivative-OPLS-2005>
10.7523880004883

$$$$
7
                    3D
 Structure written by MMmdl.
169177  0  0  1  0            999 V2000
  -30.6621  -14.5494   20.5913 C   0  0  0  0  0  0
  -30.4423  -12.3559   19.4408 C   0  0  0  0  0  0
  -29.5138  -12.5260   18.2200 C   0  0  0  0  0  0
  -28.0333  -12.3721   18.6241 C   0  0  0  0  0  0
  -27.6673  -13.2105   19.8778 C   0  0  2  0  0  0
  -28.7070  -12.9992   21.0009 C   0  0  0  0  0  0
  -25.2628  -13.8158   20.5697 C   0  0  0  0  0  0
  -24.1863  -13.0454   20.9174 C   0  0  0  0  0  0
  -24.6403  -11.6912   20.8705 C   0  0  0  0  0  0
  -23.9064  -10.4316   21.0385 C   0  0  0  0  0  0
  -24.3608   -9.4235   21.9181 C   0  0  0  0  0  0
  -23.6277   -8.2271   22.0766 C   0  0  0  0  0  0
  -22.4256   -8.0307   21.3574 C   0  0  0  0  0  0
  -21.9897   -9.0269   20.4673 C   0  0  0  0  0  0
  -22.7222  -10.2144   20.3055 C   0  0  0  0  0  0
  -21.6858   -6.0743   22.5280 C   0  0  0  0  0  0
  -21.4019   -6.5635   23.8216 C   0  0  0  0  0  0
  -21.3667   -5.6781   24.9172 C   0  0  0  0  0  0
  -21.6034   -4.3047   24.7215 C   0  0  0  0  0  0
  -21.8819   -3.8156   23.4342 C   0  0  0  0  0  0
  -21.9201   -4.6979   22.3403 C   0  0  0  0  0  0
  -22.7887  -13.5285   21.1797 C   0  0  0  0  0  0
  -22.1676   -4.2165   21.0980 F   0  0  0  0  0  0
  -21.5623   -3.4524   25.7731 F   0  0  0  0  0  0
  -30.0368  -13.3380   20.4624 N   0  0  0  0  0  0
  -26.3060  -12.9335   20.3345 N   0  0  0  0  0  0
  -25.9332  -11.6490   20.5706 N   0  0  0  0  0  0
  -22.0473  -12.8326   22.0356 N   0  0  0  0  0  0
  -25.4364  -15.1871   20.4164 N   0  0  0  0  0  0
  -31.7602  -14.7794   20.0727 O   0  0  0  0  0  0
  -21.6642   -6.8882   21.4249 O   0  0  0  0  0  0
  -22.3623  -14.5605   20.6646 O   0  0  0  0  0  0
  -24.6192  -31.8629   23.2039 C   0  0  0  0  0  0
  -25.9051  -32.4815   23.8355 C   0  0  1  0  0  0
  -27.2233  -27.3496   20.1092 C   0  0  0  0  0  0
  -25.5840  -33.8598   24.2264 N   0  0  0  0  0  0
  -23.4143  -30.4868   21.5454 C   0  0  2  0  0  0
  -24.8620  -28.9547   20.1005 C   0  0  0  0  0  0
  -22.7476  -29.4622   22.4937 C   0  0  0  0  0  0
  -18.0293  -28.1429   22.8532 C   0  0  0  0  0  0
  -24.1470  -36.7320   23.2655 C   0  0  0  0  0  0
  -25.9514  -30.8025   21.3730 C   0  0  0  0  0  0
  -26.0248  -29.4317   20.7202 C   0  0  0  0  0  0
  -27.2026  -28.6326   20.7289 C   0  0  0  0  0  0
  -26.0564  -26.9461   19.4252 C   0  0  0  0  0  0
  -24.8787  -27.7153   19.4457 C   0  0  0  0  0  0
  -23.6259  -29.8247   20.1573 C   0  0  0  0  0  0
  -25.4097  -36.3110   24.0340 C   0  0  1  0  0  0
  -20.5907  -28.3709   23.1322 C   0  0  2  0  0  0
  -20.6746  -26.9425   22.5443 C   0  0  0  0  0  0
  -19.5697  -26.6426   21.5253 C   0  0  0  0  0  0
  -18.1892  -26.7980   22.1683 C   0  0  0  0  0  0
  -19.1551  -28.8893   23.2926 C   0  0  0  0  0  0
  -18.9471  -30.1497   23.8943 C   0  0  0  0  0  0
  -17.6464  -30.6619   24.0604 C   0  0  0  0  0  0
  -25.9032  -34.9471   23.5120 C   0  0  0  0  0  0
  -16.5362  -29.9125   23.6348 C   0  0  0  0  0  0
  -16.7280  -28.6552   23.0371 C   0  0  0  0  0  0
  -26.4409  -31.6631   25.0742 C   0  0  0  0  0  0
  -25.3644  -31.3820   26.1500 C   0  0  0  0  0  0
  -27.0240  -30.3053   24.6211 C   0  0  0  0  0  0
  -27.5975  -32.4372   25.7490 C   0  0  0  0  0  0
  -27.5565  -37.1810   24.8459 C   0  0  0  0  0  0
  -21.4196  -29.3033   22.3694 N   0  0  0  0  0  0
  -26.4279  -37.3796   23.9408 N   0  0  0  0  0  0
  -24.6795  -31.0680   22.0978 N   0  0  0  0  0  0
  -23.4211  -28.8165   23.3007 O   0  0  0  0  0  0
  -28.3447  -26.5140   20.2048 O   0  0  0  0  0  0
  -26.5649  -34.8932   22.4715 O   0  0  0  0  0  0
  -23.5368  -32.1377   23.7392 O   0  0  0  0  0  0
  -30.1866  -17.5204   22.6131 C   0  0  0  0  0  0
  -30.1000  -16.9082   21.3862 C   0  0  0  0  0  0
  -29.8791  -19.1378   20.7379 C   0  0  0  0  0  0
  -31.2976  -22.8762   19.0495 C   0  0  0  0  0  0
  -33.9504  -24.6388   18.9107 C   0  0  0  0  0  0
  -31.0009  -23.4101   16.5933 C   0  0  0  0  0  0
  -27.1252  -24.4350   20.9429 C   0  0  0  0  0  0
  -29.6158  -20.3210   19.7864 C   0  0  0  0  0  0
  -33.1900  -24.0479   17.7085 C   0  0  0  0  0  0
  -29.5619  -24.2825   20.3434 C   0  0  0  0  0  0
  -31.6600  -23.8565   17.9100 C   0  0  2  0  0  0
  -29.8510  -22.8811   19.6282 C   0  0  2  0  0  0
  -28.2174  -25.0502   20.0296 C   0  0  2  0  0  0
  -29.9269  -17.8398   20.3337 N   0  0  0  0  0  0
  -29.9742  -15.4782   21.3017 N   0  0  0  0  0  0
  -29.7735  -21.6431   20.5001 N   0  3  0  0  0  0
  -32.1589  -22.1018   19.4814 O   0  0  0  0  0  0
  -30.0899  -19.2645   22.4900 S   0  0  0  0  0  0
  -31.4858  -12.4779   19.1451 H   0  0  0  0  0  0
  -30.3665  -11.3451   19.8419 H   0  0  0  0  0  0
  -29.7674  -11.7975   17.4484 H   0  0  0  0  0  0
  -29.6749  -13.5096   17.7769 H   0  0  0  0  0  0
  -27.8491  -11.3141   18.8191 H   0  0  0  0  0  0
  -27.3901  -12.6475   17.7883 H   0  0  0  0  0  0
  -27.7103  -14.2588   19.5791 H   0  0  0  0  0  0
  -28.6973  -11.9610   21.3357 H   0  0  0  0  0  0
  -28.4433  -13.5821   21.8845 H   0  0  0  0  0  0
  -25.2739   -9.5720   22.4769 H   0  0  0  0  0  0
  -23.9997   -7.4666   22.7480 H   0  0  0  0  0  0
  -21.0833   -8.8785   19.8968 H   0  0  0  0  0  0
  -22.3681  -10.9684   19.6175 H   0  0  0  0  0  0
  -21.2007   -7.6134   23.9726 H   0  0  0  0  0  0
  -21.1487   -6.0504   25.9070 H   0  0  0  0  0  0
  -22.0590   -2.7617   23.2828 H   0  0  0  0  0  0
  -22.4021  -11.9993   22.4800 H   0  0  0  0  0  0
  -21.1102  -13.1437   22.2474 H   0  0  0  0  0  0
  -24.6689  -15.8404   20.5223 H   0  0  0  0  0  0
  -26.2929  -15.6301   20.1082 H   0  0  0  0  0  0
  -26.7154  -32.5494   23.1128 H   0  0  0  0  0  0
  -24.9840  -33.9721   25.0311 H   0  0  0  0  0  0
  -22.7055  -31.3060   21.4056 H   0  0  0  0  0  0
  -23.3710  -35.9676   23.3346 H   0  0  0  0  0  0
  -24.3550  -36.8918   22.2067 H   0  0  0  0  0  0
  -23.7249  -37.6541   23.6657 H   0  0  0  0  0  0
  -26.0803  -31.5600   20.5970 H   0  0  0  0  0  0
  -26.8319  -30.8556   22.0010 H   0  0  0  0  0  0
  -28.0857  -28.9841   21.2453 H   0  0  0  0  0  0
  -26.0290  -26.0111   18.8860 H   0  0  0  0  0  0
  -23.9945  -27.3528   18.9385 H   0  0  0  0  0  0
  -23.7384  -30.5990   19.3981 H   0  0  0  0  0  0
  -22.7469  -29.2479   19.8623 H   0  0  0  0  0  0
  -25.1267  -36.1958   25.0832 H   0  0  0  0  0  0
  -21.0048  -28.3281   24.1427 H   0  0  0  0  0  0
  -20.5662  -26.2302   23.3638 H   0  0  0  0  0  0
  -21.6595  -26.7418   22.1233 H   0  0  0  0  0  0
  -19.6800  -25.6341   21.1246 H   0  0  0  0  0  0
  -19.6628  -27.3278   20.6818 H   0  0  0  0  0  0
  -17.4150  -26.6815   21.4086 H   0  0  0  0  0  0
  -18.0243  -26.0124   22.9076 H   0  0  0  0  0  0
  -19.7934  -30.7315   24.2325 H   0  0  0  0  0  0
  -17.5009  -31.6303   24.5200 H   0  0  0  0  0  0
  -15.5363  -30.3023   23.7649 H   0  0  0  0  0  0
  -15.8693  -28.0861   22.7073 H   0  0  0  0  0  0
  -24.5760  -30.7220   25.7853 H   0  0  0  0  0  0
  -24.8899  -32.3035   26.4909 H   0  0  0  0  0  0
  -25.7962  -30.9000   27.0285 H   0  0  0  0  0  0
  -26.2834  -29.6861   24.1159 H   0  0  0  0  0  0
  -27.3835  -29.7266   25.4721 H   0  0  0  0  0  0
  -27.8728  -30.4331   23.9498 H   0  0  0  0  0  0
  -27.2574  -33.3658   26.2085 H   0  0  0  0  0  0
  -28.3761  -32.6981   25.0310 H   0  0  0  0  0  0
  -28.0681  -31.8505   26.5393 H   0  0  0  0  0  0
  -28.2615  -38.0079   24.7482 H   0  0  0  0  0  0
  -28.1026  -36.2604   24.6297 H   0  0  0  0  0  0
  -27.2289  -37.1516   25.8870 H   0  0  0  0  0  0
  -20.9357  -29.8774   21.6928 H   0  0  0  0  0  0
  -26.0155  -38.2874   24.1385 H   0  0  0  0  0  0
  -30.2866  -17.0582   23.5867 H   0  0  0  0  0  0
  -34.9858  -24.8525   18.6415 H   0  0  0  0  0  0
  -33.9805  -23.9445   19.7513 H   0  0  0  0  0  0
  -33.4988  -25.5703   19.2564 H   0  0  0  0  0  0
  -29.9135  -23.3845   16.6698 H   0  0  0  0  0  0
  -31.3416  -22.4185   16.2908 H   0  0  0  0  0  0
  -31.2398  -24.0972   15.7810 H   0  0  0  0  0  0
  -27.0729  -23.3539   20.8137 H   0  0  0  0  0  0
  -26.1172  -24.7948   20.7529 H   0  0  0  0  0  0
  -27.3368  -24.6331   21.9937 H   0  0  0  0  0  0
  -28.6074  -20.2376   19.3820 H   0  0  0  0  0  0
  -30.3028  -20.2319   18.9451 H   0  0  0  0  0  0
  -33.6537  -23.1024   17.4186 H   0  0  0  0  0  0
  -33.3462  -24.7164   16.8610 H   0  0  0  0  0  0
  -30.3579  -24.9840   20.0974 H   0  0  0  0  0  0
  -29.6738  -24.1695   21.4217 H   0  0  0  0  0  0
  -31.2444  -24.8319   18.1613 H   0  0  0  0  0  0
  -29.1449  -22.7601   18.8064 H   0  0  0  0  0  0
  -27.9699  -24.8694   18.9817 H   0  0  0  0  0  0
  -29.2007  -15.0911   21.8193 H   0  0  0  0  0  0
  -30.6678  -21.6061   20.9675 H   0  0  0  0  0  0
  -29.0412  -21.7256   21.1837 H   0  0  0  0  0  0
  1 25  1  0  0  0
  1 30  2  0  0  0
  1 85  1  0  0  0
  2  3  1  0  0  0
  2 25  1  0  0  0
  2 89  1  0  0  0
  2 90  1  0  0  0
  3  4  1  0  0  0
  3 91  1  0  0  0
  3 92  1  0  0  0
  4  5  1  0  0  0
  4 93  1  0  0  0
  4 94  1  0  0  0
  5  6  1  0  0  0
  5 26  1  0  0  0
  5 95  1  0  0  0
  6 25  1  0  0  0
  6 96  1  0  0  0
  6 97  1  0  0  0
  7  8  2  0  0  0
  7 26  1  0  0  0
  7 29  1  0  0  0
  8  9  1  0  0  0
  8 22  1  0  0  0
  9 10  1  0  0  0
  9 27  2  0  0  0
 10 11  2  0  0  0
 10 15  1  0  0  0
 11 12  1  0  0  0
 11 98  1  0  0  0
 12 13  2  0  0  0
 12 99  1  0  0  0
 13 14  1  0  0  0
 13 31  1  0  0  0
 14 15  2  0  0  0
 14100  1  0  0  0
 15101  1  0  0  0
 16 17  2  0  0  0
 16 21  1  0  0  0
 16 31  1  0  0  0
 17 18  1  0  0  0
 17102  1  0  0  0
 18 19  2  0  0  0
 18103  1  0  0  0
 19 20  1  0  0  0
 19 24  1  0  0  0
 20 21  2  0  0  0
 20104  1  0  0  0
 21 23  1  0  0  0
 22 28  1  0  0  0
 22 32  2  0  0  0
 26 27  1  0  0  0
 28105  1  0  0  0
 28106  1  0  0  0
 29107  1  0  0  0
 29108  1  0  0  0
 33 34  1  0  0  0
 33 66  1  0  0  0
 33 70  2  0  0  0
 34 36  1  0  0  0
 34 59  1  0  0  0
 34109  1  0  0  0
 35 44  2  0  0  0
 35 45  1  0  0  0
 35 68  1  0  0  0
 36 56  1  0  0  0
 36110  1  0  0  0
 37 39  1  0  0  0
 37 47  1  0  0  0
 37 66  1  0  0  0
 37111  1  0  0  0
 38 43  2  0  0  0
 38 46  1  0  0  0
 38 47  1  0  0  0
 39 64  1  0  0  0
 39 67  2  0  0  0
 40 52  1  0  0  0
 40 53  2  0  0  0
 40 58  1  0  0  0
 41112  1  0  0  0
 41113  1  0  0  0
 41114  1  0  0  0
 41 48  1  0  0  0
 42 43  1  0  0  0
 42 66  1  0  0  0
 42115  1  0  0  0
 42116  1  0  0  0
 43 44  1  0  0  0
 44117  1  0  0  0
 45 46  2  0  0  0
 45118  1  0  0  0
 46119  1  0  0  0
 47120  1  0  0  0
 47121  1  0  0  0
 48 56  1  0  0  0
 48 65  1  0  0  0
 48122  1  0  0  0
 49 50  1  0  0  0
 49 53  1  0  0  0
 49 64  1  0  0  0
 49123  1  0  0  0
 50 51  1  0  0  0
 50124  1  0  0  0
 50125  1  0  0  0
 51 52  1  0  0  0
 51126  1  0  0  0
 51127  1  0  0  0
 52128  1  0  0  0
 52129  1  0  0  0
 53 54  1  0  0  0
 54 55  2  0  0  0
 54130  1  0  0  0
 55 57  1  0  0  0
 55131  1  0  0  0
 56 69  2  0  0  0
 57 58  2  0  0  0
 57132  1  0  0  0
 58133  1  0  0  0
 59 60  1  0  0  0
 59 61  1  0  0  0
 59 62  1  0  0  0
 60134  1  0  0  0
 60135  1  0  0  0
 60136  1  0  0  0
 61137  1  0  0  0
 61138  1  0  0  0
 61139  1  0  0  0
 62140  1  0  0  0
 62141  1  0  0  0
 62142  1  0  0  0
 63 65  1  0  0  0
 63143  1  0  0  0
 63144  1  0  0  0
 63145  1  0  0  0
 64146  1  0  0  0
 65147  1  0  0  0
 68 83  1  0  0  0
 71 72  2  0  0  0
 71 88  1  0  0  0
 71148  1  0  0  0
 72 84  1  0  0  0
 72 85  1  0  0  0
 73 78  1  0  0  0
 73 84  2  0  0  0
 73 88  1  0  0  0
 74 81  1  0  0  0
 74 82  1  0  0  0
 74 87  2  0  0  0
 75 79  1  0  0  0
 75149  1  0  0  0
 75150  1  0  0  0
 75151  1  0  0  0
 76152  1  0  0  0
 76153  1  0  0  0
 76154  1  0  0  0
 76 81  1  0  0  0
 77155  1  0  0  0
 77156  1  0  0  0
 77157  1  0  0  0
 77 83  1  0  0  0
 78 86  1  0  0  0
 78158  1  0  0  0
 78159  1  0  0  0
 79 81  1  0  0  0
 79160  1  0  0  0
 79161  1  0  0  0
 80 83  1  0  0  0
 80162  1  0  0  0
 80163  1  0  0  0
 80 82  1  0  0  0
 81164  1  0  0  0
 82 86  1  0  0  0
 82165  1  0  0  0
 83166  1  0  0  0
 85167  1  0  0  0
 86168  1  0  0  0
 86169  1  0  0  0
M  CHG  1  86   1
M  ISO  4   1 100  68 101  83 101  85 100
M  END
> <chiral flag>
0

> <version>
0

> <s_m_source_file>
/data/baiqing/PycharmProjects/Reinvent-master-3.2/result/LINK_invent/BTK/process_docking_weight1_custom_product_contain_oxygen_bond_distance_aromatic_linkinvent_7_9_3/rearranged_h_0189.sdf

> <i_m_source_file_index>
8

> <r_mmod_Potential_Energy-OPLS-2005>
-296.476806640625

> <r_mmod_Stretch_Energy-OPLS-2005>
68.1147918701172

> <r_mmod_Bend_Energy-OPLS-2005>
139.2333984375

> <r_mmod_Torsional_Energy-OPLS-2005>
240.536804199219

> <r_mmod_Improper_Torsional_Energy-OPLS-2005>
3.57276606559753

> <r_mmod_Van_der_Waal_Energy-OPLS-2005>
137.192199707031

> <r_mmod_Electrostatic_Energy-OPLS-2005>
-430.537963867188

> <r_mmod_Solvation_Energy-OPLS-2005>
-487.169372558594

> <b_mmod_Minimization_Converged-OPLS-2005>
0

> <r_mmod_RMS_Derivative-OPLS-2005>
3.60820627212524

$$$$
8
                    3D
 Structure written by MMmdl.
156164  0  0  1  0            999 V2000
  -30.6630  -14.5174   20.5051 C   0  0  0  0  0  0
  -30.4243  -12.3108   19.4338 C   0  0  0  0  0  0
  -29.5010  -12.4983   18.2102 C   0  0  0  0  0  0
  -28.0188  -12.3586   18.6153 C   0  0  0  0  0  0
  -27.6562  -13.2056   19.8656 C   0  0  2  0  0  0
  -28.6981  -12.9912   20.9871 C   0  0  0  0  0  0
  -25.2561  -13.8159   20.5647 C   0  0  0  0  0  0
  -24.1815  -13.0444   20.9152 C   0  0  0  0  0  0
  -24.6368  -11.6912   20.8721 C   0  0  0  0  0  0
  -23.9040  -10.4302   21.0397 C   0  0  0  0  0  0
  -24.3602   -9.4218   21.9163 C   0  0  0  0  0  0
  -23.6283   -8.2251   22.0755 C   0  0  0  0  0  0
  -22.4265   -8.0285   21.3553 C   0  0  0  0  0  0
  -21.9887   -9.0245   20.4652 C   0  0  0  0  0  0
  -22.7208  -10.2129   20.3056 C   0  0  0  0  0  0
  -21.6846   -6.0741   22.5282 C   0  0  0  0  0  0
  -21.4016   -6.5646   23.8217 C   0  0  0  0  0  0
  -21.3655   -5.6790   24.9178 C   0  0  0  0  0  0
  -21.6031   -4.3056   24.7223 C   0  0  0  0  0  0
  -21.8811   -3.8155   23.4349 C   0  0  0  0  0  0
  -21.9196   -4.6970   22.3404 C   0  0  0  0  0  0
  -22.7840  -13.5243   21.1846 C   0  0  0  0  0  0
  -22.1666   -4.2167   21.0988 F   0  0  0  0  0  0
  -21.5619   -3.4528   25.7731 F   0  0  0  0  0  0
  -30.0256  -13.3105   20.4397 N   0  0  0  0  0  0
  -26.2985  -12.9314   20.3304 N   0  0  0  0  0  0
  -25.9293  -11.6483   20.5726 N   0  0  0  0  0  0
  -22.0490  -12.8237   22.0409 N   0  0  0  0  0  0
  -25.4294  -15.1871   20.4028 N   0  0  0  0  0  0
  -31.8323  -14.6445   20.1313 O   0  0  0  0  0  0
  -21.6642   -6.8878   21.4244 O   0  0  0  0  0  0
  -22.3517  -14.5542   20.6686 O   0  0  0  0  0  0
  -24.6187  -31.8648   23.2079 C   0  0  0  0  0  0
  -25.9075  -32.4801   23.8362 C   0  0  1  0  0  0
  -27.2326  -27.4043   20.0735 C   0  0  0  0  0  0
  -25.5924  -33.8598   24.2286 N   0  0  0  0  0  0
  -23.4043  -30.4904   21.5525 C   0  0  2  0  0  0
  -24.8435  -28.9496   20.1153 C   0  0  0  0  0  0
  -22.7399  -29.4672   22.5010 C   0  0  0  0  0  0
  -18.0269  -28.1376   22.8503 C   0  0  0  0  0  0
  -24.1484  -36.7297   23.2640 C   0  0  0  0  0  0
  -25.9363  -30.8181   21.3645 C   0  0  0  0  0  0
  -26.0091  -29.4526   20.7031 C   0  0  0  0  0  0
  -27.2019  -28.6891   20.6757 C   0  0  0  0  0  0
  -26.0329  -26.9118   19.5069 C   0  0  0  0  0  0
  -24.8508  -27.6774   19.5202 C   0  0  0  0  0  0
  -23.6091  -29.8230   20.1684 C   0  0  0  0  0  0
  -25.4112  -36.3096   24.0332 C   0  0  1  0  0  0
  -20.5854  -28.3671   23.1318 C   0  0  2  0  0  0
  -20.6770  -26.9411   22.5412 C   0  0  0  0  0  0
  -19.5751  -26.6384   21.5213 C   0  0  0  0  0  0
  -18.1925  -26.7925   22.1628 C   0  0  0  0  0  0
  -19.1517  -28.8840   23.2906 C   0  0  0  0  0  0
  -18.9448  -30.1453   23.8905 C   0  0  0  0  0  0
  -17.6453  -30.6592   24.0567 C   0  0  0  0  0  0
  -25.9043  -34.9465   23.5104 C   0  0  0  0  0  0
  -16.5341  -29.9087   23.6341 C   0  0  0  0  0  0
  -16.7260  -28.6502   23.0361 C   0  0  0  0  0  0
  -26.4484  -31.6606   25.0709 C   0  0  0  0  0  0
  -25.3742  -31.3729   26.1460 C   0  0  0  0  0  0
  -27.0333  -30.3047   24.6126 C   0  0  0  0  0  0
  -27.6043  -32.4349   25.7464 C   0  0  0  0  0  0
  -27.5581  -37.1802   24.8473 C   0  0  0  0  0  0
  -21.4126  -29.3033   22.3719 N   0  0  0  0  0  0
  -26.4298  -37.3789   23.9408 N   0  0  0  0  0  0
  -24.6720  -31.0716   22.1000 N   0  0  0  0  0  0
  -23.4148  -28.8226   23.3081 O   0  0  0  0  0  0
  -28.4263  -26.6939   20.0847 O   0  0  0  0  0  0
  -26.5609  -34.8932   22.4665 O   0  0  0  0  0  0
  -23.5378  -32.1425   23.7463 O   0  0  0  0  0  0
  -27.7563  -19.9543   20.9838 C   0  0  0  0  0  0
  -29.0039  -20.4405   20.6862 C   0  0  0  0  0  0
  -29.4462  -18.1759   20.7192 C   0  0  0  0  0  0
  -30.2383  -16.9456   20.5594 C   0  0  0  0  0  0
  -29.8126  -15.6812   20.8113 C   0  0  0  0  0  0
  -27.5895  -22.3543   18.8997 C   0  0  0  0  0  0
  -29.9152  -25.6538   18.5737 C   0  0  0  0  0  0
  -28.6799  -24.2187   20.3144 C   0  0  0  0  0  0
  -28.8558  -22.8070   19.6509 C   0  0  1  0  0  0
  -28.6098  -25.4557   19.3564 C   0  0  1  0  0  0
  -29.9539  -19.4129   20.5624 N   0  0  0  0  0  0
  -29.3854  -21.8019   20.5978 N   0  0  0  0  0  0
  -27.7295  -18.2105   21.1131 S   0  0  0  0  0  0
  -31.4709  -12.4047   19.1378 H   0  0  0  0  0  0
  -30.3229  -11.3003   19.8339 H   0  0  0  0  0  0
  -29.7471  -11.7779   17.4289 H   0  0  0  0  0  0
  -29.6685  -13.4857   17.7779 H   0  0  0  0  0  0
  -27.8335  -11.3027   18.8182 H   0  0  0  0  0  0
  -27.3709  -12.6258   17.7799 H   0  0  0  0  0  0
  -27.6953  -14.2501   19.5569 H   0  0  0  0  0  0
  -28.6783  -11.9505   21.3141 H   0  0  0  0  0  0
  -28.4638  -13.5691   21.8820 H   0  0  0  0  0  0
  -25.2753   -9.5685   22.4719 H   0  0  0  0  0  0
  -23.9988   -7.4644   22.7481 H   0  0  0  0  0  0
  -21.0812   -8.8742   19.8968 H   0  0  0  0  0  0
  -22.3650  -10.9647   19.6160 H   0  0  0  0  0  0
  -21.2021   -7.6157   23.9723 H   0  0  0  0  0  0
  -21.1471   -6.0534   25.9077 H   0  0  0  0  0  0
  -22.0598   -2.7617   23.2838 H   0  0  0  0  0  0
  -22.4105  -11.9894   22.4779 H   0  0  0  0  0  0
  -21.1114  -13.1261   22.2650 H   0  0  0  0  0  0
  -24.6566  -15.8392   20.4874 H   0  0  0  0  0  0
  -26.2758  -15.6150   20.0509 H   0  0  0  0  0  0
  -26.7119  -32.5483   23.1093 H   0  0  0  0  0  0
  -25.0099  -33.9746   25.0453 H   0  0  0  0  0  0
  -22.6965  -31.3105   21.4150 H   0  0  0  0  0  0
  -23.3755  -35.9625   23.3320 H   0  0  0  0  0  0
  -24.3574  -36.8902   22.2053 H   0  0  0  0  0  0
  -23.7233  -37.6500   23.6648 H   0  0  0  0  0  0
  -26.0554  -31.5908   20.6034 H   0  0  0  0  0  0
  -26.8208  -30.8609   21.9885 H   0  0  0  0  0  0
  -28.1036  -29.0846   21.1205 H   0  0  0  0  0  0
  -25.9631  -25.9311   19.0636 H   0  0  0  0  0  0
  -23.9479  -27.2720   19.0833 H   0  0  0  0  0  0
  -23.7203  -30.5991   19.4110 H   0  0  0  0  0  0
  -22.7281  -29.2508   19.8718 H   0  0  0  0  0  0
  -25.1292  -36.1949   25.0828 H   0  0  0  0  0  0
  -20.9936  -28.3232   24.1444 H   0  0  0  0  0  0
  -20.5696  -26.2271   23.3593 H   0  0  0  0  0  0
  -21.6640  -26.7479   22.1187 H   0  0  0  0  0  0
  -19.6922  -25.6292   21.1249 H   0  0  0  0  0  0
  -19.6692  -27.3192   20.6739 H   0  0  0  0  0  0
  -17.4194  -26.6678   21.4027 H   0  0  0  0  0  0
  -18.0337  -26.0051   22.9011 H   0  0  0  0  0  0
  -19.7923  -30.7275   24.2256 H   0  0  0  0  0  0
  -17.5011  -31.6279   24.5157 H   0  0  0  0  0  0
  -15.5346  -30.2997   23.7661 H   0  0  0  0  0  0
  -15.8658  -28.0831   22.7065 H   0  0  0  0  0  0
  -24.5874  -30.7129   25.7792 H   0  0  0  0  0  0
  -24.8991  -32.2900   26.4951 H   0  0  0  0  0  0
  -25.8092  -30.8846   27.0192 H   0  0  0  0  0  0
  -26.2888  -29.6773   24.1208 H   0  0  0  0  0  0
  -27.4125  -29.7325   25.4605 H   0  0  0  0  0  0
  -27.8708  -30.4368   23.9270 H   0  0  0  0  0  0
  -27.2637  -33.3633   26.2064 H   0  0  0  0  0  0
  -28.3821  -32.6950   25.0269 H   0  0  0  0  0  0
  -28.0746  -31.8476   26.5361 H   0  0  0  0  0  0
  -28.2607  -38.0087   24.7510 H   0  0  0  0  0  0
  -28.1063  -36.2622   24.6309 H   0  0  0  0  0  0
  -27.2296  -37.1464   25.8875 H   0  0  0  0  0  0
  -20.9291  -29.8714   21.6905 H   0  0  0  0  0  0
  -26.0185  -38.2863   24.1422 H   0  0  0  0  0  0
  -26.8508  -20.5144   21.1654 H   0  0  0  0  0  0
  -31.2369  -17.0972   20.1723 H   0  0  0  0  0  0
  -28.8218  -15.5550   21.2143 H   0  0  0  0  0  0
  -27.3098  -23.0770   18.1330 H   0  0  0  0  0  0
  -26.7330  -22.2437   19.5641 H   0  0  0  0  0  0
  -27.7443  -21.4050   18.3848 H   0  0  0  0  0  0
  -30.1253  -24.8053   17.9237 H   0  0  0  0  0  0
  -30.7642  -25.7811   19.2467 H   0  0  0  0  0  0
  -29.8581  -26.5344   17.9327 H   0  0  0  0  0  0
  -29.5055  -24.3897   21.0074 H   0  0  0  0  0  0
  -27.7827  -24.2086   20.9340 H   0  0  0  0  0  0
  -29.6415  -22.8893   18.9011 H   0  0  0  0  0  0
  -27.8427  -25.2942   18.6056 H   0  0  0  0  0  0
  -30.3960  -21.8858   20.6729 H   0  0  0  0  0  0
  1 25  1  0  0  0
  1 30  2  0  0  0
  1 75  1  0  0  0
  2  3  1  0  0  0
  2 25  1  0  0  0
  2 84  1  0  0  0
  2 85  1  0  0  0
  3  4  1  0  0  0
  3 86  1  0  0  0
  3 87  1  0  0  0
  4  5  1  0  0  0
  4 88  1  0  0  0
  4 89  1  0  0  0
  5  6  1  0  0  0
  5 26  1  0  0  0
  5 90  1  0  0  0
  6 25  1  0  0  0
  6 91  1  0  0  0
  6 92  1  0  0  0
  7  8  2  0  0  0
  7 26  1  0  0  0
  7 29  1  0  0  0
  8  9  1  0  0  0
  8 22  1  0  0  0
  9 10  1  0  0  0
  9 27  2  0  0  0
 10 11  2  0  0  0
 10 15  1  0  0  0
 11 12  1  0  0  0
 11 93  1  0  0  0
 12 13  2  0  0  0
 12 94  1  0  0  0
 13 14  1  0  0  0
 13 31  1  0  0  0
 14 15  2  0  0  0
 14 95  1  0  0  0
 15 96  1  0  0  0
 16 17  2  0  0  0
 16 21  1  0  0  0
 16 31  1  0  0  0
 17 18  1  0  0  0
 17 97  1  0  0  0
 18 19  2  0  0  0
 18 98  1  0  0  0
 19 20  1  0  0  0
 19 24  1  0  0  0
 20 21  2  0  0  0
 20 99  1  0  0  0
 21 23  1  0  0  0
 22 28  1  0  0  0
 22 32  2  0  0  0
 26 27  1  0  0  0
 28100  1  0  0  0
 28101  1  0  0  0
 29102  1  0  0  0
 29103  1  0  0  0
 33 34  1  0  0  0
 33 66  1  0  0  0
 33 70  2  0  0  0
 34 36  1  0  0  0
 34 59  1  0  0  0
 34104  1  0  0  0
 35 44  2  0  0  0
 35 45  1  0  0  0
 35 68  1  0  0  0
 36 56  1  0  0  0
 36105  1  0  0  0
 37 39  1  0  0  0
 37 47  1  0  0  0
 37 66  1  0  0  0
 37106  1  0  0  0
 38 43  2  0  0  0
 38 46  1  0  0  0
 38 47  1  0  0  0
 39 64  1  0  0  0
 39 67  2  0  0  0
 40 52  1  0  0  0
 40 53  2  0  0  0
 40 58  1  0  0  0
 41107  1  0  0  0
 41108  1  0  0  0
 41109  1  0  0  0
 41 48  1  0  0  0
 42 43  1  0  0  0
 42 66  1  0  0  0
 42110  1  0  0  0
 42111  1  0  0  0
 43 44  1  0  0  0
 44112  1  0  0  0
 45 46  2  0  0  0
 45113  1  0  0  0
 46114  1  0  0  0
 47115  1  0  0  0
 47116  1  0  0  0
 48 56  1  0  0  0
 48 65  1  0  0  0
 48117  1  0  0  0
 49 50  1  0  0  0
 49 53  1  0  0  0
 49 64  1  0  0  0
 49118  1  0  0  0
 50 51  1  0  0  0
 50119  1  0  0  0
 50120  1  0  0  0
 51 52  1  0  0  0
 51121  1  0  0  0
 51122  1  0  0  0
 52123  1  0  0  0
 52124  1  0  0  0
 53 54  1  0  0  0
 54 55  2  0  0  0
 54125  1  0  0  0
 55 57  1  0  0  0
 55126  1  0  0  0
 56 69  2  0  0  0
 57 58  2  0  0  0
 57127  1  0  0  0
 58128  1  0  0  0
 59 60  1  0  0  0
 59 61  1  0  0  0
 59 62  1  0  0  0
 60129  1  0  0  0
 60130  1  0  0  0
 60131  1  0  0  0
 61132  1  0  0  0
 61133  1  0  0  0
 61134  1  0  0  0
 62135  1  0  0  0
 62136  1  0  0  0
 62137  1  0  0  0
 63 65  1  0  0  0
 63138  1  0  0  0
 63139  1  0  0  0
 63140  1  0  0  0
 64141  1  0  0  0
 65142  1  0  0  0
 68 80  1  0  0  0
 71 72  2  0  0  0
 71 83  1  0  0  0
 71143  1  0  0  0
 72 81  1  0  0  0
 72 82  1  0  0  0
 73 74  1  0  0  0
 73 81  2  0  0  0
 73 83  1  0  0  0
 74 75  2  0  0  0
 74144  1  0  0  0
 75145  1  0  0  0
 76146  1  0  0  0
 76147  1  0  0  0
 76148  1  0  0  0
 76 79  1  0  0  0
 77149  1  0  0  0
 77150  1  0  0  0
 77151  1  0  0  0
 77 80  1  0  0  0
 78 79  1  0  0  0
 78 80  1  0  0  0
 78152  1  0  0  0
 78153  1  0  0  0
 79 82  1  0  0  0
 79154  1  0  0  0
 80155  1  0  0  0
 82156  1  0  0  0
M  ISO  4   1 100  68 101  75 100  80 101
M  END
> <chiral flag>
0

> <version>
0

> <s_m_source_file>
/data/baiqing/PycharmProjects/Reinvent-master-3.2/result/LINK_invent/BTK/process_docking_weight1_custom_product_contain_oxygen_bond_distance_aromatic_linkinvent_7_9_3/rearranged_h_0189.sdf

> <i_m_source_file_index>
9

> <r_mmod_Potential_Energy-OPLS-2005>
-117.485488891602

> <r_mmod_Stretch_Energy-OPLS-2005>
42.7149772644043

> <r_mmod_Bend_Energy-OPLS-2005>
120.998565673828

> <r_mmod_Torsional_Energy-OPLS-2005>
195.770874023438

> <r_mmod_Improper_Torsional_Energy-OPLS-2005>
9.70707607269287

> <r_mmod_Van_der_Waal_Energy-OPLS-2005>
132.397720336914

> <r_mmod_Electrostatic_Energy-OPLS-2005>
-431.701507568359

> <r_mmod_Solvation_Energy-OPLS-2005>
-206.77864074707

> <b_mmod_Minimization_Converged-OPLS-2005>
0

> <r_mmod_RMS_Derivative-OPLS-2005>
2.5923855304718

$$$$
9
                    3D
 Structure written by MMmdl.
167175  0  0  1  0            999 V2000
  -30.7474  -14.3943   20.6399 C   0  0  0  0  0  0
  -30.4223  -12.2908   19.4073 C   0  0  0  0  0  0
  -29.4937  -12.5094   18.1971 C   0  0  0  0  0  0
  -28.0140  -12.3790   18.6060 C   0  0  0  0  0  0
  -27.6638  -13.2082   19.8720 C   0  0  2  0  0  0
  -28.6978  -12.9601   20.9923 C   0  0  0  0  0  0
  -25.2591  -13.8155   20.5664 C   0  0  0  0  0  0
  -24.1840  -13.0448   20.9162 C   0  0  0  0  0  0
  -24.6373  -11.6903   20.8698 C   0  0  0  0  0  0
  -23.9029  -10.4300   21.0354 C   0  0  0  0  0  0
  -24.3566   -9.4215   21.9147 C   0  0  0  0  0  0
  -23.6252   -8.2251   22.0735 C   0  0  0  0  0  0
  -22.4244   -8.0272   21.3529 C   0  0  0  0  0  0
  -21.9861   -9.0236   20.4629 C   0  0  0  0  0  0
  -22.7198  -10.2118   20.3030 C   0  0  0  0  0  0
  -21.6833   -6.0717   22.5277 C   0  0  0  0  0  0
  -21.4007   -6.5628   23.8214 C   0  0  0  0  0  0
  -21.3664   -5.6788   24.9187 C   0  0  0  0  0  0
  -21.6036   -4.3049   24.7231 C   0  0  0  0  0  0
  -21.8815   -3.8140   23.4356 C   0  0  0  0  0  0
  -21.9189   -4.6949   22.3407 C   0  0  0  0  0  0
  -22.7865  -13.5225   21.1836 C   0  0  0  0  0  0
  -22.1659   -4.2145   21.0983 F   0  0  0  0  0  0
  -21.5631   -3.4530   25.7741 F   0  0  0  0  0  0
  -30.0396  -13.2511   20.4550 N   0  0  0  0  0  0
  -26.3015  -12.9328   20.3303 N   0  0  0  0  0  0
  -25.9289  -11.6478   20.5660 N   0  0  0  0  0  0
  -22.0460  -12.8256   22.0384 N   0  0  0  0  0  0
  -25.4327  -15.1886   20.4150 N   0  0  0  0  0  0
  -31.8182  -14.6055   20.0634 O   0  0  0  0  0  0
  -21.6615   -6.8857   21.4245 O   0  0  0  0  0  0
  -22.3573  -14.5532   20.6672 O   0  0  0  0  0  0
  -24.6168  -31.8669   23.2098 C   0  0  0  0  0  0
  -25.9073  -32.4811   23.8403 C   0  0  1  0  0  0
  -27.2417  -27.4357   20.0951 C   0  0  0  0  0  0
  -25.5905  -33.8617   24.2305 N   0  0  0  0  0  0
  -23.4017  -30.4921   21.5505 C   0  0  2  0  0  0
  -24.8440  -28.9471   20.1225 C   0  0  0  0  0  0
  -22.7396  -29.4709   22.5025 C   0  0  0  0  0  0
  -18.0279  -28.1402   22.8483 C   0  0  0  0  0  0
  -24.1487  -36.7336   23.2630 C   0  0  0  0  0  0
  -25.9267  -30.8330   21.3558 C   0  0  0  0  0  0
  -26.0028  -29.4644   20.7123 C   0  0  0  0  0  0
  -27.1996  -28.7166   20.6929 C   0  0  0  0  0  0
  -26.0566  -26.9262   19.5104 C   0  0  0  0  0  0
  -24.8646  -27.6766   19.5225 C   0  0  0  0  0  0
  -23.6068  -29.8159   20.1674 C   0  0  0  0  0  0
  -25.4107  -36.3107   24.0317 C   0  0  1  0  0  0
  -20.5858  -28.3707   23.1287 C   0  0  2  0  0  0
  -20.6767  -26.9452   22.5399 C   0  0  0  0  0  0
  -19.5736  -26.6411   21.5204 C   0  0  0  0  0  0
  -18.1924  -26.7942   22.1628 C   0  0  0  0  0  0
  -19.1525  -28.8873   23.2881 C   0  0  0  0  0  0
  -18.9459  -30.1474   23.8900 C   0  0  0  0  0  0
  -17.6461  -30.6599   24.0590 C   0  0  0  0  0  0
  -25.9039  -34.9472   23.5112 C   0  0  0  0  0  0
  -16.5356  -29.9115   23.6318 C   0  0  0  0  0  0
  -16.7271  -28.6535   23.0328 C   0  0  0  0  0  0
  -26.4486  -31.6587   25.0739 C   0  0  0  0  0  0
  -25.3724  -31.3720   26.1472 C   0  0  0  0  0  0
  -27.0307  -30.3025   24.6096 C   0  0  0  0  0  0
  -27.6062  -32.4309   25.7501 C   0  0  0  0  0  0
  -27.5575  -37.1820   24.8457 C   0  0  0  0  0  0
  -21.4133  -29.3066   22.3697 N   0  0  0  0  0  0
  -26.4282  -37.3800   23.9404 N   0  0  0  0  0  0
  -24.6677  -31.0775   22.0990 N   0  0  0  0  0  0
  -23.4145  -28.8267   23.3111 O   0  0  0  0  0  0
  -28.4612  -26.7862   20.0789 O   0  0  0  0  0  0
  -26.5625  -34.8935   22.4688 O   0  0  0  0  0  0
  -23.5359  -32.1455   23.7479 O   0  0  0  0  0  0
  -31.9130  -17.1323   21.4294 C   0  0  0  0  0  0
  -30.6705  -16.6261   21.7105 C   0  0  0  0  0  0
  -30.6912  -18.7381   22.3807 C   0  0  0  0  0  0
  -29.8038  -19.8477   24.4271 C   0  0  0  0  0  0
  -27.7995  -22.4949   23.3339 C   0  0  0  0  0  0
  -32.9986  -19.3932   21.7437 C   0  0  0  0  0  0
  -29.2200  -20.7791   22.0625 C   0  0  0  0  0  0
  -28.7537  -23.0937   21.0429 C   0  0  0  0  0  0
  -28.5815  -25.3754   19.8403 C   0  0  0  0  0  0
  -30.2525  -20.0552   22.9717 C   0  0  2  0  0  0
  -28.9797  -22.2898   22.3560 C   0  0  1  0  0  0
  -28.8853  -24.6361   21.1648 C   0  0  1  0  0  0
  -31.8909  -18.4388   21.8425 N   0  0  0  0  0  0
  -29.9465  -17.6228   22.3092 N   0  3  0  0  0  0
  -30.1834  -15.3094   21.4494 N   0  0  0  0  0  0
  -30.2264  -24.9244   21.5355 O   0  0  0  0  0  0
  -31.4646  -12.3918   19.0955 H   0  0  0  0  0  0
  -30.3295  -11.2699   19.7833 H   0  0  0  0  0  0
  -29.7246  -11.7879   17.4125 H   0  0  0  0  0  0
  -29.6785  -13.4944   17.7655 H   0  0  0  0  0  0
  -27.8167  -11.3228   18.7915 H   0  0  0  0  0  0
  -27.3677  -12.6712   17.7749 H   0  0  0  0  0  0
  -27.7170  -14.2608   19.5915 H   0  0  0  0  0  0
  -28.6527  -11.9183   21.3106 H   0  0  0  0  0  0
  -28.4499  -13.5424   21.8804 H   0  0  0  0  0  0
  -25.2690   -9.5702   22.4740 H   0  0  0  0  0  0
  -23.9955   -7.4637   22.7450 H   0  0  0  0  0  0
  -21.0796   -8.8726   19.8938 H   0  0  0  0  0  0
  -22.3605  -10.9640   19.6149 H   0  0  0  0  0  0
  -21.2002   -7.6142   23.9722 H   0  0  0  0  0  0
  -21.1484   -6.0514   25.9080 H   0  0  0  0  0  0
  -22.0590   -2.7595   23.2854 H   0  0  0  0  0  0
  -22.4028  -11.9942   22.4869 H   0  0  0  0  0  0
  -21.1074  -13.1340   22.2494 H   0  0  0  0  0  0
  -24.6633  -15.8401   20.5341 H   0  0  0  0  0  0
  -26.2831  -15.6302   20.0875 H   0  0  0  0  0  0
  -26.7156  -32.5516   23.1179 H   0  0  0  0  0  0
  -25.0028  -33.9774   25.0431 H   0  0  0  0  0  0
  -22.6929  -31.3106   21.4118 H   0  0  0  0  0  0
  -23.3730  -35.9690   23.3302 H   0  0  0  0  0  0
  -24.3554  -36.8968   22.2042 H   0  0  0  0  0  0
  -23.7274  -37.6555   23.6656 H   0  0  0  0  0  0
  -26.0200  -31.5871   20.5732 H   0  0  0  0  0  0
  -26.8208  -30.8982   21.9643 H   0  0  0  0  0  0
  -28.0988  -29.1246   21.1348 H   0  0  0  0  0  0
  -26.0137  -25.9703   19.0152 H   0  0  0  0  0  0
  -23.9742  -27.2667   19.0642 H   0  0  0  0  0  0
  -23.7122  -30.5855   19.4021 H   0  0  0  0  0  0
  -22.7278  -29.2342   19.8858 H   0  0  0  0  0  0
  -25.1284  -36.1964   25.0806 H   0  0  0  0  0  0
  -20.9945  -28.3316   24.1406 H   0  0  0  0  0  0
  -20.5651  -26.2377   23.3621 H   0  0  0  0  0  0
  -21.6658  -26.7496   22.1221 H   0  0  0  0  0  0
  -19.6922  -25.6318   21.1251 H   0  0  0  0  0  0
  -19.6659  -27.3216   20.6717 H   0  0  0  0  0  0
  -17.4200  -26.6672   21.4039 H   0  0  0  0  0  0
  -18.0357  -26.0082   22.9021 H   0  0  0  0  0  0
  -19.7948  -30.7288   24.2261 H   0  0  0  0  0  0
  -17.5032  -31.6263   24.5235 H   0  0  0  0  0  0
  -15.5364  -30.3034   23.7624 H   0  0  0  0  0  0
  -15.8669  -28.0871   22.6993 H   0  0  0  0  0  0
  -24.5865  -30.7112   25.7806 H   0  0  0  0  0  0
  -24.8949  -32.2890   26.4934 H   0  0  0  0  0  0
  -25.8023  -30.8866   27.0234 H   0  0  0  0  0  0
  -26.2855  -29.6810   24.1107 H   0  0  0  0  0  0
  -27.4060  -29.7232   25.4546 H   0  0  0  0  0  0
  -27.8701  -30.4388   23.9264 H   0  0  0  0  0  0
  -27.2681  -33.3590   26.2129 H   0  0  0  0  0  0
  -28.3833  -32.6893   25.0297 H   0  0  0  0  0  0
  -28.0771  -31.8401   26.5371 H   0  0  0  0  0  0
  -28.2598  -38.0112   24.7482 H   0  0  0  0  0  0
  -28.1050  -36.2635   24.6286 H   0  0  0  0  0  0
  -27.2276  -37.1499   25.8856 H   0  0  0  0  0  0
  -20.9312  -29.8770   21.6884 H   0  0  0  0  0  0
  -26.0163  -38.2878   24.1397 H   0  0  0  0  0  0
  -32.7877  -16.6884   20.9738 H   0  0  0  0  0  0
  -29.6314  -20.7940   24.9337 H   0  0  0  0  0  0
  -30.5796  -19.3279   24.9915 H   0  0  0  0  0  0
  -28.9003  -19.2445   24.4935 H   0  0  0  0  0  0
  -27.9361  -21.9659   24.2741 H   0  0  0  0  0  0
  -26.8604  -22.1433   22.9066 H   0  0  0  0  0  0
  -27.6795  -23.5449   23.5990 H   0  0  0  0  0  0
  -32.6624  -20.2963   21.2320 H   0  0  0  0  0  0
  -33.8232  -18.9528   21.1815 H   0  0  0  0  0  0
  -33.3450  -19.6401   22.7478 H   0  0  0  0  0  0
  -28.2741  -20.2408   22.0352 H   0  0  0  0  0  0
  -29.6160  -20.6951   21.0489 H   0  0  0  0  0  0
  -27.7655  -22.8550   20.6444 H   0  0  0  0  0  0
  -29.4620  -22.7537   20.2839 H   0  0  0  0  0  0
  -27.7113  -24.9286   19.3723 H   0  0  0  0  0  0
  -29.3906  -25.2160   19.1235 H   0  0  0  0  0  0
  -31.1464  -20.6753   23.0020 H   0  0  0  0  0  0
  -29.8836  -22.6833   22.8277 H   0  0  0  0  0  0
  -28.2073  -25.0075   21.9356 H   0  0  0  0  0  0
  -28.9995  -17.5484   22.6582 H   0  0  0  0  0  0
  -29.2939  -15.0479   21.8451 H   0  0  0  0  0  0
  -30.7954  -24.6384   20.8289 H   0  0  0  0  0  0
  1 25  1  0  0  0
  1 30  2  0  0  0
  1 85  1  0  0  0
  2  3  1  0  0  0
  2 25  1  0  0  0
  2 87  1  0  0  0
  2 88  1  0  0  0
  3  4  1  0  0  0
  3 89  1  0  0  0
  3 90  1  0  0  0
  4  5  1  0  0  0
  4 91  1  0  0  0
  4 92  1  0  0  0
  5  6  1  0  0  0
  5 26  1  0  0  0
  5 93  1  0  0  0
  6 25  1  0  0  0
  6 94  1  0  0  0
  6 95  1  0  0  0
  7  8  2  0  0  0
  7 26  1  0  0  0
  7 29  1  0  0  0
  8  9  1  0  0  0
  8 22  1  0  0  0
  9 10  1  0  0  0
  9 27  2  0  0  0
 10 11  2  0  0  0
 10 15  1  0  0  0
 11 12  1  0  0  0
 11 96  1  0  0  0
 12 13  2  0  0  0
 12 97  1  0  0  0
 13 14  1  0  0  0
 13 31  1  0  0  0
 14 15  2  0  0  0
 14 98  1  0  0  0
 15 99  1  0  0  0
 16 17  2  0  0  0
 16 21  1  0  0  0
 16 31  1  0  0  0
 17 18  1  0  0  0
 17100  1  0  0  0
 18 19  2  0  0  0
 18101  1  0  0  0
 19 20  1  0  0  0
 19 24  1  0  0  0
 20 21  2  0  0  0
 20102  1  0  0  0
 21 23  1  0  0  0
 22 28  1  0  0  0
 22 32  2  0  0  0
 26 27  1  0  0  0
 28103  1  0  0  0
 28104  1  0  0  0
 29105  1  0  0  0
 29106  1  0  0  0
 33 34  1  0  0  0
 33 66  1  0  0  0
 33 70  2  0  0  0
 34 36  1  0  0  0
 34 59  1  0  0  0
 34107  1  0  0  0
 35 44  2  0  0  0
 35 45  1  0  0  0
 35 68  1  0  0  0
 36 56  1  0  0  0
 36108  1  0  0  0
 37 39  1  0  0  0
 37 47  1  0  0  0
 37 66  1  0  0  0
 37109  1  0  0  0
 38 43  2  0  0  0
 38 46  1  0  0  0
 38 47  1  0  0  0
 39 64  1  0  0  0
 39 67  2  0  0  0
 40 52  1  0  0  0
 40 53  2  0  0  0
 40 58  1  0  0  0
 41110  1  0  0  0
 41111  1  0  0  0
 41112  1  0  0  0
 41 48  1  0  0  0
 42 43  1  0  0  0
 42 66  1  0  0  0
 42113  1  0  0  0
 42114  1  0  0  0
 43 44  1  0  0  0
 44115  1  0  0  0
 45 46  2  0  0  0
 45116  1  0  0  0
 46117  1  0  0  0
 47118  1  0  0  0
 47119  1  0  0  0
 48 56  1  0  0  0
 48 65  1  0  0  0
 48120  1  0  0  0
 49 50  1  0  0  0
 49 53  1  0  0  0
 49 64  1  0  0  0
 49121  1  0  0  0
 50 51  1  0  0  0
 50122  1  0  0  0
 50123  1  0  0  0
 51 52  1  0  0  0
 51124  1  0  0  0
 51125  1  0  0  0
 52126  1  0  0  0
 52127  1  0  0  0
 53 54  1  0  0  0
 54 55  2  0  0  0
 54128  1  0  0  0
 55 57  1  0  0  0
 55129  1  0  0  0
 56 69  2  0  0  0
 57 58  2  0  0  0
 57130  1  0  0  0
 58131  1  0  0  0
 59 60  1  0  0  0
 59 61  1  0  0  0
 59 62  1  0  0  0
 60132  1  0  0  0
 60133  1  0  0  0
 60134  1  0  0  0
 61135  1  0  0  0
 61136  1  0  0  0
 61137  1  0  0  0
 62138  1  0  0  0
 62139  1  0  0  0
 62140  1  0  0  0
 63 65  1  0  0  0
 63141  1  0  0  0
 63142  1  0  0  0
 63143  1  0  0  0
 64144  1  0  0  0
 65145  1  0  0  0
 68 79  1  0  0  0
 71 72  2  0  0  0
 71 83  1  0  0  0
 71146  1  0  0  0
 72 84  1  0  0  0
 72 85  1  0  0  0
 73 80  1  0  0  0
 73 83  1  0  0  0
 73 84  2  0  0  0
 74147  1  0  0  0
 74148  1  0  0  0
 74149  1  0  0  0
 74 80  1  0  0  0
 75150  1  0  0  0
 75151  1  0  0  0
 75152  1  0  0  0
 75 81  1  0  0  0
 76 83  1  0  0  0
 76153  1  0  0  0
 76154  1  0  0  0
 76155  1  0  0  0
 77 80  1  0  0  0
 77 81  1  0  0  0
 77156  1  0  0  0
 77157  1  0  0  0
 78 81  1  0  0  0
 78 82  1  0  0  0
 78158  1  0  0  0
 78159  1  0  0  0
 79 82  1  0  0  0
 79160  1  0  0  0
 79161  1  0  0  0
 80162  1  0  0  0
 81163  1  0  0  0
 82 86  1  0  0  0
 82164  1  0  0  0
 84165  1  0  0  0
 85166  1  0  0  0
 86167  1  0  0  0
M  CHG  1  84   1
M  ISO  4   1 100  68 101  79 101  85 100
M  END
> <chiral flag>
0

> <version>
0

> <s_m_source_file>
/data/baiqing/PycharmProjects/Reinvent-master-3.2/result/LINK_invent/BTK/process_docking_weight1_custom_product_contain_oxygen_bond_distance_aromatic_linkinvent_7_9_3/rearranged_h_0189.sdf

> <i_m_source_file_index>
10

> <r_mmod_Potential_Energy-OPLS-2005>
-114.660232543945

> <r_mmod_Stretch_Energy-OPLS-2005>
37.0238800048828

> <r_mmod_Bend_Energy-OPLS-2005>
120.44718170166

> <r_mmod_Torsional_Energy-OPLS-2005>
234.333267211914

> <r_mmod_Improper_Torsional_Energy-OPLS-2005>
2.13147330284119

> <r_mmod_Van_der_Waal_Energy-OPLS-2005>
142.509094238281

> <r_mmod_Electrostatic_Energy-OPLS-2005>
-225.251434326172

> <r_mmod_Solvation_Energy-OPLS-2005>
-435.277221679688

> <b_mmod_Minimization_Converged-OPLS-2005>
0

> <r_mmod_RMS_Derivative-OPLS-2005>
4.30263519287109

$$$$
10
                    3D
 Structure written by MMmdl.
151159  0  0  1  0            999 V2000
  -30.5891  -14.7794   20.4666 C   0  0  0  0  0  0
  -30.4371  -12.4838   19.4721 C   0  0  0  0  0  0
  -29.5130  -12.5058   18.2355 C   0  0  0  0  0  0
  -28.0402  -12.3223   18.6500 C   0  0  0  0  0  0
  -27.6380  -13.2300   19.8431 C   0  0  2  0  0  0
  -28.6802  -13.1766   20.9802 C   0  0  0  0  0  0
  -25.2496  -13.8191   20.5679 C   0  0  0  0  0  0
  -24.1798  -13.0440   20.9208 C   0  0  0  0  0  0
  -24.6385  -11.6916   20.8737 C   0  0  0  0  0  0
  -23.9052  -10.4289   21.0410 C   0  0  0  0  0  0
  -24.3606   -9.4203   21.9187 C   0  0  0  0  0  0
  -23.6281   -8.2237   22.0758 C   0  0  0  0  0  0
  -22.4262   -8.0273   21.3542 C   0  0  0  0  0  0
  -21.9888   -9.0249   20.4649 C   0  0  0  0  0  0
  -22.7216  -10.2131   20.3062 C   0  0  0  0  0  0
  -21.6853   -6.0738   22.5282 C   0  0  0  0  0  0
  -21.4011   -6.5641   23.8219 C   0  0  0  0  0  0
  -21.3655   -5.6791   24.9177 C   0  0  0  0  0  0
  -21.6050   -4.3057   24.7228 C   0  0  0  0  0  0
  -21.8818   -3.8145   23.4349 C   0  0  0  0  0  0
  -21.9191   -4.6962   22.3406 C   0  0  0  0  0  0
  -22.7825  -13.5236   21.1855 C   0  0  0  0  0  0
  -22.1664   -4.2143   21.0986 F   0  0  0  0  0  0
  -21.5618   -3.4542   25.7745 F   0  0  0  0  0  0
  -29.9720  -13.5475   20.3934 N   0  0  0  0  0  0
  -26.2913  -12.9389   20.3225 N   0  0  0  0  0  0
  -25.9306  -11.6532   20.5714 N   0  0  0  0  0  0
  -22.0463  -12.8240   22.0422 N   0  0  0  0  0  0
  -25.4195  -15.1915   20.4128 N   0  0  0  0  0  0
  -31.7859  -14.8713   20.1796 O   0  0  0  0  0  0
  -21.6635   -6.8866   21.4241 O   0  0  0  0  0  0
  -22.3505  -14.5540   20.6697 O   0  0  0  0  0  0
  -24.6318  -31.8527   23.1959 C   0  0  0  0  0  0
  -25.9124  -32.4756   23.8312 C   0  0  1  0  0  0
  -27.2217  -27.2507   20.1449 C   0  0  0  0  0  0
  -25.5916  -33.8560   24.2237 N   0  0  0  0  0  0
  -23.4306  -30.4703   21.5400 C   0  0  2  0  0  0
  -24.8812  -28.9105   20.1140 C   0  0  0  0  0  0
  -22.7499  -29.4585   22.4930 C   0  0  0  0  0  0
  -18.0275  -28.1387   22.8492 C   0  0  0  0  0  0
  -24.1480  -36.7274   23.2642 C   0  0  0  0  0  0
  -25.9752  -30.7630   21.3758 C   0  0  0  0  0  0
  -26.0500  -29.3810   20.7258 C   0  0  0  0  0  0
  -27.2266  -28.5644   20.7272 C   0  0  0  0  0  0
  -26.0374  -26.8468   19.4999 C   0  0  0  0  0  0
  -24.8790  -27.6513   19.4873 C   0  0  0  0  0  0
  -23.6492  -29.7962   20.1593 C   0  0  0  0  0  0
  -25.4108  -36.3062   24.0329 C   0  0  1  0  0  0
  -20.5885  -28.3692   23.1276 C   0  0  2  0  0  0
  -20.6764  -26.9405   22.5410 C   0  0  0  0  0  0
  -19.5740  -26.6387   21.5210 C   0  0  0  0  0  0
  -18.1923  -26.7933   22.1629 C   0  0  0  0  0  0
  -19.1533  -28.8858   23.2884 C   0  0  0  0  0  0
  -18.9455  -30.1463   23.8899 C   0  0  0  0  0  0
  -17.6455  -30.6591   24.0560 C   0  0  0  0  0  0
  -25.9053  -34.9442   23.5085 C   0  0  0  0  0  0
  -16.5344  -29.9083   23.6335 C   0  0  0  0  0  0
  -16.7266  -28.6497   23.0362 C   0  0  0  0  0  0
  -26.4492  -31.6579   25.0709 C   0  0  0  0  0  0
  -25.3706  -31.3739   26.1412 C   0  0  0  0  0  0
  -27.0348  -30.3004   24.6192 C   0  0  0  0  0  0
  -27.6052  -32.4327   25.7475 C   0  0  0  0  0  0
  -27.5570  -37.1792   24.8470 C   0  0  0  0  0  0
  -21.4208  -29.3033   22.3663 N   0  0  0  0  0  0
  -26.4284  -37.3764   23.9414 N   0  0  0  0  0  0
  -24.6982  -31.0474   22.0940 N   0  0  0  0  0  0
  -23.4184  -28.8121   23.3043 O   0  0  0  0  0  0
  -28.3163  -26.3558   20.1397 O   0  0  0  0  0  0
  -26.5635  -34.8921   22.4666 O   0  0  0  0  0  0
  -23.5459  -32.1367   23.7235 O   0  0  0  0  0  0
  -28.3189  -18.7111   19.6687 C   0  0  0  0  0  0
  -29.4282  -18.6837   20.4799 C   0  0  0  0  0  0
  -29.6965  -20.0819   20.9052 C   0  0  0  0  0  0
  -28.8716  -21.1219   20.4242 C   0  0  0  0  0  0
  -28.2835  -23.6291   20.1580 C   0  0  0  0  0  0
  -27.2460  -25.0752   22.0364 C   0  0  0  0  0  0
  -30.2880  -17.3803   20.8262 C   0  0  0  0  0  0
  -28.3079  -25.0558   20.9212 C   0  0  2  0  0  0
  -28.9017  -22.5078   20.7138 N   0  0  0  0  0  0
  -29.8171  -15.9231   20.6740 N   0  0  0  0  0  0
  -27.6976  -23.5608   19.0740 O   0  0  0  0  0  0
  -27.6727  -20.3385   19.4088 S   0  0  0  0  0  0
  -31.0082  -20.3606   21.9519 Cl  0  0  0  0  0  0
  -31.4745  -12.6300   19.1644 H   0  0  0  0  0  0
  -30.4049  -11.5106   19.9654 H   0  0  0  0  0  0
  -29.8046  -11.7258   17.5306 H   0  0  0  0  0  0
  -29.6277  -13.4545   17.7098 H   0  0  0  0  0  0
  -27.9061  -11.2754   18.9238 H   0  0  0  0  0  0
  -27.3815  -12.4986   17.7992 H   0  0  0  0  0  0
  -27.6272  -14.2475   19.4510 H   0  0  0  0  0  0
  -28.4065  -13.8563   21.7884 H   0  0  0  0  0  0
  -28.7283  -12.1799   21.4209 H   0  0  0  0  0  0
  -25.2759   -9.5700   22.4745 H   0  0  0  0  0  0
  -24.0002   -7.4646   22.7489 H   0  0  0  0  0  0
  -21.0805   -8.8766   19.8972 H   0  0  0  0  0  0
  -22.3663  -10.9668   19.6166 H   0  0  0  0  0  0
  -21.2007   -7.6149   23.9717 H   0  0  0  0  0  0
  -21.1472   -6.0524   25.9080 H   0  0  0  0  0  0
  -22.0596   -2.7604   23.2856 H   0  0  0  0  0  0
  -22.4060  -11.9901   22.4836 H   0  0  0  0  0  0
  -21.1081  -13.1284   22.2617 H   0  0  0  0  0  0
  -24.6499  -15.8409   20.5304 H   0  0  0  0  0  0
  -26.2579  -15.6328   20.0605 H   0  0  0  0  0  0
  -26.7191  -32.5412   23.1056 H   0  0  0  0  0  0
  -25.0047  -33.9694   25.0371 H   0  0  0  0  0  0
  -22.7278  -31.2932   21.3894 H   0  0  0  0  0  0
  -23.3746  -35.9599   23.3304 H   0  0  0  0  0  0
  -24.3564  -36.8903   22.2057 H   0  0  0  0  0  0
  -23.7228  -37.6475   23.6667 H   0  0  0  0  0  0
  -26.1075  -31.5173   20.5986 H   0  0  0  0  0  0
  -26.8554  -30.8213   22.0055 H   0  0  0  0  0  0
  -28.1258  -28.9191   21.2114 H   0  0  0  0  0  0
  -26.0063  -25.8788   19.0200 H   0  0  0  0  0  0
  -23.9866  -27.2873   18.9973 H   0  0  0  0  0  0
  -23.7672  -30.5681   19.3974 H   0  0  0  0  0  0
  -22.7705  -29.2218   19.8605 H   0  0  0  0  0  0
  -25.1288  -36.1913   25.0821 H   0  0  0  0  0  0
  -20.9976  -28.3264   24.1399 H   0  0  0  0  0  0
  -20.5657  -26.2292   23.3610 H   0  0  0  0  0  0
  -21.6634  -26.7428   22.1208 H   0  0  0  0  0  0
  -19.6899  -25.6296   21.1245 H   0  0  0  0  0  0
  -19.6689  -27.3193   20.6736 H   0  0  0  0  0  0
  -17.4190  -26.6677   21.4036 H   0  0  0  0  0  0
  -18.0331  -26.0074   22.9026 H   0  0  0  0  0  0
  -19.7931  -30.7282   24.2271 H   0  0  0  0  0  0
  -17.5002  -31.6274   24.5153 H   0  0  0  0  0  0
  -15.5344  -30.2981   23.7665 H   0  0  0  0  0  0
  -15.8666  -28.0816   22.7086 H   0  0  0  0  0  0
  -24.5876  -30.7098   25.7716 H   0  0  0  0  0  0
  -24.8897  -32.2914   26.4825 H   0  0  0  0  0  0
  -25.8002  -30.8909   27.0202 H   0  0  0  0  0  0
  -26.2938  -29.6757   24.1191 H   0  0  0  0  0  0
  -27.4001  -29.7261   25.4721 H   0  0  0  0  0  0
  -27.8818  -30.4283   23.9451 H   0  0  0  0  0  0
  -27.2659  -33.3631   26.2044 H   0  0  0  0  0  0
  -28.3855  -32.6891   25.0294 H   0  0  0  0  0  0
  -28.0721  -31.8461   26.5402 H   0  0  0  0  0  0
  -28.2593  -38.0081   24.7498 H   0  0  0  0  0  0
  -28.1056  -36.2617   24.6307 H   0  0  0  0  0  0
  -27.2290  -37.1451   25.8872 H   0  0  0  0  0  0
  -20.9384  -29.8738   21.6864 H   0  0  0  0  0  0
  -26.0162  -38.2837   24.1421 H   0  0  0  0  0  0
  -27.8446  -17.8743   19.1724 H   0  0  0  0  0  0
  -27.3481  -25.9672   22.6545 H   0  0  0  0  0  0
  -27.3452  -24.2107   22.6922 H   0  0  0  0  0  0
  -26.2359  -25.0608   21.6290 H   0  0  0  0  0  0
  -30.6073  -17.4618   21.8659 H   0  0  0  0  0  0
  -31.2159  -17.4607   20.2585 H   0  0  0  0  0  0
  -29.2713  -25.0705   21.4297 H   0  0  0  0  0  0
  -29.4643  -22.7337   21.5215 H   0  0  0  0  0  0
  -28.8350  -15.7639   20.8409 H   0  0  0  0  0  0
  1 25  1  0  0  0
  1 30  2  0  0  0
  1 80  1  0  0  0
  2  3  1  0  0  0
  2 25  1  0  0  0
  2 84  1  0  0  0
  2 85  1  0  0  0
  3  4  1  0  0  0
  3 86  1  0  0  0
  3 87  1  0  0  0
  4  5  1  0  0  0
  4 88  1  0  0  0
  4 89  1  0  0  0
  5  6  1  0  0  0
  5 26  1  0  0  0
  5 90  1  0  0  0
  6 25  1  0  0  0
  6 91  1  0  0  0
  6 92  1  0  0  0
  7  8  2  0  0  0
  7 26  1  0  0  0
  7 29  1  0  0  0
  8  9  1  0  0  0
  8 22  1  0  0  0
  9 10  1  0  0  0
  9 27  2  0  0  0
 10 11  2  0  0  0
 10 15  1  0  0  0
 11 12  1  0  0  0
 11 93  1  0  0  0
 12 13  2  0  0  0
 12 94  1  0  0  0
 13 14  1  0  0  0
 13 31  1  0  0  0
 14 15  2  0  0  0
 14 95  1  0  0  0
 15 96  1  0  0  0
 16 17  2  0  0  0
 16 21  1  0  0  0
 16 31  1  0  0  0
 17 18  1  0  0  0
 17 97  1  0  0  0
 18 19  2  0  0  0
 18 98  1  0  0  0
 19 20  1  0  0  0
 19 24  1  0  0  0
 20 21  2  0  0  0
 20 99  1  0  0  0
 21 23  1  0  0  0
 22 28  1  0  0  0
 22 32  2  0  0  0
 26 27  1  0  0  0
 28100  1  0  0  0
 28101  1  0  0  0
 29102  1  0  0  0
 29103  1  0  0  0
 33 34  1  0  0  0
 33 66  1  0  0  0
 33 70  2  0  0  0
 34 36  1  0  0  0
 34 59  1  0  0  0
 34104  1  0  0  0
 35 44  2  0  0  0
 35 45  1  0  0  0
 35 68  1  0  0  0
 36 56  1  0  0  0
 36105  1  0  0  0
 37 39  1  0  0  0
 37 47  1  0  0  0
 37 66  1  0  0  0
 37106  1  0  0  0
 38 43  2  0  0  0
 38 46  1  0  0  0
 38 47  1  0  0  0
 39 64  1  0  0  0
 39 67  2  0  0  0
 40 52  1  0  0  0
 40 53  2  0  0  0
 40 58  1  0  0  0
 41107  1  0  0  0
 41108  1  0  0  0
 41109  1  0  0  0
 41 48  1  0  0  0
 42 43  1  0  0  0
 42 66  1  0  0  0
 42110  1  0  0  0
 42111  1  0  0  0
 43 44  1  0  0  0
 44112  1  0  0  0
 45 46  2  0  0  0
 45113  1  0  0  0
 46114  1  0  0  0
 47115  1  0  0  0
 47116  1  0  0  0
 48 56  1  0  0  0
 48 65  1  0  0  0
 48117  1  0  0  0
 49 50  1  0  0  0
 49 53  1  0  0  0
 49 64  1  0  0  0
 49118  1  0  0  0
 50 51  1  0  0  0
 50119  1  0  0  0
 50120  1  0  0  0
 51 52  1  0  0  0
 51121  1  0  0  0
 51122  1  0  0  0
 52123  1  0  0  0
 52124  1  0  0  0
 53 54  1  0  0  0
 54 55  2  0  0  0
 54125  1  0  0  0
 55 57  1  0  0  0
 55126  1  0  0  0
 56 69  2  0  0  0
 57 58  2  0  0  0
 57127  1  0  0  0
 58128  1  0  0  0
 59 60  1  0  0  0
 59 61  1  0  0  0
 59 62  1  0  0  0
 60129  1  0  0  0
 60130  1  0  0  0
 60131  1  0  0  0
 61132  1  0  0  0
 61133  1  0  0  0
 61134  1  0  0  0
 62135  1  0  0  0
 62136  1  0  0  0
 62137  1  0  0  0
 63 65  1  0  0  0
 63138  1  0  0  0
 63139  1  0  0  0
 63140  1  0  0  0
 64141  1  0  0  0
 65142  1  0  0  0
 68 78  1  0  0  0
 71 72  2  0  0  0
 71 82  1  0  0  0
 71143  1  0  0  0
 72 73  1  0  0  0
 72 77  1  0  0  0
 73 74  2  0  0  0
 73 83  1  0  0  0
 74 79  1  0  0  0
 74 82  1  0  0  0
 75 78  1  0  0  0
 75 79  1  0  0  0
 75 81  2  0  0  0
 76144  1  0  0  0
 76145  1  0  0  0
 76146  1  0  0  0
 76 78  1  0  0  0
 77 80  1  0  0  0
 77147  1  0  0  0
 77148  1  0  0  0
 78149  1  0  0  0
 79150  1  0  0  0
 80151  1  0  0  0
M  ISO  4   1 100  68 101  78 101  80 100
M  END
> <chiral flag>
0

> <version>
0

> <s_m_source_file>
/data/baiqing/PycharmProjects/Reinvent-master-3.2/result/LINK_invent/BTK/process_docking_weight1_custom_product_contain_oxygen_bond_distance_aromatic_linkinvent_7_9_3/rearranged_h_0189.sdf

> <i_m_source_file_index>
11

> <r_mmod_Potential_Energy-OPLS-2005>
70.4623413085938

> <r_mmod_Stretch_Energy-OPLS-2005>
132.21565246582

> <r_mmod_Bend_Energy-OPLS-2005>
184.799453735352

> <r_mmod_Torsional_Energy-OPLS-2005>
233.180969238281

> <r_mmod_Improper_Torsional_Energy-OPLS-2005>
4.3623046875

> <r_mmod_Van_der_Waal_Energy-OPLS-2005>
109.272964477539

> <r_mmod_Electrostatic_Energy-OPLS-2005>
-447.46484375

> <r_mmod_Solvation_Energy-OPLS-2005>
-241.964263916016

> <b_mmod_Minimization_Converged-OPLS-2005>
0

> <r_mmod_RMS_Derivative-OPLS-2005>
2.39232182502747

$$$$
11
                    3D
 Structure written by MMmdl.
170178  0  0  1  0            999 V2000
  -30.7105  -14.4959   20.4925 C   0  0  0  0  0  0
  -30.4202  -12.3035   19.4275 C   0  0  0  0  0  0
  -29.4954  -12.4943   18.2086 C   0  0  0  0  0  0
  -28.0212  -12.3604   18.6309 C   0  0  0  0  0  0
  -27.6666  -13.2127   19.8792 C   0  0  2  0  0  0
  -28.7128  -13.0307   21.0039 C   0  0  0  0  0  0
  -25.2631  -13.8166   20.5701 C   0  0  0  0  0  0
  -24.1857  -13.0452   20.9179 C   0  0  0  0  0  0
  -24.6415  -11.6922   20.8741 C   0  0  0  0  0  0
  -23.9082  -10.4329   21.0403 C   0  0  0  0  0  0
  -24.3641   -9.4232   21.9170 C   0  0  0  0  0  0
  -23.6304   -8.2289   22.0747 C   0  0  0  0  0  0
  -22.4266   -8.0326   21.3567 C   0  0  0  0  0  0
  -21.9921   -9.0305   20.4656 C   0  0  0  0  0  0
  -22.7270  -10.2166   20.3048 C   0  0  0  0  0  0
  -21.6879   -6.0741   22.5274 C   0  0  0  0  0  0
  -21.4043   -6.5630   23.8199 C   0  0  0  0  0  0
  -21.3659   -5.6778   24.9159 C   0  0  0  0  0  0
  -21.6036   -4.3041   24.7212 C   0  0  0  0  0  0
  -21.8834   -3.8143   23.4332 C   0  0  0  0  0  0
  -21.9216   -4.6969   22.3385 C   0  0  0  0  0  0
  -22.7895  -13.5250   21.1824 C   0  0  0  0  0  0
  -22.1659   -4.2130   21.0964 F   0  0  0  0  0  0
  -21.5614   -3.4524   25.7727 F   0  0  0  0  0  0
  -30.0458  -13.3072   20.4378 N   0  0  0  0  0  0
  -26.3070  -12.9352   20.3432 N   0  0  0  0  0  0
  -25.9351  -11.6500   20.5800 N   0  0  0  0  0  0
  -22.0556  -12.8234   22.0365 N   0  0  0  0  0  0
  -25.4390  -15.1899   20.4144 N   0  0  0  0  0  0
  -31.8458  -14.6484   20.0367 O   0  0  0  0  0  0
  -21.6647   -6.8907   21.4245 O   0  0  0  0  0  0
  -22.3604  -14.5584   20.6697 O   0  0  0  0  0  0
  -24.6181  -31.8710   23.2060 C   0  0  0  0  0  0
  -25.9082  -32.4822   23.8374 C   0  0  1  0  0  0
  -27.2150  -27.3970   20.1178 C   0  0  0  0  0  0
  -25.5967  -33.8615   24.2329 N   0  0  0  0  0  0
  -23.4026  -30.4923   21.5497 C   0  0  2  0  0  0
  -24.8459  -28.9558   20.1154 C   0  0  0  0  0  0
  -22.7416  -29.4682   22.4983 C   0  0  0  0  0  0
  -18.0296  -28.1332   22.8490 C   0  0  0  0  0  0
  -24.1492  -36.7291   23.2624 C   0  0  0  0  0  0
  -25.9339  -30.8308   21.3573 C   0  0  0  0  0  0
  -26.0109  -29.4603   20.7072 C   0  0  0  0  0  0
  -27.2020  -28.6902   20.6999 C   0  0  0  0  0  0
  -26.0372  -26.9300   19.4962 C   0  0  0  0  0  0
  -24.8547  -27.6919   19.5030 C   0  0  0  0  0  0
  -23.6101  -29.8208   20.1657 C   0  0  0  0  0  0
  -25.4123  -36.3079   24.0315 C   0  0  1  0  0  0
  -20.5878  -28.3669   23.1307 C   0  0  2  0  0  0
  -20.6808  -26.9404   22.5412 C   0  0  0  0  0  0
  -19.5784  -26.6384   21.5215 C   0  0  0  0  0  0
  -18.1957  -26.7879   22.1637 C   0  0  0  0  0  0
  -19.1540  -28.8806   23.2898 C   0  0  0  0  0  0
  -18.9443  -30.1407   23.8923 C   0  0  0  0  0  0
  -17.6434  -30.6538   24.0560 C   0  0  0  0  0  0
  -25.9042  -34.9466   23.5118 C   0  0  0  0  0  0
  -16.5341  -29.9014   23.6328 C   0  0  0  0  0  0
  -16.7283  -28.6446   23.0326 C   0  0  0  0  0  0
  -26.4524  -31.6588   25.0702 C   0  0  0  0  0  0
  -25.3776  -31.3734   26.1431 C   0  0  0  0  0  0
  -27.0348  -30.3014   24.6107 C   0  0  0  0  0  0
  -27.6101  -32.4286   25.7489 C   0  0  0  0  0  0
  -27.5594  -37.1809   24.8471 C   0  0  0  0  0  0
  -21.4149  -29.3032   22.3727 N   0  0  0  0  0  0
  -26.4305  -37.3772   23.9388 N   0  0  0  0  0  0
  -24.6699  -31.0800   22.0958 N   0  0  0  0  0  0
  -23.4189  -28.8207   23.3032 O   0  0  0  0  0  0
  -28.3434  -26.5954   20.1745 O   0  0  0  0  0  0
  -26.5567  -34.8928   22.4644 O   0  0  0  0  0  0
  -23.5378  -32.1419   23.7490 O   0  0  0  0  0  0
  -29.3926  -19.0877   20.4191 C   0  0  0  0  0  0
  -29.9730  -18.9914   19.1685 C   0  0  0  0  0  0
  -29.9833  -16.8551   20.4283 C   0  0  0  0  0  0
  -25.3662  -20.4102   23.0428 C   0  0  0  0  0  0
  -27.5659  -21.3808   23.7282 C   0  0  0  0  0  0
  -27.2620  -18.8955   23.7158 C   0  0  0  0  0  0
  -29.2523  -21.7421   20.7749 C   0  0  0  0  0  0
  -28.1996  -22.6544   20.0680 C   0  0  0  0  0  0
  -27.3069  -20.0941   21.4973 C   0  0  0  0  0  0
  -28.1124  -25.2338   20.6404 C   0  0  0  0  0  0
  -28.8236  -20.2790   21.1933 C   0  0  2  0  0  0
  -28.6134  -24.1153   19.6700 C   0  0  2  0  0  0
  -26.8920  -20.2051   22.9886 C   0  0  0  0  0  0
  -29.3875  -17.8470   21.0949 N   0  0  0  0  0  0
  -30.1283  -19.9665   18.1877 N   0  0  0  0  0  0
  -30.0115  -15.5386   20.9735 N   0  0  0  0  0  0
  -27.9941  -24.3503   18.4140 O   0  0  0  0  0  0
  -30.5782  -17.3717   18.8517 S   0  0  0  0  0  0
  -31.4657  -12.3841   19.1288 H   0  0  0  0  0  0
  -30.3093  -11.2976   19.8332 H   0  0  0  0  0  0
  -29.7356  -11.7551   17.4428 H   0  0  0  0  0  0
  -29.6681  -13.4727   17.7564 H   0  0  0  0  0  0
  -27.8477  -11.3055   18.8453 H   0  0  0  0  0  0
  -27.3598  -12.6169   17.8025 H   0  0  0  0  0  0
  -27.7049  -14.2561   19.5678 H   0  0  0  0  0  0
  -28.6811  -12.0164   21.3999 H   0  0  0  0  0  0
  -28.4848  -13.6791   21.8512 H   0  0  0  0  0  0
  -25.2814   -9.5669   22.4690 H   0  0  0  0  0  0
  -24.0017   -7.4680   22.7462 H   0  0  0  0  0  0
  -21.0840   -8.8860   19.8951 H   0  0  0  0  0  0
  -22.3775  -10.9705   19.6124 H   0  0  0  0  0  0
  -21.2055   -7.6136   23.9702 H   0  0  0  0  0  0
  -21.1442   -6.0496   25.9047 H   0  0  0  0  0  0
  -22.0620   -2.7602   23.2842 H   0  0  0  0  0  0
  -22.4224  -11.9950   22.4790 H   0  0  0  0  0  0
  -21.1192  -13.1252   22.2621 H   0  0  0  0  0  0
  -24.6899  -15.8558   20.5628 H   0  0  0  0  0  0
  -26.3024  -15.6313   20.1269 H   0  0  0  0  0  0
  -26.7173  -32.5531   23.1156 H   0  0  0  0  0  0
  -25.0223  -33.9760   25.0557 H   0  0  0  0  0  0
  -22.6909  -31.3085   21.4107 H   0  0  0  0  0  0
  -23.3739  -35.9630   23.3286 H   0  0  0  0  0  0
  -24.3601  -36.8912   22.2040 H   0  0  0  0  0  0
  -23.7279  -37.6517   23.6632 H   0  0  0  0  0  0
  -26.0446  -31.5913   20.5820 H   0  0  0  0  0  0
  -26.8254  -30.8893   21.9718 H   0  0  0  0  0  0
  -28.0973  -29.0716   21.1729 H   0  0  0  0  0  0
  -26.0200  -25.9604   19.0197 H   0  0  0  0  0  0
  -23.9561  -27.2973   19.0483 H   0  0  0  0  0  0
  -23.7097  -30.5880   19.3982 H   0  0  0  0  0  0
  -22.7355  -29.2312   19.8835 H   0  0  0  0  0  0
  -25.1308  -36.1925   25.0807 H   0  0  0  0  0  0
  -20.9986  -28.3248   24.1417 H   0  0  0  0  0  0
  -20.5718  -26.2265   23.3585 H   0  0  0  0  0  0
  -21.6691  -26.7484   22.1198 H   0  0  0  0  0  0
  -19.6963  -25.6323   21.1167 H   0  0  0  0  0  0
  -19.6712  -27.3273   20.6793 H   0  0  0  0  0  0
  -17.4200  -26.6616   21.4060 H   0  0  0  0  0  0
  -18.0405  -26.0015   22.9032 H   0  0  0  0  0  0
  -19.7919  -30.7233   24.2266 H   0  0  0  0  0  0
  -17.4975  -31.6200   24.5181 H   0  0  0  0  0  0
  -15.5319  -30.2909   23.7602 H   0  0  0  0  0  0
  -15.8708  -28.0755   22.6992 H   0  0  0  0  0  0
  -24.5961  -30.7067   25.7781 H   0  0  0  0  0  0
  -24.8944  -32.2903   26.4801 H   0  0  0  0  0  0
  -25.8102  -30.8979   27.0236 H   0  0  0  0  0  0
  -26.2911  -29.6776   24.1129 H   0  0  0  0  0  0
  -27.4074  -29.7258   25.4594 H   0  0  0  0  0  0
  -27.8759  -30.4307   23.9285 H   0  0  0  0  0  0
  -27.2739  -33.3581   26.2088 H   0  0  0  0  0  0
  -28.3925  -32.6849   25.0332 H   0  0  0  0  0  0
  -28.0735  -31.8379   26.5403 H   0  0  0  0  0  0
  -28.2609  -38.0110   24.7497 H   0  0  0  0  0  0
  -28.1091  -36.2640   24.6290 H   0  0  0  0  0  0
  -27.2307  -37.1463   25.8877 H   0  0  0  0  0  0
  -20.9295  -29.8729   21.6936 H   0  0  0  0  0  0
  -26.0179  -38.2847   24.1357 H   0  0  0  0  0  0
  -24.9926  -20.4286   24.0675 H   0  0  0  0  0  0
  -24.8314  -19.6219   22.5125 H   0  0  0  0  0  0
  -25.0839  -21.3577   22.5788 H   0  0  0  0  0  0
  -27.1669  -21.4802   24.7382 H   0  0  0  0  0  0
  -27.4242  -22.3305   23.2132 H   0  0  0  0  0  0
  -28.6384  -21.2339   23.8517 H   0  0  0  0  0  0
  -26.9993  -18.9405   24.7703 H   0  0  0  0  0  0
  -28.3324  -18.6973   23.6638 H   0  0  0  0  0  0
  -26.7568  -18.0330   23.2801 H   0  0  0  0  0  0
  -29.5281  -22.2601   21.6929 H   0  0  0  0  0  0
  -30.1777  -21.7078   20.1974 H   0  0  0  0  0  0
  -27.3156  -22.7360   20.7021 H   0  0  0  0  0  0
  -27.8723  -22.1075   19.1812 H   0  0  0  0  0  0
  -26.9877  -19.1076   21.1607 H   0  0  0  0  0  0
  -26.7011  -20.7334   20.8664 H   0  0  0  0  0  0
  -28.6393  -25.1280   21.5925 H   0  0  0  0  0  0
  -27.0672  -25.0578   20.9024 H   0  0  0  0  0  0
  -29.3375  -20.1455   22.1434 H   0  0  0  0  0  0
  -29.6959  -24.1915   19.5391 H   0  0  0  0  0  0
  -29.7083  -20.8904   18.2538 H   0  0  0  0  0  0
  -30.5679  -19.7888   17.2912 H   0  0  0  0  0  0
  -29.2460  -15.3113   21.5823 H   0  0  0  0  0  0
  -28.4203  -23.7950   17.7712 H   0  0  0  0  0  0
  1 25  1  0  0  0
  1 30  2  0  0  0
  1 86  1  0  0  0
  2  3  1  0  0  0
  2 25  1  0  0  0
  2 89  1  0  0  0
  2 90  1  0  0  0
  3  4  1  0  0  0
  3 91  1  0  0  0
  3 92  1  0  0  0
  4  5  1  0  0  0
  4 93  1  0  0  0
  4 94  1  0  0  0
  5  6  1  0  0  0
  5 26  1  0  0  0
  5 95  1  0  0  0
  6 25  1  0  0  0
  6 96  1  0  0  0
  6 97  1  0  0  0
  7  8  2  0  0  0
  7 26  1  0  0  0
  7 29  1  0  0  0
  8  9  1  0  0  0
  8 22  1  0  0  0
  9 10  1  0  0  0
  9 27  2  0  0  0
 10 11  2  0  0  0
 10 15  1  0  0  0
 11 12  1  0  0  0
 11 98  1  0  0  0
 12 13  2  0  0  0
 12 99  1  0  0  0
 13 14  1  0  0  0
 13 31  1  0  0  0
 14 15  2  0  0  0
 14100  1  0  0  0
 15101  1  0  0  0
 16 17  2  0  0  0
 16 21  1  0  0  0
 16 31  1  0  0  0
 17 18  1  0  0  0
 17102  1  0  0  0
 18 19  2  0  0  0
 18103  1  0  0  0
 19 20  1  0  0  0
 19 24  1  0  0  0
 20 21  2  0  0  0
 20104  1  0  0  0
 21 23  1  0  0  0
 22 28  1  0  0  0
 22 32  2  0  0  0
 26 27  1  0  0  0
 28105  1  0  0  0
 28106  1  0  0  0
 29107  1  0  0  0
 29108  1  0  0  0
 33 34  1  0  0  0
 33 66  1  0  0  0
 33 70  2  0  0  0
 34 36  1  0  0  0
 34 59  1  0  0  0
 34109  1  0  0  0
 35 44  2  0  0  0
 35 45  1  0  0  0
 35 68  1  0  0  0
 36 56  1  0  0  0
 36110  1  0  0  0
 37 39  1  0  0  0
 37 47  1  0  0  0
 37 66  1  0  0  0
 37111  1  0  0  0
 38 43  2  0  0  0
 38 46  1  0  0  0
 38 47  1  0  0  0
 39 64  1  0  0  0
 39 67  2  0  0  0
 40 52  1  0  0  0
 40 53  2  0  0  0
 40 58  1  0  0  0
 41112  1  0  0  0
 41113  1  0  0  0
 41114  1  0  0  0
 41 48  1  0  0  0
 42 43  1  0  0  0
 42 66  1  0  0  0
 42115  1  0  0  0
 42116  1  0  0  0
 43 44  1  0  0  0
 44117  1  0  0  0
 45 46  2  0  0  0
 45118  1  0  0  0
 46119  1  0  0  0
 47120  1  0  0  0
 47121  1  0  0  0
 48 56  1  0  0  0
 48 65  1  0  0  0
 48122  1  0  0  0
 49 50  1  0  0  0
 49 53  1  0  0  0
 49 64  1  0  0  0
 49123  1  0  0  0
 50 51  1  0  0  0
 50124  1  0  0  0
 50125  1  0  0  0
 51 52  1  0  0  0
 51126  1  0  0  0
 51127  1  0  0  0
 52128  1  0  0  0
 52129  1  0  0  0
 53 54  1  0  0  0
 54 55  2  0  0  0
 54130  1  0  0  0
 55 57  1  0  0  0
 55131  1  0  0  0
 56 69  2  0  0  0
 57 58  2  0  0  0
 57132  1  0  0  0
 58133  1  0  0  0
 59 60  1  0  0  0
 59 61  1  0  0  0
 59 62  1  0  0  0
 60134  1  0  0  0
 60135  1  0  0  0
 60136  1  0  0  0
 61137  1  0  0  0
 61138  1  0  0  0
 61139  1  0  0  0
 62140  1  0  0  0
 62141  1  0  0  0
 62142  1  0  0  0
 63 65  1  0  0  0
 63143  1  0  0  0
 63144  1  0  0  0
 63145  1  0  0  0
 64146  1  0  0  0
 65147  1  0  0  0
 68 80  1  0  0  0
 71 72  2  0  0  0
 71 81  1  0  0  0
 71 84  1  0  0  0
 72 85  1  0  0  0
 72 88  1  0  0  0
 73 84  2  0  0  0
 73 86  1  0  0  0
 73 88  1  0  0  0
 74148  1  0  0  0
 74149  1  0  0  0
 74150  1  0  0  0
 74 83  1  0  0  0
 75 83  1  0  0  0
 75151  1  0  0  0
 75152  1  0  0  0
 75153  1  0  0  0
 76 83  1  0  0  0
 76154  1  0  0  0
 76155  1  0  0  0
 76156  1  0  0  0
 77 78  1  0  0  0
 77157  1  0  0  0
 77158  1  0  0  0
 77 81  1  0  0  0
 78 82  1  0  0  0
 78159  1  0  0  0
 78160  1  0  0  0
 79 81  1  0  0  0
 79 83  1  0  0  0
 79161  1  0  0  0
 79162  1  0  0  0
 80 82  1  0  0  0
 80163  1  0  0  0
 80164  1  0  0  0
 81165  1  0  0  0
 82 87  1  0  0  0
 82166  1  0  0  0
 85167  1  0  0  0
 85168  1  0  0  0
 86169  1  0  0  0
 87170  1  0  0  0
M  ISO  4   1 100  68 101  80 101  86 100
M  END
> <chiral flag>
0

> <version>
0

> <s_m_source_file>
/data/baiqing/PycharmProjects/Reinvent-master-3.2/result/LINK_invent/BTK/process_docking_weight1_custom_product_contain_oxygen_bond_distance_aromatic_linkinvent_7_9_3/rearranged_h_0189.sdf

> <i_m_source_file_index>
12

> <r_mmod_Potential_Energy-OPLS-2005>
37.2338066101074

> <r_mmod_Stretch_Energy-OPLS-2005>
48.0229530334473

> <r_mmod_Bend_Energy-OPLS-2005>
136.639389038086

> <r_mmod_Torsional_Energy-OPLS-2005>
280.732940673828

> <r_mmod_Improper_Torsional_Energy-OPLS-2005>
4.22396373748779

> <r_mmod_Van_der_Waal_Energy-OPLS-2005>
133.028884887695

> <r_mmod_Electrostatic_Energy-OPLS-2005>
-363.236022949219

> <r_mmod_Solvation_Energy-OPLS-2005>
-223.683242797852

> <b_mmod_Minimization_Converged-OPLS-2005>
0

> <r_mmod_RMS_Derivative-OPLS-2005>
5.63216924667358

$$$$
12
                    3D
 Structure written by MMmdl.
165173  0  0  1  0            999 V2000
  -30.7047  -14.4152   20.6055 C   0  0  0  0  0  0
  -30.4256  -12.2827   19.4011 C   0  0  0  0  0  0
  -29.4905  -12.5115   18.1952 C   0  0  0  0  0  0
  -28.0104  -12.3793   18.6079 C   0  0  0  0  0  0
  -27.6676  -13.1976   19.8812 C   0  0  2  0  0  0
  -28.7071  -12.9251   20.9918 C   0  0  0  0  0  0
  -25.2618  -13.8140   20.5670 C   0  0  0  0  0  0
  -24.1857  -13.0434   20.9171 C   0  0  0  0  0  0
  -24.6390  -11.6892   20.8723 C   0  0  0  0  0  0
  -23.9046  -10.4291   21.0403 C   0  0  0  0  0  0
  -24.3601   -9.4208   21.9183 C   0  0  0  0  0  0
  -23.6284   -8.2234   22.0749 C   0  0  0  0  0  0
  -22.4267   -8.0274   21.3541 C   0  0  0  0  0  0
  -21.9896   -9.0245   20.4642 C   0  0  0  0  0  0
  -22.7217  -10.2128   20.3055 C   0  0  0  0  0  0
  -21.6850   -6.0733   22.5275 C   0  0  0  0  0  0
  -21.4008   -6.5635   23.8212 C   0  0  0  0  0  0
  -21.3655   -5.6789   24.9173 C   0  0  0  0  0  0
  -21.6043   -4.3055   24.7226 C   0  0  0  0  0  0
  -21.8826   -3.8147   23.4346 C   0  0  0  0  0  0
  -21.9197   -4.6959   22.3404 C   0  0  0  0  0  0
  -22.7882  -13.5249   21.1839 C   0  0  0  0  0  0
  -22.1666   -4.2146   21.0980 F   0  0  0  0  0  0
  -21.5630   -3.4538   25.7739 F   0  0  0  0  0  0
  -30.0450  -13.2363   20.4529 N   0  0  0  0  0  0
  -26.3054  -12.9292   20.3381 N   0  0  0  0  0  0
  -25.9316  -11.6457   20.5750 N   0  0  0  0  0  0
  -22.0507  -12.8244   22.0392 N   0  0  0  0  0  0
  -25.4365  -15.1853   20.4056 N   0  0  0  0  0  0
  -31.8078  -14.6357   20.0916 O   0  0  0  0  0  0
  -21.6632   -6.8870   21.4239 O   0  0  0  0  0  0
  -22.3573  -14.5556   20.6696 O   0  0  0  0  0  0
  -24.6117  -31.8699   23.2120 C   0  0  0  0  0  0
  -25.9033  -32.4825   23.8404 C   0  0  1  0  0  0
  -27.2413  -27.4643   20.0805 C   0  0  0  0  0  0
  -25.5917  -33.8628   24.2338 N   0  0  0  0  0  0
  -23.3964  -30.4922   21.5527 C   0  0  2  0  0  0
  -24.8411  -28.9572   20.1189 C   0  0  0  0  0  0
  -22.7395  -29.4662   22.5023 C   0  0  0  0  0  0
  -18.0265  -28.1371   22.8485 C   0  0  0  0  0  0
  -24.1485  -36.7307   23.2636 C   0  0  0  0  0  0
  -25.9212  -30.8430   21.3597 C   0  0  0  0  0  0
  -25.9977  -29.4778   20.7096 C   0  0  0  0  0  0
  -27.1967  -28.7366   20.6885 C   0  0  0  0  0  0
  -26.0596  -26.9414   19.5035 C   0  0  0  0  0  0
  -24.8646  -27.6858   19.5182 C   0  0  0  0  0  0
  -23.6022  -29.8209   20.1679 C   0  0  0  0  0  0
  -25.4106  -36.3108   24.0335 C   0  0  1  0  0  0
  -20.5849  -28.3651   23.1338 C   0  0  2  0  0  0
  -20.6756  -26.9395   22.5422 C   0  0  0  0  0  0
  -19.5747  -26.6381   21.5206 C   0  0  0  0  0  0
  -18.1917  -26.7929   22.1604 C   0  0  0  0  0  0
  -19.1512  -28.8829   23.2906 C   0  0  0  0  0  0
  -18.9438  -30.1439   23.8914 C   0  0  0  0  0  0
  -17.6440  -30.6583   24.0560 C   0  0  0  0  0  0
  -25.9040  -34.9476   23.5124 C   0  0  0  0  0  0
  -16.5333  -29.9082   23.6327 C   0  0  0  0  0  0
  -16.7254  -28.6500   23.0350 C   0  0  0  0  0  0
  -26.4478  -31.6602   25.0726 C   0  0  0  0  0  0
  -25.3762  -31.3701   26.1486 C   0  0  0  0  0  0
  -27.0291  -30.3051   24.6078 C   0  0  0  0  0  0
  -27.6063  -32.4310   25.7490 C   0  0  0  0  0  0
  -27.5577  -37.1800   24.8462 C   0  0  0  0  0  0
  -21.4128  -29.3021   22.3762 N   0  0  0  0  0  0
  -26.4289  -37.3794   23.9411 N   0  0  0  0  0  0
  -24.6611  -31.0833   22.1002 N   0  0  0  0  0  0
  -23.4189  -28.8215   23.3057 O   0  0  0  0  0  0
  -28.4519  -26.8085   20.0703 O   0  0  0  0  0  0
  -26.5587  -34.8929   22.4676 O   0  0  0  0  0  0
  -23.5322  -32.1438   23.7550 O   0  0  0  0  0  0
  -30.8307  -18.8092   20.6383 C   0  0  0  0  0  0
  -29.5007  -19.1273   20.8474 C   0  0  0  0  0  0
  -30.0244  -16.7329   21.1083 C   0  0  0  0  0  0
  -29.8284  -22.6140   20.2218 C   0  0  0  0  0  0
  -32.5914  -20.3425   21.5747 C   0  0  0  0  0  0
  -31.8242  -23.4527   18.9222 C   0  0  0  0  0  0
  -29.0353  -21.0635   18.4414 C   0  0  0  0  0  0
  -31.9799  -19.7192   20.3167 C   0  0  0  0  0  0
  -28.7804  -20.4533   20.8250 C   0  0  0  0  0  0
  -30.0138  -25.0919   19.5754 C   0  0  0  0  0  0
  -28.5240  -25.4701   19.5950 C   0  0  0  0  0  0
  -30.3116  -23.6307   19.1591 C   0  0  2  0  0  0
  -31.1114  -17.4494   20.8131 N   0  0  0  0  0  0
  -30.0202  -15.3330   21.3029 N   0  0  0  0  0  0
  -29.2639  -21.4382   19.8416 N   0  0  0  0  0  0
  -29.9882  -22.9065   21.4102 O   0  0  0  0  0  0
  -28.5730  -17.7015   21.2564 S   0  0  0  0  0  0
  -31.4687  -12.3886   19.0960 H   0  0  0  0  0  0
  -30.3286  -11.2612   19.7702 H   0  0  0  0  0  0
  -29.7194  -11.7987   17.4017 H   0  0  0  0  0  0
  -29.6681  -13.5019   17.7737 H   0  0  0  0  0  0
  -27.8095  -11.3218   18.7817 H   0  0  0  0  0  0
  -27.3618  -12.6789   17.7833 H   0  0  0  0  0  0
  -27.7278  -14.2525   19.6123 H   0  0  0  0  0  0
  -28.6761  -11.8739   21.2824 H   0  0  0  0  0  0
  -28.4627  -13.4748   21.9011 H   0  0  0  0  0  0
  -25.2746   -9.5688   22.4751 H   0  0  0  0  0  0
  -23.9997   -7.4630   22.7465 H   0  0  0  0  0  0
  -21.0833   -8.8761   19.8948 H   0  0  0  0  0  0
  -22.3676  -10.9663   19.6159 H   0  0  0  0  0  0
  -21.1992   -7.6140   23.9711 H   0  0  0  0  0  0
  -21.1468   -6.0518   25.9077 H   0  0  0  0  0  0
  -22.0608   -2.7606   23.2847 H   0  0  0  0  0  0
  -22.4094  -11.9893   22.4781 H   0  0  0  0  0  0
  -21.1133  -13.1293   22.2587 H   0  0  0  0  0  0
  -24.6699  -15.8414   20.5094 H   0  0  0  0  0  0
  -26.2859  -15.6182   20.0670 H   0  0  0  0  0  0
  -26.7102  -32.5549   23.1170 H   0  0  0  0  0  0
  -25.0131  -33.9807   25.0524 H   0  0  0  0  0  0
  -22.6814  -31.3057   21.4155 H   0  0  0  0  0  0
  -23.3748  -35.9638   23.3305 H   0  0  0  0  0  0
  -24.3581  -36.8918   22.2052 H   0  0  0  0  0  0
  -23.7242  -37.6515   23.6643 H   0  0  0  0  0  0
  -26.0306  -31.6088   20.5902 H   0  0  0  0  0  0
  -26.8102  -30.8966   21.9759 H   0  0  0  0  0  0
  -28.0943  -29.1418   21.1345 H   0  0  0  0  0  0
  -26.0393  -25.9695   19.0322 H   0  0  0  0  0  0
  -23.9714  -27.2751   19.0672 H   0  0  0  0  0  0
  -23.7103  -30.5928   19.4052 H   0  0  0  0  0  0
  -22.7265  -29.2382   19.8750 H   0  0  0  0  0  0
  -25.1285  -36.1959   25.0828 H   0  0  0  0  0  0
  -20.9932  -28.3200   24.1461 H   0  0  0  0  0  0
  -20.5658  -26.2256   23.3599 H   0  0  0  0  0  0
  -21.6629  -26.7455   22.1218 H   0  0  0  0  0  0
  -19.6914  -25.6293   21.1236 H   0  0  0  0  0  0
  -19.6701  -27.3190   20.6735 H   0  0  0  0  0  0
  -17.4199  -26.6686   21.3987 H   0  0  0  0  0  0
  -18.0306  -26.0065   22.8993 H   0  0  0  0  0  0
  -19.7914  -30.7239   24.2302 H   0  0  0  0  0  0
  -17.5001  -31.6270   24.5157 H   0  0  0  0  0  0
  -15.5331  -30.2983   23.7662 H   0  0  0  0  0  0
  -15.8650  -28.0823   22.7064 H   0  0  0  0  0  0
  -24.5945  -30.7033   25.7831 H   0  0  0  0  0  0
  -24.8940  -32.2851   26.4933 H   0  0  0  0  0  0
  -25.8134  -30.8884   27.0241 H   0  0  0  0  0  0
  -26.2807  -29.6832   24.1158 H   0  0  0  0  0  0
  -27.4096  -29.7278   25.4512 H   0  0  0  0  0  0
  -27.8632  -30.4373   23.9186 H   0  0  0  0  0  0
  -27.2688  -33.3599   26.2102 H   0  0  0  0  0  0
  -28.3860  -32.6884   25.0310 H   0  0  0  0  0  0
  -28.0749  -31.8420   26.5385 H   0  0  0  0  0  0
  -28.2589  -38.0100   24.7515 H   0  0  0  0  0  0
  -28.1070  -36.2628   24.6263 H   0  0  0  0  0  0
  -27.2306  -37.1447   25.8871 H   0  0  0  0  0  0
  -20.9291  -29.8738   21.6976 H   0  0  0  0  0  0
  -26.0174  -38.2869   24.1414 H   0  0  0  0  0  0
  -33.4175  -21.0063   21.3193 H   0  0  0  0  0  0
  -32.9741  -19.5723   22.2442 H   0  0  0  0  0  0
  -31.8525  -20.9252   22.1248 H   0  0  0  0  0  0
  -32.0496  -22.4734   18.5011 H   0  0  0  0  0  0
  -32.3921  -23.5544   19.8482 H   0  0  0  0  0  0
  -32.2056  -24.1946   18.2202 H   0  0  0  0  0  0
  -29.9441  -21.1587   17.8464 H   0  0  0  0  0  0
  -28.2631  -21.6933   17.9984 H   0  0  0  0  0  0
  -28.7015  -20.0297   18.3436 H   0  0  0  0  0  0
  -31.6785  -20.4953   19.6206 H   0  0  0  0  0  0
  -32.7564  -19.1660   19.7874 H   0  0  0  0  0  0
  -28.7803  -20.8551   21.8387 H   0  0  0  0  0  0
  -27.7247  -20.2828   20.6083 H   0  0  0  0  0  0
  -30.4531  -25.2990   20.5528 H   0  0  0  0  0  0
  -30.5171  -25.7683   18.8842 H   0  0  0  0  0  0
  -27.9518  -24.8154   20.2538 H   0  0  0  0  0  0
  -28.1208  -25.3845   18.5851 H   0  0  0  0  0  0
  -29.8000  -23.4712   18.2117 H   0  0  0  0  0  0
  -29.1761  -14.9699   21.7159 H   0  0  0  0  0  0
  1 25  1  0  0  0
  1 30  2  0  0  0
  1 84  1  0  0  0
  2  3  1  0  0  0
  2 25  1  0  0  0
  2 88  1  0  0  0
  2 89  1  0  0  0
  3  4  1  0  0  0
  3 90  1  0  0  0
  3 91  1  0  0  0
  4  5  1  0  0  0
  4 92  1  0  0  0
  4 93  1  0  0  0
  5  6  1  0  0  0
  5 26  1  0  0  0
  5 94  1  0  0  0
  6 25  1  0  0  0
  6 95  1  0  0  0
  6 96  1  0  0  0
  7  8  2  0  0  0
  7 26  1  0  0  0
  7 29  1  0  0  0
  8  9  1  0  0  0
  8 22  1  0  0  0
  9 10  1  0  0  0
  9 27  2  0  0  0
 10 11  2  0  0  0
 10 15  1  0  0  0
 11 12  1  0  0  0
 11 97  1  0  0  0
 12 13  2  0  0  0
 12 98  1  0  0  0
 13 14  1  0  0  0
 13 31  1  0  0  0
 14 15  2  0  0  0
 14 99  1  0  0  0
 15100  1  0  0  0
 16 17  2  0  0  0
 16 21  1  0  0  0
 16 31  1  0  0  0
 17 18  1  0  0  0
 17101  1  0  0  0
 18 19  2  0  0  0
 18102  1  0  0  0
 19 20  1  0  0  0
 19 24  1  0  0  0
 20 21  2  0  0  0
 20103  1  0  0  0
 21 23  1  0  0  0
 22 28  1  0  0  0
 22 32  2  0  0  0
 26 27  1  0  0  0
 28104  1  0  0  0
 28105  1  0  0  0
 29106  1  0  0  0
 29107  1  0  0  0
 33 34  1  0  0  0
 33 66  1  0  0  0
 33 70  2  0  0  0
 34 36  1  0  0  0
 34 59  1  0  0  0
 34108  1  0  0  0
 35 44  2  0  0  0
 35 45  1  0  0  0
 35 68  1  0  0  0
 36 56  1  0  0  0
 36109  1  0  0  0
 37 39  1  0  0  0
 37 47  1  0  0  0
 37 66  1  0  0  0
 37110  1  0  0  0
 38 43  2  0  0  0
 38 46  1  0  0  0
 38 47  1  0  0  0
 39 64  1  0  0  0
 39 67  2  0  0  0
 40 52  1  0  0  0
 40 53  2  0  0  0
 40 58  1  0  0  0
 41111  1  0  0  0
 41112  1  0  0  0
 41113  1  0  0  0
 41 48  1  0  0  0
 42 43  1  0  0  0
 42 66  1  0  0  0
 42114  1  0  0  0
 42115  1  0  0  0
 43 44  1  0  0  0
 44116  1  0  0  0
 45 46  2  0  0  0
 45117  1  0  0  0
 46118  1  0  0  0
 47119  1  0  0  0
 47120  1  0  0  0
 48 56  1  0  0  0
 48 65  1  0  0  0
 48121  1  0  0  0
 49 50  1  0  0  0
 49 53  1  0  0  0
 49 64  1  0  0  0
 49122  1  0  0  0
 50 51  1  0  0  0
 50123  1  0  0  0
 50124  1  0  0  0
 51 52  1  0  0  0
 51125  1  0  0  0
 51126  1  0  0  0
 52127  1  0  0  0
 52128  1  0  0  0
 53 54  1  0  0  0
 54 55  2  0  0  0
 54129  1  0  0  0
 55 57  1  0  0  0
 55130  1  0  0  0
 56 69  2  0  0  0
 57 58  2  0  0  0
 57131  1  0  0  0
 58132  1  0  0  0
 59 60  1  0  0  0
 59 61  1  0  0  0
 59 62  1  0  0  0
 60133  1  0  0  0
 60134  1  0  0  0
 60135  1  0  0  0
 61136  1  0  0  0
 61137  1  0  0  0
 61138  1  0  0  0
 62139  1  0  0  0
 62140  1  0  0  0
 62141  1  0  0  0
 63 65  1  0  0  0
 63142  1  0  0  0
 63143  1  0  0  0
 63144  1  0  0  0
 64145  1  0  0  0
 65146  1  0  0  0
 68 81  1  0  0  0
 71 72  2  0  0  0
 71 78  1  0  0  0
 71 83  1  0  0  0
 72 79  1  0  0  0
 72 87  1  0  0  0
 73 83  2  0  0  0
 73 84  1  0  0  0
 73 87  1  0  0  0
 74 82  1  0  0  0
 74 85  1  0  0  0
 74 86  2  0  0  0
 75 78  1  0  0  0
 75147  1  0  0  0
 75148  1  0  0  0
 75149  1  0  0  0
 76150  1  0  0  0
 76151  1  0  0  0
 76152  1  0  0  0
 76 82  1  0  0  0
 77 85  1  0  0  0
 77153  1  0  0  0
 77154  1  0  0  0
 77155  1  0  0  0
 78156  1  0  0  0
 78157  1  0  0  0
 79 85  1  0  0  0
 79158  1  0  0  0
 79159  1  0  0  0
 80 81  1  0  0  0
 80 82  1  0  0  0
 80160  1  0  0  0
 80161  1  0  0  0
 81162  1  0  0  0
 81163  1  0  0  0
 82164  1  0  0  0
 84165  1  0  0  0
M  ISO  4   1 100  68 101  81 101  84 100
M  END
> <chiral flag>
0

> <version>
0

> <s_m_source_file>
/data/baiqing/PycharmProjects/Reinvent-master-3.2/result/LINK_invent/BTK/process_docking_weight1_custom_product_contain_oxygen_bond_distance_aromatic_linkinvent_7_9_3/rearranged_h_0189.sdf

> <i_m_source_file_index>
13

> <r_mmod_Potential_Energy-OPLS-2005>
-160.812713623047

> <r_mmod_Stretch_Energy-OPLS-2005>
34.9369468688965

> <r_mmod_Bend_Energy-OPLS-2005>
108.414131164551

> <r_mmod_Torsional_Energy-OPLS-2005>
202.902221679688

> <r_mmod_Improper_Torsional_Energy-OPLS-2005>
4.16070318222046

> <r_mmod_Van_der_Waal_Energy-OPLS-2005>
136.025802612305

> <r_mmod_Electrostatic_Energy-OPLS-2005>
-417.136993408203

> <r_mmod_Solvation_Energy-OPLS-2005>
-239.237823486328

> <b_mmod_Minimization_Converged-OPLS-2005>
0

> <r_mmod_RMS_Derivative-OPLS-2005>
1.29704332351685

$$$$
13
                    3D
 Structure written by MMmdl.
162170  0  0  1  0            999 V2000
  -30.6793  -14.5011   20.5529 C   0  0  0  0  0  0
  -30.4279  -12.3170   19.4272 C   0  0  0  0  0  0
  -29.4979  -12.5001   18.2093 C   0  0  0  0  0  0
  -28.0187  -12.3587   18.6207 C   0  0  0  0  0  0
  -27.6605  -13.2043   19.8719 C   0  0  2  0  0  0
  -28.7026  -12.9942   20.9947 C   0  0  0  0  0  0
  -25.2588  -13.8147   20.5681 C   0  0  0  0  0  0
  -24.1841  -13.0432   20.9194 C   0  0  0  0  0  0
  -24.6388  -11.6898   20.8735 C   0  0  0  0  0  0
  -23.9052  -10.4286   21.0402 C   0  0  0  0  0  0
  -24.3606   -9.4206   21.9181 C   0  0  0  0  0  0
  -23.6285   -8.2239   22.0750 C   0  0  0  0  0  0
  -22.4266   -8.0275   21.3543 C   0  0  0  0  0  0
  -21.9902   -9.0247   20.4646 C   0  0  0  0  0  0
  -22.7226  -10.2128   20.3052 C   0  0  0  0  0  0
  -21.6852   -6.0730   22.5279 C   0  0  0  0  0  0
  -21.4012   -6.5635   23.8212 C   0  0  0  0  0  0
  -21.3656   -5.6786   24.9174 C   0  0  0  0  0  0
  -21.6042   -4.3049   24.7228 C   0  0  0  0  0  0
  -21.8821   -3.8143   23.4348 C   0  0  0  0  0  0
  -21.9195   -4.6958   22.3401 C   0  0  0  0  0  0
  -22.7865  -13.5237   21.1854 C   0  0  0  0  0  0
  -22.1665   -4.2145   21.0981 F   0  0  0  0  0  0
  -21.5628   -3.4535   25.7740 F   0  0  0  0  0  0
  -30.0324  -13.3068   20.4427 N   0  0  0  0  0  0
  -26.3015  -12.9312   20.3341 N   0  0  0  0  0  0
  -25.9310  -11.6476   20.5753 N   0  0  0  0  0  0
  -22.0500  -12.8227   22.0403 N   0  0  0  0  0  0
  -25.4308  -15.1867   20.4075 N   0  0  0  0  0  0
  -31.8208  -14.6706   20.1119 O   0  0  0  0  0  0
  -21.6634   -6.8871   21.4240 O   0  0  0  0  0  0
  -22.3558  -14.5550   20.6709 O   0  0  0  0  0  0
  -24.6150  -31.8672   23.2085 C   0  0  0  0  0  0
  -25.9043  -32.4816   23.8388 C   0  0  1  0  0  0
  -27.2381  -27.4294   20.1050 C   0  0  0  0  0  0
  -25.5899  -33.8613   24.2324 N   0  0  0  0  0  0
  -23.4045  -30.4884   21.5480 C   0  0  2  0  0  0
  -24.8547  -28.9499   20.1161 C   0  0  0  0  0  0
  -22.7414  -29.4653   22.4982 C   0  0  0  0  0  0
  -18.0275  -28.1377   22.8491 C   0  0  0  0  0  0
  -24.1484  -36.7306   23.2639 C   0  0  0  0  0  0
  -25.9326  -30.8305   21.3633 C   0  0  0  0  0  0
  -26.0126  -29.4618   20.7163 C   0  0  0  0  0  0
  -27.2091  -28.7070   20.7116 C   0  0  0  0  0  0
  -26.0701  -26.9328   19.4948 C   0  0  0  0  0  0
  -24.8778  -27.6839   19.5028 C   0  0  0  0  0  0
  -23.6153  -29.8168   20.1638 C   0  0  0  0  0  0
  -25.4103  -36.3105   24.0343 C   0  0  1  0  0  0
  -20.5867  -28.3663   23.1318 C   0  0  2  0  0  0
  -20.6762  -26.9398   22.5419 C   0  0  0  0  0  0
  -19.5743  -26.6387   21.5211 C   0  0  0  0  0  0
  -18.1919  -26.7928   22.1618 C   0  0  0  0  0  0
  -19.1526  -28.8836   23.2902 C   0  0  0  0  0  0
  -18.9454  -30.1445   23.8905 C   0  0  0  0  0  0
  -17.6456  -30.6583   24.0566 C   0  0  0  0  0  0
  -25.9029  -34.9472   23.5129 C   0  0  0  0  0  0
  -16.5345  -29.9084   23.6329 C   0  0  0  0  0  0
  -16.7266  -28.6503   23.0345 C   0  0  0  0  0  0
  -26.4470  -31.6592   25.0716 C   0  0  0  0  0  0
  -25.3743  -31.3702   26.1475 C   0  0  0  0  0  0
  -27.0293  -30.3033   24.6083 C   0  0  0  0  0  0
  -27.6051  -32.4304   25.7476 C   0  0  0  0  0  0
  -27.5581  -37.1804   24.8465 C   0  0  0  0  0  0
  -21.4141  -29.3030   22.3722 N   0  0  0  0  0  0
  -26.4287  -37.3791   23.9416 N   0  0  0  0  0  0
  -24.6686  -31.0767   22.0985 N   0  0  0  0  0  0
  -23.4180  -28.8203   23.3037 O   0  0  0  0  0  0
  -28.3819  -26.6615   20.0859 O   0  0  0  0  0  0
  -26.5586  -34.8925   22.4687 O   0  0  0  0  0  0
  -23.5340  -32.1428   23.7476 O   0  0  0  0  0  0
  -28.9303  -17.7269   21.1127 C   0  0  0  0  0  0
  -30.0905  -16.9265   20.9112 C   0  0  0  0  0  0
  -31.2694  -18.8889   20.4993 C   0  0  0  0  0  0
  -30.1015  -19.6746   20.6861 C   0  0  0  0  0  0
  -29.7444  -23.7366   19.1302 C   0  0  0  0  0  0
  -31.4123  -24.8397   17.5133 C   0  0  0  0  0  0
  -31.1101  -24.4055   18.9568 C   0  0  0  0  0  0
  -28.1798  -24.3260   21.0341 C   0  0  0  0  0  0
  -28.5571  -25.8235   21.2393 C   0  0  0  0  0  0
  -28.9906  -21.8633   20.7060 C   0  0  0  0  0  0
  -29.3275  -23.3828   20.5621 C   0  0  1  0  0  0
  -28.9211  -19.0841   20.9978 N   0  0  0  0  0  0
  -31.2685  -17.5397   20.6066 N   0  0  0  0  0  0
  -32.4874  -19.4797   20.1896 N   0  0  0  0  0  0
  -29.9235  -15.5089   21.0422 N   0  0  0  0  0  0
  -29.0051  -23.5053   18.1686 O   0  0  0  0  0  0
  -30.1696  -21.0565   20.5478 O   0  0  0  0  0  0
  -31.4714  -12.4209   19.1241 H   0  0  0  0  0  0
  -30.3353  -11.3079   19.8318 H   0  0  0  0  0  0
  -29.7412  -11.7694   17.4365 H   0  0  0  0  0  0
  -29.6630  -13.4819   17.7629 H   0  0  0  0  0  0
  -27.8318  -11.3032   18.8230 H   0  0  0  0  0  0
  -27.3691  -12.6272   17.7869 H   0  0  0  0  0  0
  -27.7008  -14.2500   19.5659 H   0  0  0  0  0  0
  -28.6851  -11.9590   21.3388 H   0  0  0  0  0  0
  -28.4609  -13.5944   21.8730 H   0  0  0  0  0  0
  -25.2751   -9.5684   22.4754 H   0  0  0  0  0  0
  -24.0000   -7.4629   22.7464 H   0  0  0  0  0  0
  -21.0837   -8.8763   19.8948 H   0  0  0  0  0  0
  -22.3684  -10.9664   19.6160 H   0  0  0  0  0  0
  -21.1998   -7.6139   23.9713 H   0  0  0  0  0  0
  -21.1478   -6.0516   25.9077 H   0  0  0  0  0  0
  -22.0603   -2.7606   23.2850 H   0  0  0  0  0  0
  -22.4101  -11.9877   22.4780 H   0  0  0  0  0  0
  -21.1121  -13.1265   22.2610 H   0  0  0  0  0  0
  -24.6565  -15.8349   20.5018 H   0  0  0  0  0  0
  -26.2605  -15.6182   20.0224 H   0  0  0  0  0  0
  -26.7118  -32.5536   23.1156 H   0  0  0  0  0  0
  -25.0072  -33.9774   25.0487 H   0  0  0  0  0  0
  -22.6937  -31.3049   21.4058 H   0  0  0  0  0  0
  -23.3750  -35.9635   23.3298 H   0  0  0  0  0  0
  -24.3586  -36.8919   22.2054 H   0  0  0  0  0  0
  -23.7231  -37.6510   23.6651 H   0  0  0  0  0  0
  -26.0445  -31.5936   20.5916 H   0  0  0  0  0  0
  -26.8204  -30.8880   21.9808 H   0  0  0  0  0  0
  -28.1046  -29.0976   21.1748 H   0  0  0  0  0  0
  -26.0841  -25.9618   19.0195 H   0  0  0  0  0  0
  -23.9887  -27.2839   19.0351 H   0  0  0  0  0  0
  -23.7223  -30.5888   19.4008 H   0  0  0  0  0  0
  -22.7401  -29.2343   19.8705 H   0  0  0  0  0  0
  -25.1274  -36.1969   25.0836 H   0  0  0  0  0  0
  -20.9963  -28.3228   24.1439 H   0  0  0  0  0  0
  -20.5663  -26.2266   23.3602 H   0  0  0  0  0  0
  -21.6635  -26.7442   22.1213 H   0  0  0  0  0  0
  -19.6898  -25.6301   21.1234 H   0  0  0  0  0  0
  -19.6682  -27.3204   20.6745 H   0  0  0  0  0  0
  -17.4194  -26.6688   21.4013 H   0  0  0  0  0  0
  -18.0306  -26.0066   22.9007 H   0  0  0  0  0  0
  -19.7931  -30.7260   24.2272 H   0  0  0  0  0  0
  -17.5013  -31.6265   24.5163 H   0  0  0  0  0  0
  -15.5345  -30.2984   23.7649 H   0  0  0  0  0  0
  -15.8667  -28.0828   22.7047 H   0  0  0  0  0  0
  -24.5906  -30.7055   25.7823 H   0  0  0  0  0  0
  -24.8949  -32.2860   26.4941 H   0  0  0  0  0  0
  -25.8111  -30.8863   27.0221 H   0  0  0  0  0  0
  -26.2826  -29.6802   24.1148 H   0  0  0  0  0  0
  -27.4077  -29.7260   25.4530 H   0  0  0  0  0  0
  -27.8657  -30.4349   23.9216 H   0  0  0  0  0  0
  -27.2682  -33.3603   26.2068 H   0  0  0  0  0  0
  -28.3854  -32.6861   25.0298 H   0  0  0  0  0  0
  -28.0723  -31.8418   26.5382 H   0  0  0  0  0  0
  -28.2598  -38.0103   24.7523 H   0  0  0  0  0  0
  -28.1074  -36.2638   24.6264 H   0  0  0  0  0  0
  -27.2308  -37.1436   25.8870 H   0  0  0  0  0  0
  -20.9297  -29.8747   21.6943 H   0  0  0  0  0  0
  -26.0177  -38.2869   24.1419 H   0  0  0  0  0  0
  -27.9818  -17.2695   21.3554 H   0  0  0  0  0  0
  -32.3905  -25.3174   17.4532 H   0  0  0  0  0  0
  -30.6721  -25.5544   17.1510 H   0  0  0  0  0  0
  -31.4182  -23.9862   16.8344 H   0  0  0  0  0  0
  -31.8754  -23.7103   19.3019 H   0  0  0  0  0  0
  -31.1537  -25.2714   19.6173 H   0  0  0  0  0  0
  -27.3143  -24.2420   20.3761 H   0  0  0  0  0  0
  -27.8382  -23.9525   21.9999 H   0  0  0  0  0  0
  -29.5946  -25.9008   21.5658 H   0  0  0  0  0  0
  -27.9727  -26.2172   22.0737 H   0  0  0  0  0  0
  -28.2282  -21.5659   19.9841 H   0  0  0  0  0  0
  -28.5759  -21.6814   21.6984 H   0  0  0  0  0  0
  -30.1856  -23.5756   21.2057 H   0  0  0  0  0  0
  -32.4678  -20.4456   19.8813 H   0  0  0  0  0  0
  -33.2180  -18.9127   19.7776 H   0  0  0  0  0  0
  -29.0205  -15.2147   21.3787 H   0  0  0  0  0  0
  1 25  1  0  0  0
  1 30  2  0  0  0
  1 85  1  0  0  0
  2  3  1  0  0  0
  2 25  1  0  0  0
  2 88  1  0  0  0
  2 89  1  0  0  0
  3  4  1  0  0  0
  3 90  1  0  0  0
  3 91  1  0  0  0
  4  5  1  0  0  0
  4 92  1  0  0  0
  4 93  1  0  0  0
  5  6  1  0  0  0
  5 26  1  0  0  0
  5 94  1  0  0  0
  6 25  1  0  0  0
  6 95  1  0  0  0
  6 96  1  0  0  0
  7  8  2  0  0  0
  7 26  1  0  0  0
  7 29  1  0  0  0
  8  9  1  0  0  0
  8 22  1  0  0  0
  9 10  1  0  0  0
  9 27  2  0  0  0
 10 11  2  0  0  0
 10 15  1  0  0  0
 11 12  1  0  0  0
 11 97  1  0  0  0
 12 13  2  0  0  0
 12 98  1  0  0  0
 13 14  1  0  0  0
 13 31  1  0  0  0
 14 15  2  0  0  0
 14 99  1  0  0  0
 15100  1  0  0  0
 16 17  2  0  0  0
 16 21  1  0  0  0
 16 31  1  0  0  0
 17 18  1  0  0  0
 17101  1  0  0  0
 18 19  2  0  0  0
 18102  1  0  0  0
 19 20  1  0  0  0
 19 24  1  0  0  0
 20 21  2  0  0  0
 20103  1  0  0  0
 21 23  1  0  0  0
 22 28  1  0  0  0
 22 32  2  0  0  0
 26 27  1  0  0  0
 28104  1  0  0  0
 28105  1  0  0  0
 29106  1  0  0  0
 29107  1  0  0  0
 33 34  1  0  0  0
 33 66  1  0  0  0
 33 70  2  0  0  0
 34 36  1  0  0  0
 34 59  1  0  0  0
 34108  1  0  0  0
 35 44  2  0  0  0
 35 45  1  0  0  0
 35 68  1  0  0  0
 36 56  1  0  0  0
 36109  1  0  0  0
 37 39  1  0  0  0
 37 47  1  0  0  0
 37 66  1  0  0  0
 37110  1  0  0  0
 38 43  2  0  0  0
 38 46  1  0  0  0
 38 47  1  0  0  0
 39 64  1  0  0  0
 39 67  2  0  0  0
 40 52  1  0  0  0
 40 53  2  0  0  0
 40 58  1  0  0  0
 41111  1  0  0  0
 41112  1  0  0  0
 41113  1  0  0  0
 41 48  1  0  0  0
 42 43  1  0  0  0
 42 66  1  0  0  0
 42114  1  0  0  0
 42115  1  0  0  0
 43 44  1  0  0  0
 44116  1  0  0  0
 45 46  2  0  0  0
 45117  1  0  0  0
 46118  1  0  0  0
 47119  1  0  0  0
 47120  1  0  0  0
 48 56  1  0  0  0
 48 65  1  0  0  0
 48121  1  0  0  0
 49 50  1  0  0  0
 49 53  1  0  0  0
 49 64  1  0  0  0
 49122  1  0  0  0
 50 51  1  0  0  0
 50123  1  0  0  0
 50124  1  0  0  0
 51 52  1  0  0  0
 51125  1  0  0  0
 51126  1  0  0  0
 52127  1  0  0  0
 52128  1  0  0  0
 53 54  1  0  0  0
 54 55  2  0  0  0
 54129  1  0  0  0
 55 57  1  0  0  0
 55130  1  0  0  0
 56 69  2  0  0  0
 57 58  2  0  0  0
 57131  1  0  0  0
 58132  1  0  0  0
 59 60  1  0  0  0
 59 61  1  0  0  0
 59 62  1  0  0  0
 60133  1  0  0  0
 60134  1  0  0  0
 60135  1  0  0  0
 61136  1  0  0  0
 61137  1  0  0  0
 61138  1  0  0  0
 62139  1  0  0  0
 62140  1  0  0  0
 62141  1  0  0  0
 63 65  1  0  0  0
 63142  1  0  0  0
 63143  1  0  0  0
 63144  1  0  0  0
 64145  1  0  0  0
 65146  1  0  0  0
 68 79  1  0  0  0
 71 72  2  0  0  0
 71 82  1  0  0  0
 71147  1  0  0  0
 72 83  1  0  0  0
 72 85  1  0  0  0
 73 74  1  0  0  0
 73 83  2  0  0  0
 73 84  1  0  0  0
 74 82  2  0  0  0
 74 87  1  0  0  0
 75 77  1  0  0  0
 75 81  1  0  0  0
 75 86  2  0  0  0
 76 77  1  0  0  0
 76148  1  0  0  0
 76149  1  0  0  0
 76150  1  0  0  0
 77151  1  0  0  0
 77152  1  0  0  0
 78 79  1  0  0  0
 78153  1  0  0  0
 78154  1  0  0  0
 78 81  1  0  0  0
 79155  1  0  0  0
 79156  1  0  0  0
 80 81  1  0  0  0
 80 87  1  0  0  0
 80157  1  0  0  0
 80158  1  0  0  0
 81159  1  0  0  0
 84160  1  0  0  0
 84161  1  0  0  0
 85162  1  0  0  0
M  ISO  4   1 100  68 101  79 101  85 100
M  END
> <chiral flag>
0

> <version>
0

> <s_m_source_file>
/data/baiqing/PycharmProjects/Reinvent-master-3.2/result/LINK_invent/BTK/process_docking_weight1_custom_product_contain_oxygen_bond_distance_aromatic_linkinvent_7_9_3/rearranged_h_0189.sdf

> <i_m_source_file_index>
14

> <r_mmod_Potential_Energy-OPLS-2005>
-108.451225280762

> <r_mmod_Stretch_Energy-OPLS-2005>
43.9463005065918

> <r_mmod_Bend_Energy-OPLS-2005>
112.088409423828

> <r_mmod_Torsional_Energy-OPLS-2005>
219.894485473633

> <r_mmod_Improper_Torsional_Energy-OPLS-2005>
6.72223854064941

> <r_mmod_Van_der_Waal_Energy-OPLS-2005>
151.525436401367

> <r_mmod_Electrostatic_Energy-OPLS-2005>
-409.843994140625

> <r_mmod_Solvation_Energy-OPLS-2005>
-247.559799194336

> <b_mmod_Minimization_Converged-OPLS-2005>
0

> <r_mmod_RMS_Derivative-OPLS-2005>
0.66543984413147

$$$$
14
                    3D
 Structure written by MMmdl.
165173  0  0  1  0            999 V2000
  -30.6178  -14.7691   20.4765 C   0  0  0  0  0  0
  -30.4408  -12.4828   19.4787 C   0  0  0  0  0  0
  -29.5155  -12.5144   18.2441 C   0  0  0  0  0  0
  -28.0435  -12.3314   18.6533 C   0  0  0  0  0  0
  -27.6444  -13.2331   19.8514 C   0  0  2  0  0  0
  -28.6831  -13.1924   20.9920 C   0  0  0  0  0  0
  -25.2541  -13.8197   20.5628 C   0  0  0  0  0  0
  -24.1823  -13.0459   20.9171 C   0  0  0  0  0  0
  -24.6407  -11.6943   20.8699 C   0  0  0  0  0  0
  -23.9064  -10.4313   21.0363 C   0  0  0  0  0  0
  -24.3628   -9.4217   21.9125 C   0  0  0  0  0  0
  -23.6297   -8.2251   22.0730 C   0  0  0  0  0  0
  -22.4276   -8.0285   21.3530 C   0  0  0  0  0  0
  -21.9910   -9.0247   20.4620 C   0  0  0  0  0  0
  -22.7244  -10.2125   20.3001 C   0  0  0  0  0  0
  -21.6868   -6.0728   22.5238 C   0  0  0  0  0  0
  -21.4038   -6.5616   23.8189 C   0  0  0  0  0  0
  -21.3663   -5.6781   24.9138 C   0  0  0  0  0  0
  -21.6045   -4.3038   24.7203 C   0  0  0  0  0  0
  -21.8840   -3.8126   23.4316 C   0  0  0  0  0  0
  -21.9219   -4.6941   22.3379 C   0  0  0  0  0  0
  -22.7843  -13.5246   21.1823 C   0  0  0  0  0  0
  -22.1681   -4.2134   21.0957 F   0  0  0  0  0  0
  -21.5636   -3.4521   25.7710 F   0  0  0  0  0  0
  -29.9881  -13.5457   20.4138 N   0  0  0  0  0  0
  -26.2976  -12.9396   20.3268 N   0  0  0  0  0  0
  -25.9336  -11.6536   20.5716 N   0  0  0  0  0  0
  -22.0502  -12.8235   22.0368 N   0  0  0  0  0  0
  -25.4332  -15.1895   20.4034 N   0  0  0  0  0  0
  -31.8066  -14.8528   20.1487 O   0  0  0  0  0  0
  -21.6665   -6.8853   21.4212 O   0  0  0  0  0  0
  -22.3532  -14.5580   20.6683 O   0  0  0  0  0  0
  -24.6395  -31.8508   23.1819 C   0  0  0  0  0  0
  -25.9186  -32.4735   23.8183 C   0  0  1  0  0  0
  -27.2208  -27.2166   20.1197 C   0  0  0  0  0  0
  -25.5949  -33.8533   24.2136 N   0  0  0  0  0  0
  -23.4356  -30.4754   21.5183 C   0  0  2  0  0  0
  -24.8816  -28.9093   20.0838 C   0  0  0  0  0  0
  -22.7532  -29.4620   22.4752 C   0  0  0  0  0  0
  -18.0330  -28.1479   22.8533 C   0  0  0  0  0  0
  -24.1461  -36.7249   23.2621 C   0  0  0  0  0  0
  -25.9767  -30.7504   21.3562 C   0  0  0  0  0  0
  -26.0455  -29.3602   20.7162 C   0  0  0  0  0  0
  -27.2056  -28.5209   20.7397 C   0  0  0  0  0  0
  -26.0422  -26.8536   19.4309 C   0  0  0  0  0  0
  -24.8898  -27.6702   19.4214 C   0  0  0  0  0  0
  -23.6553  -29.8058   20.1290 C   0  0  0  0  0  0
  -25.4107  -36.3040   24.0312 C   0  0  1  0  0  0
  -20.5987  -28.3786   23.1249 C   0  0  2  0  0  0
  -20.6838  -26.9482   22.5434 C   0  0  0  0  0  0
  -19.5772  -26.6462   21.5284 C   0  0  0  0  0  0
  -18.1947  -26.8030   22.1664 C   0  0  0  0  0  0
  -19.1603  -28.8926   23.2935 C   0  0  0  0  0  0
  -18.9535  -30.1540   23.8951 C   0  0  0  0  0  0
  -17.6546  -30.6669   24.0634 C   0  0  0  0  0  0
  -25.9085  -34.9470   23.5019 C   0  0  0  0  0  0
  -16.5429  -29.9208   23.6368 C   0  0  0  0  0  0
  -16.7339  -28.6632   23.0377 C   0  0  0  0  0  0
  -26.4490  -31.6578   25.0592 C   0  0  0  0  0  0
  -25.3678  -31.3855   26.1286 C   0  0  0  0  0  0
  -27.0309  -30.2982   24.6097 C   0  0  0  0  0  0
  -27.5977  -32.4296   25.7431 C   0  0  0  0  0  0
  -27.5571  -37.1789   24.8482 C   0  0  0  0  0  0
  -21.4221  -29.3135   22.3574 N   0  0  0  0  0  0
  -26.4236  -37.3799   23.9452 N   0  0  0  0  0  0
  -24.7024  -31.0497   22.0732 N   0  0  0  0  0  0
  -23.4223  -28.8188   23.2900 O   0  0  0  0  0  0
  -28.2936  -26.2930   20.2677 O   0  0  0  0  0  0
  -26.5718  -34.8972   22.4619 O   0  0  0  0  0  0
  -23.5533  -32.1298   23.7132 O   0  0  0  0  0  0
  -28.3718  -18.6799   21.6242 C   0  0  0  0  0  0
  -29.4351  -18.6497   20.7496 C   0  0  0  0  0  0
  -28.8769  -21.0055   20.7587 C   0  0  0  0  0  0
  -26.5964  -23.3109   19.9218 C   0  0  0  0  0  0
  -25.7518  -23.1903   18.6492 C   0  0  0  0  0  0
  -32.1285  -23.8681   18.1244 C   0  0  0  0  0  0
  -30.6286  -26.5530   19.0635 C   0  0  0  0  0  0
  -30.3023  -17.3680   20.3700 C   0  0  0  0  0  0
  -30.6392  -24.2625   18.0125 C   0  0  0  0  0  0
  -28.1163  -23.4615   19.7343 C   0  0  1  0  0  0
  -30.1245  -25.1017   19.2158 C   0  0  2  0  0  0
  -28.5757  -25.0413   19.4532 C   0  0  2  0  0  0
  -29.6809  -19.9985   20.2626 N   0  0  0  0  0  0
  -28.9196  -22.4482   20.5473 N   0  0  0  0  0  0
  -29.8727  -15.9261   20.6763 N   0  0  0  0  0  0
  -26.0532  -23.2609   21.0287 O   0  0  0  0  0  0
  -27.6995  -20.2927   21.8666 S   0  0  0  0  0  0
  -31.4751  -12.6235   19.1556 H   0  0  0  0  0  0
  -30.4241  -11.5067   19.9643 H   0  0  0  0  0  0
  -29.8062  -11.7370   17.5366 H   0  0  0  0  0  0
  -29.6330  -13.4664   17.7211 H   0  0  0  0  0  0
  -27.9044  -11.2812   18.9121 H   0  0  0  0  0  0
  -27.3902  -12.5222   17.8013 H   0  0  0  0  0  0
  -27.6369  -14.2519   19.4573 H   0  0  0  0  0  0
  -28.7255  -12.2103   21.4629 H   0  0  0  0  0  0
  -28.4059  -13.8958   21.7786 H   0  0  0  0  0  0
  -25.2762   -9.5722   22.4708 H   0  0  0  0  0  0
  -24.0024   -7.4658   22.7452 H   0  0  0  0  0  0
  -21.0843   -8.8736   19.8916 H   0  0  0  0  0  0
  -22.3665  -10.9652   19.6108 H   0  0  0  0  0  0
  -21.2032   -7.6132   23.9676 H   0  0  0  0  0  0
  -21.1463   -6.0500   25.9054 H   0  0  0  0  0  0
  -22.0622   -2.7587   23.2799 H   0  0  0  0  0  0
  -22.4178  -11.9918   22.4763 H   0  0  0  0  0  0
  -21.1089  -13.1168   22.2533 H   0  0  0  0  0  0
  -24.6732  -15.8534   20.5045 H   0  0  0  0  0  0
  -26.2854  -15.6104   20.0615 H   0  0  0  0  0  0
  -26.7274  -32.5397   23.0928 H   0  0  0  0  0  0
  -25.0126  -33.9582   25.0287 H   0  0  0  0  0  0
  -22.7422  -31.3076   21.3789 H   0  0  0  0  0  0
  -23.3747  -35.9551   23.3288 H   0  0  0  0  0  0
  -24.3547  -36.8862   22.2029 H   0  0  0  0  0  0
  -23.7188  -37.6429   23.6667 H   0  0  0  0  0  0
  -26.1204  -31.4944   20.5686 H   0  0  0  0  0  0
  -26.8517  -30.8106   21.9931 H   0  0  0  0  0  0
  -28.0795  -28.8610   21.2808 H   0  0  0  0  0  0
  -25.9982  -25.9080   18.9199 H   0  0  0  0  0  0
  -24.0081  -27.3409   18.8856 H   0  0  0  0  0  0
  -23.7765  -30.5765   19.3636 H   0  0  0  0  0  0
  -22.7708  -29.2439   19.8270 H   0  0  0  0  0  0
  -25.1304  -36.1829   25.0806 H   0  0  0  0  0  0
  -21.0152  -28.3417   24.1360 H   0  0  0  0  0  0
  -20.5782  -26.2406   23.3701 H   0  0  0  0  0  0
  -21.6688  -26.7521   22.1215 H   0  0  0  0  0  0
  -19.6891  -25.6388   21.1315 H   0  0  0  0  0  0
  -19.6702  -27.3290   20.6856 H   0  0  0  0  0  0
  -17.4268  -26.6892   21.4012 H   0  0  0  0  0  0
  -18.0208  -26.0195   22.9046 H   0  0  0  0  0  0
  -19.8035  -30.7364   24.2283 H   0  0  0  0  0  0
  -17.5137  -31.6331   24.5283 H   0  0  0  0  0  0
  -15.5441  -30.3165   23.7659 H   0  0  0  0  0  0
  -15.8748  -28.1007   22.7003 H   0  0  0  0  0  0
  -24.5959  -30.7013   25.7778 H   0  0  0  0  0  0
  -24.8704  -32.3057   26.4385 H   0  0  0  0  0  0
  -25.7957  -30.9409   27.0276 H   0  0  0  0  0  0
  -26.2870  -29.6794   24.1035 H   0  0  0  0  0  0
  -27.3943  -29.7167   25.4585 H   0  0  0  0  0  0
  -27.8804  -30.4297   23.9363 H   0  0  0  0  0  0
  -27.2573  -33.3692   26.1805 H   0  0  0  0  0  0
  -28.3972  -32.6642   25.0396 H   0  0  0  0  0  0
  -28.0408  -31.8486   26.5532 H   0  0  0  0  0  0
  -28.2607  -38.0076   24.7607 H   0  0  0  0  0  0
  -28.1036  -36.2635   24.6206 H   0  0  0  0  0  0
  -27.2329  -37.1333   25.8886 H   0  0  0  0  0  0
  -20.9405  -29.8912   21.6824 H   0  0  0  0  0  0
  -26.0092  -38.2842   24.1502 H   0  0  0  0  0  0
  -27.9337  -17.8502   22.1630 H   0  0  0  0  0  0
  -25.3679  -22.1717   18.5436 H   0  0  0  0  0  0
  -26.3351  -23.4326   17.7527 H   0  0  0  0  0  0
  -24.9104  -23.8866   18.7069 H   0  0  0  0  0  0
  -32.3441  -22.9913   17.5122 H   0  0  0  0  0  0
  -32.4108  -23.6104   19.1448 H   0  0  0  0  0  0
  -32.7967  -24.6690   17.7975 H   0  0  0  0  0  0
  -31.6463  -26.5995   18.6702 H   0  0  0  0  0  0
  -30.6396  -27.0648   20.0227 H   0  0  0  0  0  0
  -29.9862  -27.1317   18.3980 H   0  0  0  0  0  0
  -31.2913  -17.4933   20.8169 H   0  0  0  0  0  0
  -30.4968  -17.3969   19.2957 H   0  0  0  0  0  0
  -30.0729  -23.3401   17.9136 H   0  0  0  0  0  0
  -30.4651  -24.8041   17.0789 H   0  0  0  0  0  0
  -28.2655  -23.0046   18.7568 H   0  0  0  0  0  0
  -30.5900  -24.6939   20.1146 H   0  0  0  0  0  0
  -28.1238  -25.2604   18.4825 H   0  0  0  0  0  0
  -28.9583  -22.8533   21.4780 H   0  0  0  0  0  0
  -28.9034  -15.7994   20.9308 H   0  0  0  0  0  0
  1 25  1  0  0  0
  1 30  2  0  0  0
  1 85  1  0  0  0
  2  3  1  0  0  0
  2 25  1  0  0  0
  2 88  1  0  0  0
  2 89  1  0  0  0
  3  4  1  0  0  0
  3 90  1  0  0  0
  3 91  1  0  0  0
  4  5  1  0  0  0
  4 92  1  0  0  0
  4 93  1  0  0  0
  5  6  1  0  0  0
  5 26  1  0  0  0
  5 94  1  0  0  0
  6 25  1  0  0  0
  6 95  1  0  0  0
  6 96  1  0  0  0
  7  8  2  0  0  0
  7 26  1  0  0  0
  7 29  1  0  0  0
  8  9  1  0  0  0
  8 22  1  0  0  0
  9 10  1  0  0  0
  9 27  2  0  0  0
 10 11  2  0  0  0
 10 15  1  0  0  0
 11 12  1  0  0  0
 11 97  1  0  0  0
 12 13  2  0  0  0
 12 98  1  0  0  0
 13 14  1  0  0  0
 13 31  1  0  0  0
 14 15  2  0  0  0
 14 99  1  0  0  0
 15100  1  0  0  0
 16 17  2  0  0  0
 16 21  1  0  0  0
 16 31  1  0  0  0
 17 18  1  0  0  0
 17101  1  0  0  0
 18 19  2  0  0  0
 18102  1  0  0  0
 19 20  1  0  0  0
 19 24  1  0  0  0
 20 21  2  0  0  0
 20103  1  0  0  0
 21 23  1  0  0  0
 22 28  1  0  0  0
 22 32  2  0  0  0
 26 27  1  0  0  0
 28104  1  0  0  0
 28105  1  0  0  0
 29106  1  0  0  0
 29107  1  0  0  0
 33 34  1  0  0  0
 33 66  1  0  0  0
 33 70  2  0  0  0
 34 36  1  0  0  0
 34 59  1  0  0  0
 34108  1  0  0  0
 35 44  2  0  0  0
 35 45  1  0  0  0
 35 68  1  0  0  0
 36 56  1  0  0  0
 36109  1  0  0  0
 37 39  1  0  0  0
 37 47  1  0  0  0
 37 66  1  0  0  0
 37110  1  0  0  0
 38 43  2  0  0  0
 38 46  1  0  0  0
 38 47  1  0  0  0
 39 64  1  0  0  0
 39 67  2  0  0  0
 40 52  1  0  0  0
 40 53  2  0  0  0
 40 58  1  0  0  0
 41111  1  0  0  0
 41112  1  0  0  0
 41113  1  0  0  0
 41 48  1  0  0  0
 42 43  1  0  0  0
 42 66  1  0  0  0
 42114  1  0  0  0
 42115  1  0  0  0
 43 44  1  0  0  0
 44116  1  0  0  0
 45 46  2  0  0  0
 45117  1  0  0  0
 46118  1  0  0  0
 47119  1  0  0  0
 47120  1  0  0  0
 48 56  1  0  0  0
 48 65  1  0  0  0
 48121  1  0  0  0
 49 50  1  0  0  0
 49 53  1  0  0  0
 49 64  1  0  0  0
 49122  1  0  0  0
 50 51  1  0  0  0
 50123  1  0  0  0
 50124  1  0  0  0
 51 52  1  0  0  0
 51125  1  0  0  0
 51126  1  0  0  0
 52127  1  0  0  0
 52128  1  0  0  0
 53 54  1  0  0  0
 54 55  2  0  0  0
 54129  1  0  0  0
 55 57  1  0  0  0
 55130  1  0  0  0
 56 69  2  0  0  0
 57 58  2  0  0  0
 57131  1  0  0  0
 58132  1  0  0  0
 59 60  1  0  0  0
 59 61  1  0  0  0
 59 62  1  0  0  0
 60133  1  0  0  0
 60134  1  0  0  0
 60135  1  0  0  0
 61136  1  0  0  0
 61137  1  0  0  0
 61138  1  0  0  0
 62139  1  0  0  0
 62140  1  0  0  0
 62141  1  0  0  0
 63 65  1  0  0  0
 63142  1  0  0  0
 63143  1  0  0  0
 63144  1  0  0  0
 64145  1  0  0  0
 65146  1  0  0  0
 68 82  1  0  0  0
 71 72  2  0  0  0
 71 87  1  0  0  0
 71147  1  0  0  0
 72 78  1  0  0  0
 72 83  1  0  0  0
 73 83  2  0  0  0
 73 84  1  0  0  0
 73 87  1  0  0  0
 74 75  1  0  0  0
 74 80  1  0  0  0
 74 86  2  0  0  0
 75148  1  0  0  0
 75149  1  0  0  0
 75150  1  0  0  0
 76 79  1  0  0  0
 76151  1  0  0  0
 76152  1  0  0  0
 76153  1  0  0  0
 77154  1  0  0  0
 77155  1  0  0  0
 77156  1  0  0  0
 77 81  1  0  0  0
 78 85  1  0  0  0
 78157  1  0  0  0
 78158  1  0  0  0
 79 81  1  0  0  0
 79159  1  0  0  0
 79160  1  0  0  0
 80 82  1  0  0  0
 80 84  1  0  0  0
 80161  1  0  0  0
 81 82  1  0  0  0
 81162  1  0  0  0
 82163  1  0  0  0
 84164  1  0  0  0
 85165  1  0  0  0
M  ISO  4   1 100  68 101  82 101  85 100
M  END
> <chiral flag>
0

> <version>
0

> <s_m_source_file>
/data/baiqing/PycharmProjects/Reinvent-master-3.2/result/LINK_invent/BTK/process_docking_weight1_custom_product_contain_oxygen_bond_distance_aromatic_linkinvent_7_9_3/rearranged_h_0189.sdf

> <i_m_source_file_index>
15

> <r_mmod_Potential_Energy-OPLS-2005>
84.6148376464844

> <r_mmod_Stretch_Energy-OPLS-2005>
149.661102294922

> <r_mmod_Bend_Energy-OPLS-2005>
235.124389648438

> <r_mmod_Torsional_Energy-OPLS-2005>
257.07177734375

> <r_mmod_Improper_Torsional_Energy-OPLS-2005>
10.7022762298584

> <r_mmod_Van_der_Waal_Energy-OPLS-2005>
107.551918029785

> <r_mmod_Electrostatic_Energy-OPLS-2005>
-547.687316894531

> <r_mmod_Solvation_Energy-OPLS-2005>
-238.25569152832

> <b_mmod_Minimization_Converged-OPLS-2005>
0

> <r_mmod_RMS_Derivative-OPLS-2005>
8.24216365814209

$$$$
15
                    3D
 Structure written by MMmdl.
156164  0  0  1  0            999 V2000
  -30.7149  -14.4809   20.5847 C   0  0  0  0  0  0
  -30.4191  -12.3210   19.4230 C   0  0  0  0  0  0
  -29.4929  -12.5096   18.2048 C   0  0  0  0  0  0
  -28.0154  -12.3644   18.6190 C   0  0  0  0  0  0
  -27.6575  -13.2110   19.8706 C   0  0  2  0  0  0
  -28.6999  -13.0092   20.9936 C   0  0  0  0  0  0
  -25.2558  -13.8161   20.5640 C   0  0  0  0  0  0
  -24.1823  -13.0442   20.9178 C   0  0  0  0  0  0
  -24.6383  -11.6910   20.8734 C   0  0  0  0  0  0
  -23.9045  -10.4292   21.0402 C   0  0  0  0  0  0
  -24.3602   -9.4208   21.9177 C   0  0  0  0  0  0
  -23.6282   -8.2242   22.0749 C   0  0  0  0  0  0
  -22.4263   -8.0272   21.3542 C   0  0  0  0  0  0
  -21.9893   -9.0245   20.4644 C   0  0  0  0  0  0
  -22.7218  -10.2129   20.3051 C   0  0  0  0  0  0
  -21.6852   -6.0725   22.5273 C   0  0  0  0  0  0
  -21.4016   -6.5628   23.8206 C   0  0  0  0  0  0
  -21.3662   -5.6783   24.9167 C   0  0  0  0  0  0
  -21.6045   -4.3047   24.7225 C   0  0  0  0  0  0
  -21.8819   -3.8135   23.4348 C   0  0  0  0  0  0
  -21.9194   -4.6951   22.3400 C   0  0  0  0  0  0
  -22.7844  -13.5239   21.1852 C   0  0  0  0  0  0
  -22.1661   -4.2132   21.0982 F   0  0  0  0  0  0
  -21.5631   -3.4532   25.7742 F   0  0  0  0  0  0
  -30.0286  -13.3143   20.4369 N   0  0  0  0  0  0
  -26.2997  -12.9341   20.3336 N   0  0  0  0  0  0
  -25.9310  -11.6498   20.5754 N   0  0  0  0  0  0
  -22.0489  -12.8233   22.0414 N   0  0  0  0  0  0
  -25.4272  -15.1862   20.3972 N   0  0  0  0  0  0
  -31.8362  -14.6548   20.0994 O   0  0  0  0  0  0
  -21.6636   -6.8866   21.4235 O   0  0  0  0  0  0
  -22.3518  -14.5541   20.6697 O   0  0  0  0  0  0
  -24.6155  -31.8669   23.2100 C   0  0  0  0  0  0
  -25.9049  -32.4809   23.8395 C   0  0  1  0  0  0
  -27.2291  -27.4252   20.1028 C   0  0  0  0  0  0
  -25.5902  -33.8611   24.2322 N   0  0  0  0  0  0
  -23.4044  -30.4908   21.5512 C   0  0  2  0  0  0
  -24.8516  -28.9571   20.1128 C   0  0  0  0  0  0
  -22.7421  -29.4652   22.4994 C   0  0  0  0  0  0
  -18.0269  -28.1378   22.8488 C   0  0  0  0  0  0
  -24.1491  -36.7315   23.2643 C   0  0  0  0  0  0
  -25.9343  -30.8313   21.3640 C   0  0  0  0  0  0
  -26.0128  -29.4661   20.7091 C   0  0  0  0  0  0
  -27.2091  -28.7095   20.6953 C   0  0  0  0  0  0
  -26.0544  -26.9369   19.4921 C   0  0  0  0  0  0
  -24.8673  -27.6926   19.4990 C   0  0  0  0  0  0
  -23.6133  -29.8245   20.1653 C   0  0  0  0  0  0
  -25.4114  -36.3103   24.0334 C   0  0  1  0  0  0
  -20.5863  -28.3665   23.1316 C   0  0  2  0  0  0
  -20.6766  -26.9401   22.5418 C   0  0  0  0  0  0
  -19.5746  -26.6383   21.5212 C   0  0  0  0  0  0
  -18.1921  -26.7922   22.1621 C   0  0  0  0  0  0
  -19.1520  -28.8838   23.2894 C   0  0  0  0  0  0
  -18.9449  -30.1444   23.8905 C   0  0  0  0  0  0
  -17.6453  -30.6583   24.0566 C   0  0  0  0  0  0
  -25.9040  -34.9467   23.5126 C   0  0  0  0  0  0
  -16.5343  -29.9089   23.6325 C   0  0  0  0  0  0
  -16.7257  -28.6507   23.0341 C   0  0  0  0  0  0
  -26.4464  -31.6580   25.0720 C   0  0  0  0  0  0
  -25.3722  -31.3684   26.1461 C   0  0  0  0  0  0
  -27.0290  -30.3017   24.6098 C   0  0  0  0  0  0
  -27.6036  -32.4298   25.7488 C   0  0  0  0  0  0
  -27.5575  -37.1820   24.8472 C   0  0  0  0  0  0
  -21.4147  -29.3031   22.3729 N   0  0  0  0  0  0
  -26.4300  -37.3786   23.9396 N   0  0  0  0  0  0
  -24.6695  -31.0773   22.1000 N   0  0  0  0  0  0
  -23.4187  -28.8190   23.3034 O   0  0  0  0  0  0
  -28.3693  -26.6468   20.1152 O   0  0  0  0  0  0
  -26.5604  -34.8917   22.4688 O   0  0  0  0  0  0
  -23.5346  -32.1422   23.7490 O   0  0  0  0  0  0
  -28.6191  -18.4574   21.6159 C   0  0  0  0  0  0
  -29.8934  -18.0428   21.2599 C   0  0  0  0  0  0
  -29.3625  -20.4038   20.6376 C   0  0  0  0  0  0
  -28.4804  -22.7670   20.4981 C   0  0  0  0  0  0
  -28.9310  -25.5268   22.1565 C   0  0  0  0  0  0
  -30.6538  -16.7751   21.6172 C   0  0  0  0  0  0
  -28.7950  -24.1857   19.9494 C   0  0  0  0  0  0
  -28.2357  -25.3748   20.7936 C   0  0  2  0  0  0
  -27.5632  -17.7089   22.4015 C   0  0  0  0  0  0
  -28.3472  -19.7952   21.2573 N   0  0  0  0  0  0
  -29.3650  -21.7775   20.2302 N   0  0  0  0  0  0
  -30.0674  -15.4813   21.2164 N   0  0  0  0  0  0
  -27.4384  -22.5886   21.1346 O   0  0  0  0  0  0
  -27.7809  -16.3941   22.4331 F   0  0  0  0  0  0
  -27.5172  -18.1361   23.6636 F   0  0  0  0  0  0
  -26.3529  -17.8938   21.8734 F   0  0  0  0  0  0
  -30.7332  -19.3239   20.3935 S   0  0  0  0  0  0
  -31.4643  -12.4139   19.1222 H   0  0  0  0  0  0
  -30.3166  -11.3139   19.8292 H   0  0  0  0  0  0
  -29.7373  -11.7799   17.4315 H   0  0  0  0  0  0
  -29.6563  -13.4934   17.7617 H   0  0  0  0  0  0
  -27.8339  -11.3082   18.8230 H   0  0  0  0  0  0
  -27.3625  -12.6277   17.7861 H   0  0  0  0  0  0
  -27.6976  -14.2566   19.5652 H   0  0  0  0  0  0
  -28.6803  -11.9779   21.3485 H   0  0  0  0  0  0
  -28.4565  -13.6199   21.8637 H   0  0  0  0  0  0
  -25.2753   -9.5681   22.4743 H   0  0  0  0  0  0
  -23.9990   -7.4633   22.7466 H   0  0  0  0  0  0
  -21.0825   -8.8765   19.8949 H   0  0  0  0  0  0
  -22.3678  -10.9665   19.6157 H   0  0  0  0  0  0
  -21.2005   -7.6136   23.9705 H   0  0  0  0  0  0
  -21.1487   -6.0514   25.9074 H   0  0  0  0  0  0
  -22.0598   -2.7594   23.2854 H   0  0  0  0  0  0
  -22.4109  -11.9905   22.4818 H   0  0  0  0  0  0
  -21.1104  -13.1255   22.2620 H   0  0  0  0  0  0
  -24.6629  -15.8433   20.5017 H   0  0  0  0  0  0
  -26.2732  -15.6151   20.0489 H   0  0  0  0  0  0
  -26.7123  -32.5513   23.1158 H   0  0  0  0  0  0
  -25.0044  -33.9777   25.0459 H   0  0  0  0  0  0
  -22.6929  -31.3076   21.4136 H   0  0  0  0  0  0
  -23.3736  -35.9668   23.3335 H   0  0  0  0  0  0
  -24.3573  -36.8904   22.2051 H   0  0  0  0  0  0
  -23.7276  -37.6538   23.6646 H   0  0  0  0  0  0
  -26.0506  -31.5995   20.5981 H   0  0  0  0  0  0
  -26.8201  -30.8806   21.9852 H   0  0  0  0  0  0
  -28.1071  -29.0954   21.1577 H   0  0  0  0  0  0
  -26.0571  -25.9665   19.0170 H   0  0  0  0  0  0
  -23.9757  -27.2973   19.0318 H   0  0  0  0  0  0
  -23.7229  -30.6016   19.4080 H   0  0  0  0  0  0
  -22.7370  -29.2457   19.8678 H   0  0  0  0  0  0
  -25.1301  -36.1970   25.0830 H   0  0  0  0  0  0
  -20.9935  -28.3228   24.1447 H   0  0  0  0  0  0
  -20.5672  -26.2268   23.3603 H   0  0  0  0  0  0
  -21.6635  -26.7453   22.1209 H   0  0  0  0  0  0
  -19.6909  -25.6298   21.1232 H   0  0  0  0  0  0
  -19.6686  -27.3199   20.6748 H   0  0  0  0  0  0
  -17.4191  -26.6661   21.4023 H   0  0  0  0  0  0
  -18.0328  -26.0065   22.9020 H   0  0  0  0  0  0
  -19.7929  -30.7253   24.2276 H   0  0  0  0  0  0
  -17.5015  -31.6264   24.5170 H   0  0  0  0  0  0
  -15.5346  -30.2994   23.7652 H   0  0  0  0  0  0
  -15.8656  -28.0835   22.7046 H   0  0  0  0  0  0
  -24.5896  -30.7037   25.7789 H   0  0  0  0  0  0
  -24.8907  -32.2839   26.4920 H   0  0  0  0  0  0
  -25.8062  -30.8833   27.0211 H   0  0  0  0  0  0
  -26.2814  -29.6767   24.1189 H   0  0  0  0  0  0
  -27.4096  -29.7267   25.4548 H   0  0  0  0  0  0
  -27.8647  -30.4326   23.9222 H   0  0  0  0  0  0
  -27.2643  -33.3573   26.2108 H   0  0  0  0  0  0
  -28.3831  -32.6885   25.0312 H   0  0  0  0  0  0
  -28.0706  -31.8406   26.5392 H   0  0  0  0  0  0
  -28.2627  -38.0083   24.7476 H   0  0  0  0  0  0
  -28.1040  -36.2614   24.6359 H   0  0  0  0  0  0
  -27.2287  -37.1546   25.8876 H   0  0  0  0  0  0
  -20.9311  -29.8752   21.6949 H   0  0  0  0  0  0
  -26.0189  -38.2874   24.1358 H   0  0  0  0  0  0
  -28.4955  -26.3488   22.7260 H   0  0  0  0  0  0
  -29.9958  -25.7282   22.0399 H   0  0  0  0  0  0
  -28.8247  -24.6254   22.7604 H   0  0  0  0  0  0
  -30.7710  -16.7413   22.7004 H   0  0  0  0  0  0
  -31.6741  -16.8618   21.2394 H   0  0  0  0  0  0
  -28.3661  -24.2387   18.9487 H   0  0  0  0  0  0
  -29.8718  -24.3020   19.8254 H   0  0  0  0  0  0
  -27.1854  -25.1659   21.0050 H   0  0  0  0  0  0
  -30.1768  -22.0563   19.6976 H   0  0  0  0  0  0
  -29.1430  -15.2697   21.5629 H   0  0  0  0  0  0
  1 25  1  0  0  0
  1 30  2  0  0  0
  1 82  1  0  0  0
  2  3  1  0  0  0
  2 25  1  0  0  0
  2 88  1  0  0  0
  2 89  1  0  0  0
  3  4  1  0  0  0
  3 90  1  0  0  0
  3 91  1  0  0  0
  4  5  1  0  0  0
  4 92  1  0  0  0
  4 93  1  0  0  0
  5  6  1  0  0  0
  5 26  1  0  0  0
  5 94  1  0  0  0
  6 25  1  0  0  0
  6 95  1  0  0  0
  6 96  1  0  0  0
  7  8  2  0  0  0
  7 26  1  0  0  0
  7 29  1  0  0  0
  8  9  1  0  0  0
  8 22  1  0  0  0
  9 10  1  0  0  0
  9 27  2  0  0  0
 10 11  2  0  0  0
 10 15  1  0  0  0
 11 12  1  0  0  0
 11 97  1  0  0  0
 12 13  2  0  0  0
 12 98  1  0  0  0
 13 14  1  0  0  0
 13 31  1  0  0  0
 14 15  2  0  0  0
 14 99  1  0  0  0
 15100  1  0  0  0
 16 17  2  0  0  0
 16 21  1  0  0  0
 16 31  1  0  0  0
 17 18  1  0  0  0
 17101  1  0  0  0
 18 19  2  0  0  0
 18102  1  0  0  0
 19 20  1  0  0  0
 19 24  1  0  0  0
 20 21  2  0  0  0
 20103  1  0  0  0
 21 23  1  0  0  0
 22 28  1  0  0  0
 22 32  2  0  0  0
 26 27  1  0  0  0
 28104  1  0  0  0
 28105  1  0  0  0
 29106  1  0  0  0
 29107  1  0  0  0
 33 34  1  0  0  0
 33 66  1  0  0  0
 33 70  2  0  0  0
 34 36  1  0  0  0
 34 59  1  0  0  0
 34108  1  0  0  0
 35 44  2  0  0  0
 35 45  1  0  0  0
 35 68  1  0  0  0
 36 56  1  0  0  0
 36109  1  0  0  0
 37 39  1  0  0  0
 37 47  1  0  0  0
 37 66  1  0  0  0
 37110  1  0  0  0
 38 43  2  0  0  0
 38 46  1  0  0  0
 38 47  1  0  0  0
 39 64  1  0  0  0
 39 67  2  0  0  0
 40 52  1  0  0  0
 40 53  2  0  0  0
 40 58  1  0  0  0
 41111  1  0  0  0
 41112  1  0  0  0
 41113  1  0  0  0
 41 48  1  0  0  0
 42 43  1  0  0  0
 42 66  1  0  0  0
 42114  1  0  0  0
 42115  1  0  0  0
 43 44  1  0  0  0
 44116  1  0  0  0
 45 46  2  0  0  0
 45117  1  0  0  0
 46118  1  0  0  0
 47119  1  0  0  0
 47120  1  0  0  0
 48 56  1  0  0  0
 48 65  1  0  0  0
 48121  1  0  0  0
 49 50  1  0  0  0
 49 53  1  0  0  0
 49 64  1  0  0  0
 49122  1  0  0  0
 50 51  1  0  0  0
 50123  1  0  0  0
 50124  1  0  0  0
 51 52  1  0  0  0
 51125  1  0  0  0
 51126  1  0  0  0
 52127  1  0  0  0
 52128  1  0  0  0
 53 54  1  0  0  0
 54 55  2  0  0  0
 54129  1  0  0  0
 55 57  1  0  0  0
 55130  1  0  0  0
 56 69  2  0  0  0
 57 58  2  0  0  0
 57131  1  0  0  0
 58132  1  0  0  0
 59 60  1  0  0  0
 59 61  1  0  0  0
 59 62  1  0  0  0
 60133  1  0  0  0
 60134  1  0  0  0
 60135  1  0  0  0
 61136  1  0  0  0
 61137  1  0  0  0
 61138  1  0  0  0
 62139  1  0  0  0
 62140  1  0  0  0
 62141  1  0  0  0
 63 65  1  0  0  0
 63142  1  0  0  0
 63143  1  0  0  0
 63144  1  0  0  0
 64145  1  0  0  0
 65146  1  0  0  0
 68 78  1  0  0  0
 71 72  2  0  0  0
 71 79  1  0  0  0
 71 80  1  0  0  0
 72 76  1  0  0  0
 72 87  1  0  0  0
 73 80  2  0  0  0
 73 81  1  0  0  0
 73 87  1  0  0  0
 74 77  1  0  0  0
 74 81  1  0  0  0
 74 83  2  0  0  0
 75147  1  0  0  0
 75148  1  0  0  0
 75149  1  0  0  0
 75 78  1  0  0  0
 76 82  1  0  0  0
 76150  1  0  0  0
 76151  1  0  0  0
 77 78  1  0  0  0
 77152  1  0  0  0
 77153  1  0  0  0
 78154  1  0  0  0
 79 84  1  0  0  0
 79 85  1  0  0  0
 79 86  1  0  0  0
 81155  1  0  0  0
 82156  1  0  0  0
M  ISO  4   1 100  68 101  78 101  82 100
M  END
> <chiral flag>
0

> <version>
0

> <s_m_source_file>
/data/baiqing/PycharmProjects/Reinvent-master-3.2/result/LINK_invent/BTK/process_docking_weight1_custom_product_contain_oxygen_bond_distance_aromatic_linkinvent_7_9_3/rearranged_h_0189.sdf

> <i_m_source_file_index>
16

> <r_mmod_Potential_Energy-OPLS-2005>
-114.289611816406

> <r_mmod_Stretch_Energy-OPLS-2005>
40.9546165466309

> <r_mmod_Bend_Energy-OPLS-2005>
106.161575317383

> <r_mmod_Torsional_Energy-OPLS-2005>
206.471115112305

> <r_mmod_Improper_Torsional_Energy-OPLS-2005>
3.12412238121033

> <r_mmod_Van_der_Waal_Energy-OPLS-2005>
127.92357635498

> <r_mmod_Electrostatic_Energy-OPLS-2005>
-380.404693603516

> <r_mmod_Solvation_Energy-OPLS-2005>
-233.092468261719

> <b_mmod_Minimization_Converged-OPLS-2005>
0

> <r_mmod_RMS_Derivative-OPLS-2005>
1.16010749340057

$$$$
16
                    3D
 Structure written by MMmdl.
169177  0  0  1  0            999 V2000
  -30.7024  -14.5043   20.5381 C   0  0  0  0  0  0
  -30.4177  -12.3199   19.4276 C   0  0  0  0  0  0
  -29.4912  -12.4941   18.2069 C   0  0  0  0  0  0
  -28.0137  -12.3527   18.6225 C   0  0  0  0  0  0
  -27.6544  -13.2105   19.8658 C   0  0  2  0  0  0
  -28.6996  -13.0351   20.9907 C   0  0  0  0  0  0
  -25.2559  -13.8168   20.5682 C   0  0  0  0  0  0
  -24.1824  -13.0438   20.9189 C   0  0  0  0  0  0
  -24.6386  -11.6908   20.8744 C   0  0  0  0  0  0
  -23.9057  -10.4293   21.0411 C   0  0  0  0  0  0
  -24.3613   -9.4208   21.9184 C   0  0  0  0  0  0
  -23.6292   -8.2243   22.0754 C   0  0  0  0  0  0
  -22.4275   -8.0282   21.3545 C   0  0  0  0  0  0
  -21.9907   -9.0254   20.4649 C   0  0  0  0  0  0
  -22.7234  -10.2133   20.3055 C   0  0  0  0  0  0
  -21.6856   -6.0739   22.5282 C   0  0  0  0  0  0
  -21.4018   -6.5642   23.8215 C   0  0  0  0  0  0
  -21.3655   -5.6794   24.9174 C   0  0  0  0  0  0
  -21.6041   -4.3056   24.7225 C   0  0  0  0  0  0
  -21.8823   -3.8150   23.4347 C   0  0  0  0  0  0
  -21.9193   -4.6966   22.3403 C   0  0  0  0  0  0
  -22.7845  -13.5229   21.1853 C   0  0  0  0  0  0
  -22.1663   -4.2150   21.0982 F   0  0  0  0  0  0
  -21.5624   -3.4542   25.7738 F   0  0  0  0  0  0
  -30.0226  -13.3305   20.4217 N   0  0  0  0  0  0
  -26.2990  -12.9343   20.3342 N   0  0  0  0  0  0
  -25.9313  -11.6503   20.5775 N   0  0  0  0  0  0
  -22.0495  -12.8215   22.0411 N   0  0  0  0  0  0
  -25.4261  -15.1891   20.4084 N   0  0  0  0  0  0
  -31.8666  -14.6257   20.1459 O   0  0  0  0  0  0
  -21.6637   -6.8881   21.4246 O   0  0  0  0  0  0
  -22.3527  -14.5538   20.6710 O   0  0  0  0  0  0
  -24.6154  -31.8675   23.2092 C   0  0  0  0  0  0
  -25.9044  -32.4821   23.8391 C   0  0  1  0  0  0
  -27.2312  -27.4266   20.1066 C   0  0  0  0  0  0
  -25.5900  -33.8620   24.2324 N   0  0  0  0  0  0
  -23.4047  -30.4895   21.5495 C   0  0  2  0  0  0
  -24.8529  -28.9529   20.1155 C   0  0  0  0  0  0
  -22.7417  -29.4653   22.4988 C   0  0  0  0  0  0
  -18.0274  -28.1380   22.8498 C   0  0  0  0  0  0
  -24.1484  -36.7311   23.2637 C   0  0  0  0  0  0
  -25.9337  -30.8314   21.3632 C   0  0  0  0  0  0
  -26.0131  -29.4639   20.7132 C   0  0  0  0  0  0
  -27.2094  -28.7080   20.7049 C   0  0  0  0  0  0
  -26.0598  -26.9307   19.5015 C   0  0  0  0  0  0
  -24.8711  -27.6857   19.5057 C   0  0  0  0  0  0
  -23.6144  -29.8198   20.1647 C   0  0  0  0  0  0
  -25.4105  -36.3110   24.0337 C   0  0  1  0  0  0
  -20.5864  -28.3666   23.1321 C   0  0  2  0  0  0
  -20.6762  -26.9399   22.5421 C   0  0  0  0  0  0
  -19.5739  -26.6387   21.5218 C   0  0  0  0  0  0
  -18.1918  -26.7929   22.1626 C   0  0  0  0  0  0
  -19.1524  -28.8839   23.2906 C   0  0  0  0  0  0
  -18.9451  -30.1449   23.8911 C   0  0  0  0  0  0
  -17.6452  -30.6586   24.0567 C   0  0  0  0  0  0
  -25.9039  -34.9477   23.5129 C   0  0  0  0  0  0
  -16.5344  -29.9089   23.6327 C   0  0  0  0  0  0
  -16.7264  -28.6504   23.0349 C   0  0  0  0  0  0
  -26.4471  -31.6600   25.0720 C   0  0  0  0  0  0
  -25.3740  -31.3702   26.1471 C   0  0  0  0  0  0
  -27.0298  -30.3043   24.6093 C   0  0  0  0  0  0
  -27.6050  -32.4317   25.7482 C   0  0  0  0  0  0
  -27.5585  -37.1802   24.8459 C   0  0  0  0  0  0
  -21.4141  -29.3035   22.3728 N   0  0  0  0  0  0
  -26.4288  -37.3799   23.9418 N   0  0  0  0  0  0
  -24.6695  -31.0773   22.0994 N   0  0  0  0  0  0
  -23.4184  -28.8199   23.3036 O   0  0  0  0  0  0
  -28.3676  -26.6500   20.0938 O   0  0  0  0  0  0
  -26.5601  -34.8929   22.4690 O   0  0  0  0  0  0
  -23.5343  -32.1424   23.7483 O   0  0  0  0  0  0
  -31.7831  -18.9331   21.5316 C   0  0  0  0  0  0
  -30.6780  -19.1537   20.7514 C   0  0  0  0  0  0
  -30.4829  -16.9029   21.0591 C   0  0  0  0  0  0
  -30.4310  -20.4873   20.1492 C   0  0  0  0  0  0
  -29.2953  -21.0192   19.6503 C   0  0  0  0  0  0
  -29.0346  -21.4668   15.0125 C   0  0  0  0  0  0
  -30.7356  -20.6753   16.6591 C   0  0  0  0  0  0
  -30.5929  -23.1151   16.0499 C   0  0  0  0  0  0
  -28.4450  -23.5156   19.5230 C   0  0  0  0  0  0
  -28.7197  -22.0616   17.4255 C   0  0  0  0  0  0
  -28.3761  -25.6073   21.0886 C   0  0  0  0  0  0
  -29.2480  -22.3439   18.8633 C   0  0  2  0  0  0
  -29.1502  -24.3364   20.6345 C   0  0  2  0  0  0
  -29.7790  -21.8310   16.3116 C   0  0  0  0  0  0
  -29.8865  -18.0016   20.5465 N   0  0  0  0  0  0
  -29.9675  -15.5865   20.8784 N   0  0  0  0  0  0
  -30.4411  -24.7725   20.2431 O   0  0  0  0  0  0
  -31.9559  -17.2560   21.9646 S   0  0  0  0  0  0
  -31.4619  -12.4119   19.1237 H   0  0  0  0  0  0
  -30.3166  -11.3188   19.8492 H   0  0  0  0  0  0
  -29.7345  -11.7575   17.4399 H   0  0  0  0  0  0
  -29.6546  -13.4736   17.7543 H   0  0  0  0  0  0
  -27.8323  -11.2986   18.8363 H   0  0  0  0  0  0
  -27.3606  -12.6088   17.7871 H   0  0  0  0  0  0
  -27.6838  -14.2507   19.5414 H   0  0  0  0  0  0
  -28.6822  -12.0141   21.3755 H   0  0  0  0  0  0
  -28.4687  -13.6770   21.8424 H   0  0  0  0  0  0
  -25.2760   -9.5687   22.4748 H   0  0  0  0  0  0
  -24.0005   -7.4636   22.7472 H   0  0  0  0  0  0
  -21.0840   -8.8775   19.8950 H   0  0  0  0  0  0
  -22.3699  -10.9671   19.6160 H   0  0  0  0  0  0
  -21.2019   -7.6151   23.9717 H   0  0  0  0  0  0
  -21.1470   -6.0526   25.9075 H   0  0  0  0  0  0
  -22.0603   -2.7611   23.2849 H   0  0  0  0  0  0
  -22.4114  -11.9865   22.4779 H   0  0  0  0  0  0
  -21.1115  -13.1236   22.2634 H   0  0  0  0  0  0
  -24.6561  -15.8405   20.5149 H   0  0  0  0  0  0
  -26.2708  -15.6319   20.0697 H   0  0  0  0  0  0
  -26.7119  -32.5535   23.1161 H   0  0  0  0  0  0
  -25.0055  -33.9783   25.0472 H   0  0  0  0  0  0
  -22.6936  -31.3063   21.4086 H   0  0  0  0  0  0
  -23.3754  -35.9636   23.3290 H   0  0  0  0  0  0
  -24.3582  -36.8934   22.2054 H   0  0  0  0  0  0
  -23.7226  -37.6507   23.6658 H   0  0  0  0  0  0
  -26.0454  -31.5961   20.5938 H   0  0  0  0  0  0
  -26.8219  -30.8870   21.9810 H   0  0  0  0  0  0
  -28.1065  -29.0967   21.1662 H   0  0  0  0  0  0
  -26.0674  -25.9558   19.0349 H   0  0  0  0  0  0
  -23.9797  -27.2861   19.0422 H   0  0  0  0  0  0
  -23.7223  -30.5933   19.4035 H   0  0  0  0  0  0
  -22.7387  -29.2384   19.8696 H   0  0  0  0  0  0
  -25.1279  -36.1971   25.0829 H   0  0  0  0  0  0
  -20.9962  -28.3232   24.1438 H   0  0  0  0  0  0
  -20.5670  -26.2271   23.3608 H   0  0  0  0  0  0
  -21.6632  -26.7444   22.1213 H   0  0  0  0  0  0
  -19.6901  -25.6305   21.1233 H   0  0  0  0  0  0
  -19.6681  -27.3209   20.6757 H   0  0  0  0  0  0
  -17.4192  -26.6693   21.4020 H   0  0  0  0  0  0
  -18.0308  -26.0065   22.9014 H   0  0  0  0  0  0
  -19.7927  -30.7265   24.2284 H   0  0  0  0  0  0
  -17.5006  -31.6268   24.5170 H   0  0  0  0  0  0
  -15.5346  -30.2993   23.7645 H   0  0  0  0  0  0
  -15.8665  -28.0833   22.7049 H   0  0  0  0  0  0
  -24.5909  -30.7055   25.7804 H   0  0  0  0  0  0
  -24.8938  -32.2855   26.4940 H   0  0  0  0  0  0
  -25.8097  -30.8853   27.0216 H   0  0  0  0  0  0
  -26.2836  -29.6809   24.1153 H   0  0  0  0  0  0
  -27.4073  -29.7275   25.4546 H   0  0  0  0  0  0
  -27.8670  -30.4360   23.9235 H   0  0  0  0  0  0
  -27.2675  -33.3610   26.2085 H   0  0  0  0  0  0
  -28.3848  -32.6888   25.0301 H   0  0  0  0  0  0
  -28.0733  -31.8425   26.5377 H   0  0  0  0  0  0
  -28.2585  -38.0117   24.7544 H   0  0  0  0  0  0
  -28.1098  -36.2652   24.6234 H   0  0  0  0  0  0
  -27.2312  -37.1395   25.8863 H   0  0  0  0  0  0
  -20.9306  -29.8752   21.6944 H   0  0  0  0  0  0
  -26.0175  -38.2872   24.1444 H   0  0  0  0  0  0
  -32.5335  -19.6485   21.8399 H   0  0  0  0  0  0
  -31.3241  -21.0876   20.0482 H   0  0  0  0  0  0
  -28.3678  -20.4724   19.7495 H   0  0  0  0  0  0
  -29.7256  -21.3050   14.1841 H   0  0  0  0  0  0
  -28.3466  -22.2573   14.7101 H   0  0  0  0  0  0
  -28.4497  -20.5535   15.1289 H   0  0  0  0  0  0
  -31.4005  -20.4445   15.8255 H   0  0  0  0  0  0
  -30.1897  -19.7637   16.9047 H   0  0  0  0  0  0
  -31.3717  -20.9182   17.5095 H   0  0  0  0  0  0
  -31.2781  -22.9854   15.2112 H   0  0  0  0  0  0
  -31.1992  -23.4064   16.9072 H   0  0  0  0  0  0
  -29.9437  -23.9581   15.8103 H   0  0  0  0  0  0
  -27.4920  -23.1392   19.8971 H   0  0  0  0  0  0
  -28.1798  -24.2401   18.7522 H   0  0  0  0  0  0
  -28.0876  -22.8854   17.0917 H   0  0  0  0  0  0
  -28.0369  -21.2107   17.4581 H   0  0  0  0  0  0
  -28.8333  -26.0134   21.9922 H   0  0  0  0  0  0
  -27.3628  -25.3162   21.3732 H   0  0  0  0  0  0
  -30.2742  -22.6931   18.7734 H   0  0  0  0  0  0
  -29.2732  -23.6804   21.4980 H   0  0  0  0  0  0
  -28.9733  -15.4636   20.9734 H   0  0  0  0  0  0
  -30.3090  -25.5149   19.6596 H   0  0  0  0  0  0
  1 25  1  0  0  0
  1 30  2  0  0  0
  1 86  1  0  0  0
  2  3  1  0  0  0
  2 25  1  0  0  0
  2 89  1  0  0  0
  2 90  1  0  0  0
  3  4  1  0  0  0
  3 91  1  0  0  0
  3 92  1  0  0  0
  4  5  1  0  0  0
  4 93  1  0  0  0
  4 94  1  0  0  0
  5  6  1  0  0  0
  5 26  1  0  0  0
  5 95  1  0  0  0
  6 25  1  0  0  0
  6 96  1  0  0  0
  6 97  1  0  0  0
  7  8  2  0  0  0
  7 26  1  0  0  0
  7 29  1  0  0  0
  8  9  1  0  0  0
  8 22  1  0  0  0
  9 10  1  0  0  0
  9 27  2  0  0  0
 10 11  2  0  0  0
 10 15  1  0  0  0
 11 12  1  0  0  0
 11 98  1  0  0  0
 12 13  2  0  0  0
 12 99  1  0  0  0
 13 14  1  0  0  0
 13 31  1  0  0  0
 14 15  2  0  0  0
 14100  1  0  0  0
 15101  1  0  0  0
 16 17  2  0  0  0
 16 21  1  0  0  0
 16 31  1  0  0  0
 17 18  1  0  0  0
 17102  1  0  0  0
 18 19  2  0  0  0
 18103  1  0  0  0
 19 20  1  0  0  0
 19 24  1  0  0  0
 20 21  2  0  0  0
 20104  1  0  0  0
 21 23  1  0  0  0
 22 28  1  0  0  0
 22 32  2  0  0  0
 26 27  1  0  0  0
 28105  1  0  0  0
 28106  1  0  0  0
 29107  1  0  0  0
 29108  1  0  0  0
 33 34  1  0  0  0
 33 66  1  0  0  0
 33 70  2  0  0  0
 34 36  1  0  0  0
 34 59  1  0  0  0
 34109  1  0  0  0
 35 44  2  0  0  0
 35 45  1  0  0  0
 35 68  1  0  0  0
 36 56  1  0  0  0
 36110  1  0  0  0
 37 39  1  0  0  0
 37 47  1  0  0  0
 37 66  1  0  0  0
 37111  1  0  0  0
 38 43  2  0  0  0
 38 46  1  0  0  0
 38 47  1  0  0  0
 39 64  1  0  0  0
 39 67  2  0  0  0
 40 52  1  0  0  0
 40 53  2  0  0  0
 40 58  1  0  0  0
 41112  1  0  0  0
 41113  1  0  0  0
 41114  1  0  0  0
 41 48  1  0  0  0
 42 43  1  0  0  0
 42 66  1  0  0  0
 42115  1  0  0  0
 42116  1  0  0  0
 43 44  1  0  0  0
 44117  1  0  0  0
 45 46  2  0  0  0
 45118  1  0  0  0
 46119  1  0  0  0
 47120  1  0  0  0
 47121  1  0  0  0
 48 56  1  0  0  0
 48 65  1  0  0  0
 48122  1  0  0  0
 49 50  1  0  0  0
 49 53  1  0  0  0
 49 64  1  0  0  0
 49123  1  0  0  0
 50 51  1  0  0  0
 50124  1  0  0  0
 50125  1  0  0  0
 51 52  1  0  0  0
 51126  1  0  0  0
 51127  1  0  0  0
 52128  1  0  0  0
 52129  1  0  0  0
 53 54  1  0  0  0
 54 55  2  0  0  0
 54130  1  0  0  0
 55 57  1  0  0  0
 55131  1  0  0  0
 56 69  2  0  0  0
 57 58  2  0  0  0
 57132  1  0  0  0
 58133  1  0  0  0
 59 60  1  0  0  0
 59 61  1  0  0  0
 59 62  1  0  0  0
 60134  1  0  0  0
 60135  1  0  0  0
 60136  1  0  0  0
 61137  1  0  0  0
 61138  1  0  0  0
 61139  1  0  0  0
 62140  1  0  0  0
 62141  1  0  0  0
 62142  1  0  0  0
 63 65  1  0  0  0
 63143  1  0  0  0
 63144  1  0  0  0
 63145  1  0  0  0
 64146  1  0  0  0
 65147  1  0  0  0
 68 81  1  0  0  0
 71 72  2  0  0  0
 71 88  1  0  0  0
 71148  1  0  0  0
 72 74  1  0  0  0
 72 85  1  0  0  0
 73 85  2  0  0  0
 73 86  1  0  0  0
 73 88  1  0  0  0
 74 75  2  0  0  0
 74149  1  0  0  0
 75 82  1  0  0  0
 75150  1  0  0  0
 76151  1  0  0  0
 76152  1  0  0  0
 76153  1  0  0  0
 76 84  1  0  0  0
 77 84  1  0  0  0
 77154  1  0  0  0
 77155  1  0  0  0
 77156  1  0  0  0
 78 84  1  0  0  0
 78157  1  0  0  0
 78158  1  0  0  0
 78159  1  0  0  0
 79 83  1  0  0  0
 79160  1  0  0  0
 79161  1  0  0  0
 79 82  1  0  0  0
 80 82  1  0  0  0
 80 84  1  0  0  0
 80162  1  0  0  0
 80163  1  0  0  0
 81 83  1  0  0  0
 81164  1  0  0  0
 81165  1  0  0  0
 82166  1  0  0  0
 83 87  1  0  0  0
 83167  1  0  0  0
 86168  1  0  0  0
 87169  1  0  0  0
M  ISO  4   1 100  68 101  81 101  86 100
M  END
> <chiral flag>
0

> <version>
0

> <s_m_source_file>
/data/baiqing/PycharmProjects/Reinvent-master-3.2/result/LINK_invent/BTK/process_docking_weight1_custom_product_contain_oxygen_bond_distance_aromatic_linkinvent_7_9_3/rearranged_h_0189.sdf

> <i_m_source_file_index>
17

> <r_mmod_Potential_Energy-OPLS-2005>
-74.4638061523438

> <r_mmod_Stretch_Energy-OPLS-2005>
40.7289161682129

> <r_mmod_Bend_Energy-OPLS-2005>
113.210166931152

> <r_mmod_Torsional_Energy-OPLS-2005>
285.655487060547

> <r_mmod_Improper_Torsional_Energy-OPLS-2005>
6.33924055099487

> <r_mmod_Van_der_Waal_Energy-OPLS-2005>
126.087417602539

> <r_mmod_Electrostatic_Energy-OPLS-2005>
-456.623931884766

> <r_mmod_Solvation_Energy-OPLS-2005>
-207.786193847656

> <b_mmod_Minimization_Converged-OPLS-2005>
0

> <r_mmod_RMS_Derivative-OPLS-2005>
0.647021651268005

$$$$
17
                    3D
 Structure written by MMmdl.
157165  0  0  1  0            999 V2000
  -30.7209  -14.4185   20.5622 C   0  0  0  0  0  0
  -30.4083  -12.2671   19.4231 C   0  0  0  0  0  0
  -29.4909  -12.4996   18.2059 C   0  0  0  0  0  0
  -28.0061  -12.3830   18.6015 C   0  0  0  0  0  0
  -27.6566  -13.2062   19.8696 C   0  0  2  0  0  0
  -28.6919  -12.9777   20.9900 C   0  0  0  0  0  0
  -25.2589  -13.8167   20.5685 C   0  0  0  0  0  0
  -24.1831  -13.0447   20.9143 C   0  0  0  0  0  0
  -24.6370  -11.6909   20.8719 C   0  0  0  0  0  0
  -23.9032  -10.4299   21.0411 C   0  0  0  0  0  0
  -24.3603   -9.4215   21.9179 C   0  0  0  0  0  0
  -23.6294   -8.2246   22.0750 C   0  0  0  0  0  0
  -22.4278   -8.0272   21.3542 C   0  0  0  0  0  0
  -21.9900   -9.0236   20.4648 C   0  0  0  0  0  0
  -22.7203  -10.2129   20.3065 C   0  0  0  0  0  0
  -21.6862   -6.0741   22.5272 C   0  0  0  0  0  0
  -21.4016   -6.5644   23.8202 C   0  0  0  0  0  0
  -21.3673   -5.6794   24.9166 C   0  0  0  0  0  0
  -21.6049   -4.3055   24.7223 C   0  0  0  0  0  0
  -21.8820   -3.8151   23.4344 C   0  0  0  0  0  0
  -21.9203   -4.6969   22.3401 C   0  0  0  0  0  0
  -22.7868  -13.5264   21.1833 C   0  0  0  0  0  0
  -22.1665   -4.2151   21.0979 F   0  0  0  0  0  0
  -21.5631   -3.4543   25.7740 F   0  0  0  0  0  0
  -30.0323  -13.2519   20.4467 N   0  0  0  0  0  0
  -26.2994  -12.9320   20.3336 N   0  0  0  0  0  0
  -25.9290  -11.6475   20.5719 N   0  0  0  0  0  0
  -22.0515  -12.8265   22.0401 N   0  0  0  0  0  0
  -25.4343  -15.1883   20.4109 N   0  0  0  0  0  0
  -31.8645  -14.5785   20.1274 O   0  0  0  0  0  0
  -21.6636   -6.8879   21.4236 O   0  0  0  0  0  0
  -22.3545  -14.5564   20.6671 O   0  0  0  0  0  0
  -24.6118  -31.8720   23.2145 C   0  0  0  0  0  0
  -25.9042  -32.4833   23.8419 C   0  0  1  0  0  0
  -27.2330  -27.4648   20.0839 C   0  0  0  0  0  0
  -25.5930  -33.8632   24.2349 N   0  0  0  0  0  0
  -23.3972  -30.4935   21.5552 C   0  0  2  0  0  0
  -24.8439  -28.9596   20.1213 C   0  0  0  0  0  0
  -22.7381  -29.4690   22.5041 C   0  0  0  0  0  0
  -18.0270  -28.1380   22.8503 C   0  0  0  0  0  0
  -24.1493  -36.7302   23.2634 C   0  0  0  0  0  0
  -25.9236  -30.8385   21.3682 C   0  0  0  0  0  0
  -26.0008  -29.4736   20.7204 C   0  0  0  0  0  0
  -27.1980  -28.7254   20.7134 C   0  0  0  0  0  0
  -26.0553  -26.9453   19.5089 C   0  0  0  0  0  0
  -24.8624  -27.6885   19.5208 C   0  0  0  0  0  0
  -23.6031  -29.8186   20.1722 C   0  0  0  0  0  0
  -25.4117  -36.3116   24.0342 C   0  0  1  0  0  0
  -20.5853  -28.3663   23.1330 C   0  0  2  0  0  0
  -20.6760  -26.9401   22.5424 C   0  0  0  0  0  0
  -19.5746  -26.6385   21.5212 C   0  0  0  0  0  0
  -18.1922  -26.7932   22.1627 C   0  0  0  0  0  0
  -19.1517  -28.8842   23.2907 C   0  0  0  0  0  0
  -18.9442  -30.1450   23.8908 C   0  0  0  0  0  0
  -17.6442  -30.6585   24.0567 C   0  0  0  0  0  0
  -25.9042  -34.9480   23.5130 C   0  0  0  0  0  0
  -16.5333  -29.9085   23.6329 C   0  0  0  0  0  0
  -16.7258  -28.6504   23.0353 C   0  0  0  0  0  0
  -26.4495  -31.6599   25.0724 C   0  0  0  0  0  0
  -25.3750  -31.3718   26.1455 C   0  0  0  0  0  0
  -27.0319  -30.3039   24.6096 C   0  0  0  0  0  0
  -27.6076  -32.4324   25.7480 C   0  0  0  0  0  0
  -27.5592  -37.1801   24.8466 C   0  0  0  0  0  0
  -21.4123  -29.3045   22.3760 N   0  0  0  0  0  0
  -26.4307  -37.3796   23.9413 N   0  0  0  0  0  0
  -24.6614  -31.0834   22.1035 N   0  0  0  0  0  0
  -23.4163  -28.8230   23.3072 O   0  0  0  0  0  0
  -28.3972  -26.7385   20.0664 O   0  0  0  0  0  0
  -26.5587  -34.8923   22.4678 O   0  0  0  0  0  0
  -23.5330  -32.1474   23.7567 O   0  0  0  0  0  0
  -29.5117  -16.7264   21.0489 C   0  0  0  0  0  0
  -30.0015  -15.6062   20.9818 C   0  0  0  0  0  0
  -27.9165  -20.0392   20.9408 C   0  0  0  0  0  0
  -29.0933  -18.0568   20.8621 C   0  0  0  0  0  0
  -28.0234  -18.6953   21.4382 C   0  0  0  0  0  0
  -28.8728  -20.3764   19.9999 C   0  0  0  0  0  0
  -28.4256  -22.6866   19.3048 C   0  0  0  0  0  0
  -27.0789  -18.0981   22.4433 C   0  0  0  0  0  0
  -27.7977  -23.9338   17.1803 C   0  0  0  0  0  0
  -29.5751  -24.9621   18.8454 C   0  0  0  0  0  0
  -28.8412  -26.3201   18.7784 C   0  0  0  0  0  0
  -28.8929  -23.6954   18.2399 C   0  0  1  0  0  0
  -29.0770  -21.5136   19.2868 N   0  0  0  0  0  0
  -27.5190  -22.9725   20.0897 O   0  0  0  0  0  0
  -29.9565  -19.0352   19.7234 S   0  0  0  0  0  0
  -31.4534  -12.3496   19.1197 H   0  0  0  0  0  0
  -30.2859  -11.2537   19.8127 H   0  0  0  0  0  0
  -29.7313  -11.7905   17.4133 H   0  0  0  0  0  0
  -29.6767  -13.4932   17.7963 H   0  0  0  0  0  0
  -27.7856  -11.3280   18.7639 H   0  0  0  0  0  0
  -27.3784  -12.7087   17.7719 H   0  0  0  0  0  0
  -27.7054  -14.2565   19.5842 H   0  0  0  0  0  0
  -28.6425  -11.9478   21.3481 H   0  0  0  0  0  0
  -28.4630  -13.6055   21.8516 H   0  0  0  0  0  0
  -25.2774   -9.5708   22.4712 H   0  0  0  0  0  0
  -24.0029   -7.4666   22.7484 H   0  0  0  0  0  0
  -21.0825   -8.8757   19.8967 H   0  0  0  0  0  0
  -22.3661  -10.9666   19.6178 H   0  0  0  0  0  0
  -21.1971   -7.6149   23.9704 H   0  0  0  0  0  0
  -21.1505   -6.0524   25.9074 H   0  0  0  0  0  0
  -22.0582   -2.7613   23.2832 H   0  0  0  0  0  0
  -22.4148  -11.9939   22.4804 H   0  0  0  0  0  0
  -21.1135  -13.1297   22.2626 H   0  0  0  0  0  0
  -24.6777  -15.8544   20.5221 H   0  0  0  0  0  0
  -26.2977  -15.6235   20.1162 H   0  0  0  0  0  0
  -26.7099  -32.5548   23.1177 H   0  0  0  0  0  0
  -25.0106  -33.9788   25.0512 H   0  0  0  0  0  0
  -22.6823  -31.3078   21.4148 H   0  0  0  0  0  0
  -23.3760  -35.9628   23.3308 H   0  0  0  0  0  0
  -24.3570  -36.8899   22.2043 H   0  0  0  0  0  0
  -23.7231  -37.6510   23.6623 H   0  0  0  0  0  0
  -26.0280  -31.5982   20.5947 H   0  0  0  0  0  0
  -26.8170  -30.8986   21.9783 H   0  0  0  0  0  0
  -28.0938  -29.1147   21.1789 H   0  0  0  0  0  0
  -26.0567  -25.9605   19.0660 H   0  0  0  0  0  0
  -23.9692  -27.2726   19.0762 H   0  0  0  0  0  0
  -23.7024  -30.5862   19.4049 H   0  0  0  0  0  0
  -22.7297  -29.2287   19.8876 H   0  0  0  0  0  0
  -25.1283  -36.1989   25.0838 H   0  0  0  0  0  0
  -20.9942  -28.3228   24.1447 H   0  0  0  0  0  0
  -20.5659  -26.2264   23.3607 H   0  0  0  0  0  0
  -21.6629  -26.7439   22.1210 H   0  0  0  0  0  0
  -19.6895  -25.6292   21.1247 H   0  0  0  0  0  0
  -19.6686  -27.3194   20.6745 H   0  0  0  0  0  0
  -17.4188  -26.6681   21.4030 H   0  0  0  0  0  0
  -18.0322  -26.0056   22.9016 H   0  0  0  0  0  0
  -19.7908  -30.7279   24.2265 H   0  0  0  0  0  0
  -17.4985  -31.6262   24.5187 H   0  0  0  0  0  0
  -15.5332  -30.2988   23.7641 H   0  0  0  0  0  0
  -15.8661  -28.0821   22.7059 H   0  0  0  0  0  0
  -24.5922  -30.7076   25.7767 H   0  0  0  0  0  0
  -24.8938  -32.2887   26.4878 H   0  0  0  0  0  0
  -25.8092  -30.8885   27.0212 H   0  0  0  0  0  0
  -26.2869  -29.6808   24.1136 H   0  0  0  0  0  0
  -27.4059  -29.7276   25.4566 H   0  0  0  0  0  0
  -27.8718  -30.4337   23.9264 H   0  0  0  0  0  0
  -27.2704  -33.3619   26.2087 H   0  0  0  0  0  0
  -28.3890  -32.6908   25.0311 H   0  0  0  0  0  0
  -28.0745  -31.8417   26.5373 H   0  0  0  0  0  0
  -28.2625  -38.0086   24.7518 H   0  0  0  0  0  0
  -28.1091  -36.2622   24.6308 H   0  0  0  0  0  0
  -27.2295  -37.1460   25.8864 H   0  0  0  0  0  0
  -20.9300  -29.8742   21.6944 H   0  0  0  0  0  0
  -26.0208  -38.2885   24.1399 H   0  0  0  0  0  0
  -27.1304  -20.6956   21.2893 H   0  0  0  0  0  0
  -27.3928  -18.3270   23.4621 H   0  0  0  0  0  0
  -27.0198  -17.0130   22.3586 H   0  0  0  0  0  0
  -26.0641  -18.4774   22.3136 H   0  0  0  0  0  0
  -26.9058  -24.3926   17.6052 H   0  0  0  0  0  0
  -27.4820  -22.9923   16.7280 H   0  0  0  0  0  0
  -28.1626  -24.5682   16.3718 H   0  0  0  0  0  0
  -29.8852  -24.7718   19.8758 H   0  0  0  0  0  0
  -30.5175  -25.0961   18.3105 H   0  0  0  0  0  0
  -28.0663  -26.3382   18.0146 H   0  0  0  0  0  0
  -29.5554  -27.0782   18.4551 H   0  0  0  0  0  0
  -29.6919  -23.1908   17.6933 H   0  0  0  0  0  0
  -29.8198  -21.4607   18.6012 H   0  0  0  0  0  0
  1 25  1  0  0  0
  1 30  2  0  0  0
  1 72  1  0  0  0
  2  3  1  0  0  0
  2 25  1  0  0  0
  2 86  1  0  0  0
  2 87  1  0  0  0
  3  4  1  0  0  0
  3 88  1  0  0  0
  3 89  1  0  0  0
  4  5  1  0  0  0
  4 90  1  0  0  0
  4 91  1  0  0  0
  5  6  1  0  0  0
  5 26  1  0  0  0
  5 92  1  0  0  0
  6 25  1  0  0  0
  6 93  1  0  0  0
  6 94  1  0  0  0
  7  8  2  0  0  0
  7 26  1  0  0  0
  7 29  1  0  0  0
  8  9  1  0  0  0
  8 22  1  0  0  0
  9 10  1  0  0  0
  9 27  2  0  0  0
 10 11  2  0  0  0
 10 15  1  0  0  0
 11 12  1  0  0  0
 11 95  1  0  0  0
 12 13  2  0  0  0
 12 96  1  0  0  0
 13 14  1  0  0  0
 13 31  1  0  0  0
 14 15  2  0  0  0
 14 97  1  0  0  0
 15 98  1  0  0  0
 16 17  2  0  0  0
 16 21  1  0  0  0
 16 31  1  0  0  0
 17 18  1  0  0  0
 17 99  1  0  0  0
 18 19  2  0  0  0
 18100  1  0  0  0
 19 20  1  0  0  0
 19 24  1  0  0  0
 20 21  2  0  0  0
 20101  1  0  0  0
 21 23  1  0  0  0
 22 28  1  0  0  0
 22 32  2  0  0  0
 26 27  1  0  0  0
 28102  1  0  0  0
 28103  1  0  0  0
 29104  1  0  0  0
 29105  1  0  0  0
 33 34  1  0  0  0
 33 66  1  0  0  0
 33 70  2  0  0  0
 34 36  1  0  0  0
 34 59  1  0  0  0
 34106  1  0  0  0
 35 44  2  0  0  0
 35 45  1  0  0  0
 35 68  1  0  0  0
 36 56  1  0  0  0
 36107  1  0  0  0
 37 39  1  0  0  0
 37 47  1  0  0  0
 37 66  1  0  0  0
 37108  1  0  0  0
 38 43  2  0  0  0
 38 46  1  0  0  0
 38 47  1  0  0  0
 39 64  1  0  0  0
 39 67  2  0  0  0
 40 52  1  0  0  0
 40 53  2  0  0  0
 40 58  1  0  0  0
 41109  1  0  0  0
 41110  1  0  0  0
 41111  1  0  0  0
 41 48  1  0  0  0
 42 43  1  0  0  0
 42 66  1  0  0  0
 42112  1  0  0  0
 42113  1  0  0  0
 43 44  1  0  0  0
 44114  1  0  0  0
 45 46  2  0  0  0
 45115  1  0  0  0
 46116  1  0  0  0
 47117  1  0  0  0
 47118  1  0  0  0
 48 56  1  0  0  0
 48 65  1  0  0  0
 48119  1  0  0  0
 49 50  1  0  0  0
 49 53  1  0  0  0
 49 64  1  0  0  0
 49120  1  0  0  0
 50 51  1  0  0  0
 50121  1  0  0  0
 50122  1  0  0  0
 51 52  1  0  0  0
 51123  1  0  0  0
 51124  1  0  0  0
 52125  1  0  0  0
 52126  1  0  0  0
 53 54  1  0  0  0
 54 55  2  0  0  0
 54127  1  0  0  0
 55 57  1  0  0  0
 55128  1  0  0  0
 56 69  2  0  0  0
 57 58  2  0  0  0
 57129  1  0  0  0
 58130  1  0  0  0
 59 60  1  0  0  0
 59 61  1  0  0  0
 59 62  1  0  0  0
 60131  1  0  0  0
 60132  1  0  0  0
 60133  1  0  0  0
 61134  1  0  0  0
 61135  1  0  0  0
 61136  1  0  0  0
 62137  1  0  0  0
 62138  1  0  0  0
 62139  1  0  0  0
 63 65  1  0  0  0
 63140  1  0  0  0
 63141  1  0  0  0
 63142  1  0  0  0
 64143  1  0  0  0
 65144  1  0  0  0
 68 81  1  0  0  0
 71 72  3  0  0  0
 71 74  1  0  0  0
 73 75  1  0  0  0
 73 76  2  0  0  0
 73145  1  0  0  0
 74 75  2  0  0  0
 74 85  1  0  0  0
 75 78  1  0  0  0
 76 83  1  0  0  0
 76 85  1  0  0  0
 77 82  1  0  0  0
 77 83  1  0  0  0
 77 84  2  0  0  0
 78146  1  0  0  0
 78147  1  0  0  0
 78148  1  0  0  0
 79149  1  0  0  0
 79150  1  0  0  0
 79151  1  0  0  0
 79 82  1  0  0  0
 80 81  1  0  0  0
 80 82  1  0  0  0
 80152  1  0  0  0
 80153  1  0  0  0
 81154  1  0  0  0
 81155  1  0  0  0
 82156  1  0  0  0
 83157  1  0  0  0
M  ISO  4   1 100  68 101  72 100  81 101
M  END
> <chiral flag>
0

> <version>
0

> <s_m_source_file>
/data/baiqing/PycharmProjects/Reinvent-master-3.2/result/LINK_invent/BTK/process_docking_weight1_custom_product_contain_oxygen_bond_distance_aromatic_linkinvent_7_9_3/rearranged_h_0189.sdf

> <i_m_source_file_index>
18

> <r_mmod_Potential_Energy-OPLS-2005>
-41.520320892334

> <r_mmod_Stretch_Energy-OPLS-2005>
31.6679935455322

> <r_mmod_Bend_Energy-OPLS-2005>
131.595260620117

> <r_mmod_Torsional_Energy-OPLS-2005>
220.576293945312

> <r_mmod_Improper_Torsional_Energy-OPLS-2005>
5.47247934341431

> <r_mmod_Van_der_Waal_Energy-OPLS-2005>
128.856552124023

> <r_mmod_Electrostatic_Energy-OPLS-2005>
-354.198669433594

> <r_mmod_Solvation_Energy-OPLS-2005>
-216.198486328125

> <b_mmod_Minimization_Converged-OPLS-2005>
0

> <r_mmod_RMS_Derivative-OPLS-2005>
3.81319689750671

$$$$
18
                    3D
 Structure written by MMmdl.
154162  0  0  1  0            999 V2000
  -30.6907  -14.4586   20.5173 C   0  0  0  0  0  0
  -30.4209  -12.2784   19.4342 C   0  0  0  0  0  0
  -29.4962  -12.4865   18.2139 C   0  0  0  0  0  0
  -28.0154  -12.3566   18.6223 C   0  0  0  0  0  0
  -27.6611  -13.2019   19.8753 C   0  0  2  0  0  0
  -28.7032  -12.9903   21.0017 C   0  0  0  0  0  0
  -25.2578  -13.8157   20.5694 C   0  0  0  0  0  0
  -24.1823  -13.0439   20.9190 C   0  0  0  0  0  0
  -24.6372  -11.6906   20.8745 C   0  0  0  0  0  0
  -23.9042  -10.4295   21.0411 C   0  0  0  0  0  0
  -24.3599   -9.4212   21.9185 C   0  0  0  0  0  0
  -23.6283   -8.2242   22.0758 C   0  0  0  0  0  0
  -22.4266   -8.0280   21.3550 C   0  0  0  0  0  0
  -21.9894   -9.0254   20.4654 C   0  0  0  0  0  0
  -22.7217  -10.2136   20.3067 C   0  0  0  0  0  0
  -21.6855   -6.0732   22.5283 C   0  0  0  0  0  0
  -21.4012   -6.5634   23.8214 C   0  0  0  0  0  0
  -21.3661   -5.6790   24.9178 C   0  0  0  0  0  0
  -21.6047   -4.3054   24.7226 C   0  0  0  0  0  0
  -21.8816   -3.8145   23.4347 C   0  0  0  0  0  0
  -21.9185   -4.6959   22.3404 C   0  0  0  0  0  0
  -22.7844  -13.5250   21.1845 C   0  0  0  0  0  0
  -22.1658   -4.2144   21.0985 F   0  0  0  0  0  0
  -21.5625   -3.4542   25.7741 F   0  0  0  0  0  0
  -30.0405  -13.2685   20.4512 N   0  0  0  0  0  0
  -26.3014  -12.9321   20.3372 N   0  0  0  0  0  0
  -25.9300  -11.6489   20.5773 N   0  0  0  0  0  0
  -22.0472  -12.8267   22.0407 N   0  0  0  0  0  0
  -25.4285  -15.1879   20.4107 N   0  0  0  0  0  0
  -31.8393  -14.6299   20.1013 O   0  0  0  0  0  0
  -21.6636   -6.8874   21.4247 O   0  0  0  0  0  0
  -22.3541  -14.5557   20.6680 O   0  0  0  0  0  0
  -24.6117  -31.8689   23.2096 C   0  0  0  0  0  0
  -25.9026  -32.4826   23.8387 C   0  0  1  0  0  0
  -27.2401  -27.4600   20.1062 C   0  0  0  0  0  0
  -25.5896  -33.8623   24.2325 N   0  0  0  0  0  0
  -23.3988  -30.4914   21.5477 C   0  0  2  0  0  0
  -24.8498  -28.9558   20.1164 C   0  0  0  0  0  0
  -22.7389  -29.4669   22.4979 C   0  0  0  0  0  0
  -18.0262  -28.1378   22.8491 C   0  0  0  0  0  0
  -24.1487  -36.7314   23.2638 C   0  0  0  0  0  0
  -25.9224  -30.8443   21.3580 C   0  0  0  0  0  0
  -26.0041  -29.4763   20.7161 C   0  0  0  0  0  0
  -27.2034  -28.7325   20.7156 C   0  0  0  0  0  0
  -26.0790  -26.9484   19.4958 C   0  0  0  0  0  0
  -24.8796  -27.6885   19.5060 C   0  0  0  0  0  0
  -23.6074  -29.8179   20.1632 C   0  0  0  0  0  0
  -25.4107  -36.3113   24.0341 C   0  0  1  0  0  0
  -20.5853  -28.3661   23.1319 C   0  0  2  0  0  0
  -20.6753  -26.9398   22.5420 C   0  0  0  0  0  0
  -19.5737  -26.6386   21.5210 C   0  0  0  0  0  0
  -18.1915  -26.7923   22.1620 C   0  0  0  0  0  0
  -19.1513  -28.8831   23.2904 C   0  0  0  0  0  0
  -18.9446  -30.1440   23.8916 C   0  0  0  0  0  0
  -17.6453  -30.6587   24.0569 C   0  0  0  0  0  0
  -25.9030  -34.9478   23.5123 C   0  0  0  0  0  0
  -16.5340  -29.9095   23.6330 C   0  0  0  0  0  0
  -16.7253  -28.6507   23.0349 C   0  0  0  0  0  0
  -26.4473  -31.6597   25.0697 C   0  0  0  0  0  0
  -25.3754  -31.3707   26.1451 C   0  0  0  0  0  0
  -27.0301  -30.3047   24.6047 C   0  0  0  0  0  0
  -27.6040  -32.4316   25.7467 C   0  0  0  0  0  0
  -27.5577  -37.1808   24.8464 C   0  0  0  0  0  0
  -21.4116  -29.3036   22.3725 N   0  0  0  0  0  0
  -26.4289  -37.3800   23.9411 N   0  0  0  0  0  0
  -24.6623  -31.0822   22.0976 N   0  0  0  0  0  0
  -23.4169  -28.8226   23.3026 O   0  0  0  0  0  0
  -28.3969  -26.7216   20.0759 O   0  0  0  0  0  0
  -26.5587  -34.8929   22.4681 O   0  0  0  0  0  0
  -23.5318  -32.1418   23.7517 O   0  0  0  0  0  0
  -30.2087  -18.0130   20.5841 C   0  0  0  0  0  0
  -31.4279  -18.6359   20.7057 C   0  0  0  0  0  0
  -30.1305  -20.3246   21.4468 C   0  0  0  0  0  0
  -29.9025  -16.7058   19.9142 C   0  0  0  0  0  0
  -28.4613  -24.5205   21.1472 C   0  0  0  0  0  0
  -28.5477  -22.2052   22.3141 C   0  0  0  0  0  0
  -28.6946  -26.0392   21.2969 C   0  0  0  0  0  0
  -28.6316  -23.7399   22.4678 C   0  0  2  0  0  0
  -31.3806  -19.9451   21.1952 N   0  0  0  0  0  0
  -29.7978  -21.6034   21.8678 N   0  0  0  0  0  0
  -29.8885  -15.5064   20.7628 N   0  0  0  0  0  0
  -32.5572  -18.0817   20.3302 F   0  0  0  0  0  0
  -27.6527  -24.1119   23.2924 F   0  0  0  0  0  0
  -28.9315  -19.0628   21.1576 S   0  0  0  0  0  0
  -31.4677  -12.3651   19.1378 H   0  0  0  0  0  0
  -30.3100  -11.2694   19.8354 H   0  0  0  0  0  0
  -29.7319  -11.7576   17.4372 H   0  0  0  0  0  0
  -29.6711  -13.4695   17.7726 H   0  0  0  0  0  0
  -27.8206  -11.3022   18.8219 H   0  0  0  0  0  0
  -27.3683  -12.6301   17.7875 H   0  0  0  0  0  0
  -27.6995  -14.2461   19.5656 H   0  0  0  0  0  0
  -28.6661  -11.9629   21.3667 H   0  0  0  0  0  0
  -28.4797  -13.6178   21.8664 H   0  0  0  0  0  0
  -25.2744   -9.5689   22.4755 H   0  0  0  0  0  0
  -23.9993   -7.4636   22.7481 H   0  0  0  0  0  0
  -21.0818   -8.8770   19.8968 H   0  0  0  0  0  0
  -22.3669  -10.9672   19.6174 H   0  0  0  0  0  0
  -21.2012   -7.6142   23.9719 H   0  0  0  0  0  0
  -21.1488   -6.0519   25.9078 H   0  0  0  0  0  0
  -22.0593   -2.7606   23.2850 H   0  0  0  0  0  0
  -22.4080  -11.9937   22.4816 H   0  0  0  0  0  0
  -21.1095  -13.1320   22.2612 H   0  0  0  0  0  0
  -24.6566  -15.8376   20.5177 H   0  0  0  0  0  0
  -26.2750  -15.6311   20.0777 H   0  0  0  0  0  0
  -26.7103  -32.5559   23.1166 H   0  0  0  0  0  0
  -25.0078  -33.9785   25.0490 H   0  0  0  0  0  0
  -22.6864  -31.3072   21.4075 H   0  0  0  0  0  0
  -23.3739  -35.9656   23.3318 H   0  0  0  0  0  0
  -24.3582  -36.8902   22.2046 H   0  0  0  0  0  0
  -23.7249  -37.6533   23.6632 H   0  0  0  0  0  0
  -26.0244  -31.6081   20.5849 H   0  0  0  0  0  0
  -26.8139  -30.9076   21.9689 H   0  0  0  0  0  0
  -28.0963  -29.1338   21.1737 H   0  0  0  0  0  0
  -26.1040  -25.9797   19.0166 H   0  0  0  0  0  0
  -23.9933  -27.2820   19.0392 H   0  0  0  0  0  0
  -23.7092  -30.5888   19.3985 H   0  0  0  0  0  0
  -22.7339  -29.2322   19.8719 H   0  0  0  0  0  0
  -25.1292  -36.1976   25.0837 H   0  0  0  0  0  0
  -20.9950  -28.3225   24.1438 H   0  0  0  0  0  0
  -20.5645  -26.2275   23.3610 H   0  0  0  0  0  0
  -21.6628  -26.7436   22.1228 H   0  0  0  0  0  0
  -19.6901  -25.6300   21.1231 H   0  0  0  0  0  0
  -19.6675  -27.3201   20.6745 H   0  0  0  0  0  0
  -17.4188  -26.6662   21.4020 H   0  0  0  0  0  0
  -18.0316  -26.0061   22.9014 H   0  0  0  0  0  0
  -19.7924  -30.7247   24.2289 H   0  0  0  0  0  0
  -17.5013  -31.6269   24.5168 H   0  0  0  0  0  0
  -15.5345  -30.3013   23.7640 H   0  0  0  0  0  0
  -15.8647  -28.0840   22.7058 H   0  0  0  0  0  0
  -24.5914  -30.7070   25.7798 H   0  0  0  0  0  0
  -24.8966  -32.2872   26.4906 H   0  0  0  0  0  0
  -25.8115  -30.8872   27.0200 H   0  0  0  0  0  0
  -26.2831  -29.6804   24.1127 H   0  0  0  0  0  0
  -27.4121  -29.7283   25.4483 H   0  0  0  0  0  0
  -27.8646  -30.4382   23.9157 H   0  0  0  0  0  0
  -27.2641  -33.3592   26.2087 H   0  0  0  0  0  0
  -28.3834  -32.6913   25.0291 H   0  0  0  0  0  0
  -28.0731  -31.8419   26.5351 H   0  0  0  0  0  0
  -28.2614  -38.0091   24.7513 H   0  0  0  0  0  0
  -28.1060  -36.2623   24.6298 H   0  0  0  0  0  0
  -27.2297  -37.1475   25.8870 H   0  0  0  0  0  0
  -20.9263  -29.8767   21.6962 H   0  0  0  0  0  0
  -26.0178  -38.2881   24.1409 H   0  0  0  0  0  0
  -30.5846  -16.5800   19.0705 H   0  0  0  0  0  0
  -28.9160  -16.7731   19.4531 H   0  0  0  0  0  0
  -29.1481  -24.1260   20.3978 H   0  0  0  0  0  0
  -27.4575  -24.3441   20.7604 H   0  0  0  0  0  0
  -28.3057  -21.7612   23.2815 H   0  0  0  0  0  0
  -27.7354  -21.9323   21.6392 H   0  0  0  0  0  0
  -29.7390  -26.2278   21.5472 H   0  0  0  0  0  0
  -28.1084  -26.4305   22.1312 H   0  0  0  0  0  0
  -29.5602  -24.0215   22.9678 H   0  0  0  0  0  0
  -30.5969  -22.2265   21.9208 H   0  0  0  0  0  0
  -28.9942  -15.2683   21.1651 H   0  0  0  0  0  0
  1 25  1  0  0  0
  1 30  2  0  0  0
  1 81  1  0  0  0
  2  3  1  0  0  0
  2 25  1  0  0  0
  2 85  1  0  0  0
  2 86  1  0  0  0
  3  4  1  0  0  0
  3 87  1  0  0  0
  3 88  1  0  0  0
  4  5  1  0  0  0
  4 89  1  0  0  0
  4 90  1  0  0  0
  5  6  1  0  0  0
  5 26  1  0  0  0
  5 91  1  0  0  0
  6 25  1  0  0  0
  6 92  1  0  0  0
  6 93  1  0  0  0
  7  8  2  0  0  0
  7 26  1  0  0  0
  7 29  1  0  0  0
  8  9  1  0  0  0
  8 22  1  0  0  0
  9 10  1  0  0  0
  9 27  2  0  0  0
 10 11  2  0  0  0
 10 15  1  0  0  0
 11 12  1  0  0  0
 11 94  1  0  0  0
 12 13  2  0  0  0
 12 95  1  0  0  0
 13 14  1  0  0  0
 13 31  1  0  0  0
 14 15  2  0  0  0
 14 96  1  0  0  0
 15 97  1  0  0  0
 16 17  2  0  0  0
 16 21  1  0  0  0
 16 31  1  0  0  0
 17 18  1  0  0  0
 17 98  1  0  0  0
 18 19  2  0  0  0
 18 99  1  0  0  0
 19 20  1  0  0  0
 19 24  1  0  0  0
 20 21  2  0  0  0
 20100  1  0  0  0
 21 23  1  0  0  0
 22 28  1  0  0  0
 22 32  2  0  0  0
 26 27  1  0  0  0
 28101  1  0  0  0
 28102  1  0  0  0
 29103  1  0  0  0
 29104  1  0  0  0
 33 34  1  0  0  0
 33 66  1  0  0  0
 33 70  2  0  0  0
 34 36  1  0  0  0
 34 59  1  0  0  0
 34105  1  0  0  0
 35 44  2  0  0  0
 35 45  1  0  0  0
 35 68  1  0  0  0
 36 56  1  0  0  0
 36106  1  0  0  0
 37 39  1  0  0  0
 37 47  1  0  0  0
 37 66  1  0  0  0
 37107  1  0  0  0
 38 43  2  0  0  0
 38 46  1  0  0  0
 38 47  1  0  0  0
 39 64  1  0  0  0
 39 67  2  0  0  0
 40 52  1  0  0  0
 40 53  2  0  0  0
 40 58  1  0  0  0
 41108  1  0  0  0
 41109  1  0  0  0
 41110  1  0  0  0
 41 48  1  0  0  0
 42 43  1  0  0  0
 42 66  1  0  0  0
 42111  1  0  0  0
 42112  1  0  0  0
 43 44  1  0  0  0
 44113  1  0  0  0
 45 46  2  0  0  0
 45114  1  0  0  0
 46115  1  0  0  0
 47116  1  0  0  0
 47117  1  0  0  0
 48 56  1  0  0  0
 48 65  1  0  0  0
 48118  1  0  0  0
 49 50  1  0  0  0
 49 53  1  0  0  0
 49 64  1  0  0  0
 49119  1  0  0  0
 50 51  1  0  0  0
 50120  1  0  0  0
 50121  1  0  0  0
 51 52  1  0  0  0
 51122  1  0  0  0
 51123  1  0  0  0
 52124  1  0  0  0
 52125  1  0  0  0
 53 54  1  0  0  0
 54 55  2  0  0  0
 54126  1  0  0  0
 55 57  1  0  0  0
 55127  1  0  0  0
 56 69  2  0  0  0
 57 58  2  0  0  0
 57128  1  0  0  0
 58129  1  0  0  0
 59 60  1  0  0  0
 59 61  1  0  0  0
 59 62  1  0  0  0
 60130  1  0  0  0
 60131  1  0  0  0
 60132  1  0  0  0
 61133  1  0  0  0
 61134  1  0  0  0
 61135  1  0  0  0
 62136  1  0  0  0
 62137  1  0  0  0
 62138  1  0  0  0
 63 65  1  0  0  0
 63139  1  0  0  0
 63140  1  0  0  0
 63141  1  0  0  0
 64142  1  0  0  0
 65143  1  0  0  0
 68 77  1  0  0  0
 71 72  2  0  0  0
 71 74  1  0  0  0
 71 84  1  0  0  0
 72 79  1  0  0  0
 72 82  1  0  0  0
 73 79  2  0  0  0
 73 80  1  0  0  0
 73 84  1  0  0  0
 74 81  1  0  0  0
 74144  1  0  0  0
 74145  1  0  0  0
 75 77  1  0  0  0
 75 78  1  0  0  0
 75146  1  0  0  0
 75147  1  0  0  0
 76 78  1  0  0  0
 76 80  1  0  0  0
 76148  1  0  0  0
 76149  1  0  0  0
 77150  1  0  0  0
 77151  1  0  0  0
 78 83  1  0  0  0
 78152  1  0  0  0
 80153  1  0  0  0
 81154  1  0  0  0
M  ISO  4   1 100  68 101  77 101  81 100
M  END
> <chiral flag>
0

> <version>
0

> <s_m_source_file>
/data/baiqing/PycharmProjects/Reinvent-master-3.2/result/LINK_invent/BTK/process_docking_weight1_custom_product_contain_oxygen_bond_distance_aromatic_linkinvent_7_9_3/rearranged_h_0189.sdf

> <i_m_source_file_index>
19

> <r_mmod_Potential_Energy-OPLS-2005>
-132.498809814453

> <r_mmod_Stretch_Energy-OPLS-2005>
31.0080852508545

> <r_mmod_Bend_Energy-OPLS-2005>
88.4954833984375

> <r_mmod_Torsional_Energy-OPLS-2005>
248.891555786133

> <r_mmod_Improper_Torsional_Energy-OPLS-2005>
11.3616418838501

> <r_mmod_Van_der_Waal_Energy-OPLS-2005>
121.022186279297

> <r_mmod_Electrostatic_Energy-OPLS-2005>
-418.837249755859

> <r_mmod_Solvation_Energy-OPLS-2005>
-226.275207519531

> <b_mmod_Minimization_Converged-OPLS-2005>
0

> <r_mmod_RMS_Derivative-OPLS-2005>
1.35409533977509

$$$$
19
                    3D
 Structure written by MMmdl.
159167  0  0  1  0            999 V2000
  -30.7483  -14.4052   20.6287 C   0  0  0  0  0  0
  -30.4143  -12.2862   19.4113 C   0  0  0  0  0  0
  -29.4877  -12.5112   18.2012 C   0  0  0  0  0  0
  -28.0102  -12.3747   18.6148 C   0  0  0  0  0  0
  -27.6638  -13.2057   19.8790 C   0  0  2  0  0  0
  -28.7034  -12.9650   20.9973 C   0  0  0  0  0  0
  -25.2591  -13.8170   20.5676 C   0  0  0  0  0  0
  -24.1838  -13.0445   20.9175 C   0  0  0  0  0  0
  -24.6396  -11.6912   20.8743 C   0  0  0  0  0  0
  -23.9064  -10.4298   21.0414 C   0  0  0  0  0  0
  -24.3616   -9.4212   21.9189 C   0  0  0  0  0  0
  -23.6292   -8.2246   22.0759 C   0  0  0  0  0  0
  -22.4274   -8.0286   21.3547 C   0  0  0  0  0  0
  -21.9911   -9.0260   20.4650 C   0  0  0  0  0  0
  -22.7240  -10.2141   20.3060 C   0  0  0  0  0  0
  -21.6850   -6.0737   22.5281 C   0  0  0  0  0  0
  -21.4012   -6.5641   23.8215 C   0  0  0  0  0  0
  -21.3659   -5.6794   24.9179 C   0  0  0  0  0  0
  -21.6045   -4.3056   24.7229 C   0  0  0  0  0  0
  -21.8816   -3.8148   23.4350 C   0  0  0  0  0  0
  -21.9191   -4.6964   22.3405 C   0  0  0  0  0  0
  -22.7861  -13.5246   21.1834 C   0  0  0  0  0  0
  -22.1657   -4.2149   21.0981 F   0  0  0  0  0  0
  -21.5632   -3.4538   25.7743 F   0  0  0  0  0  0
  -30.0414  -13.2568   20.4518 N   0  0  0  0  0  0
  -26.3030  -12.9337   20.3378 N   0  0  0  0  0  0
  -25.9322  -11.6497   20.5774 N   0  0  0  0  0  0
  -22.0493  -12.8247   22.0393 N   0  0  0  0  0  0
  -25.4315  -15.1888   20.4074 N   0  0  0  0  0  0
  -31.8299  -14.6045   20.0648 O   0  0  0  0  0  0
  -21.6635   -6.8883   21.4244 O   0  0  0  0  0  0
  -22.3552  -14.5555   20.6686 O   0  0  0  0  0  0
  -24.6115  -31.8706   23.2115 C   0  0  0  0  0  0
  -25.9028  -32.4834   23.8402 C   0  0  1  0  0  0
  -27.2361  -27.4658   20.0902 C   0  0  0  0  0  0
  -25.5894  -33.8627   24.2340 N   0  0  0  0  0  0
  -23.3981  -30.4944   21.5511 C   0  0  2  0  0  0
  -24.8452  -28.9637   20.1148 C   0  0  0  0  0  0
  -22.7397  -29.4673   22.4991 C   0  0  0  0  0  0
  -18.0278  -28.1368   22.8483 C   0  0  0  0  0  0
  -24.1492  -36.7312   23.2640 C   0  0  0  0  0  0
  -25.9238  -30.8470   21.3597 C   0  0  0  0  0  0
  -26.0037  -29.4844   20.7052 C   0  0  0  0  0  0
  -27.2041  -28.7436   20.6865 C   0  0  0  0  0  0
  -26.0635  -26.9517   19.4950 C   0  0  0  0  0  0
  -24.8680  -27.6948   19.5086 C   0  0  0  0  0  0
  -23.6065  -29.8278   20.1649 C   0  0  0  0  0  0
  -25.4111  -36.3113   24.0341 C   0  0  1  0  0  0
  -20.5863  -28.3658   23.1321 C   0  0  2  0  0  0
  -20.6770  -26.9399   22.5416 C   0  0  0  0  0  0
  -19.5754  -26.6388   21.5204 C   0  0  0  0  0  0
  -18.1932  -26.7913   22.1620 C   0  0  0  0  0  0
  -19.1523  -28.8827   23.2902 C   0  0  0  0  0  0
  -18.9452  -30.1425   23.8928 C   0  0  0  0  0  0
  -17.6456  -30.6572   24.0568 C   0  0  0  0  0  0
  -25.9033  -34.9480   23.5135 C   0  0  0  0  0  0
  -16.5349  -29.9078   23.6313 C   0  0  0  0  0  0
  -16.7268  -28.6494   23.0334 C   0  0  0  0  0  0
  -26.4472  -31.6596   25.0711 C   0  0  0  0  0  0
  -25.3748  -31.3687   26.1462 C   0  0  0  0  0  0
  -27.0306  -30.3043   24.6060 C   0  0  0  0  0  0
  -27.6055  -32.4310   25.7479 C   0  0  0  0  0  0
  -27.5587  -37.1808   24.8466 C   0  0  0  0  0  0
  -21.4130  -29.3026   22.3725 N   0  0  0  0  0  0
  -26.4305  -37.3792   23.9404 N   0  0  0  0  0  0
  -24.6627  -31.0837   22.1001 N   0  0  0  0  0  0
  -23.4183  -28.8221   23.3029 O   0  0  0  0  0  0
  -28.4089  -26.7482   20.0993 O   0  0  0  0  0  0
  -26.5597  -34.8933   22.4698 O   0  0  0  0  0  0
  -23.5315  -32.1449   23.7528 O   0  0  0  0  0  0
  -30.9193  -19.0745   21.9847 C   0  0  0  0  0  0
  -32.0872  -18.3426   21.9913 C   0  0  0  0  0  0
  -30.5971  -16.6591   21.6301 C   0  0  0  0  0  0
  -30.6989  -20.5264   22.1741 C   0  0  0  0  0  0
  -33.4870  -18.8546   22.1570 C   0  0  0  0  0  0
  -28.1040  -25.5775   22.1831 C   0  0  0  0  0  0
  -29.6478  -23.1879   20.2891 C   0  0  0  0  0  0
  -29.6743  -24.7326   20.3308 C   0  0  0  0  0  0
  -29.2903  -22.4982   21.6190 C   0  0  0  0  0  0
  -28.3408  -25.4342   20.6640 C   0  0  2  0  0  0
  -31.8867  -16.9717   21.7990 N   0  0  0  0  0  0
  -30.1490  -15.3371   21.3882 N   0  0  0  0  0  0
  -29.6222  -21.0747   21.5946 N   0  0  0  0  0  0
  -31.5222  -21.1996   22.7962 O   0  0  0  0  0  0
  -29.5168  -18.0386   21.7768 S   0  0  0  0  0  0
  -31.4593  -12.3707   19.1079 H   0  0  0  0  0  0
  -30.3033  -11.2710   19.7955 H   0  0  0  0  0  0
  -29.7224  -11.7986   17.4100 H   0  0  0  0  0  0
  -29.6620  -13.5033   17.7818 H   0  0  0  0  0  0
  -27.8154  -11.3180   18.8009 H   0  0  0  0  0  0
  -27.3603  -12.6609   17.7873 H   0  0  0  0  0  0
  -27.7163  -14.2568   19.5942 H   0  0  0  0  0  0
  -28.6687  -11.9250   21.3250 H   0  0  0  0  0  0
  -28.4609  -13.5514   21.8839 H   0  0  0  0  0  0
  -25.2764   -9.5681   22.4762 H   0  0  0  0  0  0
  -23.9998   -7.4637   22.7480 H   0  0  0  0  0  0
  -21.0840   -8.8786   19.8954 H   0  0  0  0  0  0
  -22.3708  -10.9682   19.6166 H   0  0  0  0  0  0
  -21.2002   -7.6149   23.9721 H   0  0  0  0  0  0
  -21.1483   -6.0523   25.9082 H   0  0  0  0  0  0
  -22.0595   -2.7609   23.2851 H   0  0  0  0  0  0
  -22.4090  -11.9900   22.4781 H   0  0  0  0  0  0
  -21.1119  -13.1294   22.2602 H   0  0  0  0  0  0
  -24.6649  -15.8449   20.5111 H   0  0  0  0  0  0
  -26.2831  -15.6264   20.0781 H   0  0  0  0  0  0
  -26.7107  -32.5576   23.1181 H   0  0  0  0  0  0
  -25.0038  -33.9789   25.0477 H   0  0  0  0  0  0
  -22.6850  -31.3100   21.4128 H   0  0  0  0  0  0
  -23.3752  -35.9648   23.3313 H   0  0  0  0  0  0
  -24.3579  -36.8909   22.2050 H   0  0  0  0  0  0
  -23.7249  -37.6524   23.6647 H   0  0  0  0  0  0
  -26.0321  -31.6159   20.5936 H   0  0  0  0  0  0
  -26.8124  -30.8998   21.9768 H   0  0  0  0  0  0
  -28.1014  -29.1402   21.1420 H   0  0  0  0  0  0
  -26.0691  -25.9864   19.0100 H   0  0  0  0  0  0
  -23.9769  -27.2883   19.0500 H   0  0  0  0  0  0
  -23.7170  -30.6046   19.4074 H   0  0  0  0  0  0
  -22.7308  -29.2483   19.8672 H   0  0  0  0  0  0
  -25.1287  -36.1984   25.0835 H   0  0  0  0  0  0
  -20.9962  -28.3236   24.1436 H   0  0  0  0  0  0
  -20.5675  -26.2269   23.3599 H   0  0  0  0  0  0
  -21.6644  -26.7445   22.1214 H   0  0  0  0  0  0
  -19.6924  -25.6308   21.1210 H   0  0  0  0  0  0
  -19.6689  -27.3220   20.6752 H   0  0  0  0  0  0
  -17.4198  -26.6646   21.4028 H   0  0  0  0  0  0
  -18.0341  -26.0054   22.9017 H   0  0  0  0  0  0
  -19.7931  -30.7212   24.2337 H   0  0  0  0  0  0
  -17.5017  -31.6256   24.5164 H   0  0  0  0  0  0
  -15.5352  -30.2992   23.7611 H   0  0  0  0  0  0
  -15.8670  -28.0823   22.7029 H   0  0  0  0  0  0
  -24.5921  -30.7037   25.7795 H   0  0  0  0  0  0
  -24.8940  -32.2842   26.4925 H   0  0  0  0  0  0
  -25.8100  -30.8848   27.0212 H   0  0  0  0  0  0
  -26.2842  -29.6803   24.1130 H   0  0  0  0  0  0
  -27.4110  -29.7273   25.4498 H   0  0  0  0  0  0
  -27.8661  -30.4363   23.9178 H   0  0  0  0  0  0
  -27.2670  -33.3591   26.2098 H   0  0  0  0  0  0
  -28.3850  -32.6896   25.0300 H   0  0  0  0  0  0
  -28.0747  -31.8409   26.5362 H   0  0  0  0  0  0
  -28.2611  -38.0101   24.7516 H   0  0  0  0  0  0
  -28.1076  -36.2630   24.6293 H   0  0  0  0  0  0
  -27.2299  -37.1461   25.8869 H   0  0  0  0  0  0
  -20.9287  -29.8726   21.6931 H   0  0  0  0  0  0
  -26.0198  -38.2876   24.1394 H   0  0  0  0  0  0
  -33.6097  -19.3697   23.1098 H   0  0  0  0  0  0
  -33.7417  -19.5605   21.3662 H   0  0  0  0  0  0
  -34.2228  -18.0510   22.1252 H   0  0  0  0  0  0
  -28.0380  -24.6190   22.6907 H   0  0  0  0  0  0
  -27.1704  -26.0970   22.3970 H   0  0  0  0  0  0
  -28.9073  -26.1436   22.6552 H   0  0  0  0  0  0
  -30.6385  -22.8553   19.9753 H   0  0  0  0  0  0
  -28.9625  -22.8530   19.5091 H   0  0  0  0  0  0
  -29.9892  -25.0642   19.3402 H   0  0  0  0  0  0
  -30.4568  -25.0767   21.0085 H   0  0  0  0  0  0
  -28.2203  -22.5832   21.8069 H   0  0  0  0  0  0
  -29.7939  -22.9989   22.4486 H   0  0  0  0  0  0
  -27.5311  -24.8600   20.2137 H   0  0  0  0  0  0
  -29.2176  -15.1154   21.7010 H   0  0  0  0  0  0
  -28.9933  -20.4545   21.1022 H   0  0  0  0  0  0
  1 25  1  0  0  0
  1 30  2  0  0  0
  1 82  1  0  0  0
  2  3  1  0  0  0
  2 25  1  0  0  0
  2 86  1  0  0  0
  2 87  1  0  0  0
  3  4  1  0  0  0
  3 88  1  0  0  0
  3 89  1  0  0  0
  4  5  1  0  0  0
  4 90  1  0  0  0
  4 91  1  0  0  0
  5  6  1  0  0  0
  5 26  1  0  0  0
  5 92  1  0  0  0
  6 25  1  0  0  0
  6 93  1  0  0  0
  6 94  1  0  0  0
  7  8  2  0  0  0
  7 26  1  0  0  0
  7 29  1  0  0  0
  8  9  1  0  0  0
  8 22  1  0  0  0
  9 10  1  0  0  0
  9 27  2  0  0  0
 10 11  2  0  0  0
 10 15  1  0  0  0
 11 12  1  0  0  0
 11 95  1  0  0  0
 12 13  2  0  0  0
 12 96  1  0  0  0
 13 14  1  0  0  0
 13 31  1  0  0  0
 14 15  2  0  0  0
 14 97  1  0  0  0
 15 98  1  0  0  0
 16 17  2  0  0  0
 16 21  1  0  0  0
 16 31  1  0  0  0
 17 18  1  0  0  0
 17 99  1  0  0  0
 18 19  2  0  0  0
 18100  1  0  0  0
 19 20  1  0  0  0
 19 24  1  0  0  0
 20 21  2  0  0  0
 20101  1  0  0  0
 21 23  1  0  0  0
 22 28  1  0  0  0
 22 32  2  0  0  0
 26 27  1  0  0  0
 28102  1  0  0  0
 28103  1  0  0  0
 29104  1  0  0  0
 29105  1  0  0  0
 33 34  1  0  0  0
 33 66  1  0  0  0
 33 70  2  0  0  0
 34 36  1  0  0  0
 34 59  1  0  0  0
 34106  1  0  0  0
 35 44  2  0  0  0
 35 45  1  0  0  0
 35 68  1  0  0  0
 36 56  1  0  0  0
 36107  1  0  0  0
 37 39  1  0  0  0
 37 47  1  0  0  0
 37 66  1  0  0  0
 37108  1  0  0  0
 38 43  2  0  0  0
 38 46  1  0  0  0
 38 47  1  0  0  0
 39 64  1  0  0  0
 39 67  2  0  0  0
 40 52  1  0  0  0
 40 53  2  0  0  0
 40 58  1  0  0  0
 41109  1  0  0  0
 41110  1  0  0  0
 41111  1  0  0  0
 41 48  1  0  0  0
 42 43  1  0  0  0
 42 66  1  0  0  0
 42112  1  0  0  0
 42113  1  0  0  0
 43 44  1  0  0  0
 44114  1  0  0  0
 45 46  2  0  0  0
 45115  1  0  0  0
 46116  1  0  0  0
 47117  1  0  0  0
 47118  1  0  0  0
 48 56  1  0  0  0
 48 65  1  0  0  0
 48119  1  0  0  0
 49 50  1  0  0  0
 49 53  1  0  0  0
 49 64  1  0  0  0
 49120  1  0  0  0
 50 51  1  0  0  0
 50121  1  0  0  0
 50122  1  0  0  0
 51 52  1  0  0  0
 51123  1  0  0  0
 51124  1  0  0  0
 52125  1  0  0  0
 52126  1  0  0  0
 53 54  1  0  0  0
 54 55  2  0  0  0
 54127  1  0  0  0
 55 57  1  0  0  0
 55128  1  0  0  0
 56 69  2  0  0  0
 57 58  2  0  0  0
 57129  1  0  0  0
 58130  1  0  0  0
 59 60  1  0  0  0
 59 61  1  0  0  0
 59 62  1  0  0  0
 60131  1  0  0  0
 60132  1  0  0  0
 60133  1  0  0  0
 61134  1  0  0  0
 61135  1  0  0  0
 61136  1  0  0  0
 62137  1  0  0  0
 62138  1  0  0  0
 62139  1  0  0  0
 63 65  1  0  0  0
 63140  1  0  0  0
 63141  1  0  0  0
 63142  1  0  0  0
 64143  1  0  0  0
 65144  1  0  0  0
 68 80  1  0  0  0
 71 72  2  0  0  0
 71 74  1  0  0  0
 71 85  1  0  0  0
 72 75  1  0  0  0
 72 81  1  0  0  0
 73 81  2  0  0  0
 73 82  1  0  0  0
 73 85  1  0  0  0
 74 83  1  0  0  0
 74 84  2  0  0  0
 75145  1  0  0  0
 75146  1  0  0  0
 75147  1  0  0  0
 76148  1  0  0  0
 76149  1  0  0  0
 76150  1  0  0  0
 76 80  1  0  0  0
 77 78  1  0  0  0
 77 79  1  0  0  0
 77151  1  0  0  0
 77152  1  0  0  0
 78 80  1  0  0  0
 78153  1  0  0  0
 78154  1  0  0  0
 79 83  1  0  0  0
 79155  1  0  0  0
 79156  1  0  0  0
 80157  1  0  0  0
 82158  1  0  0  0
 83159  1  0  0  0
M  ISO  4   1 100  68 101  80 101  82 100
M  END
> <chiral flag>
0

> <version>
0

> <s_m_source_file>
/data/baiqing/PycharmProjects/Reinvent-master-3.2/result/LINK_invent/BTK/process_docking_weight1_custom_product_contain_oxygen_bond_distance_aromatic_linkinvent_7_9_3/rearranged_h_0189.sdf

> <i_m_source_file_index>
20

> <r_mmod_Potential_Energy-OPLS-2005>
-196.250350952148

> <r_mmod_Stretch_Energy-OPLS-2005>
31.8124561309814

> <r_mmod_Bend_Energy-OPLS-2005>
92.1342239379883

> <r_mmod_Torsional_Energy-OPLS-2005>
240.803665161133

> <r_mmod_Improper_Torsional_Energy-OPLS-2005>
2.84734916687012

> <r_mmod_Van_der_Waal_Energy-OPLS-2005>
138.98779296875

> <r_mmod_Electrostatic_Energy-OPLS-2005>
-468.224090576172

> <r_mmod_Solvation_Energy-OPLS-2005>
-243.033905029297

> <b_mmod_Minimization_Converged-OPLS-2005>
0

> <r_mmod_RMS_Derivative-OPLS-2005>
0.910986483097076

$$$$
20
                    3D
 Structure written by MMmdl.
156164  0  0  1  0            999 V2000
  -30.6575  -14.5512   20.4654 C   0  0  0  0  0  0
  -30.4103  -12.3170   19.4593 C   0  0  0  0  0  0
  -29.4994  -12.4809   18.2219 C   0  0  0  0  0  0
  -28.0181  -12.3420   18.6307 C   0  0  0  0  0  0
  -27.6476  -13.2114   19.8612 C   0  0  2  0  0  0
  -28.6829  -13.0666   21.0028 C   0  0  0  0  0  0
  -25.2529  -13.8163   20.5683 C   0  0  0  0  0  0
  -24.1823  -13.0456   20.9209 C   0  0  0  0  0  0
  -24.6371  -11.6902   20.8752 C   0  0  0  0  0  0
  -23.9070  -10.4309   21.0416 C   0  0  0  0  0  0
  -24.3635   -9.4210   21.9182 C   0  0  0  0  0  0
  -23.6310   -8.2257   22.0767 C   0  0  0  0  0  0
  -22.4281   -8.0290   21.3551 C   0  0  0  0  0  0
  -21.9925   -9.0257   20.4667 C   0  0  0  0  0  0
  -22.7262  -10.2140   20.3058 C   0  0  0  0  0  0
  -21.6852   -6.0728   22.5278 C   0  0  0  0  0  0
  -21.4014   -6.5650   23.8208 C   0  0  0  0  0  0
  -21.3653   -5.6821   24.9167 C   0  0  0  0  0  0
  -21.6030   -4.3068   24.7240 C   0  0  0  0  0  0
  -21.8813   -3.8142   23.4371 C   0  0  0  0  0  0
  -21.9187   -4.6965   22.3414 C   0  0  0  0  0  0
  -22.7847  -13.5202   21.1890 C   0  0  0  0  0  0
  -22.1647   -4.2133   21.0997 F   0  0  0  0  0  0
  -21.5604   -3.4553   25.7752 F   0  0  0  0  0  0
  -30.0134  -13.3462   20.4399 N   0  0  0  0  0  0
  -26.2943  -12.9336   20.3280 N   0  0  0  0  0  0
  -25.9282  -11.6524   20.5763 N   0  0  0  0  0  0
  -22.0494  -12.8191   22.0448 N   0  0  0  0  0  0
  -25.4246  -15.1891   20.4089 N   0  0  0  0  0  0
  -31.8533  -14.6633   20.1821 O   0  0  0  0  0  0
  -21.6665   -6.8865   21.4226 O   0  0  0  0  0  0
  -22.3542  -14.5492   20.6716 O   0  0  0  0  0  0
  -24.6254  -31.8602   23.2075 C   0  0  0  0  0  0
  -25.9113  -32.4837   23.8394 C   0  0  1  0  0  0
  -27.2234  -27.3483   20.1096 C   0  0  0  0  0  0
  -25.5888  -33.8623   24.2286 N   0  0  0  0  0  0
  -23.4158  -30.4841   21.5528 C   0  0  2  0  0  0
  -24.8573  -28.9361   20.1253 C   0  0  0  0  0  0
  -22.7474  -29.4632   22.5039 C   0  0  0  0  0  0
  -18.0343  -28.1340   22.8493 C   0  0  0  0  0  0
  -24.1491  -36.7300   23.2638 C   0  0  0  0  0  0
  -25.9545  -30.8046   21.3693 C   0  0  0  0  0  0
  -26.0303  -29.4297   20.7147 C   0  0  0  0  0  0
  -27.2182  -28.6474   20.6990 C   0  0  0  0  0  0
  -26.0338  -26.8894   19.5165 C   0  0  0  0  0  0
  -24.8562  -27.6664   19.5217 C   0  0  0  0  0  0
  -23.6228  -29.8112   20.1699 C   0  0  0  0  0  0
  -25.4102  -36.3096   24.0329 C   0  0  1  0  0  0
  -20.5936  -28.3660   23.1375 C   0  0  2  0  0  0
  -20.6897  -26.9418   22.5423 C   0  0  0  0  0  0
  -19.5914  -26.6451   21.5210 C   0  0  0  0  0  0
  -18.2046  -26.7913   22.1565 C   0  0  0  0  0  0
  -19.1575  -28.8811   23.2918 C   0  0  0  0  0  0
  -18.9454  -30.1421   23.8932 C   0  0  0  0  0  0
  -17.6421  -30.6542   24.0559 C   0  0  0  0  0  0
  -25.9037  -34.9486   23.5088 C   0  0  0  0  0  0
  -16.5337  -29.9005   23.6323 C   0  0  0  0  0  0
  -16.7323  -28.6448   23.0331 C   0  0  0  0  0  0
  -26.4495  -31.6642   25.0762 C   0  0  0  0  0  0
  -25.3724  -31.3780   26.1505 C   0  0  0  0  0  0
  -27.0323  -30.3058   24.6186 C   0  0  0  0  0  0
  -27.6058  -32.4342   25.7549 C   0  0  0  0  0  0
  -27.5564  -37.1792   24.8458 C   0  0  0  0  0  0
  -21.4200  -29.3024   22.3785 N   0  0  0  0  0  0
  -26.4286  -37.3767   23.9409 N   0  0  0  0  0  0
  -24.6863  -31.0662   22.0996 N   0  0  0  0  0  0
  -23.4229  -28.8163   23.3093 O   0  0  0  0  0  0
  -28.3416  -26.5221   20.0376 O   0  0  0  0  0  0
  -26.5672  -34.8919   22.4685 O   0  0  0  0  0  0
  -23.5421  -32.1329   23.7446 O   0  0  0  0  0  0
  -29.8595  -19.1322   19.3542 C   0  0  0  0  0  0
  -30.3406  -18.6242   18.1735 C   0  0  0  0  0  0
  -30.0274  -16.8793   19.8550 C   0  0  0  0  0  0
  -29.0863  -21.4465   20.2357 C   0  0  0  0  0  0
  -27.5460  -22.0002   17.6648 C   0  0  0  0  0  0
  -28.5321  -23.0634   18.2166 C   0  0  0  0  0  0
  -27.9640  -23.8868   20.5662 C   0  0  0  0  0  0
  -28.4042  -25.3714   20.9342 C   0  0  0  0  0  0
  -28.9272  -22.9428   19.7265 C   0  0  2  0  0  0
  -29.6373  -18.1016   20.3186 N   0  0  0  0  0  0
  -29.6724  -20.5641   19.3888 N   0  0  0  0  0  0
  -29.8702  -15.6518   20.5983 N   0  0  0  0  0  0
  -28.7340  -21.1306   21.3704 O   0  0  0  0  0  0
  -30.5660  -19.3858   17.0718 F   0  0  0  0  0  0
  -30.6055  -16.9090   18.1753 S   0  0  0  0  0  0
  -31.4579  -12.4052   19.1749 H   0  0  0  0  0  0
  -30.2948  -11.3115   19.8776 H   0  0  0  0  0  0
  -29.7567  -11.7320   17.4734 H   0  0  0  0  0  0
  -29.6736  -13.4516   17.7543 H   0  0  0  0  0  0
  -27.8483  -11.2897   18.8610 H   0  0  0  0  0  0
  -27.3598  -12.5705   17.7878 H   0  0  0  0  0  0
  -27.6640  -14.2456   19.5178 H   0  0  0  0  0  0
  -28.6532  -12.0631   21.4340 H   0  0  0  0  0  0
  -28.4412  -13.7481   21.8198 H   0  0  0  0  0  0
  -25.2766   -9.5687   22.4768 H   0  0  0  0  0  0
  -23.9986   -7.4655   22.7522 H   0  0  0  0  0  0
  -21.0835   -8.8817   19.9001 H   0  0  0  0  0  0
  -22.3714  -10.9689   19.6189 H   0  0  0  0  0  0
  -21.2014   -7.6167   23.9689 H   0  0  0  0  0  0
  -21.1475   -6.0563   25.9074 H   0  0  0  0  0  0
  -22.0592   -2.7607   23.2883 H   0  0  0  0  0  0
  -22.4130  -11.9867   22.4853 H   0  0  0  0  0  0
  -21.1099  -13.1181   22.2602 H   0  0  0  0  0  0
  -24.6538  -15.8329   20.5416 H   0  0  0  0  0  0
  -26.2687  -15.6482   20.0963 H   0  0  0  0  0  0
  -26.7203  -32.5507   23.1178 H   0  0  0  0  0  0
  -25.0087  -33.9797   25.0470 H   0  0  0  0  0  0
  -22.7097  -31.3063   21.4146 H   0  0  0  0  0  0
  -23.3773  -35.9617   23.3327 H   0  0  0  0  0  0
  -24.3593  -36.8873   22.2044 H   0  0  0  0  0  0
  -23.7232  -37.6478   23.6667 H   0  0  0  0  0  0
  -26.0752  -31.5703   20.6000 H   0  0  0  0  0  0
  -26.8405  -30.8581   21.9919 H   0  0  0  0  0  0
  -28.1162  -29.0330   21.1649 H   0  0  0  0  0  0
  -26.0163  -25.9107   19.0584 H   0  0  0  0  0  0
  -23.9612  -27.2715   19.0683 H   0  0  0  0  0  0
  -23.7252  -30.5804   19.4036 H   0  0  0  0  0  0
  -22.7435  -29.2253   19.8925 H   0  0  0  0  0  0
  -25.1297  -36.1940   25.0826 H   0  0  0  0  0  0
  -21.0025  -28.3202   24.1504 H   0  0  0  0  0  0
  -20.5921  -26.2207   23.3555 H   0  0  0  0  0  0
  -21.6817  -26.7445   22.1272 H   0  0  0  0  0  0
  -19.7125  -25.6392   21.1169 H   0  0  0  0  0  0
  -19.6941  -27.3246   20.6724 H   0  0  0  0  0  0
  -17.4465  -26.6712   21.3790 H   0  0  0  0  0  0
  -18.0317  -25.9975   22.8840 H   0  0  0  0  0  0
  -19.7883  -30.7303   24.2303 H   0  0  0  0  0  0
  -17.4908  -31.6231   24.5109 H   0  0  0  0  0  0
  -15.5317  -30.2864   23.7626 H   0  0  0  0  0  0
  -15.8764  -28.0759   22.6984 H   0  0  0  0  0  0
  -24.5908  -30.7111   25.7861 H   0  0  0  0  0  0
  -24.8955  -32.2968   26.4907 H   0  0  0  0  0  0
  -25.8040  -30.8974   27.0300 H   0  0  0  0  0  0
  -26.2879  -29.6863   24.1159 H   0  0  0  0  0  0
  -27.3978  -29.7236   25.4657 H   0  0  0  0  0  0
  -27.8790  -30.4393   23.9448 H   0  0  0  0  0  0
  -27.2690  -33.3631   26.2178 H   0  0  0  0  0  0
  -28.3899  -32.6874   25.0411 H   0  0  0  0  0  0
  -28.0764  -31.8444   26.5439 H   0  0  0  0  0  0
  -28.2586  -38.0073   24.7498 H   0  0  0  0  0  0
  -28.1026  -36.2596   24.6295 H   0  0  0  0  0  0
  -27.2304  -37.1473   25.8861 H   0  0  0  0  0  0
  -20.9408  -29.8576   21.6836 H   0  0  0  0  0  0
  -26.0172  -38.2842   24.1349 H   0  0  0  0  0  0
  -27.1823  -22.2544   16.6682 H   0  0  0  0  0  0
  -26.6907  -21.8679   18.3286 H   0  0  0  0  0  0
  -28.0014  -21.0166   17.5412 H   0  0  0  0  0  0
  -28.0598  -24.0410   18.0902 H   0  0  0  0  0  0
  -29.4071  -23.1340   17.5665 H   0  0  0  0  0  0
  -26.9546  -23.8637   20.1483 H   0  0  0  0  0  0
  -27.8144  -23.4128   21.5369 H   0  0  0  0  0  0
  -29.4290  -25.3266   21.3015 H   0  0  0  0  0  0
  -27.8216  -25.6616   21.8060 H   0  0  0  0  0  0
  -29.9304  -23.3617   19.8416 H   0  0  0  0  0  0
  -29.9520  -20.9926   18.5193 H   0  0  0  0  0  0
  -28.9367  -15.4656   20.9223 H   0  0  0  0  0  0
  1 25  1  0  0  0
  1 30  2  0  0  0
  1 82  1  0  0  0
  2  3  1  0  0  0
  2 25  1  0  0  0
  2 86  1  0  0  0
  2 87  1  0  0  0
  3  4  1  0  0  0
  3 88  1  0  0  0
  3 89  1  0  0  0
  4  5  1  0  0  0
  4 90  1  0  0  0
  4 91  1  0  0  0
  5  6  1  0  0  0
  5 26  1  0  0  0
  5 92  1  0  0  0
  6 25  1  0  0  0
  6 93  1  0  0  0
  6 94  1  0  0  0
  7  8  2  0  0  0
  7 26  1  0  0  0
  7 29  1  0  0  0
  8  9  1  0  0  0
  8 22  1  0  0  0
  9 10  1  0  0  0
  9 27  2  0  0  0
 10 11  2  0  0  0
 10 15  1  0  0  0
 11 12  1  0  0  0
 11 95  1  0  0  0
 12 13  2  0  0  0
 12 96  1  0  0  0
 13 14  1  0  0  0
 13 31  1  0  0  0
 14 15  2  0  0  0
 14 97  1  0  0  0
 15 98  1  0  0  0
 16 17  2  0  0  0
 16 21  1  0  0  0
 16 31  1  0  0  0
 17 18  1  0  0  0
 17 99  1  0  0  0
 18 19  2  0  0  0
 18100  1  0  0  0
 19 20  1  0  0  0
 19 24  1  0  0  0
 20 21  2  0  0  0
 20101  1  0  0  0
 21 23  1  0  0  0
 22 28  1  0  0  0
 22 32  2  0  0  0
 26 27  1  0  0  0
 28102  1  0  0  0
 28103  1  0  0  0
 29104  1  0  0  0
 29105  1  0  0  0
 33 34  1  0  0  0
 33 66  1  0  0  0
 33 70  2  0  0  0
 34 36  1  0  0  0
 34 59  1  0  0  0
 34106  1  0  0  0
 35 44  2  0  0  0
 35 45  1  0  0  0
 35 68  1  0  0  0
 36 56  1  0  0  0
 36107  1  0  0  0
 37 39  1  0  0  0
 37 47  1  0  0  0
 37 66  1  0  0  0
 37108  1  0  0  0
 38 43  2  0  0  0
 38 46  1  0  0  0
 38 47  1  0  0  0
 39 64  1  0  0  0
 39 67  2  0  0  0
 40 52  1  0  0  0
 40 53  2  0  0  0
 40 58  1  0  0  0
 41109  1  0  0  0
 41110  1  0  0  0
 41111  1  0  0  0
 41 48  1  0  0  0
 42 43  1  0  0  0
 42 66  1  0  0  0
 42112  1  0  0  0
 42113  1  0  0  0
 43 44  1  0  0  0
 44114  1  0  0  0
 45 46  2  0  0  0
 45115  1  0  0  0
 46116  1  0  0  0
 47117  1  0  0  0
 47118  1  0  0  0
 48 56  1  0  0  0
 48 65  1  0  0  0
 48119  1  0  0  0
 49 50  1  0  0  0
 49 53  1  0  0  0
 49 64  1  0  0  0
 49120  1  0  0  0
 50 51  1  0  0  0
 50121  1  0  0  0
 50122  1  0  0  0
 51 52  1  0  0  0
 51123  1  0  0  0
 51124  1  0  0  0
 52125  1  0  0  0
 52126  1  0  0  0
 53 54  1  0  0  0
 54 55  2  0  0  0
 54127  1  0  0  0
 55 57  1  0  0  0
 55128  1  0  0  0
 56 69  2  0  0  0
 57 58  2  0  0  0
 57129  1  0  0  0
 58130  1  0  0  0
 59 60  1  0  0  0
 59 61  1  0  0  0
 59 62  1  0  0  0
 60131  1  0  0  0
 60132  1  0  0  0
 60133  1  0  0  0
 61134  1  0  0  0
 61135  1  0  0  0
 61136  1  0  0  0
 62137  1  0  0  0
 62138  1  0  0  0
 62139  1  0  0  0
 63 65  1  0  0  0
 63140  1  0  0  0
 63141  1  0  0  0
 63142  1  0  0  0
 64143  1  0  0  0
 65144  1  0  0  0
 68 78  1  0  0  0
 71 72  2  0  0  0
 71 80  1  0  0  0
 71 81  1  0  0  0
 72 84  1  0  0  0
 72 85  1  0  0  0
 73 80  2  0  0  0
 73 82  1  0  0  0
 73 85  1  0  0  0
 74 79  1  0  0  0
 74 81  1  0  0  0
 74 83  2  0  0  0
 75 76  1  0  0  0
 75145  1  0  0  0
 75146  1  0  0  0
 75147  1  0  0  0
 76148  1  0  0  0
 76149  1  0  0  0
 76 79  1  0  0  0
 77 78  1  0  0  0
 77 79  1  0  0  0
 77150  1  0  0  0
 77151  1  0  0  0
 78152  1  0  0  0
 78153  1  0  0  0
 79154  1  0  0  0
 81155  1  0  0  0
 82156  1  0  0  0
M  ISO  4   1 100  68 101  78 101  82 100
M  END
> <chiral flag>
0

> <version>
0

> <s_m_source_file>
/data/baiqing/PycharmProjects/Reinvent-master-3.2/result/LINK_invent/BTK/process_docking_weight1_custom_product_contain_oxygen_bond_distance_aromatic_linkinvent_7_9_3/rearranged_h_0189.sdf

> <i_m_source_file_index>
21

> <r_mmod_Potential_Energy-OPLS-2005>
-9.24096202850342

> <r_mmod_Stretch_Energy-OPLS-2005>
65.2803573608398

> <r_mmod_Bend_Energy-OPLS-2005>
171.711761474609

> <r_mmod_Torsional_Energy-OPLS-2005>
268.650634765625

> <r_mmod_Improper_Torsional_Energy-OPLS-2005>
7.53700065612793

> <r_mmod_Van_der_Waal_Energy-OPLS-2005>
121.501075744629

> <r_mmod_Electrostatic_Energy-OPLS-2005>
-448.160430908203

> <r_mmod_Solvation_Energy-OPLS-2005>
-229.478881835938

> <b_mmod_Minimization_Converged-OPLS-2005>
0

> <r_mmod_RMS_Derivative-OPLS-2005>
9.80624675750732

$$$$
21
                    3D
 Structure written by MMmdl.
156164  0  0  1  0            999 V2000
  -30.7957  -14.3365   20.7309 C   0  0  0  0  0  0
  -30.4193  -12.3003   19.3877 C   0  0  0  0  0  0
  -29.4819  -12.5198   18.1877 C   0  0  0  0  0  0
  -28.0090  -12.3714   18.6104 C   0  0  0  0  0  0
  -27.6662  -13.2014   19.8751 C   0  0  2  0  0  0
  -28.7022  -12.9523   20.9911 C   0  0  0  0  0  0
  -25.2614  -13.8152   20.5664 C   0  0  0  0  0  0
  -24.1849  -13.0437   20.9144 C   0  0  0  0  0  0
  -24.6397  -11.6903   20.8700 C   0  0  0  0  0  0
  -23.9063  -10.4289   21.0389 C   0  0  0  0  0  0
  -24.3620   -9.4207   21.9167 C   0  0  0  0  0  0
  -23.6292   -8.2251   22.0745 C   0  0  0  0  0  0
  -22.4276   -8.0282   21.3534 C   0  0  0  0  0  0
  -21.9908   -9.0256   20.4640 C   0  0  0  0  0  0
  -22.7236  -10.2129   20.3041 C   0  0  0  0  0  0
  -21.6844   -6.0732   22.5279 C   0  0  0  0  0  0
  -21.4012   -6.5637   23.8210 C   0  0  0  0  0  0
  -21.3652   -5.6791   24.9168 C   0  0  0  0  0  0
  -21.6044   -4.3057   24.7223 C   0  0  0  0  0  0
  -21.8822   -3.8147   23.4346 C   0  0  0  0  0  0
  -21.9200   -4.6964   22.3397 C   0  0  0  0  0  0
  -22.7878  -13.5235   21.1838 C   0  0  0  0  0  0
  -22.1662   -4.2151   21.0975 F   0  0  0  0  0  0
  -21.5635   -3.4541   25.7735 F   0  0  0  0  0  0
  -30.0479  -13.2380   20.4570 N   0  0  0  0  0  0
  -26.3047  -12.9317   20.3350 N   0  0  0  0  0  0
  -25.9317  -11.6477   20.5731 N   0  0  0  0  0  0
  -22.0541  -12.8208   22.0403 N   0  0  0  0  0  0
  -25.4386  -15.1865   20.4097 N   0  0  0  0  0  0
  -31.7879  -14.6665   20.0719 O   0  0  0  0  0  0
  -21.6638   -6.8876   21.4240 O   0  0  0  0  0  0
  -22.3553  -14.5547   20.6705 O   0  0  0  0  0  0
  -24.6150  -31.8700   23.2132 C   0  0  0  0  0  0
  -25.9051  -32.4831   23.8396 C   0  0  1  0  0  0
  -27.2236  -27.4395   20.0789 C   0  0  0  0  0  0
  -25.5927  -33.8621   24.2339 N   0  0  0  0  0  0
  -23.3999  -30.4976   21.5556 C   0  0  2  0  0  0
  -24.8417  -28.9735   20.1094 C   0  0  0  0  0  0
  -22.7408  -29.4665   22.5004 C   0  0  0  0  0  0
  -18.0264  -28.1381   22.8479 C   0  0  0  0  0  0
  -24.1487  -36.7288   23.2642 C   0  0  0  0  0  0
  -25.9310  -30.8350   21.3693 C   0  0  0  0  0  0
  -26.0051  -29.4742   20.7078 C   0  0  0  0  0  0
  -27.1989  -28.7142   20.6908 C   0  0  0  0  0  0
  -26.0387  -26.9671   19.4597 C   0  0  0  0  0  0
  -24.8532  -27.7187   19.4829 C   0  0  0  0  0  0
  -23.6053  -29.8414   20.1662 C   0  0  0  0  0  0
  -25.4114  -36.3112   24.0343 C   0  0  1  0  0  0
  -20.5860  -28.3660   23.1311 C   0  0  2  0  0  0
  -20.6763  -26.9397   22.5414 C   0  0  0  0  0  0
  -19.5747  -26.6387   21.5207 C   0  0  0  0  0  0
  -18.1908  -26.7925   22.1602 C   0  0  0  0  0  0
  -19.1521  -28.8839   23.2890 C   0  0  0  0  0  0
  -18.9453  -30.1444   23.8904 C   0  0  0  0  0  0
  -17.6464  -30.6594   24.0560 C   0  0  0  0  0  0
  -25.9044  -34.9474   23.5128 C   0  0  0  0  0  0
  -16.5352  -29.9092   23.6337 C   0  0  0  0  0  0
  -16.7260  -28.6508   23.0355 C   0  0  0  0  0  0
  -26.4488  -31.6605   25.0719 C   0  0  0  0  0  0
  -25.3757  -31.3683   26.1469 C   0  0  0  0  0  0
  -27.0328  -30.3057   24.6066 C   0  0  0  0  0  0
  -27.6057  -32.4332   25.7490 C   0  0  0  0  0  0
  -27.5582  -37.1798   24.8476 C   0  0  0  0  0  0
  -21.4138  -29.3028   22.3732 N   0  0  0  0  0  0
  -26.4296  -37.3801   23.9430 N   0  0  0  0  0  0
  -24.6668  -31.0806   22.1040 N   0  0  0  0  0  0
  -23.4183  -28.8194   23.3029 O   0  0  0  0  0  0
  -28.3882  -26.6931   20.1052 O   0  0  0  0  0  0
  -26.5598  -34.8932   22.4678 O   0  0  0  0  0  0
  -23.5357  -32.1458   23.7542 O   0  0  0  0  0  0
  -32.2129  -18.1666   21.6570 C   0  0  0  0  0  0
  -31.1873  -17.3415   22.0642 C   0  0  0  0  0  0
  -30.4618  -19.5970   21.3925 C   0  0  0  0  0  0
  -30.1981  -21.9433   20.5526 C   0  0  0  0  0  0
  -33.6731  -17.8312   21.5938 C   0  0  0  0  0  0
  -31.2897  -15.9357   22.5794 C   0  0  0  0  0  0
  -29.1069  -22.9296   20.1212 C   0  0  0  0  0  0
  -28.2395  -25.2868   19.8610 C   0  0  0  0  0  0
  -29.3968  -24.4262   20.3944 C   0  0  1  0  0  0
  -31.7862  -19.4436   21.2740 N   0  0  0  0  0  0
  -29.7517  -20.7743   21.0469 N   0  0  0  0  0  0
  -30.4615  -14.9703   21.8613 N   0  0  0  0  0  0
  -31.3871  -22.2414   20.4104 O   0  0  0  0  0  0
  -29.5139  -24.6209   21.7116 F   0  0  0  0  0  0
  -29.6444  -18.1581   21.9846 S   0  0  0  0  0  0
  -31.4605  -12.4138   19.0774 H   0  0  0  0  0  0
  -30.3331  -11.2770   19.7580 H   0  0  0  0  0  0
  -29.7152  -11.8035   17.3979 H   0  0  0  0  0  0
  -29.6489  -13.5102   17.7636 H   0  0  0  0  0  0
  -27.8241  -11.3129   18.8006 H   0  0  0  0  0  0
  -27.3519  -12.6505   17.7855 H   0  0  0  0  0  0
  -27.7231  -14.2541   19.5950 H   0  0  0  0  0  0
  -28.6639  -11.9117   21.3171 H   0  0  0  0  0  0
  -28.4401  -13.5413   21.8694 H   0  0  0  0  0  0
  -25.2768   -9.5679   22.4726 H   0  0  0  0  0  0
  -24.0001   -7.4637   22.7459 H   0  0  0  0  0  0
  -21.0846   -8.8771   19.8942 H   0  0  0  0  0  0
  -22.3701  -10.9667   19.6141 H   0  0  0  0  0  0
  -21.1993   -7.6144   23.9707 H   0  0  0  0  0  0
  -21.1469   -6.0521   25.9067 H   0  0  0  0  0  0
  -22.0610   -2.7611   23.2844 H   0  0  0  0  0  0
  -22.4181  -11.9855   22.4744 H   0  0  0  0  0  0
  -21.1164  -13.1212   22.2640 H   0  0  0  0  0  0
  -24.6832  -15.8528   20.5271 H   0  0  0  0  0  0
  -26.3077  -15.6205   20.1245 H   0  0  0  0  0  0
  -26.7122  -32.5551   23.1162 H   0  0  0  0  0  0
  -25.0143  -33.9781   25.0530 H   0  0  0  0  0  0
  -22.6870  -31.3140   21.4227 H   0  0  0  0  0  0
  -23.3761  -35.9603   23.3323 H   0  0  0  0  0  0
  -24.3571  -36.8885   22.2053 H   0  0  0  0  0  0
  -23.7209  -37.6479   23.6642 H   0  0  0  0  0  0
  -26.0483  -31.6061   20.6067 H   0  0  0  0  0  0
  -26.8158  -30.8797   21.9908 H   0  0  0  0  0  0
  -28.0946  -29.0934   21.1613 H   0  0  0  0  0  0
  -25.9999  -26.0201   18.9409 H   0  0  0  0  0  0
  -23.9634  -27.3329   19.0054 H   0  0  0  0  0  0
  -23.7156  -30.6231   19.4125 H   0  0  0  0  0  0
  -22.7268  -29.2675   19.8677 H   0  0  0  0  0  0
  -25.1277  -36.1979   25.0832 H   0  0  0  0  0  0
  -20.9935  -28.3256   24.1445 H   0  0  0  0  0  0
  -20.5686  -26.2278   23.3605 H   0  0  0  0  0  0
  -21.6628  -26.7465   22.1190 H   0  0  0  0  0  0
  -19.6923  -25.6304   21.1226 H   0  0  0  0  0  0
  -19.6700  -27.3205   20.6736 H   0  0  0  0  0  0
  -17.4188  -26.6691   21.3997 H   0  0  0  0  0  0
  -18.0287  -26.0061   22.8987 H   0  0  0  0  0  0
  -19.7947  -30.7223   24.2300 H   0  0  0  0  0  0
  -17.5040  -31.6276   24.5156 H   0  0  0  0  0  0
  -15.5362  -30.3006   23.7674 H   0  0  0  0  0  0
  -15.8644  -28.0838   22.7091 H   0  0  0  0  0  0
  -24.5973  -30.6975   25.7814 H   0  0  0  0  0  0
  -24.8885  -32.2815   26.4894 H   0  0  0  0  0  0
  -25.8122  -30.8892   27.0241 H   0  0  0  0  0  0
  -26.2847  -29.6808   24.1175 H   0  0  0  0  0  0
  -27.4190  -29.7306   25.4490 H   0  0  0  0  0  0
  -27.8646  -30.4390   23.9145 H   0  0  0  0  0  0
  -27.2652  -33.3627   26.2067 H   0  0  0  0  0  0
  -28.3863  -32.6910   25.0316 H   0  0  0  0  0  0
  -28.0720  -31.8458   26.5410 H   0  0  0  0  0  0
  -28.2604  -38.0101   24.7537 H   0  0  0  0  0  0
  -28.1073  -36.2619   24.6277 H   0  0  0  0  0  0
  -27.2290  -37.1433   25.8882 H   0  0  0  0  0  0
  -20.9324  -29.8742   21.6937 H   0  0  0  0  0  0
  -26.0189  -38.2874   24.1457 H   0  0  0  0  0  0
  -33.8744  -17.1069   20.8040 H   0  0  0  0  0  0
  -34.0232  -17.3967   22.5300 H   0  0  0  0  0  0
  -34.2855  -18.7119   21.3966 H   0  0  0  0  0  0
  -30.9850  -15.9184   23.6274 H   0  0  0  0  0  0
  -32.3271  -15.5958   22.5706 H   0  0  0  0  0  0
  -28.1683  -22.6557   20.6050 H   0  0  0  0  0  0
  -28.9459  -22.7764   19.0529 H   0  0  0  0  0  0
  -27.3316  -24.9099   20.3364 H   0  0  0  0  0  0
  -28.1375  -25.1278   18.7863 H   0  0  0  0  0  0
  -30.3374  -24.7326   19.9365 H   0  0  0  0  0  0
  -28.7492  -20.6983   21.1418 H   0  0  0  0  0  0
  -29.6441  -14.6240   22.3425 H   0  0  0  0  0  0
  1 25  1  0  0  0
  1 30  2  0  0  0
  1 82  1  0  0  0
  2  3  1  0  0  0
  2 25  1  0  0  0
  2 86  1  0  0  0
  2 87  1  0  0  0
  3  4  1  0  0  0
  3 88  1  0  0  0
  3 89  1  0  0  0
  4  5  1  0  0  0
  4 90  1  0  0  0
  4 91  1  0  0  0
  5  6  1  0  0  0
  5 26  1  0  0  0
  5 92  1  0  0  0
  6 25  1  0  0  0
  6 93  1  0  0  0
  6 94  1  0  0  0
  7  8  2  0  0  0
  7 26  1  0  0  0
  7 29  1  0  0  0
  8  9  1  0  0  0
  8 22  1  0  0  0
  9 10  1  0  0  0
  9 27  2  0  0  0
 10 11  2  0  0  0
 10 15  1  0  0  0
 11 12  1  0  0  0
 11 95  1  0  0  0
 12 13  2  0  0  0
 12 96  1  0  0  0
 13 14  1  0  0  0
 13 31  1  0  0  0
 14 15  2  0  0  0
 14 97  1  0  0  0
 15 98  1  0  0  0
 16 17  2  0  0  0
 16 21  1  0  0  0
 16 31  1  0  0  0
 17 18  1  0  0  0
 17 99  1  0  0  0
 18 19  2  0  0  0
 18100  1  0  0  0
 19 20  1  0  0  0
 19 24  1  0  0  0
 20 21  2  0  0  0
 20101  1  0  0  0
 21 23  1  0  0  0
 22 28  1  0  0  0
 22 32  2  0  0  0
 26 27  1  0  0  0
 28102  1  0  0  0
 28103  1  0  0  0
 29104  1  0  0  0
 29105  1  0  0  0
 33 34  1  0  0  0
 33 66  1  0  0  0
 33 70  2  0  0  0
 34 36  1  0  0  0
 34 59  1  0  0  0
 34106  1  0  0  0
 35 44  2  0  0  0
 35 45  1  0  0  0
 35 68  1  0  0  0
 36 56  1  0  0  0
 36107  1  0  0  0
 37 39  1  0  0  0
 37 47  1  0  0  0
 37 66  1  0  0  0
 37108  1  0  0  0
 38 43  2  0  0  0
 38 46  1  0  0  0
 38 47  1  0  0  0
 39 64  1  0  0  0
 39 67  2  0  0  0
 40 52  1  0  0  0
 40 53  2  0  0  0
 40 58  1  0  0  0
 41109  1  0  0  0
 41110  1  0  0  0
 41111  1  0  0  0
 41 48  1  0  0  0
 42 43  1  0  0  0
 42 66  1  0  0  0
 42112  1  0  0  0
 42113  1  0  0  0
 43 44  1  0  0  0
 44114  1  0  0  0
 45 46  2  0  0  0
 45115  1  0  0  0
 46116  1  0  0  0
 47117  1  0  0  0
 47118  1  0  0  0
 48 56  1  0  0  0
 48 65  1  0  0  0
 48119  1  0  0  0
 49 50  1  0  0  0
 49 53  1  0  0  0
 49 64  1  0  0  0
 49120  1  0  0  0
 50 51  1  0  0  0
 50121  1  0  0  0
 50122  1  0  0  0
 51 52  1  0  0  0
 51123  1  0  0  0
 51124  1  0  0  0
 52125  1  0  0  0
 52126  1  0  0  0
 53 54  1  0  0  0
 54 55  2  0  0  0
 54127  1  0  0  0
 55 57  1  0  0  0
 55128  1  0  0  0
 56 69  2  0  0  0
 57 58  2  0  0  0
 57129  1  0  0  0
 58130  1  0  0  0
 59 60  1  0  0  0
 59 61  1  0  0  0
 59 62  1  0  0  0
 60131  1  0  0  0
 60132  1  0  0  0
 60133  1  0  0  0
 61134  1  0  0  0
 61135  1  0  0  0
 61136  1  0  0  0
 62137  1  0  0  0
 62138  1  0  0  0
 62139  1  0  0  0
 63 65  1  0  0  0
 63140  1  0  0  0
 63141  1  0  0  0
 63142  1  0  0  0
 64143  1  0  0  0
 65144  1  0  0  0
 68 78  1  0  0  0
 71 72  2  0  0  0
 71 75  1  0  0  0
 71 80  1  0  0  0
 72 76  1  0  0  0
 72 85  1  0  0  0
 73 80  2  0  0  0
 73 81  1  0  0  0
 73 85  1  0  0  0
 74 77  1  0  0  0
 74 81  1  0  0  0
 74 83  2  0  0  0
 75145  1  0  0  0
 75146  1  0  0  0
 75147  1  0  0  0
 76 82  1  0  0  0
 76148  1  0  0  0
 76149  1  0  0  0
 77 79  1  0  0  0
 77150  1  0  0  0
 77151  1  0  0  0
 78 79  1  0  0  0
 78152  1  0  0  0
 78153  1  0  0  0
 79 84  1  0  0  0
 79154  1  0  0  0
 81155  1  0  0  0
 82156  1  0  0  0
M  ISO  4   1 100  68 101  78 101  82 100
M  END
> <chiral flag>
0

> <version>
0

> <s_m_source_file>
/data/baiqing/PycharmProjects/Reinvent-master-3.2/result/LINK_invent/BTK/process_docking_weight1_custom_product_contain_oxygen_bond_distance_aromatic_linkinvent_7_9_3/rearranged_h_0189.sdf

> <i_m_source_file_index>
22

> <r_mmod_Potential_Energy-OPLS-2005>
-243.594009399414

> <r_mmod_Stretch_Energy-OPLS-2005>
32.0930633544922

> <r_mmod_Bend_Energy-OPLS-2005>
98.9334259033203

> <r_mmod_Torsional_Energy-OPLS-2005>
177.721038818359

> <r_mmod_Improper_Torsional_Energy-OPLS-2005>
2.98540568351746

> <r_mmod_Van_der_Waal_Energy-OPLS-2005>
138.709701538086

> <r_mmod_Electrostatic_Energy-OPLS-2005>
-443.840911865234

> <r_mmod_Solvation_Energy-OPLS-2005>
-260.095611572266

> <b_mmod_Minimization_Converged-OPLS-2005>
0

> <r_mmod_RMS_Derivative-OPLS-2005>
2.31231355667114

$$$$
22
                    3D
 Structure written by MMmdl.
169177  0  0  1  0            999 V2000
  -30.5312  -14.8439   20.3719 C   0  0  0  0  0  0
  -30.4315  -12.4934   19.5150 C   0  0  0  0  0  0
  -29.5226  -12.5359   18.2612 C   0  0  0  0  0  0
  -28.0365  -12.3727   18.6460 C   0  0  0  0  0  0
  -27.6358  -13.2308   19.8747 C   0  0  2  0  0  0
  -28.6811  -13.1820   21.0118 C   0  0  0  0  0  0
  -25.2402  -13.8158   20.5657 C   0  0  0  0  0  0
  -24.1680  -13.0387   20.9172 C   0  0  0  0  0  0
  -24.6333  -11.6900   20.8761 C   0  0  0  0  0  0
  -23.9055  -10.4249   21.0457 C   0  0  0  0  0  0
  -24.3588   -9.4152   21.9269 C   0  0  0  0  0  0
  -23.6234   -8.2210   22.0799 C   0  0  0  0  0  0
  -22.4237   -8.0241   21.3563 C   0  0  0  0  0  0
  -21.9885   -9.0210   20.4703 C   0  0  0  0  0  0
  -22.7233  -10.2108   20.3125 C   0  0  0  0  0  0
  -21.6826   -6.0695   22.5255 C   0  0  0  0  0  0
  -21.3987   -6.5592   23.8190 C   0  0  0  0  0  0
  -21.3658   -5.6771   24.9147 C   0  0  0  0  0  0
  -21.6047   -4.3021   24.7211 C   0  0  0  0  0  0
  -21.8835   -3.8118   23.4336 C   0  0  0  0  0  0
  -21.9157   -4.6923   22.3381 C   0  0  0  0  0  0
  -22.7729  -13.5250   21.1795 C   0  0  0  0  0  0
  -22.1669   -4.2093   21.0971 F   0  0  0  0  0  0
  -21.5624   -3.4517   25.7749 F   0  0  0  0  0  0
  -29.9751  -13.5710   20.4281 N   0  0  0  0  0  0
  -26.2867  -12.9382   20.3401 N   0  0  0  0  0  0
  -25.9254  -11.6526   20.5799 N   0  0  0  0  0  0
  -22.0355  -12.8283   22.0375 N   0  0  0  0  0  0
  -25.3880  -15.1828   20.3952 N   0  0  0  0  0  0
  -31.6995  -14.9581   19.9881 O   0  0  0  0  0  0
  -21.6598   -6.8839   21.4237 O   0  0  0  0  0  0
  -22.3434  -14.5532   20.6610 O   0  0  0  0  0  0
  -24.6297  -31.8526   23.2000 C   0  0  0  0  0  0
  -25.9140  -32.4730   23.8319 C   0  0  1  0  0  0
  -27.2410  -27.2590   20.1593 C   0  0  0  0  0  0
  -25.6008  -33.8567   24.2256 N   0  0  0  0  0  0
  -23.4295  -30.4655   21.5384 C   0  0  2  0  0  0
  -24.8919  -28.9168   20.1135 C   0  0  0  0  0  0
  -22.7464  -29.4551   22.4902 C   0  0  0  0  0  0
  -18.0323  -28.1346   22.8700 C   0  0  0  0  0  0
  -24.1522  -36.7222   23.2634 C   0  0  0  0  0  0
  -25.9789  -30.7590   21.3974 C   0  0  0  0  0  0
  -26.0585  -29.3853   20.7341 C   0  0  0  0  0  0
  -27.2397  -28.5747   20.7380 C   0  0  0  0  0  0
  -26.0491  -26.8393   19.5312 C   0  0  0  0  0  0
  -24.8942  -27.6485   19.5033 C   0  0  0  0  0  0
  -23.6586  -29.8041   20.1505 C   0  0  0  0  0  0
  -25.4170  -36.3031   24.0299 C   0  0  1  0  0  0
  -20.5909  -28.3732   23.1519 C   0  0  2  0  0  0
  -20.6581  -26.9324   22.6085 C   0  0  0  0  0  0
  -19.5877  -26.6693   21.5525 C   0  0  0  0  0  0
  -18.2133  -26.7796   22.2070 C   0  0  0  0  0  0
  -19.1538  -28.8944   23.3004 C   0  0  0  0  0  0
  -18.9392  -30.1580   23.8898 C   0  0  0  0  0  0
  -17.6344  -30.6653   24.0472 C   0  0  0  0  0  0
  -25.9127  -34.9422   23.5066 C   0  0  0  0  0  0
  -16.5307  -29.9039   23.6278 C   0  0  0  0  0  0
  -16.7288  -28.6378   23.0497 C   0  0  0  0  0  0
  -26.4571  -31.6551   25.0693 C   0  0  0  0  0  0
  -25.3771  -31.3663   26.1355 C   0  0  0  0  0  0
  -27.0451  -30.2935   24.6257 C   0  0  0  0  0  0
  -27.6076  -32.4365   25.7469 C   0  0  0  0  0  0
  -27.5594  -37.1775   24.8474 C   0  0  0  0  0  0
  -21.4207  -29.2768   22.3497 N   0  0  0  0  0  0
  -26.4327  -37.3723   23.9383 N   0  0  0  0  0  0
  -24.6947  -31.0448   22.1003 N   0  0  0  0  0  0
  -23.4138  -28.8364   23.3208 O   0  0  0  0  0  0
  -28.3499  -26.3840   20.1236 O   0  0  0  0  0  0
  -26.5647  -34.8894   22.4631 O   0  0  0  0  0  0
  -23.5436  -32.1427   23.7210 O   0  0  0  0  0  0
  -28.9813  -19.8220   20.4956 C   0  0  0  0  0  0
  -30.8168  -21.1421   19.9177 C   0  0  0  0  0  0
  -29.5135  -21.1978   20.3459 C   0  0  0  0  0  0
  -29.8245  -18.7599   20.0886 C   0  0  0  0  0  0
  -29.0736  -23.8080   20.2349 C   0  0  0  0  0  0
  -29.0670  -24.4507   23.3529 C   0  0  0  0  0  0
  -26.2955  -18.2559   17.5269 C   0  0  0  0  0  0
  -28.5926  -19.0859   17.1971 C   0  0  0  0  0  0
  -28.0120  -16.7538   16.5169 C   0  0  0  0  0  0
  -28.8901  -25.4937   22.2359 C   0  0  0  0  0  0
  -28.0880  -17.2322   19.0104 C   0  0  0  0  0  0
  -29.5241  -17.2492   19.6389 C   0  0  2  0  0  0
  -28.2851  -25.0728   20.8664 C   0  0  1  0  0  0
  -27.7819  -17.8379   17.5900 C   0  0  0  0  0  0
  -28.8132  -22.4934   20.6343 N   0  0  0  0  0  0
  -29.6968  -15.9629   20.5147 N   0  0  0  0  0  0
  -29.9249  -24.0432   19.3719 O   0  0  0  0  0  0
  -31.3589  -19.4877   19.6284 S   0  0  0  0  0  0
  -31.4827  -12.6115   19.2393 H   0  0  0  0  0  0
  -30.3617  -11.5159   19.9965 H   0  0  0  0  0  0
  -29.8082  -11.7515   17.5637 H   0  0  0  0  0  0
  -29.6619  -13.4851   17.7361 H   0  0  0  0  0  0
  -27.8465  -11.3254   18.8636 H   0  0  0  0  0  0
  -27.3999  -12.6216   17.7935 H   0  0  0  0  0  0
  -27.6267  -14.2440   19.5109 H   0  0  0  0  0  0
  -28.7202  -12.1809   21.4445 H   0  0  0  0  0  0
  -28.3937  -13.8503   21.8301 H   0  0  0  0  0  0
  -25.2717   -9.5556   22.4848 H   0  0  0  0  0  0
  -23.9879   -7.4568   22.7491 H   0  0  0  0  0  0
  -21.0832   -8.8735   19.8990 H   0  0  0  0  0  0
  -22.3696  -10.9626   19.6199 H   0  0  0  0  0  0
  -21.2031   -7.6108   23.9654 H   0  0  0  0  0  0
  -21.1473   -6.0522   25.9048 H   0  0  0  0  0  0
  -22.0632   -2.7563   23.2851 H   0  0  0  0  0  0
  -22.4002  -12.0010   22.4865 H   0  0  0  0  0  0
  -21.0971  -13.1283   22.2583 H   0  0  0  0  0  0
  -24.5697  -15.7844   20.3920 H   0  0  0  0  0  0
  -26.1930  -15.5905   19.9411 H   0  0  0  0  0  0
  -26.7207  -32.5349   23.1037 H   0  0  0  0  0  0
  -25.0185  -33.9776   25.0407 H   0  0  0  0  0  0
  -22.7229  -31.2846   21.3946 H   0  0  0  0  0  0
  -23.3786  -35.9539   23.3297 H   0  0  0  0  0  0
  -24.3599  -36.8847   22.2042 H   0  0  0  0  0  0
  -23.7293  -37.6423   23.6691 H   0  0  0  0  0  0
  -26.1501  -31.5283   20.6454 H   0  0  0  0  0  0
  -26.8381  -30.7766   22.0557 H   0  0  0  0  0  0
  -28.1421  -28.9399   21.2110 H   0  0  0  0  0  0
  -26.0160  -25.8631   19.0637 H   0  0  0  0  0  0
  -24.0008  -27.2744   19.0235 H   0  0  0  0  0  0
  -23.7758  -30.5868   19.3963 H   0  0  0  0  0  0
  -22.7783  -29.2340   19.8412 H   0  0  0  0  0  0
  -25.1368  -36.1819   25.0777 H   0  0  0  0  0  0
  -21.0133  -28.3541   24.1619 H   0  0  0  0  0  0
  -20.4512  -26.2550   23.4405 H   0  0  0  0  0  0
  -21.6539  -26.6676   22.2550 H   0  0  0  0  0  0
  -19.7202  -25.6832   21.1076 H   0  0  0  0  0  0
  -19.6771  -27.4106   20.7537 H   0  0  0  0  0  0
  -17.4262  -26.5921   21.4739 H   0  0  0  0  0  0
  -18.1143  -26.0171   22.9861 H   0  0  0  0  0  0
  -19.7843  -30.7494   24.2232 H   0  0  0  0  0  0
  -17.4789  -31.6419   24.4908 H   0  0  0  0  0  0
  -15.5296  -30.2911   23.7571 H   0  0  0  0  0  0
  -15.8711  -28.0587   22.7335 H   0  0  0  0  0  0
  -24.5957  -30.7074   25.7574 H   0  0  0  0  0  0
  -24.8984  -32.2816   26.4808 H   0  0  0  0  0  0
  -25.8058  -30.8730   27.0070 H   0  0  0  0  0  0
  -26.3024  -29.6595   24.1400 H   0  0  0  0  0  0
  -27.4167  -29.7315   25.4829 H   0  0  0  0  0  0
  -27.8919  -30.4102   23.9495 H   0  0  0  0  0  0
  -27.2621  -33.3657   26.1982 H   0  0  0  0  0  0
  -28.3888  -32.6939   25.0326 H   0  0  0  0  0  0
  -28.0725  -31.8546   26.5399 H   0  0  0  0  0  0
  -28.2605  -38.0072   24.7509 H   0  0  0  0  0  0
  -28.1106  -36.2607   24.6341 H   0  0  0  0  0  0
  -27.2294  -37.1438   25.8870 H   0  0  0  0  0  0
  -20.9558  -29.7765   21.6067 H   0  0  0  0  0  0
  -26.0167  -38.2775   24.1374 H   0  0  0  0  0  0
  -27.9543  -19.6502   20.7810 H   0  0  0  0  0  0
  -31.5068  -21.9619   19.7369 H   0  0  0  0  0  0
  -28.1173  -24.0536   23.7170 H   0  0  0  0  0  0
  -29.5589  -24.9200   24.2054 H   0  0  0  0  0  0
  -29.7095  -23.6246   23.0461 H   0  0  0  0  0  0
  -26.0224  -18.6010   16.5319 H   0  0  0  0  0  0
  -26.0737  -19.0926   18.1955 H   0  0  0  0  0  0
  -25.6229  -17.4311   17.7705 H   0  0  0  0  0  0
  -28.2987  -19.4692   16.2197 H   0  0  0  0  0  0
  -29.6556  -18.8707   17.1486 H   0  0  0  0  0  0
  -28.4305  -19.9084   17.8907 H   0  0  0  0  0  0
  -27.8414  -17.1408   15.5092 H   0  0  0  0  0  0
  -27.3372  -15.9106   16.6636 H   0  0  0  0  0  0
  -29.0251  -16.3587   16.5539 H   0  0  0  0  0  0
  -29.8722  -25.9181   22.0451 H   0  0  0  0  0  0
  -28.3020  -26.3151   22.6476 H   0  0  0  0  0  0
  -27.4041  -17.6620   19.7457 H   0  0  0  0  0  0
  -27.7672  -16.1999   18.9550 H   0  0  0  0  0  0
  -30.1895  -17.0601   18.7965 H   0  0  0  0  0  0
  -27.2422  -24.7726   20.9798 H   0  0  0  0  0  0
  -28.0430  -22.4327   21.2895 H   0  0  0  0  0  0
  -28.8363  -15.7110   20.9770 H   0  0  0  0  0  0
  1 25  1  0  0  0
  1 30  2  0  0  0
  1 86  1  0  0  0
  2  3  1  0  0  0
  2 25  1  0  0  0
  2 89  1  0  0  0
  2 90  1  0  0  0
  3  4  1  0  0  0
  3 91  1  0  0  0
  3 92  1  0  0  0
  4  5  1  0  0  0
  4 93  1  0  0  0
  4 94  1  0  0  0
  5  6  1  0  0  0
  5 26  1  0  0  0
  5 95  1  0  0  0
  6 25  1  0  0  0
  6 96  1  0  0  0
  6 97  1  0  0  0
  7  8  2  0  0  0
  7 26  1  0  0  0
  7 29  1  0  0  0
  8  9  1  0  0  0
  8 22  1  0  0  0
  9 10  1  0  0  0
  9 27  2  0  0  0
 10 11  2  0  0  0
 10 15  1  0  0  0
 11 12  1  0  0  0
 11 98  1  0  0  0
 12 13  2  0  0  0
 12 99  1  0  0  0
 13 14  1  0  0  0
 13 31  1  0  0  0
 14 15  2  0  0  0
 14100  1  0  0  0
 15101  1  0  0  0
 16 17  2  0  0  0
 16 21  1  0  0  0
 16 31  1  0  0  0
 17 18  1  0  0  0
 17102  1  0  0  0
 18 19  2  0  0  0
 18103  1  0  0  0
 19 20  1  0  0  0
 19 24  1  0  0  0
 20 21  2  0  0  0
 20104  1  0  0  0
 21 23  1  0  0  0
 22 28  1  0  0  0
 22 32  2  0  0  0
 26 27  1  0  0  0
 28105  1  0  0  0
 28106  1  0  0  0
 29107  1  0  0  0
 29108  1  0  0  0
 33 34  1  0  0  0
 33 66  1  0  0  0
 33 70  2  0  0  0
 34 36  1  0  0  0
 34 59  1  0  0  0
 34109  1  0  0  0
 35 44  2  0  0  0
 35 45  1  0  0  0
 35 68  1  0  0  0
 36 56  1  0  0  0
 36110  1  0  0  0
 37 39  1  0  0  0
 37 47  1  0  0  0
 37 66  1  0  0  0
 37111  1  0  0  0
 38 43  2  0  0  0
 38 46  1  0  0  0
 38 47  1  0  0  0
 39 64  1  0  0  0
 39 67  2  0  0  0
 40 52  1  0  0  0
 40 53  2  0  0  0
 40 58  1  0  0  0
 41112  1  0  0  0
 41113  1  0  0  0
 41114  1  0  0  0
 41 48  1  0  0  0
 42 43  1  0  0  0
 42 66  1  0  0  0
 42115  1  0  0  0
 42116  1  0  0  0
 43 44  1  0  0  0
 44117  1  0  0  0
 45 46  2  0  0  0
 45118  1  0  0  0
 46119  1  0  0  0
 47120  1  0  0  0
 47121  1  0  0  0
 48 56  1  0  0  0
 48 65  1  0  0  0
 48122  1  0  0  0
 49 50  1  0  0  0
 49 53  1  0  0  0
 49 64  1  0  0  0
 49123  1  0  0  0
 50 51  1  0  0  0
 50124  1  0  0  0
 50125  1  0  0  0
 51 52  1  0  0  0
 51126  1  0  0  0
 51127  1  0  0  0
 52128  1  0  0  0
 52129  1  0  0  0
 53 54  1  0  0  0
 54 55  2  0  0  0
 54130  1  0  0  0
 55 57  1  0  0  0
 55131  1  0  0  0
 56 69  2  0  0  0
 57 58  2  0  0  0
 57132  1  0  0  0
 58133  1  0  0  0
 59 60  1  0  0  0
 59 61  1  0  0  0
 59 62  1  0  0  0
 60134  1  0  0  0
 60135  1  0  0  0
 60136  1  0  0  0
 61137  1  0  0  0
 61138  1  0  0  0
 61139  1  0  0  0
 62140  1  0  0  0
 62141  1  0  0  0
 62142  1  0  0  0
 63 65  1  0  0  0
 63143  1  0  0  0
 63144  1  0  0  0
 63145  1  0  0  0
 64146  1  0  0  0
 65147  1  0  0  0
 68 83  1  0  0  0
 71 73  1  0  0  0
 71 74  2  0  0  0
 71148  1  0  0  0
 72 73  2  0  0  0
 72 88  1  0  0  0
 72149  1  0  0  0
 73 85  1  0  0  0
 74 82  1  0  0  0
 74 88  1  0  0  0
 75 83  1  0  0  0
 75 85  1  0  0  0
 75 87  2  0  0  0
 76 80  1  0  0  0
 76150  1  0  0  0
 76151  1  0  0  0
 76152  1  0  0  0
 77153  1  0  0  0
 77154  1  0  0  0
 77155  1  0  0  0
 77 84  1  0  0  0
 78 84  1  0  0  0
 78156  1  0  0  0
 78157  1  0  0  0
 78158  1  0  0  0
 79 84  1  0  0  0
 79159  1  0  0  0
 79160  1  0  0  0
 79161  1  0  0  0
 80162  1  0  0  0
 80163  1  0  0  0
 80 83  1  0  0  0
 81 84  1  0  0  0
 81164  1  0  0  0
 81165  1  0  0  0
 81 82  1  0  0  0
 82 86  1  0  0  0
 82166  1  0  0  0
 83167  1  0  0  0
 85168  1  0  0  0
 86169  1  0  0  0
M  ISO  4   1 100  68 101  83 101  86 100
M  END
> <chiral flag>
0

> <version>
0

> <s_m_source_file>
/data/baiqing/PycharmProjects/Reinvent-master-3.2/result/LINK_invent/BTK/process_docking_weight1_custom_product_contain_oxygen_bond_distance_aromatic_linkinvent_7_9_3/rearranged_h_0189.sdf

> <i_m_source_file_index>
23

> <r_mmod_Potential_Energy-OPLS-2005>
293.646911621094

> <r_mmod_Stretch_Energy-OPLS-2005>
156.186431884766

> <r_mmod_Bend_Energy-OPLS-2005>
221.393203735352

> <r_mmod_Torsional_Energy-OPLS-2005>
280.695983886719

> <r_mmod_Improper_Torsional_Energy-OPLS-2005>
11.8604364395142

> <r_mmod_Van_der_Waal_Energy-OPLS-2005>
107.325630187988

> <r_mmod_Electrostatic_Energy-OPLS-2005>
-364.336639404297

> <r_mmod_Solvation_Energy-OPLS-2005>
-233.41242980957

> <b_mmod_Minimization_Converged-OPLS-2005>
0

> <r_mmod_RMS_Derivative-OPLS-2005>
9.76638507843018

$$$$
23
                    3D
 Structure written by MMmdl.
153161  0  0  1  0            999 V2000
  -30.6912  -14.4893   20.5461 C   0  0  0  0  0  0
  -30.4192  -12.3045   19.4355 C   0  0  0  0  0  0
  -29.4946  -12.4926   18.2142 C   0  0  0  0  0  0
  -28.0150  -12.3551   18.6239 C   0  0  0  0  0  0
  -27.6581  -13.2086   19.8702 C   0  0  2  0  0  0
  -28.7000  -13.0138   20.9952 C   0  0  0  0  0  0
  -25.2577  -13.8168   20.5691 C   0  0  0  0  0  0
  -24.1833  -13.0439   20.9184 C   0  0  0  0  0  0
  -24.6390  -11.6907   20.8742 C   0  0  0  0  0  0
  -23.9059  -10.4293   21.0404 C   0  0  0  0  0  0
  -24.3612   -9.4206   21.9182 C   0  0  0  0  0  0
  -23.6292   -8.2240   22.0750 C   0  0  0  0  0  0
  -22.4273   -8.0280   21.3541 C   0  0  0  0  0  0
  -21.9907   -9.0252   20.4640 C   0  0  0  0  0  0
  -22.7232  -10.2133   20.3052 C   0  0  0  0  0  0
  -21.6852   -6.0738   22.5278 C   0  0  0  0  0  0
  -21.4011   -6.5640   23.8211 C   0  0  0  0  0  0
  -21.3661   -5.6791   24.9173 C   0  0  0  0  0  0
  -21.6040   -4.3054   24.7220 C   0  0  0  0  0  0
  -21.8824   -3.8149   23.4340 C   0  0  0  0  0  0
  -21.9192   -4.6966   22.3398 C   0  0  0  0  0  0
  -22.7854  -13.5227   21.1856 C   0  0  0  0  0  0
  -22.1662   -4.2156   21.0975 F   0  0  0  0  0  0
  -21.5627   -3.4538   25.7733 F   0  0  0  0  0  0
  -30.0283  -13.3049   20.4424 N   0  0  0  0  0  0
  -26.3010  -12.9338   20.3359 N   0  0  0  0  0  0
  -25.9316  -11.6496   20.5768 N   0  0  0  0  0  0
  -22.0507  -12.8216   22.0417 N   0  0  0  0  0  0
  -25.4308  -15.1888   20.4108 N   0  0  0  0  0  0
  -31.8415  -14.6171   20.1166 O   0  0  0  0  0  0
  -21.6636   -6.8879   21.4239 O   0  0  0  0  0  0
  -22.3532  -14.5532   20.6705 O   0  0  0  0  0  0
  -24.6135  -31.8684   23.2100 C   0  0  0  0  0  0
  -25.9030  -32.4823   23.8401 C   0  0  1  0  0  0
  -27.2385  -27.4437   20.1017 C   0  0  0  0  0  0
  -25.5893  -33.8623   24.2331 N   0  0  0  0  0  0
  -23.4033  -30.4896   21.5494 C   0  0  2  0  0  0
  -24.8546  -28.9558   20.1154 C   0  0  0  0  0  0
  -22.7413  -29.4650   22.4987 C   0  0  0  0  0  0
  -18.0274  -28.1376   22.8490 C   0  0  0  0  0  0
  -24.1483  -36.7309   23.2637 C   0  0  0  0  0  0
  -25.9303  -30.8364   21.3630 C   0  0  0  0  0  0
  -26.0118  -29.4691   20.7160 C   0  0  0  0  0  0
  -27.2096  -28.7171   20.7134 C   0  0  0  0  0  0
  -26.0709  -26.9422   19.4940 C   0  0  0  0  0  0
  -24.8776  -27.6899   19.5025 C   0  0  0  0  0  0
  -23.6144  -29.8205   20.1643 C   0  0  0  0  0  0
  -25.4099  -36.3110   24.0340 C   0  0  1  0  0  0
  -20.5862  -28.3663   23.1323 C   0  0  2  0  0  0
  -20.6762  -26.9398   22.5424 C   0  0  0  0  0  0
  -19.5744  -26.6388   21.5216 C   0  0  0  0  0  0
  -18.1922  -26.7922   22.1621 C   0  0  0  0  0  0
  -19.1521  -28.8836   23.2902 C   0  0  0  0  0  0
  -18.9454  -30.1440   23.8915 C   0  0  0  0  0  0
  -17.6459  -30.6588   24.0564 C   0  0  0  0  0  0
  -25.9028  -34.9478   23.5132 C   0  0  0  0  0  0
  -16.5349  -29.9092   23.6320 C   0  0  0  0  0  0
  -16.7263  -28.6504   23.0344 C   0  0  0  0  0  0
  -26.4471  -31.6600   25.0725 C   0  0  0  0  0  0
  -25.3742  -31.3699   26.1478 C   0  0  0  0  0  0
  -27.0303  -30.3051   24.6070 C   0  0  0  0  0  0
  -27.6055  -32.4317   25.7482 C   0  0  0  0  0  0
  -27.5582  -37.1794   24.8460 C   0  0  0  0  0  0
  -21.4140  -29.3030   22.3727 N   0  0  0  0  0  0
  -26.4287  -37.3794   23.9419 N   0  0  0  0  0  0
  -24.6670  -31.0788   22.1000 N   0  0  0  0  0  0
  -23.4188  -28.8192   23.3028 O   0  0  0  0  0  0
  -28.3742  -26.6699   20.0833 O   0  0  0  0  0  0
  -26.5594  -34.8932   22.4694 O   0  0  0  0  0  0
  -23.5326  -32.1427   23.7497 O   0  0  0  0  0  0
  -28.4202  -18.7880   20.1893 C   0  0  0  0  0  0
  -29.7010  -18.3373   20.4194 C   0  0  0  0  0  0
  -29.3610  -20.7570   20.8364 C   0  0  0  0  0  0
  -30.2885  -16.9836   20.0935 C   0  0  0  0  0  0
  -29.9762  -15.7820   21.0346 C   0  0  0  0  0  0
  -28.6177  -23.2913   20.9592 C   0  0  0  0  0  0
  -28.5535  -25.8949   21.2741 C   0  0  0  0  0  0
  -29.4198  -24.6190   21.0468 C   0  0  1  0  0  0
  -28.2412  -20.1624   20.4247 N   0  0  0  0  0  0
  -29.4975  -22.1242   21.0552 N   0  0  0  0  0  0
  -30.3376  -24.4729   22.1237 O   0  0  0  0  0  0
  -30.7049  -19.6340   21.0402 S   0  0  0  0  0  0
  -31.4646  -12.3923   19.1347 H   0  0  0  0  0  0
  -30.3140  -11.2993   19.8467 H   0  0  0  0  0  0
  -29.7366  -11.7609   17.4425 H   0  0  0  0  0  0
  -29.6634  -13.4752   17.7703 H   0  0  0  0  0  0
  -27.8273  -11.3011   18.8320 H   0  0  0  0  0  0
  -27.3654  -12.6184   17.7886 H   0  0  0  0  0  0
  -27.6948  -14.2508   19.5538 H   0  0  0  0  0  0
  -28.6745  -11.9861   21.3604 H   0  0  0  0  0  0
  -28.4724  -13.6360   21.8611 H   0  0  0  0  0  0
  -25.2758   -9.5683   22.4755 H   0  0  0  0  0  0
  -24.0003   -7.4629   22.7469 H   0  0  0  0  0  0
  -21.0839   -8.8768   19.8944 H   0  0  0  0  0  0
  -22.3690  -10.9672   19.6163 H   0  0  0  0  0  0
  -21.2008   -7.6150   23.9716 H   0  0  0  0  0  0
  -21.1475   -6.0521   25.9076 H   0  0  0  0  0  0
  -22.0604   -2.7612   23.2837 H   0  0  0  0  0  0
  -22.4131  -11.9871   22.4789 H   0  0  0  0  0  0
  -21.1128  -13.1233   22.2642 H   0  0  0  0  0  0
  -24.6674  -15.8470   20.5213 H   0  0  0  0  0  0
  -26.2894  -15.6244   20.0999 H   0  0  0  0  0  0
  -26.7113  -32.5551   23.1182 H   0  0  0  0  0  0
  -25.0060  -33.9789   25.0486 H   0  0  0  0  0  0
  -22.6909  -31.3052   21.4084 H   0  0  0  0  0  0
  -23.3757  -35.9633   23.3285 H   0  0  0  0  0  0
  -24.3582  -36.8935   22.2058 H   0  0  0  0  0  0
  -23.7227  -37.6502   23.6661 H   0  0  0  0  0  0
  -26.0363  -31.6009   20.5917 H   0  0  0  0  0  0
  -26.8196  -30.8973   21.9782 H   0  0  0  0  0  0
  -28.1038  -29.1067   21.1795 H   0  0  0  0  0  0
  -26.0864  -25.9697   19.0227 H   0  0  0  0  0  0
  -23.9888  -27.2885   19.0353 H   0  0  0  0  0  0
  -23.7216  -30.5949   19.4040 H   0  0  0  0  0  0
  -22.7405  -29.2374   19.8679 H   0  0  0  0  0  0
  -25.1272  -36.1975   25.0834 H   0  0  0  0  0  0
  -20.9952  -28.3237   24.1443 H   0  0  0  0  0  0
  -20.5677  -26.2268   23.3609 H   0  0  0  0  0  0
  -21.6631  -26.7449   22.1209 H   0  0  0  0  0  0
  -19.6908  -25.6305   21.1233 H   0  0  0  0  0  0
  -19.6687  -27.3207   20.6756 H   0  0  0  0  0  0
  -17.4190  -26.6675   21.4023 H   0  0  0  0  0  0
  -18.0312  -26.0066   22.9017 H   0  0  0  0  0  0
  -19.7932  -30.7239   24.2308 H   0  0  0  0  0  0
  -17.5020  -31.6270   24.5165 H   0  0  0  0  0  0
  -15.5349  -30.3005   23.7641 H   0  0  0  0  0  0
  -15.8657  -28.0837   22.7052 H   0  0  0  0  0  0
  -24.5915  -30.7049   25.7813 H   0  0  0  0  0  0
  -24.8941  -32.2859   26.4937 H   0  0  0  0  0  0
  -25.8106  -30.8861   27.0227 H   0  0  0  0  0  0
  -26.2838  -29.6811   24.1148 H   0  0  0  0  0  0
  -27.4121  -29.7286   25.4504 H   0  0  0  0  0  0
  -27.8649  -30.4383   23.9183 H   0  0  0  0  0  0
  -27.2674  -33.3603   26.2095 H   0  0  0  0  0  0
  -28.3846  -32.6897   25.0296 H   0  0  0  0  0  0
  -28.0743  -31.8422   26.5368 H   0  0  0  0  0  0
  -28.2577  -38.0115   24.7552 H   0  0  0  0  0  0
  -28.1102  -36.2651   24.6226 H   0  0  0  0  0  0
  -27.2307  -37.1374   25.8864 H   0  0  0  0  0  0
  -20.9313  -29.8751   21.6939 H   0  0  0  0  0  0
  -26.0176  -38.2864   24.1461 H   0  0  0  0  0  0
  -27.5918  -18.2150   19.7953 H   0  0  0  0  0  0
  -31.3708  -17.1045   20.0258 H   0  0  0  0  0  0
  -29.9758  -16.7151   19.0832 H   0  0  0  0  0  0
  -28.8967  -15.6519   21.0738 H   0  0  0  0  0  0
  -30.3036  -15.9988   22.0510 H   0  0  0  0  0  0
  -28.0553  -23.2554   20.0247 H   0  0  0  0  0  0
  -27.8846  -23.2377   21.7656 H   0  0  0  0  0  0
  -29.0433  -26.5555   21.9919 H   0  0  0  0  0  0
  -27.5986  -25.6215   21.7277 H   0  0  0  0  0  0
  -30.0131  -24.7520   20.1403 H   0  0  0  0  0  0
  -30.4234  -22.4002   21.3767 H   0  0  0  0  0  0
  -29.8271  -24.2898   22.9067 H   0  0  0  0  0  0
  1 25  1  0  0  0
  1 30  2  0  0  0
  1 75  1  0  0  0
  2  3  1  0  0  0
  2 25  1  0  0  0
  2 83  1  0  0  0
  2 84  1  0  0  0
  3  4  1  0  0  0
  3 85  1  0  0  0
  3 86  1  0  0  0
  4  5  1  0  0  0
  4 87  1  0  0  0
  4 88  1  0  0  0
  5  6  1  0  0  0
  5 26  1  0  0  0
  5 89  1  0  0  0
  6 25  1  0  0  0
  6 90  1  0  0  0
  6 91  1  0  0  0
  7  8  2  0  0  0
  7 26  1  0  0  0
  7 29  1  0  0  0
  8  9  1  0  0  0
  8 22  1  0  0  0
  9 10  1  0  0  0
  9 27  2  0  0  0
 10 11  2  0  0  0
 10 15  1  0  0  0
 11 12  1  0  0  0
 11 92  1  0  0  0
 12 13  2  0  0  0
 12 93  1  0  0  0
 13 14  1  0  0  0
 13 31  1  0  0  0
 14 15  2  0  0  0
 14 94  1  0  0  0
 15 95  1  0  0  0
 16 17  2  0  0  0
 16 21  1  0  0  0
 16 31  1  0  0  0
 17 18  1  0  0  0
 17 96  1  0  0  0
 18 19  2  0  0  0
 18 97  1  0  0  0
 19 20  1  0  0  0
 19 24  1  0  0  0
 20 21  2  0  0  0
 20 98  1  0  0  0
 21 23  1  0  0  0
 22 28  1  0  0  0
 22 32  2  0  0  0
 26 27  1  0  0  0
 28 99  1  0  0  0
 28100  1  0  0  0
 29101  1  0  0  0
 29102  1  0  0  0
 33 34  1  0  0  0
 33 66  1  0  0  0
 33 70  2  0  0  0
 34 36  1  0  0  0
 34 59  1  0  0  0
 34103  1  0  0  0
 35 44  2  0  0  0
 35 45  1  0  0  0
 35 68  1  0  0  0
 36 56  1  0  0  0
 36104  1  0  0  0
 37 39  1  0  0  0
 37 47  1  0  0  0
 37 66  1  0  0  0
 37105  1  0  0  0
 38 43  2  0  0  0
 38 46  1  0  0  0
 38 47  1  0  0  0
 39 64  1  0  0  0
 39 67  2  0  0  0
 40 52  1  0  0  0
 40 53  2  0  0  0
 40 58  1  0  0  0
 41106  1  0  0  0
 41107  1  0  0  0
 41108  1  0  0  0
 41 48  1  0  0  0
 42 43  1  0  0  0
 42 66  1  0  0  0
 42109  1  0  0  0
 42110  1  0  0  0
 43 44  1  0  0  0
 44111  1  0  0  0
 45 46  2  0  0  0
 45112  1  0  0  0
 46113  1  0  0  0
 47114  1  0  0  0
 47115  1  0  0  0
 48 56  1  0  0  0
 48 65  1  0  0  0
 48116  1  0  0  0
 49 50  1  0  0  0
 49 53  1  0  0  0
 49 64  1  0  0  0
 49117  1  0  0  0
 50 51  1  0  0  0
 50118  1  0  0  0
 50119  1  0  0  0
 51 52  1  0  0  0
 51120  1  0  0  0
 51121  1  0  0  0
 52122  1  0  0  0
 52123  1  0  0  0
 53 54  1  0  0  0
 54 55  2  0  0  0
 54124  1  0  0  0
 55 57  1  0  0  0
 55125  1  0  0  0
 56 69  2  0  0  0
 57 58  2  0  0  0
 57126  1  0  0  0
 58127  1  0  0  0
 59 60  1  0  0  0
 59 61  1  0  0  0
 59 62  1  0  0  0
 60128  1  0  0  0
 60129  1  0  0  0
 60130  1  0  0  0
 61131  1  0  0  0
 61132  1  0  0  0
 61133  1  0  0  0
 62134  1  0  0  0
 62135  1  0  0  0
 62136  1  0  0  0
 63 65  1  0  0  0
 63137  1  0  0  0
 63138  1  0  0  0
 63139  1  0  0  0
 64140  1  0  0  0
 65141  1  0  0  0
 68 77  1  0  0  0
 71 72  2  0  0  0
 71 79  1  0  0  0
 71142  1  0  0  0
 72 74  1  0  0  0
 72 82  1  0  0  0
 73 79  2  0  0  0
 73 80  1  0  0  0
 73 82  1  0  0  0
 74 75  1  0  0  0
 74143  1  0  0  0
 74144  1  0  0  0
 75145  1  0  0  0
 75146  1  0  0  0
 76 78  1  0  0  0
 76 80  1  0  0  0
 76147  1  0  0  0
 76148  1  0  0  0
 77 78  1  0  0  0
 77149  1  0  0  0
 77150  1  0  0  0
 78 81  1  0  0  0
 78151  1  0  0  0
 80152  1  0  0  0
 81153  1  0  0  0
M  ISO  4   1 100  68 101  75 100  77 101
M  END
> <chiral flag>
0

> <version>
0

> <s_m_source_file>
/data/baiqing/PycharmProjects/Reinvent-master-3.2/result/LINK_invent/BTK/process_docking_weight1_custom_product_contain_oxygen_bond_distance_aromatic_linkinvent_7_9_3/rearranged_h_0189.sdf

> <i_m_source_file_index>
24

> <r_mmod_Potential_Energy-OPLS-2005>
-146.591918945312

> <r_mmod_Stretch_Energy-OPLS-2005>
35.9012107849121

> <r_mmod_Bend_Energy-OPLS-2005>
91.9834213256836

> <r_mmod_Torsional_Energy-OPLS-2005>
214.707412719727

> <r_mmod_Improper_Torsional_Energy-OPLS-2005>
3.90614652633667

> <r_mmod_Van_der_Waal_Energy-OPLS-2005>
126.317489624023

> <r_mmod_Electrostatic_Energy-OPLS-2005>
-406.709991455078

> <r_mmod_Solvation_Energy-OPLS-2005>
-227.154281616211

> <b_mmod_Minimization_Converged-OPLS-2005>
0

> <r_mmod_RMS_Derivative-OPLS-2005>
1.05794584751129

$$$$
24
                    3D
 Structure written by MMmdl.
157165  0  0  1  0            999 V2000
  -30.5674  -14.7036   20.4911 C   0  0  0  0  0  0
  -30.4578  -12.4407   19.4442 C   0  0  0  0  0  0
  -29.5225  -12.5321   18.2148 C   0  0  0  0  0  0
  -28.0429  -12.3464   18.6220 C   0  0  0  0  0  0
  -27.6530  -13.2177   19.8456 C   0  0  2  0  0  0
  -28.6968  -13.0834   20.9786 C   0  0  0  0  0  0
  -25.2561  -13.8128   20.5696 C   0  0  0  0  0  0
  -24.1821  -13.0411   20.9140 C   0  0  0  0  0  0
  -24.6388  -11.6884   20.8634 C   0  0  0  0  0  0
  -23.9034  -10.4268   21.0336 C   0  0  0  0  0  0
  -24.3618   -9.4220   21.9140 C   0  0  0  0  0  0
  -23.6287   -8.2257   22.0761 C   0  0  0  0  0  0
  -22.4242   -8.0309   21.3569 C   0  0  0  0  0  0
  -21.9847   -9.0262   20.4652 C   0  0  0  0  0  0
  -22.7192  -10.2118   20.3003 C   0  0  0  0  0  0
  -21.6837   -6.0742   22.5275 C   0  0  0  0  0  0
  -21.4047   -6.5630   23.8219 C   0  0  0  0  0  0
  -21.3656   -5.6787   24.9168 C   0  0  0  0  0  0
  -21.5987   -4.3045   24.7201 C   0  0  0  0  0  0
  -21.8855   -3.8153   23.4325 C   0  0  0  0  0  0
  -21.9213   -4.6981   22.3389 C   0  0  0  0  0  0
  -22.7838  -13.5220   21.1785 C   0  0  0  0  0  0
  -22.1691   -4.2184   21.0962 F   0  0  0  0  0  0
  -21.5592   -3.4524   25.7705 F   0  0  0  0  0  0
  -30.0076  -13.4561   20.4205 N   0  0  0  0  0  0
  -26.2998  -12.9326   20.3178 N   0  0  0  0  0  0
  -25.9305  -11.6476   20.5586 N   0  0  0  0  0  0
  -22.0471  -12.8259   22.0351 N   0  0  0  0  0  0
  -25.4096  -15.1851   20.4215 N   0  0  0  0  0  0
  -31.7399  -14.9011   20.1498 O   0  0  0  0  0  0
  -21.6656   -6.8887   21.4226 O   0  0  0  0  0  0
  -22.3485  -14.5507   20.6629 O   0  0  0  0  0  0
  -24.6269  -31.8578   23.2030 C   0  0  0  0  0  0
  -25.9111  -32.4799   23.8360 C   0  0  1  0  0  0
  -27.2433  -27.3072   20.1393 C   0  0  0  0  0  0
  -25.5882  -33.8562   24.2262 N   0  0  0  0  0  0
  -23.4182  -30.4800   21.5392 C   0  0  2  0  0  0
  -24.8757  -28.9302   20.1124 C   0  0  0  0  0  0
  -22.7457  -29.4622   22.4903 C   0  0  0  0  0  0
  -18.0279  -28.1396   22.8508 C   0  0  0  0  0  0
  -24.1452  -36.7253   23.2649 C   0  0  0  0  0  0
  -25.9601  -30.7837   21.3781 C   0  0  0  0  0  0
  -26.0411  -29.4092   20.7275 C   0  0  0  0  0  0
  -27.2199  -28.6052   20.7387 C   0  0  0  0  0  0
  -26.0601  -26.8900   19.4860 C   0  0  0  0  0  0
  -24.8901  -27.6739   19.4877 C   0  0  0  0  0  0
  -23.6401  -29.8050   20.1585 C   0  0  0  0  0  0
  -25.4088  -36.3068   24.0344 C   0  0  1  0  0  0
  -20.5894  -28.3691   23.1290 C   0  0  2  0  0  0
  -20.6778  -26.9400   22.5425 C   0  0  0  0  0  0
  -19.5741  -26.6402   21.5224 C   0  0  0  0  0  0
  -18.1926  -26.7938   22.1646 C   0  0  0  0  0  0
  -19.1548  -28.8843   23.2906 C   0  0  0  0  0  0
  -18.9484  -30.1459   23.8926 C   0  0  0  0  0  0
  -17.6498  -30.6607   24.0561 C   0  0  0  0  0  0
  -25.9038  -34.9452   23.5112 C   0  0  0  0  0  0
  -16.5380  -29.9130   23.6326 C   0  0  0  0  0  0
  -16.7276  -28.6528   23.0368 C   0  0  0  0  0  0
  -26.4486  -31.6614   25.0728 C   0  0  0  0  0  0
  -25.3722  -31.3762   26.1480 C   0  0  0  0  0  0
  -27.0356  -30.3054   24.6207 C   0  0  0  0  0  0
  -27.6057  -32.4343   25.7469 C   0  0  0  0  0  0
  -27.5565  -37.1766   24.8469 C   0  0  0  0  0  0
  -21.4156  -29.3064   22.3668 N   0  0  0  0  0  0
  -26.4248  -37.3796   23.9454 N   0  0  0  0  0  0
  -24.6867  -31.0598   22.0967 N   0  0  0  0  0  0
  -23.4176  -28.8189   23.3001 O   0  0  0  0  0  0
  -28.3770  -26.4688   20.2223 O   0  0  0  0  0  0
  -26.5633  -34.8928   22.4703 O   0  0  0  0  0  0
  -23.5431  -32.1372   23.7388 O   0  0  0  0  0  0
  -28.4317  -19.2711   20.2514 C   0  0  0  0  0  0
  -30.8299  -18.0521   20.8050 C   0  0  0  0  0  0
  -29.7196  -17.1866   20.6292 C   0  0  0  0  0  0
  -28.5032  -17.8569   20.3555 C   0  0  0  0  0  0
  -29.5903  -20.0518   20.4326 C   0  0  0  0  0  0
  -29.0064  -22.1398   22.5630 C   0  0  0  0  0  0
  -28.5700  -24.8149   18.4566 C   0  0  0  0  0  0
  -29.2227  -24.0247   20.8035 C   0  0  0  0  0  0
  -28.8520  -22.4666   21.0518 C   0  0  1  0  0  0
  -28.2789  -25.0058   19.9582 C   0  0  1  0  0  0
  -30.7662  -19.4260   20.7107 N   0  0  0  0  0  0
  -29.6902  -15.7246   20.7792 N   0  0  0  0  0  0
  -29.6096  -21.4711   20.2243 N   0  0  0  0  0  0
  -27.3820  -17.1244   20.1621 F   0  0  0  0  0  0
  -31.5031  -12.5922   19.1579 H   0  0  0  0  0  0
  -30.4162  -11.4473   19.8931 H   0  0  0  0  0  0
  -29.8113  -11.7896   17.4736 H   0  0  0  0  0  0
  -29.6525  -13.5030   17.7302 H   0  0  0  0  0  0
  -27.8871  -11.2896   18.8550 H   0  0  0  0  0  0
  -27.3939  -12.5708   17.7735 H   0  0  0  0  0  0
  -27.6613  -14.2495   19.4879 H   0  0  0  0  0  0
  -28.7181  -12.0641   21.3683 H   0  0  0  0  0  0
  -28.4265  -13.7107   21.8291 H   0  0  0  0  0  0
  -25.2786   -9.5740   22.4688 H   0  0  0  0  0  0
  -24.0048   -7.4641   22.7466 H   0  0  0  0  0  0
  -21.0794   -8.8743   19.8936 H   0  0  0  0  0  0
  -22.3658  -10.9651   19.6104 H   0  0  0  0  0  0
  -21.2101   -7.6163   23.9741 H   0  0  0  0  0  0
  -21.1390   -6.0497   25.9067 H   0  0  0  0  0  0
  -22.0628   -2.7630   23.2793 H   0  0  0  0  0  0
  -22.4099  -12.0033   22.4907 H   0  0  0  0  0  0
  -21.1085  -13.1264   22.2490 H   0  0  0  0  0  0
  -24.6307  -15.8170   20.5741 H   0  0  0  0  0  0
  -26.2502  -15.6758   20.1334 H   0  0  0  0  0  0
  -26.7162  -32.5480   23.1084 H   0  0  0  0  0  0
  -24.9927  -33.9645   25.0347 H   0  0  0  0  0  0
  -22.7138  -31.3001   21.3895 H   0  0  0  0  0  0
  -23.3748  -35.9549   23.3293 H   0  0  0  0  0  0
  -24.3556  -36.8911   22.2072 H   0  0  0  0  0  0
  -23.7160  -37.6427   23.6689 H   0  0  0  0  0  0
  -26.0911  -31.5383   20.6035 H   0  0  0  0  0  0
  -26.8428  -30.8428   22.0030 H   0  0  0  0  0  0
  -28.1051  -28.9553   21.2493 H   0  0  0  0  0  0
  -26.0152  -25.9392   18.9755 H   0  0  0  0  0  0
  -23.9966  -27.2958   19.0060 H   0  0  0  0  0  0
  -23.7497  -30.5721   19.3911 H   0  0  0  0  0  0
  -22.7638  -29.2219   19.8651 H   0  0  0  0  0  0
  -25.1257  -36.1895   25.0832 H   0  0  0  0  0  0
  -20.9990  -28.3296   24.1418 H   0  0  0  0  0  0
  -20.5691  -26.2271   23.3632 H   0  0  0  0  0  0
  -21.6648  -26.7442   22.1226 H   0  0  0  0  0  0
  -19.6899  -25.6322   21.1250 H   0  0  0  0  0  0
  -19.6701  -27.3215   20.6759 H   0  0  0  0  0  0
  -17.4188  -26.6676   21.4068 H   0  0  0  0  0  0
  -18.0343  -26.0085   22.9044 H   0  0  0  0  0  0
  -19.7962  -30.7243   24.2330 H   0  0  0  0  0  0
  -17.5065  -31.6306   24.5141 H   0  0  0  0  0  0
  -15.5393  -30.3061   23.7624 H   0  0  0  0  0  0
  -15.8664  -28.0863   22.7098 H   0  0  0  0  0  0
  -24.5839  -30.7177   25.7809 H   0  0  0  0  0  0
  -24.8975  -32.2939   26.4956 H   0  0  0  0  0  0
  -25.8063  -30.8886   27.0219 H   0  0  0  0  0  0
  -26.2958  -29.6789   24.1230 H   0  0  0  0  0  0
  -27.4055  -29.7343   25.4726 H   0  0  0  0  0  0
  -27.8803  -30.4358   23.9446 H   0  0  0  0  0  0
  -27.2684  -33.3631   26.2070 H   0  0  0  0  0  0
  -28.3841  -32.6947   25.0277 H   0  0  0  0  0  0
  -28.0751  -31.8456   26.5361 H   0  0  0  0  0  0
  -28.2575  -38.0071   24.7584 H   0  0  0  0  0  0
  -28.1049  -36.2623   24.6182 H   0  0  0  0  0  0
  -27.2287  -37.1291   25.8865 H   0  0  0  0  0  0
  -20.9317  -29.8712   21.6850 H   0  0  0  0  0  0
  -26.0115  -38.2843   24.1569 H   0  0  0  0  0  0
  -27.4835  -19.7293   20.0195 H   0  0  0  0  0  0
  -31.7962  -17.6415   21.0541 H   0  0  0  0  0  0
  -28.3441  -22.7519   23.1765 H   0  0  0  0  0  0
  -30.0256  -22.3226   22.9164 H   0  0  0  0  0  0
  -28.7586  -21.1045   22.8083 H   0  0  0  0  0  0
  -28.3612  -23.7964   18.1329 H   0  0  0  0  0  0
  -29.6211  -25.0148   18.2390 H   0  0  0  0  0  0
  -27.9785  -25.4781   17.8280 H   0  0  0  0  0  0
  -30.2450  -24.0930   20.4263 H   0  0  0  0  0  0
  -29.2804  -24.4941   21.7866 H   0  0  0  0  0  0
  -27.7931  -22.3372   20.8133 H   0  0  0  0  0  0
  -27.2653  -24.6793   20.1888 H   0  0  0  0  0  0
  -28.7592  -15.3735   20.9580 H   0  0  0  0  0  0
  -29.3635  -21.6443   19.2517 H   0  0  0  0  0  0
  1 25  1  0  0  0
  1 30  2  0  0  0
  1 82  1  0  0  0
  2  3  1  0  0  0
  2 25  1  0  0  0
  2 85  1  0  0  0
  2 86  1  0  0  0
  3  4  1  0  0  0
  3 87  1  0  0  0
  3 88  1  0  0  0
  4  5  1  0  0  0
  4 89  1  0  0  0
  4 90  1  0  0  0
  5  6  1  0  0  0
  5 26  1  0  0  0
  5 91  1  0  0  0
  6 25  1  0  0  0
  6 92  1  0  0  0
  6 93  1  0  0  0
  7  8  2  0  0  0
  7 26  1  0  0  0
  7 29  1  0  0  0
  8  9  1  0  0  0
  8 22  1  0  0  0
  9 10  1  0  0  0
  9 27  2  0  0  0
 10 11  2  0  0  0
 10 15  1  0  0  0
 11 12  1  0  0  0
 11 94  1  0  0  0
 12 13  2  0  0  0
 12 95  1  0  0  0
 13 14  1  0  0  0
 13 31  1  0  0  0
 14 15  2  0  0  0
 14 96  1  0  0  0
 15 97  1  0  0  0
 16 17  2  0  0  0
 16 21  1  0  0  0
 16 31  1  0  0  0
 17 18  1  0  0  0
 17 98  1  0  0  0
 18 19  2  0  0  0
 18 99  1  0  0  0
 19 20  1  0  0  0
 19 24  1  0  0  0
 20 21  2  0  0  0
 20100  1  0  0  0
 21 23  1  0  0  0
 22 28  1  0  0  0
 22 32  2  0  0  0
 26 27  1  0  0  0
 28101  1  0  0  0
 28102  1  0  0  0
 29103  1  0  0  0
 29104  1  0  0  0
 33 34  1  0  0  0
 33 66  1  0  0  0
 33 70  2  0  0  0
 34 36  1  0  0  0
 34 59  1  0  0  0
 34105  1  0  0  0
 35 44  2  0  0  0
 35 45  1  0  0  0
 35 68  1  0  0  0
 36 56  1  0  0  0
 36106  1  0  0  0
 37 39  1  0  0  0
 37 47  1  0  0  0
 37 66  1  0  0  0
 37107  1  0  0  0
 38 43  2  0  0  0
 38 46  1  0  0  0
 38 47  1  0  0  0
 39 64  1  0  0  0
 39 67  2  0  0  0
 40 52  1  0  0  0
 40 53  2  0  0  0
 40 58  1  0  0  0
 41108  1  0  0  0
 41109  1  0  0  0
 41110  1  0  0  0
 41 48  1  0  0  0
 42 43  1  0  0  0
 42 66  1  0  0  0
 42111  1  0  0  0
 42112  1  0  0  0
 43 44  1  0  0  0
 44113  1  0  0  0
 45 46  2  0  0  0
 45114  1  0  0  0
 46115  1  0  0  0
 47116  1  0  0  0
 47117  1  0  0  0
 48 56  1  0  0  0
 48 65  1  0  0  0
 48118  1  0  0  0
 49 50  1  0  0  0
 49 53  1  0  0  0
 49 64  1  0  0  0
 49119  1  0  0  0
 50 51  1  0  0  0
 50120  1  0  0  0
 50121  1  0  0  0
 51 52  1  0  0  0
 51122  1  0  0  0
 51123  1  0  0  0
 52124  1  0  0  0
 52125  1  0  0  0
 53 54  1  0  0  0
 54 55  2  0  0  0
 54126  1  0  0  0
 55 57  1  0  0  0
 55127  1  0  0  0
 56 69  2  0  0  0
 57 58  2  0  0  0
 57128  1  0  0  0
 58129  1  0  0  0
 59 60  1  0  0  0
 59 61  1  0  0  0
 59 62  1  0  0  0
 60130  1  0  0  0
 60131  1  0  0  0
 60132  1  0  0  0
 61133  1  0  0  0
 61134  1  0  0  0
 61135  1  0  0  0
 62136  1  0  0  0
 62137  1  0  0  0
 62138  1  0  0  0
 63 65  1  0  0  0
 63139  1  0  0  0
 63140  1  0  0  0
 63141  1  0  0  0
 64142  1  0  0  0
 65143  1  0  0  0
 68 80  1  0  0  0
 71 74  2  0  0  0
 71 75  1  0  0  0
 71144  1  0  0  0
 72 73  2  0  0  0
 72 81  1  0  0  0
 72145  1  0  0  0
 73 74  1  0  0  0
 73 82  1  0  0  0
 74 84  1  0  0  0
 75 81  2  0  0  0
 75 83  1  0  0  0
 76146  1  0  0  0
 76147  1  0  0  0
 76148  1  0  0  0
 76 79  1  0  0  0
 77149  1  0  0  0
 77150  1  0  0  0
 77151  1  0  0  0
 77 80  1  0  0  0
 78 79  1  0  0  0
 78 80  1  0  0  0
 78152  1  0  0  0
 78153  1  0  0  0
 79 83  1  0  0  0
 79154  1  0  0  0
 80155  1  0  0  0
 82156  1  0  0  0
 83157  1  0  0  0
M  ISO  4   1 100  68 101  80 101  82 100
M  END
> <chiral flag>
0

> <version>
0

> <s_m_source_file>
/data/baiqing/PycharmProjects/Reinvent-master-3.2/result/LINK_invent/BTK/process_docking_weight1_custom_product_contain_oxygen_bond_distance_aromatic_linkinvent_7_9_3/rearranged_h_0189.sdf

> <i_m_source_file_index>
25

> <r_mmod_Potential_Energy-OPLS-2005>
-145.279663085938

> <r_mmod_Stretch_Energy-OPLS-2005>
89.3762283325195

> <r_mmod_Bend_Energy-OPLS-2005>
164.109710693359

> <r_mmod_Torsional_Energy-OPLS-2005>
258.011352539062

> <r_mmod_Improper_Torsional_Energy-OPLS-2005>
10.6009788513184

> <r_mmod_Van_der_Waal_Energy-OPLS-2005>
141.936782836914

> <r_mmod_Electrostatic_Energy-OPLS-2005>
-649.417907714844

> <r_mmod_Solvation_Energy-OPLS-2005>
-226.337051391602

> <b_mmod_Minimization_Converged-OPLS-2005>
0

> <r_mmod_RMS_Derivative-OPLS-2005>
6.97269630432129

$$$$
25
                    3D
 Structure written by MMmdl.
163171  0  0  1  0            999 V2000
  -30.6530  -14.5456   20.4881 C   0  0  0  0  0  0
  -30.4227  -12.3277   19.4490 C   0  0  0  0  0  0
  -29.5015  -12.4816   18.2200 C   0  0  0  0  0  0
  -28.0202  -12.3457   18.6250 C   0  0  0  0  0  0
  -27.6513  -13.2119   19.8605 C   0  0  2  0  0  0
  -28.6897  -13.0388   20.9921 C   0  0  0  0  0  0
  -25.2545  -13.8185   20.5671 C   0  0  0  0  0  0
  -24.1806  -13.0440   20.9176 C   0  0  0  0  0  0
  -24.6375  -11.6916   20.8733 C   0  0  0  0  0  0
  -23.9055  -10.4292   21.0412 C   0  0  0  0  0  0
  -24.3609   -9.4209   21.9195 C   0  0  0  0  0  0
  -23.6291   -8.2241   22.0771 C   0  0  0  0  0  0
  -22.4277   -8.0274   21.3545 C   0  0  0  0  0  0
  -21.9906   -9.0246   20.4650 C   0  0  0  0  0  0
  -22.7230  -10.2130   20.3055 C   0  0  0  0  0  0
  -21.6848   -6.0727   22.5282 C   0  0  0  0  0  0
  -21.4014   -6.5643   23.8211 C   0  0  0  0  0  0
  -21.3650   -5.6804   24.9181 C   0  0  0  0  0  0
  -21.6035   -4.3063   24.7237 C   0  0  0  0  0  0
  -21.8821   -3.8140   23.4366 C   0  0  0  0  0  0
  -21.9200   -4.6952   22.3417 C   0  0  0  0  0  0
  -22.7828  -13.5233   21.1843 C   0  0  0  0  0  0
  -22.1670   -4.2137   21.0999 F   0  0  0  0  0  0
  -21.5606   -3.4553   25.7752 F   0  0  0  0  0  0
  -30.0142  -13.3428   20.4352 N   0  0  0  0  0  0
  -26.2958  -12.9352   20.3275 N   0  0  0  0  0  0
  -25.9296  -11.6510   20.5740 N   0  0  0  0  0  0
  -22.0471  -12.8209   22.0400 N   0  0  0  0  0  0
  -25.4273  -15.1904   20.4113 N   0  0  0  0  0  0
  -31.8428  -14.6530   20.1738 O   0  0  0  0  0  0
  -21.6631   -6.8878   21.4249 O   0  0  0  0  0  0
  -22.3514  -14.5544   20.6710 O   0  0  0  0  0  0
  -24.6182  -31.8665   23.2089 C   0  0  0  0  0  0
  -25.9063  -32.4809   23.8382 C   0  0  1  0  0  0
  -27.2214  -27.3845   20.1089 C   0  0  0  0  0  0
  -25.5916  -33.8611   24.2319 N   0  0  0  0  0  0
  -23.4054  -30.4925   21.5498 C   0  0  2  0  0  0
  -24.8490  -28.9531   20.1154 C   0  0  0  0  0  0
  -22.7427  -29.4662   22.4974 C   0  0  0  0  0  0
  -18.0279  -28.1388   22.8499 C   0  0  0  0  0  0
  -24.1489  -36.7298   23.2640 C   0  0  0  0  0  0
  -25.9401  -30.8166   21.3690 C   0  0  0  0  0  0
  -26.0118  -29.4480   20.7160 C   0  0  0  0  0  0
  -27.1974  -28.6716   20.7067 C   0  0  0  0  0  0
  -26.0294  -26.9111   19.5109 C   0  0  0  0  0  0
  -24.8547  -27.6861   19.5115 C   0  0  0  0  0  0
  -23.6153  -29.8273   20.1639 C   0  0  0  0  0  0
  -25.4111  -36.3103   24.0337 C   0  0  1  0  0  0
  -20.5876  -28.3674   23.1324 C   0  0  2  0  0  0
  -20.6773  -26.9408   22.5425 C   0  0  0  0  0  0
  -19.5746  -26.6393   21.5224 C   0  0  0  0  0  0
  -18.1924  -26.7933   22.1632 C   0  0  0  0  0  0
  -19.1530  -28.8848   23.2907 C   0  0  0  0  0  0
  -18.9453  -30.1456   23.8912 C   0  0  0  0  0  0
  -17.6452  -30.6594   24.0566 C   0  0  0  0  0  0
  -25.9045  -34.9469   23.5127 C   0  0  0  0  0  0
  -16.5341  -29.9099   23.6325 C   0  0  0  0  0  0
  -16.7265  -28.6515   23.0346 C   0  0  0  0  0  0
  -26.4486  -31.6586   25.0715 C   0  0  0  0  0  0
  -25.3737  -31.3680   26.1449 C   0  0  0  0  0  0
  -27.0331  -30.3026   24.6106 C   0  0  0  0  0  0
  -27.6066  -32.4302   25.7480 C   0  0  0  0  0  0
  -27.5584  -37.1806   24.8467 C   0  0  0  0  0  0
  -21.4150  -29.3040   22.3725 N   0  0  0  0  0  0
  -26.4294  -37.3793   23.9416 N   0  0  0  0  0  0
  -24.6729  -31.0740   22.1002 N   0  0  0  0  0  0
  -23.4196  -28.8213   23.3025 O   0  0  0  0  0  0
  -28.4067  -26.6612   20.1412 O   0  0  0  0  0  0
  -26.5599  -34.8926   22.4685 O   0  0  0  0  0  0
  -23.5369  -32.1445   23.7464 O   0  0  0  0  0  0
  -30.7309  -18.3386   18.2654 C   0  0  0  0  0  0
  -30.7055  -17.1127   18.9372 C   0  0  0  0  0  0
  -29.9520  -19.4024   18.7426 C   0  0  0  0  0  0
  -29.9368  -16.9455   20.1096 C   0  0  0  0  0  0
  -29.2091  -19.2166   19.9288 C   0  0  0  0  0  0
  -29.9262  -20.6778   17.9183 C   0  0  0  0  0  0
  -29.6751  -24.5500   21.8137 C   0  0  0  0  0  0
  -30.2023  -21.2454   21.7742 C   0  0  0  0  0  0
  -28.7765  -22.7555   20.1781 C   0  0  0  0  0  0
  -28.5052  -25.2878   19.6805 C   0  0  0  0  0  0
  -28.5758  -24.1900   20.7994 C   0  0  2  0  0  0
  -28.8359  -21.4699   21.0954 C   0  0  1  0  0  0
  -29.2109  -18.0127   20.5812 N   0  0  0  0  0  0
  -29.8628  -15.6328   20.7188 N   0  0  0  0  0  0
  -28.3565  -20.2295   20.4309 N   0  0  0  0  0  0
  -31.4675  -12.4271   19.1493 H   0  0  0  0  0  0
  -30.3296  -11.3298   19.8797 H   0  0  0  0  0  0
  -29.7526  -11.7301   17.4701 H   0  0  0  0  0  0
  -29.6668  -13.4507   17.7481 H   0  0  0  0  0  0
  -27.8385  -11.2932   18.8447 H   0  0  0  0  0  0
  -27.3747  -12.5927   17.7820 H   0  0  0  0  0  0
  -27.6798  -14.2513   19.5315 H   0  0  0  0  0  0
  -28.6733  -12.0116   21.3608 H   0  0  0  0  0  0
  -28.4532  -13.6681   21.8506 H   0  0  0  0  0  0
  -25.2764   -9.5686   22.4748 H   0  0  0  0  0  0
  -23.9990   -7.4643   22.7499 H   0  0  0  0  0  0
  -21.0826   -8.8778   19.8964 H   0  0  0  0  0  0
  -22.3697  -10.9669   19.6148 H   0  0  0  0  0  0
  -21.2019   -7.6157   23.9715 H   0  0  0  0  0  0
  -21.1458   -6.0537   25.9084 H   0  0  0  0  0  0
  -22.0609   -2.7599   23.2878 H   0  0  0  0  0  0
  -22.4111  -11.9868   22.4752 H   0  0  0  0  0  0
  -21.1091  -13.1220   22.2635 H   0  0  0  0  0  0
  -24.6629  -15.8477   20.5267 H   0  0  0  0  0  0
  -26.2796  -15.6321   20.0903 H   0  0  0  0  0  0
  -26.7121  -32.5518   23.1132 H   0  0  0  0  0  0
  -25.0055  -33.9756   25.0456 H   0  0  0  0  0  0
  -22.6944  -31.3105   21.4117 H   0  0  0  0  0  0
  -23.3757  -35.9625   23.3311 H   0  0  0  0  0  0
  -24.3565  -36.8909   22.2048 H   0  0  0  0  0  0
  -23.7240  -37.6505   23.6646 H   0  0  0  0  0  0
  -26.0574  -31.5797   20.5986 H   0  0  0  0  0  0
  -26.8276  -30.8696   21.9879 H   0  0  0  0  0  0
  -28.0948  -29.0457   21.1790 H   0  0  0  0  0  0
  -25.9578  -25.9417   19.0466 H   0  0  0  0  0  0
  -23.9562  -27.2987   19.0511 H   0  0  0  0  0  0
  -23.7284  -30.6031   19.4066 H   0  0  0  0  0  0
  -22.7360  -29.2528   19.8657 H   0  0  0  0  0  0
  -25.1286  -36.1964   25.0838 H   0  0  0  0  0  0
  -20.9954  -28.3238   24.1449 H   0  0  0  0  0  0
  -20.5689  -26.2271   23.3605 H   0  0  0  0  0  0
  -21.6639  -26.7461   22.1211 H   0  0  0  0  0  0
  -19.6902  -25.6312   21.1239 H   0  0  0  0  0  0
  -19.6692  -27.3215   20.6763 H   0  0  0  0  0  0
  -17.4200  -26.6700   21.4029 H   0  0  0  0  0  0
  -18.0304  -26.0070   22.9021 H   0  0  0  0  0  0
  -19.7923  -30.7276   24.2282 H   0  0  0  0  0  0
  -17.5005  -31.6272   24.5177 H   0  0  0  0  0  0
  -15.5339  -30.3005   23.7646 H   0  0  0  0  0  0
  -15.8666  -28.0844   22.7043 H   0  0  0  0  0  0
  -24.5929  -30.7015   25.7760 H   0  0  0  0  0  0
  -24.8901  -32.2830   26.4879 H   0  0  0  0  0  0
  -25.8083  -30.8851   27.0210 H   0  0  0  0  0  0
  -26.2886  -29.6770   24.1167 H   0  0  0  0  0  0
  -27.4111  -29.7279   25.4574 H   0  0  0  0  0  0
  -27.8717  -30.4344   23.9263 H   0  0  0  0  0  0
  -27.2696  -33.3605   26.2059 H   0  0  0  0  0  0
  -28.3871  -32.6847   25.0296 H   0  0  0  0  0  0
  -28.0728  -31.8411   26.5387 H   0  0  0  0  0  0
  -28.2605  -38.0101   24.7520 H   0  0  0  0  0  0
  -28.1086  -36.2637   24.6299 H   0  0  0  0  0  0
  -27.2297  -37.1456   25.8868 H   0  0  0  0  0  0
  -20.9303  -29.8752   21.6945 H   0  0  0  0  0  0
  -26.0189  -38.2877   24.1407 H   0  0  0  0  0  0
  -31.3174  -18.4410   17.3638 H   0  0  0  0  0  0
  -31.2683  -16.3040   18.4977 H   0  0  0  0  0  0
  -30.1190  -20.4587   16.8690 H   0  0  0  0  0  0
  -30.7007  -21.3667   18.2522 H   0  0  0  0  0  0
  -28.9544  -21.1667   17.9573 H   0  0  0  0  0  0
  -29.5517  -23.9887   22.7386 H   0  0  0  0  0  0
  -29.6365  -25.6040   22.0880 H   0  0  0  0  0  0
  -30.6700  -24.3487   21.4133 H   0  0  0  0  0  0
  -30.4831  -22.0558   22.4406 H   0  0  0  0  0  0
  -31.0004  -21.1349   21.0411 H   0  0  0  0  0  0
  -30.1838  -20.3432   22.3871 H   0  0  0  0  0  0
  -29.6806  -22.7947   19.5754 H   0  0  0  0  0  0
  -27.9588  -22.6265   19.4667 H   0  0  0  0  0  0
  -27.7555  -25.0165   18.9424 H   0  0  0  0  0  0
  -29.4366  -25.2440   19.1165 H   0  0  0  0  0  0
  -27.6225  -24.2014   21.3293 H   0  0  0  0  0  0
  -28.1124  -21.6320   21.8960 H   0  0  0  0  0  0
  -28.9881  -15.4282   21.1732 H   0  0  0  0  0  0
  -27.5983  -20.4310   19.7880 H   0  0  0  0  0  0
  1 25  1  0  0  0
  1 30  2  0  0  0
  1 84  1  0  0  0
  2  3  1  0  0  0
  2 25  1  0  0  0
  2 86  1  0  0  0
  2 87  1  0  0  0
  3  4  1  0  0  0
  3 88  1  0  0  0
  3 89  1  0  0  0
  4  5  1  0  0  0
  4 90  1  0  0  0
  4 91  1  0  0  0
  5  6  1  0  0  0
  5 26  1  0  0  0
  5 92  1  0  0  0
  6 25  1  0  0  0
  6 93  1  0  0  0
  6 94  1  0  0  0
  7  8  2  0  0  0
  7 26  1  0  0  0
  7 29  1  0  0  0
  8  9  1  0  0  0
  8 22  1  0  0  0
  9 10  1  0  0  0
  9 27  2  0  0  0
 10 11  2  0  0  0
 10 15  1  0  0  0
 11 12  1  0  0  0
 11 95  1  0  0  0
 12 13  2  0  0  0
 12 96  1  0  0  0
 13 14  1  0  0  0
 13 31  1  0  0  0
 14 15  2  0  0  0
 14 97  1  0  0  0
 15 98  1  0  0  0
 16 17  2  0  0  0
 16 21  1  0  0  0
 16 31  1  0  0  0
 17 18  1  0  0  0
 17 99  1  0  0  0
 18 19  2  0  0  0
 18100  1  0  0  0
 19 20  1  0  0  0
 19 24  1  0  0  0
 20 21  2  0  0  0
 20101  1  0  0  0
 21 23  1  0  0  0
 22 28  1  0  0  0
 22 32  2  0  0  0
 26 27  1  0  0  0
 28102  1  0  0  0
 28103  1  0  0  0
 29104  1  0  0  0
 29105  1  0  0  0
 33 34  1  0  0  0
 33 66  1  0  0  0
 33 70  2  0  0  0
 34 36  1  0  0  0
 34 59  1  0  0  0
 34106  1  0  0  0
 35 44  2  0  0  0
 35 45  1  0  0  0
 35 68  1  0  0  0
 36 56  1  0  0  0
 36107  1  0  0  0
 37 39  1  0  0  0
 37 47  1  0  0  0
 37 66  1  0  0  0
 37108  1  0  0  0
 38 43  2  0  0  0
 38 46  1  0  0  0
 38 47  1  0  0  0
 39 64  1  0  0  0
 39 67  2  0  0  0
 40 52  1  0  0  0
 40 53  2  0  0  0
 40 58  1  0  0  0
 41109  1  0  0  0
 41110  1  0  0  0
 41111  1  0  0  0
 41 48  1  0  0  0
 42 43  1  0  0  0
 42 66  1  0  0  0
 42112  1  0  0  0
 42113  1  0  0  0
 43 44  1  0  0  0
 44114  1  0  0  0
 45 46  2  0  0  0
 45115  1  0  0  0
 46116  1  0  0  0
 47117  1  0  0  0
 47118  1  0  0  0
 48 56  1  0  0  0
 48 65  1  0  0  0
 48119  1  0  0  0
 49 50  1  0  0  0
 49 53  1  0  0  0
 49 64  1  0  0  0
 49120  1  0  0  0
 50 51  1  0  0  0
 50121  1  0  0  0
 50122  1  0  0  0
 51 52  1  0  0  0
 51123  1  0  0  0
 51124  1  0  0  0
 52125  1  0  0  0
 52126  1  0  0  0
 53 54  1  0  0  0
 54 55  2  0  0  0
 54127  1  0  0  0
 55 57  1  0  0  0
 55128  1  0  0  0
 56 69  2  0  0  0
 57 58  2  0  0  0
 57129  1  0  0  0
 58130  1  0  0  0
 59 60  1  0  0  0
 59 61  1  0  0  0
 59 62  1  0  0  0
 60131  1  0  0  0
 60132  1  0  0  0
 60133  1  0  0  0
 61134  1  0  0  0
 61135  1  0  0  0
 61136  1  0  0  0
 62137  1  0  0  0
 62138  1  0  0  0
 62139  1  0  0  0
 63 65  1  0  0  0
 63140  1  0  0  0
 63141  1  0  0  0
 63142  1  0  0  0
 64143  1  0  0  0
 65144  1  0  0  0
 68 80  1  0  0  0
 71 72  2  0  0  0
 71 73  1  0  0  0
 71145  1  0  0  0
 72 74  1  0  0  0
 72146  1  0  0  0
 73 75  2  0  0  0
 73 76  1  0  0  0
 74 83  2  0  0  0
 74 84  1  0  0  0
 75 83  1  0  0  0
 75 85  1  0  0  0
 76147  1  0  0  0
 76148  1  0  0  0
 76149  1  0  0  0
 77150  1  0  0  0
 77151  1  0  0  0
 77152  1  0  0  0
 77 81  1  0  0  0
 78153  1  0  0  0
 78154  1  0  0  0
 78155  1  0  0  0
 78 82  1  0  0  0
 79 81  1  0  0  0
 79 82  1  0  0  0
 79156  1  0  0  0
 79157  1  0  0  0
 80 81  1  0  0  0
 80158  1  0  0  0
 80159  1  0  0  0
 81160  1  0  0  0
 82 85  1  0  0  0
 82161  1  0  0  0
 84162  1  0  0  0
 85163  1  0  0  0
M  ISO  4   1 100  68 101  80 101  84 100
M  END
> <chiral flag>
0

> <version>
0

> <s_m_source_file>
/data/baiqing/PycharmProjects/Reinvent-master-3.2/result/LINK_invent/BTK/process_docking_weight1_custom_product_contain_oxygen_bond_distance_aromatic_linkinvent_7_9_3/rearranged_h_0189.sdf

> <i_m_source_file_index>
26

> <r_mmod_Potential_Energy-OPLS-2005>
-153.771026611328

> <r_mmod_Stretch_Energy-OPLS-2005>
54.9515571594238

> <r_mmod_Bend_Energy-OPLS-2005>
140.365112304688

> <r_mmod_Torsional_Energy-OPLS-2005>
263.569793701172

> <r_mmod_Improper_Torsional_Energy-OPLS-2005>
9.39362049102783

> <r_mmod_Van_der_Waal_Energy-OPLS-2005>
159.928558349609

> <r_mmod_Electrostatic_Energy-OPLS-2005>
-582.778747558594

> <r_mmod_Solvation_Energy-OPLS-2005>
-225.25732421875

> <b_mmod_Minimization_Converged-OPLS-2005>
0

> <r_mmod_RMS_Derivative-OPLS-2005>
2.24170017242432

$$$$
26
                    3D
 Structure written by MMmdl.
165173  0  0  1  0            999 V2000
  -30.7886  -14.2585   20.7608 C   0  0  0  0  0  0
  -30.4186  -12.2508   19.3740 C   0  0  0  0  0  0
  -29.4815  -12.5390   18.1865 C   0  0  0  0  0  0
  -28.0067  -12.3885   18.6001 C   0  0  0  0  0  0
  -27.6756  -13.1885   19.8852 C   0  0  2  0  0  0
  -28.7065  -12.8741   20.9932 C   0  0  0  0  0  0
  -25.2650  -13.8148   20.5649 C   0  0  0  0  0  0
  -24.1855  -13.0442   20.9128 C   0  0  0  0  0  0
  -24.6369  -11.6904   20.8688 C   0  0  0  0  0  0
  -23.9011  -10.4293   21.0372 C   0  0  0  0  0  0
  -24.3552   -9.4227   21.9164 C   0  0  0  0  0  0
  -23.6235   -8.2262   22.0743 C   0  0  0  0  0  0
  -22.4226   -8.0273   21.3534 C   0  0  0  0  0  0
  -21.9856   -9.0240   20.4638 C   0  0  0  0  0  0
  -22.7174  -10.2128   20.3044 C   0  0  0  0  0  0
  -21.6838   -6.0712   22.5253 C   0  0  0  0  0  0
  -21.4024   -6.5625   23.8192 C   0  0  0  0  0  0
  -21.3659   -5.6784   24.9165 C   0  0  0  0  0  0
  -21.6041   -4.3038   24.7212 C   0  0  0  0  0  0
  -21.8818   -3.8121   23.4328 C   0  0  0  0  0  0
  -21.9190   -4.6942   22.3385 C   0  0  0  0  0  0
  -22.7881  -13.5273   21.1795 C   0  0  0  0  0  0
  -22.1657   -4.2134   21.0961 F   0  0  0  0  0  0
  -21.5624   -3.4517   25.7723 F   0  0  0  0  0  0
  -30.0710  -13.1434   20.4858 N   0  0  0  0  0  0
  -26.3068  -12.9271   20.3350 N   0  0  0  0  0  0
  -25.9285  -11.6444   20.5685 N   0  0  0  0  0  0
  -22.0497  -12.8301   22.0377 N   0  0  0  0  0  0
  -25.4434  -15.1846   20.4092 N   0  0  0  0  0  0
  -31.6996  -14.7011   20.0509 O   0  0  0  0  0  0
  -21.6612   -6.8849   21.4213 O   0  0  0  0  0  0
  -22.3584  -14.5564   20.6621 O   0  0  0  0  0  0
  -24.6104  -31.8733   23.2170 C   0  0  0  0  0  0
  -25.9035  -32.4845   23.8426 C   0  0  1  0  0  0
  -27.2204  -27.4860   20.0688 C   0  0  0  0  0  0
  -25.5899  -33.8641   24.2360 N   0  0  0  0  0  0
  -23.3906  -30.5021   21.5606 C   0  0  2  0  0  0
  -24.8283  -28.9831   20.1115 C   0  0  0  0  0  0
  -22.7379  -29.4696   22.5050 C   0  0  0  0  0  0
  -18.0285  -28.1347   22.8463 C   0  0  0  0  0  0
  -24.1487  -36.7316   23.2643 C   0  0  0  0  0  0
  -25.9178  -30.8512   21.3665 C   0  0  0  0  0  0
  -25.9886  -29.4946   20.7046 C   0  0  0  0  0  0
  -27.1842  -28.7511   20.6854 C   0  0  0  0  0  0
  -26.0351  -26.9778   19.4787 C   0  0  0  0  0  0
  -24.8447  -27.7214   19.4994 C   0  0  0  0  0  0
  -23.5876  -29.8418   20.1725 C   0  0  0  0  0  0
  -25.4106  -36.3133   24.0355 C   0  0  1  0  0  0
  -20.5851  -28.3672   23.1356 C   0  0  2  0  0  0
  -20.6820  -26.9431   22.5417 C   0  0  0  0  0  0
  -19.5831  -26.6440   21.5184 C   0  0  0  0  0  0
  -18.1973  -26.7938   22.1525 C   0  0  0  0  0  0
  -19.1508  -28.8830   23.2886 C   0  0  0  0  0  0
  -18.9407  -30.1448   23.8870 C   0  0  0  0  0  0
  -17.6411  -30.6584   24.0514 C   0  0  0  0  0  0
  -25.9021  -34.9488   23.5151 C   0  0  0  0  0  0
  -16.5322  -29.9040   23.6288 C   0  0  0  0  0  0
  -16.7273  -28.6454   23.0313 C   0  0  0  0  0  0
  -26.4473  -31.6604   25.0730 C   0  0  0  0  0  0
  -25.3757  -31.3694   26.1489 C   0  0  0  0  0  0
  -27.0299  -30.3053   24.6092 C   0  0  0  0  0  0
  -27.6080  -32.4317   25.7469 C   0  0  0  0  0  0
  -27.5586  -37.1817   24.8472 C   0  0  0  0  0  0
  -21.4114  -29.3053   22.3794 N   0  0  0  0  0  0
  -26.4303  -37.3807   23.9408 N   0  0  0  0  0  0
  -24.6579  -31.0884   22.1057 N   0  0  0  0  0  0
  -23.4193  -28.8217   23.3039 O   0  0  0  0  0  0
  -28.4163  -26.8035   20.0945 O   0  0  0  0  0  0
  -26.5579  -34.8936   22.4706 O   0  0  0  0  0  0
  -23.5310  -32.1468   23.7588 O   0  0  0  0  0  0
  -27.0875  -18.2934   22.8851 C   0  0  0  0  0  0
  -28.2796  -17.8208   22.3860 C   0  0  0  0  0  0
  -27.5896  -19.9698   21.4501 C   0  0  0  0  0  0
  -26.6365  -22.1927   20.8998 C   0  0  0  0  0  0
  -26.1974  -17.6213   23.8842 C   0  0  0  0  0  0
  -27.2952  -25.0802   21.9901 C   0  0  0  0  0  0
  -29.2671  -23.7185   21.2886 C   0  0  0  0  0  0
  -28.8954  -16.4935   22.6841 C   0  0  0  0  0  0
  -27.0012  -23.4285   20.0808 C   0  0  0  0  0  0
  -30.3125  -16.2420   22.1244 C   0  0  0  0  0  0
  -28.4429  -25.4467   19.6745 C   0  0  0  0  0  0
  -27.9883  -24.4218   20.7663 C   0  0  0  0  0  0
  -26.7059  -19.5239   22.3480 N   0  0  0  0  0  0
  -27.4751  -21.1665   20.7286 N   0  0  0  0  0  0
  -30.4688  -14.8112   21.9320 N   0  0  0  0  0  0
  -25.6318  -22.1873   21.6174 O   0  0  0  0  0  0
  -28.9740  -18.9329   21.2325 S   0  0  0  0  0  0
  -31.4632  -12.3538   19.0774 H   0  0  0  0  0  0
  -30.3047  -11.2126   19.6913 H   0  0  0  0  0  0
  -29.7044  -11.8645   17.3587 H   0  0  0  0  0  0
  -29.6573  -13.5502   17.8174 H   0  0  0  0  0  0
  -27.8112  -11.3269   18.7590 H   0  0  0  0  0  0
  -27.3517  -12.7016   17.7859 H   0  0  0  0  0  0
  -27.7552  -14.2487   19.6450 H   0  0  0  0  0  0
  -28.6408  -11.8203   21.2709 H   0  0  0  0  0  0
  -28.4427  -13.4196   21.8984 H   0  0  0  0  0  0
  -25.2686   -9.5703   22.4753 H   0  0  0  0  0  0
  -23.9939   -7.4662   22.7475 H   0  0  0  0  0  0
  -21.0777   -8.8725   19.8954 H   0  0  0  0  0  0
  -22.3592  -10.9656   19.6156 H   0  0  0  0  0  0
  -21.2042   -7.6140   23.9704 H   0  0  0  0  0  0
  -21.1485   -6.0505   25.9071 H   0  0  0  0  0  0
  -22.0608   -2.7583   23.2819 H   0  0  0  0  0  0
  -22.4043  -11.9940   22.4772 H   0  0  0  0  0  0
  -21.1135  -13.1387   22.2590 H   0  0  0  0  0  0
  -24.6831  -15.8453   20.5239 H   0  0  0  0  0  0
  -26.2962  -15.6182   20.0759 H   0  0  0  0  0  0
  -26.7113  -32.5566   23.1202 H   0  0  0  0  0  0
  -25.0079  -33.9801   25.0530 H   0  0  0  0  0  0
  -22.6783  -31.3201   21.4346 H   0  0  0  0  0  0
  -23.3745  -35.9649   23.3319 H   0  0  0  0  0  0
  -24.3604  -36.8897   22.2054 H   0  0  0  0  0  0
  -23.7224  -37.6532   23.6621 H   0  0  0  0  0  0
  -26.0320  -31.6236   20.6060 H   0  0  0  0  0  0
  -26.8059  -30.8934   21.9838 H   0  0  0  0  0  0
  -28.0801  -29.1410   21.1494 H   0  0  0  0  0  0
  -25.9872  -26.0125   19.0023 H   0  0  0  0  0  0
  -23.9497  -27.3225   19.0446 H   0  0  0  0  0  0
  -23.6805  -30.6200   19.4153 H   0  0  0  0  0  0
  -22.7113  -29.2561   19.8871 H   0  0  0  0  0  0
  -25.1276  -36.2027   25.0849 H   0  0  0  0  0  0
  -20.9897  -28.3258   24.1502 H   0  0  0  0  0  0
  -20.5773  -26.2244   23.3565 H   0  0  0  0  0  0
  -21.6691  -26.7609   22.1145 H   0  0  0  0  0  0
  -19.7030  -25.6378   21.1145 H   0  0  0  0  0  0
  -19.6790  -27.3354   20.6780 H   0  0  0  0  0  0
  -17.4338  -26.6813   21.3811 H   0  0  0  0  0  0
  -18.0262  -26.0003   22.8806 H   0  0  0  0  0  0
  -19.7875  -30.7294   24.2217 H   0  0  0  0  0  0
  -17.4949  -31.6289   24.5095 H   0  0  0  0  0  0
  -15.5311  -30.2940   23.7562 H   0  0  0  0  0  0
  -15.8702  -28.0750   22.7005 H   0  0  0  0  0  0
  -24.5923  -30.7058   25.7815 H   0  0  0  0  0  0
  -24.8945  -32.2834   26.4982 H   0  0  0  0  0  0
  -25.8117  -30.8827   27.0218 H   0  0  0  0  0  0
  -26.2835  -29.6832   24.1142 H   0  0  0  0  0  0
  -27.4073  -29.7290   25.4548 H   0  0  0  0  0  0
  -27.8668  -30.4383   23.9232 H   0  0  0  0  0  0
  -27.2727  -33.3599   26.2113 H   0  0  0  0  0  0
  -28.3835  -32.6910   25.0247 H   0  0  0  0  0  0
  -28.0813  -31.8402   26.5318 H   0  0  0  0  0  0
  -28.2623  -38.0097   24.7512 H   0  0  0  0  0  0
  -28.1059  -36.2632   24.6299 H   0  0  0  0  0  0
  -27.2306  -37.1480   25.8878 H   0  0  0  0  0  0
  -20.9259  -29.8756   21.7024 H   0  0  0  0  0  0
  -26.0203  -38.2895   24.1391 H   0  0  0  0  0  0
  -25.9877  -16.5918   23.5963 H   0  0  0  0  0  0
  -25.2408  -18.1350   23.9907 H   0  0  0  0  0  0
  -26.6624  -17.6001   24.8692 H   0  0  0  0  0  0
  -27.1149  -24.3617   22.7905 H   0  0  0  0  0  0
  -26.3215  -25.4940   21.7321 H   0  0  0  0  0  0
  -27.8964  -25.8821   22.4222 H   0  0  0  0  0  0
  -29.0612  -23.0335   22.1125 H   0  0  0  0  0  0
  -29.9917  -24.4445   21.6622 H   0  0  0  0  0  0
  -29.7596  -23.1446   20.5036 H   0  0  0  0  0  0
  -28.2082  -15.7439   22.2889 H   0  0  0  0  0  0
  -28.9038  -16.3368   23.7635 H   0  0  0  0  0  0
  -26.0728  -23.9359   19.8216 H   0  0  0  0  0  0
  -27.4139  -23.0898   19.1288 H   0  0  0  0  0  0
  -31.0873  -16.6452   22.7782 H   0  0  0  0  0  0
  -30.4355  -16.7193   21.1533 H   0  0  0  0  0  0
  -27.9303  -25.3196   18.7208 H   0  0  0  0  0  0
  -29.4795  -25.2541   19.3964 H   0  0  0  0  0  0
  -28.2171  -21.3250   20.0611 H   0  0  0  0  0  0
  -29.8949  -14.2284   22.5232 H   0  0  0  0  0  0
  1 25  1  0  0  0
  1 30  2  0  0  0
  1 85  1  0  0  0
  2  3  1  0  0  0
  2 25  1  0  0  0
  2 88  1  0  0  0
  2 89  1  0  0  0
  3  4  1  0  0  0
  3 90  1  0  0  0
  3 91  1  0  0  0
  4  5  1  0  0  0
  4 92  1  0  0  0
  4 93  1  0  0  0
  5  6  1  0  0  0
  5 26  1  0  0  0
  5 94  1  0  0  0
  6 25  1  0  0  0
  6 95  1  0  0  0
  6 96  1  0  0  0
  7  8  2  0  0  0
  7 26  1  0  0  0
  7 29  1  0  0  0
  8  9  1  0  0  0
  8 22  1  0  0  0
  9 10  1  0  0  0
  9 27  2  0  0  0
 10 11  2  0  0  0
 10 15  1  0  0  0
 11 12  1  0  0  0
 11 97  1  0  0  0
 12 13  2  0  0  0
 12 98  1  0  0  0
 13 14  1  0  0  0
 13 31  1  0  0  0
 14 15  2  0  0  0
 14 99  1  0  0  0
 15100  1  0  0  0
 16 17  2  0  0  0
 16 21  1  0  0  0
 16 31  1  0  0  0
 17 18  1  0  0  0
 17101  1  0  0  0
 18 19  2  0  0  0
 18102  1  0  0  0
 19 20  1  0  0  0
 19 24  1  0  0  0
 20 21  2  0  0  0
 20103  1  0  0  0
 21 23  1  0  0  0
 22 28  1  0  0  0
 22 32  2  0  0  0
 26 27  1  0  0  0
 28104  1  0  0  0
 28105  1  0  0  0
 29106  1  0  0  0
 29107  1  0  0  0
 33 34  1  0  0  0
 33 66  1  0  0  0
 33 70  2  0  0  0
 34 36  1  0  0  0
 34 59  1  0  0  0
 34108  1  0  0  0
 35 44  2  0  0  0
 35 45  1  0  0  0
 35 68  1  0  0  0
 36 56  1  0  0  0
 36109  1  0  0  0
 37 39  1  0  0  0
 37 47  1  0  0  0
 37 66  1  0  0  0
 37110  1  0  0  0
 38 43  2  0  0  0
 38 46  1  0  0  0
 38 47  1  0  0  0
 39 64  1  0  0  0
 39 67  2  0  0  0
 40 52  1  0  0  0
 40 53  2  0  0  0
 40 58  1  0  0  0
 41111  1  0  0  0
 41112  1  0  0  0
 41113  1  0  0  0
 41 48  1  0  0  0
 42 43  1  0  0  0
 42 66  1  0  0  0
 42114  1  0  0  0
 42115  1  0  0  0
 43 44  1  0  0  0
 44116  1  0  0  0
 45 46  2  0  0  0
 45117  1  0  0  0
 46118  1  0  0  0
 47119  1  0  0  0
 47120  1  0  0  0
 48 56  1  0  0  0
 48 65  1  0  0  0
 48121  1  0  0  0
 49 50  1  0  0  0
 49 53  1  0  0  0
 49 64  1  0  0  0
 49122  1  0  0  0
 50 51  1  0  0  0
 50123  1  0  0  0
 50124  1  0  0  0
 51 52  1  0  0  0
 51125  1  0  0  0
 51126  1  0  0  0
 52127  1  0  0  0
 52128  1  0  0  0
 53 54  1  0  0  0
 54 55  2  0  0  0
 54129  1  0  0  0
 55 57  1  0  0  0
 55130  1  0  0  0
 56 69  2  0  0  0
 57 58  2  0  0  0
 57131  1  0  0  0
 58132  1  0  0  0
 59 60  1  0  0  0
 59 61  1  0  0  0
 59 62  1  0  0  0
 60133  1  0  0  0
 60134  1  0  0  0
 60135  1  0  0  0
 61136  1  0  0  0
 61137  1  0  0  0
 61138  1  0  0  0
 62139  1  0  0  0
 62140  1  0  0  0
 62141  1  0  0  0
 63 65  1  0  0  0
 63142  1  0  0  0
 63143  1  0  0  0
 63144  1  0  0  0
 64145  1  0  0  0
 65146  1  0  0  0
 68 81  1  0  0  0
 71 72  2  0  0  0
 71 75  1  0  0  0
 71 83  1  0  0  0
 72 78  1  0  0  0
 72 87  1  0  0  0
 73 83  2  0  0  0
 73 84  1  0  0  0
 73 87  1  0  0  0
 74 79  1  0  0  0
 74 84  1  0  0  0
 74 86  2  0  0  0
 75147  1  0  0  0
 75148  1  0  0  0
 75149  1  0  0  0
 76150  1  0  0  0
 76151  1  0  0  0
 76152  1  0  0  0
 76 82  1  0  0  0
 77 82  1  0  0  0
 77153  1  0  0  0
 77154  1  0  0  0
 77155  1  0  0  0
 78 80  1  0  0  0
 78156  1  0  0  0
 78157  1  0  0  0
 79 82  1  0  0  0
 79158  1  0  0  0
 79159  1  0  0  0
 80 85  1  0  0  0
 80160  1  0  0  0
 80161  1  0  0  0
 81 82  1  0  0  0
 81162  1  0  0  0
 81163  1  0  0  0
 84164  1  0  0  0
 85165  1  0  0  0
M  ISO  4   1 100  68 101  81 101  85 100
M  END
> <chiral flag>
0

> <version>
0

> <s_m_source_file>
/data/baiqing/PycharmProjects/Reinvent-master-3.2/result/LINK_invent/BTK/process_docking_weight1_custom_product_contain_oxygen_bond_distance_aromatic_linkinvent_7_9_3/rearranged_h_0189.sdf

> <i_m_source_file_index>
27

> <r_mmod_Potential_Energy-OPLS-2005>
-149.647003173828

> <r_mmod_Stretch_Energy-OPLS-2005>
32.8713226318359

> <r_mmod_Bend_Energy-OPLS-2005>
116.847152709961

> <r_mmod_Torsional_Energy-OPLS-2005>
215.912307739258

> <r_mmod_Improper_Torsional_Energy-OPLS-2005>
4.7900447845459

> <r_mmod_Van_der_Waal_Energy-OPLS-2005>
146.157760620117

> <r_mmod_Electrostatic_Energy-OPLS-2005>
-430.504089355469

> <r_mmod_Solvation_Energy-OPLS-2005>
-248.186935424805

> <b_mmod_Minimization_Converged-OPLS-2005>
0

> <r_mmod_RMS_Derivative-OPLS-2005>
3.23761439323425

$$$$
27
                    3D
 Structure written by MMmdl.
163171  0  0  1  0            999 V2000
  -30.6675  -14.5486   20.5423 C   0  0  0  0  0  0
  -30.4458  -12.3394   19.4492 C   0  0  0  0  0  0
  -29.5188  -12.4953   18.2250 C   0  0  0  0  0  0
  -28.0392  -12.3426   18.6308 C   0  0  0  0  0  0
  -27.6672  -13.2071   19.8681 C   0  0  2  0  0  0
  -28.7080  -13.0163   20.9948 C   0  0  0  0  0  0
  -25.2624  -13.8142   20.5686 C   0  0  0  0  0  0
  -24.1860  -13.0426   20.9170 C   0  0  0  0  0  0
  -24.6412  -11.6902   20.8730 C   0  0  0  0  0  0
  -23.9053  -10.4296   21.0415 C   0  0  0  0  0  0
  -24.3603   -9.4194   21.9166 C   0  0  0  0  0  0
  -23.6303   -8.2219   22.0715 C   0  0  0  0  0  0
  -22.4274   -8.0257   21.3511 C   0  0  0  0  0  0
  -21.9913   -9.0235   20.4620 C   0  0  0  0  0  0
  -22.7233  -10.2122   20.3041 C   0  0  0  0  0  0
  -21.6846   -6.0747   22.5279 C   0  0  0  0  0  0
  -21.4034   -6.5637   23.8221 C   0  0  0  0  0  0
  -21.3661   -5.6772   24.9167 C   0  0  0  0  0  0
  -21.6042   -4.3052   24.7207 C   0  0  0  0  0  0
  -21.8829   -3.8140   23.4338 C   0  0  0  0  0  0
  -21.9194   -4.6979   22.3396 C   0  0  0  0  0  0
  -22.7876  -13.5246   21.1805 C   0  0  0  0  0  0
  -22.1660   -4.2161   21.0974 F   0  0  0  0  0  0
  -21.5593   -3.4534   25.7719 F   0  0  0  0  0  0
  -30.0390  -13.3385   20.4505 N   0  0  0  0  0  0
  -26.3066  -12.9337   20.3320 N   0  0  0  0  0  0
  -25.9336  -11.6495   20.5706 N   0  0  0  0  0  0
  -22.0493  -12.8280   22.0382 N   0  0  0  0  0  0
  -25.4294  -15.1856   20.4133 N   0  0  0  0  0  0
  -31.7939  -14.7353   20.0672 O   0  0  0  0  0  0
  -21.6608   -6.8887   21.4236 O   0  0  0  0  0  0
  -22.3568  -14.5552   20.6605 O   0  0  0  0  0  0
  -24.6169  -31.8695   23.2086 C   0  0  0  0  0  0
  -25.9059  -32.4826   23.8365 C   0  0  1  0  0  0
  -27.2108  -27.3979   20.1346 C   0  0  0  0  0  0
  -25.5903  -33.8604   24.2284 N   0  0  0  0  0  0
  -23.3993  -30.4997   21.5534 C   0  0  2  0  0  0
  -24.8418  -28.9565   20.1151 C   0  0  0  0  0  0
  -22.7385  -29.4718   22.5004 C   0  0  0  0  0  0
  -18.0284  -28.1403   22.8484 C   0  0  0  0  0  0
  -24.1483  -36.7334   23.2641 C   0  0  0  0  0  0
  -25.9299  -30.8225   21.3621 C   0  0  0  0  0  0
  -26.0016  -29.4486   20.7268 C   0  0  0  0  0  0
  -27.1874  -28.6748   20.7473 C   0  0  0  0  0  0
  -26.0482  -26.9388   19.4844 C   0  0  0  0  0  0
  -24.8610  -27.6953   19.4890 C   0  0  0  0  0  0
  -23.6059  -29.8327   20.1667 C   0  0  0  0  0  0
  -25.4106  -36.3103   24.0326 C   0  0  1  0  0  0
  -20.5859  -28.3701   23.1296 C   0  0  2  0  0  0
  -20.6766  -26.9436   22.5418 C   0  0  0  0  0  0
  -19.5759  -26.6401   21.5204 C   0  0  0  0  0  0
  -18.1930  -26.7946   22.1603 C   0  0  0  0  0  0
  -19.1529  -28.8866   23.2883 C   0  0  0  0  0  0
  -18.9463  -30.1452   23.8921 C   0  0  0  0  0  0
  -17.6473  -30.6606   24.0569 C   0  0  0  0  0  0
  -25.9048  -34.9489   23.5111 C   0  0  0  0  0  0
  -16.5355  -29.9115   23.6328 C   0  0  0  0  0  0
  -16.7269  -28.6520   23.0354 C   0  0  0  0  0  0
  -26.4468  -31.6598   25.0694 C   0  0  0  0  0  0
  -25.3734  -31.3708   26.1448 C   0  0  0  0  0  0
  -27.0276  -30.3043   24.6047 C   0  0  0  0  0  0
  -27.6043  -32.4327   25.7445 C   0  0  0  0  0  0
  -27.5575  -37.1820   24.8461 C   0  0  0  0  0  0
  -21.4130  -29.3046   22.3675 N   0  0  0  0  0  0
  -26.4284  -37.3798   23.9413 N   0  0  0  0  0  0
  -24.6686  -31.0796   22.0993 N   0  0  0  0  0  0
  -23.4161  -28.8285   23.3064 O   0  0  0  0  0  0
  -28.3050  -26.5518   20.1324 O   0  0  0  0  0  0
  -26.5636  -34.8929   22.4680 O   0  0  0  0  0  0
  -23.5374  -32.1467   23.7500 O   0  0  0  0  0  0
  -29.9419  -19.1444   21.7986 C   0  0  0  0  0  0
  -29.7069  -18.8876   19.4215 C   0  0  0  0  0  0
  -29.7526  -19.7664   20.5373 C   0  0  0  0  0  0
  -29.8371  -17.4828   19.6114 C   0  0  0  0  0  0
  -30.0149  -16.9583   20.9176 C   0  0  0  0  0  0
  -29.4683  -19.4494   18.0260 C   0  0  0  0  0  0
  -30.0843  -24.0051   19.4336 C   0  0  0  0  0  0
  -31.2413  -22.2705   21.8175 C   0  0  0  0  0  0
  -29.3674  -24.8345   21.7669 C   0  0  0  0  0  0
  -28.9565  -26.3114   21.3925 C   0  0  0  0  0  0
  -29.3211  -23.6569   20.7310 C   0  0  2  0  0  0
  -29.7782  -22.2529   21.3173 C   0  0  1  0  0  0
  -30.0536  -17.8010   21.9837 N   0  0  0  0  0  0
  -29.5758  -21.1679   20.3363 N   0  0  0  0  0  0
  -29.9559  -15.5379   21.1307 N   0  0  0  0  0  0
  -29.7294  -16.6424   18.5491 F   0  0  0  0  0  0
  -31.4931  -12.4497   19.1553 H   0  0  0  0  0  0
  -30.3616  -11.3349   19.8715 H   0  0  0  0  0  0
  -29.7795  -11.7546   17.4686 H   0  0  0  0  0  0
  -29.6736  -13.4737   17.7660 H   0  0  0  0  0  0
  -27.8695  -11.2895   18.8565 H   0  0  0  0  0  0
  -27.3887  -12.5752   17.7883 H   0  0  0  0  0  0
  -27.7078  -14.2485   19.5434 H   0  0  0  0  0  0
  -28.6982  -11.9826   21.3446 H   0  0  0  0  0  0
  -28.4541  -13.6175   21.8683 H   0  0  0  0  0  0
  -25.2760   -9.5681   22.4722 H   0  0  0  0  0  0
  -24.0007   -7.4630   22.7440 H   0  0  0  0  0  0
  -21.0810   -8.8792   19.8961 H   0  0  0  0  0  0
  -22.3700  -10.9650   19.6136 H   0  0  0  0  0  0
  -21.2055   -7.6159   23.9756 H   0  0  0  0  0  0
  -21.1451   -6.0474   25.9067 H   0  0  0  0  0  0
  -22.0609   -2.7610   23.2811 H   0  0  0  0  0  0
  -22.4090  -11.9996   22.4900 H   0  0  0  0  0  0
  -21.1087  -13.1289   22.2496 H   0  0  0  0  0  0
  -24.6565  -15.8311   20.5261 H   0  0  0  0  0  0
  -26.2669  -15.6323   20.0597 H   0  0  0  0  0  0
  -26.7121  -32.5515   23.1118 H   0  0  0  0  0  0
  -24.9933  -33.9721   25.0345 H   0  0  0  0  0  0
  -22.6899  -31.3205   21.4236 H   0  0  0  0  0  0
  -23.3708  -35.9704   23.3341 H   0  0  0  0  0  0
  -24.3566  -36.8925   22.2045 H   0  0  0  0  0  0
  -23.7283  -37.6563   23.6647 H   0  0  0  0  0  0
  -26.0328  -31.5709   20.5747 H   0  0  0  0  0  0
  -26.8223  -30.8893   21.9711 H   0  0  0  0  0  0
  -28.0715  -29.0496   21.2420 H   0  0  0  0  0  0
  -26.0515  -25.9734   18.9972 H   0  0  0  0  0  0
  -23.9705  -27.3109   19.0111 H   0  0  0  0  0  0
  -23.7149  -30.6124   19.4123 H   0  0  0  0  0  0
  -22.7191  -29.2688   19.8702 H   0  0  0  0  0  0
  -25.1289  -36.1955   25.0823 H   0  0  0  0  0  0
  -20.9968  -28.3306   24.1409 H   0  0  0  0  0  0
  -20.5667  -26.2332   23.3623 H   0  0  0  0  0  0
  -21.6644  -26.7486   22.1232 H   0  0  0  0  0  0
  -19.6928  -25.6307   21.1242 H   0  0  0  0  0  0
  -19.6703  -27.3198   20.6725 H   0  0  0  0  0  0
  -17.4209  -26.6705   21.3986 H   0  0  0  0  0  0
  -18.0330  -26.0080   22.8995 H   0  0  0  0  0  0
  -19.7941  -30.7238   24.2320 H   0  0  0  0  0  0
  -17.5042  -31.6294   24.5166 H   0  0  0  0  0  0
  -15.5357  -30.3037   23.7641 H   0  0  0  0  0  0
  -15.8659  -28.0843   22.7083 H   0  0  0  0  0  0
  -24.5884  -30.7087   25.7788 H   0  0  0  0  0  0
  -24.8933  -32.2853   26.4934 H   0  0  0  0  0  0
  -25.8070  -30.8842   27.0189 H   0  0  0  0  0  0
  -26.2784  -29.6825   24.1131 H   0  0  0  0  0  0
  -27.4086  -29.7264   25.4475 H   0  0  0  0  0  0
  -27.8610  -30.4371   23.9146 H   0  0  0  0  0  0
  -27.2658  -33.3608   26.2058 H   0  0  0  0  0  0
  -28.3804  -32.6938   25.0243 H   0  0  0  0  0  0
  -28.0771  -31.8450   26.5317 H   0  0  0  0  0  0
  -28.2626  -38.0083   24.7474 H   0  0  0  0  0  0
  -28.1035  -36.2623   24.6323 H   0  0  0  0  0  0
  -27.2297  -37.1524   25.8862 H   0  0  0  0  0  0
  -20.9326  -29.8690   21.6811 H   0  0  0  0  0  0
  -26.0174  -38.2878   24.1393 H   0  0  0  0  0  0
  -29.9635  -19.7336   22.7036 H   0  0  0  0  0  0
  -30.1942  -20.2264   17.7842 H   0  0  0  0  0  0
  -28.4701  -19.8822   17.9784 H   0  0  0  0  0  0
  -29.5302  -18.6849   17.2535 H   0  0  0  0  0  0
  -29.9103  -25.0334   19.1228 H   0  0  0  0  0  0
  -29.7787  -23.3656   18.6039 H   0  0  0  0  0  0
  -31.1615  -23.9038   19.5466 H   0  0  0  0  0  0
  -31.3637  -22.9483   22.6616 H   0  0  0  0  0  0
  -31.9424  -22.5800   21.0459 H   0  0  0  0  0  0
  -31.5813  -21.2997   22.1718 H   0  0  0  0  0  0
  -28.7561  -24.5364   22.6204 H   0  0  0  0  0  0
  -30.3727  -24.8973   22.1804 H   0  0  0  0  0  0
  -29.8494  -26.9393   21.3940 H   0  0  0  0  0  0
  -28.3455  -26.6852   22.2169 H   0  0  0  0  0  0
  -28.2644  -23.5654   20.4644 H   0  0  0  0  0  0
  -29.1460  -22.0373   22.1801 H   0  0  0  0  0  0
  -29.2656  -21.4727   19.4190 H   0  0  0  0  0  0
  -29.1508  -15.2260   21.6486 H   0  0  0  0  0  0
  1 25  1  0  0  0
  1 30  2  0  0  0
  1 85  1  0  0  0
  2  3  1  0  0  0
  2 25  1  0  0  0
  2 87  1  0  0  0
  2 88  1  0  0  0
  3  4  1  0  0  0
  3 89  1  0  0  0
  3 90  1  0  0  0
  4  5  1  0  0  0
  4 91  1  0  0  0
  4 92  1  0  0  0
  5  6  1  0  0  0
  5 26  1  0  0  0
  5 93  1  0  0  0
  6 25  1  0  0  0
  6 94  1  0  0  0
  6 95  1  0  0  0
  7  8  2  0  0  0
  7 26  1  0  0  0
  7 29  1  0  0  0
  8  9  1  0  0  0
  8 22  1  0  0  0
  9 10  1  0  0  0
  9 27  2  0  0  0
 10 11  2  0  0  0
 10 15  1  0  0  0
 11 12  1  0  0  0
 11 96  1  0  0  0
 12 13  2  0  0  0
 12 97  1  0  0  0
 13 14  1  0  0  0
 13 31  1  0  0  0
 14 15  2  0  0  0
 14 98  1  0  0  0
 15 99  1  0  0  0
 16 17  2  0  0  0
 16 21  1  0  0  0
 16 31  1  0  0  0
 17 18  1  0  0  0
 17100  1  0  0  0
 18 19  2  0  0  0
 18101  1  0  0  0
 19 20  1  0  0  0
 19 24  1  0  0  0
 20 21  2  0  0  0
 20102  1  0  0  0
 21 23  1  0  0  0
 22 28  1  0  0  0
 22 32  2  0  0  0
 26 27  1  0  0  0
 28103  1  0  0  0
 28104  1  0  0  0
 29105  1  0  0  0
 29106  1  0  0  0
 33 34  1  0  0  0
 33 66  1  0  0  0
 33 70  2  0  0  0
 34 36  1  0  0  0
 34 59  1  0  0  0
 34107  1  0  0  0
 35 44  2  0  0  0
 35 45  1  0  0  0
 35 68  1  0  0  0
 36 56  1  0  0  0
 36108  1  0  0  0
 37 39  1  0  0  0
 37 47  1  0  0  0
 37 66  1  0  0  0
 37109  1  0  0  0
 38 43  2  0  0  0
 38 46  1  0  0  0
 38 47  1  0  0  0
 39 64  1  0  0  0
 39 67  2  0  0  0
 40 52  1  0  0  0
 40 53  2  0  0  0
 40 58  1  0  0  0
 41110  1  0  0  0
 41111  1  0  0  0
 41112  1  0  0  0
 41 48  1  0  0  0
 42 43  1  0  0  0
 42 66  1  0  0  0
 42113  1  0  0  0
 42114  1  0  0  0
 43 44  1  0  0  0
 44115  1  0  0  0
 45 46  2  0  0  0
 45116  1  0  0  0
 46117  1  0  0  0
 47118  1  0  0  0
 47119  1  0  0  0
 48 56  1  0  0  0
 48 65  1  0  0  0
 48120  1  0  0  0
 49 50  1  0  0  0
 49 53  1  0  0  0
 49 64  1  0  0  0
 49121  1  0  0  0
 50 51  1  0  0  0
 50122  1  0  0  0
 50123  1  0  0  0
 51 52  1  0  0  0
 51124  1  0  0  0
 51125  1  0  0  0
 52126  1  0  0  0
 52127  1  0  0  0
 53 54  1  0  0  0
 54 55  2  0  0  0
 54128  1  0  0  0
 55 57  1  0  0  0
 55129  1  0  0  0
 56 69  2  0  0  0
 57 58  2  0  0  0
 57130  1  0  0  0
 58131  1  0  0  0
 59 60  1  0  0  0
 59 61  1  0  0  0
 59 62  1  0  0  0
 60132  1  0  0  0
 60133  1  0  0  0
 60134  1  0  0  0
 61135  1  0  0  0
 61136  1  0  0  0
 61137  1  0  0  0
 62138  1  0  0  0
 62139  1  0  0  0
 62140  1  0  0  0
 63 65  1  0  0  0
 63141  1  0  0  0
 63142  1  0  0  0
 63143  1  0  0  0
 64144  1  0  0  0
 65145  1  0  0  0
 68 80  1  0  0  0
 71 73  2  0  0  0
 71 83  1  0  0  0
 71146  1  0  0  0
 72 73  1  0  0  0
 72 74  2  0  0  0
 72 76  1  0  0  0
 73 84  1  0  0  0
 74 75  1  0  0  0
 74 86  1  0  0  0
 75 83  2  0  0  0
 75 85  1  0  0  0
 76147  1  0  0  0
 76148  1  0  0  0
 76149  1  0  0  0
 77150  1  0  0  0
 77151  1  0  0  0
 77152  1  0  0  0
 77 81  1  0  0  0
 78153  1  0  0  0
 78154  1  0  0  0
 78155  1  0  0  0
 78 82  1  0  0  0
 79 80  1  0  0  0
 79 81  1  0  0  0
 79156  1  0  0  0
 79157  1  0  0  0
 80158  1  0  0  0
 80159  1  0  0  0
 81 82  1  0  0  0
 81160  1  0  0  0
 82 84  1  0  0  0
 82161  1  0  0  0
 84162  1  0  0  0
 85163  1  0  0  0
M  ISO  4   1 100  68 101  80 101  85 100
M  END
> <chiral flag>
0

> <version>
0

> <s_m_source_file>
/data/baiqing/PycharmProjects/Reinvent-master-3.2/result/LINK_invent/BTK/process_docking_weight1_custom_product_contain_oxygen_bond_distance_aromatic_linkinvent_7_9_3/rearranged_h_0189.sdf

> <i_m_source_file_index>
28

> <r_mmod_Potential_Energy-OPLS-2005>
-72.118034362793

> <r_mmod_Stretch_Energy-OPLS-2005>
52.5573959350586

> <r_mmod_Bend_Energy-OPLS-2005>
142.312911987305

> <r_mmod_Torsional_Energy-OPLS-2005>
270.913635253906

> <r_mmod_Improper_Torsional_Energy-OPLS-2005>
3.93421483039856

> <r_mmod_Van_der_Waal_Energy-OPLS-2005>
152.828857421875

> <r_mmod_Electrostatic_Energy-OPLS-2005>
-508.52392578125

> <r_mmod_Solvation_Energy-OPLS-2005>
-211.409454345703

> <b_mmod_Minimization_Converged-OPLS-2005>
0

> <r_mmod_RMS_Derivative-OPLS-2005>
4.78079080581665

$$$$
28
                    3D
 Structure written by MMmdl.
174182  0  0  1  0            999 V2000
  -30.7131  -14.4193   20.7200 C   0  0  0  0  0  0
  -30.4228  -12.2983   19.4550 C   0  0  0  0  0  0
  -29.5220  -12.5484   18.2297 C   0  0  0  0  0  0
  -28.0306  -12.4115   18.6073 C   0  0  0  0  0  0
  -27.6692  -13.2042   19.8898 C   0  0  2  0  0  0
  -28.6886  -12.9361   21.0165 C   0  0  0  0  0  0
  -25.2566  -13.8134   20.5548 C   0  0  0  0  0  0
  -24.1848  -13.0434   20.9176 C   0  0  0  0  0  0
  -24.6402  -11.6921   20.8720 C   0  0  0  0  0  0
  -23.9076  -10.4314   21.0431 C   0  0  0  0  0  0
  -24.3647   -9.4233   21.9214 C   0  0  0  0  0  0
  -23.6333   -8.2249   22.0756 C   0  0  0  0  0  0
  -22.4317   -8.0285   21.3536 C   0  0  0  0  0  0
  -21.9941   -9.0263   20.4644 C   0  0  0  0  0  0
  -22.7251  -10.2156   20.3076 C   0  0  0  0  0  0
  -21.6863   -6.0768   22.5301 C   0  0  0  0  0  0
  -21.4011   -6.5655   23.8242 C   0  0  0  0  0  0
  -21.3664   -5.6802   24.9194 C   0  0  0  0  0  0
  -21.6037   -4.3065   24.7232 C   0  0  0  0  0  0
  -21.8815   -3.8158   23.4352 C   0  0  0  0  0  0
  -21.9176   -4.6981   22.3398 C   0  0  0  0  0  0
  -22.7849  -13.5230   21.1803 C   0  0  0  0  0  0
  -22.1659   -4.2174   21.0976 F   0  0  0  0  0  0
  -21.5639   -3.4546   25.7728 F   0  0  0  0  0  0
  -30.0323  -13.2628   20.4991 N   0  0  0  0  0  0
  -26.3041  -12.9301   20.3308 N   0  0  0  0  0  0
  -25.9321  -11.6471   20.5705 N   0  0  0  0  0  0
  -22.0445  -12.8300   22.0386 N   0  0  0  0  0  0
  -25.4143  -15.1827   20.3675 N   0  0  0  0  0  0
  -31.7782  -14.6865   20.1442 O   0  0  0  0  0  0
  -21.6634   -6.8909   21.4258 O   0  0  0  0  0  0
  -22.3525  -14.5488   20.6574 O   0  0  0  0  0  0
  -24.6130  -31.8687   23.2167 C   0  0  0  0  0  0
  -25.9054  -32.4806   23.8439 C   0  0  1  0  0  0
  -27.2422  -27.4698   20.1006 C   0  0  0  0  0  0
  -25.5942  -33.8606   24.2319 N   0  0  0  0  0  0
  -23.3932  -30.4979   21.5569 C   0  0  2  0  0  0
  -24.8410  -28.9684   20.1143 C   0  0  0  0  0  0
  -22.7383  -29.4687   22.5043 C   0  0  0  0  0  0
  -18.0294  -28.1392   22.8480 C   0  0  0  0  0  0
  -24.1489  -36.7284   23.2647 C   0  0  0  0  0  0
  -25.9222  -30.8503   21.3622 C   0  0  0  0  0  0
  -26.0007  -29.4919   20.6997 C   0  0  0  0  0  0
  -27.2031  -28.7527   20.6839 C   0  0  0  0  0  0
  -26.0792  -26.9777   19.4682 C   0  0  0  0  0  0
  -24.8726  -27.7049   19.4978 C   0  0  0  0  0  0
  -23.5964  -29.8273   20.1704 C   0  0  0  0  0  0
  -25.4095  -36.3053   24.0336 C   0  0  1  0  0  0
  -20.5882  -28.3637   23.1330 C   0  0  2  0  0  0
  -20.6764  -26.9382   22.5393 C   0  0  0  0  0  0
  -19.5732  -26.6373   21.5201 C   0  0  0  0  0  0
  -18.1914  -26.7941   22.1612 C   0  0  0  0  0  0
  -19.1532  -28.8835   23.2915 C   0  0  0  0  0  0
  -18.9482  -30.1475   23.8881 C   0  0  0  0  0  0
  -17.6470  -30.6611   24.0555 C   0  0  0  0  0  0
  -25.9055  -34.9452   23.5114 C   0  0  0  0  0  0
  -16.5363  -29.9080   23.6399 C   0  0  0  0  0  0
  -16.7273  -28.6521   23.0373 C   0  0  0  0  0  0
  -26.4478  -31.6623   25.0794 C   0  0  0  0  0  0
  -25.3800  -31.3756   26.1596 C   0  0  0  0  0  0
  -27.0330  -30.3061   24.6218 C   0  0  0  0  0  0
  -27.6008  -32.4367   25.7577 C   0  0  0  0  0  0
  -27.5569  -37.1756   24.8432 C   0  0  0  0  0  0
  -21.4111  -29.3028   22.3749 N   0  0  0  0  0  0
  -26.4226  -37.3774   23.9483 N   0  0  0  0  0  0
  -24.6614  -31.0835   22.1038 N   0  0  0  0  0  0
  -23.4183  -28.8290   23.3101 O   0  0  0  0  0  0
  -28.3895  -26.7109   20.2083 O   0  0  0  0  0  0
  -26.5578  -34.8894   22.4648 O   0  0  0  0  0  0
  -23.5334  -32.1434   23.7583 O   0  0  0  0  0  0
  -27.8350  -17.6305   20.5919 C   0  0  0  0  0  0
  -28.3849  -18.0544   21.7773 C   0  0  0  0  0  0
  -27.2459  -19.9288   21.1844 C   0  0  0  0  0  0
  -27.1759  -22.3387   21.8419 C   0  0  0  0  0  0
  -24.1384  -22.8099   20.4560 C   0  0  0  0  0  0
  -26.1832  -23.0515   18.9122 C   0  0  0  0  0  0
  -29.6873  -24.7892   20.7153 C   0  0  0  0  0  0
  -31.2461  -17.4913   21.2055 C   0  0  0  0  0  0
  -31.4336  -16.3276   23.4165 C   0  0  0  0  0  0
  -29.2094  -17.2430   22.7433 C   0  0  0  0  0  0
  -27.2709  -24.9378   21.6075 C   0  0  0  0  0  0
  -26.4061  -23.6349   21.4951 C   0  0  1  0  0  0
  -25.4834  -23.5433   20.2190 C   0  0  0  0  0  0
  -28.2554  -25.2943   20.4427 C   0  0  1  0  0  0
  -30.5058  -16.5622   22.2021 C   0  0  0  0  0  0
  -28.0557  -19.3791   22.0939 N   0  0  0  0  0  0
  -26.6868  -21.2144   21.2897 N   0  0  0  0  0  0
  -30.1251  -15.2510   21.6118 N   0  0  0  0  0  0
  -28.1445  -22.3736   22.6060 O   0  0  0  0  0  0
  -26.8496  -18.8589   19.8470 S   0  0  0  0  0  0
  -31.4793  -12.3850   19.1930 H   0  0  0  0  0  0
  -30.2938  -11.2761   19.8185 H   0  0  0  0  0  0
  -29.7838  -11.8573   17.4251 H   0  0  0  0  0  0
  -29.7140  -13.5545   17.8488 H   0  0  0  0  0  0
  -27.8121  -11.3547   18.7477 H   0  0  0  0  0  0
  -27.4060  -12.7447   17.7752 H   0  0  0  0  0  0
  -27.7352  -14.2619   19.6344 H   0  0  0  0  0  0
  -28.6595  -11.8865   21.3108 H   0  0  0  0  0  0
  -28.4064  -13.4826   21.9179 H   0  0  0  0  0  0
  -25.2829   -9.5699   22.4753 H   0  0  0  0  0  0
  -24.0050   -7.4630   22.7483 H   0  0  0  0  0  0
  -21.0860   -8.8829   19.8936 H   0  0  0  0  0  0
  -22.3776  -10.9710   19.6157 H   0  0  0  0  0  0
  -21.2047   -7.6165   23.9756 H   0  0  0  0  0  0
  -21.1475   -6.0521   25.9093 H   0  0  0  0  0  0
  -22.0584   -2.7617   23.2829 H   0  0  0  0  0  0
  -22.3971  -12.0019   22.4944 H   0  0  0  0  0  0
  -21.1028  -13.1341   22.2437 H   0  0  0  0  0  0
  -24.6150  -15.8070   20.4015 H   0  0  0  0  0  0
  -26.1899  -15.5715   19.8533 H   0  0  0  0  0  0
  -26.7137  -32.5519   23.1229 H   0  0  0  0  0  0
  -25.0142  -33.9763   25.0485 H   0  0  0  0  0  0
  -22.6802  -31.3174   21.4259 H   0  0  0  0  0  0
  -23.3730  -35.9628   23.3214 H   0  0  0  0  0  0
  -24.3666  -36.8955   22.2087 H   0  0  0  0  0  0
  -23.7209  -37.6456   23.6710 H   0  0  0  0  0  0
  -26.0471  -31.6301   20.6071 H   0  0  0  0  0  0
  -26.8078  -30.8915   21.9855 H   0  0  0  0  0  0
  -28.0945  -29.1570   21.1501 H   0  0  0  0  0  0
  -26.1047  -26.0275   18.9633 H   0  0  0  0  0  0
  -23.9872  -27.2857   19.0428 H   0  0  0  0  0  0
  -23.6801  -30.6079   19.4129 H   0  0  0  0  0  0
  -22.7210  -29.2421   19.8813 H   0  0  0  0  0  0
  -25.1242  -36.1874   25.0806 H   0  0  0  0  0  0
  -20.9998  -28.3187   24.1448 H   0  0  0  0  0  0
  -20.5688  -26.2242   23.3575 H   0  0  0  0  0  0
  -21.6644  -26.7442   22.1194 H   0  0  0  0  0  0
  -19.6880  -25.6287   21.1238 H   0  0  0  0  0  0
  -19.6690  -27.3182   20.6740 H   0  0  0  0  0  0
  -17.4199  -26.6740   21.4003 H   0  0  0  0  0  0
  -18.0308  -26.0080   22.9008 H   0  0  0  0  0  0
  -19.7970  -30.7320   24.2165 H   0  0  0  0  0  0
  -17.5058  -31.6308   24.5139 H   0  0  0  0  0  0
  -15.5369  -30.2970   23.7769 H   0  0  0  0  0  0
  -15.8685  -28.0856   22.7046 H   0  0  0  0  0  0
  -24.5887  -30.7163   25.8020 H   0  0  0  0  0  0
  -24.9153  -32.2948   26.5177 H   0  0  0  0  0  0
  -25.8242  -30.8866   27.0279 H   0  0  0  0  0  0
  -26.2927  -29.6836   24.1198 H   0  0  0  0  0  0
  -27.3979  -29.7287   25.4725 H   0  0  0  0  0  0
  -27.8797  -30.4340   23.9474 H   0  0  0  0  0  0
  -27.2538  -33.3594   26.2238 H   0  0  0  0  0  0
  -28.3812  -32.7045   25.0449 H   0  0  0  0  0  0
  -28.0718  -31.8500   26.5463 H   0  0  0  0  0  0
  -28.2438  -38.0195   24.7658 H   0  0  0  0  0  0
  -28.1171  -36.2726   24.5966 H   0  0  0  0  0  0
  -27.2362  -37.1072   25.8842 H   0  0  0  0  0  0
  -20.9267  -29.8656   21.6892 H   0  0  0  0  0  0
  -26.0044  -38.2775   24.1670 H   0  0  0  0  0  0
  -27.9348  -16.6567   20.1364 H   0  0  0  0  0  0
  -23.3706  -23.1989   19.7825 H   0  0  0  0  0  0
  -23.7577  -22.9753   21.4659 H   0  0  0  0  0  0
  -24.1874  -21.7323   20.2947 H   0  0  0  0  0  0
  -27.0766  -22.4493   19.0975 H   0  0  0  0  0  0
  -26.5019  -23.8795   18.2800 H   0  0  0  0  0  0
  -25.5336  -22.4272   18.2931 H   0  0  0  0  0  0
  -29.7441  -23.6990   20.7701 H   0  0  0  0  0  0
  -30.0850  -25.1820   21.6546 H   0  0  0  0  0  0
  -30.3668  -25.1033   19.9213 H   0  0  0  0  0  0
  -32.2708  -17.1585   21.0212 H   0  0  0  0  0  0
  -31.3164  -18.5029   21.6120 H   0  0  0  0  0  0
  -30.7332  -17.5676   20.2446 H   0  0  0  0  0  0
  -32.3161  -15.7433   23.1492 H   0  0  0  0  0  0
  -30.9285  -15.7847   24.2192 H   0  0  0  0  0  0
  -31.7735  -17.2771   23.8418 H   0  0  0  0  0  0
  -28.5721  -16.4970   23.2178 H   0  0  0  0  0  0
  -29.4894  -17.9176   23.5554 H   0  0  0  0  0  0
  -27.8217  -24.9557   22.5506 H   0  0  0  0  0  0
  -26.5557  -25.7409   21.7522 H   0  0  0  0  0  0
  -25.7191  -23.7386   22.3424 H   0  0  0  0  0  0
  -25.1371  -24.5562   20.0384 H   0  0  0  0  0  0
  -27.9278  -24.8417   19.5156 H   0  0  0  0  0  0
  -25.8816  -21.3683   20.7013 H   0  0  0  0  0  0
  -29.2603  -14.8803   21.9735 H   0  0  0  0  0  0
  1 25  1  0  0  0
  1 30  2  0  0  0
  1 88  1  0  0  0
  2  3  1  0  0  0
  2 25  1  0  0  0
  2 91  1  0  0  0
  2 92  1  0  0  0
  3  4  1  0  0  0
  3 93  1  0  0  0
  3 94  1  0  0  0
  4  5  1  0  0  0
  4 95  1  0  0  0
  4 96  1  0  0  0
  5  6  1  0  0  0
  5 26  1  0  0  0
  5 97  1  0  0  0
  6 25  1  0  0  0
  6 98  1  0  0  0
  6 99  1  0  0  0
  7  8  2  0  0  0
  7 26  1  0  0  0
  7 29  1  0  0  0
  8  9  1  0  0  0
  8 22  1  0  0  0
  9 10  1  0  0  0
  9 27  2  0  0  0
 10 11  2  0  0  0
 10 15  1  0  0  0
 11 12  1  0  0  0
 11100  1  0  0  0
 12 13  2  0  0  0
 12101  1  0  0  0
 13 14  1  0  0  0
 13 31  1  0  0  0
 14 15  2  0  0  0
 14102  1  0  0  0
 15103  1  0  0  0
 16 17  2  0  0  0
 16 21  1  0  0  0
 16 31  1  0  0  0
 17 18  1  0  0  0
 17104  1  0  0  0
 18 19  2  0  0  0
 18105  1  0  0  0
 19 20  1  0  0  0
 19 24  1  0  0  0
 20 21  2  0  0  0
 20106  1  0  0  0
 21 23  1  0  0  0
 22 28  1  0  0  0
 22 32  2  0  0  0
 26 27  1  0  0  0
 28107  1  0  0  0
 28108  1  0  0  0
 29109  1  0  0  0
 29110  1  0  0  0
 33 34  1  0  0  0
 33 66  1  0  0  0
 33 70  2  0  0  0
 34 36  1  0  0  0
 34 59  1  0  0  0
 34111  1  0  0  0
 35 44  2  0  0  0
 35 45  1  0  0  0
 35 68  1  0  0  0
 36 56  1  0  0  0
 36112  1  0  0  0
 37 39  1  0  0  0
 37 47  1  0  0  0
 37 66  1  0  0  0
 37113  1  0  0  0
 38 43  2  0  0  0
 38 46  1  0  0  0
 38 47  1  0  0  0
 39 64  1  0  0  0
 39 67  2  0  0  0
 40 52  1  0  0  0
 40 53  2  0  0  0
 40 58  1  0  0  0
 41114  1  0  0  0
 41115  1  0  0  0
 41116  1  0  0  0
 41 48  1  0  0  0
 42 43  1  0  0  0
 42 66  1  0  0  0
 42117  1  0  0  0
 42118  1  0  0  0
 43 44  1  0  0  0
 44119  1  0  0  0
 45 46  2  0  0  0
 45120  1  0  0  0
 46121  1  0  0  0
 47122  1  0  0  0
 47123  1  0  0  0
 48 56  1  0  0  0
 48 65  1  0  0  0
 48124  1  0  0  0
 49 50  1  0  0  0
 49 53  1  0  0  0
 49 64  1  0  0  0
 49125  1  0  0  0
 50 51  1  0  0  0
 50126  1  0  0  0
 50127  1  0  0  0
 51 52  1  0  0  0
 51128  1  0  0  0
 51129  1  0  0  0
 52130  1  0  0  0
 52131  1  0  0  0
 53 54  1  0  0  0
 54 55  2  0  0  0
 54132  1  0  0  0
 55 57  1  0  0  0
 55133  1  0  0  0
 56 69  2  0  0  0
 57 58  2  0  0  0
 57134  1  0  0  0
 58135  1  0  0  0
 59 60  1  0  0  0
 59 61  1  0  0  0
 59 62  1  0  0  0
 60136  1  0  0  0
 60137  1  0  0  0
 60138  1  0  0  0
 61139  1  0  0  0
 61140  1  0  0  0
 61141  1  0  0  0
 62142  1  0  0  0
 62143  1  0  0  0
 62144  1  0  0  0
 63 65  1  0  0  0
 63145  1  0  0  0
 63146  1  0  0  0
 63147  1  0  0  0
 64148  1  0  0  0
 65149  1  0  0  0
 68 84  1  0  0  0
 71 72  2  0  0  0
 71 90  1  0  0  0
 71150  1  0  0  0
 72 80  1  0  0  0
 72 86  1  0  0  0
 73 86  2  0  0  0
 73 87  1  0  0  0
 73 90  1  0  0  0
 74 82  1  0  0  0
 74 87  1  0  0  0
 74 89  2  0  0  0
 75151  1  0  0  0
 75152  1  0  0  0
 75153  1  0  0  0
 75 83  1  0  0  0
 76 83  1  0  0  0
 76154  1  0  0  0
 76155  1  0  0  0
 76156  1  0  0  0
 77157  1  0  0  0
 77158  1  0  0  0
 77159  1  0  0  0
 77 84  1  0  0  0
 78160  1  0  0  0
 78161  1  0  0  0
 78162  1  0  0  0
 78 85  1  0  0  0
 79 85  1  0  0  0
 79163  1  0  0  0
 79164  1  0  0  0
 79165  1  0  0  0
 80 85  1  0  0  0
 80166  1  0  0  0
 80167  1  0  0  0
 81 84  1  0  0  0
 81168  1  0  0  0
 81169  1  0  0  0
 81 82  1  0  0  0
 82 83  1  0  0  0
 82170  1  0  0  0
 83171  1  0  0  0
 84172  1  0  0  0
 85 88  1  0  0  0
 87173  1  0  0  0
 88174  1  0  0  0
M  ISO  4   1 100  68 101  84 101  88 100
M  END
> <chiral flag>
0

> <version>
0

> <s_m_source_file>
/data/baiqing/PycharmProjects/Reinvent-master-3.2/result/LINK_invent/BTK/process_docking_weight1_custom_product_contain_oxygen_bond_distance_aromatic_linkinvent_7_9_3/rearranged_h_0189.sdf

> <i_m_source_file_index>
29

> <r_mmod_Potential_Energy-OPLS-2005>
-37.9286994934082

> <r_mmod_Stretch_Energy-OPLS-2005>
45.6412086486816

> <r_mmod_Bend_Energy-OPLS-2005>
145.753616333008

> <r_mmod_Torsional_Energy-OPLS-2005>
228.085632324219

> <r_mmod_Improper_Torsional_Energy-OPLS-2005>
4.06256055831909

> <r_mmod_Van_der_Waal_Energy-OPLS-2005>
138.166793823242

> <r_mmod_Electrostatic_Energy-OPLS-2005>
-383.565093994141

> <r_mmod_Solvation_Energy-OPLS-2005>
-230.249206542969

> <b_mmod_Minimization_Converged-OPLS-2005>
0

> <r_mmod_RMS_Derivative-OPLS-2005>
7.82124423980713

$$$$
29
                    3D
 Structure written by MMmdl.
161169  0  0  1  0            999 V2000
  -30.7031  -14.4231   20.6731 C   0  0  0  0  0  0
  -30.4337  -12.3101   19.4068 C   0  0  0  0  0  0
  -29.4959  -12.5290   18.2008 C   0  0  0  0  0  0
  -28.0168  -12.3761   18.6114 C   0  0  0  0  0  0
  -27.6667  -13.1964   19.8801 C   0  0  2  0  0  0
  -28.7004  -12.9227   20.9930 C   0  0  0  0  0  0
  -25.2608  -13.8147   20.5674 C   0  0  0  0  0  0
  -24.1841  -13.0441   20.9169 C   0  0  0  0  0  0
  -24.6371  -11.6897   20.8716 C   0  0  0  0  0  0
  -23.9028  -10.4295   21.0398 C   0  0  0  0  0  0
  -24.3592   -9.4217   21.9178 C   0  0  0  0  0  0
  -23.6284   -8.2243   22.0743 C   0  0  0  0  0  0
  -22.4262   -8.0276   21.3537 C   0  0  0  0  0  0
  -21.9892   -9.0243   20.4633 C   0  0  0  0  0  0
  -22.7206  -10.2131   20.3047 C   0  0  0  0  0  0
  -21.6852   -6.0730   22.5280 C   0  0  0  0  0  0
  -21.4013   -6.5636   23.8214 C   0  0  0  0  0  0
  -21.3663   -5.6790   24.9177 C   0  0  0  0  0  0
  -21.6043   -4.3053   24.7229 C   0  0  0  0  0  0
  -21.8819   -3.8142   23.4352 C   0  0  0  0  0  0
  -21.9192   -4.6957   22.3406 C   0  0  0  0  0  0
  -22.7866  -13.5244   21.1853 C   0  0  0  0  0  0
  -22.1661   -4.2142   21.0984 F   0  0  0  0  0  0
  -21.5630   -3.4538   25.7745 F   0  0  0  0  0  0
  -30.0452  -13.2484   20.4706 N   0  0  0  0  0  0
  -26.3031  -12.9290   20.3353 N   0  0  0  0  0  0
  -25.9293  -11.6457   20.5728 N   0  0  0  0  0  0
  -22.0496  -12.8232   22.0400 N   0  0  0  0  0  0
  -25.4382  -15.1862   20.4116 N   0  0  0  0  0  0
  -31.7537  -14.7172   20.0888 O   0  0  0  0  0  0
  -21.6635   -6.8865   21.4235 O   0  0  0  0  0  0
  -22.3559  -14.5564   20.6717 O   0  0  0  0  0  0
  -24.6105  -31.8693   23.2119 C   0  0  0  0  0  0
  -25.9011  -32.4828   23.8411 C   0  0  1  0  0  0
  -27.2435  -27.4564   20.0970 C   0  0  0  0  0  0
  -25.5882  -33.8630   24.2337 N   0  0  0  0  0  0
  -23.3993  -30.4885   21.5512 C   0  0  2  0  0  0
  -24.8513  -28.9522   20.1232 C   0  0  0  0  0  0
  -22.7386  -29.4644   22.5009 C   0  0  0  0  0  0
  -18.0253  -28.1364   22.8486 C   0  0  0  0  0  0
  -24.1494  -36.7320   23.2642 C   0  0  0  0  0  0
  -25.9247  -30.8398   21.3650 C   0  0  0  0  0  0
  -26.0067  -29.4701   20.7234 C   0  0  0  0  0  0
  -27.2059  -28.7245   20.7192 C   0  0  0  0  0  0
  -26.0796  -26.9511   19.4870 C   0  0  0  0  0  0
  -24.8789  -27.6876   19.5081 C   0  0  0  0  0  0
  -23.6107  -29.8161   20.1681 C   0  0  0  0  0  0
  -25.4115  -36.3113   24.0333 C   0  0  1  0  0  0
  -20.5837  -28.3642   23.1327 C   0  0  2  0  0  0
  -20.6746  -26.9386   22.5417 C   0  0  0  0  0  0
  -19.5735  -26.6381   21.5199 C   0  0  0  0  0  0
  -18.1907  -26.7912   22.1613 C   0  0  0  0  0  0
  -19.1502  -28.8819   23.2897 C   0  0  0  0  0  0
  -18.9447  -30.1429   23.8903 C   0  0  0  0  0  0
  -17.6451  -30.6579   24.0558 C   0  0  0  0  0  0
  -25.9030  -34.9474   23.5128 C   0  0  0  0  0  0
  -16.5336  -29.9083   23.6326 C   0  0  0  0  0  0
  -16.7240  -28.6498   23.0345 C   0  0  0  0  0  0
  -26.4474  -31.6600   25.0720 C   0  0  0  0  0  0
  -25.3751  -31.3699   26.1472 C   0  0  0  0  0  0
  -27.0310  -30.3050   24.6066 C   0  0  0  0  0  0
  -27.6049  -32.4332   25.7469 C   0  0  0  0  0  0
  -27.5585  -37.1814   24.8464 C   0  0  0  0  0  0
  -21.4116  -29.3025   22.3749 N   0  0  0  0  0  0
  -26.4304  -37.3797   23.9399 N   0  0  0  0  0  0
  -24.6626  -31.0806   22.1012 N   0  0  0  0  0  0
  -23.4167  -28.8172   23.3042 O   0  0  0  0  0  0
  -28.4010  -26.7219   20.0117 O   0  0  0  0  0  0
  -26.5601  -34.8918   22.4692 O   0  0  0  0  0  0
  -23.5306  -32.1441   23.7520 O   0  0  0  0  0  0
  -30.6131  -18.8138   21.6210 C   0  0  0  0  0  0
  -29.3645  -18.9418   22.1946 C   0  0  0  0  0  0
  -30.0270  -16.6151   21.6850 C   0  0  0  0  0  0
  -30.5110  -24.0398   22.9149 C   0  0  0  0  0  0
  -28.0694  -22.4775   24.4655 C   0  0  0  0  0  0
  -28.6227  -20.1406   22.7378 C   0  0  0  0  0  0
  -28.5904  -24.6702   21.3196 C   0  0  0  0  0  0
  -28.8959  -26.1843   21.2354 C   0  0  0  0  0  0
  -28.9872  -24.0316   22.6741 C   0  0  1  0  0  0
  -28.3325  -22.6375   22.9478 C   0  0  1  0  0  0
  -30.9793  -17.4865   21.3287 N   0  0  0  0  0  0
  -30.1112  -15.2044   21.5899 N   0  0  0  0  0  0
  -29.1108  -21.4967   22.3666 N   0  3  0  0  0  0
  -28.6109  -17.3772   22.3858 S   0  0  0  0  0  0
  -31.4760  -12.4346   19.1074 H   0  0  0  0  0  0
  -30.3532  -11.2859   19.7736 H   0  0  0  0  0  0
  -29.7368  -11.8235   17.4043 H   0  0  0  0  0  0
  -29.6596  -13.5250   17.7862 H   0  0  0  0  0  0
  -27.8279  -11.3179   18.7953 H   0  0  0  0  0  0
  -27.3647  -12.6622   17.7851 H   0  0  0  0  0  0
  -27.7268  -14.2516   19.6123 H   0  0  0  0  0  0
  -28.6723  -11.8703   21.2774 H   0  0  0  0  0  0
  -28.4269  -13.4575   21.9027 H   0  0  0  0  0  0
  -25.2737   -9.5704   22.4751 H   0  0  0  0  0  0
  -24.0002   -7.4628   22.7462 H   0  0  0  0  0  0
  -21.0823   -8.8748   19.8935 H   0  0  0  0  0  0
  -22.3656  -10.9664   19.6153 H   0  0  0  0  0  0
  -21.2004   -7.6144   23.9717 H   0  0  0  0  0  0
  -21.1486   -6.0520   25.9081 H   0  0  0  0  0  0
  -22.0594   -2.7602   23.2857 H   0  0  0  0  0  0
  -22.4094  -11.9886   22.4790 H   0  0  0  0  0  0
  -21.1110  -13.1255   22.2592 H   0  0  0  0  0  0
  -24.6759  -15.8471   20.5171 H   0  0  0  0  0  0
  -26.2956  -15.6184   20.0910 H   0  0  0  0  0  0
  -26.7082  -32.5553   23.1185 H   0  0  0  0  0  0
  -25.0030  -33.9808   25.0474 H   0  0  0  0  0  0
  -22.6872  -31.3027   21.4084 H   0  0  0  0  0  0
  -23.3740  -35.9666   23.3320 H   0  0  0  0  0  0
  -24.3586  -36.8922   22.2053 H   0  0  0  0  0  0
  -23.7265  -37.6536   23.6648 H   0  0  0  0  0  0
  -26.0296  -31.6025   20.5916 H   0  0  0  0  0  0
  -26.8145  -30.9013   21.9794 H   0  0  0  0  0  0
  -28.1019  -29.1243   21.1735 H   0  0  0  0  0  0
  -26.1072  -25.9893   18.9934 H   0  0  0  0  0  0
  -23.9914  -27.2833   19.0415 H   0  0  0  0  0  0
  -23.7172  -30.5880   19.4047 H   0  0  0  0  0  0
  -22.7374  -29.2312   19.8744 H   0  0  0  0  0  0
  -25.1299  -36.1988   25.0827 H   0  0  0  0  0  0
  -20.9924  -28.3208   24.1443 H   0  0  0  0  0  0
  -20.5649  -26.2248   23.3598 H   0  0  0  0  0  0
  -21.6623  -26.7442   22.1216 H   0  0  0  0  0  0
  -19.6912  -25.6299   21.1215 H   0  0  0  0  0  0
  -19.6679  -27.3205   20.6734 H   0  0  0  0  0  0
  -17.4188  -26.6640   21.4003 H   0  0  0  0  0  0
  -18.0304  -26.0046   22.9001 H   0  0  0  0  0  0
  -19.7937  -30.7217   24.2286 H   0  0  0  0  0  0
  -17.5028  -31.6265   24.5150 H   0  0  0  0  0  0
  -15.5343  -30.2995   23.7666 H   0  0  0  0  0  0
  -15.8630  -28.0831   22.7062 H   0  0  0  0  0  0
  -24.5902  -30.7076   25.7816 H   0  0  0  0  0  0
  -24.8959  -32.2857   26.4946 H   0  0  0  0  0  0
  -25.8104  -30.8856   27.0217 H   0  0  0  0  0  0
  -26.2850  -29.6786   24.1163 H   0  0  0  0  0  0
  -27.4135  -29.7297   25.4502 H   0  0  0  0  0  0
  -27.8654  -30.4385   23.9167 H   0  0  0  0  0  0
  -27.2667  -33.3612   26.2091 H   0  0  0  0  0  0
  -28.3831  -32.6920   25.0281 H   0  0  0  0  0  0
  -28.0746  -31.8430   26.5352 H   0  0  0  0  0  0
  -28.2608  -38.0104   24.7500 H   0  0  0  0  0  0
  -28.1068  -36.2631   24.6306 H   0  0  0  0  0  0
  -27.2283  -37.1486   25.8861 H   0  0  0  0  0  0
  -20.9267  -29.8781   21.7007 H   0  0  0  0  0  0
  -26.0185  -38.2872   24.1407 H   0  0  0  0  0  0
  -31.3191  -19.6050   21.4065 H   0  0  0  0  0  0
  -30.8917  -25.0585   22.9946 H   0  0  0  0  0  0
  -31.0610  -23.5591   22.1051 H   0  0  0  0  0  0
  -30.7720  -23.5405   23.8480 H   0  0  0  0  0  0
  -27.5876  -23.3634   24.8796 H   0  0  0  0  0  0
  -28.9915  -22.3187   25.0238 H   0  0  0  0  0  0
  -27.3900  -21.6511   24.6811 H   0  0  0  0  0  0
  -28.6437  -20.0393   23.8216 H   0  0  0  0  0  0
  -27.5722  -20.0670   22.4516 H   0  0  0  0  0  0
  -29.0822  -24.1469   20.4995 H   0  0  0  0  0  0
  -27.5182  -24.5385   21.1629 H   0  0  0  0  0  0
  -29.9737  -26.3492   21.2532 H   0  0  0  0  0  0
  -28.4862  -26.7060   22.1040 H   0  0  0  0  0  0
  -28.5646  -24.7105   23.4163 H   0  0  0  0  0  0
  -27.3479  -22.6284   22.4764 H   0  0  0  0  0  0
  -29.3558  -14.7271   22.0558 H   0  0  0  0  0  0
  -29.0853  -21.5799   21.3630 H   0  0  0  0  0  0
  -30.0685  -21.5875   22.6631 H   0  0  0  0  0  0
  1 25  1  0  0  0
  1 30  2  0  0  0
  1 82  1  0  0  0
  2  3  1  0  0  0
  2 25  1  0  0  0
  2 85  1  0  0  0
  2 86  1  0  0  0
  3  4  1  0  0  0
  3 87  1  0  0  0
  3 88  1  0  0  0
  4  5  1  0  0  0
  4 89  1  0  0  0
  4 90  1  0  0  0
  5  6  1  0  0  0
  5 26  1  0  0  0
  5 91  1  0  0  0
  6 25  1  0  0  0
  6 92  1  0  0  0
  6 93  1  0  0  0
  7  8  2  0  0  0
  7 26  1  0  0  0
  7 29  1  0  0  0
  8  9  1  0  0  0
  8 22  1  0  0  0
  9 10  1  0  0  0
  9 27  2  0  0  0
 10 11  2  0  0  0
 10 15  1  0  0  0
 11 12  1  0  0  0
 11 94  1  0  0  0
 12 13  2  0  0  0
 12 95  1  0  0  0
 13 14  1  0  0  0
 13 31  1  0  0  0
 14 15  2  0  0  0
 14 96  1  0  0  0
 15 97  1  0  0  0
 16 17  2  0  0  0
 16 21  1  0  0  0
 16 31  1  0  0  0
 17 18  1  0  0  0
 17 98  1  0  0  0
 18 19  2  0  0  0
 18 99  1  0  0  0
 19 20  1  0  0  0
 19 24  1  0  0  0
 20 21  2  0  0  0
 20100  1  0  0  0
 21 23  1  0  0  0
 22 28  1  0  0  0
 22 32  2  0  0  0
 26 27  1  0  0  0
 28101  1  0  0  0
 28102  1  0  0  0
 29103  1  0  0  0
 29104  1  0  0  0
 33 34  1  0  0  0
 33 66  1  0  0  0
 33 70  2  0  0  0
 34 36  1  0  0  0
 34 59  1  0  0  0
 34105  1  0  0  0
 35 44  2  0  0  0
 35 45  1  0  0  0
 35 68  1  0  0  0
 36 56  1  0  0  0
 36106  1  0  0  0
 37 39  1  0  0  0
 37 47  1  0  0  0
 37 66  1  0  0  0
 37107  1  0  0  0
 38 43  2  0  0  0
 38 46  1  0  0  0
 38 47  1  0  0  0
 39 64  1  0  0  0
 39 67  2  0  0  0
 40 52  1  0  0  0
 40 53  2  0  0  0
 40 58  1  0  0  0
 41108  1  0  0  0
 41109  1  0  0  0
 41110  1  0  0  0
 41 48  1  0  0  0
 42 43  1  0  0  0
 42 66  1  0  0  0
 42111  1  0  0  0
 42112  1  0  0  0
 43 44  1  0  0  0
 44113  1  0  0  0
 45 46  2  0  0  0
 45114  1  0  0  0
 46115  1  0  0  0
 47116  1  0  0  0
 47117  1  0  0  0
 48 56  1  0  0  0
 48 65  1  0  0  0
 48118  1  0  0  0
 49 50  1  0  0  0
 49 53  1  0  0  0
 49 64  1  0  0  0
 49119  1  0  0  0
 50 51  1  0  0  0
 50120  1  0  0  0
 50121  1  0  0  0
 51 52  1  0  0  0
 51122  1  0  0  0
 51123  1  0  0  0
 52124  1  0  0  0
 52125  1  0  0  0
 53 54  1  0  0  0
 54 55  2  0  0  0
 54126  1  0  0  0
 55 57  1  0  0  0
 55127  1  0  0  0
 56 69  2  0  0  0
 57 58  2  0  0  0
 57128  1  0  0  0
 58129  1  0  0  0
 59 60  1  0  0  0
 59 61  1  0  0  0
 59 62  1  0  0  0
 60130  1  0  0  0
 60131  1  0  0  0
 60132  1  0  0  0
 61133  1  0  0  0
 61134  1  0  0  0
 61135  1  0  0  0
 62136  1  0  0  0
 62137  1  0  0  0
 62138  1  0  0  0
 63 65  1  0  0  0
 63139  1  0  0  0
 63140  1  0  0  0
 63141  1  0  0  0
 64142  1  0  0  0
 65143  1  0  0  0
 68 78  1  0  0  0
 71 72  2  0  0  0
 71 81  1  0  0  0
 71144  1  0  0  0
 72 76  1  0  0  0
 72 84  1  0  0  0
 73 81  2  0  0  0
 73 82  1  0  0  0
 73 84  1  0  0  0
 74145  1  0  0  0
 74146  1  0  0  0
 74147  1  0  0  0
 74 79  1  0  0  0
 75148  1  0  0  0
 75149  1  0  0  0
 75150  1  0  0  0
 75 80  1  0  0  0
 76 83  1  0  0  0
 76151  1  0  0  0
 76152  1  0  0  0
 77 78  1  0  0  0
 77 79  1  0  0  0
 77153  1  0  0  0
 77154  1  0  0  0
 78155  1  0  0  0
 78156  1  0  0  0
 79 80  1  0  0  0
 79157  1  0  0  0
 80 83  1  0  0  0
 80158  1  0  0  0
 82159  1  0  0  0
 83160  1  0  0  0
 83161  1  0  0  0
M  CHG  1  83   1
M  ISO  4   1 100  68 101  78 101  82 100
M  END
> <chiral flag>
0

> <version>
0

> <s_m_source_file>
/data/baiqing/PycharmProjects/Reinvent-master-3.2/result/LINK_invent/BTK/process_docking_weight1_custom_product_contain_oxygen_bond_distance_aromatic_linkinvent_7_9_3/rearranged_h_0189.sdf

> <i_m_source_file_index>
30

> <r_mmod_Potential_Energy-OPLS-2005>
-257.672180175781

> <r_mmod_Stretch_Energy-OPLS-2005>
36.0073051452637

> <r_mmod_Bend_Energy-OPLS-2005>
113.434852600098

> <r_mmod_Torsional_Energy-OPLS-2005>
252.173690795898

> <r_mmod_Improper_Torsional_Energy-OPLS-2005>
3.8160924911499

> <r_mmod_Van_der_Waal_Energy-OPLS-2005>
130.011459350586

> <r_mmod_Electrostatic_Energy-OPLS-2005>
-314.039916992188

> <r_mmod_Solvation_Energy-OPLS-2005>
-487.079650878906

> <b_mmod_Minimization_Converged-OPLS-2005>
0

> <r_mmod_RMS_Derivative-OPLS-2005>
1.90669107437134

$$$$
30
                    3D
 Structure written by MMmdl.
164172  0  0  1  0            999 V2000
  -30.6619  -14.5761   20.4967 C   0  0  0  0  0  0
  -30.4171  -12.3469   19.4594 C   0  0  0  0  0  0
  -29.5032  -12.5070   18.2256 C   0  0  0  0  0  0
  -28.0228  -12.3613   18.6263 C   0  0  0  0  0  0
  -27.6526  -13.2213   19.8650 C   0  0  2  0  0  0
  -28.6915  -13.0660   20.9990 C   0  0  0  0  0  0
  -25.2558  -13.8191   20.5680 C   0  0  0  0  0  0
  -24.1826  -13.0451   20.9180 C   0  0  0  0  0  0
  -24.6403  -11.6926   20.8734 C   0  0  0  0  0  0
  -23.9074  -10.4306   21.0400 C   0  0  0  0  0  0
  -24.3630   -9.4222   21.9177 C   0  0  0  0  0  0
  -23.6311   -8.2254   22.0752 C   0  0  0  0  0  0
  -22.4297   -8.0286   21.3540 C   0  0  0  0  0  0
  -21.9922   -9.0256   20.4642 C   0  0  0  0  0  0
  -22.7242  -10.2142   20.3051 C   0  0  0  0  0  0
  -21.6858   -6.0739   22.5278 C   0  0  0  0  0  0
  -21.4012   -6.5641   23.8211 C   0  0  0  0  0  0
  -21.3673   -5.6794   24.9170 C   0  0  0  0  0  0
  -21.6051   -4.3056   24.7217 C   0  0  0  0  0  0
  -21.8822   -3.8151   23.4339 C   0  0  0  0  0  0
  -21.9200   -4.6969   22.3397 C   0  0  0  0  0  0
  -22.7847  -13.5232   21.1847 C   0  0  0  0  0  0
  -22.1664   -4.2154   21.0973 F   0  0  0  0  0  0
  -21.5642   -3.4546   25.7731 F   0  0  0  0  0  0
  -30.0174  -13.3713   20.4440 N   0  0  0  0  0  0
  -26.2982  -12.9375   20.3311 N   0  0  0  0  0  0
  -25.9329  -11.6524   20.5744 N   0  0  0  0  0  0
  -22.0502  -12.8213   22.0401 N   0  0  0  0  0  0
  -25.4293  -15.1910   20.4107 N   0  0  0  0  0  0
  -31.8188  -14.7057   20.0828 O   0  0  0  0  0  0
  -21.6658   -6.8887   21.4239 O   0  0  0  0  0  0
  -22.3534  -14.5537   20.6696 O   0  0  0  0  0  0
  -24.6203  -31.8637   23.2050 C   0  0  0  0  0  0
  -25.9060  -32.4806   23.8380 C   0  0  1  0  0  0
  -27.2195  -27.3696   20.1142 C   0  0  0  0  0  0
  -25.5884  -33.8605   24.2314 N   0  0  0  0  0  0
  -23.4130  -30.4886   21.5468 C   0  0  2  0  0  0
  -24.8609  -28.9563   20.1067 C   0  0  0  0  0  0
  -22.7459  -29.4630   22.4946 C   0  0  0  0  0  0
  -18.0285  -28.1375   22.8497 C   0  0  0  0  0  0
  -24.1481  -36.7309   23.2642 C   0  0  0  0  0  0
  -25.9497  -30.8135   21.3691 C   0  0  0  0  0  0
  -26.0277  -29.4460   20.7099 C   0  0  0  0  0  0
  -27.2157  -28.6636   20.7054 C   0  0  0  0  0  0
  -26.0391  -26.9270   19.4822 C   0  0  0  0  0  0
  -24.8657  -27.7000   19.4827 C   0  0  0  0  0  0
  -23.6258  -29.8277   20.1598 C   0  0  0  0  0  0
  -25.4099  -36.3114   24.0345 C   0  0  1  0  0  0
  -20.5883  -28.3667   23.1297 C   0  0  2  0  0  0
  -20.6768  -26.9394   22.5418 C   0  0  0  0  0  0
  -19.5743  -26.6377   21.5214 C   0  0  0  0  0  0
  -18.1922  -26.7919   22.1623 C   0  0  0  0  0  0
  -19.1536  -28.8833   23.2901 C   0  0  0  0  0  0
  -18.9458  -30.1433   23.8916 C   0  0  0  0  0  0
  -17.6457  -30.6578   24.0559 C   0  0  0  0  0  0
  -25.9029  -34.9471   23.5133 C   0  0  0  0  0  0
  -16.5349  -29.9078   23.6325 C   0  0  0  0  0  0
  -16.7267  -28.6498   23.0357 C   0  0  0  0  0  0
  -26.4461  -31.6589   25.0724 C   0  0  0  0  0  0
  -25.3707  -31.3720   26.1468 C   0  0  0  0  0  0
  -27.0299  -30.3020   24.6126 C   0  0  0  0  0  0
  -27.6025  -32.4310   25.7485 C   0  0  0  0  0  0
  -27.5586  -37.1812   24.8466 C   0  0  0  0  0  0
  -21.4174  -29.3030   22.3696 N   0  0  0  0  0  0
  -26.4293  -37.3793   23.9413 N   0  0  0  0  0  0
  -24.6795  -31.0707   22.0982 N   0  0  0  0  0  0
  -23.4201  -28.8161   23.3000 O   0  0  0  0  0  0
  -28.3032  -26.4949   20.1854 O   0  0  0  0  0  0
  -26.5609  -34.8923   22.4705 O   0  0  0  0  0  0
  -23.5371  -32.1410   23.7394 O   0  0  0  0  0  0
  -29.7961  -19.2773   20.0570 C   0  0  0  0  0  0
  -30.0878  -18.9216   18.7541 C   0  0  0  0  0  0
  -29.9800  -16.9578   20.2690 C   0  0  0  0  0  0
  -30.2752  -19.8125   17.5670 C   0  0  0  0  0  0
  -28.3122  -25.8302   22.4836 C   0  0  0  0  0  0
  -29.6057  -23.1839   18.5488 C   0  0  0  0  0  0
  -27.1841  -23.2665   19.0257 C   0  0  0  0  0  0
  -29.6896  -20.7313   20.5806 C   0  0  0  0  0  0
  -28.8596  -23.9655   20.8452 C   0  0  0  0  0  0
  -28.0593  -25.3288   21.0471 C   0  0  1  0  0  0
  -28.5558  -22.9544   19.6586 C   0  0  0  0  0  0
  -29.6951  -18.1265   20.8969 N   0  0  0  0  0  0
  -29.9380  -15.6577   20.8940 N   0  0  0  0  0  0
  -28.5031  -21.4850   20.0606 N   0  3  0  0  0  0
  -30.3021  -17.1939   18.5564 S   0  0  0  0  0  0
  -31.4648  -12.4305   19.1663 H   0  0  0  0  0  0
  -30.3077  -11.3506   19.8899 H   0  0  0  0  0  0
  -29.7592  -11.7688   17.4647 H   0  0  0  0  0  0
  -29.6672  -13.4849   17.7700 H   0  0  0  0  0  0
  -27.8356  -11.3069   18.8322 H   0  0  0  0  0  0
  -27.3794  -12.6182   17.7842 H   0  0  0  0  0  0
  -27.6759  -14.2604   19.5345 H   0  0  0  0  0  0
  -28.6800  -12.0486   21.3927 H   0  0  0  0  0  0
  -28.4433  -13.7135   21.8415 H   0  0  0  0  0  0
  -25.2776   -9.5701   22.4741 H   0  0  0  0  0  0
  -24.0029   -7.4650   22.7466 H   0  0  0  0  0  0
  -21.0859   -8.8765   19.8943 H   0  0  0  0  0  0
  -22.3695  -10.9678   19.6161 H   0  0  0  0  0  0
  -21.1982   -7.6149   23.9703 H   0  0  0  0  0  0
  -21.1499   -6.0528   25.9072 H   0  0  0  0  0  0
  -22.0589   -2.7611   23.2837 H   0  0  0  0  0  0
  -22.4134  -11.9875   22.4776 H   0  0  0  0  0  0
  -21.1113  -13.1218   22.2607 H   0  0  0  0  0  0
  -24.6637  -15.8478   20.5129 H   0  0  0  0  0  0
  -26.2827  -15.6277   20.0861 H   0  0  0  0  0  0
  -26.7133  -32.5499   23.1140 H   0  0  0  0  0  0
  -25.0006  -33.9763   25.0438 H   0  0  0  0  0  0
  -22.7033  -31.3061   21.4054 H   0  0  0  0  0  0
  -23.3753  -35.9638   23.3301 H   0  0  0  0  0  0
  -24.3583  -36.8921   22.2064 H   0  0  0  0  0  0
  -23.7230  -37.6503   23.6654 H   0  0  0  0  0  0
  -26.0715  -31.5828   20.6048 H   0  0  0  0  0  0
  -26.8332  -30.8618   21.9941 H   0  0  0  0  0  0
  -28.1077  -29.0272   21.1970 H   0  0  0  0  0  0
  -26.0087  -25.9611   19.0069 H   0  0  0  0  0  0
  -23.9730  -27.3191   19.0054 H   0  0  0  0  0  0
  -23.7334  -30.6059   19.4029 H   0  0  0  0  0  0
  -22.7495  -29.2496   19.8607 H   0  0  0  0  0  0
  -25.1281  -36.1984   25.0843 H   0  0  0  0  0  0
  -20.9978  -28.3245   24.1418 H   0  0  0  0  0  0
  -20.5643  -26.2289   23.3623 H   0  0  0  0  0  0
  -21.6640  -26.7410   22.1226 H   0  0  0  0  0  0
  -19.6906  -25.6289   21.1241 H   0  0  0  0  0  0
  -19.6688  -27.3198   20.6752 H   0  0  0  0  0  0
  -17.4199  -26.6682   21.4018 H   0  0  0  0  0  0
  -18.0299  -26.0052   22.9006 H   0  0  0  0  0  0
  -19.7930  -30.7242   24.2309 H   0  0  0  0  0  0
  -17.5009  -31.6259   24.5149 H   0  0  0  0  0  0
  -15.5348  -30.2986   23.7623 H   0  0  0  0  0  0
  -15.8674  -28.0809   22.7069 H   0  0  0  0  0  0
  -24.5849  -30.7100   25.7802 H   0  0  0  0  0  0
  -24.8926  -32.2891   26.4928 H   0  0  0  0  0  0
  -25.8035  -30.8870   27.0228 H   0  0  0  0  0  0
  -26.2871  -29.6789   24.1129 H   0  0  0  0  0  0
  -27.4004  -29.7246   25.4605 H   0  0  0  0  0  0
  -27.8729  -30.4323   23.9335 H   0  0  0  0  0  0
  -27.2626  -33.3583   26.2107 H   0  0  0  0  0  0
  -28.3806  -32.6919   25.0299 H   0  0  0  0  0  0
  -28.0725  -31.8414   26.5365 H   0  0  0  0  0  0
  -28.2613  -38.0102   24.7509 H   0  0  0  0  0  0
  -28.1078  -36.2637   24.6290 H   0  0  0  0  0  0
  -27.2316  -37.1462   25.8873 H   0  0  0  0  0  0
  -20.9328  -29.8791   21.6958 H   0  0  0  0  0  0
  -26.0194  -38.2875   24.1399 H   0  0  0  0  0  0
  -29.3272  -20.2431   17.2454 H   0  0  0  0  0  0
  -30.6818  -19.2600   16.7189 H   0  0  0  0  0  0
  -30.9685  -20.6247   17.7851 H   0  0  0  0  0  0
  -29.3650  -26.0681   22.6391 H   0  0  0  0  0  0
  -28.0279  -25.0807   23.2229 H   0  0  0  0  0  0
  -27.7366  -26.7260   22.7137 H   0  0  0  0  0  0
  -29.6265  -24.2329   18.2496 H   0  0  0  0  0  0
  -29.3841  -22.6047   17.6530 H   0  0  0  0  0  0
  -30.6174  -22.9362   18.8673 H   0  0  0  0  0  0
  -26.3725  -23.2247   19.7529 H   0  0  0  0  0  0
  -27.1822  -24.2549   18.5711 H   0  0  0  0  0  0
  -26.9384  -22.5673   18.2247 H   0  0  0  0  0  0
  -30.6057  -21.2657   20.3354 H   0  0  0  0  0  0
  -29.6419  -20.7407   21.6699 H   0  0  0  0  0  0
  -28.6890  -23.3942   21.7590 H   0  0  0  0  0  0
  -29.9277  -24.1854   20.8762 H   0  0  0  0  0  0
  -27.0027  -25.0644   21.0166 H   0  0  0  0  0  0
  -29.1159  -15.4652   21.4439 H   0  0  0  0  0  0
  -27.7703  -21.3528   20.7400 H   0  0  0  0  0  0
  -28.2092  -20.9653   19.2505 H   0  0  0  0  0  0
  1 25  1  0  0  0
  1 30  2  0  0  0
  1 83  1  0  0  0
  2  3  1  0  0  0
  2 25  1  0  0  0
  2 86  1  0  0  0
  2 87  1  0  0  0
  3  4  1  0  0  0
  3 88  1  0  0  0
  3 89  1  0  0  0
  4  5  1  0  0  0
  4 90  1  0  0  0
  4 91  1  0  0  0
  5  6  1  0  0  0
  5 26  1  0  0  0
  5 92  1  0  0  0
  6 25  1  0  0  0
  6 93  1  0  0  0
  6 94  1  0  0  0
  7  8  2  0  0  0
  7 26  1  0  0  0
  7 29  1  0  0  0
  8  9  1  0  0  0
  8 22  1  0  0  0
  9 10  1  0  0  0
  9 27  2  0  0  0
 10 11  2  0  0  0
 10 15  1  0  0  0
 11 12  1  0  0  0
 11 95  1  0  0  0
 12 13  2  0  0  0
 12 96  1  0  0  0
 13 14  1  0  0  0
 13 31  1  0  0  0
 14 15  2  0  0  0
 14 97  1  0  0  0
 15 98  1  0  0  0
 16 17  2  0  0  0
 16 21  1  0  0  0
 16 31  1  0  0  0
 17 18  1  0  0  0
 17 99  1  0  0  0
 18 19  2  0  0  0
 18100  1  0  0  0
 19 20  1  0  0  0
 19 24  1  0  0  0
 20 21  2  0  0  0
 20101  1  0  0  0
 21 23  1  0  0  0
 22 28  1  0  0  0
 22 32  2  0  0  0
 26 27  1  0  0  0
 28102  1  0  0  0
 28103  1  0  0  0
 29104  1  0  0  0
 29105  1  0  0  0
 33 34  1  0  0  0
 33 66  1  0  0  0
 33 70  2  0  0  0
 34 36  1  0  0  0
 34 59  1  0  0  0
 34106  1  0  0  0
 35 44  2  0  0  0
 35 45  1  0  0  0
 35 68  1  0  0  0
 36 56  1  0  0  0
 36107  1  0  0  0
 37 39  1  0  0  0
 37 47  1  0  0  0
 37 66  1  0  0  0
 37108  1  0  0  0
 38 43  2  0  0  0
 38 46  1  0  0  0
 38 47  1  0  0  0
 39 64  1  0  0  0
 39 67  2  0  0  0
 40 52  1  0  0  0
 40 53  2  0  0  0
 40 58  1  0  0  0
 41109  1  0  0  0
 41110  1  0  0  0
 41111  1  0  0  0
 41 48  1  0  0  0
 42 43  1  0  0  0
 42 66  1  0  0  0
 42112  1  0  0  0
 42113  1  0  0  0
 43 44  1  0  0  0
 44114  1  0  0  0
 45 46  2  0  0  0
 45115  1  0  0  0
 46116  1  0  0  0
 47117  1  0  0  0
 47118  1  0  0  0
 48 56  1  0  0  0
 48 65  1  0  0  0
 48119  1  0  0  0
 49 50  1  0  0  0
 49 53  1  0  0  0
 49 64  1  0  0  0
 49120  1  0  0  0
 50 51  1  0  0  0
 50121  1  0  0  0
 50122  1  0  0  0
 51 52  1  0  0  0
 51123  1  0  0  0
 51124  1  0  0  0
 52125  1  0  0  0
 52126  1  0  0  0
 53 54  1  0  0  0
 54 55  2  0  0  0
 54127  1  0  0  0
 55 57  1  0  0  0
 55128  1  0  0  0
 56 69  2  0  0  0
 57 58  2  0  0  0
 57129  1  0  0  0
 58130  1  0  0  0
 59 60  1  0  0  0
 59 61  1  0  0  0
 59 62  1  0  0  0
 60131  1  0  0  0
 60132  1  0  0  0
 60133  1  0  0  0
 61134  1  0  0  0
 61135  1  0  0  0
 61136  1  0  0  0
 62137  1  0  0  0
 62138  1  0  0  0
 62139  1  0  0  0
 63 65  1  0  0  0
 63140  1  0  0  0
 63141  1  0  0  0
 63142  1  0  0  0
 64143  1  0  0  0
 65144  1  0  0  0
 68 80  1  0  0  0
 71 72  2  0  0  0
 71 78  1  0  0  0
 71 82  1  0  0  0
 72 74  1  0  0  0
 72 85  1  0  0  0
 73 82  2  0  0  0
 73 83  1  0  0  0
 73 85  1  0  0  0
 74145  1  0  0  0
 74146  1  0  0  0
 74147  1  0  0  0
 75148  1  0  0  0
 75149  1  0  0  0
 75150  1  0  0  0
 75 80  1  0  0  0
 76151  1  0  0  0
 76152  1  0  0  0
 76153  1  0  0  0
 76 81  1  0  0  0
 77 81  1  0  0  0
 77154  1  0  0  0
 77155  1  0  0  0
 77156  1  0  0  0
 78 84  1  0  0  0
 78157  1  0  0  0
 78158  1  0  0  0
 79 80  1  0  0  0
 79 81  1  0  0  0
 79159  1  0  0  0
 79160  1  0  0  0
 80161  1  0  0  0
 81 84  1  0  0  0
 83162  1  0  0  0
 84163  1  0  0  0
 84164  1  0  0  0
M  CHG  1  84   1
M  ISO  4   1 100  68 101  80 101  83 100
M  END
> <chiral flag>
0

> <version>
0

> <s_m_source_file>
/data/baiqing/PycharmProjects/Reinvent-master-3.2/result/LINK_invent/BTK/process_docking_weight1_custom_product_contain_oxygen_bond_distance_aromatic_linkinvent_7_9_3/rearranged_h_0189.sdf

> <i_m_source_file_index>
31

> <r_mmod_Potential_Energy-OPLS-2005>
-187.162734985352

> <r_mmod_Stretch_Energy-OPLS-2005>
64.2001419067383

> <r_mmod_Bend_Energy-OPLS-2005>
142.082382202148

> <r_mmod_Torsional_Energy-OPLS-2005>
271.577362060547

> <r_mmod_Improper_Torsional_Energy-OPLS-2005>
4.81650161743164

> <r_mmod_Van_der_Waal_Energy-OPLS-2005>
119.417053222656

> <r_mmod_Electrostatic_Energy-OPLS-2005>
-362.380676269531

> <r_mmod_Solvation_Energy-OPLS-2005>
-462.155364990234

> <b_mmod_Minimization_Converged-OPLS-2005>
0

> <r_mmod_RMS_Derivative-OPLS-2005>
1.9419025182724

$$$$
31
                    3D
 Structure written by MMmdl.
170179  0  0  1  0            999 V2000
  -30.7484  -14.4765   20.3366 C   0  0  0  0  0  0
  -30.4029  -12.2705   19.4183 C   0  0  0  0  0  0
  -29.4697  -12.4210   18.1959 C   0  0  0  0  0  0
  -27.9976  -12.3130   18.6268 C   0  0  0  0  0  0
  -27.6481  -13.2093   19.8467 C   0  0  2  0  0  0
  -28.7104  -13.1103   20.9670 C   0  0  0  0  0  0
  -25.2583  -13.8172   20.5681 C   0  0  0  0  0  0
  -24.1830  -13.0450   20.9188 C   0  0  0  0  0  0
  -24.6390  -11.6914   20.8752 C   0  0  0  0  0  0
  -23.9061  -10.4307   21.0403 C   0  0  0  0  0  0
  -24.3614   -9.4214   21.9176 C   0  0  0  0  0  0
  -23.6298   -8.2243   22.0752 C   0  0  0  0  0  0
  -22.4293   -8.0280   21.3533 C   0  0  0  0  0  0
  -21.9910   -9.0257   20.4645 C   0  0  0  0  0  0
  -22.7232  -10.2137   20.3055 C   0  0  0  0  0  0
  -21.6854   -6.0736   22.5273 C   0  0  0  0  0  0
  -21.4016   -6.5645   23.8208 C   0  0  0  0  0  0
  -21.3660   -5.6797   24.9168 C   0  0  0  0  0  0
  -21.6039   -4.3062   24.7214 C   0  0  0  0  0  0
  -21.8826   -3.8149   23.4343 C   0  0  0  0  0  0
  -21.9198   -4.6961   22.3398 C   0  0  0  0  0  0
  -22.7868  -13.5253   21.1835 C   0  0  0  0  0  0
  -22.1664   -4.2140   21.0978 F   0  0  0  0  0  0
  -21.5624   -3.4556   25.7735 F   0  0  0  0  0  0
  -30.0340  -13.3213   20.3694 N   0  0  0  0  0  0
  -26.3003  -12.9339   20.3349 N   0  0  0  0  0  0
  -25.9322  -11.6516   20.5813 N   0  0  0  0  0  0
  -22.0499  -12.8248   22.0383 N   0  0  0  0  0  0
  -25.4324  -15.1884   20.4090 N   0  0  0  0  0  0
  -31.9746  -14.5041   20.3816 O   0  0  0  0  0  0
  -21.6650   -6.8872   21.4239 O   0  0  0  0  0  0
  -22.3567  -14.5574   20.6705 O   0  0  0  0  0  0
  -24.6134  -31.8677   23.2146 C   0  0  0  0  0  0
  -25.9030  -32.4806   23.8443 C   0  0  1  0  0  0
  -27.2533  -27.4789   20.1270 C   0  0  0  0  0  0
  -25.5929  -33.8622   24.2347 N   0  0  0  0  0  0
  -23.3957  -30.4935   21.5475 C   0  0  2  0  0  0
  -24.8442  -28.9530   20.1187 C   0  0  0  0  0  0
  -22.7373  -29.4690   22.4985 C   0  0  0  0  0  0
  -18.0248  -28.1428   22.8532 C   0  0  0  0  0  0
  -24.1412  -36.7250   23.2649 C   0  0  0  0  0  0
  -25.9161  -30.8534   21.3538 C   0  0  0  0  0  0
  -25.9965  -29.4898   20.7039 C   0  0  0  0  0  0
  -27.2012  -28.7681   20.6953 C   0  0  0  0  0  0
  -26.0938  -26.9517   19.5178 C   0  0  0  0  0  0
  -24.8874  -27.6814   19.5132 C   0  0  0  0  0  0
  -23.6042  -29.8166   20.1625 C   0  0  0  0  0  0
  -25.4053  -36.3103   24.0359 C   0  0  1  0  0  0
  -20.5844  -28.3667   23.1333 C   0  0  2  0  0  0
  -20.6729  -26.9411   22.5416 C   0  0  0  0  0  0
  -19.5686  -26.6409   21.5226 C   0  0  0  0  0  0
  -18.1862  -26.7993   22.1636 C   0  0  0  0  0  0
  -19.1513  -28.8873   23.2923 C   0  0  0  0  0  0
  -18.9451  -30.1500   23.8899 C   0  0  0  0  0  0
  -17.6468  -30.6630   24.0614 C   0  0  0  0  0  0
  -25.9017  -34.9482   23.5130 C   0  0  0  0  0  0
  -16.5348  -29.9147   23.6397 C   0  0  0  0  0  0
  -16.7259  -28.6574   23.0396 C   0  0  0  0  0  0
  -26.4487  -31.6669   25.0808 C   0  0  0  0  0  0
  -25.3772  -31.3814   26.1591 C   0  0  0  0  0  0
  -27.0346  -30.3122   24.6204 C   0  0  0  0  0  0
  -27.6058  -32.4428   25.7542 C   0  0  0  0  0  0
  -27.5531  -37.1756   24.8480 C   0  0  0  0  0  0
  -21.4106  -29.3052   22.3736 N   0  0  0  0  0  0
  -26.4199  -37.3825   23.9485 N   0  0  0  0  0  0
  -24.6588  -31.0866   22.0965 N   0  0  0  0  0  0
  -23.4175  -28.8227   23.3011 O   0  0  0  0  0  0
  -28.4066  -26.7279   20.1544 O   0  0  0  0  0  0
  -26.5515  -34.8956   22.4652 O   0  0  0  0  0  0
  -23.5347  -32.1383   23.7596 O   0  0  0  0  0  0
  -31.2647  -15.6851   17.6309 C   0  0  0  0  0  0
  -31.8654  -16.4696   16.6394 C   0  0  0  0  0  0
  -30.6692  -21.9170   18.1764 C   0  0  0  0  0  0
  -30.6778  -16.3239   18.7441 C   0  0  0  0  0  0
  -31.5974  -22.6524   17.4728 C   0  0  0  0  0  0
  -31.2706  -18.3378   17.7879 C   0  0  0  0  0  0
  -30.7550  -23.8341   19.4070 C   0  0  0  0  0  0
  -27.9696  -21.0749   16.6128 C   0  0  0  0  0  0
  -29.8593  -27.2977   22.1033 C   0  0  0  0  0  0
  -29.3792  -20.4784   16.5280 C   0  0  0  0  0  0
  -29.3943  -24.8854   21.3862 C   0  0  0  0  0  0
  -30.1521  -20.5306   17.8664 C   0  0  1  0  0  0
  -32.4541  -15.8397   15.3843 C   0  0  0  0  0  0
  -28.8434  -26.3279   21.4670 C   0  0  2  0  0  0
  -31.8829  -17.8118   16.7442 N   0  0  0  0  0  0
  -30.1732  -22.6332   19.2793 N   0  0  0  0  0  0
  -30.6521  -17.6833   18.7708 N   0  0  0  0  0  0
  -30.1001  -15.5156   19.7792 N   0  0  0  0  0  0
  -31.3515  -19.7031   17.8391 N   0  0  0  0  0  0
  -30.4562  -24.7571   20.3996 N   0  0  0  0  0  0
  -32.2191  -22.2242   16.3453 F   0  0  0  0  0  0
  -31.4745  -15.5894   14.5154 F   0  0  0  0  0  0
  -33.0943  -14.6996   15.6585 F   0  0  0  0  0  0
  -31.9532  -24.1984   18.1687 S   0  0  0  0  0  0
  -31.4481  -12.3404   19.1054 H   0  0  0  0  0  0
  -30.2860  -11.2888   19.8796 H   0  0  0  0  0  0
  -29.6957  -11.6530   17.4568 H   0  0  0  0  0  0
  -29.6107  -13.3753   17.6920 H   0  0  0  0  0  0
  -27.8098  -11.2674   18.8645 H   0  0  0  0  0  0
  -27.3447  -12.5540   17.7861 H   0  0  0  0  0  0
  -27.6539  -14.2339   19.4780 H   0  0  0  0  0  0
  -28.6747  -12.1341   21.4580 H   0  0  0  0  0  0
  -28.5126  -13.8527   21.7407 H   0  0  0  0  0  0
  -25.2753   -9.5702   22.4752 H   0  0  0  0  0  0
  -24.0014   -7.4643   22.7485 H   0  0  0  0  0  0
  -21.0832   -8.8779   19.8964 H   0  0  0  0  0  0
  -22.3684  -10.9677   19.6170 H   0  0  0  0  0  0
  -21.2021   -7.6158   23.9691 H   0  0  0  0  0  0
  -21.1467   -6.0536   25.9058 H   0  0  0  0  0  0
  -22.0603   -2.7616   23.2838 H   0  0  0  0  0  0
  -22.4146  -11.9908   22.4768 H   0  0  0  0  0  0
  -21.1111  -13.1248   22.2596 H   0  0  0  0  0  0
  -24.6688  -15.8433   20.5268 H   0  0  0  0  0  0
  -26.2965  -15.6338   20.1268 H   0  0  0  0  0  0
  -26.7134  -32.5485   23.1267 H   0  0  0  0  0  0
  -25.0333  -33.9792   25.0662 H   0  0  0  0  0  0
  -22.6871  -31.3128   21.4099 H   0  0  0  0  0  0
  -23.3704  -35.9539   23.3343 H   0  0  0  0  0  0
  -24.3527  -36.8802   22.2055 H   0  0  0  0  0  0
  -23.7115  -37.6459   23.6618 H   0  0  0  0  0  0
  -26.0289  -31.6155   20.5842 H   0  0  0  0  0  0
  -26.8089  -30.9053   21.9659 H   0  0  0  0  0  0
  -28.0821  -29.2238   21.1129 H   0  0  0  0  0  0
  -26.1258  -25.9704   19.0658 H   0  0  0  0  0  0
  -24.0055  -27.2605   19.0546 H   0  0  0  0  0  0
  -23.7156  -30.5908   19.4033 H   0  0  0  0  0  0
  -22.7258  -29.2408   19.8619 H   0  0  0  0  0  0
  -25.1222  -36.1933   25.0844 H   0  0  0  0  0  0
  -20.9960  -28.3180   24.1440 H   0  0  0  0  0  0
  -20.5615  -26.2264   23.3590 H   0  0  0  0  0  0
  -21.6592  -26.7420   22.1197 H   0  0  0  0  0  0
  -19.6788  -25.6306   21.1236 H   0  0  0  0  0  0
  -19.6629  -27.3237   20.6769 H   0  0  0  0  0  0
  -17.4149  -26.6827   21.4016 H   0  0  0  0  0  0
  -18.0223  -26.0125   22.9021 H   0  0  0  0  0  0
  -19.7919  -30.7360   24.2195 H   0  0  0  0  0  0
  -17.5026  -31.6297   24.5225 H   0  0  0  0  0  0
  -15.5359  -30.3064   23.7728 H   0  0  0  0  0  0
  -15.8645  -28.0909   22.7100 H   0  0  0  0  0  0
  -24.5908  -30.7172   25.8018 H   0  0  0  0  0  0
  -24.9020  -32.3007   26.5028 H   0  0  0  0  0  0
  -25.8177  -30.9040   27.0351 H   0  0  0  0  0  0
  -26.2901  -29.6863   24.1263 H   0  0  0  0  0  0
  -27.4157  -29.7421   25.4694 H   0  0  0  0  0  0
  -27.8742  -30.4523   23.9376 H   0  0  0  0  0  0
  -27.2650  -33.3721   26.2120 H   0  0  0  0  0  0
  -28.3851  -32.6977   25.0352 H   0  0  0  0  0  0
  -28.0773  -31.8582   26.5460 H   0  0  0  0  0  0
  -28.2554  -38.0049   24.7603 H   0  0  0  0  0  0
  -28.0994  -36.2609   24.6165 H   0  0  0  0  0  0
  -27.2299  -37.1264   25.8891 H   0  0  0  0  0  0
  -20.9256  -29.8819   21.6996 H   0  0  0  0  0  0
  -26.0051  -38.2829   24.1694 H   0  0  0  0  0  0
  -31.3014  -14.6120   17.5263 H   0  0  0  0  0  0
  -27.4919  -21.0829   15.6313 H   0  0  0  0  0  0
  -27.9829  -22.1006   16.9765 H   0  0  0  0  0  0
  -27.3458  -20.4835   17.2866 H   0  0  0  0  0  0
  -30.1802  -26.9241   23.0737 H   0  0  0  0  0  0
  -29.4359  -28.2742   22.3074 H   0  0  0  0  0  0
  -30.7476  -27.4419   21.4901 H   0  0  0  0  0  0
  -29.9369  -20.9913   15.7433 H   0  0  0  0  0  0
  -29.2807  -19.4426   16.1958 H   0  0  0  0  0  0
  -28.5902  -24.1854   21.1552 H   0  0  0  0  0  0
  -29.7869  -24.5934   22.3625 H   0  0  0  0  0  0
  -29.5062  -20.1808   18.6722 H   0  0  0  0  0  0
  -33.1648  -16.5028   14.8895 H   0  0  0  0  0  0
  -27.9861  -26.2926   22.1442 H   0  0  0  0  0  0
  -29.0961  -15.4835   19.8071 H   0  0  0  0  0  0
  -32.0062  -20.0505   17.1505 H   0  0  0  0  0  0
  -31.0500  -25.5789   20.3606 H   0  0  0  0  0  0
  1 25  1  0  0  0
  1 30  2  0  0  0
  1 88  1  0  0  0
  2  3  1  0  0  0
  2 25  1  0  0  0
  2 95  1  0  0  0
  2 96  1  0  0  0
  3  4  1  0  0  0
  3 97  1  0  0  0
  3 98  1  0  0  0
  4  5  1  0  0  0
  4 99  1  0  0  0
  4100  1  0  0  0
  5  6  1  0  0  0
  5 26  1  0  0  0
  5101  1  0  0  0
  6 25  1  0  0  0
  6102  1  0  0  0
  6103  1  0  0  0
  7  8  2  0  0  0
  7 26  1  0  0  0
  7 29  1  0  0  0
  8  9  1  0  0  0
  8 22  1  0  0  0
  9 10  1  0  0  0
  9 27  2  0  0  0
 10 11  2  0  0  0
 10 15  1  0  0  0
 11 12  1  0  0  0
 11104  1  0  0  0
 12 13  2  0  0  0
 12105  1  0  0  0
 13 14  1  0  0  0
 13 31  1  0  0  0
 14 15  2  0  0  0
 14106  1  0  0  0
 15107  1  0  0  0
 16 17  2  0  0  0
 16 21  1  0  0  0
 16 31  1  0  0  0
 17 18  1  0  0  0
 17108  1  0  0  0
 18 19  2  0  0  0
 18109  1  0  0  0
 19 20  1  0  0  0
 19 24  1  0  0  0
 20 21  2  0  0  0
 20110  1  0  0  0
 21 23  1  0  0  0
 22 28  1  0  0  0
 22 32  2  0  0  0
 26 27  1  0  0  0
 28111  1  0  0  0
 28112  1  0  0  0
 29113  1  0  0  0
 29114  1  0  0  0
 33 34  1  0  0  0
 33 66  1  0  0  0
 33 70  2  0  0  0
 34 36  1  0  0  0
 34 59  1  0  0  0
 34115  1  0  0  0
 35 44  2  0  0  0
 35 45  1  0  0  0
 35 68  1  0  0  0
 36 56  1  0  0  0
 36116  1  0  0  0
 37 39  1  0  0  0
 37 47  1  0  0  0
 37 66  1  0  0  0
 37117  1  0  0  0
 38 43  2  0  0  0
 38 46  1  0  0  0
 38 47  1  0  0  0
 39 64  1  0  0  0
 39 67  2  0  0  0
 40 52  1  0  0  0
 40 53  2  0  0  0
 40 58  1  0  0  0
 41118  1  0  0  0
 41119  1  0  0  0
 41120  1  0  0  0
 41 48  1  0  0  0
 42 43  1  0  0  0
 42 66  1  0  0  0
 42121  1  0  0  0
 42122  1  0  0  0
 43 44  1  0  0  0
 44123  1  0  0  0
 45 46  2  0  0  0
 45124  1  0  0  0
 46125  1  0  0  0
 47126  1  0  0  0
 47127  1  0  0  0
 48 56  1  0  0  0
 48 65  1  0  0  0
 48128  1  0  0  0
 49 50  1  0  0  0
 49 53  1  0  0  0
 49 64  1  0  0  0
 49129  1  0  0  0
 50 51  1  0  0  0
 50130  1  0  0  0
 50131  1  0  0  0
 51 52  1  0  0  0
 51132  1  0  0  0
 51133  1  0  0  0
 52134  1  0  0  0
 52135  1  0  0  0
 53 54  1  0  0  0
 54 55  2  0  0  0
 54136  1  0  0  0
 55 57  1  0  0  0
 55137  1  0  0  0
 56 69  2  0  0  0
 57 58  2  0  0  0
 57138  1  0  0  0
 58139  1  0  0  0
 59 60  1  0  0  0
 59 61  1  0  0  0
 59 62  1  0  0  0
 60140  1  0  0  0
 60141  1  0  0  0
 60142  1  0  0  0
 61143  1  0  0  0
 61144  1  0  0  0
 61145  1  0  0  0
 62146  1  0  0  0
 62147  1  0  0  0
 62148  1  0  0  0
 63 65  1  0  0  0
 63149  1  0  0  0
 63150  1  0  0  0
 63151  1  0  0  0
 64152  1  0  0  0
 65153  1  0  0  0
 68 84  1  0  0  0
 71 72  2  0  0  0
 71 74  1  0  0  0
 71154  1  0  0  0
 72 83  1  0  0  0
 72 85  1  0  0  0
 73 75  2  0  0  0
 73 82  1  0  0  0
 73 86  1  0  0  0
 74 87  2  0  0  0
 74 88  1  0  0  0
 75 91  1  0  0  0
 75 94  1  0  0  0
 76 85  2  0  0  0
 76 87  1  0  0  0
 76 89  1  0  0  0
 77 86  2  0  0  0
 77 90  1  0  0  0
 77 94  1  0  0  0
 78 80  1  0  0  0
 78155  1  0  0  0
 78156  1  0  0  0
 78157  1  0  0  0
 79158  1  0  0  0
 79159  1  0  0  0
 79160  1  0  0  0
 79 84  1  0  0  0
 80161  1  0  0  0
 80162  1  0  0  0
 80 82  1  0  0  0
 81 84  1  0  0  0
 81 90  1  0  0  0
 81163  1  0  0  0
 81164  1  0  0  0
 82 89  1  0  0  0
 82165  1  0  0  0
 83 92  1  0  0  0
 83 93  1  0  0  0
 83166  1  0  0  0
 84167  1  0  0  0
 88168  1  0  0  0
 89169  1  0  0  0
 90170  1  0  0  0
M  ISO  4   1 100  68 101  84 101  88 100
M  END
> <chiral flag>
0

> <version>
0

> <s_m_source_file>
/data/baiqing/PycharmProjects/Reinvent-master-3.2/result/LINK_invent/BTK/process_docking_weight1_custom_product_contain_oxygen_bond_distance_aromatic_linkinvent_7_9_3/rearranged_h_0189.sdf

> <i_m_source_file_index>
32

> <r_mmod_Potential_Energy-OPLS-2005>
-529.65673828125

> <r_mmod_Stretch_Energy-OPLS-2005>
34.9431266784668

> <r_mmod_Bend_Energy-OPLS-2005>
105.342102050781

> <r_mmod_Torsional_Energy-OPLS-2005>
310.646453857422

> <r_mmod_Improper_Torsional_Energy-OPLS-2005>
20.7909927368164

> <r_mmod_Van_der_Waal_Energy-OPLS-2005>
147.987060546875

> <r_mmod_Electrostatic_Energy-OPLS-2005>
-946.460083007812

> <r_mmod_Solvation_Energy-OPLS-2005>
-247.155578613281

> <b_mmod_Minimization_Converged-OPLS-2005>
0

> <r_mmod_RMS_Derivative-OPLS-2005>
5.60170841217041

$$$$
32
                    3D
 Structure written by MMmdl.
163171  0  0  1  0            999 V2000
  -30.6947  -14.4730   20.5893 C   0  0  0  0  0  0
  -30.4237  -12.3097   19.4312 C   0  0  0  0  0  0
  -29.4897  -12.5047   18.2172 C   0  0  0  0  0  0
  -28.0105  -12.3776   18.6275 C   0  0  0  0  0  0
  -27.6616  -13.2114   19.8889 C   0  0  2  0  0  0
  -28.7023  -12.9787   21.0078 C   0  0  0  0  0  0
  -25.2517  -13.8169   20.5629 C   0  0  0  0  0  0
  -24.1804  -13.0424   20.9202 C   0  0  0  0  0  0
  -24.6388  -11.6907   20.8749 C   0  0  0  0  0  0
  -23.9091  -10.4296   21.0422 C   0  0  0  0  0  0
  -24.3656   -9.4207   21.9187 C   0  0  0  0  0  0
  -23.6331   -8.2250   22.0748 C   0  0  0  0  0  0
  -22.4306   -8.0278   21.3552 C   0  0  0  0  0  0
  -21.9966   -9.0245   20.4652 C   0  0  0  0  0  0
  -22.7280  -10.2134   20.3069 C   0  0  0  0  0  0
  -21.6860   -6.0765   22.5281 C   0  0  0  0  0  0
  -21.4028   -6.5663   23.8225 C   0  0  0  0  0  0
  -21.3640   -5.6782   24.9172 C   0  0  0  0  0  0
  -21.6046   -4.3055   24.7214 C   0  0  0  0  0  0
  -21.8807   -3.8174   23.4323 C   0  0  0  0  0  0
  -21.9211   -4.7002   22.3390 C   0  0  0  0  0  0
  -22.7820  -13.5175   21.1862 C   0  0  0  0  0  0
  -22.1650   -4.2177   21.0951 F   0  0  0  0  0  0
  -21.5663   -3.4543   25.7733 F   0  0  0  0  0  0
  -30.0371  -13.2840   20.4649 N   0  0  0  0  0  0
  -26.3009  -12.9354   20.3459 N   0  0  0  0  0  0
  -25.9334  -11.6508   20.5866 N   0  0  0  0  0  0
  -22.0494  -12.8134   22.0435 N   0  0  0  0  0  0
  -25.4118  -15.1889   20.3858 N   0  0  0  0  0  0
  -31.7825  -14.6885   20.0431 O   0  0  0  0  0  0
  -21.6650   -6.8900   21.4239 O   0  0  0  0  0  0
  -22.3467  -14.5469   20.6713 O   0  0  0  0  0  0
  -24.6175  -31.8661   23.2078 C   0  0  0  0  0  0
  -25.9049  -32.4805   23.8384 C   0  0  1  0  0  0
  -27.2406  -27.4109   20.0979 C   0  0  0  0  0  0
  -25.5897  -33.8624   24.2308 N   0  0  0  0  0  0
  -23.4069  -30.4862   21.5507 C   0  0  2  0  0  0
  -24.8521  -28.9491   20.1164 C   0  0  0  0  0  0
  -22.7414  -29.4664   22.5019 C   0  0  0  0  0  0
  -18.0265  -28.1380   22.8499 C   0  0  0  0  0  0
  -24.1490  -36.7309   23.2633 C   0  0  0  0  0  0
  -25.9362  -30.8251   21.3622 C   0  0  0  0  0  0
  -26.0151  -29.4553   20.7116 C   0  0  0  0  0  0
  -27.2091  -28.6974   20.6930 C   0  0  0  0  0  0
  -26.0546  -26.9245   19.4981 C   0  0  0  0  0  0
  -24.8707  -27.6846   19.5059 C   0  0  0  0  0  0
  -23.6119  -29.8131   20.1670 C   0  0  0  0  0  0
  -25.4114  -36.3117   24.0324 C   0  0  1  0  0  0
  -20.5862  -28.3678   23.1330 C   0  0  2  0  0  0
  -20.6752  -26.9413   22.5434 C   0  0  0  0  0  0
  -19.5736  -26.6390   21.5226 C   0  0  0  0  0  0
  -18.1910  -26.7928   22.1629 C   0  0  0  0  0  0
  -19.1515  -28.8850   23.2914 C   0  0  0  0  0  0
  -18.9439  -30.1449   23.8928 C   0  0  0  0  0  0
  -17.6441  -30.6580   24.0568 C   0  0  0  0  0  0
  -25.9046  -34.9479   23.5116 C   0  0  0  0  0  0
  -16.5332  -29.9083   23.6329 C   0  0  0  0  0  0
  -16.7263  -28.6505   23.0351 C   0  0  0  0  0  0
  -26.4465  -31.6582   25.0717 C   0  0  0  0  0  0
  -25.3717  -31.3653   26.1445 C   0  0  0  0  0  0
  -27.0277  -30.3027   24.6081 C   0  0  0  0  0  0
  -27.6072  -32.4262   25.7471 C   0  0  0  0  0  0
  -27.5602  -37.1787   24.8447 C   0  0  0  0  0  0
  -21.4140  -29.3038   22.3740 N   0  0  0  0  0  0
  -26.4294  -37.3802   23.9427 N   0  0  0  0  0  0
  -24.6725  -31.0724   22.0987 N   0  0  0  0  0  0
  -23.4172  -28.8202   23.3076 O   0  0  0  0  0  0
  -28.4189  -26.6810   20.0977 O   0  0  0  0  0  0
  -26.5621  -34.8938   22.4688 O   0  0  0  0  0  0
  -23.5353  -32.1432   23.7449 O   0  0  0  0  0  0
  -29.3418  -18.3046   19.4371 C   0  0  0  0  0  0
  -29.2299  -18.8273   20.6992 C   0  0  0  0  0  0
  -29.8448  -16.7419   20.8366 C   0  0  0  0  0  0
  -28.9046  -20.6437   23.4524 C   0  0  0  0  0  0
  -30.3463  -24.7443   18.7067 C   0  0  0  0  0  0
  -30.6767  -25.2028   21.1351 C   0  0  0  0  0  0
  -29.2200  -22.4971   21.7562 C   0  0  0  0  0  0
  -29.6685  -22.9930   20.3542 C   0  0  0  0  0  0
  -28.3345  -25.2354   20.1238 C   0  0  0  0  0  0
  -29.4376  -20.9803   22.0481 C   0  0  2  0  0  0
  -29.7347  -24.5431   20.1084 C   0  0  0  0  0  0
  -29.5566  -17.8099   21.6005 N   0  0  0  0  0  0
  -28.8178  -20.1400   21.0249 N   0  0  0  0  0  0
  -30.0741  -15.4244   21.3104 N   0  0  0  0  0  0
  -29.7389  -16.9949   19.5047 O   0  0  0  0  0  0
  -31.4673  -12.4154   19.1277 H   0  0  0  0  0  0
  -30.3330  -11.2971   19.8243 H   0  0  0  0  0  0
  -29.7218  -11.7732   17.4434 H   0  0  0  0  0  0
  -29.6664  -13.4846   17.7683 H   0  0  0  0  0  0
  -27.8106  -11.3228   18.8182 H   0  0  0  0  0  0
  -27.3630  -12.6640   17.7951 H   0  0  0  0  0  0
  -27.7094  -14.2626   19.6047 H   0  0  0  0  0  0
  -28.6795  -11.9373   21.3336 H   0  0  0  0  0  0
  -28.4568  -13.5595   21.8977 H   0  0  0  0  0  0
  -25.2815   -9.5664   22.4757 H   0  0  0  0  0  0
  -24.0056   -7.4633   22.7449 H   0  0  0  0  0  0
  -21.0955   -8.8781   19.8911 H   0  0  0  0  0  0
  -22.3782  -10.9691   19.6185 H   0  0  0  0  0  0
  -21.1982   -7.6166   23.9732 H   0  0  0  0  0  0
  -21.1484   -6.0525   25.9071 H   0  0  0  0  0  0
  -22.0611   -2.7646   23.2837 H   0  0  0  0  0  0
  -22.4172  -11.9821   22.4821 H   0  0  0  0  0  0
  -21.1090  -13.1089   22.2649 H   0  0  0  0  0  0
  -24.6181  -15.8211   20.4137 H   0  0  0  0  0  0
  -26.2400  -15.6194   19.9959 H   0  0  0  0  0  0
  -26.7131  -32.5502   23.1158 H   0  0  0  0  0  0
  -25.0031  -33.9784   25.0446 H   0  0  0  0  0  0
  -22.6992  -31.3051   21.4075 H   0  0  0  0  0  0
  -23.3781  -35.9613   23.3250 H   0  0  0  0  0  0
  -24.3599  -36.8976   22.2060 H   0  0  0  0  0  0
  -23.7197  -37.6479   23.6679 H   0  0  0  0  0  0
  -26.0436  -31.5919   20.5925 H   0  0  0  0  0  0
  -26.8241  -30.8830   21.9793 H   0  0  0  0  0  0
  -28.1088  -29.0881   21.1477 H   0  0  0  0  0  0
  -26.0182  -25.9643   19.0069 H   0  0  0  0  0  0
  -23.9816  -27.2913   19.0353 H   0  0  0  0  0  0
  -23.7129  -30.5856   19.4039 H   0  0  0  0  0  0
  -22.7357  -29.2282   19.8769 H   0  0  0  0  0  0
  -25.1280  -36.1988   25.0811 H   0  0  0  0  0  0
  -20.9927  -28.3228   24.1464 H   0  0  0  0  0  0
  -20.5676  -26.2280   23.3618 H   0  0  0  0  0  0
  -21.6619  -26.7457   22.1231 H   0  0  0  0  0  0
  -19.6912  -25.6312   21.1236 H   0  0  0  0  0  0
  -19.6678  -27.3220   20.6776 H   0  0  0  0  0  0
  -17.4183  -26.6714   21.4013 H   0  0  0  0  0  0
  -18.0294  -26.0055   22.9015 H   0  0  0  0  0  0
  -19.7903  -30.7262   24.2310 H   0  0  0  0  0  0
  -17.4985  -31.6259   24.5166 H   0  0  0  0  0  0
  -15.5334  -30.2984   23.7638 H   0  0  0  0  0  0
  -15.8671  -28.0825   22.7054 H   0  0  0  0  0  0
  -24.5942  -30.6953   25.7754 H   0  0  0  0  0  0
  -24.8853  -32.2778   26.4896 H   0  0  0  0  0  0
  -25.8075  -30.8824   27.0203 H   0  0  0  0  0  0
  -26.2803  -29.6796   24.1148 H   0  0  0  0  0  0
  -27.4050  -29.7251   25.4530 H   0  0  0  0  0  0
  -27.8642  -30.4342   23.9213 H   0  0  0  0  0  0
  -27.2756  -33.3590   26.2046 H   0  0  0  0  0  0
  -28.3882  -32.6749   25.0272 H   0  0  0  0  0  0
  -28.0721  -31.8355   26.5371 H   0  0  0  0  0  0
  -28.2537  -38.0162   24.7610 H   0  0  0  0  0  0
  -28.1167  -36.2697   24.6113 H   0  0  0  0  0  0
  -27.2332  -37.1245   25.8845 H   0  0  0  0  0  0
  -20.9305  -29.8780   21.6970 H   0  0  0  0  0  0
  -26.0173  -38.2864   24.1515 H   0  0  0  0  0  0
  -29.1739  -18.7026   18.4455 H   0  0  0  0  0  0
  -29.4336  -21.2123   24.2197 H   0  0  0  0  0  0
  -29.0297  -19.5894   23.6995 H   0  0  0  0  0  0
  -27.8434  -20.8780   23.5490 H   0  0  0  0  0  0
  -31.3573  -24.3383   18.6401 H   0  0  0  0  0  0
  -30.4010  -25.8004   18.4415 H   0  0  0  0  0  0
  -29.7503  -24.2485   17.9377 H   0  0  0  0  0  0
  -31.6322  -24.6808   21.1954 H   0  0  0  0  0  0
  -30.2458  -25.2231   22.1345 H   0  0  0  0  0  0
  -30.8946  -26.2352   20.8617 H   0  0  0  0  0  0
  -28.1706  -22.7479   21.8988 H   0  0  0  0  0  0
  -29.7588  -23.0460   22.5289 H   0  0  0  0  0  0
  -29.0139  -22.5453   19.6062 H   0  0  0  0  0  0
  -30.6571  -22.5671   20.1614 H   0  0  0  0  0  0
  -27.7713  -24.9280   21.0074 H   0  0  0  0  0  0
  -27.7838  -24.8608   19.2600 H   0  0  0  0  0  0
  -30.5102  -20.7746   22.0371 H   0  0  0  0  0  0
  -28.5198  -20.6781   20.2172 H   0  0  0  0  0  0
  -29.4084  -15.1048   21.9937 H   0  0  0  0  0  0
  1 25  1  0  0  0
  1 30  2  0  0  0
  1 84  1  0  0  0
  2  3  1  0  0  0
  2 25  1  0  0  0
  2 86  1  0  0  0
  2 87  1  0  0  0
  3  4  1  0  0  0
  3 88  1  0  0  0
  3 89  1  0  0  0
  4  5  1  0  0  0
  4 90  1  0  0  0
  4 91  1  0  0  0
  5  6  1  0  0  0
  5 26  1  0  0  0
  5 92  1  0  0  0
  6 25  1  0  0  0
  6 93  1  0  0  0
  6 94  1  0  0  0
  7  8  2  0  0  0
  7 26  1  0  0  0
  7 29  1  0  0  0
  8  9  1  0  0  0
  8 22  1  0  0  0
  9 10  1  0  0  0
  9 27  2  0  0  0
 10 11  2  0  0  0
 10 15  1  0  0  0
 11 12  1  0  0  0
 11 95  1  0  0  0
 12 13  2  0  0  0
 12 96  1  0  0  0
 13 14  1  0  0  0
 13 31  1  0  0  0
 14 15  2  0  0  0
 14 97  1  0  0  0
 15 98  1  0  0  0
 16 17  2  0  0  0
 16 21  1  0  0  0
 16 31  1  0  0  0
 17 18  1  0  0  0
 17 99  1  0  0  0
 18 19  2  0  0  0
 18100  1  0  0  0
 19 20  1  0  0  0
 19 24  1  0  0  0
 20 21  2  0  0  0
 20101  1  0  0  0
 21 23  1  0  0  0
 22 28  1  0  0  0
 22 32  2  0  0  0
 26 27  1  0  0  0
 28102  1  0  0  0
 28103  1  0  0  0
 29104  1  0  0  0
 29105  1  0  0  0
 33 34  1  0  0  0
 33 66  1  0  0  0
 33 70  2  0  0  0
 34 36  1  0  0  0
 34 59  1  0  0  0
 34106  1  0  0  0
 35 44  2  0  0  0
 35 45  1  0  0  0
 35 68  1  0  0  0
 36 56  1  0  0  0
 36107  1  0  0  0
 37 39  1  0  0  0
 37 47  1  0  0  0
 37 66  1  0  0  0
 37108  1  0  0  0
 38 43  2  0  0  0
 38 46  1  0  0  0
 38 47  1  0  0  0
 39 64  1  0  0  0
 39 67  2  0  0  0
 40 52  1  0  0  0
 40 53  2  0  0  0
 40 58  1  0  0  0
 41109  1  0  0  0
 41110  1  0  0  0
 41111  1  0  0  0
 41 48  1  0  0  0
 42 43  1  0  0  0
 42 66  1  0  0  0
 42112  1  0  0  0
 42113  1  0  0  0
 43 44  1  0  0  0
 44114  1  0  0  0
 45 46  2  0  0  0
 45115  1  0  0  0
 46116  1  0  0  0
 47117  1  0  0  0
 47118  1  0  0  0
 48 56  1  0  0  0
 48 65  1  0  0  0
 48119  1  0  0  0
 49 50  1  0  0  0
 49 53  1  0  0  0
 49 64  1  0  0  0
 49120  1  0  0  0
 50 51  1  0  0  0
 50121  1  0  0  0
 50122  1  0  0  0
 51 52  1  0  0  0
 51123  1  0  0  0
 51124  1  0  0  0
 52125  1  0  0  0
 52126  1  0  0  0
 53 54  1  0  0  0
 54 55  2  0  0  0
 54127  1  0  0  0
 55 57  1  0  0  0
 55128  1  0  0  0
 56 69  2  0  0  0
 57 58  2  0  0  0
 57129  1  0  0  0
 58130  1  0  0  0
 59 60  1  0  0  0
 59 61  1  0  0  0
 59 62  1  0  0  0
 60131  1  0  0  0
 60132  1  0  0  0
 60133  1  0  0  0
 61134  1  0  0  0
 61135  1  0  0  0
 61136  1  0  0  0
 62137  1  0  0  0
 62138  1  0  0  0
 62139  1  0  0  0
 63 65  1  0  0  0
 63140  1  0  0  0
 63141  1  0  0  0
 63142  1  0  0  0
 64143  1  0  0  0
 65144  1  0  0  0
 68 79  1  0  0  0
 71 72  2  0  0  0
 71 85  1  0  0  0
 71145  1  0  0  0
 72 82  1  0  0  0
 72 83  1  0  0  0
 73 82  2  0  0  0
 73 84  1  0  0  0
 73 85  1  0  0  0
 74146  1  0  0  0
 74147  1  0  0  0
 74148  1  0  0  0
 74 80  1  0  0  0
 75149  1  0  0  0
 75150  1  0  0  0
 75151  1  0  0  0
 75 81  1  0  0  0
 76 81  1  0  0  0
 76152  1  0  0  0
 76153  1  0  0  0
 76154  1  0  0  0
 77 78  1  0  0  0
 77 80  1  0  0  0
 77155  1  0  0  0
 77156  1  0  0  0
 78 81  1  0  0  0
 78157  1  0  0  0
 78158  1  0  0  0
 79 81  1  0  0  0
 79159  1  0  0  0
 79160  1  0  0  0
 80 83  1  0  0  0
 80161  1  0  0  0
 83162  1  0  0  0
 84163  1  0  0  0
M  ISO  4   1 100  68 101  79 101  84 100
M  END
> <chiral flag>
0

> <version>
0

> <s_m_source_file>
/data/baiqing/PycharmProjects/Reinvent-master-3.2/result/LINK_invent/BTK/process_docking_weight1_custom_product_contain_oxygen_bond_distance_aromatic_linkinvent_7_9_3/rearranged_h_0189.sdf

> <i_m_source_file_index>
33

> <r_mmod_Potential_Energy-OPLS-2005>
-172.851379394531

> <r_mmod_Stretch_Energy-OPLS-2005>
40.1036796569824

> <r_mmod_Bend_Energy-OPLS-2005>
116.508262634277

> <r_mmod_Torsional_Energy-OPLS-2005>
245.55029296875

> <r_mmod_Improper_Torsional_Energy-OPLS-2005>
8.23051357269287

> <r_mmod_Van_der_Waal_Energy-OPLS-2005>
126.894218444824

> <r_mmod_Electrostatic_Energy-OPLS-2005>
-504.402557373047

> <r_mmod_Solvation_Energy-OPLS-2005>
-218.545608520508

> <b_mmod_Minimization_Converged-OPLS-2005>
0

> <r_mmod_RMS_Derivative-OPLS-2005>
4.00877857208252

$$$$
33
                    3D
 Structure written by MMmdl.
170178  0  0  1  0            999 V2000
  -30.4836  -14.8619   20.3651 C   0  0  0  0  0  0
  -30.4652  -12.5142   19.4780 C   0  0  0  0  0  0
  -29.5245  -12.4043   18.2502 C   0  0  0  0  0  0
  -28.0267  -12.3593   18.6279 C   0  0  0  0  0  0
  -27.6382  -13.2344   19.8471 C   0  0  2  0  0  0
  -28.6899  -13.1691   20.9748 C   0  0  0  0  0  0
  -25.2489  -13.8223   20.5797 C   0  0  0  0  0  0
  -24.1771  -13.0481   20.9331 C   0  0  0  0  0  0
  -24.6323  -11.6957   20.8744 C   0  0  0  0  0  0
  -23.8957  -10.4362   21.0382 C   0  0  0  0  0  0
  -24.3531   -9.4257   21.9098 C   0  0  0  0  0  0
  -23.6285   -8.2280   22.0650 C   0  0  0  0  0  0
  -22.4229   -8.0294   21.3491 C   0  0  0  0  0  0
  -21.9857   -9.0257   20.4597 C   0  0  0  0  0  0
  -22.7114  -10.2156   20.3044 C   0  0  0  0  0  0
  -21.6817   -6.0807   22.5311 C   0  0  0  0  0  0
  -21.3993   -6.5697   23.8267 C   0  0  0  0  0  0
  -21.3665   -5.6803   24.9199 C   0  0  0  0  0  0
  -21.6068   -4.3075   24.7175 C   0  0  0  0  0  0
  -21.8824   -3.8206   23.4280 C   0  0  0  0  0  0
  -21.9158   -4.7051   22.3377 C   0  0  0  0  0  0
  -22.7733  -13.5165   21.1974 C   0  0  0  0  0  0
  -22.1600   -4.2271   21.0928 F   0  0  0  0  0  0
  -21.5627   -3.4525   25.7660 F   0  0  0  0  0  0
  -29.9618  -13.5815   20.3744 N   0  0  0  0  0  0
  -26.2891  -12.9422   20.3226 N   0  0  0  0  0  0
  -25.9239  -11.6579   20.5615 N   0  0  0  0  0  0
  -22.0404  -12.8161   22.0579 N   0  0  0  0  0  0
  -25.4248  -15.1972   20.4194 N   0  0  0  0  0  0
  -31.6786  -15.0106   20.0918 O   0  0  0  0  0  0
  -21.6608   -6.8905   21.4239 O   0  0  0  0  0  0
  -22.3389  -14.5371   20.6639 O   0  0  0  0  0  0
  -24.6335  -31.8563   23.1969 C   0  0  0  0  0  0
  -25.9156  -32.4756   23.8323 C   0  0  1  0  0  0
  -27.2138  -27.2433   20.1613 C   0  0  0  0  0  0
  -25.5936  -33.8559   24.2258 N   0  0  0  0  0  0
  -23.4289  -30.4765   21.5411 C   0  0  2  0  0  0
  -24.8772  -28.9110   20.1194 C   0  0  0  0  0  0
  -22.7511  -29.4626   22.4928 C   0  0  0  0  0  0
  -18.0295  -28.1374   22.8491 C   0  0  0  0  0  0
  -24.1485  -36.7264   23.2648 C   0  0  0  0  0  0
  -25.9732  -30.7668   21.3747 C   0  0  0  0  0  0
  -26.0485  -29.3832   20.7264 C   0  0  0  0  0  0
  -27.2249  -28.5657   20.7261 C   0  0  0  0  0  0
  -26.0227  -26.8315   19.5343 C   0  0  0  0  0  0
  -24.8708  -27.6455   19.5068 C   0  0  0  0  0  0
  -23.6478  -29.8027   20.1597 C   0  0  0  0  0  0
  -25.4107  -36.3068   24.0343 C   0  0  1  0  0  0
  -20.5904  -28.3687   23.1270 C   0  0  2  0  0  0
  -20.6777  -26.9398   22.5407 C   0  0  0  0  0  0
  -19.5748  -26.6375   21.5220 C   0  0  0  0  0  0
  -18.1935  -26.7921   22.1630 C   0  0  0  0  0  0
  -19.1544  -28.8851   23.2876 C   0  0  0  0  0  0
  -18.9460  -30.1465   23.8883 C   0  0  0  0  0  0
  -17.6450  -30.6578   24.0563 C   0  0  0  0  0  0
  -25.9061  -34.9443   23.5113 C   0  0  0  0  0  0
  -16.5349  -29.9070   23.6320 C   0  0  0  0  0  0
  -16.7287  -28.6484   23.0355 C   0  0  0  0  0  0
  -26.4504  -31.6579   25.0714 C   0  0  0  0  0  0
  -25.3720  -31.3707   26.1434 C   0  0  0  0  0  0
  -27.0349  -30.2998   24.6190 C   0  0  0  0  0  0
  -27.6058  -32.4315   25.7476 C   0  0  0  0  0  0
  -27.5583  -37.1780   24.8460 C   0  0  0  0  0  0
  -21.4225  -29.3043   22.3665 N   0  0  0  0  0  0
  -26.4269  -37.3772   23.9440 N   0  0  0  0  0  0
  -24.6976  -31.0526   22.0942 N   0  0  0  0  0  0
  -23.4216  -28.8185   23.3055 O   0  0  0  0  0  0
  -28.3156  -26.3607   20.1289 O   0  0  0  0  0  0
  -26.5624  -34.8928   22.4680 O   0  0  0  0  0  0
  -23.5488  -32.1369   23.7269 O   0  0  0  0  0  0
  -29.3522  -19.3659   19.0591 C   0  0  0  0  0  0
  -29.1592  -19.6309   20.3940 C   0  0  0  0  0  0
  -29.5352  -17.3893   20.1132 C   0  0  0  0  0  0
  -29.2900  -20.4123   17.9832 C   0  0  0  0  0  0
  -31.5864  -16.3873   16.6429 C   0  0  0  0  0  0
  -30.6515  -22.4592   20.7802 C   0  0  0  0  0  0
  -28.8369  -15.8589   17.4736 C   0  0  0  0  0  0
  -30.5576  -17.5280   16.6506 C   0  0  0  0  0  0
  -28.3014  -23.5396   20.2456 C   0  0  0  0  0  0
  -28.3051  -25.0520   20.8773 C   0  0  0  0  0  0
  -28.0667  -17.9819   16.6829 C   0  0  0  0  0  0
  -29.1361  -22.3473   20.9995 C   0  0  1  0  0  0
  -29.2529  -17.3348   17.4778 C   0  0  1  0  0  0
  -29.3128  -18.3685   21.0425 N   0  0  0  0  0  0
  -29.3908  -17.9439   18.8488 N   0  0  0  0  0  0
  -28.6933  -20.8836   21.0141 N   0  0  0  0  0  0
  -29.5728  -15.9292   20.4855 N   0  0  0  0  0  0
  -26.9596  -18.0989   17.4205 F   0  0  0  0  0  0
  -31.4793  -12.7147   19.1292 H   0  0  0  0  0  0
  -30.5314  -11.5752   20.0218 H   0  0  0  0  0  0
  -29.7757  -11.4966   17.7026 H   0  0  0  0  0  0
  -29.7089  -13.2002   17.5354 H   0  0  0  0  0  0
  -27.7797  -11.3188   18.8273 H   0  0  0  0  0  0
  -27.4200  -12.6521   17.7692 H   0  0  0  0  0  0
  -27.6203  -14.2530   19.4769 H   0  0  0  0  0  0
  -28.7513  -12.1667   21.4064 H   0  0  0  0  0  0
  -28.4245  -13.8502   21.7865 H   0  0  0  0  0  0
  -25.2681   -9.5759   22.4628 H   0  0  0  0  0  0
  -24.0089   -7.4661   22.7288 H   0  0  0  0  0  0
  -21.0829   -8.8695   19.8842 H   0  0  0  0  0  0
  -22.3527  -10.9675   19.6170 H   0  0  0  0  0  0
  -21.1943   -7.6187   23.9855 H   0  0  0  0  0  0
  -21.1493   -6.0445   25.9129 H   0  0  0  0  0  0
  -22.0571   -2.7674   23.2667 H   0  0  0  0  0  0
  -22.4006  -11.9802   22.4971 H   0  0  0  0  0  0
  -21.1048  -13.1144   22.2977 H   0  0  0  0  0  0
  -24.6785  -15.8439   20.6394 H   0  0  0  0  0  0
  -26.1439  -15.6025   19.8363 H   0  0  0  0  0  0
  -26.7232  -32.5408   23.1067 H   0  0  0  0  0  0
  -25.0087  -33.9686   25.0407 H   0  0  0  0  0  0
  -22.7257  -31.2987   21.3922 H   0  0  0  0  0  0
  -23.3773  -35.9571   23.3274 H   0  0  0  0  0  0
  -24.3593  -36.8916   22.2072 H   0  0  0  0  0  0
  -23.7193  -37.6441   23.6678 H   0  0  0  0  0  0
  -26.1109  -31.5219   20.6000 H   0  0  0  0  0  0
  -26.8531  -30.8216   22.0022 H   0  0  0  0  0  0
  -28.1266  -28.9345   21.1972 H   0  0  0  0  0  0
  -25.9820  -25.8529   19.0752 H   0  0  0  0  0  0
  -23.9762  -27.2777   19.0240 H   0  0  0  0  0  0
  -23.7745  -30.5755   19.4000 H   0  0  0  0  0  0
  -22.7616  -29.2392   19.8571 H   0  0  0  0  0  0
  -25.1278  -36.1912   25.0828 H   0  0  0  0  0  0
  -21.0013  -28.3281   24.1390 H   0  0  0  0  0  0
  -20.5690  -26.2304   23.3625 H   0  0  0  0  0  0
  -21.6646  -26.7429   22.1194 H   0  0  0  0  0  0
  -19.6902  -25.6298   21.1244 H   0  0  0  0  0  0
  -19.6684  -27.3194   20.6758 H   0  0  0  0  0  0
  -17.4216  -26.6708   21.4024 H   0  0  0  0  0  0
  -18.0304  -26.0053   22.9006 H   0  0  0  0  0  0
  -19.7950  -30.7280   24.2238 H   0  0  0  0  0  0
  -17.5015  -31.6258   24.5167 H   0  0  0  0  0  0
  -15.5348  -30.2953   23.7658 H   0  0  0  0  0  0
  -15.8706  -28.0806   22.7047 H   0  0  0  0  0  0
  -24.5897  -30.7061   25.7741 H   0  0  0  0  0  0
  -24.8905  -32.2870   26.4867 H   0  0  0  0  0  0
  -25.8047  -30.8867   27.0199 H   0  0  0  0  0  0
  -26.2930  -29.6737   24.1220 H   0  0  0  0  0  0
  -27.4041  -29.7267   25.4702 H   0  0  0  0  0  0
  -27.8803  -30.4270   23.9419 H   0  0  0  0  0  0
  -27.2675  -33.3627   26.2023 H   0  0  0  0  0  0
  -28.3870  -32.6861   25.0300 H   0  0  0  0  0  0
  -28.0720  -31.8458   26.5403 H   0  0  0  0  0  0
  -28.2554  -38.0120   24.7579 H   0  0  0  0  0  0
  -28.1120  -36.2662   24.6177 H   0  0  0  0  0  0
  -27.2327  -37.1297   25.8863 H   0  0  0  0  0  0
  -20.9416  -29.8729   21.6827 H   0  0  0  0  0  0
  -26.0153  -38.2845   24.1462 H   0  0  0  0  0  0
  -28.2535  -20.6317   17.7230 H   0  0  0  0  0  0
  -29.8537  -20.1671   17.0840 H   0  0  0  0  0  0
  -29.7047  -21.3478   18.3350 H   0  0  0  0  0  0
  -32.4589  -16.7070   16.0735 H   0  0  0  0  0  0
  -31.2042  -15.4831   16.1624 H   0  0  0  0  0  0
  -31.9174  -16.1248   17.6452 H   0  0  0  0  0  0
  -31.0560  -23.3605   21.2438 H   0  0  0  0  0  0
  -30.9017  -22.5088   19.7230 H   0  0  0  0  0  0
  -31.1718  -21.6004   21.2087 H   0  0  0  0  0  0
  -27.8475  -15.7340   17.9095 H   0  0  0  0  0  0
  -29.5505  -15.2302   17.9751 H   0  0  0  0  0  0
  -28.7895  -15.4699   16.4557 H   0  0  0  0  0  0
  -30.3017  -17.7023   15.6063 H   0  0  0  0  0  0
  -31.0710  -18.4333   16.9700 H   0  0  0  0  0  0
  -28.6312  -23.5964   19.2080 H   0  0  0  0  0  0
  -27.2570  -23.2267   20.1823 H   0  0  0  0  0  0
  -29.2276  -25.1059   21.4576 H   0  0  0  0  0  0
  -27.5151  -25.1037   21.6296 H   0  0  0  0  0  0
  -27.7825  -17.3703   15.8266 H   0  0  0  0  0  0
  -28.2746  -18.9479   16.2323 H   0  0  0  0  0  0
  -28.9919  -22.6065   22.0535 H   0  0  0  0  0  0
  -28.3159  -20.6786   21.9351 H   0  0  0  0  0  0
  -28.6842  -15.6136   20.8450 H   0  0  0  0  0  0
  1 25  1  0  0  0
  1 30  2  0  0  0
  1 87  1  0  0  0
  2  3  1  0  0  0
  2 25  1  0  0  0
  2 89  1  0  0  0
  2 90  1  0  0  0
  3  4  1  0  0  0
  3 91  1  0  0  0
  3 92  1  0  0  0
  4  5  1  0  0  0
  4 93  1  0  0  0
  4 94  1  0  0  0
  5  6  1  0  0  0
  5 26  1  0  0  0
  5 95  1  0  0  0
  6 25  1  0  0  0
  6 96  1  0  0  0
  6 97  1  0  0  0
  7  8  2  0  0  0
  7 26  1  0  0  0
  7 29  1  0  0  0
  8  9  1  0  0  0
  8 22  1  0  0  0
  9 10  1  0  0  0
  9 27  2  0  0  0
 10 11  2  0  0  0
 10 15  1  0  0  0
 11 12  1  0  0  0
 11 98  1  0  0  0
 12 13  2  0  0  0
 12 99  1  0  0  0
 13 14  1  0  0  0
 13 31  1  0  0  0
 14 15  2  0  0  0
 14100  1  0  0  0
 15101  1  0  0  0
 16 17  2  0  0  0
 16 21  1  0  0  0
 16 31  1  0  0  0
 17 18  1  0  0  0
 17102  1  0  0  0
 18 19  2  0  0  0
 18103  1  0  0  0
 19 20  1  0  0  0
 19 24  1  0  0  0
 20 21  2  0  0  0
 20104  1  0  0  0
 21 23  1  0  0  0
 22 28  1  0  0  0
 22 32  2  0  0  0
 26 27  1  0  0  0
 28105  1  0  0  0
 28106  1  0  0  0
 29107  1  0  0  0
 29108  1  0  0  0
 33 34  1  0  0  0
 33 66  1  0  0  0
 33 70  2  0  0  0
 34 36  1  0  0  0
 34 59  1  0  0  0
 34109  1  0  0  0
 35 44  2  0  0  0
 35 45  1  0  0  0
 35 68  1  0  0  0
 36 56  1  0  0  0
 36110  1  0  0  0
 37 39  1  0  0  0
 37 47  1  0  0  0
 37 66  1  0  0  0
 37111  1  0  0  0
 38 43  2  0  0  0
 38 46  1  0  0  0
 38 47  1  0  0  0
 39 64  1  0  0  0
 39 67  2  0  0  0
 40 52  1  0  0  0
 40 53  2  0  0  0
 40 58  1  0  0  0
 41112  1  0  0  0
 41113  1  0  0  0
 41114  1  0  0  0
 41 48  1  0  0  0
 42 43  1  0  0  0
 42 66  1  0  0  0
 42115  1  0  0  0
 42116  1  0  0  0
 43 44  1  0  0  0
 44117  1  0  0  0
 45 46  2  0  0  0
 45118  1  0  0  0
 46119  1  0  0  0
 47120  1  0  0  0
 47121  1  0  0  0
 48 56  1  0  0  0
 48 65  1  0  0  0
 48122  1  0  0  0
 49 50  1  0  0  0
 49 53  1  0  0  0
 49 64  1  0  0  0
 49123  1  0  0  0
 50 51  1  0  0  0
 50124  1  0  0  0
 50125  1  0  0  0
 51 52  1  0  0  0
 51126  1  0  0  0
 51127  1  0  0  0
 52128  1  0  0  0
 52129  1  0  0  0
 53 54  1  0  0  0
 54 55  2  0  0  0
 54130  1  0  0  0
 55 57  1  0  0  0
 55131  1  0  0  0
 56 69  2  0  0  0
 57 58  2  0  0  0
 57132  1  0  0  0
 58133  1  0  0  0
 59 60  1  0  0  0
 59 61  1  0  0  0
 59 62  1  0  0  0
 60134  1  0  0  0
 60135  1  0  0  0
 60136  1  0  0  0
 61137  1  0  0  0
 61138  1  0  0  0
 61139  1  0  0  0
 62140  1  0  0  0
 62141  1  0  0  0
 62142  1  0  0  0
 63 65  1  0  0  0
 63143  1  0  0  0
 63144  1  0  0  0
 63145  1  0  0  0
 64146  1  0  0  0
 65147  1  0  0  0
 68 80  1  0  0  0
 71 72  2  0  0  0
 71 74  1  0  0  0
 71 85  1  0  0  0
 72 84  1  0  0  0
 72 86  1  0  0  0
 73 84  2  0  0  0
 73 85  1  0  0  0
 73 87  1  0  0  0
 74148  1  0  0  0
 74149  1  0  0  0
 74150  1  0  0  0
 75 78  1  0  0  0
 75151  1  0  0  0
 75152  1  0  0  0
 75153  1  0  0  0
 76154  1  0  0  0
 76155  1  0  0  0
 76156  1  0  0  0
 76 82  1  0  0  0
 77157  1  0  0  0
 77158  1  0  0  0
 77159  1  0  0  0
 77 83  1  0  0  0
 78 83  1  0  0  0
 78160  1  0  0  0
 78161  1  0  0  0
 79 80  1  0  0  0
 79 82  1  0  0  0
 79162  1  0  0  0
 79163  1  0  0  0
 80164  1  0  0  0
 80165  1  0  0  0
 81 83  1  0  0  0
 81 88  1  0  0  0
 81166  1  0  0  0
 81167  1  0  0  0
 82 86  1  0  0  0
 82168  1  0  0  0
 83 85  1  0  0  0
 86169  1  0  0  0
 87170  1  0  0  0
M  ISO  4   1 100  68 101  80 101  87 100
M  END
> <chiral flag>
0

> <version>
0

> <s_m_source_file>
/data/baiqing/PycharmProjects/Reinvent-master-3.2/result/LINK_invent/BTK/process_docking_weight1_custom_product_contain_oxygen_bond_distance_aromatic_linkinvent_7_9_3/rearranged_h_0189.sdf

> <i_m_source_file_index>
34

> <r_mmod_Potential_Energy-OPLS-2005>
367.516754150391

> <r_mmod_Stretch_Energy-OPLS-2005>
153.602386474609

> <r_mmod_Bend_Energy-OPLS-2005>
269.705444335938

> <r_mmod_Torsional_Energy-OPLS-2005>
365.997497558594

> <r_mmod_Improper_Torsional_Energy-OPLS-2005>
12.6190614700317

> <r_mmod_Van_der_Waal_Energy-OPLS-2005>
123.697898864746

> <r_mmod_Electrostatic_Energy-OPLS-2005>
-459.526763916016

> <r_mmod_Solvation_Energy-OPLS-2005>
-225.513031005859

> <b_mmod_Minimization_Converged-OPLS-2005>
0

> <r_mmod_RMS_Derivative-OPLS-2005>
7.43674612045288

$$$$
34
                    3D
 Structure written by MMmdl.
171179  0  0  1  0            999 V2000
  -30.5626  -14.8341   20.4019 C   0  0  0  0  0  0
  -30.4397  -12.4820   19.5279 C   0  0  0  0  0  0
  -29.5301  -12.4092   18.2801 C   0  0  0  0  0  0
  -28.0407  -12.3011   18.6794 C   0  0  0  0  0  0
  -27.6337  -13.2261   19.8580 C   0  0  2  0  0  0
  -28.6751  -13.2200   20.9969 C   0  0  0  0  0  0
  -25.2477  -13.8173   20.5750 C   0  0  0  0  0  0
  -24.1758  -13.0419   20.9260 C   0  0  0  0  0  0
  -24.6364  -11.6913   20.8833 C   0  0  0  0  0  0
  -23.9042  -10.4279   21.0465 C   0  0  0  0  0  0
  -24.3607   -9.4175   21.9204 C   0  0  0  0  0  0
  -23.6291   -8.2208   22.0757 C   0  0  0  0  0  0
  -22.4270   -8.0259   21.3551 C   0  0  0  0  0  0
  -21.9895   -9.0253   20.4665 C   0  0  0  0  0  0
  -22.7214  -10.2135   20.3091 C   0  0  0  0  0  0
  -21.6834   -6.0747   22.5292 C   0  0  0  0  0  0
  -21.3980   -6.5651   23.8223 C   0  0  0  0  0  0
  -21.3651   -5.6805   24.9197 C   0  0  0  0  0  0
  -21.6035   -4.3072   24.7250 C   0  0  0  0  0  0
  -21.8809   -3.8162   23.4366 C   0  0  0  0  0  0
  -21.9188   -4.6978   22.3421 C   0  0  0  0  0  0
  -22.7798  -13.5228   21.1930 C   0  0  0  0  0  0
  -22.1657   -4.2156   21.1012 F   0  0  0  0  0  0
  -21.5654   -3.4559   25.7767 F   0  0  0  0  0  0
  -29.9651  -13.5862   20.4020 N   0  0  0  0  0  0
  -26.2901  -12.9346   20.3385 N   0  0  0  0  0  0
  -25.9288  -11.6512   20.5865 N   0  0  0  0  0  0
  -22.0434  -12.8198   22.0468 N   0  0  0  0  0  0
  -25.4172  -15.1892   20.4144 N   0  0  0  0  0  0
  -31.7498  -14.9195   20.0773 O   0  0  0  0  0  0
  -21.6615   -6.8874   21.4242 O   0  0  0  0  0  0
  -22.3479  -14.5533   20.6778 O   0  0  0  0  0  0
  -24.6310  -31.8532   23.1993 C   0  0  0  0  0  0
  -25.9133  -32.4760   23.8317 C   0  0  1  0  0  0
  -27.2161  -27.2544   20.1232 C   0  0  0  0  0  0
  -25.5926  -33.8559   24.2249 N   0  0  0  0  0  0
  -23.4292  -30.4769   21.5465 C   0  0  2  0  0  0
  -24.8758  -28.9252   20.1129 C   0  0  0  0  0  0
  -22.7502  -29.4570   22.4934 C   0  0  0  0  0  0
  -18.0287  -28.1391   22.8486 C   0  0  0  0  0  0
  -24.1498  -36.7292   23.2627 C   0  0  0  0  0  0
  -25.9775  -30.7648   21.3802 C   0  0  0  0  0  0
  -26.0524  -29.3882   20.7184 C   0  0  0  0  0  0
  -27.2304  -28.5689   20.7048 C   0  0  0  0  0  0
  -26.0205  -26.8688   19.4779 C   0  0  0  0  0  0
  -24.8660  -27.6739   19.4825 C   0  0  0  0  0  0
  -23.6472  -29.8121   20.1647 C   0  0  0  0  0  0
  -25.4133  -36.3062   24.0292 C   0  0  1  0  0  0
  -20.5900  -28.3685   23.1282 C   0  0  2  0  0  0
  -20.6783  -26.9402   22.5408 C   0  0  0  0  0  0
  -19.5751  -26.6368   21.5222 C   0  0  0  0  0  0
  -18.1933  -26.7922   22.1631 C   0  0  0  0  0  0
  -19.1553  -28.8851   23.2899 C   0  0  0  0  0  0
  -18.9458  -30.1455   23.8903 C   0  0  0  0  0  0
  -17.6461  -30.6599   24.0557 C   0  0  0  0  0  0
  -25.9048  -34.9419   23.5076 C   0  0  0  0  0  0
  -16.5361  -29.9098   23.6325 C   0  0  0  0  0  0
  -16.7275  -28.6520   23.0337 C   0  0  0  0  0  0
  -26.4481  -31.6596   25.0722 C   0  0  0  0  0  0
  -25.3666  -31.3806   26.1430 C   0  0  0  0  0  0
  -27.0296  -30.2975   24.6235 C   0  0  0  0  0  0
  -27.6020  -32.4342   25.7526 C   0  0  0  0  0  0
  -27.5597  -37.1799   24.8452 C   0  0  0  0  0  0
  -21.4208  -29.3035   22.3663 N   0  0  0  0  0  0
  -26.4321  -37.3755   23.9397 N   0  0  0  0  0  0
  -24.6992  -31.0472   22.0992 N   0  0  0  0  0  0
  -23.4196  -28.8094   23.3023 O   0  0  0  0  0  0
  -28.2786  -26.3164   20.1805 O   0  0  0  0  0  0
  -26.5619  -34.8880   22.4643 O   0  0  0  0  0  0
  -23.5461  -32.1391   23.7293 O   0  0  0  0  0  0
  -30.7381  -21.0945   20.8590 C   0  0  0  0  0  0
  -29.3973  -21.1109   20.5601 C   0  0  0  0  0  0
  -29.8904  -18.7537   20.3503 C   0  0  0  0  0  0
  -28.9900  -23.7158   20.4129 C   0  0  0  0  0  0
  -28.0824  -18.4421   16.2437 C   0  0  0  0  0  0
  -28.0031  -23.0257   23.7898 C   0  0  0  0  0  0
  -29.1683  -15.9724   17.5746 C   0  0  0  0  0  0
  -29.0632  -25.6667   22.9488 C   0  0  0  0  0  0
  -29.1084  -18.4624   17.3934 C   0  0  0  0  0  0
  -27.0868  -23.9920   23.0180 C   0  0  0  0  0  0
  -29.8599  -17.3018   19.6789 C   0  0  2  0  0  0
  -27.9624  -24.9311   20.7191 C   0  0  1  0  0  0
  -28.9611  -17.2648   18.3809 C   0  0  2  0  0  0
  -27.7782  -25.1544   22.2562 C   0  0  2  0  0  0
  -28.9256  -19.7491   20.3690 N   0  0  0  0  0  0
  -28.6063  -22.3736   20.5213 N   0  0  0  0  0  0
  -29.7590  -15.9805   20.4886 N   0  0  0  0  0  0
  -30.1329  -24.0159   20.0566 O   0  0  0  0  0  0
  -31.4425  -19.4802   20.7977 S   0  0  0  0  0  0
  -31.4764  -12.6160   19.2200 H   0  0  0  0  0  0
  -30.4192  -11.5395   20.0756 H   0  0  0  0  0  0
  -29.7970  -11.5362   17.6848 H   0  0  0  0  0  0
  -29.7134  -13.2499   17.6173 H   0  0  0  0  0  0
  -27.8766  -11.2654   18.9736 H   0  0  0  0  0  0
  -27.3990  -12.4740   17.8165 H   0  0  0  0  0  0
  -27.5853  -14.2319   19.4529 H   0  0  0  0  0  0
  -28.7277  -12.2419   21.4824 H   0  0  0  0  0  0
  -28.3959  -13.9333   21.7736 H   0  0  0  0  0  0
  -25.2738   -9.5663   22.4795 H   0  0  0  0  0  0
  -24.0005   -7.4591   22.7448 H   0  0  0  0  0  0
  -21.0837   -8.8780   19.8975 H   0  0  0  0  0  0
  -22.3655  -10.9711   19.6245 H   0  0  0  0  0  0
  -21.1910   -7.6149   23.9724 H   0  0  0  0  0  0
  -21.1496   -6.0551   25.9100 H   0  0  0  0  0  0
  -22.0587   -2.7621   23.2885 H   0  0  0  0  0  0
  -22.4031  -11.9847   22.4828 H   0  0  0  0  0  0
  -21.1068  -13.1263   22.2715 H   0  0  0  0  0  0
  -24.6468  -15.8419   20.5052 H   0  0  0  0  0  0
  -26.2604  -15.6228   20.0664 H   0  0  0  0  0  0
  -26.7196  -32.5397   23.1058 H   0  0  0  0  0  0
  -25.0069  -33.9721   25.0385 H   0  0  0  0  0  0
  -22.7260  -31.2999   21.4020 H   0  0  0  0  0  0
  -23.3763  -35.9628   23.3296 H   0  0  0  0  0  0
  -24.3574  -36.8927   22.2047 H   0  0  0  0  0  0
  -23.7247  -37.6472   23.6669 H   0  0  0  0  0  0
  -26.1152  -31.5322   20.6140 H   0  0  0  0  0  0
  -26.8540  -30.8135   22.0145 H   0  0  0  0  0  0
  -28.1344  -28.9138   21.1894 H   0  0  0  0  0  0
  -25.9587  -25.9163   18.9724 H   0  0  0  0  0  0
  -23.9628  -27.3189   19.0028 H   0  0  0  0  0  0
  -23.7653  -30.5900   19.4106 H   0  0  0  0  0  0
  -22.7645  -29.2466   19.8611 H   0  0  0  0  0  0
  -25.1324  -36.1929   25.0785 H   0  0  0  0  0  0
  -21.0002  -28.3265   24.1400 H   0  0  0  0  0  0
  -20.5700  -26.2282   23.3609 H   0  0  0  0  0  0
  -21.6633  -26.7417   22.1181 H   0  0  0  0  0  0
  -19.6916  -25.6269   21.1269 H   0  0  0  0  0  0
  -19.6709  -27.3157   20.6744 H   0  0  0  0  0  0
  -17.4194  -26.6678   21.4047 H   0  0  0  0  0  0
  -18.0345  -26.0078   22.9041 H   0  0  0  0  0  0
  -19.7941  -30.7284   24.2269 H   0  0  0  0  0  0
  -17.5014  -31.6267   24.5150 H   0  0  0  0  0  0
  -15.5362  -30.3008   23.7620 H   0  0  0  0  0  0
  -15.8684  -28.0854   22.7024 H   0  0  0  0  0  0
  -24.5815  -30.7197   25.7760 H   0  0  0  0  0  0
  -24.8877  -32.3005   26.4798 H   0  0  0  0  0  0
  -25.7912  -30.9001   27.0250 H   0  0  0  0  0  0
  -26.2878  -29.6771   24.1189 H   0  0  0  0  0  0
  -27.3863  -29.7208   25.4785 H   0  0  0  0  0  0
  -27.8818  -30.4229   23.9548 H   0  0  0  0  0  0
  -27.2596  -33.3651   26.2087 H   0  0  0  0  0  0
  -28.3844  -32.6925   25.0364 H   0  0  0  0  0  0
  -28.0664  -31.8474   26.5468 H   0  0  0  0  0  0
  -28.2572  -38.0129   24.7480 H   0  0  0  0  0  0
  -28.1111  -36.2632   24.6299 H   0  0  0  0  0  0
  -27.2276  -37.1470   25.8838 H   0  0  0  0  0  0
  -20.9392  -29.8750   21.6872 H   0  0  0  0  0  0
  -26.0192  -38.2819   24.1420 H   0  0  0  0  0  0
  -31.3740  -21.9380   21.0934 H   0  0  0  0  0  0
  -28.0675  -19.3955   15.7156 H   0  0  0  0  0  0
  -27.0743  -18.2585   16.6155 H   0  0  0  0  0  0
  -28.3130  -17.6784   15.4968 H   0  0  0  0  0  0
  -27.4252  -22.2074   24.2215 H   0  0  0  0  0  0
  -28.5006  -23.5351   24.6172 H   0  0  0  0  0  0
  -28.7731  -22.5833   23.1610 H   0  0  0  0  0  0
  -28.4860  -15.8688   16.7320 H   0  0  0  0  0  0
  -28.9818  -15.1098   18.1907 H   0  0  0  0  0  0
  -30.1877  -15.8936   17.1932 H   0  0  0  0  0  0
  -28.8964  -25.8709   24.0064 H   0  0  0  0  0  0
  -29.4112  -26.5986   22.4979 H   0  0  0  0  0  0
  -29.8791  -24.9454   22.8745 H   0  0  0  0  0  0
  -28.9841  -19.4246   17.8888 H   0  0  0  0  0  0
  -30.1143  -18.4799   16.9685 H   0  0  0  0  0  0
  -26.4038  -24.4280   23.7483 H   0  0  0  0  0  0
  -26.4470  -23.4297   22.3348 H   0  0  0  0  0  0
  -30.8702  -17.2355   19.2768 H   0  0  0  0  0  0
  -27.0123  -24.5992   20.3075 H   0  0  0  0  0  0
  -27.9265  -17.2805   18.7324 H   0  0  0  0  0  0
  -27.0555  -25.9663   22.3486 H   0  0  0  0  0  0
  -27.6168  -22.2413   20.6678 H   0  0  0  0  0  0
  -28.8358  -15.8039   20.8514 H   0  0  0  0  0  0
  1 25  1  0  0  0
  1 30  2  0  0  0
  1 87  1  0  0  0
  2  3  1  0  0  0
  2 25  1  0  0  0
  2 90  1  0  0  0
  2 91  1  0  0  0
  3  4  1  0  0  0
  3 92  1  0  0  0
  3 93  1  0  0  0
  4  5  1  0  0  0
  4 94  1  0  0  0
  4 95  1  0  0  0
  5  6  1  0  0  0
  5 26  1  0  0  0
  5 96  1  0  0  0
  6 25  1  0  0  0
  6 97  1  0  0  0
  6 98  1  0  0  0
  7  8  2  0  0  0
  7 26  1  0  0  0
  7 29  1  0  0  0
  8  9  1  0  0  0
  8 22  1  0  0  0
  9 10  1  0  0  0
  9 27  2  0  0  0
 10 11  2  0  0  0
 10 15  1  0  0  0
 11 12  1  0  0  0
 11 99  1  0  0  0
 12 13  2  0  0  0
 12100  1  0  0  0
 13 14  1  0  0  0
 13 31  1  0  0  0
 14 15  2  0  0  0
 14101  1  0  0  0
 15102  1  0  0  0
 16 17  2  0  0  0
 16 21  1  0  0  0
 16 31  1  0  0  0
 17 18  1  0  0  0
 17103  1  0  0  0
 18 19  2  0  0  0
 18104  1  0  0  0
 19 20  1  0  0  0
 19 24  1  0  0  0
 20 21  2  0  0  0
 20105  1  0  0  0
 21 23  1  0  0  0
 22 28  1  0  0  0
 22 32  2  0  0  0
 26 27  1  0  0  0
 28106  1  0  0  0
 28107  1  0  0  0
 29108  1  0  0  0
 29109  1  0  0  0
 33 34  1  0  0  0
 33 66  1  0  0  0
 33 70  2  0  0  0
 34 36  1  0  0  0
 34 59  1  0  0  0
 34110  1  0  0  0
 35 44  2  0  0  0
 35 45  1  0  0  0
 35 68  1  0  0  0
 36 56  1  0  0  0
 36111  1  0  0  0
 37 39  1  0  0  0
 37 47  1  0  0  0
 37 66  1  0  0  0
 37112  1  0  0  0
 38 43  2  0  0  0
 38 46  1  0  0  0
 38 47  1  0  0  0
 39 64  1  0  0  0
 39 67  2  0  0  0
 40 52  1  0  0  0
 40 53  2  0  0  0
 40 58  1  0  0  0
 41113  1  0  0  0
 41114  1  0  0  0
 41115  1  0  0  0
 41 48  1  0  0  0
 42 43  1  0  0  0
 42 66  1  0  0  0
 42116  1  0  0  0
 42117  1  0  0  0
 43 44  1  0  0  0
 44118  1  0  0  0
 45 46  2  0  0  0
 45119  1  0  0  0
 46120  1  0  0  0
 47121  1  0  0  0
 47122  1  0  0  0
 48 56  1  0  0  0
 48 65  1  0  0  0
 48123  1  0  0  0
 49 50  1  0  0  0
 49 53  1  0  0  0
 49 64  1  0  0  0
 49124  1  0  0  0
 50 51  1  0  0  0
 50125  1  0  0  0
 50126  1  0  0  0
 51 52  1  0  0  0
 51127  1  0  0  0
 51128  1  0  0  0
 52129  1  0  0  0
 52130  1  0  0  0
 53 54  1  0  0  0
 54 55  2  0  0  0
 54131  1  0  0  0
 55 57  1  0  0  0
 55132  1  0  0  0
 56 69  2  0  0  0
 57 58  2  0  0  0
 57133  1  0  0  0
 58134  1  0  0  0
 59 60  1  0  0  0
 59 61  1  0  0  0
 59 62  1  0  0  0
 60135  1  0  0  0
 60136  1  0  0  0
 60137  1  0  0  0
 61138  1  0  0  0
 61139  1  0  0  0
 61140  1  0  0  0
 62141  1  0  0  0
 62142  1  0  0  0
 62143  1  0  0  0
 63 65  1  0  0  0
 63144  1  0  0  0
 63145  1  0  0  0
 63146  1  0  0  0
 64147  1  0  0  0
 65148  1  0  0  0
 68 82  1  0  0  0
 71 72  2  0  0  0
 71 89  1  0  0  0
 71149  1  0  0  0
 72 85  1  0  0  0
 72 86  1  0  0  0
 73 81  1  0  0  0
 73 85  2  0  0  0
 73 89  1  0  0  0
 74 82  1  0  0  0
 74 86  1  0  0  0
 74 88  2  0  0  0
 75 79  1  0  0  0
 75150  1  0  0  0
 75151  1  0  0  0
 75152  1  0  0  0
 76 80  1  0  0  0
 76153  1  0  0  0
 76154  1  0  0  0
 76155  1  0  0  0
 77156  1  0  0  0
 77157  1  0  0  0
 77158  1  0  0  0
 77 83  1  0  0  0
 78159  1  0  0  0
 78160  1  0  0  0
 78161  1  0  0  0
 78 84  1  0  0  0
 79 83  1  0  0  0
 79162  1  0  0  0
 79163  1  0  0  0
 80 84  1  0  0  0
 80164  1  0  0  0
 80165  1  0  0  0
 81 83  1  0  0  0
 81 87  1  0  0  0
 81166  1  0  0  0
 82 84  1  0  0  0
 82167  1  0  0  0
 83168  1  0  0  0
 84169  1  0  0  0
 86170  1  0  0  0
 87171  1  0  0  0
M  ISO  4   1 100  68 101  82 101  87 100
M  END
> <chiral flag>
0

> <version>
0

> <s_m_source_file>
/data/baiqing/PycharmProjects/Reinvent-master-3.2/result/LINK_invent/BTK/process_docking_weight1_custom_product_contain_oxygen_bond_distance_aromatic_linkinvent_7_9_3/rearranged_h_0189.sdf

> <i_m_source_file_index>
35

> <r_mmod_Potential_Energy-OPLS-2005>
220.000915527344

> <r_mmod_Stretch_Energy-OPLS-2005>
153.593856811523

> <r_mmod_Bend_Energy-OPLS-2005>
206.546722412109

> <r_mmod_Torsional_Energy-OPLS-2005>
267.300903320312

> <r_mmod_Improper_Torsional_Energy-OPLS-2005>
10.5036134719849

> <r_mmod_Van_der_Waal_Energy-OPLS-2005>
125.454246520996

> <r_mmod_Electrostatic_Energy-OPLS-2005>
-434.533569335938

> <r_mmod_Solvation_Energy-OPLS-2005>
-227.919006347656

> <b_mmod_Minimization_Converged-OPLS-2005>
0

> <r_mmod_RMS_Derivative-OPLS-2005>
4.32364511489868

$$$$
35
                    3D
 Structure written by MMmdl.
150158  0  0  1  0            999 V2000
  -30.5896  -14.7899   20.4424 C   0  0  0  0  0  0
  -30.4409  -12.4811   19.4715 C   0  0  0  0  0  0
  -29.5171  -12.5104   18.2332 C   0  0  0  0  0  0
  -28.0435  -12.3255   18.6488 C   0  0  0  0  0  0
  -27.6409  -13.2326   19.8434 C   0  0  2  0  0  0
  -28.6880  -13.1842   20.9776 C   0  0  0  0  0  0
  -25.2517  -13.8187   20.5657 C   0  0  0  0  0  0
  -24.1813  -13.0434   20.9196 C   0  0  0  0  0  0
  -24.6403  -11.6914   20.8744 C   0  0  0  0  0  0
  -23.9082  -10.4292   21.0409 C   0  0  0  0  0  0
  -24.3628   -9.4204   21.9179 C   0  0  0  0  0  0
  -23.6292   -8.2248   22.0757 C   0  0  0  0  0  0
  -22.4279   -8.0279   21.3551 C   0  0  0  0  0  0
  -21.9913   -9.0255   20.4655 C   0  0  0  0  0  0
  -22.7253  -10.2133   20.3053 C   0  0  0  0  0  0
  -21.6865   -6.0730   22.5274 C   0  0  0  0  0  0
  -21.4015   -6.5633   23.8209 C   0  0  0  0  0  0
  -21.3661   -5.6788   24.9167 C   0  0  0  0  0  0
  -21.6040   -4.3052   24.7223 C   0  0  0  0  0  0
  -21.8821   -3.8141   23.4352 C   0  0  0  0  0  0
  -21.9189   -4.6950   22.3404 C   0  0  0  0  0  0
  -22.7830  -13.5218   21.1838 C   0  0  0  0  0  0
  -22.1660   -4.2137   21.0984 F   0  0  0  0  0  0
  -21.5628   -3.4535   25.7743 F   0  0  0  0  0  0
  -29.9842  -13.5502   20.3905 N   0  0  0  0  0  0
  -26.2947  -12.9397   20.3253 N   0  0  0  0  0  0
  -25.9338  -11.6547   20.5739 N   0  0  0  0  0  0
  -22.0472  -12.8232   22.0410 N   0  0  0  0  0  0
  -25.4170  -15.1915   20.4042 N   0  0  0  0  0  0
  -31.7913  -14.8815   20.1671 O   0  0  0  0  0  0
  -21.6650   -6.8874   21.4245 O   0  0  0  0  0  0
  -22.3517  -14.5509   20.6651 O   0  0  0  0  0  0
  -24.6349  -31.8527   23.1948 C   0  0  0  0  0  0
  -25.9155  -32.4735   23.8313 C   0  0  1  0  0  0
  -27.2191  -27.2385   20.1392 C   0  0  0  0  0  0
  -25.5932  -33.8542   24.2240 N   0  0  0  0  0  0
  -23.4326  -30.4731   21.5393 C   0  0  2  0  0  0
  -24.8781  -28.9077   20.1171 C   0  0  0  0  0  0
  -22.7510  -29.4591   22.4904 C   0  0  0  0  0  0
  -18.0295  -28.1386   22.8489 C   0  0  0  0  0  0
  -24.1490  -36.7281   23.2643 C   0  0  0  0  0  0
  -25.9789  -30.7582   21.3759 C   0  0  0  0  0  0
  -26.0518  -29.3756   20.7231 C   0  0  0  0  0  0
  -27.2287  -28.5564   20.7147 C   0  0  0  0  0  0
  -26.0228  -26.8343   19.5146 C   0  0  0  0  0  0
  -24.8689  -27.6455   19.5009 C   0  0  0  0  0  0
  -23.6523  -29.8015   20.1580 C   0  0  0  0  0  0
  -25.4115  -36.3066   24.0336 C   0  0  1  0  0  0
  -20.5899  -28.3705   23.1268 C   0  0  2  0  0  0
  -20.6785  -26.9420   22.5411 C   0  0  0  0  0  0
  -19.5753  -26.6384   21.5221 C   0  0  0  0  0  0
  -18.1935  -26.7927   22.1628 C   0  0  0  0  0  0
  -19.1547  -28.8864   23.2871 C   0  0  0  0  0  0
  -18.9461  -30.1457   23.8901 C   0  0  0  0  0  0
  -17.6459  -30.6586   24.0561 C   0  0  0  0  0  0
  -25.9063  -34.9439   23.5099 C   0  0  0  0  0  0
  -16.5354  -29.9086   23.6322 C   0  0  0  0  0  0
  -16.7281  -28.6497   23.0359 C   0  0  0  0  0  0
  -26.4517  -31.6560   25.0710 C   0  0  0  0  0  0
  -25.3729  -31.3711   26.1417 C   0  0  0  0  0  0
  -27.0369  -30.2971   24.6213 C   0  0  0  0  0  0
  -27.6072  -32.4297   25.7482 C   0  0  0  0  0  0
  -27.5586  -37.1783   24.8455 C   0  0  0  0  0  0
  -21.4213  -29.3046   22.3646 N   0  0  0  0  0  0
  -26.4282  -37.3769   23.9426 N   0  0  0  0  0  0
  -24.7011  -31.0473   22.0927 N   0  0  0  0  0  0
  -23.4197  -28.8152   23.3028 O   0  0  0  0  0  0
  -28.3170  -26.3453   20.1076 O   0  0  0  0  0  0
  -26.5643  -34.8920   22.4672 O   0  0  0  0  0  0
  -23.5490  -32.1361   23.7222 O   0  0  0  0  0  0
  -31.2411  -17.9649   20.8038 C   0  0  0  0  0  0
  -30.0238  -17.3858   20.5306 C   0  0  0  0  0  0
  -29.4961  -19.7390   20.2785 C   0  0  0  0  0  0
  -28.4756  -23.6514   19.8833 C   0  0  0  0  0  0
  -29.1916  -25.0395   21.9489 C   0  0  0  0  0  0
  -28.7169  -21.0283   19.7573 C   0  0  0  0  0  0
  -28.2165  -24.9856   20.7650 C   0  0  1  0  0  0
  -29.0540  -18.4280   20.2545 N   0  0  0  0  0  0
  -29.7698  -15.9143   20.5695 N   0  0  0  0  0  0
  -28.7866  -22.4058   20.4385 N   0  0  0  0  0  0
  -28.3202  -23.7422   18.6640 O   0  0  0  0  0  0
  -31.2093  -19.7353   20.7166 S   0  0  0  0  0  0
  -31.4807  -12.6152   19.1664 H   0  0  0  0  0  0
  -30.3937  -11.5082   19.9644 H   0  0  0  0  0  0
  -29.8082  -11.7314   17.5275 H   0  0  0  0  0  0
  -29.6338  -13.4587   17.7063 H   0  0  0  0  0  0
  -27.9109  -11.2778   18.9226 H   0  0  0  0  0  0
  -27.3830  -12.5019   17.7993 H   0  0  0  0  0  0
  -27.6261  -14.2495   19.4511 H   0  0  0  0  0  0
  -28.7364  -12.1896   21.4236 H   0  0  0  0  0  0
  -28.4181  -13.8696   21.7836 H   0  0  0  0  0  0
  -25.2773   -9.5682   22.4751 H   0  0  0  0  0  0
  -23.9997   -7.4648   22.7485 H   0  0  0  0  0  0
  -21.0836   -8.8773   19.8981 H   0  0  0  0  0  0
  -22.3697  -10.9661   19.6161 H   0  0  0  0  0  0
  -21.2016   -7.6142   23.9704 H   0  0  0  0  0  0
  -21.1479   -6.0523   25.9072 H   0  0  0  0  0  0
  -22.0599   -2.7599   23.2857 H   0  0  0  0  0  0
  -22.4092  -11.9922   22.4865 H   0  0  0  0  0  0
  -21.1073  -13.1267   22.2567 H   0  0  0  0  0  0
  -24.6401  -15.8353   20.5020 H   0  0  0  0  0  0
  -26.2460  -15.6348   20.0299 H   0  0  0  0  0  0
  -26.7218  -32.5384   23.1050 H   0  0  0  0  0  0
  -25.0042  -33.9655   25.0359 H   0  0  0  0  0  0
  -22.7313  -31.2957   21.3886 H   0  0  0  0  0  0
  -23.3763  -35.9593   23.3267 H   0  0  0  0  0  0
  -24.3589  -36.8939   22.2061 H   0  0  0  0  0  0
  -23.7211  -37.6465   23.6685 H   0  0  0  0  0  0
  -26.1191  -31.5151   20.6027 H   0  0  0  0  0  0
  -26.8566  -30.8105   22.0089 H   0  0  0  0  0  0
  -28.1344  -28.9144   21.1834 H   0  0  0  0  0  0
  -25.9787  -25.8664   19.0343 H   0  0  0  0  0  0
  -23.9704  -27.2813   19.0212 H   0  0  0  0  0  0
  -23.7817  -30.5750   19.3994 H   0  0  0  0  0  0
  -22.7685  -29.2381   19.8531 H   0  0  0  0  0  0
  -25.1285  -36.1916   25.0825 H   0  0  0  0  0  0
  -20.9989  -28.3297   24.1387 H   0  0  0  0  0  0
  -20.5689  -26.2325   23.3623 H   0  0  0  0  0  0
  -21.6654  -26.7448   22.1199 H   0  0  0  0  0  0
  -19.6919  -25.6293   21.1253 H   0  0  0  0  0  0
  -19.6689  -27.3195   20.6749 H   0  0  0  0  0  0
  -17.4209  -26.6680   21.4027 H   0  0  0  0  0  0
  -18.0321  -26.0067   22.9018 H   0  0  0  0  0  0
  -19.7939  -30.7262   24.2280 H   0  0  0  0  0  0
  -17.5021  -31.6269   24.5156 H   0  0  0  0  0  0
  -15.5355  -30.2993   23.7637 H   0  0  0  0  0  0
  -15.8681  -28.0812   22.7086 H   0  0  0  0  0  0
  -24.5907  -30.7063   25.7732 H   0  0  0  0  0  0
  -24.8917  -32.2875   26.4842 H   0  0  0  0  0  0
  -25.8032  -30.8880   27.0193 H   0  0  0  0  0  0
  -26.2959  -29.6694   24.1249 H   0  0  0  0  0  0
  -27.4049  -29.7264   25.4747 H   0  0  0  0  0  0
  -27.8836  -30.4234   23.9461 H   0  0  0  0  0  0
  -27.2692  -33.3606   26.2044 H   0  0  0  0  0  0
  -28.3892  -32.6833   25.0314 H   0  0  0  0  0  0
  -28.0725  -31.8426   26.5406 H   0  0  0  0  0  0
  -28.2565  -38.0122   24.7572 H   0  0  0  0  0  0
  -28.1128  -36.2661   24.6192 H   0  0  0  0  0  0
  -27.2323  -37.1313   25.8860 H   0  0  0  0  0  0
  -20.9409  -29.8752   21.6824 H   0  0  0  0  0  0
  -26.0168  -38.2839   24.1457 H   0  0  0  0  0  0
  -32.1682  -17.4652   21.0567 H   0  0  0  0  0  0
  -29.0235  -25.9322   22.5512 H   0  0  0  0  0  0
  -30.2248  -25.0613   21.5984 H   0  0  0  0  0  0
  -29.0780  -24.1770   22.6061 H   0  0  0  0  0  0
  -27.6606  -20.7650   19.7027 H   0  0  0  0  0  0
  -29.0265  -21.1644   18.7206 H   0  0  0  0  0  0
  -27.2096  -24.8811   21.1729 H   0  0  0  0  0  0
  -28.7962  -15.6699   20.6524 H   0  0  0  0  0  0
  -28.9281  -22.3875   21.4392 H   0  0  0  0  0  0
  1 25  1  0  0  0
  1 30  2  0  0  0
  1 79  1  0  0  0
  2  3  1  0  0  0
  2 25  1  0  0  0
  2 83  1  0  0  0
  2 84  1  0  0  0
  3  4  1  0  0  0
  3 85  1  0  0  0
  3 86  1  0  0  0
  4  5  1  0  0  0
  4 87  1  0  0  0
  4 88  1  0  0  0
  5  6  1  0  0  0
  5 26  1  0  0  0
  5 89  1  0  0  0
  6 25  1  0  0  0
  6 90  1  0  0  0
  6 91  1  0  0  0
  7  8  2  0  0  0
  7 26  1  0  0  0
  7 29  1  0  0  0
  8  9  1  0  0  0
  8 22  1  0  0  0
  9 10  1  0  0  0
  9 27  2  0  0  0
 10 11  2  0  0  0
 10 15  1  0  0  0
 11 12  1  0  0  0
 11 92  1  0  0  0
 12 13  2  0  0  0
 12 93  1  0  0  0
 13 14  1  0  0  0
 13 31  1  0  0  0
 14 15  2  0  0  0
 14 94  1  0  0  0
 15 95  1  0  0  0
 16 17  2  0  0  0
 16 21  1  0  0  0
 16 31  1  0  0  0
 17 18  1  0  0  0
 17 96  1  0  0  0
 18 19  2  0  0  0
 18 97  1  0  0  0
 19 20  1  0  0  0
 19 24  1  0  0  0
 20 21  2  0  0  0
 20 98  1  0  0  0
 21 23  1  0  0  0
 22 28  1  0  0  0
 22 32  2  0  0  0
 26 27  1  0  0  0
 28 99  1  0  0  0
 28100  1  0  0  0
 29101  1  0  0  0
 29102  1  0  0  0
 33 34  1  0  0  0
 33 66  1  0  0  0
 33 70  2  0  0  0
 34 36  1  0  0  0
 34 59  1  0  0  0
 34103  1  0  0  0
 35 44  2  0  0  0
 35 45  1  0  0  0
 35 68  1  0  0  0
 36 56  1  0  0  0
 36104  1  0  0  0
 37 39  1  0  0  0
 37 47  1  0  0  0
 37 66  1  0  0  0
 37105  1  0  0  0
 38 43  2  0  0  0
 38 46  1  0  0  0
 38 47  1  0  0  0
 39 64  1  0  0  0
 39 67  2  0  0  0
 40 52  1  0  0  0
 40 53  2  0  0  0
 40 58  1  0  0  0
 41106  1  0  0  0
 41107  1  0  0  0
 41108  1  0  0  0
 41 48  1  0  0  0
 42 43  1  0  0  0
 42 66  1  0  0  0
 42109  1  0  0  0
 42110  1  0  0  0
 43 44  1  0  0  0
 44111  1  0  0  0
 45 46  2  0  0  0
 45112  1  0  0  0
 46113  1  0  0  0
 47114  1  0  0  0
 47115  1  0  0  0
 48 56  1  0  0  0
 48 65  1  0  0  0
 48116  1  0  0  0
 49 50  1  0  0  0
 49 53  1  0  0  0
 49 64  1  0  0  0
 49117  1  0  0  0
 50 51  1  0  0  0
 50118  1  0  0  0
 50119  1  0  0  0
 51 52  1  0  0  0
 51120  1  0  0  0
 51121  1  0  0  0
 52122  1  0  0  0
 52123  1  0  0  0
 53 54  1  0  0  0
 54 55  2  0  0  0
 54124  1  0  0  0
 55 57  1  0  0  0
 55125  1  0  0  0
 56 69  2  0  0  0
 57 58  2  0  0  0
 57126  1  0  0  0
 58127  1  0  0  0
 59 60  1  0  0  0
 59 61  1  0  0  0
 59 62  1  0  0  0
 60128  1  0  0  0
 60129  1  0  0  0
 60130  1  0  0  0
 61131  1  0  0  0
 61132  1  0  0  0
 61133  1  0  0  0
 62134  1  0  0  0
 62135  1  0  0  0
 62136  1  0  0  0
 63 65  1  0  0  0
 63137  1  0  0  0
 63138  1  0  0  0
 63139  1  0  0  0
 64140  1  0  0  0
 65141  1  0  0  0
 68 77  1  0  0  0
 71 72  2  0  0  0
 71 82  1  0  0  0
 71142  1  0  0  0
 72 78  1  0  0  0
 72 79  1  0  0  0
 73 76  1  0  0  0
 73 78  2  0  0  0
 73 82  1  0  0  0
 74 77  1  0  0  0
 74 80  1  0  0  0
 74 81  2  0  0  0
 75143  1  0  0  0
 75144  1  0  0  0
 75145  1  0  0  0
 75 77  1  0  0  0
 76 80  1  0  0  0
 76146  1  0  0  0
 76147  1  0  0  0
 77148  1  0  0  0
 79149  1  0  0  0
 80150  1  0  0  0
M  ISO  4   1 100  68 101  77 101  79 100
M  END
> <chiral flag>
0

> <version>
0

> <s_m_source_file>
/data/baiqing/PycharmProjects/Reinvent-master-3.2/result/LINK_invent/BTK/process_docking_weight1_custom_product_contain_oxygen_bond_distance_aromatic_linkinvent_7_9_3/rearranged_h_0189.sdf

> <i_m_source_file_index>
36

> <r_mmod_Potential_Energy-OPLS-2005>
86.0481491088867

> <r_mmod_Stretch_Energy-OPLS-2005>
136.526702880859

> <r_mmod_Bend_Energy-OPLS-2005>
183.510437011719

> <r_mmod_Torsional_Energy-OPLS-2005>
246.368515014648

> <r_mmod_Improper_Torsional_Energy-OPLS-2005>
7.28488874435425

> <r_mmod_Van_der_Waal_Energy-OPLS-2005>
109.305503845215

> <r_mmod_Electrostatic_Energy-OPLS-2005>
-453.932678222656

> <r_mmod_Solvation_Energy-OPLS-2005>
-243.414123535156

> <b_mmod_Minimization_Converged-OPLS-2005>
0

> <r_mmod_RMS_Derivative-OPLS-2005>
1.99865067005157

$$$$
36
                    3D
 Structure written by MMmdl.
168176  0  0  1  0            999 V2000
  -30.7473  -14.4375   20.4847 C   0  0  0  0  0  0
  -30.4105  -12.2564   19.4241 C   0  0  0  0  0  0
  -29.4814  -12.4390   18.2043 C   0  0  0  0  0  0
  -28.0040  -12.3210   18.6299 C   0  0  0  0  0  0
  -27.6513  -13.1896   19.8665 C   0  0  2  0  0  0
  -28.7097  -13.0357   20.9845 C   0  0  0  0  0  0
  -25.2607  -13.8093   20.5753 C   0  0  0  0  0  0
  -24.1826  -13.0403   20.9206 C   0  0  0  0  0  0
  -24.6346  -11.6850   20.8765 C   0  0  0  0  0  0
  -23.9004  -10.4240   21.0404 C   0  0  0  0  0  0
  -24.3558   -9.4153   21.9179 C   0  0  0  0  0  0
  -23.6255   -8.2186   22.0726 C   0  0  0  0  0  0
  -22.4248   -8.0222   21.3516 C   0  0  0  0  0  0
  -21.9873   -9.0189   20.4624 C   0  0  0  0  0  0
  -22.7177  -10.2081   20.3047 C   0  0  0  0  0  0
  -21.6829   -6.0704   22.5264 C   0  0  0  0  0  0
  -21.3976   -6.5619   23.8185 C   0  0  0  0  0  0
  -21.3660   -5.6781   24.9156 C   0  0  0  0  0  0
  -21.6063   -4.3048   24.7221 C   0  0  0  0  0  0
  -21.8808   -3.8132   23.4341 C   0  0  0  0  0  0
  -21.9171   -4.6938   22.3392 C   0  0  0  0  0  0
  -22.7847  -13.5224   21.1869 C   0  0  0  0  0  0
  -22.1672   -4.2122   21.0982 F   0  0  0  0  0  0
  -21.5647   -3.4540   25.7746 F   0  0  0  0  0  0
  -30.0374  -13.2842   20.4007 N   0  0  0  0  0  0
  -26.3005  -12.9219   20.3444 N   0  0  0  0  0  0
  -25.9281  -11.6397   20.5836 N   0  0  0  0  0  0
  -22.0464  -12.8238   22.0418 N   0  0  0  0  0  0
  -25.4435  -15.1812   20.4168 N   0  0  0  0  0  0
  -31.9317  -14.5235   20.1560 O   0  0  0  0  0  0
  -21.6611   -6.8834   21.4215 O   0  0  0  0  0  0
  -22.3596  -14.5577   20.6739 O   0  0  0  0  0  0
  -24.6116  -31.8729   23.2182 C   0  0  0  0  0  0
  -25.9047  -32.4843   23.8415 C   0  0  1  0  0  0
  -27.2108  -27.4672   20.0636 C   0  0  0  0  0  0
  -25.5934  -33.8642   24.2351 N   0  0  0  0  0  0
  -23.3935  -30.5031   21.5632 C   0  0  2  0  0  0
  -24.8281  -28.9788   20.1174 C   0  0  0  0  0  0
  -22.7398  -29.4685   22.5068 C   0  0  0  0  0  0
  -18.0285  -28.1359   22.8511 C   0  0  0  0  0  0
  -24.1482  -36.7322   23.2636 C   0  0  0  0  0  0
  -25.9220  -30.8480   21.3624 C   0  0  0  0  0  0
  -25.9936  -29.4882   20.7024 C   0  0  0  0  0  0
  -27.1910  -28.7421   20.6681 C   0  0  0  0  0  0
  -26.0213  -26.9662   19.4854 C   0  0  0  0  0  0
  -24.8365  -27.7172   19.5049 C   0  0  0  0  0  0
  -23.5936  -29.8442   20.1745 C   0  0  0  0  0  0
  -25.4110  -36.3135   24.0335 C   0  0  1  0  0  0
  -20.5857  -28.3640   23.1347 C   0  0  2  0  0  0
  -20.6773  -26.9376   22.5434 C   0  0  0  0  0  0
  -19.5750  -26.6352   21.5230 C   0  0  0  0  0  0
  -18.1934  -26.7909   22.1635 C   0  0  0  0  0  0
  -19.1519  -28.8818   23.2920 C   0  0  0  0  0  0
  -18.9450  -30.1432   23.8899 C   0  0  0  0  0  0
  -17.6449  -30.6575   24.0547 C   0  0  0  0  0  0
  -25.9054  -34.9492   23.5138 C   0  0  0  0  0  0
  -16.5347  -29.9069   23.6328 C   0  0  0  0  0  0
  -16.7265  -28.6485   23.0360 C   0  0  0  0  0  0
  -26.4479  -31.6600   25.0707 C   0  0  0  0  0  0
  -25.3751  -31.3700   26.1453 C   0  0  0  0  0  0
  -27.0285  -30.3042   24.6043 C   0  0  0  0  0  0
  -27.6067  -32.4296   25.7468 C   0  0  0  0  0  0
  -27.5583  -37.1825   24.8471 C   0  0  0  0  0  0
  -21.4134  -29.3021   22.3783 N   0  0  0  0  0  0
  -26.4297  -37.3815   23.9412 N   0  0  0  0  0  0
  -24.6621  -31.0855   22.1071 N   0  0  0  0  0  0
  -23.4202  -28.8234   23.3084 O   0  0  0  0  0  0
  -28.3833  -26.7491   20.0313 O   0  0  0  0  0  0
  -26.5589  -34.8932   22.4687 O   0  0  0  0  0  0
  -23.5323  -32.1475   23.7616 O   0  0  0  0  0  0
  -30.8653  -18.9697   20.7653 C   0  0  0  0  0  0
  -30.1947  -17.9610   21.4570 C   0  0  0  0  0  0
  -28.8666  -19.9924   21.1862 C   0  0  0  0  0  0
  -28.0229  -22.2628   21.1054 C   0  0  0  0  0  0
  -31.9478  -19.2492   18.5130 C   0  0  0  0  0  0
  -33.0476  -17.7507   20.1367 C   0  0  0  0  0  0
  -33.0742  -20.1792   20.5621 C   0  0  0  0  0  0
  -29.3537  -16.1395   19.5417 C   0  0  0  0  0  0
  -30.5374  -16.5181   21.7211 C   0  0  0  0  0  0
  -27.9835  -24.3195   19.5844 C   0  0  0  0  0  0
  -28.3022  -25.4421   20.5986 C   0  0  0  0  0  0
  -27.1786  -23.1451   20.1811 C   0  0  2  0  0  0
  -32.2036  -19.0259   20.0209 C   0  0  0  0  0  0
  -30.0797  -20.1226   20.6564 N   0  0  0  0  0  0
  -27.8658  -20.9460   20.9531 N   0  0  0  0  0  0
  -30.0353  -15.5585   20.7135 N   0  0  0  0  0  0
  -28.7585  -22.7611   21.9649 O   0  0  0  0  0  0
  -26.0979  -23.5783   20.8347 F   0  0  0  0  0  0
  -28.6023  -18.4709   21.9797 S   0  0  0  0  0  0
  -31.4581  -12.3213   19.1246 H   0  0  0  0  0  0
  -30.2878  -11.2658   19.8649 H   0  0  0  0  0  0
  -29.7052  -11.6852   17.4481 H   0  0  0  0  0  0
  -29.6595  -13.4047   17.7291 H   0  0  0  0  0  0
  -27.8174  -11.2702   18.8548 H   0  0  0  0  0  0
  -27.3412  -12.5675   17.8001 H   0  0  0  0  0  0
  -27.6504  -14.2156   19.5228 H   0  0  0  0  0  0
  -28.6767  -12.0287   21.3986 H   0  0  0  0  0  0
  -28.5052  -13.7113   21.8172 H   0  0  0  0  0  0
  -25.2677   -9.5633   22.4787 H   0  0  0  0  0  0
  -23.9930   -7.4571   22.7454 H   0  0  0  0  0  0
  -21.0788   -8.8691   19.8971 H   0  0  0  0  0  0
  -22.3591  -10.9607   19.6170 H   0  0  0  0  0  0
  -21.1956   -7.6126   23.9693 H   0  0  0  0  0  0
  -21.1530   -6.0508   25.9063 H   0  0  0  0  0  0
  -22.0607   -2.7599   23.2827 H   0  0  0  0  0  0
  -22.4071  -11.9886   22.4805 H   0  0  0  0  0  0
  -21.1091  -13.1278   22.2693 H   0  0  0  0  0  0
  -24.7005  -15.8553   20.5600 H   0  0  0  0  0  0
  -26.3258  -15.6044   20.1605 H   0  0  0  0  0  0
  -26.7109  -32.5557   23.1177 H   0  0  0  0  0  0
  -25.0114  -33.9808   25.0508 H   0  0  0  0  0  0
  -22.6782  -31.3202   21.4376 H   0  0  0  0  0  0
  -23.3731  -35.9667   23.3315 H   0  0  0  0  0  0
  -24.3602  -36.8905   22.2049 H   0  0  0  0  0  0
  -23.7213  -37.6524   23.6635 H   0  0  0  0  0  0
  -26.0289  -31.6174   20.5959 H   0  0  0  0  0  0
  -26.8126  -30.8952   21.9786 H   0  0  0  0  0  0
  -28.0946  -29.1396   21.1064 H   0  0  0  0  0  0
  -25.9777  -26.0117   18.9928 H   0  0  0  0  0  0
  -23.9394  -27.3289   19.0387 H   0  0  0  0  0  0
  -23.6990  -30.6221   19.4187 H   0  0  0  0  0  0
  -22.7155  -29.2676   19.8798 H   0  0  0  0  0  0
  -25.1276  -36.2028   25.0820 H   0  0  0  0  0  0
  -20.9928  -28.3183   24.1477 H   0  0  0  0  0  0
  -20.5668  -26.2246   23.3623 H   0  0  0  0  0  0
  -21.6657  -26.7426   22.1242 H   0  0  0  0  0  0
  -19.6906  -25.6258   21.1278 H   0  0  0  0  0  0
  -19.6694  -27.3134   20.6737 H   0  0  0  0  0  0
  -17.4225  -26.6672   21.4024 H   0  0  0  0  0  0
  -18.0299  -26.0028   22.8992 H   0  0  0  0  0  0
  -19.7920  -30.7253   24.2260 H   0  0  0  0  0  0
  -17.5017  -31.6263   24.5136 H   0  0  0  0  0  0
  -15.5345  -30.2972   23.7662 H   0  0  0  0  0  0
  -15.8676  -28.0807   22.7067 H   0  0  0  0  0  0
  -24.5960  -30.7005   25.7801 H   0  0  0  0  0  0
  -24.8893  -32.2831   26.4887 H   0  0  0  0  0  0
  -25.8105  -30.8900   27.0219 H   0  0  0  0  0  0
  -26.2803  -29.6840   24.1081 H   0  0  0  0  0  0
  -27.4048  -29.7244   25.4485 H   0  0  0  0  0  0
  -27.8654  -30.4362   23.9179 H   0  0  0  0  0  0
  -27.2711  -33.3603   26.2061 H   0  0  0  0  0  0
  -28.3855  -32.6827   25.0264 H   0  0  0  0  0  0
  -28.0728  -31.8382   26.5361 H   0  0  0  0  0  0
  -28.2619  -38.0105   24.7526 H   0  0  0  0  0  0
  -28.1055  -36.2647   24.6288 H   0  0  0  0  0  0
  -27.2322  -37.1446   25.8877 H   0  0  0  0  0  0
  -20.9318  -29.8764   21.7013 H   0  0  0  0  0  0
  -26.0194  -38.2901   24.1395 H   0  0  0  0  0  0
  -31.3159  -18.4700   18.0906 H   0  0  0  0  0  0
  -32.8808  -19.2419   17.9497 H   0  0  0  0  0  0
  -31.4549  -20.2024   18.3176 H   0  0  0  0  0  0
  -33.3167  -17.5369   21.1696 H   0  0  0  0  0  0
  -33.9838  -17.8436   19.5863 H   0  0  0  0  0  0
  -32.5287  -16.8969   19.7104 H   0  0  0  0  0  0
  -32.5920  -21.1475   20.4310 H   0  0  0  0  0  0
  -34.0300  -20.2313   20.0399 H   0  0  0  0  0  0
  -33.2890  -20.0529   21.6239 H   0  0  0  0  0  0
  -28.3586  -16.4840   19.8185 H   0  0  0  0  0  0
  -29.2394  -15.4367   18.7170 H   0  0  0  0  0  0
  -29.9042  -16.9773   19.1206 H   0  0  0  0  0  0
  -30.0894  -16.2231   22.6716 H   0  0  0  0  0  0
  -31.6059  -16.4071   21.8824 H   0  0  0  0  0  0
  -28.9234  -23.9432   19.1787 H   0  0  0  0  0  0
  -27.4621  -24.6836   18.7062 H   0  0  0  0  0  0
  -29.2694  -25.2342   21.0564 H   0  0  0  0  0  0
  -27.5851  -25.4458   21.4208 H   0  0  0  0  0  0
  -26.7992  -22.5361   19.3583 H   0  0  0  0  0  0
  -27.0653  -20.6292   20.4250 H   0  0  0  0  0  0
  1 25  1  0  0  0
  1 30  2  0  0  0
  1 86  1  0  0  0
  2  3  1  0  0  0
  2 25  1  0  0  0
  2 90  1  0  0  0
  2 91  1  0  0  0
  3  4  1  0  0  0
  3 92  1  0  0  0
  3 93  1  0  0  0
  4  5  1  0  0  0
  4 94  1  0  0  0
  4 95  1  0  0  0
  5  6  1  0  0  0
  5 26  1  0  0  0
  5 96  1  0  0  0
  6 25  1  0  0  0
  6 97  1  0  0  0
  6 98  1  0  0  0
  7  8  2  0  0  0
  7 26  1  0  0  0
  7 29  1  0  0  0
  8  9  1  0  0  0
  8 22  1  0  0  0
  9 10  1  0  0  0
  9 27  2  0  0  0
 10 11  2  0  0  0
 10 15  1  0  0  0
 11 12  1  0  0  0
 11 99  1  0  0  0
 12 13  2  0  0  0
 12100  1  0  0  0
 13 14  1  0  0  0
 13 31  1  0  0  0
 14 15  2  0  0  0
 14101  1  0  0  0
 15102  1  0  0  0
 16 17  2  0  0  0
 16 21  1  0  0  0
 16 31  1  0  0  0
 17 18  1  0  0  0
 17103  1  0  0  0
 18 19  2  0  0  0
 18104  1  0  0  0
 19 20  1  0  0  0
 19 24  1  0  0  0
 20 21  2  0  0  0
 20105  1  0  0  0
 21 23  1  0  0  0
 22 28  1  0  0  0
 22 32  2  0  0  0
 26 27  1  0  0  0
 28106  1  0  0  0
 28107  1  0  0  0
 29108  1  0  0  0
 29109  1  0  0  0
 33 34  1  0  0  0
 33 66  1  0  0  0
 33 70  2  0  0  0
 34 36  1  0  0  0
 34 59  1  0  0  0
 34110  1  0  0  0
 35 44  2  0  0  0
 35 45  1  0  0  0
 35 68  1  0  0  0
 36 56  1  0  0  0
 36111  1  0  0  0
 37 39  1  0  0  0
 37 47  1  0  0  0
 37 66  1  0  0  0
 37112  1  0  0  0
 38 43  2  0  0  0
 38 46  1  0  0  0
 38 47  1  0  0  0
 39 64  1  0  0  0
 39 67  2  0  0  0
 40 52  1  0  0  0
 40 53  2  0  0  0
 40 58  1  0  0  0
 41113  1  0  0  0
 41114  1  0  0  0
 41115  1  0  0  0
 41 48  1  0  0  0
 42 43  1  0  0  0
 42 66  1  0  0  0
 42116  1  0  0  0
 42117  1  0  0  0
 43 44  1  0  0  0
 44118  1  0  0  0
 45 46  2  0  0  0
 45119  1  0  0  0
 46120  1  0  0  0
 47121  1  0  0  0
 47122  1  0  0  0
 48 56  1  0  0  0
 48 65  1  0  0  0
 48123  1  0  0  0
 49 50  1  0  0  0
 49 53  1  0  0  0
 49 64  1  0  0  0
 49124  1  0  0  0
 50 51  1  0  0  0
 50125  1  0  0  0
 50126  1  0  0  0
 51 52  1  0  0  0
 51127  1  0  0  0
 51128  1  0  0  0
 52129  1  0  0  0
 52130  1  0  0  0
 53 54  1  0  0  0
 54 55  2  0  0  0
 54131  1  0  0  0
 55 57  1  0  0  0
 55132  1  0  0  0
 56 69  2  0  0  0
 57 58  2  0  0  0
 57133  1  0  0  0
 58134  1  0  0  0
 59 60  1  0  0  0
 59 61  1  0  0  0
 59 62  1  0  0  0
 60135  1  0  0  0
 60136  1  0  0  0
 60137  1  0  0  0
 61138  1  0  0  0
 61139  1  0  0  0
 61140  1  0  0  0
 62141  1  0  0  0
 62142  1  0  0  0
 62143  1  0  0  0
 63 65  1  0  0  0
 63144  1  0  0  0
 63145  1  0  0  0
 63146  1  0  0  0
 64147  1  0  0  0
 65148  1  0  0  0
 68 81  1  0  0  0
 71 72  2  0  0  0
 71 83  1  0  0  0
 71 84  1  0  0  0
 72 79  1  0  0  0
 72 89  1  0  0  0
 73 84  2  0  0  0
 73 85  1  0  0  0
 73 89  1  0  0  0
 74 82  1  0  0  0
 74 85  1  0  0  0
 74 87  2  0  0  0
 75149  1  0  0  0
 75150  1  0  0  0
 75151  1  0  0  0
 75 83  1  0  0  0
 76 83  1  0  0  0
 76152  1  0  0  0
 76153  1  0  0  0
 76154  1  0  0  0
 77 83  1  0  0  0
 77155  1  0  0  0
 77156  1  0  0  0
 77157  1  0  0  0
 78 86  1  0  0  0
 78158  1  0  0  0
 78159  1  0  0  0
 78160  1  0  0  0
 79 86  1  0  0  0
 79161  1  0  0  0
 79162  1  0  0  0
 80 81  1  0  0  0
 80 82  1  0  0  0
 80163  1  0  0  0
 80164  1  0  0  0
 81165  1  0  0  0
 81166  1  0  0  0
 82 88  1  0  0  0
 82167  1  0  0  0
 85168  1  0  0  0
M  ISO  4   1 100  68 101  81 101  86 100
M  END
> <chiral flag>
0

> <version>
0

> <s_m_source_file>
/data/baiqing/PycharmProjects/Reinvent-master-3.2/result/LINK_invent/BTK/process_docking_weight1_custom_product_contain_oxygen_bond_distance_aromatic_linkinvent_7_9_3/rearranged_h_0189.sdf

> <i_m_source_file_index>
37

> <r_mmod_Potential_Energy-OPLS-2005>
15.9268989562988

> <r_mmod_Stretch_Energy-OPLS-2005>
36.4213829040527

> <r_mmod_Bend_Energy-OPLS-2005>
113.485969543457

> <r_mmod_Torsional_Energy-OPLS-2005>
323.564788818359

> <r_mmod_Improper_Torsional_Energy-OPLS-2005>
9.82358169555664

> <r_mmod_Van_der_Waal_Energy-OPLS-2005>
151.29719543457

> <r_mmod_Electrostatic_Energy-OPLS-2005>
-416.889739990234

> <r_mmod_Solvation_Energy-OPLS-2005>
-222.318725585938

> <b_mmod_Minimization_Converged-OPLS-2005>
0

> <r_mmod_RMS_Derivative-OPLS-2005>
4.05208015441895

$$$$
37
                    3D
 Structure written by MMmdl.
170178  0  0  1  0            999 V2000
  -30.6453  -14.7645   20.4721 C   0  0  0  0  0  0
  -30.4201  -12.4756   19.4735 C   0  0  0  0  0  0
  -29.5038  -12.5063   18.2335 C   0  0  0  0  0  0
  -28.0334  -12.3251   18.6539 C   0  0  0  0  0  0
  -27.6342  -13.2399   19.8433 C   0  0  2  0  0  0
  -28.6807  -13.2117   20.9778 C   0  0  0  0  0  0
  -25.2475  -13.8212   20.5714 C   0  0  0  0  0  0
  -24.1781  -13.0442   20.9228 C   0  0  0  0  0  0
  -24.6384  -11.6925   20.8755 C   0  0  0  0  0  0
  -23.9068  -10.4293   21.0405 C   0  0  0  0  0  0
  -24.3620   -9.4208   21.9181 C   0  0  0  0  0  0
  -23.6297   -8.2240   22.0749 C   0  0  0  0  0  0
  -22.4278   -8.0274   21.3543 C   0  0  0  0  0  0
  -21.9914   -9.0246   20.4645 C   0  0  0  0  0  0
  -22.7240  -10.2129   20.3054 C   0  0  0  0  0  0
  -21.6856   -6.0731   22.5279 C   0  0  0  0  0  0
  -21.4012   -6.5636   23.8212 C   0  0  0  0  0  0
  -21.3659   -5.6789   24.9174 C   0  0  0  0  0  0
  -21.6048   -4.3052   24.7226 C   0  0  0  0  0  0
  -21.8818   -3.8144   23.4345 C   0  0  0  0  0  0
  -21.9192   -4.6960   22.3403 C   0  0  0  0  0  0
  -22.7798  -13.5209   21.1879 C   0  0  0  0  0  0
  -22.1662   -4.2145   21.0982 F   0  0  0  0  0  0
  -21.5631   -3.4538   25.7740 F   0  0  0  0  0  0
  -29.9730  -13.5627   20.3796 N   0  0  0  0  0  0
  -26.2902  -12.9436   20.3275 N   0  0  0  0  0  0
  -25.9317  -11.6571   20.5757 N   0  0  0  0  0  0
  -22.0445  -12.8200   22.0439 N   0  0  0  0  0  0
  -25.4142  -15.1938   20.4129 N   0  0  0  0  0  0
  -31.8359  -14.7897   20.1456 O   0  0  0  0  0  0
  -21.6643   -6.8872   21.4241 O   0  0  0  0  0  0
  -22.3480  -14.5507   20.6715 O   0  0  0  0  0  0
  -24.6339  -31.8535   23.1966 C   0  0  0  0  0  0
  -25.9158  -32.4744   23.8314 C   0  0  1  0  0  0
  -27.2121  -27.2385   20.1288 C   0  0  0  0  0  0
  -25.5944  -33.8545   24.2236 N   0  0  0  0  0  0
  -23.4312  -30.4782   21.5403 C   0  0  2  0  0  0
  -24.8766  -28.9235   20.1088 C   0  0  0  0  0  0
  -22.7516  -29.4603   22.4888 C   0  0  0  0  0  0
  -18.0298  -28.1394   22.8479 C   0  0  0  0  0  0
  -24.1492  -36.7279   23.2640 C   0  0  0  0  0  0
  -25.9802  -30.7603   21.3797 C   0  0  0  0  0  0
  -26.0514  -29.3819   20.7186 C   0  0  0  0  0  0
  -27.2234  -28.5541   20.7136 C   0  0  0  0  0  0
  -26.0126  -26.8570   19.4870 C   0  0  0  0  0  0
  -24.8642  -27.6705   19.4806 C   0  0  0  0  0  0
  -23.6503  -29.8145   20.1560 C   0  0  0  0  0  0
  -25.4120  -36.3065   24.0323 C   0  0  1  0  0  0
  -20.5906  -28.3712   23.1254 C   0  0  2  0  0  0
  -20.6785  -26.9425   22.5400 C   0  0  0  0  0  0
  -19.5761  -26.6384   21.5209 C   0  0  0  0  0  0
  -18.1941  -26.7932   22.1622 C   0  0  0  0  0  0
  -19.1553  -28.8871   23.2861 C   0  0  0  0  0  0
  -18.9469  -30.1467   23.8889 C   0  0  0  0  0  0
  -17.6468  -30.6590   24.0568 C   0  0  0  0  0  0
  -25.9063  -34.9436   23.5085 C   0  0  0  0  0  0
  -16.5360  -29.9088   23.6333 C   0  0  0  0  0  0
  -16.7284  -28.6507   23.0351 C   0  0  0  0  0  0
  -26.4510  -31.6578   25.0718 C   0  0  0  0  0  0
  -25.3722  -31.3737   26.1432 C   0  0  0  0  0  0
  -27.0363  -30.2992   24.6224 C   0  0  0  0  0  0
  -27.6057  -32.4326   25.7496 C   0  0  0  0  0  0
  -27.5578  -37.1796   24.8465 C   0  0  0  0  0  0
  -21.4221  -29.3055   22.3638 N   0  0  0  0  0  0
  -26.4290  -37.3768   23.9409 N   0  0  0  0  0  0
  -24.7012  -31.0488   22.0950 N   0  0  0  0  0  0
  -23.4210  -28.8139   23.2993 O   0  0  0  0  0  0
  -28.2932  -26.3197   20.1885 O   0  0  0  0  0  0
  -26.5633  -34.8921   22.4655 O   0  0  0  0  0  0
  -23.5483  -32.1362   23.7246 O   0  0  0  0  0  0
  -31.1008  -19.3974   21.7714 C   0  0  0  0  0  0
  -32.0545  -18.7076   22.4517 C   0  0  0  0  0  0
  -30.1832  -18.5934   21.0203 C   0  0  0  0  0  0
  -30.4898  -17.1882   21.1364 C   0  0  0  0  0  0
  -31.0783  -19.7203   16.4359 C   0  0  0  0  0  0
  -30.4860  -23.0257   16.8658 C   0  0  0  0  0  0
  -31.5359  -21.4001   19.0824 C   0  0  0  0  0  0
  -30.2756  -19.6680   17.7495 C   0  0  0  0  0  0
  -29.5167  -22.0727   17.5914 C   0  0  0  0  0  0
  -29.1489  -23.7158   20.4333 C   0  0  0  0  0  0
  -28.0110  -24.8305   20.1153 C   0  0  0  0  0  0
  -29.1334  -20.8063   19.7692 C   0  0  1  0  0  0
  -28.8950  -22.1129   20.7525 C   0  0  2  0  0  0
  -30.1340  -21.0020   18.5580 C   0  0  0  0  0  0
  -29.1486  -19.3735   20.3464 N   0  0  0  0  0  0
  -29.9561  -15.9664   20.6779 N   0  0  0  0  0  0
  -27.6873  -22.0002   21.3082 F   0  0  0  0  0  0
  -31.8713  -17.0145   22.2288 S   0  0  0  0  0  0
  -31.4619  -12.5824   19.1670 H   0  0  0  0  0  0
  -30.3563  -11.5091   19.9768 H   0  0  0  0  0  0
  -29.7907  -11.7235   17.5299 H   0  0  0  0  0  0
  -29.6257  -13.4538   17.7062 H   0  0  0  0  0  0
  -27.9026  -11.2794   18.9351 H   0  0  0  0  0  0
  -27.3711  -12.4945   17.8038 H   0  0  0  0  0  0
  -27.6162  -14.2543   19.4447 H   0  0  0  0  0  0
  -28.7263  -12.2267   21.4446 H   0  0  0  0  0  0
  -28.4133  -13.9173   21.7662 H   0  0  0  0  0  0
  -25.2759   -9.5691   22.4760 H   0  0  0  0  0  0
  -24.0008   -7.4634   22.7468 H   0  0  0  0  0  0
  -21.0843   -8.8760   19.8953 H   0  0  0  0  0  0
  -22.3686  -10.9666   19.6166 H   0  0  0  0  0  0
  -21.2001   -7.6145   23.9717 H   0  0  0  0  0  0
  -21.1487   -6.0519   25.9079 H   0  0  0  0  0  0
  -22.0597   -2.7606   23.2851 H   0  0  0  0  0  0
  -22.4064  -11.9876   22.4850 H   0  0  0  0  0  0
  -21.1053  -13.1217   22.2622 H   0  0  0  0  0  0
  -24.6451  -15.8457   20.5245 H   0  0  0  0  0  0
  -26.2586  -15.6360   20.0743 H   0  0  0  0  0  0
  -26.7224  -32.5383   23.1048 H   0  0  0  0  0  0
  -25.0101  -33.9670   25.0391 H   0  0  0  0  0  0
  -22.7293  -31.3016   21.3936 H   0  0  0  0  0  0
  -23.3757  -35.9609   23.3299 H   0  0  0  0  0  0
  -24.3580  -36.8908   22.2055 H   0  0  0  0  0  0
  -23.7239  -37.6478   23.6667 H   0  0  0  0  0  0
  -26.1244  -31.5213   20.6115 H   0  0  0  0  0  0
  -26.8560  -30.8061   22.0151 H   0  0  0  0  0  0
  -28.1223  -28.8992   21.2046 H   0  0  0  0  0  0
  -25.9274  -25.9019   18.9923 H   0  0  0  0  0  0
  -23.9660  -27.3143   18.9949 H   0  0  0  0  0  0
  -23.7817  -30.5921   19.4027 H   0  0  0  0  0  0
  -22.7664  -29.2537   19.8461 H   0  0  0  0  0  0
  -25.1302  -36.1909   25.0813 H   0  0  0  0  0  0
  -21.0001  -28.3294   24.1375 H   0  0  0  0  0  0
  -20.5690  -26.2322   23.3611 H   0  0  0  0  0  0
  -21.6651  -26.7442   22.1197 H   0  0  0  0  0  0
  -19.6924  -25.6291   21.1250 H   0  0  0  0  0  0
  -19.6700  -27.3188   20.6737 H   0  0  0  0  0  0
  -17.4208  -26.6678   21.4027 H   0  0  0  0  0  0
  -18.0345  -26.0076   22.9024 H   0  0  0  0  0  0
  -19.7947  -30.7283   24.2253 H   0  0  0  0  0  0
  -17.5026  -31.6272   24.5170 H   0  0  0  0  0  0
  -15.5362  -30.2993   23.7662 H   0  0  0  0  0  0
  -15.8681  -28.0830   22.7065 H   0  0  0  0  0  0
  -24.5906  -30.7075   25.7757 H   0  0  0  0  0  0
  -24.8905  -32.2911   26.4822 H   0  0  0  0  0  0
  -25.8032  -30.8936   27.0226 H   0  0  0  0  0  0
  -26.2954  -29.6730   24.1239 H   0  0  0  0  0  0
  -27.4030  -29.7263   25.4751 H   0  0  0  0  0  0
  -27.8839  -30.4261   23.9486 H   0  0  0  0  0  0
  -27.2659  -33.3633   26.2046 H   0  0  0  0  0  0
  -28.3881  -32.6870   25.0335 H   0  0  0  0  0  0
  -28.0710  -31.8469   26.5432 H   0  0  0  0  0  0
  -28.2592  -38.0095   24.7513 H   0  0  0  0  0  0
  -28.1075  -36.2626   24.6290 H   0  0  0  0  0  0
  -27.2294  -37.1446   25.8867 H   0  0  0  0  0  0
  -20.9405  -29.8789   21.6855 H   0  0  0  0  0  0
  -26.0167  -38.2842   24.1411 H   0  0  0  0  0  0
  -31.0499  -20.4721   21.8038 H   0  0  0  0  0  0
  -32.8458  -19.0934   23.0818 H   0  0  0  0  0  0
  -31.1551  -18.7232   16.0021 H   0  0  0  0  0  0
  -32.0945  -20.0812   16.5902 H   0  0  0  0  0  0
  -30.6007  -20.3497   15.6859 H   0  0  0  0  0  0
  -29.9398  -23.6770   16.1833 H   0  0  0  0  0  0
  -31.2303  -22.4930   16.2764 H   0  0  0  0  0  0
  -31.0158  -23.6711   17.5662 H   0  0  0  0  0  0
  -32.2278  -21.6426   18.2775 H   0  0  0  0  0  0
  -32.0018  -20.5822   19.6269 H   0  0  0  0  0  0
  -31.5112  -22.2587   19.7493 H   0  0  0  0  0  0
  -30.7523  -18.9073   18.3673 H   0  0  0  0  0  0
  -29.2835  -19.2766   17.5204 H   0  0  0  0  0  0
  -28.9059  -21.5678   16.8421 H   0  0  0  0  0  0
  -28.7857  -22.6923   18.1021 H   0  0  0  0  0  0
  -29.6128  -24.0939   21.3443 H   0  0  0  0  0  0
  -29.9411  -23.8270   19.6982 H   0  0  0  0  0  0
  -27.1764  -24.6350   20.7892 H   0  0  0  0  0  0
  -27.6442  -24.6103   19.1131 H   0  0  0  0  0  0
  -28.1713  -20.7621   19.2553 H   0  0  0  0  0  0
  -29.5563  -21.9352   21.5965 H   0  0  0  0  0  0
  -28.4133  -18.7965   19.9518 H   0  0  0  0  0  0
  -28.9507  -15.9201   20.6247 H   0  0  0  0  0  0
  1 25  1  0  0  0
  1 30  2  0  0  0
  1 86  1  0  0  0
  2  3  1  0  0  0
  2 25  1  0  0  0
  2 89  1  0  0  0
  2 90  1  0  0  0
  3  4  1  0  0  0
  3 91  1  0  0  0
  3 92  1  0  0  0
  4  5  1  0  0  0
  4 93  1  0  0  0
  4 94  1  0  0  0
  5  6  1  0  0  0
  5 26  1  0  0  0
  5 95  1  0  0  0
  6 25  1  0  0  0
  6 96  1  0  0  0
  6 97  1  0  0  0
  7  8  2  0  0  0
  7 26  1  0  0  0
  7 29  1  0  0  0
  8  9  1  0  0  0
  8 22  1  0  0  0
  9 10  1  0  0  0
  9 27  2  0  0  0
 10 11  2  0  0  0
 10 15  1  0  0  0
 11 12  1  0  0  0
 11 98  1  0  0  0
 12 13  2  0  0  0
 12 99  1  0  0  0
 13 14  1  0  0  0
 13 31  1  0  0  0
 14 15  2  0  0  0
 14100  1  0  0  0
 15101  1  0  0  0
 16 17  2  0  0  0
 16 21  1  0  0  0
 16 31  1  0  0  0
 17 18  1  0  0  0
 17102  1  0  0  0
 18 19  2  0  0  0
 18103  1  0  0  0
 19 20  1  0  0  0
 19 24  1  0  0  0
 20 21  2  0  0  0
 20104  1  0  0  0
 21 23  1  0  0  0
 22 28  1  0  0  0
 22 32  2  0  0  0
 26 27  1  0  0  0
 28105  1  0  0  0
 28106  1  0  0  0
 29107  1  0  0  0
 29108  1  0  0  0
 33 34  1  0  0  0
 33 66  1  0  0  0
 33 70  2  0  0  0
 34 36  1  0  0  0
 34 59  1  0  0  0
 34109  1  0  0  0
 35 44  2  0  0  0
 35 45  1  0  0  0
 35 68  1  0  0  0
 36 56  1  0  0  0
 36110  1  0  0  0
 37 39  1  0  0  0
 37 47  1  0  0  0
 37 66  1  0  0  0
 37111  1  0  0  0
 38 43  2  0  0  0
 38 46  1  0  0  0
 38 47  1  0  0  0
 39 64  1  0  0  0
 39 67  2  0  0  0
 40 52  1  0  0  0
 40 53  2  0  0  0
 40 58  1  0  0  0
 41112  1  0  0  0
 41113  1  0  0  0
 41114  1  0  0  0
 41 48  1  0  0  0
 42 43  1  0  0  0
 42 66  1  0  0  0
 42115  1  0  0  0
 42116  1  0  0  0
 43 44  1  0  0  0
 44117  1  0  0  0
 45 46  2  0  0  0
 45118  1  0  0  0
 46119  1  0  0  0
 47120  1  0  0  0
 47121  1  0  0  0
 48 56  1  0  0  0
 48 65  1  0  0  0
 48122  1  0  0  0
 49 50  1  0  0  0
 49 53  1  0  0  0
 49 64  1  0  0  0
 49123  1  0  0  0
 50 51  1  0  0  0
 50124  1  0  0  0
 50125  1  0  0  0
 51 52  1  0  0  0
 51126  1  0  0  0
 51127  1  0  0  0
 52128  1  0  0  0
 52129  1  0  0  0
 53 54  1  0  0  0
 54 55  2  0  0  0
 54130  1  0  0  0
 55 57  1  0  0  0
 55131  1  0  0  0
 56 69  2  0  0  0
 57 58  2  0  0  0
 57132  1  0  0  0
 58133  1  0  0  0
 59 60  1  0  0  0
 59 61  1  0  0  0
 59 62  1  0  0  0
 60134  1  0  0  0
 60135  1  0  0  0
 60136  1  0  0  0
 61137  1  0  0  0
 61138  1  0  0  0
 61139  1  0  0  0
 62140  1  0  0  0
 62141  1  0  0  0
 62142  1  0  0  0
 63 65  1  0  0  0
 63143  1  0  0  0
 63144  1  0  0  0
 63145  1  0  0  0
 64146  1  0  0  0
 65147  1  0  0  0
 68 81  1  0  0  0
 71 72  2  0  0  0
 71 73  1  0  0  0
 71148  1  0  0  0
 72 88  1  0  0  0
 72149  1  0  0  0
 73 74  2  0  0  0
 73 85  1  0  0  0
 74 86  1  0  0  0
 74 88  1  0  0  0
 75 78  1  0  0  0
 75150  1  0  0  0
 75151  1  0  0  0
 75152  1  0  0  0
 76 79  1  0  0  0
 76153  1  0  0  0
 76154  1  0  0  0
 76155  1  0  0  0
 77156  1  0  0  0
 77157  1  0  0  0
 77158  1  0  0  0
 77 84  1  0  0  0
 78 84  1  0  0  0
 78159  1  0  0  0
 78160  1  0  0  0
 79 84  1  0  0  0
 79161  1  0  0  0
 79162  1  0  0  0
 80 81  1  0  0  0
 80 83  1  0  0  0
 80163  1  0  0  0
 80164  1  0  0  0
 81165  1  0  0  0
 81166  1  0  0  0
 82 83  1  0  0  0
 82 84  1  0  0  0
 82 85  1  0  0  0
 82167  1  0  0  0
 83 87  1  0  0  0
 83168  1  0  0  0
 85169  1  0  0  0
 86170  1  0  0  0
M  ISO  4   1 100  68 101  81 101  86 100
M  END
> <chiral flag>
0

> <version>
0

> <s_m_source_file>
/data/baiqing/PycharmProjects/Reinvent-master-3.2/result/LINK_invent/BTK/process_docking_weight1_custom_product_contain_oxygen_bond_distance_aromatic_linkinvent_7_9_3/rearranged_h_0189.sdf

> <i_m_source_file_index>
38

> <r_mmod_Potential_Energy-OPLS-2005>
246.933868408203

> <r_mmod_Stretch_Energy-OPLS-2005>
165.169799804688

> <r_mmod_Bend_Energy-OPLS-2005>
258.016296386719

> <r_mmod_Torsional_Energy-OPLS-2005>
288.212890625

> <r_mmod_Improper_Torsional_Energy-OPLS-2005>
6.81429672241211

> <r_mmod_Van_der_Waal_Energy-OPLS-2005>
143.129425048828

> <r_mmod_Electrostatic_Energy-OPLS-2005>
-503.341156005859

> <r_mmod_Solvation_Energy-OPLS-2005>
-209.766571044922

> <b_mmod_Minimization_Converged-OPLS-2005>
0

> <r_mmod_RMS_Derivative-OPLS-2005>
0.825673639774323

$$$$
38
                    3D
 Structure written by MMmdl.
164172  0  0  1  0            999 V2000
  -30.7293  -14.4451   20.6548 C   0  0  0  0  0  0
  -30.4238  -12.3139   19.4303 C   0  0  0  0  0  0
  -29.4992  -12.5348   18.2149 C   0  0  0  0  0  0
  -28.0252  -12.3641   18.6194 C   0  0  0  0  0  0
  -27.6657  -13.2024   19.8715 C   0  0  2  0  0  0
  -28.6986  -12.9842   21.0023 C   0  0  0  0  0  0
  -25.2630  -13.8143   20.5666 C   0  0  0  0  0  0
  -24.1851  -13.0462   20.9139 C   0  0  0  0  0  0
  -24.6384  -11.6923   20.8705 C   0  0  0  0  0  0
  -23.9045  -10.4318   21.0386 C   0  0  0  0  0  0
  -24.3605   -9.4242   21.9181 C   0  0  0  0  0  0
  -23.6271   -8.2274   22.0767 C   0  0  0  0  0  0
  -22.4256   -8.0294   21.3549 C   0  0  0  0  0  0
  -21.9881   -9.0283   20.4664 C   0  0  0  0  0  0
  -22.7202  -10.2165   20.3052 C   0  0  0  0  0  0
  -21.6849   -6.0725   22.5268 C   0  0  0  0  0  0
  -21.4022   -6.5643   23.8205 C   0  0  0  0  0  0
  -21.3665   -5.6799   24.9167 C   0  0  0  0  0  0
  -21.6038   -4.3060   24.7209 C   0  0  0  0  0  0
  -21.8827   -3.8144   23.4333 C   0  0  0  0  0  0
  -21.9205   -4.6952   22.3382 C   0  0  0  0  0  0
  -22.7889  -13.5308   21.1786 C   0  0  0  0  0  0
  -22.1666   -4.2132   21.0956 F   0  0  0  0  0  0
  -21.5618   -3.4553   25.7720 F   0  0  0  0  0  0
  -30.0489  -13.2753   20.4816 N   0  0  0  0  0  0
  -26.3045  -12.9296   20.3301 N   0  0  0  0  0  0
  -25.9297  -11.6470   20.5698 N   0  0  0  0  0  0
  -22.0494  -12.8357   22.0356 N   0  0  0  0  0  0
  -25.4421  -15.1853   20.4122 N   0  0  0  0  0  0
  -31.7452  -14.7304   20.0077 O   0  0  0  0  0  0
  -21.6633   -6.8879   21.4232 O   0  0  0  0  0  0
  -22.3611  -14.5621   20.6626 O   0  0  0  0  0  0
  -24.6180  -31.8684   23.2122 C   0  0  0  0  0  0
  -25.9078  -32.4815   23.8421 C   0  0  1  0  0  0
  -27.2193  -27.3801   20.0966 C   0  0  0  0  0  0
  -25.5939  -33.8624   24.2352 N   0  0  0  0  0  0
  -23.4057  -30.4964   21.5548 C   0  0  2  0  0  0
  -24.8466  -28.9646   20.1101 C   0  0  0  0  0  0
  -22.7436  -29.4654   22.4989 C   0  0  0  0  0  0
  -18.0277  -28.1378   22.8483 C   0  0  0  0  0  0
  -24.1491  -36.7309   23.2630 C   0  0  0  0  0  0
  -25.9426  -30.8111   21.3796 C   0  0  0  0  0  0
  -26.0109  -29.4451   20.7217 C   0  0  0  0  0  0
  -27.1938  -28.6589   20.7179 C   0  0  0  0  0  0
  -26.0298  -26.9423   19.4611 C   0  0  0  0  0  0
  -24.8552  -27.7144   19.4761 C   0  0  0  0  0  0
  -23.6140  -29.8434   20.1652 C   0  0  0  0  0  0
  -25.4109  -36.3106   24.0338 C   0  0  1  0  0  0
  -20.5873  -28.3667   23.1303 C   0  0  2  0  0  0
  -20.6775  -26.9406   22.5412 C   0  0  0  0  0  0
  -19.5751  -26.6386   21.5214 C   0  0  0  0  0  0
  -18.1921  -26.7919   22.1618 C   0  0  0  0  0  0
  -19.1528  -28.8843   23.2880 C   0  0  0  0  0  0
  -18.9452  -30.1449   23.8885 C   0  0  0  0  0  0
  -17.6453  -30.6577   24.0557 C   0  0  0  0  0  0
  -25.9053  -34.9469   23.5140 C   0  0  0  0  0  0
  -16.5346  -29.9074   23.6330 C   0  0  0  0  0  0
  -16.7266  -28.6495   23.0349 C   0  0  0  0  0  0
  -26.4501  -31.6594   25.0747 C   0  0  0  0  0  0
  -25.3775  -31.3737   26.1508 C   0  0  0  0  0  0
  -27.0325  -30.3014   24.6166 C   0  0  0  0  0  0
  -27.6093  -32.4317   25.7475 C   0  0  0  0  0  0
  -27.5591  -37.1796   24.8460 C   0  0  0  0  0  0
  -21.4172  -29.3032   22.3710 N   0  0  0  0  0  0
  -26.4295  -37.3789   23.9417 N   0  0  0  0  0  0
  -24.6738  -31.0750   22.1055 N   0  0  0  0  0  0
  -23.4198  -28.8213   23.3044 O   0  0  0  0  0  0
  -28.3793  -26.6038   20.1546 O   0  0  0  0  0  0
  -26.5604  -34.8918   22.4698 O   0  0  0  0  0  0
  -23.5368  -32.1470   23.7484 O   0  0  0  0  0  0
  -30.4795  -17.4134   22.7572 C   0  0  0  0  0  0
  -30.2543  -18.8102   22.5275 C   0  0  0  0  0  0
  -30.2632  -16.6124   21.6641 C   0  0  0  0  0  0
  -29.8454  -19.1064   21.2500 C   0  0  0  0  0  0
  -28.8072  -22.3233   18.6050 C   0  0  0  0  0  0
  -28.8112  -25.5941   18.0619 C   0  0  0  0  0  0
  -30.2312  -22.0517   22.2634 C   0  0  0  0  0  0
  -31.3964  -21.5997   20.1130 C   0  0  0  0  0  0
  -29.3986  -24.2683   20.2262 C   0  0  0  0  0  0
  -29.0579  -22.7202   20.0792 C   0  0  2  0  0  0
  -28.4248  -25.2907   19.5258 C   0  0  1  0  0  0
  -30.0120  -21.6568   20.7894 C   0  0  0  0  0  0
  -30.2888  -15.2424   21.6444 N   0  0  0  0  0  0
  -29.3849  -20.3180   20.6796 N   0  0  0  0  0  0
  -29.7865  -17.6230   20.3018 S   0  0  0  0  0  0
  -31.4704  -12.4081   19.1371 H   0  0  0  0  0  0
  -30.3214  -11.2967   19.8119 H   0  0  0  0  0  0
  -29.7492  -11.8380   17.4150 H   0  0  0  0  0  0
  -29.6542  -13.5367   17.8083 H   0  0  0  0  0  0
  -27.8632  -11.3039   18.8256 H   0  0  0  0  0  0
  -27.3737  -12.6255   17.7839 H   0  0  0  0  0  0
  -27.7105  -14.2497   19.5684 H   0  0  0  0  0  0
  -28.6622  -11.9487   21.3453 H   0  0  0  0  0  0
  -28.4315  -13.5865   21.8709 H   0  0  0  0  0  0
  -25.2764   -9.5704   22.4752 H   0  0  0  0  0  0
  -23.9962   -7.4688   22.7518 H   0  0  0  0  0  0
  -21.0790   -8.8821   19.9009 H   0  0  0  0  0  0
  -22.3657  -10.9710   19.6152 H   0  0  0  0  0  0
  -21.2026   -7.6145   23.9707 H   0  0  0  0  0  0
  -21.1460   -6.0522   25.9077 H   0  0  0  0  0  0
  -22.0591   -2.7591   23.2842 H   0  0  0  0  0  0
  -22.4052  -11.9979   22.4717 H   0  0  0  0  0  0
  -21.1126  -13.1442   22.2535 H   0  0  0  0  0  0
  -24.7017  -15.8599   20.5713 H   0  0  0  0  0  0
  -26.3037  -15.6136   20.1004 H   0  0  0  0  0  0
  -26.7140  -32.5511   23.1175 H   0  0  0  0  0  0
  -25.0104  -33.9800   25.0505 H   0  0  0  0  0  0
  -22.6921  -31.3130   21.4265 H   0  0  0  0  0  0
  -23.3744  -35.9654   23.3307 H   0  0  0  0  0  0
  -24.3570  -36.8903   22.2042 H   0  0  0  0  0  0
  -23.7257  -37.6525   23.6631 H   0  0  0  0  0  0
  -26.0747  -31.5759   20.6126 H   0  0  0  0  0  0
  -26.8235  -30.8526   22.0092 H   0  0  0  0  0  0
  -28.0849  -29.0193   21.2112 H   0  0  0  0  0  0
  -25.9603  -26.0024   18.9360 H   0  0  0  0  0  0
  -23.9623  -27.3426   18.9895 H   0  0  0  0  0  0
  -23.7305  -30.6306   19.4190 H   0  0  0  0  0  0
  -22.7304  -29.2800   19.8595 H   0  0  0  0  0  0
  -25.1275  -36.1973   25.0826 H   0  0  0  0  0  0
  -20.9945  -28.3236   24.1432 H   0  0  0  0  0  0
  -20.5688  -26.2290   23.3604 H   0  0  0  0  0  0
  -21.6643  -26.7437   22.1206 H   0  0  0  0  0  0
  -19.6917  -25.6304   21.1224 H   0  0  0  0  0  0
  -19.6686  -27.3216   20.6758 H   0  0  0  0  0  0
  -17.4200  -26.6667   21.4005 H   0  0  0  0  0  0
  -18.0302  -26.0054   22.9007 H   0  0  0  0  0  0
  -19.7938  -30.7267   24.2243 H   0  0  0  0  0  0
  -17.5009  -31.6252   24.5187 H   0  0  0  0  0  0
  -15.5340  -30.2976   23.7655 H   0  0  0  0  0  0
  -15.8668  -28.0810   22.7063 H   0  0  0  0  0  0
  -24.5925  -30.7102   25.7861 H   0  0  0  0  0  0
  -24.9005  -32.2917   26.4949 H   0  0  0  0  0  0
  -25.8130  -30.8907   27.0266 H   0  0  0  0  0  0
  -26.2876  -29.6758   24.1227 H   0  0  0  0  0  0
  -27.4074  -29.7263   25.4645 H   0  0  0  0  0  0
  -27.8733  -30.4293   23.9343 H   0  0  0  0  0  0
  -27.2731  -33.3619   26.2066 H   0  0  0  0  0  0
  -28.3868  -32.6874   25.0265 H   0  0  0  0  0  0
  -28.0803  -31.8440   26.5362 H   0  0  0  0  0  0
  -28.2605  -38.0094   24.7502 H   0  0  0  0  0  0
  -28.1084  -36.2625   24.6273 H   0  0  0  0  0  0
  -27.2319  -37.1431   25.8864 H   0  0  0  0  0  0
  -20.9342  -29.8750   21.6924 H   0  0  0  0  0  0
  -26.0181  -38.2866   24.1415 H   0  0  0  0  0  0
  -30.7686  -17.0519   23.7340 H   0  0  0  0  0  0
  -30.3551  -19.5072   23.3423 H   0  0  0  0  0  0
  -28.0084  -22.9119   18.1599 H   0  0  0  0  0  0
  -28.4811  -21.2908   18.4954 H   0  0  0  0  0  0
  -29.7031  -22.4480   17.9979 H   0  0  0  0  0  0
  -28.9127  -24.7117   17.4373 H   0  0  0  0  0  0
  -29.7672  -26.1163   18.0256 H   0  0  0  0  0  0
  -28.0708  -26.2310   17.5763 H   0  0  0  0  0  0
  -30.6321  -23.0609   22.3471 H   0  0  0  0  0  0
  -30.9828  -21.4299   22.7458 H   0  0  0  0  0  0
  -29.3126  -22.0013   22.8481 H   0  0  0  0  0  0
  -31.8353  -22.5921   20.0167 H   0  0  0  0  0  0
  -31.3595  -21.1593   19.1156 H   0  0  0  0  0  0
  -32.0968  -21.0000   20.6979 H   0  0  0  0  0  0
  -30.4246  -24.4739   19.9228 H   0  0  0  0  0  0
  -29.3614  -24.5088   21.2876 H   0  0  0  0  0  0
  -28.0909  -22.6122   20.5733 H   0  0  0  0  0  0
  -27.4541  -24.8038   19.5851 H   0  0  0  0  0  0
  -29.7301  -14.7827   22.3498 H   0  0  0  0  0  0
  -28.9489  -20.1730   19.7745 H   0  0  0  0  0  0
  1 25  1  0  0  0
  1 30  2  0  0  0
  1 83  1  0  0  0
  2  3  1  0  0  0
  2 25  1  0  0  0
  2 86  1  0  0  0
  2 87  1  0  0  0
  3  4  1  0  0  0
  3 88  1  0  0  0
  3 89  1  0  0  0
  4  5  1  0  0  0
  4 90  1  0  0  0
  4 91  1  0  0  0
  5  6  1  0  0  0
  5 26  1  0  0  0
  5 92  1  0  0  0
  6 25  1  0  0  0
  6 93  1  0  0  0
  6 94  1  0  0  0
  7  8  2  0  0  0
  7 26  1  0  0  0
  7 29  1  0  0  0
  8  9  1  0  0  0
  8 22  1  0  0  0
  9 10  1  0  0  0
  9 27  2  0  0  0
 10 11  2  0  0  0
 10 15  1  0  0  0
 11 12  1  0  0  0
 11 95  1  0  0  0
 12 13  2  0  0  0
 12 96  1  0  0  0
 13 14  1  0  0  0
 13 31  1  0  0  0
 14 15  2  0  0  0
 14 97  1  0  0  0
 15 98  1  0  0  0
 16 17  2  0  0  0
 16 21  1  0  0  0
 16 31  1  0  0  0
 17 18  1  0  0  0
 17 99  1  0  0  0
 18 19  2  0  0  0
 18100  1  0  0  0
 19 20  1  0  0  0
 19 24  1  0  0  0
 20 21  2  0  0  0
 20101  1  0  0  0
 21 23  1  0  0  0
 22 28  1  0  0  0
 22 32  2  0  0  0
 26 27  1  0  0  0
 28102  1  0  0  0
 28103  1  0  0  0
 29104  1  0  0  0
 29105  1  0  0  0
 33 34  1  0  0  0
 33 66  1  0  0  0
 33 70  2  0  0  0
 34 36  1  0  0  0
 34 59  1  0  0  0
 34106  1  0  0  0
 35 44  2  0  0  0
 35 45  1  0  0  0
 35 68  1  0  0  0
 36 56  1  0  0  0
 36107  1  0  0  0
 37 39  1  0  0  0
 37 47  1  0  0  0
 37 66  1  0  0  0
 37108  1  0  0  0
 38 43  2  0  0  0
 38 46  1  0  0  0
 38 47  1  0  0  0
 39 64  1  0  0  0
 39 67  2  0  0  0
 40 52  1  0  0  0
 40 53  2  0  0  0
 40 58  1  0  0  0
 41109  1  0  0  0
 41110  1  0  0  0
 41111  1  0  0  0
 41 48  1  0  0  0
 42 43  1  0  0  0
 42 66  1  0  0  0
 42112  1  0  0  0
 42113  1  0  0  0
 43 44  1  0  0  0
 44114  1  0  0  0
 45 46  2  0  0  0
 45115  1  0  0  0
 46116  1  0  0  0
 47117  1  0  0  0
 47118  1  0  0  0
 48 56  1  0  0  0
 48 65  1  0  0  0
 48119  1  0  0  0
 49 50  1  0  0  0
 49 53  1  0  0  0
 49 64  1  0  0  0
 49120  1  0  0  0
 50 51  1  0  0  0
 50121  1  0  0  0
 50122  1  0  0  0
 51 52  1  0  0  0
 51123  1  0  0  0
 51124  1  0  0  0
 52125  1  0  0  0
 52126  1  0  0  0
 53 54  1  0  0  0
 54 55  2  0  0  0
 54127  1  0  0  0
 55 57  1  0  0  0
 55128  1  0  0  0
 56 69  2  0  0  0
 57 58  2  0  0  0
 57129  1  0  0  0
 58130  1  0  0  0
 59 60  1  0  0  0
 59 61  1  0  0  0
 59 62  1  0  0  0
 60131  1  0  0  0
 60132  1  0  0  0
 60133  1  0  0  0
 61134  1  0  0  0
 61135  1  0  0  0
 61136  1  0  0  0
 62137  1  0  0  0
 62138  1  0  0  0
 62139  1  0  0  0
 63 65  1  0  0  0
 63140  1  0  0  0
 63141  1  0  0  0
 63142  1  0  0  0
 64143  1  0  0  0
 65144  1  0  0  0
 68 81  1  0  0  0
 71 72  1  0  0  0
 71 73  2  0  0  0
 71145  1  0  0  0
 72 74  2  0  0  0
 72146  1  0  0  0
 73 83  1  0  0  0
 73 85  1  0  0  0
 74 84  1  0  0  0
 74 85  1  0  0  0
 75147  1  0  0  0
 75148  1  0  0  0
 75149  1  0  0  0
 75 80  1  0  0  0
 76150  1  0  0  0
 76151  1  0  0  0
 76152  1  0  0  0
 76 81  1  0  0  0
 77153  1  0  0  0
 77154  1  0  0  0
 77155  1  0  0  0
 77 82  1  0  0  0
 78 82  1  0  0  0
 78156  1  0  0  0
 78157  1  0  0  0
 78158  1  0  0  0
 79 80  1  0  0  0
 79 81  1  0  0  0
 79159  1  0  0  0
 79160  1  0  0  0
 80 82  1  0  0  0
 80161  1  0  0  0
 81162  1  0  0  0
 82 84  1  0  0  0
 83163  1  0  0  0
 84164  1  0  0  0
M  ISO  4   1 100  68 101  81 101  83 100
M  END
> <chiral flag>
0

> <version>
0

> <s_m_source_file>
/data/baiqing/PycharmProjects/Reinvent-master-3.2/result/LINK_invent/BTK/process_docking_weight1_custom_product_contain_oxygen_bond_distance_aromatic_linkinvent_7_9_3/rearranged_h_0189.sdf

> <i_m_source_file_index>
39

> <r_mmod_Potential_Energy-OPLS-2005>
-48.3690490722656

> <r_mmod_Stretch_Energy-OPLS-2005>
55.085521697998

> <r_mmod_Bend_Energy-OPLS-2005>
138.571701049805

> <r_mmod_Torsional_Energy-OPLS-2005>
246.218048095703

> <r_mmod_Improper_Torsional_Energy-OPLS-2005>
6.36821031570435

> <r_mmod_Van_der_Waal_Energy-OPLS-2005>
141.64826965332

> <r_mmod_Electrostatic_Energy-OPLS-2005>
-450.529266357422

> <r_mmod_Solvation_Energy-OPLS-2005>
-203.548233032227

> <b_mmod_Minimization_Converged-OPLS-2005>
0

> <r_mmod_RMS_Derivative-OPLS-2005>
4.43232345581055

$$$$
39
                    3D
 Structure written by MMmdl.
162170  0  0  1  0            999 V2000
  -30.7208  -14.4022   20.5933 C   0  0  0  0  0  0
  -30.4171  -12.2767   19.4056 C   0  0  0  0  0  0
  -29.4876  -12.5049   18.1967 C   0  0  0  0  0  0
  -28.0104  -12.3626   18.6106 C   0  0  0  0  0  0
  -27.6596  -13.1983   19.8709 C   0  0  2  0  0  0
  -28.6963  -12.9554   20.9921 C   0  0  0  0  0  0
  -25.2560  -13.8146   20.5655 C   0  0  0  0  0  0
  -24.1827  -13.0419   20.9164 C   0  0  0  0  0  0
  -24.6367  -11.6890   20.8718 C   0  0  0  0  0  0
  -23.9045  -10.4279   21.0400 C   0  0  0  0  0  0
  -24.3611   -9.4195   21.9174 C   0  0  0  0  0  0
  -23.6288   -8.2234   22.0756 C   0  0  0  0  0  0
  -22.4266   -8.0269   21.3551 C   0  0  0  0  0  0
  -21.9895   -9.0238   20.4644 C   0  0  0  0  0  0
  -22.7224  -10.2115   20.3043 C   0  0  0  0  0  0
  -21.6851   -6.0727   22.5283 C   0  0  0  0  0  0
  -21.4009   -6.5634   23.8214 C   0  0  0  0  0  0
  -21.3654   -5.6787   24.9176 C   0  0  0  0  0  0
  -21.6046   -4.3050   24.7229 C   0  0  0  0  0  0
  -21.8826   -3.8142   23.4350 C   0  0  0  0  0  0
  -21.9193   -4.6955   22.3404 C   0  0  0  0  0  0
  -22.7846  -13.5215   21.1861 C   0  0  0  0  0  0
  -22.1661   -4.2141   21.0983 F   0  0  0  0  0  0
  -21.5630   -3.4534   25.7745 F   0  0  0  0  0  0
  -30.0384  -13.2383   20.4497 N   0  0  0  0  0  0
  -26.2996  -12.9304   20.3309 N   0  0  0  0  0  0
  -25.9284  -11.6468   20.5713 N   0  0  0  0  0  0
  -22.0494  -12.8187   22.0410 N   0  0  0  0  0  0
  -25.4245  -15.1878   20.4117 N   0  0  0  0  0  0
  -31.8408  -14.5912   20.1069 O   0  0  0  0  0  0
  -21.6634   -6.8865   21.4248 O   0  0  0  0  0  0
  -22.3521  -14.5531   20.6731 O   0  0  0  0  0  0
  -24.6091  -31.8731   23.2137 C   0  0  0  0  0  0
  -25.9012  -32.4844   23.8405 C   0  0  1  0  0  0
  -27.2330  -27.4843   20.0840 C   0  0  0  0  0  0
  -25.5891  -33.8637   24.2349 N   0  0  0  0  0  0
  -23.3945  -30.4972   21.5540 C   0  0  2  0  0  0
  -24.8428  -28.9668   20.1182 C   0  0  0  0  0  0
  -22.7378  -29.4694   22.5026 C   0  0  0  0  0  0
  -18.0260  -28.1378   22.8474 C   0  0  0  0  0  0
  -24.1494  -36.7301   23.2638 C   0  0  0  0  0  0
  -25.9177  -30.8488   21.3644 C   0  0  0  0  0  0
  -25.9971  -29.4823   20.7224 C   0  0  0  0  0  0
  -27.1979  -28.7448   20.7175 C   0  0  0  0  0  0
  -26.0709  -26.9746   19.4744 C   0  0  0  0  0  0
  -24.8696  -27.7060   19.4948 C   0  0  0  0  0  0
  -23.6023  -29.8297   20.1690 C   0  0  0  0  0  0
  -25.4115  -36.3119   24.0337 C   0  0  1  0  0  0
  -20.5839  -28.3665   23.1318 C   0  0  2  0  0  0
  -20.6747  -26.9405   22.5428 C   0  0  0  0  0  0
  -19.5738  -26.6391   21.5204 C   0  0  0  0  0  0
  -18.1909  -26.7924   22.1607 C   0  0  0  0  0  0
  -19.1510  -28.8836   23.2878 C   0  0  0  0  0  0
  -18.9455  -30.1433   23.8907 C   0  0  0  0  0  0
  -17.6469  -30.6596   24.0576 C   0  0  0  0  0  0
  -25.9033  -34.9487   23.5141 C   0  0  0  0  0  0
  -16.5351  -29.9107   23.6341 C   0  0  0  0  0  0
  -16.7253  -28.6509   23.0366 C   0  0  0  0  0  0
  -26.4463  -31.6615   25.0720 C   0  0  0  0  0  0
  -25.3719  -31.3693   26.1465 C   0  0  0  0  0  0
  -27.0315  -30.3077   24.6045 C   0  0  0  0  0  0
  -27.6057  -32.4338   25.7467 C   0  0  0  0  0  0
  -27.5596  -37.1793   24.8458 C   0  0  0  0  0  0
  -21.4120  -29.3021   22.3727 N   0  0  0  0  0  0
  -26.4302  -37.3811   23.9418 N   0  0  0  0  0  0
  -24.6586  -31.0870   22.1024 N   0  0  0  0  0  0
  -23.4164  -28.8236   23.3062 O   0  0  0  0  0  0
  -28.3759  -26.7440   19.9765 O   0  0  0  0  0  0
  -26.5607  -34.8943   22.4704 O   0  0  0  0  0  0
  -23.5302  -32.1466   23.7562 O   0  0  0  0  0  0
  -29.1064  -17.2759   20.0261 C   0  0  0  0  0  0
  -30.3089  -19.2161   19.7125 C   0  0  0  0  0  0
  -30.1634  -16.7243   20.7911 C   0  0  0  0  0  0
  -31.3478  -18.6909   20.5322 C   0  0  0  0  0  0
  -30.1182  -20.6135   17.5759 C   0  0  0  0  0  0
  -29.2962  -24.0711   20.5480 C   0  0  0  0  0  0
  -30.1865  -23.0030   19.9114 C   0  0  0  0  0  0
  -30.0578  -25.3796   20.8274 C   0  0  0  0  0  0
  -29.5167  -21.6216   19.8606 C   0  0  0  0  0  0
  -29.1095  -26.5296   21.1681 C   0  0  0  0  0  0
  -30.3840  -20.6090   19.0938 C   0  0  1  0  0  0
  -29.1701  -18.5159   19.4884 N   0  0  0  0  0  0
  -31.2700  -17.4588   21.0719 N   0  0  0  0  0  0
  -32.5057  -19.3923   20.8457 N   0  0  0  0  0  0
  -30.0331  -15.3806   21.1920 N   0  0  0  0  0  0
  -31.4593  -12.3786   19.0971 H   0  0  0  0  0  0
  -30.3165  -11.2581   19.7816 H   0  0  0  0  0  0
  -29.7231  -11.7961   17.4009 H   0  0  0  0  0  0
  -29.6578  -13.4996   17.7800 H   0  0  0  0  0  0
  -27.8244  -11.3052   18.8053 H   0  0  0  0  0  0
  -27.3579  -12.6377   17.7809 H   0  0  0  0  0  0
  -27.7098  -14.2474   19.5813 H   0  0  0  0  0  0
  -28.6528  -11.9178   21.3249 H   0  0  0  0  0  0
  -28.4543  -13.5500   21.8739 H   0  0  0  0  0  0
  -25.2764   -9.5670   22.4734 H   0  0  0  0  0  0
  -24.0000   -7.4623   22.7476 H   0  0  0  0  0  0
  -21.0827   -8.8754   19.8945 H   0  0  0  0  0  0
  -22.3691  -10.9652   19.6142 H   0  0  0  0  0  0
  -21.1999   -7.6141   23.9716 H   0  0  0  0  0  0
  -21.1471   -6.0517   25.9081 H   0  0  0  0  0  0
  -22.0611   -2.7602   23.2859 H   0  0  0  0  0  0
  -22.4109  -11.9822   22.4753 H   0  0  0  0  0  0
  -21.1116  -13.1208   22.2662 H   0  0  0  0  0  0
  -24.6514  -15.8337   20.5332 H   0  0  0  0  0  0
  -26.2645  -15.6394   20.0776 H   0  0  0  0  0  0
  -26.7092  -32.5571   23.1184 H   0  0  0  0  0  0
  -25.0043  -33.9807   25.0493 H   0  0  0  0  0  0
  -22.6794  -31.3118   21.4155 H   0  0  0  0  0  0
  -23.3789  -35.9608   23.3275 H   0  0  0  0  0  0
  -24.3588  -36.8937   22.2061 H   0  0  0  0  0  0
  -23.7209  -37.6469   23.6680 H   0  0  0  0  0  0
  -26.0220  -31.6157   20.5958 H   0  0  0  0  0  0
  -26.8088  -30.9061   21.9777 H   0  0  0  0  0  0
  -28.0904  -29.1569   21.1676 H   0  0  0  0  0  0
  -26.1022  -26.0123   18.9812 H   0  0  0  0  0  0
  -23.9840  -27.3035   19.0212 H   0  0  0  0  0  0
  -23.7069  -30.6049   19.4081 H   0  0  0  0  0  0
  -22.7278  -29.2465   19.8755 H   0  0  0  0  0  0
  -25.1287  -36.1985   25.0829 H   0  0  0  0  0  0
  -20.9900  -28.3254   24.1453 H   0  0  0  0  0  0
  -20.5669  -26.2277   23.3618 H   0  0  0  0  0  0
  -21.6618  -26.7471   22.1214 H   0  0  0  0  0  0
  -19.6917  -25.6301   21.1251 H   0  0  0  0  0  0
  -19.6704  -27.3190   20.6716 H   0  0  0  0  0  0
  -17.4187  -26.6681   21.4009 H   0  0  0  0  0  0
  -18.0276  -26.0064   22.8991 H   0  0  0  0  0  0
  -19.7938  -30.7200   24.2337 H   0  0  0  0  0  0
  -17.5054  -31.6297   24.5150 H   0  0  0  0  0  0
  -15.5362  -30.3041   23.7678 H   0  0  0  0  0  0
  -15.8622  -28.0859   22.7113 H   0  0  0  0  0  0
  -24.5904  -30.7034   25.7769 H   0  0  0  0  0  0
  -24.8898  -32.2848   26.4913 H   0  0  0  0  0  0
  -25.8056  -30.8852   27.0223 H   0  0  0  0  0  0
  -26.2832  -29.6792   24.1206 H   0  0  0  0  0  0
  -27.4230  -29.7348   25.4453 H   0  0  0  0  0  0
  -27.8598  -30.4415   23.9085 H   0  0  0  0  0  0
  -27.2681  -33.3636   26.2052 H   0  0  0  0  0  0
  -28.3852  -32.6890   25.0274 H   0  0  0  0  0  0
  -28.0742  -31.8459   26.5367 H   0  0  0  0  0  0
  -28.2578  -38.0133   24.7578 H   0  0  0  0  0  0
  -28.1132  -36.2658   24.6197 H   0  0  0  0  0  0
  -27.2309  -37.1326   25.8860 H   0  0  0  0  0  0
  -20.9295  -29.8712   21.6909 H   0  0  0  0  0  0
  -26.0187  -38.2881   24.1472 H   0  0  0  0  0  0
  -28.2197  -16.6999   19.8019 H   0  0  0  0  0  0
  -30.8260  -19.9699   17.0521 H   0  0  0  0  0  0
  -30.2251  -21.6174   17.1624 H   0  0  0  0  0  0
  -29.1126  -20.2656   17.3381 H   0  0  0  0  0  0
  -28.8663  -23.6985   21.4780 H   0  0  0  0  0  0
  -28.4548  -24.2552   19.8780 H   0  0  0  0  0  0
  -31.1168  -22.9203   20.4766 H   0  0  0  0  0  0
  -30.4664  -23.3187   18.9031 H   0  0  0  0  0  0
  -30.6487  -25.6636   19.9539 H   0  0  0  0  0  0
  -30.7643  -25.2278   21.6436 H   0  0  0  0  0  0
  -28.5112  -21.6680   19.4379 H   0  0  0  0  0  0
  -29.3864  -21.2827   20.8898 H   0  0  0  0  0  0
  -29.6659  -27.4230   21.4543 H   0  0  0  0  0  0
  -28.4513  -26.2541   21.9946 H   0  0  0  0  0  0
  -31.4164  -20.9392   19.1914 H   0  0  0  0  0  0
  -32.7191  -20.2845   20.4152 H   0  0  0  0  0  0
  -33.2427  -18.9858   21.4087 H   0  0  0  0  0  0
  -29.1203  -15.1026   21.5174 H   0  0  0  0  0  0
  1 25  1  0  0  0
  1 30  2  0  0  0
  1 85  1  0  0  0
  2  3  1  0  0  0
  2 25  1  0  0  0
  2 86  1  0  0  0
  2 87  1  0  0  0
  3  4  1  0  0  0
  3 88  1  0  0  0
  3 89  1  0  0  0
  4  5  1  0  0  0
  4 90  1  0  0  0
  4 91  1  0  0  0
  5  6  1  0  0  0
  5 26  1  0  0  0
  5 92  1  0  0  0
  6 25  1  0  0  0
  6 93  1  0  0  0
  6 94  1  0  0  0
  7  8  2  0  0  0
  7 26  1  0  0  0
  7 29  1  0  0  0
  8  9  1  0  0  0
  8 22  1  0  0  0
  9 10  1  0  0  0
  9 27  2  0  0  0
 10 11  2  0  0  0
 10 15  1  0  0  0
 11 12  1  0  0  0
 11 95  1  0  0  0
 12 13  2  0  0  0
 12 96  1  0  0  0
 13 14  1  0  0  0
 13 31  1  0  0  0
 14 15  2  0  0  0
 14 97  1  0  0  0
 15 98  1  0  0  0
 16 17  2  0  0  0
 16 21  1  0  0  0
 16 31  1  0  0  0
 17 18  1  0  0  0
 17 99  1  0  0  0
 18 19  2  0  0  0
 18100  1  0  0  0
 19 20  1  0  0  0
 19 24  1  0  0  0
 20 21  2  0  0  0
 20101  1  0  0  0
 21 23  1  0  0  0
 22 28  1  0  0  0
 22 32  2  0  0  0
 26 27  1  0  0  0
 28102  1  0  0  0
 28103  1  0  0  0
 29104  1  0  0  0
 29105  1  0  0  0
 33 34  1  0  0  0
 33 66  1  0  0  0
 33 70  2  0  0  0
 34 36  1  0  0  0
 34 59  1  0  0  0
 34106  1  0  0  0
 35 44  2  0  0  0
 35 45  1  0  0  0
 35 68  1  0  0  0
 36 56  1  0  0  0
 36107  1  0  0  0
 37 39  1  0  0  0
 37 47  1  0  0  0
 37 66  1  0  0  0
 37108  1  0  0  0
 38 43  2  0  0  0
 38 46  1  0  0  0
 38 47  1  0  0  0
 39 64  1  0  0  0
 39 67  2  0  0  0
 40 52  1  0  0  0
 40 53  2  0  0  0
 40 58  1  0  0  0
 41109  1  0  0  0
 41110  1  0  0  0
 41111  1  0  0  0
 41 48  1  0  0  0
 42 43  1  0  0  0
 42 66  1  0  0  0
 42112  1  0  0  0
 42113  1  0  0  0
 43 44  1  0  0  0
 44114  1  0  0  0
 45 46  2  0  0  0
 45115  1  0  0  0
 46116  1  0  0  0
 47117  1  0  0  0
 47118  1  0  0  0
 48 56  1  0  0  0
 48 65  1  0  0  0
 48119  1  0  0  0
 49 50  1  0  0  0
 49 53  1  0  0  0
 49 64  1  0  0  0
 49120  1  0  0  0
 50 51  1  0  0  0
 50121  1  0  0  0
 50122  1  0  0  0
 51 52  1  0  0  0
 51123  1  0  0  0
 51124  1  0  0  0
 52125  1  0  0  0
 52126  1  0  0  0
 53 54  1  0  0  0
 54 55  2  0  0  0
 54127  1  0  0  0
 55 57  1  0  0  0
 55128  1  0  0  0
 56 69  2  0  0  0
 57 58  2  0  0  0
 57129  1  0  0  0
 58130  1  0  0  0
 59 60  1  0  0  0
 59 61  1  0  0  0
 59 62  1  0  0  0
 60131  1  0  0  0
 60132  1  0  0  0
 60133  1  0  0  0
 61134  1  0  0  0
 61135  1  0  0  0
 61136  1  0  0  0
 62137  1  0  0  0
 62138  1  0  0  0
 62139  1  0  0  0
 63 65  1  0  0  0
 63140  1  0  0  0
 63141  1  0  0  0
 63142  1  0  0  0
 64143  1  0  0  0
 65144  1  0  0  0
 68 80  1  0  0  0
 71 73  2  0  0  0
 71 82  1  0  0  0
 71145  1  0  0  0
 72 74  1  0  0  0
 72 81  1  0  0  0
 72 82  2  0  0  0
 73 83  1  0  0  0
 73 85  1  0  0  0
 74 83  2  0  0  0
 74 84  1  0  0  0
 75146  1  0  0  0
 75147  1  0  0  0
 75148  1  0  0  0
 75 81  1  0  0  0
 76 77  1  0  0  0
 76 78  1  0  0  0
 76149  1  0  0  0
 76150  1  0  0  0
 77 79  1  0  0  0
 77151  1  0  0  0
 77152  1  0  0  0
 78 80  1  0  0  0
 78153  1  0  0  0
 78154  1  0  0  0
 79 81  1  0  0  0
 79155  1  0  0  0
 79156  1  0  0  0
 80157  1  0  0  0
 80158  1  0  0  0
 81159  1  0  0  0
 84160  1  0  0  0
 84161  1  0  0  0
 85162  1  0  0  0
M  ISO  4   1 100  68 101  80 101  85 100
M  END
> <chiral flag>
0

> <version>
0

> <s_m_source_file>
/data/baiqing/PycharmProjects/Reinvent-master-3.2/result/LINK_invent/BTK/process_docking_weight1_custom_product_contain_oxygen_bond_distance_aromatic_linkinvent_7_9_3/rearranged_h_0189.sdf

> <i_m_source_file_index>
40

> <r_mmod_Potential_Energy-OPLS-2005>
-45.9905738830566

> <r_mmod_Stretch_Energy-OPLS-2005>
31.9203338623047

> <r_mmod_Bend_Energy-OPLS-2005>
101.471038818359

> <r_mmod_Torsional_Energy-OPLS-2005>
237.422576904297

> <r_mmod_Improper_Torsional_Energy-OPLS-2005>
5.98292589187622

> <r_mmod_Van_der_Waal_Energy-OPLS-2005>
160.204986572266

> <r_mmod_Electrostatic_Energy-OPLS-2005>
-362.824493408203

> <r_mmod_Solvation_Energy-OPLS-2005>
-228.622039794922

> <b_mmod_Minimization_Converged-OPLS-2005>
0

> <r_mmod_RMS_Derivative-OPLS-2005>
3.06285333633423

$$$$
40
                    3D
 Structure written by MMmdl.
161169  0  0  1  0            999 V2000
  -30.6517  -14.6073   20.5065 C   0  0  0  0  0  0
  -30.4253  -12.3704   19.4626 C   0  0  0  0  0  0
  -29.5045  -12.5113   18.2293 C   0  0  0  0  0  0
  -28.0249  -12.3559   18.6338 C   0  0  0  0  0  0
  -27.6526  -13.2182   19.8685 C   0  0  2  0  0  0
  -28.6940  -13.0751   21.0038 C   0  0  0  0  0  0
  -25.2551  -13.8170   20.5667 C   0  0  0  0  0  0
  -24.1818  -13.0434   20.9148 C   0  0  0  0  0  0
  -24.6368  -11.6899   20.8706 C   0  0  0  0  0  0
  -23.9039  -10.4290   21.0378 C   0  0  0  0  0  0
  -24.3598   -9.4215   21.9163 C   0  0  0  0  0  0
  -23.6283   -8.2244   22.0749 C   0  0  0  0  0  0
  -22.4263   -8.0271   21.3529 C   0  0  0  0  0  0
  -21.9882   -9.0242   20.4636 C   0  0  0  0  0  0
  -22.7206  -10.2131   20.3025 C   0  0  0  0  0  0
  -21.6853   -6.0730   22.5269 C   0  0  0  0  0  0
  -21.4025   -6.5635   23.8203 C   0  0  0  0  0  0
  -21.3653   -5.6786   24.9165 C   0  0  0  0  0  0
  -21.6039   -4.3050   24.7225 C   0  0  0  0  0  0
  -21.8821   -3.8138   23.4345 C   0  0  0  0  0  0
  -21.9198   -4.6948   22.3398 C   0  0  0  0  0  0
  -22.7839  -13.5242   21.1825 C   0  0  0  0  0  0
  -22.1665   -4.2136   21.0975 F   0  0  0  0  0  0
  -21.5615   -3.4530   25.7741 F   0  0  0  0  0  0
  -30.0176  -13.3936   20.4460 N   0  0  0  0  0  0
  -26.2978  -12.9351   20.3326 N   0  0  0  0  0  0
  -25.9306  -11.6499   20.5752 N   0  0  0  0  0  0
  -22.0494  -12.8229   22.0389 N   0  0  0  0  0  0
  -25.4314  -15.1883   20.4119 N   0  0  0  0  0  0
  -31.7937  -14.7549   20.0656 O   0  0  0  0  0  0
  -21.6629   -6.8873   21.4234 O   0  0  0  0  0  0
  -22.3537  -14.5560   20.6691 O   0  0  0  0  0  0
  -24.6240  -31.8614   23.2033 C   0  0  0  0  0  0
  -25.9098  -32.4786   23.8359 C   0  0  1  0  0  0
  -27.2391  -27.3475   20.1211 C   0  0  0  0  0  0
  -25.5926  -33.8582   24.2314 N   0  0  0  0  0  0
  -23.4181  -30.4810   21.5451 C   0  0  2  0  0  0
  -24.8682  -28.9342   20.1173 C   0  0  0  0  0  0
  -22.7468  -29.4621   22.4957 C   0  0  0  0  0  0
  -18.0281  -28.1380   22.8470 C   0  0  0  0  0  0
  -24.1489  -36.7271   23.2639 C   0  0  0  0  0  0
  -25.9566  -30.7998   21.3722 C   0  0  0  0  0  0
  -26.0347  -29.4291   20.7153 C   0  0  0  0  0  0
  -27.2243  -28.6484   20.7033 C   0  0  0  0  0  0
  -26.0522  -26.8927   19.5055 C   0  0  0  0  0  0
  -24.8763  -27.6696   19.5057 C   0  0  0  0  0  0
  -23.6330  -29.8075   20.1639 C   0  0  0  0  0  0
  -25.4113  -36.3086   24.0347 C   0  0  1  0  0  0
  -20.5878  -28.3674   23.1291 C   0  0  2  0  0  0
  -20.6772  -26.9408   22.5402 C   0  0  0  0  0  0
  -19.5759  -26.6385   21.5191 C   0  0  0  0  0  0
  -18.1933  -26.7927   22.1598 C   0  0  0  0  0  0
  -19.1529  -28.8843   23.2873 C   0  0  0  0  0  0
  -18.9452  -30.1441   23.8892 C   0  0  0  0  0  0
  -17.6455  -30.6587   24.0541 C   0  0  0  0  0  0
  -25.9038  -34.9453   23.5134 C   0  0  0  0  0  0
  -16.5346  -29.9071   23.6334 C   0  0  0  0  0  0
  -16.7265  -28.6485   23.0363 C   0  0  0  0  0  0
  -26.4503  -31.6580   25.0711 C   0  0  0  0  0  0
  -25.3740  -31.3704   26.1436 C   0  0  0  0  0  0
  -27.0354  -30.3009   24.6172 C   0  0  0  0  0  0
  -27.6104  -32.4287   25.7445 C   0  0  0  0  0  0
  -27.5597  -37.1781   24.8470 C   0  0  0  0  0  0
  -21.4184  -29.3027   22.3682 N   0  0  0  0  0  0
  -26.4301  -37.3775   23.9421 N   0  0  0  0  0  0
  -24.6843  -31.0644   22.0969 N   0  0  0  0  0  0
  -23.4191  -28.8178   23.3048 O   0  0  0  0  0  0
  -28.3822  -26.5417   20.1235 O   0  0  0  0  0  0
  -26.5596  -34.8919   22.4691 O   0  0  0  0  0  0
  -23.5409  -32.1399   23.7373 O   0  0  0  0  0  0
  -31.3159  -18.1817   22.1120 C   0  0  0  0  0  0
  -30.3698  -18.2906   21.0743 C   0  0  0  0  0  0
  -31.7090  -19.3779   22.7211 C   0  0  0  0  0  0
  -30.2916  -20.6044   21.4076 C   0  0  0  0  0  0
  -30.6522  -24.4475   19.8859 C   0  0  0  0  0  0
  -27.4809  -22.1319   20.3426 C   0  0  0  0  0  0
  -29.9845  -17.0511   20.2239 C   0  0  0  0  0  0
  -28.2501  -25.1379   20.5568 C   0  0  0  0  0  0
  -29.1627  -24.0620   19.8275 C   0  0  2  0  0  0
  -28.9560  -22.4952   20.1219 C   0  0  1  0  0  0
  -29.8569  -19.5255   20.7288 N   0  0  0  0  0  0
  -31.2023  -20.5731   22.3751 N   0  0  0  0  0  0
  -32.6689  -19.3751   23.7253 N   0  0  0  0  0  0
  -29.8134  -21.9074   21.1786 N   0  0  0  0  0  0
  -29.8781  -15.6805   20.8250 N   0  0  0  0  0  0
  -31.8607  -16.9973   22.4865 F   0  0  0  0  0  0
  -31.4724  -12.4706   19.1669 H   0  0  0  0  0  0
  -30.3373  -11.3729   19.8974 H   0  0  0  0  0  0
  -29.7658  -11.7683   17.4751 H   0  0  0  0  0  0
  -29.6533  -13.4873   17.7629 H   0  0  0  0  0  0
  -27.8471  -11.3016   18.8493 H   0  0  0  0  0  0
  -27.3760  -12.6074   17.7934 H   0  0  0  0  0  0
  -27.6748  -14.2537   19.5281 H   0  0  0  0  0  0
  -28.6898  -12.0588   21.4011 H   0  0  0  0  0  0
  -28.4402  -13.7219   21.8450 H   0  0  0  0  0  0
  -25.2739   -9.5691   22.4735 H   0  0  0  0  0  0
  -23.9992   -7.4642   22.7454 H   0  0  0  0  0  0
  -21.0820   -8.8755   19.8958 H   0  0  0  0  0  0
  -22.3659  -10.9661   19.6129 H   0  0  0  0  0  0
  -21.2042   -7.6148   23.9706 H   0  0  0  0  0  0
  -21.1465   -6.0514   25.9072 H   0  0  0  0  0  0
  -22.0617   -2.7598   23.2828 H   0  0  0  0  0  0
  -22.4124  -11.9892   22.4763 H   0  0  0  0  0  0
  -21.1120  -13.1255   22.2627 H   0  0  0  0  0  0
  -24.6675  -15.8477   20.5197 H   0  0  0  0  0  0
  -26.2841  -15.6239   20.0857 H   0  0  0  0  0  0
  -26.7163  -32.5468   23.1098 H   0  0  0  0  0  0
  -25.0108  -33.9723   25.0487 H   0  0  0  0  0  0
  -22.7089  -31.2974   21.3966 H   0  0  0  0  0  0
  -23.3777  -35.9579   23.3298 H   0  0  0  0  0  0
  -24.3588  -36.8878   22.2056 H   0  0  0  0  0  0
  -23.7210  -37.6464   23.6643 H   0  0  0  0  0  0
  -26.0899  -31.5662   20.6071 H   0  0  0  0  0  0
  -26.8368  -30.8461   22.0026 H   0  0  0  0  0  0
  -28.1244  -29.0289   21.1666 H   0  0  0  0  0  0
  -26.0249  -25.9275   19.0211 H   0  0  0  0  0  0
  -23.9817  -27.2838   19.0369 H   0  0  0  0  0  0
  -23.7426  -30.5758   19.3973 H   0  0  0  0  0  0
  -22.7595  -29.2216   19.8732 H   0  0  0  0  0  0
  -25.1290  -36.1944   25.0841 H   0  0  0  0  0  0
  -20.9953  -28.3242   24.1419 H   0  0  0  0  0  0
  -20.5673  -26.2281   23.3586 H   0  0  0  0  0  0
  -21.6646  -26.7452   22.1203 H   0  0  0  0  0  0
  -19.6936  -25.6292   21.1229 H   0  0  0  0  0  0
  -19.6728  -27.3178   20.6710 H   0  0  0  0  0  0
  -17.4218  -26.6665   21.3991 H   0  0  0  0  0  0
  -18.0347  -26.0071   22.8999 H   0  0  0  0  0  0
  -19.7920  -30.7248   24.2295 H   0  0  0  0  0  0
  -17.5008  -31.6280   24.5109 H   0  0  0  0  0  0
  -15.5345  -30.2971   23.7680 H   0  0  0  0  0  0
  -15.8656  -28.0794   22.7122 H   0  0  0  0  0  0
  -24.5905  -30.7081   25.7732 H   0  0  0  0  0  0
  -24.8932  -32.2863   26.4889 H   0  0  0  0  0  0
  -25.8048  -30.8833   27.0193 H   0  0  0  0  0  0
  -26.2933  -29.6714   24.1251 H   0  0  0  0  0  0
  -27.4117  -29.7308   25.4677 H   0  0  0  0  0  0
  -27.8771  -30.4297   23.9360 H   0  0  0  0  0  0
  -27.2786  -33.3602   26.2041 H   0  0  0  0  0  0
  -28.3886  -32.6818   25.0229 H   0  0  0  0  0  0
  -28.0812  -31.8389   26.5317 H   0  0  0  0  0  0
  -28.2610  -38.0086   24.7548 H   0  0  0  0  0  0
  -28.1099  -36.2622   24.6256 H   0  0  0  0  0  0
  -27.2318  -37.1383   25.8872 H   0  0  0  0  0  0
  -20.9381  -29.8680   21.6823 H   0  0  0  0  0  0
  -26.0194  -38.2860   24.1410 H   0  0  0  0  0  0
  -30.8213  -25.4296   19.4439 H   0  0  0  0  0  0
  -31.2662  -23.7311   19.3363 H   0  0  0  0  0  0
  -31.0186  -24.4842   20.9105 H   0  0  0  0  0  0
  -26.8620  -22.5007   19.5229 H   0  0  0  0  0  0
  -27.0944  -22.5530   21.2707 H   0  0  0  0  0  0
  -27.3433  -21.0518   20.3874 H   0  0  0  0  0  0
  -30.6986  -17.0178   19.3991 H   0  0  0  0  0  0
  -29.0223  -17.2702   19.7623 H   0  0  0  0  0  0
  -28.4641  -25.1110   21.6257 H   0  0  0  0  0  0
  -27.2160  -24.8093   20.4764 H   0  0  0  0  0  0
  -28.8786  -24.1654   18.7780 H   0  0  0  0  0  0
  -29.2651  -21.9793   19.2121 H   0  0  0  0  0  0
  -33.1968  -18.5152   23.8172 H   0  0  0  0  0  0
  -33.2245  -20.2106   23.8513 H   0  0  0  0  0  0
  -30.2350  -22.5861   21.7967 H   0  0  0  0  0  0
  -28.9816  -15.4662   21.2305 H   0  0  0  0  0  0
  1 25  1  0  0  0
  1 30  2  0  0  0
  1 85  1  0  0  0
  2  3  1  0  0  0
  2 25  1  0  0  0
  2 87  1  0  0  0
  2 88  1  0  0  0
  3  4  1  0  0  0
  3 89  1  0  0  0
  3 90  1  0  0  0
  4  5  1  0  0  0
  4 91  1  0  0  0
  4 92  1  0  0  0
  5  6  1  0  0  0
  5 26  1  0  0  0
  5 93  1  0  0  0
  6 25  1  0  0  0
  6 94  1  0  0  0
  6 95  1  0  0  0
  7  8  2  0  0  0
  7 26  1  0  0  0
  7 29  1  0  0  0
  8  9  1  0  0  0
  8 22  1  0  0  0
  9 10  1  0  0  0
  9 27  2  0  0  0
 10 11  2  0  0  0
 10 15  1  0  0  0
 11 12  1  0  0  0
 11 96  1  0  0  0
 12 13  2  0  0  0
 12 97  1  0  0  0
 13 14  1  0  0  0
 13 31  1  0  0  0
 14 15  2  0  0  0
 14 98  1  0  0  0
 15 99  1  0  0  0
 16 17  2  0  0  0
 16 21  1  0  0  0
 16 31  1  0  0  0
 17 18  1  0  0  0
 17100  1  0  0  0
 18 19  2  0  0  0
 18101  1  0  0  0
 19 20  1  0  0  0
 19 24  1  0  0  0
 20 21  2  0  0  0
 20102  1  0  0  0
 21 23  1  0  0  0
 22 28  1  0  0  0
 22 32  2  0  0  0
 26 27  1  0  0  0
 28103  1  0  0  0
 28104  1  0  0  0
 29105  1  0  0  0
 29106  1  0  0  0
 33 34  1  0  0  0
 33 66  1  0  0  0
 33 70  2  0  0  0
 34 36  1  0  0  0
 34 59  1  0  0  0
 34107  1  0  0  0
 35 44  2  0  0  0
 35 45  1  0  0  0
 35 68  1  0  0  0
 36 56  1  0  0  0
 36108  1  0  0  0
 37 39  1  0  0  0
 37 47  1  0  0  0
 37 66  1  0  0  0
 37109  1  0  0  0
 38 43  2  0  0  0
 38 46  1  0  0  0
 38 47  1  0  0  0
 39 64  1  0  0  0
 39 67  2  0  0  0
 40 52  1  0  0  0
 40 53  2  0  0  0
 40 58  1  0  0  0
 41110  1  0  0  0
 41111  1  0  0  0
 41112  1  0  0  0
 41 48  1  0  0  0
 42 43  1  0  0  0
 42 66  1  0  0  0
 42113  1  0  0  0
 42114  1  0  0  0
 43 44  1  0  0  0
 44115  1  0  0  0
 45 46  2  0  0  0
 45116  1  0  0  0
 46117  1  0  0  0
 47118  1  0  0  0
 47119  1  0  0  0
 48 56  1  0  0  0
 48 65  1  0  0  0
 48120  1  0  0  0
 49 50  1  0  0  0
 49 53  1  0  0  0
 49 64  1  0  0  0
 49121  1  0  0  0
 50 51  1  0  0  0
 50122  1  0  0  0
 50123  1  0  0  0
 51 52  1  0  0  0
 51124  1  0  0  0
 51125  1  0  0  0
 52126  1  0  0  0
 52127  1  0  0  0
 53 54  1  0  0  0
 54 55  2  0  0  0
 54128  1  0  0  0
 55 57  1  0  0  0
 55129  1  0  0  0
 56 69  2  0  0  0
 57 58  2  0  0  0
 57130  1  0  0  0
 58131  1  0  0  0
 59 60  1  0  0  0
 59 61  1  0  0  0
 59 62  1  0  0  0
 60132  1  0  0  0
 60133  1  0  0  0
 60134  1  0  0  0
 61135  1  0  0  0
 61136  1  0  0  0
 61137  1  0  0  0
 62138  1  0  0  0
 62139  1  0  0  0
 62140  1  0  0  0
 63 65  1  0  0  0
 63141  1  0  0  0
 63142  1  0  0  0
 63143  1  0  0  0
 64144  1  0  0  0
 65145  1  0  0  0
 68 78  1  0  0  0
 71 72  2  0  0  0
 71 73  1  0  0  0
 71 86  1  0  0  0
 72 77  1  0  0  0
 72 81  1  0  0  0
 73 82  2  0  0  0
 73 83  1  0  0  0
 74 81  2  0  0  0
 74 82  1  0  0  0
 74 84  1  0  0  0
 75146  1  0  0  0
 75147  1  0  0  0
 75148  1  0  0  0
 75 79  1  0  0  0
 76149  1  0  0  0
 76150  1  0  0  0
 76151  1  0  0  0
 76 80  1  0  0  0
 77 85  1  0  0  0
 77152  1  0  0  0
 77153  1  0  0  0
 78 79  1  0  0  0
 78154  1  0  0  0
 78155  1  0  0  0
 79 80  1  0  0  0
 79156  1  0  0  0
 80 84  1  0  0  0
 80157  1  0  0  0
 83158  1  0  0  0
 83159  1  0  0  0
 84160  1  0  0  0
 85161  1  0  0  0
M  ISO  4   1 100  68 101  78 101  85 100
M  END
> <chiral flag>
0

> <version>
0

> <s_m_source_file>
/data/baiqing/PycharmProjects/Reinvent-master-3.2/result/LINK_invent/BTK/process_docking_weight1_custom_product_contain_oxygen_bond_distance_aromatic_linkinvent_7_9_3/rearranged_h_0189.sdf

> <i_m_source_file_index>
41

> <r_mmod_Potential_Energy-OPLS-2005>
-572.806640625

> <r_mmod_Stretch_Energy-OPLS-2005>
68.4477691650391

> <r_mmod_Bend_Energy-OPLS-2005>
155.73469543457

> <r_mmod_Torsional_Energy-OPLS-2005>
241.734252929688

> <r_mmod_Improper_Torsional_Energy-OPLS-2005>
11.5756874084473

> <r_mmod_Van_der_Waal_Energy-OPLS-2005>
147.634689331055

> <r_mmod_Electrostatic_Energy-OPLS-2005>
-996.620483398438

> <r_mmod_Solvation_Energy-OPLS-2005>
-237.193237304688

> <b_mmod_Minimization_Converged-OPLS-2005>
0

> <r_mmod_RMS_Derivative-OPLS-2005>
2.94287538528442

$$$$
41
                    3D
 Structure written by MMmdl.
161169  0  0  1  0            999 V2000
  -30.6774  -14.4750   20.5774 C   0  0  0  0  0  0
  -30.4254  -12.3071   19.4362 C   0  0  0  0  0  0
  -29.5043  -12.5199   18.2170 C   0  0  0  0  0  0
  -28.0194  -12.3863   18.6146 C   0  0  0  0  0  0
  -27.6627  -13.2013   19.8866 C   0  0  2  0  0  0
  -28.7007  -12.9643   21.0074 C   0  0  0  0  0  0
  -25.2582  -13.8145   20.5676 C   0  0  0  0  0  0
  -24.1828  -13.0435   20.9177 C   0  0  0  0  0  0
  -24.6379  -11.6908   20.8756 C   0  0  0  0  0  0
  -23.9057  -10.4297   21.0412 C   0  0  0  0  0  0
  -24.3621   -9.4208   21.9173 C   0  0  0  0  0  0
  -23.6305   -8.2236   22.0744 C   0  0  0  0  0  0
  -22.4277   -8.0286   21.3541 C   0  0  0  0  0  0
  -21.9919   -9.0258   20.4645 C   0  0  0  0  0  0
  -22.7234  -10.2142   20.3059 C   0  0  0  0  0  0
  -21.6846   -6.0748   22.5274 C   0  0  0  0  0  0
  -21.4010   -6.5647   23.8212 C   0  0  0  0  0  0
  -21.3668   -5.6782   24.9173 C   0  0  0  0  0  0
  -21.6052   -4.3045   24.7203 C   0  0  0  0  0  0
  -21.8817   -3.8153   23.4317 C   0  0  0  0  0  0
  -21.9188   -4.6982   22.3389 C   0  0  0  0  0  0
  -22.7842  -13.5247   21.1813 C   0  0  0  0  0  0
  -22.1643   -4.2167   21.0969 F   0  0  0  0  0  0
  -21.5647   -3.4539   25.7708 F   0  0  0  0  0  0
  -30.0343  -13.2798   20.4695 N   0  0  0  0  0  0
  -26.3019  -12.9299   20.3398 N   0  0  0  0  0  0
  -25.9306  -11.6470   20.5786 N   0  0  0  0  0  0
  -22.0463  -12.8296   22.0403 N   0  0  0  0  0  0
  -25.4333  -15.1867   20.4111 N   0  0  0  0  0  0
  -31.7921  -14.6826   20.0836 O   0  0  0  0  0  0
  -21.6636   -6.8888   21.4232 O   0  0  0  0  0  0
  -22.3565  -14.5545   20.6629 O   0  0  0  0  0  0
  -24.6184  -31.8659   23.2086 C   0  0  0  0  0  0
  -25.9064  -32.4808   23.8415 C   0  0  1  0  0  0
  -27.2166  -27.3949   20.0949 C   0  0  0  0  0  0
  -25.5892  -33.8607   24.2326 N   0  0  0  0  0  0
  -23.4082  -30.4941   21.5501 C   0  0  2  0  0  0
  -24.8513  -28.9665   20.1080 C   0  0  0  0  0  0
  -22.7434  -29.4657   22.4955 C   0  0  0  0  0  0
  -18.0274  -28.1386   22.8480 C   0  0  0  0  0  0
  -24.1478  -36.7321   23.2638 C   0  0  0  0  0  0
  -25.9448  -30.8208   21.3702 C   0  0  0  0  0  0
  -26.0181  -29.4568   20.7087 C   0  0  0  0  0  0
  -27.2054  -28.6811   20.6930 C   0  0  0  0  0  0
  -26.0252  -26.9431   19.4734 C   0  0  0  0  0  0
  -24.8513  -27.7106   19.4851 C   0  0  0  0  0  0
  -23.6168  -29.8351   20.1618 C   0  0  0  0  0  0
  -25.4091  -36.3106   24.0343 C   0  0  1  0  0  0
  -20.5862  -28.3672   23.1286 C   0  0  2  0  0  0
  -20.6747  -26.9404   22.5390 C   0  0  0  0  0  0
  -19.5732  -26.6384   21.5183 C   0  0  0  0  0  0
  -18.1919  -26.7926   22.1614 C   0  0  0  0  0  0
  -19.1513  -28.8845   23.2883 C   0  0  0  0  0  0
  -18.9452  -30.1444   23.8918 C   0  0  0  0  0  0
  -17.6453  -30.6591   24.0546 C   0  0  0  0  0  0
  -25.9028  -34.9469   23.5141 C   0  0  0  0  0  0
  -16.5348  -29.9101   23.6316 C   0  0  0  0  0  0
  -16.7259  -28.6508   23.0355 C   0  0  0  0  0  0
  -26.4459  -31.6592   25.0767 C   0  0  0  0  0  0
  -25.3703  -31.3739   26.1505 C   0  0  0  0  0  0
  -27.0301  -30.3025   24.6199 C   0  0  0  0  0  0
  -27.6052  -32.4306   25.7514 C   0  0  0  0  0  0
  -27.5584  -37.1797   24.8451 C   0  0  0  0  0  0
  -21.4153  -29.3046   22.3700 N   0  0  0  0  0  0
  -26.4281  -37.3790   23.9424 N   0  0  0  0  0  0
  -24.6758  -31.0747   22.0998 N   0  0  0  0  0  0
  -23.4190  -28.8197   23.3000 O   0  0  0  0  0  0
  -28.3509  -26.5883   20.1476 O   0  0  0  0  0  0
  -26.5589  -34.8914   22.4705 O   0  0  0  0  0  0
  -23.5357  -32.1438   23.7459 O   0  0  0  0  0  0
  -29.6590  -18.9636   20.0842 C   0  0  0  0  0  0
  -29.0278  -18.4667   18.9540 C   0  0  0  0  0  0
  -29.7085  -16.6805   20.4655 C   0  0  0  0  0  0
  -30.3260  -20.6003   21.9265 C   0  0  0  0  0  0
  -29.6198  -24.6106   22.0285 C   0  0  0  0  0  0
  -29.9556  -22.1386   18.4993 C   0  0  0  0  0  0
  -28.6292  -22.7035   20.6556 C   0  0  0  0  0  0
  -28.1005  -25.1602   20.0548 C   0  0  0  0  0  0
  -30.1068  -20.4072   20.4121 C   0  0  2  0  0  0
  -29.1764  -24.1834   20.6185 C   0  0  1  0  0  0
  -29.2552  -21.5716   19.7522 C   0  0  2  0  0  0
  -30.0403  -17.8957   20.9396 N   0  0  0  0  0  0
  -29.9773  -15.4686   21.1573 N   0  0  0  0  0  0
  -28.8669  -16.7341   18.9311 S   0  0  0  0  0  0
  -28.4233  -19.2528   17.5455 Cl  0  0  0  0  0  0
  -31.4728  -12.4102   19.1457 H   0  0  0  0  0  0
  -30.3218  -11.2889   19.8168 H   0  0  0  0  0  0
  -29.7501  -11.8018   17.4330 H   0  0  0  0  0  0
  -29.6815  -13.5084   17.7890 H   0  0  0  0  0  0
  -27.8140  -11.3278   18.7834 H   0  0  0  0  0  0
  -27.3796  -12.6860   17.7833 H   0  0  0  0  0  0
  -27.7065  -14.2514   19.6102 H   0  0  0  0  0  0
  -28.6726  -11.9174   21.3172 H   0  0  0  0  0  0
  -28.4558  -13.5347   21.9036 H   0  0  0  0  0  0
  -25.2767   -9.5700   22.4744 H   0  0  0  0  0  0
  -24.0016   -7.4649   22.7472 H   0  0  0  0  0  0
  -21.0827   -8.8785   19.8979 H   0  0  0  0  0  0
  -22.3673  -10.9685   19.6180 H   0  0  0  0  0  0
  -21.1991   -7.6143   23.9725 H   0  0  0  0  0  0
  -21.1497   -6.0508   25.9080 H   0  0  0  0  0  0
  -22.0593   -2.7611   23.2799 H   0  0  0  0  0  0
  -22.4017  -11.9972   22.4864 H   0  0  0  0  0  0
  -21.1083  -13.1374   22.2540 H   0  0  0  0  0  0
  -24.6717  -15.8458   20.5362 H   0  0  0  0  0  0
  -26.2878  -15.6247   20.0948 H   0  0  0  0  0  0
  -26.7152  -32.5503   23.1183 H   0  0  0  0  0  0
  -24.9991  -33.9754   25.0443 H   0  0  0  0  0  0
  -22.6979  -31.3124   21.4121 H   0  0  0  0  0  0
  -23.3739  -35.9653   23.3259 H   0  0  0  0  0  0
  -24.3600  -36.8977   22.2060 H   0  0  0  0  0  0
  -23.7210  -37.6513   23.6671 H   0  0  0  0  0  0
  -26.0676  -31.5901   20.6062 H   0  0  0  0  0  0
  -26.8279  -30.8653   21.9956 H   0  0  0  0  0  0
  -28.1041  -29.0509   21.1675 H   0  0  0  0  0  0
  -25.9685  -25.9862   18.9795 H   0  0  0  0  0  0
  -23.9558  -27.3289   19.0145 H   0  0  0  0  0  0
  -23.7280  -30.6136   19.4057 H   0  0  0  0  0  0
  -22.7401  -29.2590   19.8621 H   0  0  0  0  0  0
  -25.1247  -36.1977   25.0835 H   0  0  0  0  0  0
  -20.9952  -28.3225   24.1399 H   0  0  0  0  0  0
  -20.5608  -26.2284   23.3579 H   0  0  0  0  0  0
  -21.6619  -26.7417   22.1197 H   0  0  0  0  0  0
  -19.6874  -25.6290   21.1229 H   0  0  0  0  0  0
  -19.6667  -27.3173   20.6692 H   0  0  0  0  0  0
  -17.4160  -26.6641   21.4046 H   0  0  0  0  0  0
  -18.0356  -26.0089   22.9034 H   0  0  0  0  0  0
  -19.7934  -30.7229   24.2327 H   0  0  0  0  0  0
  -17.5021  -31.6283   24.5132 H   0  0  0  0  0  0
  -15.5347  -30.3011   23.7634 H   0  0  0  0  0  0
  -15.8653  -28.0822   22.7088 H   0  0  0  0  0  0
  -24.5861  -30.7088   25.7843 H   0  0  0  0  0  0
  -24.8891  -32.2910   26.4932 H   0  0  0  0  0  0
  -25.8021  -30.8922   27.0287 H   0  0  0  0  0  0
  -26.2888  -29.6791   24.1181 H   0  0  0  0  0  0
  -27.3955  -29.7255   25.4705 H   0  0  0  0  0  0
  -27.8767  -30.4311   23.9453 H   0  0  0  0  0  0
  -27.2699  -33.3608   26.2112 H   0  0  0  0  0  0
  -28.3846  -32.6860   25.0320 H   0  0  0  0  0  0
  -28.0740  -31.8417   26.5405 H   0  0  0  0  0  0
  -28.2555  -38.0137   24.7545 H   0  0  0  0  0  0
  -28.1124  -36.2673   24.6196 H   0  0  0  0  0  0
  -27.2331  -37.1347   25.8860 H   0  0  0  0  0  0
  -20.9317  -29.8820   21.6969 H   0  0  0  0  0  0
  -26.0170  -38.2867   24.1449 H   0  0  0  0  0  0
  -31.0716  -19.8992   22.3055 H   0  0  0  0  0  0
  -29.4108  -20.4395   22.4964 H   0  0  0  0  0  0
  -30.7058  -21.5970   22.1479 H   0  0  0  0  0  0
  -30.4734  -24.0195   22.3647 H   0  0  0  0  0  0
  -28.8205  -24.4848   22.7599 H   0  0  0  0  0  0
  -29.9218  -25.6593   22.0498 H   0  0  0  0  0  0
  -29.3489  -22.9037   18.0119 H   0  0  0  0  0  0
  -30.1439  -21.3590   17.7632 H   0  0  0  0  0  0
  -30.9245  -22.5758   18.7378 H   0  0  0  0  0  0
  -27.5795  -22.7526   20.3609 H   0  0  0  0  0  0
  -28.5299  -22.3744   21.6872 H   0  0  0  0  0  0
  -27.1778  -24.9341   20.5925 H   0  0  0  0  0  0
  -27.9294  -24.9111   19.0049 H   0  0  0  0  0  0
  -31.1082  -20.5025   19.9916 H   0  0  0  0  0  0
  -30.0529  -24.2640   19.9803 H   0  0  0  0  0  0
  -28.3545  -21.0848   19.3863 H   0  0  0  0  0  0
  -29.1995  -15.1323   21.7021 H   0  0  0  0  0  0
  1 25  1  0  0  0
  1 30  2  0  0  0
  1 83  1  0  0  0
  2  3  1  0  0  0
  2 25  1  0  0  0
  2 86  1  0  0  0
  2 87  1  0  0  0
  3  4  1  0  0  0
  3 88  1  0  0  0
  3 89  1  0  0  0
  4  5  1  0  0  0
  4 90  1  0  0  0
  4 91  1  0  0  0
  5  6  1  0  0  0
  5 26  1  0  0  0
  5 92  1  0  0  0
  6 25  1  0  0  0
  6 93  1  0  0  0
  6 94  1  0  0  0
  7  8  2  0  0  0
  7 26  1  0  0  0
  7 29  1  0  0  0
  8  9  1  0  0  0
  8 22  1  0  0  0
  9 10  1  0  0  0
  9 27  2  0  0  0
 10 11  2  0  0  0
 10 15  1  0  0  0
 11 12  1  0  0  0
 11 95  1  0  0  0
 12 13  2  0  0  0
 12 96  1  0  0  0
 13 14  1  0  0  0
 13 31  1  0  0  0
 14 15  2  0  0  0
 14 97  1  0  0  0
 15 98  1  0  0  0
 16 17  2  0  0  0
 16 21  1  0  0  0
 16 31  1  0  0  0
 17 18  1  0  0  0
 17 99  1  0  0  0
 18 19  2  0  0  0
 18100  1  0  0  0
 19 20  1  0  0  0
 19 24  1  0  0  0
 20 21  2  0  0  0
 20101  1  0  0  0
 21 23  1  0  0  0
 22 28  1  0  0  0
 22 32  2  0  0  0
 26 27  1  0  0  0
 28102  1  0  0  0
 28103  1  0  0  0
 29104  1  0  0  0
 29105  1  0  0  0
 33 34  1  0  0  0
 33 66  1  0  0  0
 33 70  2  0  0  0
 34 36  1  0  0  0
 34 59  1  0  0  0
 34106  1  0  0  0
 35 44  2  0  0  0
 35 45  1  0  0  0
 35 68  1  0  0  0
 36 56  1  0  0  0
 36107  1  0  0  0
 37 39  1  0  0  0
 37 47  1  0  0  0
 37 66  1  0  0  0
 37108  1  0  0  0
 38 43  2  0  0  0
 38 46  1  0  0  0
 38 47  1  0  0  0
 39 64  1  0  0  0
 39 67  2  0  0  0
 40 52  1  0  0  0
 40 53  2  0  0  0
 40 58  1  0  0  0
 41109  1  0  0  0
 41110  1  0  0  0
 41111  1  0  0  0
 41 48  1  0  0  0
 42 43  1  0  0  0
 42 66  1  0  0  0
 42112  1  0  0  0
 42113  1  0  0  0
 43 44  1  0  0  0
 44114  1  0  0  0
 45 46  2  0  0  0
 45115  1  0  0  0
 46116  1  0  0  0
 47117  1  0  0  0
 47118  1  0  0  0
 48 56  1  0  0  0
 48 65  1  0  0  0
 48119  1  0  0  0
 49 50  1  0  0  0
 49 53  1  0  0  0
 49 64  1  0  0  0
 49120  1  0  0  0
 50 51  1  0  0  0
 50121  1  0  0  0
 50122  1  0  0  0
 51 52  1  0  0  0
 51123  1  0  0  0
 51124  1  0  0  0
 52125  1  0  0  0
 52126  1  0  0  0
 53 54  1  0  0  0
 54 55  2  0  0  0
 54127  1  0  0  0
 55 57  1  0  0  0
 55128  1  0  0  0
 56 69  2  0  0  0
 57 58  2  0  0  0
 57129  1  0  0  0
 58130  1  0  0  0
 59 60  1  0  0  0
 59 61  1  0  0  0
 59 62  1  0  0  0
 60131  1  0  0  0
 60132  1  0  0  0
 60133  1  0  0  0
 61134  1  0  0  0
 61135  1  0  0  0
 61136  1  0  0  0
 62137  1  0  0  0
 62138  1  0  0  0
 62139  1  0  0  0
 63 65  1  0  0  0
 63140  1  0  0  0
 63141  1  0  0  0
 63142  1  0  0  0
 64143  1  0  0  0
 65144  1  0  0  0
 68 78  1  0  0  0
 71 72  2  0  0  0
 71 79  1  0  0  0
 71 82  1  0  0  0
 72 84  1  0  0  0
 72 85  1  0  0  0
 73 82  2  0  0  0
 73 83  1  0  0  0
 73 84  1  0  0  0
 74145  1  0  0  0
 74146  1  0  0  0
 74147  1  0  0  0
 74 79  1  0  0  0
 75148  1  0  0  0
 75149  1  0  0  0
 75150  1  0  0  0
 75 80  1  0  0  0
 76151  1  0  0  0
 76152  1  0  0  0
 76153  1  0  0  0
 76 81  1  0  0  0
 77 80  1  0  0  0
 77 81  1  0  0  0
 77154  1  0  0  0
 77155  1  0  0  0
 78 80  1  0  0  0
 78156  1  0  0  0
 78157  1  0  0  0
 79 81  1  0  0  0
 79158  1  0  0  0
 80159  1  0  0  0
 81160  1  0  0  0
 83161  1  0  0  0
M  ISO  4   1 100  68 101  78 101  83 100
M  END
> <chiral flag>
0

> <version>
0

> <s_m_source_file>
/data/baiqing/PycharmProjects/Reinvent-master-3.2/result/LINK_invent/BTK/process_docking_weight1_custom_product_contain_oxygen_bond_distance_aromatic_linkinvent_7_9_3/rearranged_h_0189.sdf

> <i_m_source_file_index>
42

> <r_mmod_Potential_Energy-OPLS-2005>
50.6021003723145

> <r_mmod_Stretch_Energy-OPLS-2005>
51.6337585449219

> <r_mmod_Bend_Energy-OPLS-2005>
128.430511474609

> <r_mmod_Torsional_Energy-OPLS-2005>
286.605285644531

> <r_mmod_Improper_Torsional_Energy-OPLS-2005>
7.01313877105713

> <r_mmod_Van_der_Waal_Energy-OPLS-2005>
143.640426635742

> <r_mmod_Electrostatic_Energy-OPLS-2005>
-380.463226318359

> <r_mmod_Solvation_Energy-OPLS-2005>
-204.518524169922

> <b_mmod_Minimization_Converged-OPLS-2005>
0

> <r_mmod_RMS_Derivative-OPLS-2005>
3.85880661010742

$$$$
42
                    3D
 Structure written by MMmdl.
160168  0  0  1  0            999 V2000
  -30.6686  -14.5596   20.5767 C   0  0  0  0  0  0
  -30.4194  -12.3615   19.4525 C   0  0  0  0  0  0
  -29.5044  -12.5577   18.2235 C   0  0  0  0  0  0
  -28.0238  -12.3911   18.6270 C   0  0  0  0  0  0
  -27.6594  -13.2251   19.8879 C   0  0  2  0  0  0
  -28.6996  -13.0200   21.0115 C   0  0  0  0  0  0
  -25.2577  -13.8193   20.5795 C   0  0  0  0  0  0
  -24.1847  -13.0387   20.9192 C   0  0  0  0  0  0
  -24.6473  -11.6883   20.8745 C   0  0  0  0  0  0
  -23.9140  -10.4271   21.0414 C   0  0  0  0  0  0
  -24.3684   -9.4174   21.9178 C   0  0  0  0  0  0
  -23.6326   -8.2235   22.0783 C   0  0  0  0  0  0
  -22.4309   -8.0290   21.3586 C   0  0  0  0  0  0
  -21.9973   -9.0250   20.4650 C   0  0  0  0  0  0
  -22.7331  -10.2112   20.3039 C   0  0  0  0  0  0
  -21.6851   -6.0750   22.5283 C   0  0  0  0  0  0
  -21.4017   -6.5669   23.8212 C   0  0  0  0  0  0
  -21.3668   -5.6819   24.9191 C   0  0  0  0  0  0
  -21.6051   -4.3082   24.7221 C   0  0  0  0  0  0
  -21.8812   -3.8163   23.4344 C   0  0  0  0  0  0
  -21.9190   -4.6978   22.3398 C   0  0  0  0  0  0
  -22.7847  -13.5141   21.1774 C   0  0  0  0  0  0
  -22.1655   -4.2170   21.0976 F   0  0  0  0  0  0
  -21.5620   -3.4561   25.7734 F   0  0  0  0  0  0
  -30.0211  -13.3584   20.4637 N   0  0  0  0  0  0
  -26.3040  -12.9396   20.3498 N   0  0  0  0  0  0
  -25.9427  -11.6540   20.5851 N   0  0  0  0  0  0
  -22.0519  -12.8121   22.0339 N   0  0  0  0  0  0
  -25.4185  -15.1911   20.4204 N   0  0  0  0  0  0
  -31.8030  -14.7118   20.1114 O   0  0  0  0  0  0
  -21.6642   -6.8923   21.4269 O   0  0  0  0  0  0
  -22.3532  -14.5420   20.6601 O   0  0  0  0  0  0
  -24.6188  -31.8676   23.2062 C   0  0  0  0  0  0
  -25.9060  -32.4837   23.8376 C   0  0  1  0  0  0
  -27.2226  -27.3864   20.1150 C   0  0  0  0  0  0
  -25.5894  -33.8625   24.2289 N   0  0  0  0  0  0
  -23.4079  -30.4937   21.5486 C   0  0  2  0  0  0
  -24.8510  -28.9610   20.1068 C   0  0  0  0  0  0
  -22.7445  -29.4685   22.4960 C   0  0  0  0  0  0
  -18.0281  -28.1381   22.8488 C   0  0  0  0  0  0
  -24.1484  -36.7316   23.2639 C   0  0  0  0  0  0
  -25.9408  -30.8272   21.3620 C   0  0  0  0  0  0
  -26.0163  -29.4575   20.7065 C   0  0  0  0  0  0
  -27.2042  -28.6839   20.6990 C   0  0  0  0  0  0
  -26.0399  -26.9330   19.4842 C   0  0  0  0  0  0
  -24.8627  -27.7033   19.4850 C   0  0  0  0  0  0
  -23.6162  -29.8321   20.1602 C   0  0  0  0  0  0
  -25.4121  -36.3123   24.0320 C   0  0  1  0  0  0
  -20.5887  -28.3696   23.1289 C   0  0  2  0  0  0
  -20.6769  -26.9425   22.5414 C   0  0  0  0  0  0
  -19.5743  -26.6382   21.5206 C   0  0  0  0  0  0
  -18.1933  -26.7926   22.1615 C   0  0  0  0  0  0
  -19.1536  -28.8836   23.2884 C   0  0  0  0  0  0
  -18.9465  -30.1452   23.8902 C   0  0  0  0  0  0
  -17.6470  -30.6592   24.0569 C   0  0  0  0  0  0
  -25.9052  -34.9489   23.5105 C   0  0  0  0  0  0
  -16.5360  -29.9104   23.6320 C   0  0  0  0  0  0
  -16.7275  -28.6509   23.0340 C   0  0  0  0  0  0
  -26.4436  -31.6607   25.0725 C   0  0  0  0  0  0
  -25.3665  -31.3676   26.1422 C   0  0  0  0  0  0
  -27.0267  -30.3063   24.6071 C   0  0  0  0  0  0
  -27.5971  -32.4324   25.7555 C   0  0  0  0  0  0
  -27.5592  -37.1845   24.8456 C   0  0  0  0  0  0
  -21.4169  -29.3056   22.3695 N   0  0  0  0  0  0
  -26.4292  -37.3826   23.9408 N   0  0  0  0  0  0
  -24.6749  -31.0773   22.0972 N   0  0  0  0  0  0
  -23.4206  -28.8207   23.3006 O   0  0  0  0  0  0
  -28.3647  -26.5936   20.1944 O   0  0  0  0  0  0
  -26.5640  -34.8952   22.4680 O   0  0  0  0  0  0
  -23.5388  -32.1394   23.7470 O   0  0  0  0  0  0
  -30.8968  -19.3459   20.5262 C   0  0  0  0  0  0
  -29.7023  -19.2755   21.1988 C   0  0  0  0  0  0
  -30.2137  -17.0108   21.0030 C   0  0  0  0  0  0
  -27.3931  -20.2801   21.2894 C   0  0  0  0  0  0
  -28.4541  -24.6126   18.7955 C   0  0  0  0  0  0
  -29.1578  -24.4340   21.2415 C   0  0  0  0  0  0
  -28.8740  -20.4918   21.6556 C   0  0  2  0  0  0
  -28.6763  -23.0669   21.8893 C   0  0  2  0  0  0
  -28.2057  -25.1389   20.2164 C   0  0  1  0  0  0
  -28.9552  -23.0758   23.4300 C   0  0  0  0  0  0
  -29.3535  -17.9297   21.4996 N   0  0  0  0  0  0
  -29.9566  -15.5933   21.1110 N   0  0  0  0  0  0
  -29.2687  -21.8626   21.2170 N   0  0  0  0  0  0
  -28.2852  -22.1098   24.0575 F   0  0  0  0  0  0
  -28.5526  -24.2162   23.9928 F   0  0  0  0  0  0
  -30.2598  -22.9248   23.6650 F   0  0  0  0  0  0
  -31.5841  -17.7737   20.1875 S   0  0  0  0  0  0
  -31.4714  -12.4464   19.1721 H   0  0  0  0  0  0
  -30.3037  -11.3526   19.8526 H   0  0  0  0  0  0
  -29.7657  -11.8551   17.4312 H   0  0  0  0  0  0
  -29.6623  -13.5542   17.8057 H   0  0  0  0  0  0
  -27.8448  -11.3309   18.8144 H   0  0  0  0  0  0
  -27.3769  -12.6684   17.7931 H   0  0  0  0  0  0
  -27.6917  -14.2725   19.5931 H   0  0  0  0  0  0
  -28.6917  -11.9784   21.3428 H   0  0  0  0  0  0
  -28.4582  -13.6072   21.8969 H   0  0  0  0  0  0
  -25.2847   -9.5630   22.4716 H   0  0  0  0  0  0
  -23.9988   -7.4666   22.7555 H   0  0  0  0  0  0
  -21.0903   -8.8807   19.8930 H   0  0  0  0  0  0
  -22.3842  -10.9655   19.6125 H   0  0  0  0  0  0
  -21.2022   -7.6169   23.9722 H   0  0  0  0  0  0
  -21.1515   -6.0564   25.9106 H   0  0  0  0  0  0
  -22.0589   -2.7619   23.2852 H   0  0  0  0  0  0
  -22.4198  -11.9734   22.4587 H   0  0  0  0  0  0
  -21.1113  -13.1106   22.2546 H   0  0  0  0  0  0
  -24.6310  -15.8243   20.5014 H   0  0  0  0  0  0
  -26.2654  -15.6560   20.1152 H   0  0  0  0  0  0
  -26.7164  -32.5544   23.1180 H   0  0  0  0  0  0
  -25.0036  -33.9779   25.0416 H   0  0  0  0  0  0
  -22.6975  -31.3122   21.4138 H   0  0  0  0  0  0
  -23.3773  -35.9626   23.3274 H   0  0  0  0  0  0
  -24.3591  -36.8971   22.2062 H   0  0  0  0  0  0
  -23.7180  -37.6488   23.6672 H   0  0  0  0  0  0
  -26.0589  -31.5991   20.5993 H   0  0  0  0  0  0
  -26.8267  -30.8762   21.9845 H   0  0  0  0  0  0
  -28.0982  -29.0669   21.1706 H   0  0  0  0  0  0
  -25.9976  -25.9756   18.9894 H   0  0  0  0  0  0
  -23.9718  -27.3193   19.0064 H   0  0  0  0  0  0
  -23.7342  -30.6108   19.4061 H   0  0  0  0  0  0
  -22.7330  -29.2626   19.8610 H   0  0  0  0  0  0
  -25.1301  -36.2008   25.0818 H   0  0  0  0  0  0
  -20.9967  -28.3297   24.1411 H   0  0  0  0  0  0
  -20.5670  -26.2326   23.3634 H   0  0  0  0  0  0
  -21.6658  -26.7449   22.1252 H   0  0  0  0  0  0
  -19.6921  -25.6278   21.1249 H   0  0  0  0  0  0
  -19.6660  -27.3171   20.6733 H   0  0  0  0  0  0
  -17.4205  -26.6664   21.4025 H   0  0  0  0  0  0
  -18.0337  -26.0053   22.9002 H   0  0  0  0  0  0
  -19.7938  -30.7247   24.2308 H   0  0  0  0  0  0
  -17.5024  -31.6275   24.5160 H   0  0  0  0  0  0
  -15.5359  -30.3004   23.7606 H   0  0  0  0  0  0
  -15.8695  -28.0820   22.7048 H   0  0  0  0  0  0
  -24.5871  -30.7005   25.7717 H   0  0  0  0  0  0
  -24.8805  -32.2803   26.4880 H   0  0  0  0  0  0
  -25.7990  -30.8825   27.0178 H   0  0  0  0  0  0
  -26.2824  -29.6902   24.1016 H   0  0  0  0  0  0
  -27.3915  -29.7228   25.4532 H   0  0  0  0  0  0
  -27.8704  -30.4397   23.9301 H   0  0  0  0  0  0
  -27.2557  -33.3627   26.2120 H   0  0  0  0  0  0
  -28.3840  -32.6883   25.0447 H   0  0  0  0  0  0
  -28.0555  -31.8434   26.5509 H   0  0  0  0  0  0
  -28.2582  -38.0179   24.7616 H   0  0  0  0  0  0
  -28.1125  -36.2722   24.6170 H   0  0  0  0  0  0
  -27.2324  -37.1375   25.8860 H   0  0  0  0  0  0
  -20.9342  -29.8824   21.6953 H   0  0  0  0  0  0
  -26.0179  -38.2911   24.1413 H   0  0  0  0  0  0
  -31.4128  -20.2456   20.2144 H   0  0  0  0  0  0
  -27.0223  -19.3605   21.7395 H   0  0  0  0  0  0
  -27.2490  -20.1984   20.2127 H   0  0  0  0  0  0
  -26.7516  -21.0707   21.6659 H   0  0  0  0  0  0
  -28.2490  -23.5429   18.7292 H   0  0  0  0  0  0
  -29.4934  -24.7686   18.5051 H   0  0  0  0  0  0
  -27.8331  -25.1189   18.0576 H   0  0  0  0  0  0
  -30.1678  -24.3391   20.8422 H   0  0  0  0  0  0
  -29.2720  -25.1705   22.0361 H   0  0  0  0  0  0
  -28.9434  -20.4651   22.7386 H   0  0  0  0  0  0
  -27.5932  -23.0444   21.7841 H   0  0  0  0  0  0
  -27.1897  -24.8887   20.5194 H   0  0  0  0  0  0
  -29.0643  -15.3506   21.5131 H   0  0  0  0  0  0
  -29.0234  -21.9321   20.2386 H   0  0  0  0  0  0
  1 25  1  0  0  0
  1 30  2  0  0  0
  1 82  1  0  0  0
  2  3  1  0  0  0
  2 25  1  0  0  0
  2 88  1  0  0  0
  2 89  1  0  0  0
  3  4  1  0  0  0
  3 90  1  0  0  0
  3 91  1  0  0  0
  4  5  1  0  0  0
  4 92  1  0  0  0
  4 93  1  0  0  0
  5  6  1  0  0  0
  5 26  1  0  0  0
  5 94  1  0  0  0
  6 25  1  0  0  0
  6 95  1  0  0  0
  6 96  1  0  0  0
  7  8  2  0  0  0
  7 26  1  0  0  0
  7 29  1  0  0  0
  8  9  1  0  0  0
  8 22  1  0  0  0
  9 10  1  0  0  0
  9 27  2  0  0  0
 10 11  2  0  0  0
 10 15  1  0  0  0
 11 12  1  0  0  0
 11 97  1  0  0  0
 12 13  2  0  0  0
 12 98  1  0  0  0
 13 14  1  0  0  0
 13 31  1  0  0  0
 14 15  2  0  0  0
 14 99  1  0  0  0
 15100  1  0  0  0
 16 17  2  0  0  0
 16 21  1  0  0  0
 16 31  1  0  0  0
 17 18  1  0  0  0
 17101  1  0  0  0
 18 19  2  0  0  0
 18102  1  0  0  0
 19 20  1  0  0  0
 19 24  1  0  0  0
 20 21  2  0  0  0
 20103  1  0  0  0
 21 23  1  0  0  0
 22 28  1  0  0  0
 22 32  2  0  0  0
 26 27  1  0  0  0
 28104  1  0  0  0
 28105  1  0  0  0
 29106  1  0  0  0
 29107  1  0  0  0
 33 34  1  0  0  0
 33 66  1  0  0  0
 33 70  2  0  0  0
 34 36  1  0  0  0
 34 59  1  0  0  0
 34108  1  0  0  0
 35 44  2  0  0  0
 35 45  1  0  0  0
 35 68  1  0  0  0
 36 56  1  0  0  0
 36109  1  0  0  0
 37 39  1  0  0  0
 37 47  1  0  0  0
 37 66  1  0  0  0
 37110  1  0  0  0
 38 43  2  0  0  0
 38 46  1  0  0  0
 38 47  1  0  0  0
 39 64  1  0  0  0
 39 67  2  0  0  0
 40 52  1  0  0  0
 40 53  2  0  0  0
 40 58  1  0  0  0
 41111  1  0  0  0
 41112  1  0  0  0
 41113  1  0  0  0
 41 48  1  0  0  0
 42 43  1  0  0  0
 42 66  1  0  0  0
 42114  1  0  0  0
 42115  1  0  0  0
 43 44  1  0  0  0
 44116  1  0  0  0
 45 46  2  0  0  0
 45117  1  0  0  0
 46118  1  0  0  0
 47119  1  0  0  0
 47120  1  0  0  0
 48 56  1  0  0  0
 48 65  1  0  0  0
 48121  1  0  0  0
 49 50  1  0  0  0
 49 53  1  0  0  0
 49 64  1  0  0  0
 49122  1  0  0  0
 50 51  1  0  0  0
 50123  1  0  0  0
 50124  1  0  0  0
 51 52  1  0  0  0
 51125  1  0  0  0
 51126  1  0  0  0
 52127  1  0  0  0
 52128  1  0  0  0
 53 54  1  0  0  0
 54 55  2  0  0  0
 54129  1  0  0  0
 55 57  1  0  0  0
 55130  1  0  0  0
 56 69  2  0  0  0
 57 58  2  0  0  0
 57131  1  0  0  0
 58132  1  0  0  0
 59 60  1  0  0  0
 59 61  1  0  0  0
 59 62  1  0  0  0
 60133  1  0  0  0
 60134  1  0  0  0
 60135  1  0  0  0
 61136  1  0  0  0
 61137  1  0  0  0
 61138  1  0  0  0
 62139  1  0  0  0
 62140  1  0  0  0
 62141  1  0  0  0
 63 65  1  0  0  0
 63142  1  0  0  0
 63143  1  0  0  0
 63144  1  0  0  0
 64145  1  0  0  0
 65146  1  0  0  0
 68 79  1  0  0  0
 71 72  2  0  0  0
 71 87  1  0  0  0
 71147  1  0  0  0
 72 77  1  0  0  0
 72 81  1  0  0  0
 73 81  2  0  0  0
 73 82  1  0  0  0
 73 87  1  0  0  0
 74148  1  0  0  0
 74149  1  0  0  0
 74150  1  0  0  0
 74 77  1  0  0  0
 75151  1  0  0  0
 75152  1  0  0  0
 75153  1  0  0  0
 75 79  1  0  0  0
 76 79  1  0  0  0
 76154  1  0  0  0
 76155  1  0  0  0
 76 78  1  0  0  0
 77 83  1  0  0  0
 77156  1  0  0  0
 78 80  1  0  0  0
 78 83  1  0  0  0
 78157  1  0  0  0
 79158  1  0  0  0
 80 84  1  0  0  0
 80 85  1  0  0  0
 80 86  1  0  0  0
 82159  1  0  0  0
 83160  1  0  0  0
M  ISO  4   1 100  68 101  79 101  82 100
M  END
> <chiral flag>
0

> <version>
0

> <s_m_source_file>
/data/baiqing/PycharmProjects/Reinvent-master-3.2/result/LINK_invent/BTK/process_docking_weight1_custom_product_contain_oxygen_bond_distance_aromatic_linkinvent_7_9_3/rearranged_h_0189.sdf

> <i_m_source_file_index>
43

> <r_mmod_Potential_Energy-OPLS-2005>
-82.9714126586914

> <r_mmod_Stretch_Energy-OPLS-2005>
60.9370079040527

> <r_mmod_Bend_Energy-OPLS-2005>
127.620956420898

> <r_mmod_Torsional_Energy-OPLS-2005>
232.226669311523

> <r_mmod_Improper_Torsional_Energy-OPLS-2005>
3.39683079719543

> <r_mmod_Van_der_Waal_Energy-OPLS-2005>
139.935501098633

> <r_mmod_Electrostatic_Energy-OPLS-2005>
-466.587463378906

> <r_mmod_Solvation_Energy-OPLS-2005>
-205.991088867188

> <b_mmod_Minimization_Converged-OPLS-2005>
0

> <r_mmod_RMS_Derivative-OPLS-2005>
5.05518293380737

$$$$
43
                    3D
 Structure written by MMmdl.
159167  0  0  1  0            999 V2000
  -30.7847  -14.4186   20.6607 C   0  0  0  0  0  0
  -30.4277  -12.3497   19.3818 C   0  0  0  0  0  0
  -29.4843  -12.5651   18.1846 C   0  0  0  0  0  0
  -28.0039  -12.4254   18.5931 C   0  0  0  0  0  0
  -27.6598  -13.2282   19.8730 C   0  0  2  0  0  0
  -28.7102  -12.9949   20.9799 C   0  0  0  0  0  0
  -25.2527  -13.8186   20.5736 C   0  0  0  0  0  0
  -24.1807  -13.0457   20.9143 C   0  0  0  0  0  0
  -24.6368  -11.6900   20.8651 C   0  0  0  0  0  0
  -23.9036  -10.4301   21.0326 C   0  0  0  0  0  0
  -24.3591   -9.4232   21.9137 C   0  0  0  0  0  0
  -23.6284   -8.2258   22.0741 C   0  0  0  0  0  0
  -22.4266   -8.0270   21.3524 C   0  0  0  0  0  0
  -21.9878   -9.0231   20.4635 C   0  0  0  0  0  0
  -22.7181  -10.2119   20.3020 C   0  0  0  0  0  0
  -21.6864   -6.0719   22.5264 C   0  0  0  0  0  0
  -21.3998   -6.5613   23.8193 C   0  0  0  0  0  0
  -21.3675   -5.6765   24.9146 C   0  0  0  0  0  0
  -21.6047   -4.3026   24.7189 C   0  0  0  0  0  0
  -21.8829   -3.8130   23.4297 C   0  0  0  0  0  0
  -21.9186   -4.6946   22.3360 C   0  0  0  0  0  0
  -22.7801  -13.5214   21.1813 C   0  0  0  0  0  0
  -22.1683   -4.2142   21.0940 F   0  0  0  0  0  0
  -21.5633   -3.4518   25.7698 F   0  0  0  0  0  0
  -30.0439  -13.3013   20.4312 N   0  0  0  0  0  0
  -26.3013  -12.9426   20.3390 N   0  0  0  0  0  0
  -25.9300  -11.6537   20.5687 N   0  0  0  0  0  0
  -22.0428  -12.8292   22.0386 N   0  0  0  0  0  0
  -25.4128  -15.1957   20.4133 N   0  0  0  0  0  0
  -31.8501  -14.6447   20.0842 O   0  0  0  0  0  0
  -21.6621   -6.8869   21.4231 O   0  0  0  0  0  0
  -22.3437  -14.5482   20.6585 O   0  0  0  0  0  0
  -24.6202  -31.8702   23.2001 C   0  0  0  0  0  0
  -25.9113  -32.4840   23.8288 C   0  0  1  0  0  0
  -27.2525  -27.4353   20.0556 C   0  0  0  0  0  0
  -25.5912  -33.8587   24.2254 N   0  0  0  0  0  0
  -23.4098  -30.4976   21.5339 C   0  0  2  0  0  0
  -24.8549  -28.9567   20.1069 C   0  0  0  0  0  0
  -22.7450  -29.4716   22.4810 C   0  0  0  0  0  0
  -18.0265  -28.1514   22.8455 C   0  0  0  0  0  0
  -24.1470  -36.7287   23.2640 C   0  0  0  0  0  0
  -25.9432  -30.8244   21.3573 C   0  0  0  0  0  0
  -26.0108  -29.4505   20.7227 C   0  0  0  0  0  0
  -27.2028  -28.6897   20.7071 C   0  0  0  0  0  0
  -26.0704  -26.9573   19.4356 C   0  0  0  0  0  0
  -24.8813  -27.7092   19.4648 C   0  0  0  0  0  0
  -23.6221  -29.8320   20.1449 C   0  0  0  0  0  0
  -25.4120  -36.3114   24.0317 C   0  0  1  0  0  0
  -20.5880  -28.3804   23.1247 C   0  0  2  0  0  0
  -20.6756  -26.9506   22.5427 C   0  0  0  0  0  0
  -19.5724  -26.6484   21.5228 C   0  0  0  0  0  0
  -18.1909  -26.8053   22.1634 C   0  0  0  0  0  0
  -19.1527  -28.8950   23.2881 C   0  0  0  0  0  0
  -18.9445  -30.1527   23.8976 C   0  0  0  0  0  0
  -17.6455  -30.6695   24.0614 C   0  0  0  0  0  0
  -25.9040  -34.9473   23.5098 C   0  0  0  0  0  0
  -16.5356  -29.9245   23.6320 C   0  0  0  0  0  0
  -16.7240  -28.6659   23.0327 C   0  0  0  0  0  0
  -26.4476  -31.6630   25.0657 C   0  0  0  0  0  0
  -25.3612  -31.3799   26.1296 C   0  0  0  0  0  0
  -27.0301  -30.3071   24.6080 C   0  0  0  0  0  0
  -27.6115  -32.4254   25.7421 C   0  0  0  0  0  0
  -27.5577  -37.1828   24.8469 C   0  0  0  0  0  0
  -21.4136  -29.3161   22.3612 N   0  0  0  0  0  0
  -26.4290  -37.3798   23.9386 N   0  0  0  0  0  0
  -24.6758  -31.0802   22.0888 N   0  0  0  0  0  0
  -23.4224  -28.8170   23.2782 O   0  0  0  0  0  0
  -28.4580  -26.7494   20.0595 O   0  0  0  0  0  0
  -26.5642  -34.8947   22.4682 O   0  0  0  0  0  0
  -23.5398  -32.1371   23.7454 O   0  0  0  0  0  0
  -30.8041  -18.6611   23.0321 C   0  0  0  0  0  0
  -30.9676  -17.6677   22.0850 C   0  0  0  0  0  0
  -30.6362  -19.9407   21.1504 C   0  0  0  0  0  0
  -30.2333  -22.3735   20.7023 C   0  0  0  0  0  0
  -30.5792  -18.4643   24.5021 C   0  0  0  0  0  0
  -31.0013  -24.7229   18.5191 C   0  0  0  0  0  0
  -31.1655  -16.1868   22.3636 C   0  0  0  0  0  0
  -29.3223  -23.3258   19.8943 C   0  0  0  0  0  0
  -28.6734  -25.6676   19.1447 C   0  0  0  0  0  0
  -29.8656  -24.7584   19.5819 C   0  0  2  0  0  0
  -30.6681  -19.9469   22.4878 N   0  0  0  0  0  0
  -30.2220  -21.0647   20.3736 N   0  0  0  0  0  0
  -30.3208  -15.2558   21.6006 N   0  0  0  0  0  0
  -30.9325  -22.8386   21.6102 O   0  0  0  0  0  0
  -30.8874  -18.3322   20.4613 S   0  0  0  0  0  0
  -31.4601  -12.4891   19.0552 H   0  0  0  0  0  0
  -30.3751  -11.3273   19.7593 H   0  0  0  0  0  0
  -29.7193  -11.8608   17.3872 H   0  0  0  0  0  0
  -29.6528  -13.5629   17.7718 H   0  0  0  0  0  0
  -27.7912  -11.3678   18.7464 H   0  0  0  0  0  0
  -27.3650  -12.7541   17.7702 H   0  0  0  0  0  0
  -27.6947  -14.2848   19.6046 H   0  0  0  0  0  0
  -28.6845  -11.9554   21.3038 H   0  0  0  0  0  0
  -28.4602  -13.5777   21.8624 H   0  0  0  0  0  0
  -25.2710   -9.5692   22.4710 H   0  0  0  0  0  0
  -23.9977   -7.4619   22.7452 H   0  0  0  0  0  0
  -21.0801   -8.8663   19.8965 H   0  0  0  0  0  0
  -22.3561  -10.9612   19.6114 H   0  0  0  0  0  0
  -21.1990   -7.6115   23.9693 H   0  0  0  0  0  0
  -21.1524   -6.0482   25.9049 H   0  0  0  0  0  0
  -22.0608   -2.7593   23.2766 H   0  0  0  0  0  0
  -22.4044  -12.0039   22.4956 H   0  0  0  0  0  0
  -21.0989  -13.1296   22.2493 H   0  0  0  0  0  0
  -24.6268  -15.8358   20.4898 H   0  0  0  0  0  0
  -26.2628  -15.6441   20.1027 H   0  0  0  0  0  0
  -26.7211  -32.5515   23.1076 H   0  0  0  0  0  0
  -25.0030  -33.9686   25.0378 H   0  0  0  0  0  0
  -22.7028  -31.3179   21.3943 H   0  0  0  0  0  0
  -23.3713  -35.9647   23.3376 H   0  0  0  0  0  0
  -24.3560  -36.8811   22.2036 H   0  0  0  0  0  0
  -23.7213  -37.6524   23.6583 H   0  0  0  0  0  0
  -26.0507  -31.5607   20.5591 H   0  0  0  0  0  0
  -26.8415  -30.9003   21.9565 H   0  0  0  0  0  0
  -28.0970  -29.0770   21.1761 H   0  0  0  0  0  0
  -26.0273  -26.0197   18.9019 H   0  0  0  0  0  0
  -24.0019  -27.3348   18.9601 H   0  0  0  0  0  0
  -23.7556  -30.6060   19.3878 H   0  0  0  0  0  0
  -22.7431  -29.2648   19.8325 H   0  0  0  0  0  0
  -25.1298  -36.1993   25.0814 H   0  0  0  0  0  0
  -21.0015  -28.3478   24.1354 H   0  0  0  0  0  0
  -20.5661  -26.2437   23.3663 H   0  0  0  0  0  0
  -21.6610  -26.7569   22.1206 H   0  0  0  0  0  0
  -19.6863  -25.6390   21.1265 H   0  0  0  0  0  0
  -19.6666  -27.3268   20.6728 H   0  0  0  0  0  0
  -17.4159  -26.6730   21.4082 H   0  0  0  0  0  0
  -18.0341  -26.0301   22.9116 H   0  0  0  0  0  0
  -19.7916  -30.7296   24.2446 H   0  0  0  0  0  0
  -17.5025  -31.6363   24.5234 H   0  0  0  0  0  0
  -15.5358  -30.3202   23.7599 H   0  0  0  0  0  0
  -15.8625  -28.1030   22.7016 H   0  0  0  0  0  0
  -24.5879  -30.7102   25.7512 H   0  0  0  0  0  0
  -24.8671  -32.2970   26.4517 H   0  0  0  0  0  0
  -25.7786  -30.9066   27.0188 H   0  0  0  0  0  0
  -26.2908  -29.6877   24.1028 H   0  0  0  0  0  0
  -27.3922  -29.7288   25.4583 H   0  0  0  0  0  0
  -27.8766  -30.4363   23.9343 H   0  0  0  0  0  0
  -27.2884  -33.3561   26.2068 H   0  0  0  0  0  0
  -28.3930  -32.6754   25.0239 H   0  0  0  0  0  0
  -28.0788  -31.8283   26.5262 H   0  0  0  0  0  0
  -28.2660  -38.0080   24.7521 H   0  0  0  0  0  0
  -28.0994  -36.2598   24.6301 H   0  0  0  0  0  0
  -27.2280  -37.1513   25.8876 H   0  0  0  0  0  0
  -20.9312  -29.8906   21.6830 H   0  0  0  0  0  0
  -26.0184  -38.2886   24.1380 H   0  0  0  0  0  0
  -30.2761  -19.3860   25.0038 H   0  0  0  0  0  0
  -31.4341  -18.0492   25.0378 H   0  0  0  0  0  0
  -29.7591  -17.7596   24.6335 H   0  0  0  0  0  0
  -31.8060  -24.0348   18.7962 H   0  0  0  0  0  0
  -31.4872  -25.6893   18.3682 H   0  0  0  0  0  0
  -30.6255  -24.4087   17.5433 H   0  0  0  0  0  0
  -30.9697  -15.9769   23.4172 H   0  0  0  0  0  0
  -32.2181  -15.9211   22.2479 H   0  0  0  0  0  0
  -28.4165  -23.4387   20.4917 H   0  0  0  0  0  0
  -28.9979  -22.8631   18.9599 H   0  0  0  0  0  0
  -28.8107  -26.0678   18.1389 H   0  0  0  0  0  0
  -27.7905  -25.0410   19.0749 H   0  0  0  0  0  0
  -30.2862  -25.1784   20.5014 H   0  0  0  0  0  0
  -29.7073  -20.8168   19.5418 H   0  0  0  0  0  0
  -29.3963  -15.0738   21.9590 H   0  0  0  0  0  0
  1 25  1  0  0  0
  1 30  2  0  0  0
  1 83  1  0  0  0
  2  3  1  0  0  0
  2 25  1  0  0  0
  2 86  1  0  0  0
  2 87  1  0  0  0
  3  4  1  0  0  0
  3 88  1  0  0  0
  3 89  1  0  0  0
  4  5  1  0  0  0
  4 90  1  0  0  0
  4 91  1  0  0  0
  5  6  1  0  0  0
  5 26  1  0  0  0
  5 92  1  0  0  0
  6 25  1  0  0  0
  6 93  1  0  0  0
  6 94  1  0  0  0
  7  8  2  0  0  0
  7 26  1  0  0  0
  7 29  1  0  0  0
  8  9  1  0  0  0
  8 22  1  0  0  0
  9 10  1  0  0  0
  9 27  2  0  0  0
 10 11  2  0  0  0
 10 15  1  0  0  0
 11 12  1  0  0  0
 11 95  1  0  0  0
 12 13  2  0  0  0
 12 96  1  0  0  0
 13 14  1  0  0  0
 13 31  1  0  0  0
 14 15  2  0  0  0
 14 97  1  0  0  0
 15 98  1  0  0  0
 16 17  2  0  0  0
 16 21  1  0  0  0
 16 31  1  0  0  0
 17 18  1  0  0  0
 17 99  1  0  0  0
 18 19  2  0  0  0
 18100  1  0  0  0
 19 20  1  0  0  0
 19 24  1  0  0  0
 20 21  2  0  0  0
 20101  1  0  0  0
 21 23  1  0  0  0
 22 28  1  0  0  0
 22 32  2  0  0  0
 26 27  1  0  0  0
 28102  1  0  0  0
 28103  1  0  0  0
 29104  1  0  0  0
 29105  1  0  0  0
 33 34  1  0  0  0
 33 66  1  0  0  0
 33 70  2  0  0  0
 34 36  1  0  0  0
 34 59  1  0  0  0
 34106  1  0  0  0
 35 44  2  0  0  0
 35 45  1  0  0  0
 35 68  1  0  0  0
 36 56  1  0  0  0
 36107  1  0  0  0
 37 39  1  0  0  0
 37 47  1  0  0  0
 37 66  1  0  0  0
 37108  1  0  0  0
 38 43  2  0  0  0
 38 46  1  0  0  0
 38 47  1  0  0  0
 39 64  1  0  0  0
 39 67  2  0  0  0
 40 52  1  0  0  0
 40 53  2  0  0  0
 40 58  1  0  0  0
 41109  1  0  0  0
 41110  1  0  0  0
 41111  1  0  0  0
 41 48  1  0  0  0
 42 43  1  0  0  0
 42 66  1  0  0  0
 42112  1  0  0  0
 42113  1  0  0  0
 43 44  1  0  0  0
 44114  1  0  0  0
 45 46  2  0  0  0
 45115  1  0  0  0
 46116  1  0  0  0
 47117  1  0  0  0
 47118  1  0  0  0
 48 56  1  0  0  0
 48 65  1  0  0  0
 48119  1  0  0  0
 49 50  1  0  0  0
 49 53  1  0  0  0
 49 64  1  0  0  0
 49120  1  0  0  0
 50 51  1  0  0  0
 50121  1  0  0  0
 50122  1  0  0  0
 51 52  1  0  0  0
 51123  1  0  0  0
 51124  1  0  0  0
 52125  1  0  0  0
 52126  1  0  0  0
 53 54  1  0  0  0
 54 55  2  0  0  0
 54127  1  0  0  0
 55 57  1  0  0  0
 55128  1  0  0  0
 56 69  2  0  0  0
 57 58  2  0  0  0
 57129  1  0  0  0
 58130  1  0  0  0
 59 60  1  0  0  0
 59 61  1  0  0  0
 59 62  1  0  0  0
 60131  1  0  0  0
 60132  1  0  0  0
 60133  1  0  0  0
 61134  1  0  0  0
 61135  1  0  0  0
 61136  1  0  0  0
 62137  1  0  0  0
 62138  1  0  0  0
 62139  1  0  0  0
 63 65  1  0  0  0
 63140  1  0  0  0
 63141  1  0  0  0
 63142  1  0  0  0
 64143  1  0  0  0
 65144  1  0  0  0
 68 79  1  0  0  0
 71 72  2  0  0  0
 71 75  1  0  0  0
 71 81  1  0  0  0
 72 77  1  0  0  0
 72 85  1  0  0  0
 73 81  2  0  0  0
 73 82  1  0  0  0
 73 85  1  0  0  0
 74 78  1  0  0  0
 74 82  1  0  0  0
 74 84  2  0  0  0
 75145  1  0  0  0
 75146  1  0  0  0
 75147  1  0  0  0
 76148  1  0  0  0
 76149  1  0  0  0
 76150  1  0  0  0
 76 80  1  0  0  0
 77 83  1  0  0  0
 77151  1  0  0  0
 77152  1  0  0  0
 78 80  1  0  0  0
 78153  1  0  0  0
 78154  1  0  0  0
 79 80  1  0  0  0
 79155  1  0  0  0
 79156  1  0  0  0
 80157  1  0  0  0
 82158  1  0  0  0
 83159  1  0  0  0
M  ISO  4   1 100  68 101  79 101  83 100
M  END
> <chiral flag>
0

> <version>
0

> <s_m_source_file>
/data/baiqing/PycharmProjects/Reinvent-master-3.2/result/LINK_invent/BTK/process_docking_weight1_custom_product_contain_oxygen_bond_distance_aromatic_linkinvent_7_9_3/rearranged_h_0189.sdf

> <i_m_source_file_index>
44

> <r_mmod_Potential_Energy-OPLS-2005>
-171.144577026367

> <r_mmod_Stretch_Energy-OPLS-2005>
40.8124580383301

> <r_mmod_Bend_Energy-OPLS-2005>
113.589126586914

> <r_mmod_Torsional_Energy-OPLS-2005>
216.543731689453

> <r_mmod_Improper_Torsional_Energy-OPLS-2005>
4.40526723861694

> <r_mmod_Van_der_Waal_Energy-OPLS-2005>
137.450057983398

> <r_mmod_Electrostatic_Energy-OPLS-2005>
-442.068450927734

> <r_mmod_Solvation_Energy-OPLS-2005>
-255.398483276367

> <b_mmod_Minimization_Converged-OPLS-2005>
0

> <r_mmod_RMS_Derivative-OPLS-2005>
9.06930828094482

$$$$
44
                    3D
 Structure written by MMmdl.
157165  0  0  1  0            999 V2000
  -30.6372  -14.5468   20.5598 C   0  0  0  0  0  0
  -30.4474  -12.3519   19.4250 C   0  0  0  0  0  0
  -29.5089  -12.5251   18.2107 C   0  0  0  0  0  0
  -28.0288  -12.3704   18.6185 C   0  0  0  0  0  0
  -27.6654  -13.2043   19.8761 C   0  0  2  0  0  0
  -28.7078  -12.9741   20.9938 C   0  0  0  0  0  0
  -25.2602  -13.8137   20.5660 C   0  0  0  0  0  0
  -24.1828  -13.0427   20.9141 C   0  0  0  0  0  0
  -24.6376  -11.6893   20.8695 C   0  0  0  0  0  0
  -23.9039  -10.4285   21.0398 C   0  0  0  0  0  0
  -24.3597   -9.4203   21.9179 C   0  0  0  0  0  0
  -23.6287   -8.2230   22.0754 C   0  0  0  0  0  0
  -22.4269   -8.0260   21.3546 C   0  0  0  0  0  0
  -21.9889   -9.0230   20.4647 C   0  0  0  0  0  0
  -22.7213  -10.2117   20.3052 C   0  0  0  0  0  0
  -21.6852   -6.0721   22.5282 C   0  0  0  0  0  0
  -21.4012   -6.5625   23.8219 C   0  0  0  0  0  0
  -21.3661   -5.6778   24.9183 C   0  0  0  0  0  0
  -21.6046   -4.3044   24.7224 C   0  0  0  0  0  0
  -21.8822   -3.8129   23.4346 C   0  0  0  0  0  0
  -21.9189   -4.6945   22.3400 C   0  0  0  0  0  0
  -22.7856  -13.5249   21.1828 C   0  0  0  0  0  0
  -22.1658   -4.2130   21.0972 F   0  0  0  0  0  0
  -21.5637   -3.4527   25.7734 F   0  0  0  0  0  0
  -30.0368  -13.3236   20.4524 N   0  0  0  0  0  0
  -26.3038  -12.9298   20.3323 N   0  0  0  0  0  0
  -25.9303  -11.6470   20.5701 N   0  0  0  0  0  0
  -22.0476  -12.8265   22.0387 N   0  0  0  0  0  0
  -25.4343  -15.1869   20.4133 N   0  0  0  0  0  0
  -31.7510  -14.7846   20.0791 O   0  0  0  0  0  0
  -21.6632   -6.8857   21.4242 O   0  0  0  0  0  0
  -22.3552  -14.5560   20.6685 O   0  0  0  0  0  0
  -24.6203  -31.8639   23.2026 C   0  0  0  0  0  0
  -25.9073  -32.4796   23.8330 C   0  0  1  0  0  0
  -27.2290  -27.3764   20.1019 C   0  0  0  0  0  0
  -25.5906  -33.8592   24.2253 N   0  0  0  0  0  0
  -23.4093  -30.4867   21.5479 C   0  0  2  0  0  0
  -24.8523  -28.9447   20.1143 C   0  0  0  0  0  0
  -22.7425  -29.4647   22.4980 C   0  0  0  0  0  0
  -18.0273  -28.1407   22.8505 C   0  0  0  0  0  0
  -24.1489  -36.7320   23.2634 C   0  0  0  0  0  0
  -25.9435  -30.8117   21.3612 C   0  0  0  0  0  0
  -26.0186  -29.4415   20.7093 C   0  0  0  0  0  0
  -27.2093  -28.6684   20.6942 C   0  0  0  0  0  0
  -26.0365  -26.9083   19.5011 C   0  0  0  0  0  0
  -24.8596  -27.6792   19.5066 C   0  0  0  0  0  0
  -23.6167  -29.8178   20.1640 C   0  0  0  0  0  0
  -25.4109  -36.3098   24.0323 C   0  0  1  0  0  0
  -20.5867  -28.3686   23.1332 C   0  0  2  0  0  0
  -20.6768  -26.9424   22.5437 C   0  0  0  0  0  0
  -19.5740  -26.6404   21.5244 C   0  0  0  0  0  0
  -18.1916  -26.7952   22.1647 C   0  0  0  0  0  0
  -19.1523  -28.8863   23.2915 C   0  0  0  0  0  0
  -18.9452  -30.1474   23.8911 C   0  0  0  0  0  0
  -17.6456  -30.6607   24.0584 C   0  0  0  0  0  0
  -25.9054  -34.9470   23.5093 C   0  0  0  0  0  0
  -16.5345  -29.9109   23.6350 C   0  0  0  0  0  0
  -16.7266  -28.6537   23.0349 C   0  0  0  0  0  0
  -26.4449  -31.6597   25.0689 C   0  0  0  0  0  0
  -25.3672  -31.3768   26.1423 C   0  0  0  0  0  0
  -27.0245  -30.3004   24.6116 C   0  0  0  0  0  0
  -27.6010  -32.4322   25.7470 C   0  0  0  0  0  0
  -27.5593  -37.1800   24.8442 C   0  0  0  0  0  0
  -21.4144  -29.3037   22.3717 N   0  0  0  0  0  0
  -26.4278  -37.3799   23.9427 N   0  0  0  0  0  0
  -24.6772  -31.0690   22.0957 N   0  0  0  0  0  0
  -23.4178  -28.8204   23.3049 O   0  0  0  0  0  0
  -28.3829  -26.5989   20.1190 O   0  0  0  0  0  0
  -26.5636  -34.8937   22.4668 O   0  0  0  0  0  0
  -23.5392  -32.1412   23.7407 O   0  0  0  0  0  0
  -28.5263  -17.4369   21.5259 C   0  0  0  0  0  0
  -29.6581  -16.8784   20.9806 C   0  0  0  0  0  0
  -29.8982  -19.0635   20.2791 C   0  0  0  0  0  0
  -30.0017  -24.9040   21.8238 C   0  0  0  0  0  0
  -30.6290  -24.5524   19.4358 C   0  0  0  0  0  0
  -29.2559  -22.7824   20.7118 C   0  0  0  0  0  0
  -28.2331  -25.1463   20.0628 C   0  0  0  0  0  0
  -29.5140  -24.3317   20.4763 C   0  0  0  0  0  0
  -30.4437  -17.8162   20.2715 N   0  0  0  0  0  0
  -29.8759  -15.4738   21.1902 N   0  0  0  0  0  0
  -29.4427  -21.8949   19.5314 N   0  0  0  0  0  0
  -31.7569  -20.9727   20.2995 O   0  0  0  0  0  0
  -30.7799  -20.2276   18.0722 O   0  0  0  0  0  0
  -28.3784  -19.1403   21.1602 S   0  0  0  0  0  0
  -30.5901  -20.5668   19.4941 S   0  0  0  0  0  0
  -31.4865  -12.4903   19.1207 H   0  0  0  0  0  0
  -30.3862  -11.3367   19.8206 H   0  0  0  0  0  0
  -29.7638  -11.8038   17.4348 H   0  0  0  0  0  0
  -29.6612  -13.5129   17.7712 H   0  0  0  0  0  0
  -27.8473  -11.3125   18.8124 H   0  0  0  0  0  0
  -27.3806  -12.6435   17.7846 H   0  0  0  0  0  0
  -27.7107  -14.2546   19.5851 H   0  0  0  0  0  0
  -28.7012  -11.9278   21.3026 H   0  0  0  0  0  0
  -28.4485  -13.5337   21.8942 H   0  0  0  0  0  0
  -25.2756   -9.5683   22.4746 H   0  0  0  0  0  0
  -24.0004   -7.4619   22.7476 H   0  0  0  0  0  0
  -21.0820   -8.8739   19.8966 H   0  0  0  0  0  0
  -22.3673  -10.9637   19.6143 H   0  0  0  0  0  0
  -21.2003   -7.6141   23.9714 H   0  0  0  0  0  0
  -21.1496   -6.0511   25.9088 H   0  0  0  0  0  0
  -22.0608   -2.7593   23.2840 H   0  0  0  0  0  0
  -22.4085  -11.9932   22.4798 H   0  0  0  0  0  0
  -21.1096  -13.1305   22.2579 H   0  0  0  0  0  0
  -24.6679  -15.8413   20.5239 H   0  0  0  0  0  0
  -26.2830  -15.6265   20.0818 H   0  0  0  0  0  0
  -26.7147  -32.5468   23.1090 H   0  0  0  0  0  0
  -24.9979  -33.9708   25.0345 H   0  0  0  0  0  0
  -22.7006  -31.3061   21.4093 H   0  0  0  0  0  0
  -23.3750  -35.9650   23.3249 H   0  0  0  0  0  0
  -24.3612  -36.8989   22.2063 H   0  0  0  0  0  0
  -23.7224  -37.6503   23.6682 H   0  0  0  0  0  0
  -26.0572  -31.5705   20.5858 H   0  0  0  0  0  0
  -26.8326  -30.8683   21.9785 H   0  0  0  0  0  0
  -28.1068  -29.0480   21.1621 H   0  0  0  0  0  0
  -25.9904  -25.9404   19.0258 H   0  0  0  0  0  0
  -23.9635  -27.2865   19.0462 H   0  0  0  0  0  0
  -23.7234  -30.5919   19.4025 H   0  0  0  0  0  0
  -22.7366  -29.2406   19.8745 H   0  0  0  0  0  0
  -25.1280  -36.1939   25.0810 H   0  0  0  0  0  0
  -20.9966  -28.3274   24.1455 H   0  0  0  0  0  0
  -20.5730  -26.2288   23.3623 H   0  0  0  0  0  0
  -21.6630  -26.7506   22.1199 H   0  0  0  0  0  0
  -19.6898  -25.6323   21.1260 H   0  0  0  0  0  0
  -19.6681  -27.3228   20.6786 H   0  0  0  0  0  0
  -17.4199  -26.6726   21.4034 H   0  0  0  0  0  0
  -18.0300  -26.0092   22.9042 H   0  0  0  0  0  0
  -19.7925  -30.7296   24.2266 H   0  0  0  0  0  0
  -17.5011  -31.6283   24.5192 H   0  0  0  0  0  0
  -15.5345  -30.3018   23.7658 H   0  0  0  0  0  0
  -15.8670  -28.0872   22.7031 H   0  0  0  0  0  0
  -24.5817  -30.7149   25.7761 H   0  0  0  0  0  0
  -24.8891  -32.2957   26.4828 H   0  0  0  0  0  0
  -25.7978  -30.8951   27.0205 H   0  0  0  0  0  0
  -26.2796  -29.6821   24.1090 H   0  0  0  0  0  0
  -27.3873  -29.7205   25.4611 H   0  0  0  0  0  0
  -27.8699  -30.4268   23.9345 H   0  0  0  0  0  0
  -27.2599  -33.3611   26.2054 H   0  0  0  0  0  0
  -28.3813  -32.6911   25.0299 H   0  0  0  0  0  0
  -28.0672  -31.8437   26.5378 H   0  0  0  0  0  0
  -28.2553  -38.0158   24.7588 H   0  0  0  0  0  0
  -28.1143  -36.2696   24.6124 H   0  0  0  0  0  0
  -27.2341  -37.1291   25.8848 H   0  0  0  0  0  0
  -20.9314  -29.8718   21.6896 H   0  0  0  0  0  0
  -26.0153  -38.2860   24.1479 H   0  0  0  0  0  0
  -27.7539  -16.9588   22.1157 H   0  0  0  0  0  0
  -30.9062  -24.3998   22.1669 H   0  0  0  0  0  0
  -29.2439  -24.7912   22.6003 H   0  0  0  0  0  0
  -30.2398  -25.9658   21.7517 H   0  0  0  0  0  0
  -31.5385  -24.0188   19.7121 H   0  0  0  0  0  0
  -30.8789  -25.6098   19.3432 H   0  0  0  0  0  0
  -30.3296  -24.2048   18.4464 H   0  0  0  0  0  0
  -28.2547  -22.6239   21.1146 H   0  0  0  0  0  0
  -29.9252  -22.4152   21.4908 H   0  0  0  0  0  0
  -27.4184  -24.8563   20.7293 H   0  0  0  0  0  0
  -27.9358  -24.8454   19.0573 H   0  0  0  0  0  0
  -29.1238  -15.0271   21.6901 H   0  0  0  0  0  0
  -28.5866  -21.6534   19.0317 H   0  0  0  0  0  0
  1 25  1  0  0  0
  1 30  2  0  0  0
  1 80  1  0  0  0
  2  3  1  0  0  0
  2 25  1  0  0  0
  2 86  1  0  0  0
  2 87  1  0  0  0
  3  4  1  0  0  0
  3 88  1  0  0  0
  3 89  1  0  0  0
  4  5  1  0  0  0
  4 90  1  0  0  0
  4 91  1  0  0  0
  5  6  1  0  0  0
  5 26  1  0  0  0
  5 92  1  0  0  0
  6 25  1  0  0  0
  6 93  1  0  0  0
  6 94  1  0  0  0
  7  8  2  0  0  0
  7 26  1  0  0  0
  7 29  1  0  0  0
  8  9  1  0  0  0
  8 22  1  0  0  0
  9 10  1  0  0  0
  9 27  2  0  0  0
 10 11  2  0  0  0
 10 15  1  0  0  0
 11 12  1  0  0  0
 11 95  1  0  0  0
 12 13  2  0  0  0
 12 96  1  0  0  0
 13 14  1  0  0  0
 13 31  1  0  0  0
 14 15  2  0  0  0
 14 97  1  0  0  0
 15 98  1  0  0  0
 16 17  2  0  0  0
 16 21  1  0  0  0
 16 31  1  0  0  0
 17 18  1  0  0  0
 17 99  1  0  0  0
 18 19  2  0  0  0
 18100  1  0  0  0
 19 20  1  0  0  0
 19 24  1  0  0  0
 20 21  2  0  0  0
 20101  1  0  0  0
 21 23  1  0  0  0
 22 28  1  0  0  0
 22 32  2  0  0  0
 26 27  1  0  0  0
 28102  1  0  0  0
 28103  1  0  0  0
 29104  1  0  0  0
 29105  1  0  0  0
 33 34  1  0  0  0
 33 66  1  0  0  0
 33 70  2  0  0  0
 34 36  1  0  0  0
 34 59  1  0  0  0
 34106  1  0  0  0
 35 44  2  0  0  0
 35 45  1  0  0  0
 35 68  1  0  0  0
 36 56  1  0  0  0
 36107  1  0  0  0
 37 39  1  0  0  0
 37 47  1  0  0  0
 37 66  1  0  0  0
 37108  1  0  0  0
 38 43  2  0  0  0
 38 46  1  0  0  0
 38 47  1  0  0  0
 39 64  1  0  0  0
 39 67  2  0  0  0
 40 52  1  0  0  0
 40 53  2  0  0  0
 40 58  1  0  0  0
 41109  1  0  0  0
 41110  1  0  0  0
 41111  1  0  0  0
 41 48  1  0  0  0
 42 43  1  0  0  0
 42 66  1  0  0  0
 42112  1  0  0  0
 42113  1  0  0  0
 43 44  1  0  0  0
 44114  1  0  0  0
 45 46  2  0  0  0
 45115  1  0  0  0
 46116  1  0  0  0
 47117  1  0  0  0
 47118  1  0  0  0
 48 56  1  0  0  0
 48 65  1  0  0  0
 48119  1  0  0  0
 49 50  1  0  0  0
 49 53  1  0  0  0
 49 64  1  0  0  0
 49120  1  0  0  0
 50 51  1  0  0  0
 50121  1  0  0  0
 50122  1  0  0  0
 51 52  1  0  0  0
 51123  1  0  0  0
 51124  1  0  0  0
 52125  1  0  0  0
 52126  1  0  0  0
 53 54  1  0  0  0
 54 55  2  0  0  0
 54127  1  0  0  0
 55 57  1  0  0  0
 55128  1  0  0  0
 56 69  2  0  0  0
 57 58  2  0  0  0
 57129  1  0  0  0
 58130  1  0  0  0
 59 60  1  0  0  0
 59 61  1  0  0  0
 59 62  1  0  0  0
 60131  1  0  0  0
 60132  1  0  0  0
 60133  1  0  0  0
 61134  1  0  0  0
 61135  1  0  0  0
 61136  1  0  0  0
 62137  1  0  0  0
 62138  1  0  0  0
 62139  1  0  0  0
 63 65  1  0  0  0
 63140  1  0  0  0
 63141  1  0  0  0
 63142  1  0  0  0
 64143  1  0  0  0
 65144  1  0  0  0
 68 77  1  0  0  0
 71 72  2  0  0  0
 71 84  1  0  0  0
 71145  1  0  0  0
 72 79  1  0  0  0
 72 80  1  0  0  0
 73 79  2  0  0  0
 73 84  1  0  0  0
 73 85  1  0  0  0
 74146  1  0  0  0
 74147  1  0  0  0
 74148  1  0  0  0
 74 78  1  0  0  0
 75 78  1  0  0  0
 75149  1  0  0  0
 75150  1  0  0  0
 75151  1  0  0  0
 76 78  1  0  0  0
 76 81  1  0  0  0
 76152  1  0  0  0
 76153  1  0  0  0
 77 78  1  0  0  0
 77154  1  0  0  0
 77155  1  0  0  0
 80156  1  0  0  0
 81157  1  0  0  0
 81 85  1  0  0  0
 82 85  2  0  0  0
 83 85  2  0  0  0
M  ISO  4   1 100  68 101  77 101  80 100
M  END
> <chiral flag>
0

> <version>
0

> <s_m_source_file>
/data/baiqing/PycharmProjects/Reinvent-master-3.2/result/LINK_invent/BTK/process_docking_weight1_custom_product_contain_oxygen_bond_distance_aromatic_linkinvent_7_9_3/rearranged_h_0189.sdf

> <i_m_source_file_index>
45

> <r_mmod_Potential_Energy-OPLS-2005>
-64.4568328857422

> <r_mmod_Stretch_Energy-OPLS-2005>
53.603099822998

> <r_mmod_Bend_Energy-OPLS-2005>
137.136917114258

> <r_mmod_Torsional_Energy-OPLS-2005>
225.323959350586

> <r_mmod_Improper_Torsional_Energy-OPLS-2005>
6.62048768997192

> <r_mmod_Van_der_Waal_Energy-OPLS-2005>
119.700889587402

> <r_mmod_Electrostatic_Energy-OPLS-2005>
-357.24853515625

> <r_mmod_Solvation_Energy-OPLS-2005>
-273.871856689453

> <b_mmod_Minimization_Converged-OPLS-2005>
0

> <r_mmod_RMS_Derivative-OPLS-2005>
2.04415726661682

$$$$
45
                    3D
 Structure written by MMmdl.
152160  0  0  1  0            999 V2000
  -30.6406  -14.5610   20.6061 C   0  0  0  0  0  0
  -30.4487  -12.3741   19.4273 C   0  0  0  0  0  0
  -29.5026  -12.5290   18.2151 C   0  0  0  0  0  0
  -28.0253  -12.3701   18.6283 C   0  0  0  0  0  0
  -27.6656  -13.2060   19.8843 C   0  0  2  0  0  0
  -28.7105  -12.9721   20.9988 C   0  0  0  0  0  0
  -25.2569  -13.8143   20.5634 C   0  0  0  0  0  0
  -24.1836  -13.0424   20.9171 C   0  0  0  0  0  0
  -24.6403  -11.6896   20.8752 C   0  0  0  0  0  0
  -23.9067  -10.4284   21.0416 C   0  0  0  0  0  0
  -24.3613   -9.4198   21.9192 C   0  0  0  0  0  0
  -23.6288   -8.2235   22.0757 C   0  0  0  0  0  0
  -22.4272   -8.0279   21.3544 C   0  0  0  0  0  0
  -21.9908   -9.0255   20.4647 C   0  0  0  0  0  0
  -22.7238  -10.2132   20.3064 C   0  0  0  0  0  0
  -21.6850   -6.0734   22.5279 C   0  0  0  0  0  0
  -21.4009   -6.5636   23.8212 C   0  0  0  0  0  0
  -21.3661   -5.6790   24.9174 C   0  0  0  0  0  0
  -21.6045   -4.3052   24.7223 C   0  0  0  0  0  0
  -21.8820   -3.8144   23.4345 C   0  0  0  0  0  0
  -21.9190   -4.6963   22.3400 C   0  0  0  0  0  0
  -22.7859  -13.5229   21.1832 C   0  0  0  0  0  0
  -22.1660   -4.2147   21.0980 F   0  0  0  0  0  0
  -21.5631   -3.4539   25.7736 F   0  0  0  0  0  0
  -30.0373  -13.3387   20.4652 N   0  0  0  0  0  0
  -26.3045  -12.9323   20.3418 N   0  0  0  0  0  0
  -25.9341  -11.6481   20.5811 N   0  0  0  0  0  0
  -22.0502  -12.8232   22.0400 N   0  0  0  0  0  0
  -25.4202  -15.1847   20.3875 N   0  0  0  0  0  0
  -31.7114  -14.8285   20.0466 O   0  0  0  0  0  0
  -21.6636   -6.8877   21.4241 O   0  0  0  0  0  0
  -22.3542  -14.5538   20.6686 O   0  0  0  0  0  0
  -24.6197  -31.8629   23.2031 C   0  0  0  0  0  0
  -25.9063  -32.4796   23.8362 C   0  0  1  0  0  0
  -27.2379  -27.3759   20.1187 C   0  0  0  0  0  0
  -25.5898  -33.8596   24.2290 N   0  0  0  0  0  0
  -23.4119  -30.4835   21.5448 C   0  0  2  0  0  0
  -24.8615  -28.9355   20.1189 C   0  0  0  0  0  0
  -22.7443  -29.4636   22.4960 C   0  0  0  0  0  0
  -18.0286  -28.1376   22.8488 C   0  0  0  0  0  0
  -24.1488  -36.7300   23.2641 C   0  0  0  0  0  0
  -25.9456  -30.8118   21.3640 C   0  0  0  0  0  0
  -26.0254  -29.4400   20.7140 C   0  0  0  0  0  0
  -27.2197  -28.6719   20.7008 C   0  0  0  0  0  0
  -26.0558  -26.8961   19.5174 C   0  0  0  0  0  0
  -24.8748  -27.6663   19.5137 C   0  0  0  0  0  0
  -23.6257  -29.8092   20.1627 C   0  0  0  0  0  0
  -25.4111  -36.3095   24.0334 C   0  0  1  0  0  0
  -20.5878  -28.3673   23.1295 C   0  0  2  0  0  0
  -20.6772  -26.9403   22.5410 C   0  0  0  0  0  0
  -19.5751  -26.6380   21.5208 C   0  0  0  0  0  0
  -18.1929  -26.7918   22.1619 C   0  0  0  0  0  0
  -19.1538  -28.8840   23.2886 C   0  0  0  0  0  0
  -18.9463  -30.1445   23.8901 C   0  0  0  0  0  0
  -17.6467  -30.6583   24.0564 C   0  0  0  0  0  0
  -25.9043  -34.9463   23.5114 C   0  0  0  0  0  0
  -16.5356  -29.9082   23.6328 C   0  0  0  0  0  0
  -16.7272  -28.6500   23.0345 C   0  0  0  0  0  0
  -26.4472  -31.6596   25.0713 C   0  0  0  0  0  0
  -25.3721  -31.3718   26.1451 C   0  0  0  0  0  0
  -27.0319  -30.3035   24.6118 C   0  0  0  0  0  0
  -27.6045  -32.4328   25.7471 C   0  0  0  0  0  0
  -27.5580  -37.1801   24.8467 C   0  0  0  0  0  0
  -21.4165  -29.3034   22.3697 N   0  0  0  0  0  0
  -26.4294  -37.3781   23.9407 N   0  0  0  0  0  0
  -24.6773  -31.0681   22.0953 N   0  0  0  0  0  0
  -23.4190  -28.8182   23.3026 O   0  0  0  0  0  0
  -28.3856  -26.5950   20.0929 O   0  0  0  0  0  0
  -26.5606  -34.8922   22.4679 O   0  0  0  0  0  0
  -23.5374  -32.1402   23.7387 O   0  0  0  0  0  0
  -27.5191  -18.0338   21.9138 C   0  0  0  0  0  0
  -28.2015  -16.8097   21.9446 C   0  0  0  0  0  0
  -29.4484  -16.7319   21.3009 C   0  0  0  0  0  0
  -29.2331  -19.0044   20.7751 C   0  0  0  0  0  0
  -29.0898  -22.6993   20.6869 C   0  0  0  0  0  0
  -28.7572  -24.0294   19.9335 C   0  0  0  0  0  0
  -28.9611  -21.3962   19.8503 C   0  0  0  0  0  0
  -28.3416  -25.3037   20.7762 C   0  0  0  0  0  0
  -28.0342  -19.1229   21.3168 N   0  0  0  0  0  0
  -29.9663  -17.8702   20.7218 N   0  0  0  0  0  0
  -30.0091  -15.4094   21.4520 N   0  0  0  0  0  0
  -29.7469  -20.1787   20.2300 N   0  0  0  0  0  0
  -27.6772  -15.7329   22.5812 F   0  0  0  0  0  0
  -29.5538  -22.6520   22.2974 S   0  0  0  0  0  0
  -31.4843  -12.5228   19.1163 H   0  0  0  0  0  0
  -30.4037  -11.3579   19.8223 H   0  0  0  0  0  0
  -29.7541  -11.7964   17.4467 H   0  0  0  0  0  0
  -29.6497  -13.5098   17.7597 H   0  0  0  0  0  0
  -27.8480  -11.3123   18.8276 H   0  0  0  0  0  0
  -27.3704  -12.6353   17.7975 H   0  0  0  0  0  0
  -27.7101  -14.2567   19.5965 H   0  0  0  0  0  0
  -28.7140  -11.9212   21.2923 H   0  0  0  0  0  0
  -28.4425  -13.5096   21.9071 H   0  0  0  0  0  0
  -25.2759   -9.5672   22.4766 H   0  0  0  0  0  0
  -23.9993   -7.4628   22.7479 H   0  0  0  0  0  0
  -21.0838   -8.8776   19.8957 H   0  0  0  0  0  0
  -22.3700  -10.9673   19.6173 H   0  0  0  0  0  0
  -21.2001   -7.6144   23.9714 H   0  0  0  0  0  0
  -21.1484   -6.0519   25.9076 H   0  0  0  0  0  0
  -22.0600   -2.7608   23.2845 H   0  0  0  0  0  0
  -22.4111  -11.9887   22.4784 H   0  0  0  0  0  0
  -21.1136  -13.1280   22.2634 H   0  0  0  0  0  0
  -24.6462  -15.8327   20.4780 H   0  0  0  0  0  0
  -26.2716  -15.6186   20.0609 H   0  0  0  0  0  0
  -26.7131  -32.5493   23.1120 H   0  0  0  0  0  0
  -25.0060  -33.9758   25.0444 H   0  0  0  0  0  0
  -22.7034  -31.3010   21.3984 H   0  0  0  0  0  0
  -23.3754  -35.9632   23.3312 H   0  0  0  0  0  0
  -24.3578  -36.8909   22.2054 H   0  0  0  0  0  0
  -23.7240  -37.6509   23.6652 H   0  0  0  0  0  0
  -26.0636  -31.5738   20.5927 H   0  0  0  0  0  0
  -26.8308  -30.8686   21.9861 H   0  0  0  0  0  0
  -28.1216  -29.0603   21.1539 H   0  0  0  0  0  0
  -26.0503  -25.9222   19.0493 H   0  0  0  0  0  0
  -23.9811  -27.2730   19.0486 H   0  0  0  0  0  0
  -23.7396  -30.5807   19.4005 H   0  0  0  0  0  0
  -22.7486  -29.2317   19.8652 H   0  0  0  0  0  0
  -25.1289  -36.1959   25.0827 H   0  0  0  0  0  0
  -20.9973  -28.3246   24.1413 H   0  0  0  0  0  0
  -20.5667  -26.2286   23.3604 H   0  0  0  0  0  0
  -21.6640  -26.7426   22.1207 H   0  0  0  0  0  0
  -19.6911  -25.6291   21.1234 H   0  0  0  0  0  0
  -19.6689  -27.3192   20.6737 H   0  0  0  0  0  0
  -17.4194  -26.6673   21.4022 H   0  0  0  0  0  0
  -18.0334  -26.0054   22.9008 H   0  0  0  0  0  0
  -19.7942  -30.7263   24.2265 H   0  0  0  0  0  0
  -17.5021  -31.6261   24.5166 H   0  0  0  0  0  0
  -15.5356  -30.2986   23.7646 H   0  0  0  0  0  0
  -15.8673  -28.0823   22.7043 H   0  0  0  0  0  0
  -24.5891  -30.7074   25.7773 H   0  0  0  0  0  0
  -24.8919  -32.2887   26.4890 H   0  0  0  0  0  0
  -25.8057  -30.8885   27.0216 H   0  0  0  0  0  0
  -26.2878  -29.6787   24.1165 H   0  0  0  0  0  0
  -27.4082  -29.7282   25.4588 H   0  0  0  0  0  0
  -27.8709  -30.4355   23.9281 H   0  0  0  0  0  0
  -27.2666  -33.3627   26.2058 H   0  0  0  0  0  0
  -28.3845  -32.6889   25.0289 H   0  0  0  0  0  0
  -28.0724  -31.8448   26.5382 H   0  0  0  0  0  0
  -28.2596  -38.0095   24.7513 H   0  0  0  0  0  0
  -28.1077  -36.2630   24.6296 H   0  0  0  0  0  0
  -27.2303  -37.1455   25.8870 H   0  0  0  0  0  0
  -20.9336  -29.8762   21.6916 H   0  0  0  0  0  0
  -26.0188  -38.2861   24.1411 H   0  0  0  0  0  0
  -26.5524  -18.1432   22.3834 H   0  0  0  0  0  0
  -27.9743  -23.8210   19.2042 H   0  0  0  0  0  0
  -29.6437  -24.2810   19.3519 H   0  0  0  0  0  0
  -29.2364  -21.6431   18.8250 H   0  0  0  0  0  0
  -27.9003  -21.1480   19.8042 H   0  0  0  0  0  0
  -29.0215  -25.4262   21.6184 H   0  0  0  0  0  0
  -27.3602  -25.1330   21.2225 H   0  0  0  0  0  0
  -29.3853  -14.8782   22.0409 H   0  0  0  0  0  0
  -30.6979  -20.1284   19.8886 H   0  0  0  0  0  0
  1 25  1  0  0  0
  1 30  2  0  0  0
  1 81  1  0  0  0
  2  3  1  0  0  0
  2 25  1  0  0  0
  2 85  1  0  0  0
  2 86  1  0  0  0
  3  4  1  0  0  0
  3 87  1  0  0  0
  3 88  1  0  0  0
  4  5  1  0  0  0
  4 89  1  0  0  0
  4 90  1  0  0  0
  5  6  1  0  0  0
  5 26  1  0  0  0
  5 91  1  0  0  0
  6 25  1  0  0  0
  6 92  1  0  0  0
  6 93  1  0  0  0
  7  8  2  0  0  0
  7 26  1  0  0  0
  7 29  1  0  0  0
  8  9  1  0  0  0
  8 22  1  0  0  0
  9 10  1  0  0  0
  9 27  2  0  0  0
 10 11  2  0  0  0
 10 15  1  0  0  0
 11 12  1  0  0  0
 11 94  1  0  0  0
 12 13  2  0  0  0
 12 95  1  0  0  0
 13 14  1  0  0  0
 13 31  1  0  0  0
 14 15  2  0  0  0
 14 96  1  0  0  0
 15 97  1  0  0  0
 16 17  2  0  0  0
 16 21  1  0  0  0
 16 31  1  0  0  0
 17 18  1  0  0  0
 17 98  1  0  0  0
 18 19  2  0  0  0
 18 99  1  0  0  0
 19 20  1  0  0  0
 19 24  1  0  0  0
 20 21  2  0  0  0
 20100  1  0  0  0
 21 23  1  0  0  0
 22 28  1  0  0  0
 22 32  2  0  0  0
 26 27  1  0  0  0
 28101  1  0  0  0
 28102  1  0  0  0
 29103  1  0  0  0
 29104  1  0  0  0
 33 34  1  0  0  0
 33 66  1  0  0  0
 33 70  2  0  0  0
 34 36  1  0  0  0
 34 59  1  0  0  0
 34105  1  0  0  0
 35 44  2  0  0  0
 35 45  1  0  0  0
 35 68  1  0  0  0
 36 56  1  0  0  0
 36106  1  0  0  0
 37 39  1  0  0  0
 37 47  1  0  0  0
 37 66  1  0  0  0
 37107  1  0  0  0
 38 43  2  0  0  0
 38 46  1  0  0  0
 38 47  1  0  0  0
 39 64  1  0  0  0
 39 67  2  0  0  0
 40 52  1  0  0  0
 40 53  2  0  0  0
 40 58  1  0  0  0
 41108  1  0  0  0
 41109  1  0  0  0
 41110  1  0  0  0
 41 48  1  0  0  0
 42 43  1  0  0  0
 42 66  1  0  0  0
 42111  1  0  0  0
 42112  1  0  0  0
 43 44  1  0  0  0
 44113  1  0  0  0
 45 46  2  0  0  0
 45114  1  0  0  0
 46115  1  0  0  0
 47116  1  0  0  0
 47117  1  0  0  0
 48 56  1  0  0  0
 48 65  1  0  0  0
 48118  1  0  0  0
 49 50  1  0  0  0
 49 53  1  0  0  0
 49 64  1  0  0  0
 49119  1  0  0  0
 50 51  1  0  0  0
 50120  1  0  0  0
 50121  1  0  0  0
 51 52  1  0  0  0
 51122  1  0  0  0
 51123  1  0  0  0
 52124  1  0  0  0
 52125  1  0  0  0
 53 54  1  0  0  0
 54 55  2  0  0  0
 54126  1  0  0  0
 55 57  1  0  0  0
 55127  1  0  0  0
 56 69  2  0  0  0
 57 58  2  0  0  0
 57128  1  0  0  0
 58129  1  0  0  0
 59 60  1  0  0  0
 59 61  1  0  0  0
 59 62  1  0  0  0
 60130  1  0  0  0
 60131  1  0  0  0
 60132  1  0  0  0
 61133  1  0  0  0
 61134  1  0  0  0
 61135  1  0  0  0
 62136  1  0  0  0
 62137  1  0  0  0
 62138  1  0  0  0
 63 65  1  0  0  0
 63139  1  0  0  0
 63140  1  0  0  0
 63141  1  0  0  0
 64142  1  0  0  0
 65143  1  0  0  0
 68 78  1  0  0  0
 71 72  2  0  0  0
 71 79  1  0  0  0
 71144  1  0  0  0
 72 73  1  0  0  0
 72 83  1  0  0  0
 73 80  2  0  0  0
 73 81  1  0  0  0
 74 79  2  0  0  0
 74 80  1  0  0  0
 74 82  1  0  0  0
 75 76  1  0  0  0
 75 77  1  0  0  0
 75 84  2  0  0  0
 76 78  1  0  0  0
 76145  1  0  0  0
 76146  1  0  0  0
 77 82  1  0  0  0
 77147  1  0  0  0
 77148  1  0  0  0
 78149  1  0  0  0
 78150  1  0  0  0
 81151  1  0  0  0
 82152  1  0  0  0
M  ISO  4   1 100  68 101  78 101  81 100
M  END
> <chiral flag>
0

> <version>
0

> <s_m_source_file>
/data/baiqing/PycharmProjects/Reinvent-master-3.2/result/LINK_invent/BTK/process_docking_weight1_custom_product_contain_oxygen_bond_distance_aromatic_linkinvent_7_9_3/rearranged_h_0189.sdf

> <i_m_source_file_index>
46

> <r_mmod_Potential_Energy-OPLS-2005>
-539.873901367188

> <r_mmod_Stretch_Energy-OPLS-2005>
61.8066749572754

> <r_mmod_Bend_Energy-OPLS-2005>
152.716506958008

> <r_mmod_Torsional_Energy-OPLS-2005>
226.534469604492

> <r_mmod_Improper_Torsional_Energy-OPLS-2005>
6.53161144256592

> <r_mmod_Van_der_Waal_Energy-OPLS-2005>
155.402313232422

> <r_mmod_Electrostatic_Energy-OPLS-2005>
-912.840454101562

> <r_mmod_Solvation_Energy-OPLS-2005>
-255.814270019531

> <b_mmod_Minimization_Converged-OPLS-2005>
0

> <r_mmod_RMS_Derivative-OPLS-2005>
0.920977830886841

$$$$
46
                    3D
 Structure written by MMmdl.
165173  0  0  1  0            999 V2000
  -30.6103  -14.7643   20.4381 C   0  0  0  0  0  0
  -30.4182  -12.4547   19.4508 C   0  0  0  0  0  0
  -29.5186  -12.5560   18.2019 C   0  0  0  0  0  0
  -28.0319  -12.3809   18.5961 C   0  0  0  0  0  0
  -27.6325  -13.2487   19.8233 C   0  0  2  0  0  0
  -28.6865  -13.1768   20.9497 C   0  0  0  0  0  0
  -25.2457  -13.8179   20.5627 C   0  0  0  0  0  0
  -24.1771  -13.0387   20.9142 C   0  0  0  0  0  0
  -24.6422  -11.6882   20.8653 C   0  0  0  0  0  0
  -23.9114  -10.4258   21.0288 C   0  0  0  0  0  0
  -24.3631   -9.4197   21.9127 C   0  0  0  0  0  0
  -23.6315   -8.2224   22.0727 C   0  0  0  0  0  0
  -22.4296   -8.0248   21.3495 C   0  0  0  0  0  0
  -21.9921   -9.0203   20.4591 C   0  0  0  0  0  0
  -22.7250  -10.2078   20.2962 C   0  0  0  0  0  0
  -21.6847   -6.0703   22.5301 C   0  0  0  0  0  0
  -21.4010   -6.5607   23.8233 C   0  0  0  0  0  0
  -21.3701   -5.6754   24.9212 C   0  0  0  0  0  0
  -21.6092   -4.3026   24.7220 C   0  0  0  0  0  0
  -21.8809   -3.8096   23.4352 C   0  0  0  0  0  0
  -21.9152   -4.6919   22.3391 C   0  0  0  0  0  0
  -22.7810  -13.5135   21.1844 C   0  0  0  0  0  0
  -22.1629   -4.2110   21.0967 F   0  0  0  0  0  0
  -21.5641   -3.4503   25.7736 F   0  0  0  0  0  0
  -29.9832  -13.5385   20.3631 N   0  0  0  0  0  0
  -26.2887  -12.9431   20.3116 N   0  0  0  0  0  0
  -25.9325  -11.6526   20.5567 N   0  0  0  0  0  0
  -22.0446  -12.8172   22.0434 N   0  0  0  0  0  0
  -25.4007  -15.1949   20.4160 N   0  0  0  0  0  0
  -31.8240  -14.8234   20.1976 O   0  0  0  0  0  0
  -21.6623   -6.8867   21.4262 O   0  0  0  0  0  0
  -22.3491  -14.5445   20.6693 O   0  0  0  0  0  0
  -24.6343  -31.8473   23.1850 C   0  0  0  0  0  0
  -25.9115  -32.4744   23.8248 C   0  0  1  0  0  0
  -27.2701  -27.2464   20.1148 C   0  0  0  0  0  0
  -25.5887  -33.8550   24.2167 N   0  0  0  0  0  0
  -23.4403  -30.4437   21.5437 C   0  0  2  0  0  0
  -24.9015  -28.8910   20.1067 C   0  0  0  0  0  0
  -22.7564  -29.4452   22.5086 C   0  0  0  0  0  0
  -18.0232  -28.1443   22.8452 C   0  0  0  0  0  0
  -24.1510  -36.7305   23.2652 C   0  0  0  0  0  0
  -25.9805  -30.7551   21.3665 C   0  0  0  0  0  0
  -26.0676  -29.3711   20.7164 C   0  0  0  0  0  0
  -27.2495  -28.5603   20.7008 C   0  0  0  0  0  0
  -26.0729  -26.8262   19.4948 C   0  0  0  0  0  0
  -24.9148  -27.6348   19.4755 C   0  0  0  0  0  0
  -23.6547  -29.7541   20.1680 C   0  0  0  0  0  0
  -25.4147  -36.3080   24.0313 C   0  0  1  0  0  0
  -20.5837  -28.3673   23.1364 C   0  0  2  0  0  0
  -20.6795  -26.9422   22.5471 C   0  0  0  0  0  0
  -19.5789  -26.6383   21.5279 C   0  0  0  0  0  0
  -18.1918  -26.7975   22.1605 C   0  0  0  0  0  0
  -19.1505  -28.8897   23.2848 C   0  0  0  0  0  0
  -18.9416  -30.1519   23.8803 C   0  0  0  0  0  0
  -17.6432  -30.6610   24.0556 C   0  0  0  0  0  0
  -25.9063  -34.9450   23.5049 C   0  0  0  0  0  0
  -16.5296  -29.9091   23.6390 C   0  0  0  0  0  0
  -16.7236  -28.6563   23.0288 C   0  0  0  0  0  0
  -26.4429  -31.6580   25.0670 C   0  0  0  0  0  0
  -25.3528  -31.3780   26.1291 C   0  0  0  0  0  0
  -27.0300  -30.2989   24.6200 C   0  0  0  0  0  0
  -27.5959  -32.4314   25.7480 C   0  0  0  0  0  0
  -27.5594  -37.1817   24.8425 C   0  0  0  0  0  0
  -21.4262  -29.2933   22.3756 N   0  0  0  0  0  0
  -26.4322  -37.3784   23.9360 N   0  0  0  0  0  0
  -24.7057  -31.0338   22.0892 N   0  0  0  0  0  0
  -23.4233  -28.8067   23.3249 O   0  0  0  0  0  0
  -28.4002  -26.3946   20.1943 O   0  0  0  0  0  0
  -26.5657  -34.8934   22.4641 O   0  0  0  0  0  0
  -23.5476  -32.1345   23.7041 O   0  0  0  0  0  0
  -30.2757  -19.7949   21.9403 C   0  0  0  0  0  0
  -29.4364  -19.6224   20.8201 C   0  0  0  0  0  0
  -31.0581  -18.6954   22.3344 C   0  0  0  0  0  0
  -30.0535  -17.2814   20.8317 C   0  0  0  0  0  0
  -28.6678  -23.6986   20.3814 C   0  0  0  0  0  0
  -30.2928  -21.0663   22.7840 C   0  0  0  0  0  0
  -25.8555  -20.6980   20.4606 C   0  0  0  0  0  0
  -31.5543  -22.2665   19.6516 C   0  0  0  0  0  0
  -28.5500  -25.0495   19.5099 C   0  0  0  0  0  0
  -27.1909  -20.8631   21.2139 C   0  0  0  0  0  0
  -30.2398  -22.1838   18.8620 C   0  0  0  0  0  0
  -28.4598  -20.7979   20.3201 C   0  0  1  0  0  0
  -28.9129  -22.2534   19.6791 C   0  0  1  0  0  0
  -29.3063  -18.3224   20.3299 N   0  0  0  0  0  0
  -30.9448  -17.4742   21.7870 N   0  0  0  0  0  0
  -29.8165  -15.9135   20.4639 N   0  0  0  0  0  0
  -28.6021  -23.7793   21.6111 O   0  0  0  0  0  0
  -31.9376  -18.8362   23.3505 F   0  0  0  0  0  0
  -31.4750  -12.5291   19.1778 H   0  0  0  0  0  0
  -30.2912  -11.4742   19.9133 H   0  0  0  0  0  0
  -29.8088  -11.8181   17.4520 H   0  0  0  0  0  0
  -29.6694  -13.5270   17.7295 H   0  0  0  0  0  0
  -27.8757  -11.3261   18.8215 H   0  0  0  0  0  0
  -27.3854  -12.6040   17.7429 H   0  0  0  0  0  0
  -27.6154  -14.2787   19.4673 H   0  0  0  0  0  0
  -28.7205  -12.1742   21.3713 H   0  0  0  0  0  0
  -28.4326  -13.8416   21.7754 H   0  0  0  0  0  0
  -25.2780   -9.5661   22.4709 H   0  0  0  0  0  0
  -23.9984   -7.4627   22.7465 H   0  0  0  0  0  0
  -21.0837   -8.8717   19.8956 H   0  0  0  0  0  0
  -22.3720  -10.9567   19.6032 H   0  0  0  0  0  0
  -21.2056   -7.6117   23.9763 H   0  0  0  0  0  0
  -21.1566   -6.0465   25.9138 H   0  0  0  0  0  0
  -22.0564   -2.7544   23.2834 H   0  0  0  0  0  0
  -22.3950  -11.9848   22.4913 H   0  0  0  0  0  0
  -21.1078  -13.1274   22.2548 H   0  0  0  0  0  0
  -24.6091  -15.8204   20.5331 H   0  0  0  0  0  0
  -26.2384  -15.6764   20.1130 H   0  0  0  0  0  0
  -26.7187  -32.5399   23.1009 H   0  0  0  0  0  0
  -25.0009  -33.9700   25.0288 H   0  0  0  0  0  0
  -22.7360  -31.2607   21.3857 H   0  0  0  0  0  0
  -23.3795  -35.9611   23.3289 H   0  0  0  0  0  0
  -24.3578  -36.8970   22.2063 H   0  0  0  0  0  0
  -23.7233  -37.6487   23.6718 H   0  0  0  0  0  0
  -26.0928  -31.5048   20.5832 H   0  0  0  0  0  0
  -26.8711  -30.8299   21.9796 H   0  0  0  0  0  0
  -28.1551  -28.9266   21.1651 H   0  0  0  0  0  0
  -26.0068  -25.8449   19.0518 H   0  0  0  0  0  0
  -24.0306  -27.2702   18.9683 H   0  0  0  0  0  0
  -23.7239  -30.5110   19.3870 H   0  0  0  0  0  0
  -22.7923  -29.1389   19.9040 H   0  0  0  0  0  0
  -25.1350  -36.1963   25.0822 H   0  0  0  0  0  0
  -20.9794  -28.3242   24.1545 H   0  0  0  0  0  0
  -20.5868  -26.2241   23.3617 H   0  0  0  0  0  0
  -21.6647  -26.7609   22.1156 H   0  0  0  0  0  0
  -19.6975  -25.6286   21.1312 H   0  0  0  0  0  0
  -19.6790  -27.3200   20.6816 H   0  0  0  0  0  0
  -17.4249  -26.6708   21.3928 H   0  0  0  0  0  0
  -18.0241  -26.0141   22.9014 H   0  0  0  0  0  0
  -19.7881  -30.7371   24.2115 H   0  0  0  0  0  0
  -17.4950  -31.6264   24.5188 H   0  0  0  0  0  0
  -15.5294  -30.2927   23.7835 H   0  0  0  0  0  0
  -15.8613  -28.0907   22.6972 H   0  0  0  0  0  0
  -24.5741  -30.7137   25.7531 H   0  0  0  0  0  0
  -24.8653  -32.2965   26.4569 H   0  0  0  0  0  0
  -25.7676  -30.9001   27.0162 H   0  0  0  0  0  0
  -26.2901  -29.6681   24.1260 H   0  0  0  0  0  0
  -27.3993  -29.7328   25.4761 H   0  0  0  0  0  0
  -27.8755  -30.4257   23.9431 H   0  0  0  0  0  0
  -27.2565  -33.3626   26.2022 H   0  0  0  0  0  0
  -28.3795  -32.6826   25.0323 H   0  0  0  0  0  0
  -28.0578  -31.8435   26.5415 H   0  0  0  0  0  0
  -28.2586  -38.0151   24.7546 H   0  0  0  0  0  0
  -28.1131  -36.2671   24.6203 H   0  0  0  0  0  0
  -27.2288  -37.1389   25.8825 H   0  0  0  0  0  0
  -20.9586  -29.8429   21.6679 H   0  0  0  0  0  0
  -26.0210  -38.2883   24.1332 H   0  0  0  0  0  0
  -30.9649  -20.9762   23.6403 H   0  0  0  0  0  0
  -29.2996  -21.2622   23.1940 H   0  0  0  0  0  0
  -30.5859  -21.9487   22.2185 H   0  0  0  0  0  0
  -25.7677  -19.7326   19.9582 H   0  0  0  0  0  0
  -25.7135  -21.4705   19.7027 H   0  0  0  0  0  0
  -25.0295  -20.7580   21.1687 H   0  0  0  0  0  0
  -32.4106  -22.2983   18.9753 H   0  0  0  0  0  0
  -31.6945  -21.3916   20.2802 H   0  0  0  0  0  0
  -31.5988  -23.1572   20.2809 H   0  0  0  0  0  0
  -27.8643  -24.9167   18.6756 H   0  0  0  0  0  0
  -29.5311  -25.1074   19.0376 H   0  0  0  0  0  0
  -27.2570  -20.0857   21.9748 H   0  0  0  0  0  0
  -27.1563  -21.7847   21.7935 H   0  0  0  0  0  0
  -30.2575  -21.2630   18.2792 H   0  0  0  0  0  0
  -30.2512  -22.9788   18.1121 H   0  0  0  0  0  0
  -28.1114  -20.2970   19.4136 H   0  0  0  0  0  0
  -28.1608  -22.3605   18.8978 H   0  0  0  0  0  0
  -28.8483  -15.7399   20.2506 H   0  0  0  0  0  0
  1 25  1  0  0  0
  1 30  2  0  0  0
  1 86  1  0  0  0
  2  3  1  0  0  0
  2 25  1  0  0  0
  2 89  1  0  0  0
  2 90  1  0  0  0
  3  4  1  0  0  0
  3 91  1  0  0  0
  3 92  1  0  0  0
  4  5  1  0  0  0
  4 93  1  0  0  0
  4 94  1  0  0  0
  5  6  1  0  0  0
  5 26  1  0  0  0
  5 95  1  0  0  0
  6 25  1  0  0  0
  6 96  1  0  0  0
  6 97  1  0  0  0
  7  8  2  0  0  0
  7 26  1  0  0  0
  7 29  1  0  0  0
  8  9  1  0  0  0
  8 22  1  0  0  0
  9 10  1  0  0  0
  9 27  2  0  0  0
 10 11  2  0  0  0
 10 15  1  0  0  0
 11 12  1  0  0  0
 11 98  1  0  0  0
 12 13  2  0  0  0
 12 99  1  0  0  0
 13 14  1  0  0  0
 13 31  1  0  0  0
 14 15  2  0  0  0
 14100  1  0  0  0
 15101  1  0  0  0
 16 17  2  0  0  0
 16 21  1  0  0  0
 16 31  1  0  0  0
 17 18  1  0  0  0
 17102  1  0  0  0
 18 19  2  0  0  0
 18103  1  0  0  0
 19 20  1  0  0  0
 19 24  1  0  0  0
 20 21  2  0  0  0
 20104  1  0  0  0
 21 23  1  0  0  0
 22 28  1  0  0  0
 22 32  2  0  0  0
 26 27  1  0  0  0
 28105  1  0  0  0
 28106  1  0  0  0
 29107  1  0  0  0
 29108  1  0  0  0
 33 34  1  0  0  0
 33 66  1  0  0  0
 33 70  2  0  0  0
 34 36  1  0  0  0
 34 59  1  0  0  0
 34109  1  0  0  0
 35 44  2  0  0  0
 35 45  1  0  0  0
 35 68  1  0  0  0
 36 56  1  0  0  0
 36110  1  0  0  0
 37 39  1  0  0  0
 37 47  1  0  0  0
 37 66  1  0  0  0
 37111  1  0  0  0
 38 43  2  0  0  0
 38 46  1  0  0  0
 38 47  1  0  0  0
 39 64  1  0  0  0
 39 67  2  0  0  0
 40 52  1  0  0  0
 40 53  2  0  0  0
 40 58  1  0  0  0
 41112  1  0  0  0
 41113  1  0  0  0
 41114  1  0  0  0
 41 48  1  0  0  0
 42 43  1  0  0  0
 42 66  1  0  0  0
 42115  1  0  0  0
 42116  1  0  0  0
 43 44  1  0  0  0
 44117  1  0  0  0
 45 46  2  0  0  0
 45118  1  0  0  0
 46119  1  0  0  0
 47120  1  0  0  0
 47121  1  0  0  0
 48 56  1  0  0  0
 48 65  1  0  0  0
 48122  1  0  0  0
 49 50  1  0  0  0
 49 53  1  0  0  0
 49 64  1  0  0  0
 49123  1  0  0  0
 50 51  1  0  0  0
 50124  1  0  0  0
 50125  1  0  0  0
 51 52  1  0  0  0
 51126  1  0  0  0
 51127  1  0  0  0
 52128  1  0  0  0
 52129  1  0  0  0
 53 54  1  0  0  0
 54 55  2  0  0  0
 54130  1  0  0  0
 55 57  1  0  0  0
 55131  1  0  0  0
 56 69  2  0  0  0
 57 58  2  0  0  0
 57132  1  0  0  0
 58133  1  0  0  0
 59 60  1  0  0  0
 59 61  1  0  0  0
 59 62  1  0  0  0
 60134  1  0  0  0
 60135  1  0  0  0
 60136  1  0  0  0
 61137  1  0  0  0
 61138  1  0  0  0
 61139  1  0  0  0
 62140  1  0  0  0
 62141  1  0  0  0
 62142  1  0  0  0
 63 65  1  0  0  0
 63143  1  0  0  0
 63144  1  0  0  0
 63145  1  0  0  0
 64146  1  0  0  0
 65147  1  0  0  0
 68 79  1  0  0  0
 71 72  2  0  0  0
 71 73  1  0  0  0
 71 76  1  0  0  0
 72 82  1  0  0  0
 72 84  1  0  0  0
 73 85  2  0  0  0
 73 88  1  0  0  0
 74 84  2  0  0  0
 74 85  1  0  0  0
 74 86  1  0  0  0
 75 79  1  0  0  0
 75 83  1  0  0  0
 75 87  2  0  0  0
 76148  1  0  0  0
 76149  1  0  0  0
 76150  1  0  0  0
 77 80  1  0  0  0
 77151  1  0  0  0
 77152  1  0  0  0
 77153  1  0  0  0
 78 81  1  0  0  0
 78154  1  0  0  0
 78155  1  0  0  0
 78156  1  0  0  0
 79157  1  0  0  0
 79158  1  0  0  0
 80159  1  0  0  0
 80160  1  0  0  0
 80 82  1  0  0  0
 81161  1  0  0  0
 81162  1  0  0  0
 81 83  1  0  0  0
 82 83  1  0  0  0
 82163  1  0  0  0
 83164  1  0  0  0
 86165  1  0  0  0
M  ISO  4   1 100  68 101  79 101  86 100
M  END
> <chiral flag>
0

> <version>
0

> <s_m_source_file>
/data/baiqing/PycharmProjects/Reinvent-master-3.2/result/LINK_invent/BTK/process_docking_weight1_custom_product_contain_oxygen_bond_distance_aromatic_linkinvent_7_9_3/rearranged_h_0189.sdf

> <i_m_source_file_index>
47

> <r_mmod_Potential_Energy-OPLS-2005>
-146.972366333008

> <r_mmod_Stretch_Energy-OPLS-2005>
148.190383911133

> <r_mmod_Bend_Energy-OPLS-2005>
241.796401977539

> <r_mmod_Torsional_Energy-OPLS-2005>
226.413558959961

> <r_mmod_Improper_Torsional_Energy-OPLS-2005>
10.216890335083

> <r_mmod_Van_der_Waal_Energy-OPLS-2005>
132.055435180664

> <r_mmod_Electrostatic_Energy-OPLS-2005>
-764.361511230469

> <r_mmod_Solvation_Energy-OPLS-2005>
-235.869827270508

> <b_mmod_Minimization_Converged-OPLS-2005>
0

> <r_mmod_RMS_Derivative-OPLS-2005>
7.98007678985596

$$$$
47
                    3D
 Structure written by MMmdl.
161169  0  0  1  0            999 V2000
  -30.6269  -14.5570   20.5711 C   0  0  0  0  0  0
  -30.4463  -12.3639   19.4161 C   0  0  0  0  0  0
  -29.5009  -12.5343   18.2049 C   0  0  0  0  0  0
  -28.0221  -12.3763   18.6166 C   0  0  0  0  0  0
  -27.6638  -13.2050   19.8778 C   0  0  2  0  0  0
  -28.7091  -12.9683   20.9919 C   0  0  0  0  0  0
  -25.2551  -13.8109   20.5580 C   0  0  0  0  0  0
  -24.1841  -13.0403   20.9200 C   0  0  0  0  0  0
  -24.6415  -11.6877   20.8769 C   0  0  0  0  0  0
  -23.9076  -10.4269   21.0425 C   0  0  0  0  0  0
  -24.3625   -9.4178   21.9197 C   0  0  0  0  0  0
  -23.6293   -8.2220   22.0757 C   0  0  0  0  0  0
  -22.4270   -8.0275   21.3546 C   0  0  0  0  0  0
  -21.9913   -9.0254   20.4647 C   0  0  0  0  0  0
  -22.7256  -10.2128   20.3064 C   0  0  0  0  0  0
  -21.6844   -6.0733   22.5277 C   0  0  0  0  0  0
  -21.4011   -6.5638   23.8213 C   0  0  0  0  0  0
  -21.3657   -5.6793   24.9176 C   0  0  0  0  0  0
  -21.6043   -4.3054   24.7223 C   0  0  0  0  0  0
  -21.8820   -3.8146   23.4345 C   0  0  0  0  0  0
  -21.9190   -4.6964   22.3400 C   0  0  0  0  0  0
  -22.7862  -13.5204   21.1858 C   0  0  0  0  0  0
  -22.1658   -4.2149   21.0978 F   0  0  0  0  0  0
  -21.5629   -3.4539   25.7737 F   0  0  0  0  0  0
  -30.0356  -13.3288   20.4521 N   0  0  0  0  0  0
  -26.3029  -12.9300   20.3350 N   0  0  0  0  0  0
  -25.9343  -11.6465   20.5791 N   0  0  0  0  0  0
  -22.0499  -12.8207   22.0420 N   0  0  0  0  0  0
  -25.4148  -15.1799   20.3729 N   0  0  0  0  0  0
  -31.7307  -14.8091   20.0744 O   0  0  0  0  0  0
  -21.6633   -6.8876   21.4240 O   0  0  0  0  0  0
  -22.3547  -14.5509   20.6692 O   0  0  0  0  0  0
  -24.6206  -31.8641   23.2069 C   0  0  0  0  0  0
  -25.9069  -32.4806   23.8384 C   0  0  1  0  0  0
  -27.2270  -27.3786   20.1092 C   0  0  0  0  0  0
  -25.5908  -33.8609   24.2321 N   0  0  0  0  0  0
  -23.4123  -30.4898   21.5471 C   0  0  2  0  0  0
  -24.8597  -28.9510   20.1122 C   0  0  0  0  0  0
  -22.7460  -29.4640   22.4948 C   0  0  0  0  0  0
  -18.0282  -28.1396   22.8473 C   0  0  0  0  0  0
  -24.1485  -36.7304   23.2647 C   0  0  0  0  0  0
  -25.9485  -30.8148   21.3697 C   0  0  0  0  0  0
  -26.0238  -29.4459   20.7129 C   0  0  0  0  0  0
  -27.2146  -28.6710   20.6996 C   0  0  0  0  0  0
  -26.0467  -26.9198   19.4864 C   0  0  0  0  0  0
  -24.8692  -27.6919   19.4898 C   0  0  0  0  0  0
  -23.6266  -29.8274   20.1607 C   0  0  0  0  0  0
  -25.4103  -36.3107   24.0348 C   0  0  1  0  0  0
  -20.5880  -28.3682   23.1292 C   0  0  2  0  0  0
  -20.6777  -26.9414   22.5407 C   0  0  0  0  0  0
  -19.5761  -26.6381   21.5215 C   0  0  0  0  0  0
  -18.1935  -26.7936   22.1616 C   0  0  0  0  0  0
  -19.1533  -28.8852   23.2886 C   0  0  0  0  0  0
  -18.9475  -30.1461   23.8897 C   0  0  0  0  0  0
  -17.6476  -30.6589   24.0573 C   0  0  0  0  0  0
  -25.9036  -34.9472   23.5124 C   0  0  0  0  0  0
  -16.5367  -29.9097   23.6334 C   0  0  0  0  0  0
  -16.7272  -28.6524   23.0327 C   0  0  0  0  0  0
  -26.4471  -31.6607   25.0736 C   0  0  0  0  0  0
  -25.3720  -31.3726   26.1477 C   0  0  0  0  0  0
  -27.0308  -30.3048   24.6128 C   0  0  0  0  0  0
  -27.6050  -32.4323   25.7493 C   0  0  0  0  0  0
  -27.5580  -37.1808   24.8466 C   0  0  0  0  0  0
  -21.4180  -29.3049   22.3700 N   0  0  0  0  0  0
  -26.4287  -37.3792   23.9418 N   0  0  0  0  0  0
  -24.6790  -31.0703   22.0996 N   0  0  0  0  0  0
  -23.4220  -28.8170   23.2996 O   0  0  0  0  0  0
  -28.3657  -26.5816   20.1120 O   0  0  0  0  0  0
  -26.5598  -34.8923   22.4690 O   0  0  0  0  0  0
  -23.5372  -32.1417   23.7415 O   0  0  0  0  0  0
  -28.1983  -17.1851   21.0961 C   0  0  0  0  0  0
  -29.5150  -16.8277   20.9519 C   0  0  0  0  0  0
  -29.6538  -19.1164   20.5426 C   0  0  0  0  0  0
  -30.9945  -20.5370   18.9141 C   0  0  0  0  0  0
  -29.0564  -23.8902   18.6002 C   0  0  0  0  0  0
  -29.2063  -22.9794   22.4200 C   0  0  0  0  0  0
  -28.2160  -25.2196   20.6204 C   0  0  0  0  0  0
  -30.3000  -20.4887   20.2835 C   0  0  1  0  0  0
  -29.2941  -24.1968   20.0889 C   0  0  1  0  0  0
  -29.6392  -22.8908   20.9436 C   0  0  2  0  0  0
  -30.3375  -17.9416   20.6498 N   0  0  0  0  0  0
  -29.8786  -15.4656   21.2457 N   0  0  0  0  0  0
  -29.2360  -21.5556   20.3657 N   0  3  0  0  0  0
  -27.9189  -18.8755   20.7714 S   0  0  0  0  0  0
  -31.4829  -12.5109   19.1063 H   0  0  0  0  0  0
  -30.3939  -11.3456   19.8045 H   0  0  0  0  0  0
  -29.7499  -11.8138   17.4247 H   0  0  0  0  0  0
  -29.6496  -13.5212   17.7636 H   0  0  0  0  0  0
  -27.8376  -11.3182   18.8034 H   0  0  0  0  0  0
  -27.3705  -12.6555   17.7879 H   0  0  0  0  0  0
  -27.7085  -14.2566   19.5940 H   0  0  0  0  0  0
  -28.7082  -11.9177   21.2866 H   0  0  0  0  0  0
  -28.4495  -13.5137   21.8998 H   0  0  0  0  0  0
  -25.2774   -9.5638   22.4769 H   0  0  0  0  0  0
  -23.9995   -7.4599   22.7467 H   0  0  0  0  0  0
  -21.0848   -8.8788   19.8946 H   0  0  0  0  0  0
  -22.3735  -10.9673   19.6171 H   0  0  0  0  0  0
  -21.2004   -7.6147   23.9716 H   0  0  0  0  0  0
  -21.1478   -6.0522   25.9077 H   0  0  0  0  0  0
  -22.0600   -2.7609   23.2848 H   0  0  0  0  0  0
  -22.4113  -11.9876   22.4825 H   0  0  0  0  0  0
  -21.1116  -13.1231   22.2619 H   0  0  0  0  0  0
  -24.6042  -15.7897   20.3878 H   0  0  0  0  0  0
  -26.1816  -15.5636   19.8353 H   0  0  0  0  0  0
  -26.7147  -32.5492   23.1147 H   0  0  0  0  0  0
  -25.0074  -33.9782   25.0475 H   0  0  0  0  0  0
  -22.7040  -31.3091   21.4060 H   0  0  0  0  0  0
  -23.3758  -35.9629   23.3312 H   0  0  0  0  0  0
  -24.3584  -36.8904   22.2063 H   0  0  0  0  0  0
  -23.7221  -37.6506   23.6644 H   0  0  0  0  0  0
  -26.0684  -31.5818   20.6035 H   0  0  0  0  0  0
  -26.8342  -30.8642   21.9918 H   0  0  0  0  0  0
  -28.1145  -29.0500   21.1621 H   0  0  0  0  0  0
  -26.0289  -25.9617   18.9872 H   0  0  0  0  0  0
  -23.9793  -27.3116   19.0088 H   0  0  0  0  0  0
  -23.7484  -30.6080   19.4086 H   0  0  0  0  0  0
  -22.7485  -29.2569   19.8530 H   0  0  0  0  0  0
  -25.1278  -36.1984   25.0840 H   0  0  0  0  0  0
  -20.9978  -28.3251   24.1408 H   0  0  0  0  0  0
  -20.5689  -26.2303   23.3601 H   0  0  0  0  0  0
  -21.6646  -26.7439   22.1205 H   0  0  0  0  0  0
  -19.6934  -25.6293   21.1248 H   0  0  0  0  0  0
  -19.6712  -27.3197   20.6758 H   0  0  0  0  0  0
  -17.4213  -26.6687   21.4010 H   0  0  0  0  0  0
  -18.0324  -26.0071   22.9007 H   0  0  0  0  0  0
  -19.7955  -30.7271   24.2268 H   0  0  0  0  0  0
  -17.5039  -31.6273   24.5171 H   0  0  0  0  0  0
  -15.5372  -30.3010   23.7665 H   0  0  0  0  0  0
  -15.8668  -28.0870   22.7014 H   0  0  0  0  0  0
  -24.5913  -30.7039   25.7813 H   0  0  0  0  0  0
  -24.8879  -32.2884   26.4882 H   0  0  0  0  0  0
  -25.8062  -30.8930   27.0263 H   0  0  0  0  0  0
  -26.2869  -29.6815   24.1147 H   0  0  0  0  0  0
  -27.4058  -29.7265   25.4587 H   0  0  0  0  0  0
  -27.8699  -30.4373   23.9296 H   0  0  0  0  0  0
  -27.2691  -33.3636   26.2059 H   0  0  0  0  0  0
  -28.3857  -32.6860   25.0313 H   0  0  0  0  0  0
  -28.0711  -31.8450   26.5410 H   0  0  0  0  0  0
  -28.2594  -38.0111   24.7519 H   0  0  0  0  0  0
  -28.1083  -36.2644   24.6278 H   0  0  0  0  0  0
  -27.2309  -37.1439   25.8873 H   0  0  0  0  0  0
  -20.9360  -29.8803   21.6936 H   0  0  0  0  0  0
  -26.0187  -38.2869   24.1436 H   0  0  0  0  0  0
  -27.3600  -16.5650   21.3794 H   0  0  0  0  0  0
  -31.7773  -19.7815   18.8537 H   0  0  0  0  0  0
  -31.4658  -21.5038   18.7403 H   0  0  0  0  0  0
  -30.2934  -20.3459   18.1011 H   0  0  0  0  0  0
  -29.0341  -24.8125   18.0193 H   0  0  0  0  0  0
  -28.1034  -23.3833   18.4423 H   0  0  0  0  0  0
  -29.8498  -23.2740   18.1783 H   0  0  0  0  0  0
  -29.6143  -23.8699   22.8988 H   0  0  0  0  0  0
  -29.5619  -22.1227   22.9942 H   0  0  0  0  0  0
  -28.1206  -23.0121   22.5223 H   0  0  0  0  0  0
  -28.2852  -25.3210   21.7029 H   0  0  0  0  0  0
  -27.2251  -24.8037   20.4355 H   0  0  0  0  0  0
  -31.0331  -20.6396   21.0769 H   0  0  0  0  0  0
  -30.2192  -24.7745   20.1207 H   0  0  0  0  0  0
  -30.7307  -22.8708   20.9593 H   0  0  0  0  0  0
  -29.1421  -14.9776   21.7307 H   0  0  0  0  0  0
  -28.4830  -21.1849   20.9235 H   0  0  0  0  0  0
  -28.8722  -21.7002   19.4379 H   0  0  0  0  0  0
  1 25  1  0  0  0
  1 30  2  0  0  0
  1 82  1  0  0  0
  2  3  1  0  0  0
  2 25  1  0  0  0
  2 85  1  0  0  0
  2 86  1  0  0  0
  3  4  1  0  0  0
  3 87  1  0  0  0
  3 88  1  0  0  0
  4  5  1  0  0  0
  4 89  1  0  0  0
  4 90  1  0  0  0
  5  6  1  0  0  0
  5 26  1  0  0  0
  5 91  1  0  0  0
  6 25  1  0  0  0
  6 92  1  0  0  0
  6 93  1  0  0  0
  7  8  2  0  0  0
  7 26  1  0  0  0
  7 29  1  0  0  0
  8  9  1  0  0  0
  8 22  1  0  0  0
  9 10  1  0  0  0
  9 27  2  0  0  0
 10 11  2  0  0  0
 10 15  1  0  0  0
 11 12  1  0  0  0
 11 94  1  0  0  0
 12 13  2  0  0  0
 12 95  1  0  0  0
 13 14  1  0  0  0
 13 31  1  0  0  0
 14 15  2  0  0  0
 14 96  1  0  0  0
 15 97  1  0  0  0
 16 17  2  0  0  0
 16 21  1  0  0  0
 16 31  1  0  0  0
 17 18  1  0  0  0
 17 98  1  0  0  0
 18 19  2  0  0  0
 18 99  1  0  0  0
 19 20  1  0  0  0
 19 24  1  0  0  0
 20 21  2  0  0  0
 20100  1  0  0  0
 21 23  1  0  0  0
 22 28  1  0  0  0
 22 32  2  0  0  0
 26 27  1  0  0  0
 28101  1  0  0  0
 28102  1  0  0  0
 29103  1  0  0  0
 29104  1  0  0  0
 33 34  1  0  0  0
 33 66  1  0  0  0
 33 70  2  0  0  0
 34 36  1  0  0  0
 34 59  1  0  0  0
 34105  1  0  0  0
 35 44  2  0  0  0
 35 45  1  0  0  0
 35 68  1  0  0  0
 36 56  1  0  0  0
 36106  1  0  0  0
 37 39  1  0  0  0
 37 47  1  0  0  0
 37 66  1  0  0  0
 37107  1  0  0  0
 38 43  2  0  0  0
 38 46  1  0  0  0
 38 47  1  0  0  0
 39 64  1  0  0  0
 39 67  2  0  0  0
 40 52  1  0  0  0
 40 53  2  0  0  0
 40 58  1  0  0  0
 41108  1  0  0  0
 41109  1  0  0  0
 41110  1  0  0  0
 41 48  1  0  0  0
 42 43  1  0  0  0
 42 66  1  0  0  0
 42111  1  0  0  0
 42112  1  0  0  0
 43 44  1  0  0  0
 44113  1  0  0  0
 45 46  2  0  0  0
 45114  1  0  0  0
 46115  1  0  0  0
 47116  1  0  0  0
 47117  1  0  0  0
 48 56  1  0  0  0
 48 65  1  0  0  0
 48118  1  0  0  0
 49 50  1  0  0  0
 49 53  1  0  0  0
 49 64  1  0  0  0
 49119  1  0  0  0
 50 51  1  0  0  0
 50120  1  0  0  0
 50121  1  0  0  0
 51 52  1  0  0  0
 51122  1  0  0  0
 51123  1  0  0  0
 52124  1  0  0  0
 52125  1  0  0  0
 53 54  1  0  0  0
 54 55  2  0  0  0
 54126  1  0  0  0
 55 57  1  0  0  0
 55127  1  0  0  0
 56 69  2  0  0  0
 57 58  2  0  0  0
 57128  1  0  0  0
 58129  1  0  0  0
 59 60  1  0  0  0
 59 61  1  0  0  0
 59 62  1  0  0  0
 60130  1  0  0  0
 60131  1  0  0  0
 60132  1  0  0  0
 61133  1  0  0  0
 61134  1  0  0  0
 61135  1  0  0  0
 62136  1  0  0  0
 62137  1  0  0  0
 62138  1  0  0  0
 63 65  1  0  0  0
 63139  1  0  0  0
 63140  1  0  0  0
 63141  1  0  0  0
 64142  1  0  0  0
 65143  1  0  0  0
 68 77  1  0  0  0
 71 72  2  0  0  0
 71 84  1  0  0  0
 71144  1  0  0  0
 72 81  1  0  0  0
 72 82  1  0  0  0
 73 78  1  0  0  0
 73 81  2  0  0  0
 73 84  1  0  0  0
 74145  1  0  0  0
 74146  1  0  0  0
 74147  1  0  0  0
 74 78  1  0  0  0
 75148  1  0  0  0
 75149  1  0  0  0
 75150  1  0  0  0
 75 79  1  0  0  0
 76151  1  0  0  0
 76152  1  0  0  0
 76153  1  0  0  0
 76 80  1  0  0  0
 77 79  1  0  0  0
 77154  1  0  0  0
 77155  1  0  0  0
 78 83  1  0  0  0
 78156  1  0  0  0
 79 80  1  0  0  0
 79157  1  0  0  0
 80 83  1  0  0  0
 80158  1  0  0  0
 82159  1  0  0  0
 83160  1  0  0  0
 83161  1  0  0  0
M  CHG  1  83   1
M  ISO  4   1 100  68 101  77 101  82 100
M  END
> <chiral flag>
0

> <version>
0

> <s_m_source_file>
/data/baiqing/PycharmProjects/Reinvent-master-3.2/result/LINK_invent/BTK/process_docking_weight1_custom_product_contain_oxygen_bond_distance_aromatic_linkinvent_7_9_3/rearranged_h_0189.sdf

> <i_m_source_file_index>
48

> <r_mmod_Potential_Energy-OPLS-2005>
-185.497955322266

> <r_mmod_Stretch_Energy-OPLS-2005>
58.7556838989258

> <r_mmod_Bend_Energy-OPLS-2005>
137.521499633789

> <r_mmod_Torsional_Energy-OPLS-2005>
270.941711425781

> <r_mmod_Improper_Torsional_Energy-OPLS-2005>
7.16626882553101

> <r_mmod_Van_der_Waal_Energy-OPLS-2005>
122.628051757812

> <r_mmod_Electrostatic_Energy-OPLS-2005>
-333.794799804688

> <r_mmod_Solvation_Energy-OPLS-2005>
-474.578094482422

> <b_mmod_Minimization_Converged-OPLS-2005>
0

> <r_mmod_RMS_Derivative-OPLS-2005>
1.86957848072052

$$$$
48
                    3D
 Structure written by MMmdl.
165173  0  0  1  0            999 V2000
  -30.6384  -14.5361   20.6313 C   0  0  0  0  0  0
  -30.4613  -12.3667   19.4294 C   0  0  0  0  0  0
  -29.5200  -12.5357   18.2138 C   0  0  0  0  0  0
  -28.0415  -12.3671   18.6262 C   0  0  0  0  0  0
  -27.6759  -13.1928   19.8858 C   0  0  2  0  0  0
  -28.7149  -12.9500   21.0032 C   0  0  0  0  0  0
  -25.2693  -13.8121   20.5676 C   0  0  0  0  0  0
  -24.1876  -13.0456   20.9118 C   0  0  0  0  0  0
  -24.6350  -11.6899   20.8643 C   0  0  0  0  0  0
  -23.8983  -10.4328   21.0353 C   0  0  0  0  0  0
  -24.3541   -9.4276   21.9178 C   0  0  0  0  0  0
  -23.6220   -8.2302   22.0776 C   0  0  0  0  0  0
  -22.4213   -8.0299   21.3574 C   0  0  0  0  0  0
  -21.9820   -9.0261   20.4682 C   0  0  0  0  0  0
  -22.7118  -10.2152   20.3056 C   0  0  0  0  0  0
  -21.6862   -6.0704   22.5264 C   0  0  0  0  0  0
  -21.4030   -6.5586   23.8184 C   0  0  0  0  0  0
  -21.3671   -5.6760   24.9162 C   0  0  0  0  0  0
  -21.6032   -4.3019   24.7215 C   0  0  0  0  0  0
  -21.8821   -3.8106   23.4333 C   0  0  0  0  0  0
  -21.9213   -4.6943   22.3404 C   0  0  0  0  0  0
  -22.7914  -13.5353   21.1750 C   0  0  0  0  0  0
  -22.1678   -4.2125   21.0986 F   0  0  0  0  0  0
  -21.5640   -3.4502   25.7722 F   0  0  0  0  0  0
  -30.0428  -13.3170   20.4760 N   0  0  0  0  0  0
  -26.3099  -12.9235   20.3350 N   0  0  0  0  0  0
  -25.9284  -11.6424   20.5625 N   0  0  0  0  0  0
  -22.0467  -12.8441   22.0287 N   0  0  0  0  0  0
  -25.4568  -15.1821   20.4176 N   0  0  0  0  0  0
  -31.7096  -14.8303   20.0906 O   0  0  0  0  0  0
  -21.6651   -6.8850   21.4222 O   0  0  0  0  0  0
  -22.3676  -14.5683   20.6584 O   0  0  0  0  0  0
  -24.6286  -31.8627   23.2111 C   0  0  0  0  0  0
  -25.9169  -32.4794   23.8405 C   0  0  1  0  0  0
  -27.2399  -27.3769   20.0955 C   0  0  0  0  0  0
  -25.6014  -33.8573   24.2351 N   0  0  0  0  0  0
  -23.4161  -30.4917   21.5514 C   0  0  2  0  0  0
  -24.8590  -28.9536   20.1170 C   0  0  0  0  0  0
  -22.7475  -29.4664   22.4988 C   0  0  0  0  0  0
  -18.0278  -28.1377   22.8468 C   0  0  0  0  0  0
  -24.1455  -36.7261   23.2642 C   0  0  0  0  0  0
  -25.9500  -30.8167   21.3643 C   0  0  0  0  0  0
  -26.0265  -29.4433   20.7116 C   0  0  0  0  0  0
  -27.2151  -28.6650   20.6989 C   0  0  0  0  0  0
  -26.0356  -26.9177   19.5035 C   0  0  0  0  0  0
  -24.8614  -27.6890   19.5098 C   0  0  0  0  0  0
  -23.6276  -29.8311   20.1623 C   0  0  0  0  0  0
  -25.4060  -36.3075   24.0376 C   0  0  1  0  0  0
  -20.5883  -28.3673   23.1309 C   0  0  2  0  0  0
  -20.6779  -26.9419   22.5389 C   0  0  0  0  0  0
  -19.5747  -26.6391   21.5198 C   0  0  0  0  0  0
  -18.1921  -26.7929   22.1603 C   0  0  0  0  0  0
  -19.1538  -28.8842   23.2883 C   0  0  0  0  0  0
  -18.9473  -30.1442   23.8908 C   0  0  0  0  0  0
  -17.6480  -30.6586   24.0533 C   0  0  0  0  0  0
  -25.9029  -34.9462   23.5140 C   0  0  0  0  0  0
  -16.5360  -29.9088   23.6309 C   0  0  0  0  0  0
  -16.7270  -28.6492   23.0354 C   0  0  0  0  0  0
  -26.4569  -31.6586   25.0733 C   0  0  0  0  0  0
  -25.3884  -31.3711   26.1533 C   0  0  0  0  0  0
  -27.0419  -30.3050   24.6100 C   0  0  0  0  0  0
  -27.6158  -32.4304   25.7464 C   0  0  0  0  0  0
  -27.5558  -37.1743   24.8461 C   0  0  0  0  0  0
  -21.4196  -29.3033   22.3721 N   0  0  0  0  0  0
  -26.4211  -37.3784   23.9494 N   0  0  0  0  0  0
  -24.6847  -31.0717   22.1011 N   0  0  0  0  0  0
  -23.4220  -28.8189   23.3062 O   0  0  0  0  0  0
  -28.4079  -26.6040   20.1190 O   0  0  0  0  0  0
  -26.5525  -34.8926   22.4657 O   0  0  0  0  0  0
  -23.5479  -32.1394   23.7481 O   0  0  0  0  0  0
  -28.5900  -17.3346   22.0046 C   0  0  0  0  0  0
  -30.4811  -17.7698   20.5989 C   0  0  0  0  0  0
  -29.7080  -16.8220   21.3172 C   0  0  0  0  0  0
  -28.2668  -18.7059   21.9416 C   0  0  0  0  0  0
  -29.0771  -19.5856   21.1753 C   0  0  0  0  0  0
  -28.6939  -21.0698   21.0516 C   0  0  0  0  0  0
  -30.7718  -22.9041   23.3312 C   0  0  0  0  0  0
  -32.2228  -23.5791   21.4192 C   0  0  0  0  0  0
  -28.5448  -25.6241   17.9391 C   0  0  0  0  0  0
  -29.6609  -24.3733   19.8164 C   0  0  0  0  0  0
  -30.8204  -23.7572   22.0507 C   0  0  0  0  0  0
  -29.6319  -23.4364   21.0846 C   0  0  2  0  0  0
  -28.4467  -25.3083   19.4479 C   0  0  1  0  0  0
  -30.1830  -19.1033   20.5278 N   0  0  0  0  0  0
  -29.9434  -15.3973   21.4161 N   0  0  0  0  0  0
  -29.6677  -21.9670   20.7876 N   0  0  0  0  0  0
  -27.5350  -21.4470   21.2603 O   0  0  0  0  0  0
  -27.1865  -19.1466   22.6343 F   0  0  0  0  0  0
  -31.4999  -12.5222   19.1269 H   0  0  0  0  0  0
  -30.4122  -11.3466   19.8130 H   0  0  0  0  0  0
  -29.7742  -11.8153   17.4360 H   0  0  0  0  0  0
  -29.6661  -13.5252   17.7744 H   0  0  0  0  0  0
  -27.8568  -11.3072   18.8104 H   0  0  0  0  0  0
  -27.3915  -12.6515   17.7988 H   0  0  0  0  0  0
  -27.7342  -14.2439   19.6001 H   0  0  0  0  0  0
  -28.7164  -11.8969   21.2875 H   0  0  0  0  0  0
  -28.4395  -13.4835   21.9143 H   0  0  0  0  0  0
  -25.2679   -9.5778   22.4731 H   0  0  0  0  0  0
  -23.9955   -7.4710   22.7485 H   0  0  0  0  0  0
  -21.0757   -8.8740   19.8981 H   0  0  0  0  0  0
  -22.3551  -10.9672   19.6161 H   0  0  0  0  0  0
  -21.2015   -7.6098   23.9675 H   0  0  0  0  0  0
  -21.1482   -6.0491   25.9055 H   0  0  0  0  0  0
  -22.0587   -2.7578   23.2836 H   0  0  0  0  0  0
  -22.3966  -12.0150   22.4827 H   0  0  0  0  0  0
  -21.1094  -13.1619   22.2368 H   0  0  0  0  0  0
  -24.7009  -15.8441   20.5470 H   0  0  0  0  0  0
  -26.3068  -15.6084   20.0705 H   0  0  0  0  0  0
  -26.7238  -32.5477   23.1164 H   0  0  0  0  0  0
  -25.0347  -33.9682   25.0639 H   0  0  0  0  0  0
  -22.7046  -31.3096   21.4128 H   0  0  0  0  0  0
  -23.3745  -35.9564   23.3263 H   0  0  0  0  0  0
  -24.3575  -36.8884   22.2058 H   0  0  0  0  0  0
  -23.7160  -37.6448   23.6645 H   0  0  0  0  0  0
  -26.0589  -31.5820   20.5945 H   0  0  0  0  0  0
  -26.8397  -30.8753   21.9806 H   0  0  0  0  0  0
  -28.1122  -29.0463   21.1652 H   0  0  0  0  0  0
  -25.9577  -25.9525   19.0303 H   0  0  0  0  0  0
  -23.9650  -27.2927   19.0527 H   0  0  0  0  0  0
  -23.7555  -30.6088   19.4070 H   0  0  0  0  0  0
  -22.7465  -29.2661   19.8513 H   0  0  0  0  0  0
  -25.1215  -36.1897   25.0862 H   0  0  0  0  0  0
  -20.9938  -28.3244   24.1463 H   0  0  0  0  0  0
  -20.5711  -26.2302   23.3586 H   0  0  0  0  0  0
  -21.6663  -26.7478   22.1206 H   0  0  0  0  0  0
  -19.6915  -25.6312   21.1230 H   0  0  0  0  0  0
  -19.6686  -27.3204   20.6737 H   0  0  0  0  0  0
  -17.4207  -26.6700   21.3969 H   0  0  0  0  0  0
  -18.0295  -26.0059   22.8992 H   0  0  0  0  0  0
  -19.7963  -30.7218   24.2334 H   0  0  0  0  0  0
  -17.5047  -31.6293   24.5098 H   0  0  0  0  0  0
  -15.5362  -30.2991   23.7638 H   0  0  0  0  0  0
  -15.8676  -28.0793   22.7110 H   0  0  0  0  0  0
  -24.6039  -30.7037   25.7945 H   0  0  0  0  0  0
  -24.9114  -32.2878   26.5002 H   0  0  0  0  0  0
  -25.8332  -30.8907   27.0264 H   0  0  0  0  0  0
  -26.2939  -29.6718   24.1313 H   0  0  0  0  0  0
  -27.4405  -29.7347   25.4499 H   0  0  0  0  0  0
  -27.8670  -30.4384   23.9101 H   0  0  0  0  0  0
  -27.2817  -33.3606   26.2042 H   0  0  0  0  0  0
  -28.3958  -32.6850   25.0289 H   0  0  0  0  0  0
  -28.0853  -31.8443   26.5365 H   0  0  0  0  0  0
  -28.2554  -38.0066   24.7610 H   0  0  0  0  0  0
  -28.1071  -36.2622   24.6125 H   0  0  0  0  0  0
  -27.2323  -37.1213   25.8868 H   0  0  0  0  0  0
  -20.9415  -29.8752   21.6902 H   0  0  0  0  0  0
  -26.0100  -38.2846   24.1585 H   0  0  0  0  0  0
  -27.9570  -16.6751   22.5820 H   0  0  0  0  0  0
  -31.3665  -17.4594   20.0644 H   0  0  0  0  0  0
  -31.5582  -23.1922   24.0314 H   0  0  0  0  0  0
  -30.9299  -21.8481   23.1135 H   0  0  0  0  0  0
  -29.8170  -22.9990   23.8459 H   0  0  0  0  0  0
  -33.0091  -23.7301   22.1630 H   0  0  0  0  0  0
  -32.4280  -24.2859   20.6161 H   0  0  0  0  0  0
  -32.3565  -22.5774   21.0122 H   0  0  0  0  0  0
  -28.5106  -24.7169   17.3368 H   0  0  0  0  0  0
  -29.4845  -26.1321   17.7115 H   0  0  0  0  0  0
  -27.7427  -26.2669   17.5808 H   0  0  0  0  0  0
  -29.8552  -23.7245   18.9617 H   0  0  0  0  0  0
  -30.5299  -25.0243   19.8512 H   0  0  0  0  0  0
  -30.7222  -24.8004   22.3576 H   0  0  0  0  0  0
  -28.7097  -23.6594   21.6267 H   0  0  0  0  0  0
  -27.5430  -24.7324   19.6552 H   0  0  0  0  0  0
  -29.2469  -14.9043   21.9605 H   0  0  0  0  0  0
  -30.5652  -21.5406   20.5997 H   0  0  0  0  0  0
  1 25  1  0  0  0
  1 30  2  0  0  0
  1 85  1  0  0  0
  2  3  1  0  0  0
  2 25  1  0  0  0
  2 89  1  0  0  0
  2 90  1  0  0  0
  3  4  1  0  0  0
  3 91  1  0  0  0
  3 92  1  0  0  0
  4  5  1  0  0  0
  4 93  1  0  0  0
  4 94  1  0  0  0
  5  6  1  0  0  0
  5 26  1  0  0  0
  5 95  1  0  0  0
  6 25  1  0  0  0
  6 96  1  0  0  0
  6 97  1  0  0  0
  7  8  2  0  0  0
  7 26  1  0  0  0
  7 29  1  0  0  0
  8  9  1  0  0  0
  8 22  1  0  0  0
  9 10  1  0  0  0
  9 27  2  0  0  0
 10 11  2  0  0  0
 10 15  1  0  0  0
 11 12  1  0  0  0
 11 98  1  0  0  0
 12 13  2  0  0  0
 12 99  1  0  0  0
 13 14  1  0  0  0
 13 31  1  0  0  0
 14 15  2  0  0  0
 14100  1  0  0  0
 15101  1  0  0  0
 16 17  2  0  0  0
 16 21  1  0  0  0
 16 31  1  0  0  0
 17 18  1  0  0  0
 17102  1  0  0  0
 18 19  2  0  0  0
 18103  1  0  0  0
 19 20  1  0  0  0
 19 24  1  0  0  0
 20 21  2  0  0  0
 20104  1  0  0  0
 21 23  1  0  0  0
 22 28  1  0  0  0
 22 32  2  0  0  0
 26 27  1  0  0  0
 28105  1  0  0  0
 28106  1  0  0  0
 29107  1  0  0  0
 29108  1  0  0  0
 33 34  1  0  0  0
 33 66  1  0  0  0
 33 70  2  0  0  0
 34 36  1  0  0  0
 34 59  1  0  0  0
 34109  1  0  0  0
 35 44  2  0  0  0
 35 45  1  0  0  0
 35 68  1  0  0  0
 36 56  1  0  0  0
 36110  1  0  0  0
 37 39  1  0  0  0
 37 47  1  0  0  0
 37 66  1  0  0  0
 37111  1  0  0  0
 38 43  2  0  0  0
 38 46  1  0  0  0
 38 47  1  0  0  0
 39 64  1  0  0  0
 39 67  2  0  0  0
 40 52  1  0  0  0
 40 53  2  0  0  0
 40 58  1  0  0  0
 41112  1  0  0  0
 41113  1  0  0  0
 41114  1  0  0  0
 41 48  1  0  0  0
 42 43  1  0  0  0
 42 66  1  0  0  0
 42115  1  0  0  0
 42116  1  0  0  0
 43 44  1  0  0  0
 44117  1  0  0  0
 45 46  2  0  0  0
 45118  1  0  0  0
 46119  1  0  0  0
 47120  1  0  0  0
 47121  1  0  0  0
 48 56  1  0  0  0
 48 65  1  0  0  0
 48122  1  0  0  0
 49 50  1  0  0  0
 49 53  1  0  0  0
 49 64  1  0  0  0
 49123  1  0  0  0
 50 51  1  0  0  0
 50124  1  0  0  0
 50125  1  0  0  0
 51 52  1  0  0  0
 51126  1  0  0  0
 51127  1  0  0  0
 52128  1  0  0  0
 52129  1  0  0  0
 53 54  1  0  0  0
 54 55  2  0  0  0
 54130  1  0  0  0
 55 57  1  0  0  0
 55131  1  0  0  0
 56 69  2  0  0  0
 57 58  2  0  0  0
 57132  1  0  0  0
 58133  1  0  0  0
 59 60  1  0  0  0
 59 61  1  0  0  0
 59 62  1  0  0  0
 60134  1  0  0  0
 60135  1  0  0  0
 60136  1  0  0  0
 61137  1  0  0  0
 61138  1  0  0  0
 61139  1  0  0  0
 62140  1  0  0  0
 62141  1  0  0  0
 62142  1  0  0  0
 63 65  1  0  0  0
 63143  1  0  0  0
 63144  1  0  0  0
 63145  1  0  0  0
 64146  1  0  0  0
 65147  1  0  0  0
 68 83  1  0  0  0
 71 73  2  0  0  0
 71 74  1  0  0  0
 71148  1  0  0  0
 72 73  1  0  0  0
 72 84  2  0  0  0
 72149  1  0  0  0
 73 85  1  0  0  0
 74 75  2  0  0  0
 74 88  1  0  0  0
 75 76  1  0  0  0
 75 84  1  0  0  0
 76 86  1  0  0  0
 76 87  2  0  0  0
 77150  1  0  0  0
 77151  1  0  0  0
 77152  1  0  0  0
 77 81  1  0  0  0
 78 81  1  0  0  0
 78153  1  0  0  0
 78154  1  0  0  0
 78155  1  0  0  0
 79156  1  0  0  0
 79157  1  0  0  0
 79158  1  0  0  0
 79 83  1  0  0  0
 80 83  1  0  0  0
 80159  1  0  0  0
 80160  1  0  0  0
 80 82  1  0  0  0
 81 82  1  0  0  0
 81161  1  0  0  0
 82 86  1  0  0  0
 82162  1  0  0  0
 83163  1  0  0  0
 85164  1  0  0  0
 86165  1  0  0  0
M  ISO  4   1 100  68 101  83 101  85 100
M  END
> <chiral flag>
0

> <version>
0

> <s_m_source_file>
/data/baiqing/PycharmProjects/Reinvent-master-3.2/result/LINK_invent/BTK/process_docking_weight1_custom_product_contain_oxygen_bond_distance_aromatic_linkinvent_7_9_3/rearranged_h_0189.sdf

> <i_m_source_file_index>
49

> <r_mmod_Potential_Energy-OPLS-2005>
-73.9251861572266

> <r_mmod_Stretch_Energy-OPLS-2005>
62.8427085876465

> <r_mmod_Bend_Energy-OPLS-2005>
141.928726196289

> <r_mmod_Torsional_Energy-OPLS-2005>
255.538619995117

> <r_mmod_Improper_Torsional_Energy-OPLS-2005>
4.49084806442261

> <r_mmod_Van_der_Waal_Energy-OPLS-2005>
160.034210205078

> <r_mmod_Electrostatic_Energy-OPLS-2005>
-502.200012207031

> <r_mmod_Solvation_Energy-OPLS-2005>
-222.18830871582

> <b_mmod_Minimization_Converged-OPLS-2005>
0

> <r_mmod_RMS_Derivative-OPLS-2005>
5.29665613174438

$$$$
49
                    3D
 Structure written by MMmdl.
154162  0  0  1  0            999 V2000
  -30.6963  -14.4826   20.6465 C   0  0  0  0  0  0
  -30.4277  -12.3262   19.4272 C   0  0  0  0  0  0
  -29.4975  -12.5139   18.2126 C   0  0  0  0  0  0
  -28.0168  -12.3785   18.6184 C   0  0  0  0  0  0
  -27.6672  -13.1988   19.8893 C   0  0  2  0  0  0
  -28.7108  -12.9455   21.0029 C   0  0  0  0  0  0
  -25.2642  -13.8140   20.5696 C   0  0  0  0  0  0
  -24.1861  -13.0423   20.9141 C   0  0  0  0  0  0
  -24.6401  -11.6884   20.8728 C   0  0  0  0  0  0
  -23.9036  -10.4284   21.0406 C   0  0  0  0  0  0
  -24.3591   -9.4204   21.9180 C   0  0  0  0  0  0
  -23.6277   -8.2236   22.0748 C   0  0  0  0  0  0
  -22.4269   -8.0261   21.3527 C   0  0  0  0  0  0
  -21.9887   -9.0240   20.4641 C   0  0  0  0  0  0
  -22.7209  -10.2131   20.3049 C   0  0  0  0  0  0
  -21.6856   -6.0730   22.5272 C   0  0  0  0  0  0
  -21.4026   -6.5642   23.8207 C   0  0  0  0  0  0
  -21.3649   -5.6795   24.9174 C   0  0  0  0  0  0
  -21.6048   -4.3056   24.7224 C   0  0  0  0  0  0
  -21.8812   -3.8137   23.4344 C   0  0  0  0  0  0
  -21.9199   -4.6957   22.3404 C   0  0  0  0  0  0
  -22.7898  -13.5249   21.1838 C   0  0  0  0  0  0
  -22.1664   -4.2131   21.0983 F   0  0  0  0  0  0
  -21.5609   -3.4543   25.7740 F   0  0  0  0  0  0
  -30.0324  -13.2986   20.4620 N   0  0  0  0  0  0
  -26.3070  -12.9279   20.3456 N   0  0  0  0  0  0
  -25.9338  -11.6443   20.5786 N   0  0  0  0  0  0
  -22.0554  -12.8215   22.0388 N   0  0  0  0  0  0
  -25.4429  -15.1841   20.4122 N   0  0  0  0  0  0
  -31.7778  -14.6803   20.0771 O   0  0  0  0  0  0
  -21.6630   -6.8865   21.4230 O   0  0  0  0  0  0
  -22.3584  -14.5577   20.6747 O   0  0  0  0  0  0
  -24.6198  -31.8676   23.2121 C   0  0  0  0  0  0
  -25.9068  -32.4821   23.8424 C   0  0  1  0  0  0
  -27.2288  -27.4028   20.0976 C   0  0  0  0  0  0
  -25.5916  -33.8612   24.2357 N   0  0  0  0  0  0
  -23.4074  -30.4933   21.5530 C   0  0  2  0  0  0
  -24.8525  -28.9648   20.1138 C   0  0  0  0  0  0
  -22.7427  -29.4649   22.4974 C   0  0  0  0  0  0
  -18.0280  -28.1340   22.8484 C   0  0  0  0  0  0
  -24.1474  -36.7315   23.2635 C   0  0  0  0  0  0
  -25.9414  -30.8277   21.3672 C   0  0  0  0  0  0
  -26.0185  -29.4612   20.7091 C   0  0  0  0  0  0
  -27.2095  -28.6916   20.6940 C   0  0  0  0  0  0
  -26.0356  -26.9393   19.4874 C   0  0  0  0  0  0
  -24.8587  -27.7054   19.4985 C   0  0  0  0  0  0
  -23.6181  -29.8364   20.1642 C   0  0  0  0  0  0
  -25.4095  -36.3114   24.0357 C   0  0  1  0  0  0
  -20.5858  -28.3648   23.1297 C   0  0  2  0  0  0
  -20.6754  -26.9374   22.5400 C   0  0  0  0  0  0
  -19.5740  -26.6372   21.5194 C   0  0  0  0  0  0
  -18.1925  -26.7884   22.1634 C   0  0  0  0  0  0
  -19.1522  -28.8807   23.2897 C   0  0  0  0  0  0
  -18.9460  -30.1412   23.8910 C   0  0  0  0  0  0
  -17.6468  -30.6555   24.0537 C   0  0  0  0  0  0
  -25.9036  -34.9478   23.5162 C   0  0  0  0  0  0
  -16.5355  -29.9053   23.6302 C   0  0  0  0  0  0
  -16.7275  -28.6461   23.0346 C   0  0  0  0  0  0
  -26.4487  -31.6588   25.0750 C   0  0  0  0  0  0
  -25.3756  -31.3697   26.1503 C   0  0  0  0  0  0
  -27.0296  -30.3032   24.6118 C   0  0  0  0  0  0
  -27.6064  -32.4295   25.7505 C   0  0  0  0  0  0
  -27.5583  -37.1826   24.8480 C   0  0  0  0  0  0
  -21.4142  -29.3055   22.3741 N   0  0  0  0  0  0
  -26.4295  -37.3805   23.9412 N   0  0  0  0  0  0
  -24.6741  -31.0760   22.1022 N   0  0  0  0  0  0
  -23.4191  -28.8164   23.2999 O   0  0  0  0  0  0
  -28.3785  -26.6182   20.1343 O   0  0  0  0  0  0
  -26.5575  -34.8935   22.4711 O   0  0  0  0  0  0
  -23.5384  -32.1419   23.7507 O   0  0  0  0  0  0
  -32.0194  -17.4168   21.4239 C   0  0  0  0  0  0
  -30.6978  -17.0216   21.4214 C   0  0  0  0  0  0
  -30.4651  -19.3176   21.2640 C   0  0  0  0  0  0
  -30.0637  -21.7182   20.6701 C   0  0  0  0  0  0
  -29.3532  -24.2314   20.2836 C   0  0  0  0  0  0
  -28.1774  -25.1934   19.9457 C   0  0  0  0  0  0
  -30.0893  -15.6179   21.5529 C   0  0  2  0  0  0
  -28.9236  -22.7174   20.3403 C   0  0  1  0  0  0
  -29.8348  -18.1428   21.3746 N   0  0  0  0  0  0
  -29.6907  -20.5064   21.1439 N   0  0  0  0  0  0
  -28.3077  -22.2644   19.0753 N   0  3  0  0  0  0
  -31.2338  -22.0190   20.4235 O   0  0  0  0  0  0
  -28.7720  -15.7000   21.3418 F   0  0  0  0  0  0
  -32.2191  -19.1523   21.2753 S   0  0  0  0  0  0
  -31.4717  -12.4275   19.1261 H   0  0  0  0  0  0
  -30.3320  -11.3107   19.8157 H   0  0  0  0  0  0
  -29.7423  -11.7827   17.4414 H   0  0  0  0  0  0
  -29.6656  -13.4951   17.7686 H   0  0  0  0  0  0
  -27.8141  -11.3218   18.7944 H   0  0  0  0  0  0
  -27.3752  -12.6707   17.7848 H   0  0  0  0  0  0
  -27.7178  -14.2502   19.6112 H   0  0  0  0  0  0
  -28.6990  -11.8929   21.2932 H   0  0  0  0  0  0
  -28.4619  -13.4798   21.9189 H   0  0  0  0  0  0
  -25.2746   -9.5679   22.4746 H   0  0  0  0  0  0
  -23.9979   -7.4643   22.7487 H   0  0  0  0  0  0
  -21.0796   -8.8765   19.8973 H   0  0  0  0  0  0
  -22.3661  -10.9661   19.6149 H   0  0  0  0  0  0
  -21.2030   -7.6153   23.9698 H   0  0  0  0  0  0
  -21.1480   -6.0536   25.9077 H   0  0  0  0  0  0
  -22.0604   -2.7590   23.2859 H   0  0  0  0  0  0
  -22.4187  -11.9830   22.4671 H   0  0  0  0  0  0
  -21.1226  -13.1283   22.2730 H   0  0  0  0  0  0
  -24.6948  -15.8555   20.5404 H   0  0  0  0  0  0
  -26.3355  -15.6130   20.1960 H   0  0  0  0  0  0
  -26.7128  -32.5542   23.1176 H   0  0  0  0  0  0
  -25.0069  -33.9765   25.0503 H   0  0  0  0  0  0
  -22.6995  -31.3125   21.4186 H   0  0  0  0  0  0
  -23.3741  -35.9642   23.3305 H   0  0  0  0  0  0
  -24.3581  -36.8917   22.2051 H   0  0  0  0  0  0
  -23.7226  -37.6538   23.6621 H   0  0  0  0  0  0
  -26.0608  -31.5970   20.6030 H   0  0  0  0  0  0
  -26.8272  -30.8783   21.9889 H   0  0  0  0  0  0
  -28.1070  -29.0722   21.1616 H   0  0  0  0  0  0
  -25.9757  -25.9796   18.9974 H   0  0  0  0  0  0
  -23.9610  -27.3203   19.0330 H   0  0  0  0  0  0
  -23.7366  -30.6186   19.4132 H   0  0  0  0  0  0
  -22.7398  -29.2645   19.8588 H   0  0  0  0  0  0
  -25.1263  -36.1999   25.0858 H   0  0  0  0  0  0
  -20.9957  -28.3212   24.1411 H   0  0  0  0  0  0
  -20.5618  -26.2261   23.3594 H   0  0  0  0  0  0
  -21.6631  -26.7393   22.1208 H   0  0  0  0  0  0
  -19.6905  -25.6287   21.1218 H   0  0  0  0  0  0
  -19.6657  -27.3186   20.6716 H   0  0  0  0  0  0
  -17.4194  -26.6603   21.4056 H   0  0  0  0  0  0
  -18.0358  -26.0016   22.9025 H   0  0  0  0  0  0
  -19.7943  -30.7206   24.2318 H   0  0  0  0  0  0
  -17.5027  -31.6232   24.5143 H   0  0  0  0  0  0
  -15.5357  -30.2967   23.7611 H   0  0  0  0  0  0
  -15.8676  -28.0780   22.7065 H   0  0  0  0  0  0
  -24.5928  -30.7039   25.7865 H   0  0  0  0  0  0
  -24.8944  -32.2845   26.4976 H   0  0  0  0  0  0
  -25.8144  -30.8880   27.0246 H   0  0  0  0  0  0
  -26.2851  -29.6832   24.1122 H   0  0  0  0  0  0
  -27.4010  -29.7253   25.4587 H   0  0  0  0  0  0
  -27.8701  -30.4352   23.9297 H   0  0  0  0  0  0
  -27.2693  -33.3580   26.2117 H   0  0  0  0  0  0
  -28.3855  -32.6881   25.0320 H   0  0  0  0  0  0
  -28.0720  -31.8382   26.5398 H   0  0  0  0  0  0
  -28.2631  -38.0092   24.7510 H   0  0  0  0  0  0
  -28.1057  -36.2651   24.6308 H   0  0  0  0  0  0
  -27.2316  -37.1478   25.8887 H   0  0  0  0  0  0
  -20.9303  -29.8867   21.7042 H   0  0  0  0  0  0
  -26.0197  -38.2899   24.1387 H   0  0  0  0  0  0
  -32.8960  -16.7850   21.4869 H   0  0  0  0  0  0
  -29.7757  -24.5073   21.2501 H   0  0  0  0  0  0
  -30.1506  -24.3719   19.5554 H   0  0  0  0  0  0
  -27.3233  -24.8767   20.5496 H   0  0  0  0  0  0
  -27.9202  -25.0290   18.8983 H   0  0  0  0  0  0
  -30.1928  -15.2835   22.5846 H   0  0  0  0  0  0
  -28.1731  -22.6216   21.1269 H   0  0  0  0  0  0
  -28.7144  -20.3876   21.3721 H   0  0  0  0  0  0
  -28.9661  -22.3499   18.3217 H   0  0  0  0  0  0
  -28.0577  -21.2933   19.1439 H   0  0  0  0  0  0
  -27.4706  -22.7697   18.8549 H   0  0  0  0  0  0
  1 25  1  0  0  0
  1 30  2  0  0  0
  1 77  1  0  0  0
  2  3  1  0  0  0
  2 25  1  0  0  0
  2 85  1  0  0  0
  2 86  1  0  0  0
  3  4  1  0  0  0
  3 87  1  0  0  0
  3 88  1  0  0  0
  4  5  1  0  0  0
  4 89  1  0  0  0
  4 90  1  0  0  0
  5  6  1  0  0  0
  5 26  1  0  0  0
  5 91  1  0  0  0
  6 25  1  0  0  0
  6 92  1  0  0  0
  6 93  1  0  0  0
  7  8  2  0  0  0
  7 26  1  0  0  0
  7 29  1  0  0  0
  8  9  1  0  0  0
  8 22  1  0  0  0
  9 10  1  0  0  0
  9 27  2  0  0  0
 10 11  2  0  0  0
 10 15  1  0  0  0
 11 12  1  0  0  0
 11 94  1  0  0  0
 12 13  2  0  0  0
 12 95  1  0  0  0
 13 14  1  0  0  0
 13 31  1  0  0  0
 14 15  2  0  0  0
 14 96  1  0  0  0
 15 97  1  0  0  0
 16 17  2  0  0  0
 16 21  1  0  0  0
 16 31  1  0  0  0
 17 18  1  0  0  0
 17 98  1  0  0  0
 18 19  2  0  0  0
 18 99  1  0  0  0
 19 20  1  0  0  0
 19 24  1  0  0  0
 20 21  2  0  0  0
 20100  1  0  0  0
 21 23  1  0  0  0
 22 28  1  0  0  0
 22 32  2  0  0  0
 26 27  1  0  0  0
 28101  1  0  0  0
 28102  1  0  0  0
 29103  1  0  0  0
 29104  1  0  0  0
 33 34  1  0  0  0
 33 66  1  0  0  0
 33 70  2  0  0  0
 34 36  1  0  0  0
 34 59  1  0  0  0
 34105  1  0  0  0
 35 44  2  0  0  0
 35 45  1  0  0  0
 35 68  1  0  0  0
 36 56  1  0  0  0
 36106  1  0  0  0
 37 39  1  0  0  0
 37 47  1  0  0  0
 37 66  1  0  0  0
 37107  1  0  0  0
 38 43  2  0  0  0
 38 46  1  0  0  0
 38 47  1  0  0  0
 39 64  1  0  0  0
 39 67  2  0  0  0
 40 52  1  0  0  0
 40 53  2  0  0  0
 40 58  1  0  0  0
 41108  1  0  0  0
 41109  1  0  0  0
 41110  1  0  0  0
 41 48  1  0  0  0
 42 43  1  0  0  0
 42 66  1  0  0  0
 42111  1  0  0  0
 42112  1  0  0  0
 43 44  1  0  0  0
 44113  1  0  0  0
 45 46  2  0  0  0
 45114  1  0  0  0
 46115  1  0  0  0
 47116  1  0  0  0
 47117  1  0  0  0
 48 56  1  0  0  0
 48 65  1  0  0  0
 48118  1  0  0  0
 49 50  1  0  0  0
 49 53  1  0  0  0
 49 64  1  0  0  0
 49119  1  0  0  0
 50 51  1  0  0  0
 50120  1  0  0  0
 50121  1  0  0  0
 51 52  1  0  0  0
 51122  1  0  0  0
 51123  1  0  0  0
 52124  1  0  0  0
 52125  1  0  0  0
 53 54  1  0  0  0
 54 55  2  0  0  0
 54126  1  0  0  0
 55 57  1  0  0  0
 55127  1  0  0  0
 56 69  2  0  0  0
 57 58  2  0  0  0
 57128  1  0  0  0
 58129  1  0  0  0
 59 60  1  0  0  0
 59 61  1  0  0  0
 59 62  1  0  0  0
 60130  1  0  0  0
 60131  1  0  0  0
 60132  1  0  0  0
 61133  1  0  0  0
 61134  1  0  0  0
 61135  1  0  0  0
 62136  1  0  0  0
 62137  1  0  0  0
 62138  1  0  0  0
 63 65  1  0  0  0
 63139  1  0  0  0
 63140  1  0  0  0
 63141  1  0  0  0
 64142  1  0  0  0
 65143  1  0  0  0
 68 76  1  0  0  0
 71 72  2  0  0  0
 71 84  1  0  0  0
 71144  1  0  0  0
 72 77  1  0  0  0
 72 79  1  0  0  0
 73 79  2  0  0  0
 73 80  1  0  0  0
 73 84  1  0  0  0
 74 78  1  0  0  0
 74 80  1  0  0  0
 74 82  2  0  0  0
 75 76  1  0  0  0
 75 78  1  0  0  0
 75145  1  0  0  0
 75146  1  0  0  0
 76147  1  0  0  0
 76148  1  0  0  0
 77 83  1  0  0  0
 77149  1  0  0  0
 78 81  1  0  0  0
 78150  1  0  0  0
 80151  1  0  0  0
 81152  1  0  0  0
 81153  1  0  0  0
 81154  1  0  0  0
M  CHG  1  81   1
M  ISO  4   1 100  68 101  76 101  77 100
M  END
> <chiral flag>
0

> <version>
0

> <s_m_source_file>
/data/baiqing/PycharmProjects/Reinvent-master-3.2/result/LINK_invent/BTK/process_docking_weight1_custom_product_contain_oxygen_bond_distance_aromatic_linkinvent_7_9_3/rearranged_h_0189.sdf

> <i_m_source_file_index>
50

> <r_mmod_Potential_Energy-OPLS-2005>
-362.883453369141

> <r_mmod_Stretch_Energy-OPLS-2005>
48.3307952880859

> <r_mmod_Bend_Energy-OPLS-2005>
114.009902954102

> <r_mmod_Torsional_Energy-OPLS-2005>
182.708267211914

> <r_mmod_Improper_Torsional_Energy-OPLS-2005>
2.36822628974915

> <r_mmod_Van_der_Waal_Energy-OPLS-2005>
144.089584350586

> <r_mmod_Electrostatic_Energy-OPLS-2005>
-338.089874267578

> <r_mmod_Solvation_Energy-OPLS-2005>
-531.814453125

> <b_mmod_Minimization_Converged-OPLS-2005>
0

> <r_mmod_RMS_Derivative-OPLS-2005>
3.5526294708252

$$$$
50
                    3D
 Structure written by MMmdl.
157164  0  0  1  0            999 V2000
  -30.4002  -15.2007   20.3421 C   0  0  0  0  0  0
  -30.4492  -12.7487   19.5343 C   0  0  0  0  0  0
  -29.5339  -12.5555   18.2952 C   0  0  0  0  0  0
  -28.0786  -12.2890   18.7158 C   0  0  0  0  0  0
  -27.6151  -13.2578   19.8320 C   0  0  2  0  0  0
  -28.6526  -13.3833   20.9640 C   0  0  0  0  0  0
  -25.2415  -13.8269   20.5763 C   0  0  0  0  0  0
  -24.1748  -13.0470   20.9277 C   0  0  0  0  0  0
  -24.6381  -11.6967   20.8769 C   0  0  0  0  0  0
  -23.9089  -10.4323   21.0397 C   0  0  0  0  0  0
  -24.3661   -9.4255   21.9174 C   0  0  0  0  0  0
  -23.6346   -8.2281   22.0741 C   0  0  0  0  0  0
  -22.4316   -8.0320   21.3553 C   0  0  0  0  0  0
  -21.9950   -9.0273   20.4626 C   0  0  0  0  0  0
  -22.7262  -10.2160   20.3033 C   0  0  0  0  0  0
  -21.6885   -6.0770   22.5266 C   0  0  0  0  0  0
  -21.4025   -6.5665   23.8204 C   0  0  0  0  0  0
  -21.3632   -5.6805   24.9150 C   0  0  0  0  0  0
  -21.6059   -4.3072   24.7184 C   0  0  0  0  0  0
  -21.8829   -3.8178   23.4298 C   0  0  0  0  0  0
  -21.9202   -4.7006   22.3365 C   0  0  0  0  0  0
  -22.7781  -13.5225   21.1910 C   0  0  0  0  0  0
  -22.1675   -4.2207   21.0941 F   0  0  0  0  0  0
  -21.5606   -3.4536   25.7673 F   0  0  0  0  0  0
  -29.8993  -13.8742   20.3649 N   0  0  0  0  0  0
  -26.2816  -12.9481   20.3267 N   0  0  0  0  0  0
  -25.9311  -11.6625   20.5778 N   0  0  0  0  0  0
  -22.0434  -12.8152   22.0427 N   0  0  0  0  0  0
  -25.4097  -15.2006   20.4203 N   0  0  0  0  0  0
  -31.6251  -15.2486   20.1592 O   0  0  0  0  0  0
  -21.6683   -6.8915   21.4237 O   0  0  0  0  0  0
  -22.3454  -14.5521   20.6767 O   0  0  0  0  0  0
  -24.6572  -31.8294   23.1734 C   0  0  0  0  0  0
  -25.9272  -32.4614   23.8202 C   0  0  1  0  0  0
  -27.2003  -26.9433   20.2050 C   0  0  0  0  0  0
  -25.5978  -33.8430   24.2112 N   0  0  0  0  0  0
  -23.4688  -30.4399   21.5266 C   0  0  2  0  0  0
  -24.9150  -28.8262   20.1248 C   0  0  0  0  0  0
  -22.7651  -29.4469   22.4844 C   0  0  0  0  0  0
  -18.0339  -28.1376   22.8455 C   0  0  0  0  0  0
  -24.1485  -36.7196   23.2652 C   0  0  0  0  0  0
  -26.0369  -30.6401   21.4030 C   0  0  0  0  0  0
  -26.0992  -29.2309   20.7530 C   0  0  0  0  0  0
  -27.2406  -28.3112   20.7624 C   0  0  0  0  0  0
  -25.9872  -26.6866   19.5325 C   0  0  0  0  0  0
  -24.8850  -27.5746   19.4918 C   0  0  0  0  0  0
  -23.7023  -29.7529   20.1540 C   0  0  0  0  0  0
  -25.4134  -36.2978   24.0301 C   0  0  1  0  0  0
  -20.5959  -28.3722   23.1204 C   0  0  2  0  0  0
  -20.6827  -26.9418   22.5393 C   0  0  0  0  0  0
  -19.5808  -26.6366   21.5202 C   0  0  0  0  0  0
  -18.1985  -26.7919   22.1597 C   0  0  0  0  0  0
  -19.1590  -28.8870   23.2806 C   0  0  0  0  0  0
  -18.9480  -30.1462   23.8832 C   0  0  0  0  0  0
  -17.6474  -30.6561   24.0533 C   0  0  0  0  0  0
  -25.9102  -34.9371   23.5029 C   0  0  0  0  0  0
  -16.5365  -29.9026   23.6330 C   0  0  0  0  0  0
  -16.7308  -28.6453   23.0350 C   0  0  0  0  0  0
  -26.4537  -31.6555   25.0723 C   0  0  0  0  0  0
  -25.3676  -31.3797   26.1381 C   0  0  0  0  0  0
  -27.0454  -30.2923   24.6448 C   0  0  0  0  0  0
  -27.6031  -32.4370   25.7514 C   0  0  0  0  0  0
  -27.5566  -37.1763   24.8470 C   0  0  0  0  0  0
  -21.4333  -29.3041   22.3570 N   0  0  0  0  0  0
  -26.4288  -37.3704   23.9412 N   0  0  0  0  0  0
  -24.7430  -30.9979   22.0865 N   0  0  0  0  0  0
  -23.4224  -28.8036   23.3065 O   0  0  0  0  0  0
  -28.2462  -25.8893   20.1902 O   0  0  0  0  0  0
  -26.5706  -34.8885   22.4613 O   0  0  0  0  0  0
  -23.5663  -32.1275   23.6848 O   0  0  0  0  0  0
  -28.8336  -19.8031   20.1768 C   0  0  0  0  0  0
  -28.9392  -16.6357   18.7492 C   0  0  0  0  0  0
  -27.3795  -24.2197   21.9139 C   0  0  0  0  0  0
  -29.4748  -16.6771   20.1983 C   0  0  1  0  0  0
  -29.8245  -18.4062   20.5185 C   0  0  1  0  0  0
  -28.3348  -22.6926   19.8708 C   0  0  2  0  0  0
  -28.2646  -24.3043   20.6580 C   0  0  1  0  0  0
  -26.9248  -22.3754   19.2964 C   0  0  0  0  0  0
  -29.0433  -21.2560   20.3665 N   0  0  0  0  0  0
  -31.1784  -18.7140   20.0183 N   0  3  0  0  0  0
  -27.7697  -19.4837   19.6507 O   0  0  0  0  0  0
  -26.3310  -23.4821   18.8686 F   0  0  0  0  0  0
  -26.9987  -21.5670   18.2382 F   0  0  0  0  0  0
  -26.1429  -21.8273   20.2318 F   0  0  0  0  0  0
  -31.4701  -12.9545   19.2059 H   0  0  0  0  0  0
  -30.5108  -11.8304   20.1205 H   0  0  0  0  0  0
  -29.9017  -11.7369   17.6773 H   0  0  0  0  0  0
  -29.5742  -13.4497   17.6752 H   0  0  0  0  0  0
  -28.0199  -11.2623   19.0809 H   0  0  0  0  0  0
  -27.4104  -12.3391   17.8560 H   0  0  0  0  0  0
  -27.5356  -14.2291   19.3512 H   0  0  0  0  0  0
  -28.8012  -12.4238   21.4598 H   0  0  0  0  0  0
  -28.3097  -14.0760   21.7333 H   0  0  0  0  0  0
  -25.2802   -9.5762   22.4743 H   0  0  0  0  0  0
  -24.0067   -7.4677   22.7456 H   0  0  0  0  0  0
  -21.0881   -8.8803   19.8907 H   0  0  0  0  0  0
  -22.3732  -10.9717   19.6139 H   0  0  0  0  0  0
  -21.2049   -7.6177   23.9730 H   0  0  0  0  0  0
  -21.1428   -6.0513   25.9060 H   0  0  0  0  0  0
  -22.0635   -2.7648   23.2762 H   0  0  0  0  0  0
  -22.4102  -11.9827   22.4788 H   0  0  0  0  0  0
  -21.1050  -13.1134   22.2640 H   0  0  0  0  0  0
  -24.6503  -15.8600   20.5374 H   0  0  0  0  0  0
  -26.2659  -15.6396   20.1062 H   0  0  0  0  0  0
  -26.7353  -32.5155   23.0945 H   0  0  0  0  0  0
  -25.0104  -33.9524   25.0238 H   0  0  0  0  0  0
  -22.7782  -31.2696   21.3586 H   0  0  0  0  0  0
  -23.3774  -35.9501   23.3312 H   0  0  0  0  0  0
  -24.3559  -36.8840   22.2068 H   0  0  0  0  0  0
  -23.7204  -37.6367   23.6706 H   0  0  0  0  0  0
  -26.2209  -31.3814   20.6242 H   0  0  0  0  0  0
  -26.8980  -30.6937   22.0593 H   0  0  0  0  0  0
  -28.1460  -28.6223   21.2630 H   0  0  0  0  0  0
  -25.8651  -25.7390   19.0354 H   0  0  0  0  0  0
  -23.9858  -27.2629   18.9771 H   0  0  0  0  0  0
  -23.8503  -30.5190   19.3915 H   0  0  0  0  0  0
  -22.8102  -29.2044   19.8417 H   0  0  0  0  0  0
  -25.1333  -36.1811   25.0794 H   0  0  0  0  0  0
  -21.0019  -28.3298   24.1330 H   0  0  0  0  0  0
  -20.5705  -26.2329   23.3622 H   0  0  0  0  0  0
  -21.6684  -26.7415   22.1195 H   0  0  0  0  0  0
  -19.6979  -25.6267   21.1229 H   0  0  0  0  0  0
  -19.6736  -27.3171   20.6729 H   0  0  0  0  0  0
  -17.4258  -26.6664   21.3986 H   0  0  0  0  0  0
  -18.0369  -26.0060   22.8998 H   0  0  0  0  0  0
  -19.7948  -30.7307   24.2169 H   0  0  0  0  0  0
  -17.5000  -31.6237   24.5139 H   0  0  0  0  0  0
  -15.5353  -30.2895   23.7673 H   0  0  0  0  0  0
  -15.8727  -28.0730   22.7107 H   0  0  0  0  0  0
  -24.5858  -30.7140   25.7691 H   0  0  0  0  0  0
  -24.8864  -32.3000   26.4696 H   0  0  0  0  0  0
  -25.7913  -30.9035   27.0231 H   0  0  0  0  0  0
  -26.3135  -29.6584   24.1418 H   0  0  0  0  0  0
  -27.3959  -29.7278   25.5108 H   0  0  0  0  0  0
  -27.9086  -30.4113   23.9888 H   0  0  0  0  0  0
  -27.2589  -33.3707   26.1969 H   0  0  0  0  0  0
  -28.3895  -32.6876   25.0383 H   0  0  0  0  0  0
  -28.0648  -31.8592   26.5530 H   0  0  0  0  0  0
  -28.2583  -38.0055   24.7513 H   0  0  0  0  0  0
  -28.1065  -36.2588   24.6331 H   0  0  0  0  0  0
  -27.2283  -37.1441   25.8868 H   0  0  0  0  0  0
  -20.9582  -29.8699   21.6693 H   0  0  0  0  0  0
  -26.0151  -38.2770   24.1406 H   0  0  0  0  0  0
  -29.5488  -17.2524   18.0912 H   0  0  0  0  0  0
  -28.9348  -15.6368   18.3171 H   0  0  0  0  0  0
  -27.9154  -17.0061   18.6931 H   0  0  0  0  0  0
  -27.5060  -23.2639   22.4256 H   0  0  0  0  0  0
  -26.3215  -24.3157   21.6677 H   0  0  0  0  0  0
  -27.6273  -25.0031   22.6299 H   0  0  0  0  0  0
  -28.6141  -16.4627   20.8368 H   0  0  0  0  0  0
  -29.9172  -18.4486   21.6061 H   0  0  0  0  0  0
  -28.9414  -22.9171   18.9936 H   0  0  0  0  0  0
  -29.2716  -24.3119   21.0792 H   0  0  0  0  0  0
  -29.8960  -21.4546   20.8664 H   0  0  0  0  0  0
  -31.2056  -18.6734   19.0159 H   0  0  0  0  0  0
  -31.8503  -18.0650   20.3843 H   0  0  0  0  0  0
  -31.4527  -19.6360   20.2988 H   0  0  0  0  0  0
  1 25  1  0  0  0
  1 30  2  0  0  0
  1 74  1  0  0  0
  2  3  1  0  0  0
  2 25  1  0  0  0
  2 85  1  0  0  0
  2 86  1  0  0  0
  3  4  1  0  0  0
  3 87  1  0  0  0
  3 88  1  0  0  0
  4  5  1  0  0  0
  4 89  1  0  0  0
  4 90  1  0  0  0
  5  6  1  0  0  0
  5 26  1  0  0  0
  5 91  1  0  0  0
  6 25  1  0  0  0
  6 92  1  0  0  0
  6 93  1  0  0  0
  7  8  2  0  0  0
  7 26  1  0  0  0
  7 29  1  0  0  0
  8  9  1  0  0  0
  8 22  1  0  0  0
  9 10  1  0  0  0
  9 27  2  0  0  0
 10 11  2  0  0  0
 10 15  1  0  0  0
 11 12  1  0  0  0
 11 94  1  0  0  0
 12 13  2  0  0  0
 12 95  1  0  0  0
 13 14  1  0  0  0
 13 31  1  0  0  0
 14 15  2  0  0  0
 14 96  1  0  0  0
 15 97  1  0  0  0
 16 17  2  0  0  0
 16 21  1  0  0  0
 16 31  1  0  0  0
 17 18  1  0  0  0
 17 98  1  0  0  0
 18 19  2  0  0  0
 18 99  1  0  0  0
 19 20  1  0  0  0
 19 24  1  0  0  0
 20 21  2  0  0  0
 20100  1  0  0  0
 21 23  1  0  0  0
 22 28  1  0  0  0
 22 32  2  0  0  0
 26 27  1  0  0  0
 28101  1  0  0  0
 28102  1  0  0  0
 29103  1  0  0  0
 29104  1  0  0  0
 33 34  1  0  0  0
 33 66  1  0  0  0
 33 70  2  0  0  0
 34 36  1  0  0  0
 34 59  1  0  0  0
 34105  1  0  0  0
 35 44  2  0  0  0
 35 45  1  0  0  0
 35 68  1  0  0  0
 36 56  1  0  0  0
 36106  1  0  0  0
 37 39  1  0  0  0
 37 47  1  0  0  0
 37 66  1  0  0  0
 37107  1  0  0  0
 38 43  2  0  0  0
 38 46  1  0  0  0
 38 47  1  0  0  0
 39 64  1  0  0  0
 39 67  2  0  0  0
 40 52  1  0  0  0
 40 53  2  0  0  0
 40 58  1  0  0  0
 41108  1  0  0  0
 41109  1  0  0  0
 41110  1  0  0  0
 41 48  1  0  0  0
 42 43  1  0  0  0
 42 66  1  0  0  0
 42111  1  0  0  0
 42112  1  0  0  0
 43 44  1  0  0  0
 44113  1  0  0  0
 45 46  2  0  0  0
 45114  1  0  0  0
 46115  1  0  0  0
 47116  1  0  0  0
 47117  1  0  0  0
 48 56  1  0  0  0
 48 65  1  0  0  0
 48118  1  0  0  0
 49 50  1  0  0  0
 49 53  1  0  0  0
 49 64  1  0  0  0
 49119  1  0  0  0
 50 51  1  0  0  0
 50120  1  0  0  0
 50121  1  0  0  0
 51 52  1  0  0  0
 51122  1  0  0  0
 51123  1  0  0  0
 52124  1  0  0  0
 52125  1  0  0  0
 53 54  1  0  0  0
 54 55  2  0  0  0
 54126  1  0  0  0
 55 57  1  0  0  0
 55127  1  0  0  0
 56 69  2  0  0  0
 57 58  2  0  0  0
 57128  1  0  0  0
 58129  1  0  0  0
 59 60  1  0  0  0
 59 61  1  0  0  0
 59 62  1  0  0  0
 60130  1  0  0  0
 60131  1  0  0  0
 60132  1  0  0  0
 61133  1  0  0  0
 61134  1  0  0  0
 61135  1  0  0  0
 62136  1  0  0  0
 62137  1  0  0  0
 62138  1  0  0  0
 63 65  1  0  0  0
 63139  1  0  0  0
 63140  1  0  0  0
 63141  1  0  0  0
 64142  1  0  0  0
 65143  1  0  0  0
 68 77  1  0  0  0
 71 75  1  0  0  0
 71 79  1  0  0  0
 71 81  2  0  0  0
 72144  1  0  0  0
 72145  1  0  0  0
 72146  1  0  0  0
 72 74  1  0  0  0
 73147  1  0  0  0
 73148  1  0  0  0
 73149  1  0  0  0
 73 77  1  0  0  0
 74 75  1  0  0  0
 74150  1  0  0  0
 75 80  1  0  0  0
 75151  1  0  0  0
 76 77  1  0  0  0
 76 78  1  0  0  0
 76 79  1  0  0  0
 76152  1  0  0  0
 77153  1  0  0  0
 78 82  1  0  0  0
 78 83  1  0  0  0
 78 84  1  0  0  0
 79154  1  0  0  0
 80155  1  0  0  0
 80156  1  0  0  0
 80157  1  0  0  0
M  CHG  1  80   1
M  ISO  4   1 100  68 101  74 100  77 101
M  END
> <chiral flag>
0

> <version>
0

> <s_m_source_file>
/data/baiqing/PycharmProjects/Reinvent-master-3.2/result/LINK_invent/BTK/process_docking_weight1_custom_product_contain_oxygen_bond_distance_aromatic_linkinvent_7_9_3/rearranged_h_0189.sdf

> <i_m_source_file_index>
51

> <r_mmod_Potential_Energy-OPLS-2005>
834.916015625

> <r_mmod_Stretch_Energy-OPLS-2005>
589.362670898438

> <r_mmod_Bend_Energy-OPLS-2005>
447.344451904297

> <r_mmod_Torsional_Energy-OPLS-2005>
238.644226074219

> <r_mmod_Improper_Torsional_Energy-OPLS-2005>
7.70608568191528

> <r_mmod_Van_der_Waal_Energy-OPLS-2005>
104.907997131348

> <r_mmod_Electrostatic_Energy-OPLS-2005>
-428.563568115234

> <r_mmod_Solvation_Energy-OPLS-2005>
-526.804809570312

> <b_mmod_Minimization_Converged-OPLS-2005>
0

> <r_mmod_RMS_Derivative-OPLS-2005>
4.42023992538452

$$$$
51
                    3D
 Structure written by MMmdl.
159167  0  0  1  0            999 V2000
  -30.6147  -14.6541   20.4891 C   0  0  0  0  0  0
  -30.4402  -12.3961   19.4612 C   0  0  0  0  0  0
  -29.5133  -12.5025   18.2291 C   0  0  0  0  0  0
  -28.0359  -12.3375   18.6381 C   0  0  0  0  0  0
  -27.6530  -13.2142   19.8608 C   0  0  2  0  0  0
  -28.6952  -13.0790   20.9946 C   0  0  0  0  0  0
  -25.2563  -13.8163   20.5666 C   0  0  0  0  0  0
  -24.1829  -13.0437   20.9185 C   0  0  0  0  0  0
  -24.6389  -11.6903   20.8727 C   0  0  0  0  0  0
  -23.9056  -10.4290   21.0393 C   0  0  0  0  0  0
  -24.3610   -9.4205   21.9170 C   0  0  0  0  0  0
  -23.6282   -8.2243   22.0752 C   0  0  0  0  0  0
  -22.4260   -8.0284   21.3550 C   0  0  0  0  0  0
  -21.9895   -9.0256   20.4646 C   0  0  0  0  0  0
  -22.7229  -10.2131   20.3047 C   0  0  0  0  0  0
  -21.6854   -6.0728   22.5274 C   0  0  0  0  0  0
  -21.4017   -6.5632   23.8207 C   0  0  0  0  0  0
  -21.3662   -5.6786   24.9171 C   0  0  0  0  0  0
  -21.6046   -4.3048   24.7222 C   0  0  0  0  0  0
  -21.8820   -3.8139   23.4343 C   0  0  0  0  0  0
  -21.9192   -4.6954   22.3398 C   0  0  0  0  0  0
  -22.7852  -13.5241   21.1845 C   0  0  0  0  0  0
  -22.1659   -4.2138   21.0977 F   0  0  0  0  0  0
  -21.5626   -3.4532   25.7738 F   0  0  0  0  0  0
  -30.0115  -13.4228   20.4330 N   0  0  0  0  0  0
  -26.2981  -12.9334   20.3277 N   0  0  0  0  0  0
  -25.9313  -11.6494   20.5724 N   0  0  0  0  0  0
  -22.0482  -12.8251   22.0404 N   0  0  0  0  0  0
  -25.4259  -15.1888   20.4079 N   0  0  0  0  0  0
  -31.7777  -14.8057   20.1010 O   0  0  0  0  0  0
  -21.6635   -6.8872   21.4239 O   0  0  0  0  0  0
  -22.3545  -14.5549   20.6691 O   0  0  0  0  0  0
  -24.6258  -31.8594   23.2018 C   0  0  0  0  0  0
  -25.9100  -32.4778   23.8364 C   0  0  1  0  0  0
  -27.2267  -27.3279   20.1214 C   0  0  0  0  0  0
  -25.5900  -33.8579   24.2284 N   0  0  0  0  0  0
  -23.4200  -30.4809   21.5450 C   0  0  2  0  0  0
  -24.8677  -28.9329   20.1139 C   0  0  0  0  0  0
  -22.7480  -29.4620   22.4956 C   0  0  0  0  0  0
  -18.0290  -28.1384   22.8500 C   0  0  0  0  0  0
  -24.1481  -36.7304   23.2647 C   0  0  0  0  0  0
  -25.9590  -30.7935   21.3714 C   0  0  0  0  0  0
  -26.0360  -29.4205   20.7160 C   0  0  0  0  0  0
  -27.2225  -28.6300   20.7063 C   0  0  0  0  0  0
  -26.0408  -26.8863   19.5007 C   0  0  0  0  0  0
  -24.8709  -27.6706   19.4977 C   0  0  0  0  0  0
  -23.6344  -29.8115   20.1619 C   0  0  0  0  0  0
  -25.4104  -36.3093   24.0340 C   0  0  1  0  0  0
  -20.5889  -28.3688   23.1289 C   0  0  2  0  0  0
  -20.6766  -26.9410   22.5410 C   0  0  0  0  0  0
  -19.5736  -26.6384   21.5216 C   0  0  0  0  0  0
  -18.1924  -26.7932   22.1635 C   0  0  0  0  0  0
  -19.1542  -28.8852   23.2890 C   0  0  0  0  0  0
  -18.9465  -30.1457   23.8901 C   0  0  0  0  0  0
  -17.6462  -30.6582   24.0570 C   0  0  0  0  0  0
  -25.9042  -34.9458   23.5118 C   0  0  0  0  0  0
  -16.5356  -29.9083   23.6330 C   0  0  0  0  0  0
  -16.7278  -28.6502   23.0352 C   0  0  0  0  0  0
  -26.4495  -31.6594   25.0732 C   0  0  0  0  0  0
  -25.3725  -31.3729   26.1464 C   0  0  0  0  0  0
  -27.0368  -30.3032   24.6178 C   0  0  0  0  0  0
  -27.6067  -32.4325   25.7483 C   0  0  0  0  0  0
  -27.5572  -37.1801   24.8461 C   0  0  0  0  0  0
  -21.4192  -29.3043   22.3686 N   0  0  0  0  0  0
  -26.4284  -37.3782   23.9406 N   0  0  0  0  0  0
  -24.6870  -31.0614   22.0970 N   0  0  0  0  0  0
  -23.4198  -28.8173   23.3051 O   0  0  0  0  0  0
  -28.3366  -26.4726   20.1279 O   0  0  0  0  0  0
  -26.5623  -34.8922   22.4695 O   0  0  0  0  0  0
  -23.5417  -32.1395   23.7340 O   0  0  0  0  0  0
  -28.8257  -17.9489   21.1699 C   0  0  0  0  0  0
  -30.7373  -19.1473   19.7348 C   0  0  0  0  0  0
  -29.8739  -17.1423   20.6272 C   0  0  0  0  0  0
  -29.6890  -19.9462   20.2940 C   0  0  0  0  0  0
  -31.8407  -19.7779   18.9062 C   0  0  0  0  0  0
  -29.0032  -22.3021   22.3105 C   0  0  0  0  0  0
  -28.5631  -25.5481   22.2726 C   0  0  0  0  0  0
  -29.0195  -23.9161   20.2569 C   0  0  0  0  0  0
  -28.7984  -22.4018   20.7888 C   0  0  1  0  0  0
  -28.1847  -25.1736   20.8257 C   0  0  2  0  0  0
  -28.7262  -19.3094   21.0112 N   0  0  0  0  0  0
  -30.8293  -17.7884   19.8993 N   0  0  0  0  0  0
  -29.8101  -15.6999   20.8636 N   0  0  0  0  0  0
  -29.6507  -21.3724   20.1064 N   0  0  0  0  0  0
  -31.4823  -12.5200   19.1611 H   0  0  0  0  0  0
  -30.3766  -11.4024   19.9075 H   0  0  0  0  0  0
  -29.7837  -11.7486   17.4886 H   0  0  0  0  0  0
  -29.6540  -13.4699   17.7439 H   0  0  0  0  0  0
  -27.8776  -11.2850   18.8773 H   0  0  0  0  0  0
  -27.3840  -12.5585   17.7924 H   0  0  0  0  0  0
  -27.6699  -14.2466   19.5128 H   0  0  0  0  0  0
  -28.7069  -12.0593   21.3821 H   0  0  0  0  0  0
  -28.4351  -13.7130   21.8441 H   0  0  0  0  0  0
  -25.2756   -9.5679   22.4745 H   0  0  0  0  0  0
  -23.9990   -7.4633   22.7475 H   0  0  0  0  0  0
  -21.0822   -8.8783   19.8953 H   0  0  0  0  0  0
  -22.3691  -10.9672   19.6159 H   0  0  0  0  0  0
  -21.2013   -7.6140   23.9714 H   0  0  0  0  0  0
  -21.1483   -6.0510   25.9076 H   0  0  0  0  0  0
  -22.0595   -2.7600   23.2845 H   0  0  0  0  0  0
  -22.4092  -11.9938   22.4839 H   0  0  0  0  0  0
  -21.1096  -13.1288   22.2576 H   0  0  0  0  0  0
  -24.6480  -15.8334   20.5018 H   0  0  0  0  0  0
  -26.2533  -15.6253   20.0240 H   0  0  0  0  0  0
  -26.7169  -32.5460   23.1117 H   0  0  0  0  0  0
  -24.9993  -33.9717   25.0390 H   0  0  0  0  0  0
  -22.7140  -31.3010   21.3994 H   0  0  0  0  0  0
  -23.3736  -35.9643   23.3318 H   0  0  0  0  0  0
  -24.3568  -36.8922   22.2059 H   0  0  0  0  0  0
  -23.7245  -37.6511   23.6669 H   0  0  0  0  0  0
  -26.0848  -31.5555   20.6010 H   0  0  0  0  0  0
  -26.8408  -30.8462   21.9990 H   0  0  0  0  0  0
  -28.1224  -28.9989   21.1778 H   0  0  0  0  0  0
  -26.0161  -25.9156   19.0262 H   0  0  0  0  0  0
  -23.9768  -27.2908   19.0228 H   0  0  0  0  0  0
  -23.7501  -30.5850   19.4015 H   0  0  0  0  0  0
  -22.7554  -29.2369   19.8650 H   0  0  0  0  0  0
  -25.1284  -36.1955   25.0834 H   0  0  0  0  0  0
  -20.9986  -28.3252   24.1408 H   0  0  0  0  0  0
  -20.5645  -26.2305   23.3610 H   0  0  0  0  0  0
  -21.6633  -26.7415   22.1211 H   0  0  0  0  0  0
  -19.6882  -25.6297   21.1238 H   0  0  0  0  0  0
  -19.6657  -27.3197   20.6747 H   0  0  0  0  0  0
  -17.4185  -26.6697   21.4042 H   0  0  0  0  0  0
  -18.0311  -26.0063   22.9018 H   0  0  0  0  0  0
  -19.7939  -30.7279   24.2258 H   0  0  0  0  0  0
  -17.5016  -31.6258   24.5179 H   0  0  0  0  0  0
  -15.5355  -30.2981   23.7645 H   0  0  0  0  0  0
  -15.8689  -28.0819   22.7056 H   0  0  0  0  0  0
  -24.5885  -30.7090   25.7798 H   0  0  0  0  0  0
  -24.8925  -32.2897   26.4911 H   0  0  0  0  0  0
  -25.8030  -30.8893   27.0236 H   0  0  0  0  0  0
  -26.2953  -29.6742   24.1229 H   0  0  0  0  0  0
  -27.4149  -29.7330   25.4673 H   0  0  0  0  0  0
  -27.8776  -30.4365   23.9368 H   0  0  0  0  0  0
  -27.2694  -33.3624   26.2074 H   0  0  0  0  0  0
  -28.3848  -32.6887   25.0278 H   0  0  0  0  0  0
  -28.0772  -31.8438   26.5374 H   0  0  0  0  0  0
  -28.2600  -38.0087   24.7496 H   0  0  0  0  0  0
  -28.1057  -36.2621   24.6298 H   0  0  0  0  0  0
  -27.2293  -37.1465   25.8865 H   0  0  0  0  0  0
  -20.9372  -29.8773   21.6902 H   0  0  0  0  0  0
  -26.0175  -38.2869   24.1379 H   0  0  0  0  0  0
  -28.0368  -17.4915   21.7489 H   0  0  0  0  0  0
  -32.3970  -20.4990   19.5038 H   0  0  0  0  0  0
  -31.4183  -20.2955   18.0448 H   0  0  0  0  0  0
  -32.5425  -19.0302   18.5368 H   0  0  0  0  0  0
  -28.1406  -22.7006   22.8406 H   0  0  0  0  0  0
  -29.8958  -22.8387   22.6342 H   0  0  0  0  0  0
  -29.0998  -21.2775   22.6636 H   0  0  0  0  0  0
  -28.2898  -24.7911   22.9993 H   0  0  0  0  0  0
  -28.0519  -26.4553   22.5951 H   0  0  0  0  0  0
  -29.6336  -25.7309   22.3623 H   0  0  0  0  0  0
  -28.8412  -23.8957   19.1811 H   0  0  0  0  0  0
  -30.0782  -24.1594   20.3565 H   0  0  0  0  0  0
  -27.7654  -22.1215   20.5755 H   0  0  0  0  0  0
  -27.1349  -24.8805   20.8201 H   0  0  0  0  0  0
  -28.9407  -15.3937   21.2697 H   0  0  0  0  0  0
  -30.3850  -21.7408   19.5096 H   0  0  0  0  0  0
  1 25  1  0  0  0
  1 30  2  0  0  0
  1 83  1  0  0  0
  2  3  1  0  0  0
  2 25  1  0  0  0
  2 85  1  0  0  0
  2 86  1  0  0  0
  3  4  1  0  0  0
  3 87  1  0  0  0
  3 88  1  0  0  0
  4  5  1  0  0  0
  4 89  1  0  0  0
  4 90  1  0  0  0
  5  6  1  0  0  0
  5 26  1  0  0  0
  5 91  1  0  0  0
  6 25  1  0  0  0
  6 92  1  0  0  0
  6 93  1  0  0  0
  7  8  2  0  0  0
  7 26  1  0  0  0
  7 29  1  0  0  0
  8  9  1  0  0  0
  8 22  1  0  0  0
  9 10  1  0  0  0
  9 27  2  0  0  0
 10 11  2  0  0  0
 10 15  1  0  0  0
 11 12  1  0  0  0
 11 94  1  0  0  0
 12 13  2  0  0  0
 12 95  1  0  0  0
 13 14  1  0  0  0
 13 31  1  0  0  0
 14 15  2  0  0  0
 14 96  1  0  0  0
 15 97  1  0  0  0
 16 17  2  0  0  0
 16 21  1  0  0  0
 16 31  1  0  0  0
 17 18  1  0  0  0
 17 98  1  0  0  0
 18 19  2  0  0  0
 18 99  1  0  0  0
 19 20  1  0  0  0
 19 24  1  0  0  0
 20 21  2  0  0  0
 20100  1  0  0  0
 21 23  1  0  0  0
 22 28  1  0  0  0
 22 32  2  0  0  0
 26 27  1  0  0  0
 28101  1  0  0  0
 28102  1  0  0  0
 29103  1  0  0  0
 29104  1  0  0  0
 33 34  1  0  0  0
 33 66  1  0  0  0
 33 70  2  0  0  0
 34 36  1  0  0  0
 34 59  1  0  0  0
 34105  1  0  0  0
 35 44  2  0  0  0
 35 45  1  0  0  0
 35 68  1  0  0  0
 36 56  1  0  0  0
 36106  1  0  0  0
 37 39  1  0  0  0
 37 47  1  0  0  0
 37 66  1  0  0  0
 37107  1  0  0  0
 38 43  2  0  0  0
 38 46  1  0  0  0
 38 47  1  0  0  0
 39 64  1  0  0  0
 39 67  2  0  0  0
 40 52  1  0  0  0
 40 53  2  0  0  0
 40 58  1  0  0  0
 41108  1  0  0  0
 41109  1  0  0  0
 41110  1  0  0  0
 41 48  1  0  0  0
 42 43  1  0  0  0
 42 66  1  0  0  0
 42111  1  0  0  0
 42112  1  0  0  0
 43 44  1  0  0  0
 44113  1  0  0  0
 45 46  2  0  0  0
 45114  1  0  0  0
 46115  1  0  0  0
 47116  1  0  0  0
 47117  1  0  0  0
 48 56  1  0  0  0
 48 65  1  0  0  0
 48118  1  0  0  0
 49 50  1  0  0  0
 49 53  1  0  0  0
 49 64  1  0  0  0
 49119  1  0  0  0
 50 51  1  0  0  0
 50120  1  0  0  0
 50121  1  0  0  0
 51 52  1  0  0  0
 51122  1  0  0  0
 51123  1  0  0  0
 52124  1  0  0  0
 52125  1  0  0  0
 53 54  1  0  0  0
 54 55  2  0  0  0
 54126  1  0  0  0
 55 57  1  0  0  0
 55127  1  0  0  0
 56 69  2  0  0  0
 57 58  2  0  0  0
 57128  1  0  0  0
 58129  1  0  0  0
 59 60  1  0  0  0
 59 61  1  0  0  0
 59 62  1  0  0  0
 60130  1  0  0  0
 60131  1  0  0  0
 60132  1  0  0  0
 61133  1  0  0  0
 61134  1  0  0  0
 61135  1  0  0  0
 62136  1  0  0  0
 62137  1  0  0  0
 62138  1  0  0  0
 63 65  1  0  0  0
 63139  1  0  0  0
 63140  1  0  0  0
 63141  1  0  0  0
 64142  1  0  0  0
 65143  1  0  0  0
 68 80  1  0  0  0
 71 73  2  0  0  0
 71 81  1  0  0  0
 71144  1  0  0  0
 72 74  1  0  0  0
 72 75  1  0  0  0
 72 82  2  0  0  0
 73 82  1  0  0  0
 73 83  1  0  0  0
 74 81  2  0  0  0
 74 84  1  0  0  0
 75145  1  0  0  0
 75146  1  0  0  0
 75147  1  0  0  0
 76148  1  0  0  0
 76149  1  0  0  0
 76150  1  0  0  0
 76 79  1  0  0  0
 77151  1  0  0  0
 77152  1  0  0  0
 77153  1  0  0  0
 77 80  1  0  0  0
 78 79  1  0  0  0
 78 80  1  0  0  0
 78154  1  0  0  0
 78155  1  0  0  0
 79 84  1  0  0  0
 79156  1  0  0  0
 80157  1  0  0  0
 83158  1  0  0  0
 84159  1  0  0  0
M  ISO  4   1 100  68 101  80 101  83 100
M  END
> <chiral flag>
0

> <version>
0

> <s_m_source_file>
/data/baiqing/PycharmProjects/Reinvent-master-3.2/result/LINK_invent/BTK/process_docking_weight1_custom_product_contain_oxygen_bond_distance_aromatic_linkinvent_7_9_3/rearranged_h_0189.sdf

> <i_m_source_file_index>
52

> <r_mmod_Potential_Energy-OPLS-2005>
31.4006881713867

> <r_mmod_Stretch_Energy-OPLS-2005>
88.5196304321289

> <r_mmod_Bend_Energy-OPLS-2005>
157.603698730469

> <r_mmod_Torsional_Energy-OPLS-2005>
217.72135925293

> <r_mmod_Improper_Torsional_Energy-OPLS-2005>
3.95778727531433

> <r_mmod_Van_der_Waal_Energy-OPLS-2005>
147.600570678711

> <r_mmod_Electrostatic_Energy-OPLS-2005>
-398.870574951172

> <r_mmod_Solvation_Energy-OPLS-2005>
-234.262985229492

> <b_mmod_Minimization_Converged-OPLS-2005>
0

> <r_mmod_RMS_Derivative-OPLS-2005>
1.46579098701477

$$$$
52
                    3D
 Structure written by MMmdl.
160168  0  0  1  0            999 V2000
  -30.5500  -14.7834   20.4190 C   0  0  0  0  0  0
  -30.4300  -12.4700   19.4552 C   0  0  0  0  0  0
  -29.4965  -12.4841   18.2248 C   0  0  0  0  0  0
  -28.0358  -12.2763   18.6630 C   0  0  0  0  0  0
  -27.6299  -13.2123   19.8319 C   0  0  2  0  0  0
  -28.6743  -13.1668   20.9678 C   0  0  0  0  0  0
  -25.2478  -13.8150   20.5599 C   0  0  0  0  0  0
  -24.1763  -13.0423   20.9187 C   0  0  0  0  0  0
  -24.6331  -11.6894   20.8746 C   0  0  0  0  0  0
  -23.9014  -10.4274   21.0402 C   0  0  0  0  0  0
  -24.3597   -9.4215   21.9170 C   0  0  0  0  0  0
  -23.6298   -8.2229   22.0720 C   0  0  0  0  0  0
  -22.4280   -8.0240   21.3515 C   0  0  0  0  0  0
  -21.9892   -9.0213   20.4622 C   0  0  0  0  0  0
  -22.7199  -10.2114   20.3047 C   0  0  0  0  0  0
  -21.6856   -6.0725   22.5278 C   0  0  0  0  0  0
  -21.4012   -6.5647   23.8206 C   0  0  0  0  0  0
  -21.3653   -5.6817   24.9165 C   0  0  0  0  0  0
  -21.6029   -4.3058   24.7239 C   0  0  0  0  0  0
  -21.8820   -3.8152   23.4361 C   0  0  0  0  0  0
  -21.9186   -4.6954   22.3404 C   0  0  0  0  0  0
  -22.7813  -13.5222   21.1899 C   0  0  0  0  0  0
  -22.1660   -4.2147   21.0978 F   0  0  0  0  0  0
  -21.5635   -3.4531   25.7747 F   0  0  0  0  0  0
  -29.9628  -13.5350   20.3705 N   0  0  0  0  0  0
  -26.2853  -12.9325   20.3171 N   0  0  0  0  0  0
  -25.9239  -11.6490   20.5719 N   0  0  0  0  0  0
  -22.0483  -12.8179   22.0470 N   0  0  0  0  0  0
  -25.4101  -15.1891   20.3957 N   0  0  0  0  0  0
  -31.7629  -14.8895   20.1951 O   0  0  0  0  0  0
  -21.6636   -6.8856   21.4232 O   0  0  0  0  0  0
  -22.3447  -14.5518   20.6751 O   0  0  0  0  0  0
  -24.6325  -31.8609   23.2042 C   0  0  0  0  0  0
  -25.9166  -32.4764   23.8369 C   0  0  1  0  0  0
  -27.1978  -27.2510   20.1130 C   0  0  0  0  0  0
  -25.5986  -33.8575   24.2286 N   0  0  0  0  0  0
  -23.4272  -30.4925   21.5470 C   0  0  2  0  0  0
  -24.8662  -28.9381   20.1145 C   0  0  0  0  0  0
  -22.7469  -29.4687   22.4902 C   0  0  0  0  0  0
  -18.0317  -28.1400   22.8545 C   0  0  0  0  0  0
  -24.1503  -36.7280   23.2636 C   0  0  0  0  0  0
  -25.9763  -30.7618   21.3925 C   0  0  0  0  0  0
  -26.0414  -29.3870   20.7284 C   0  0  0  0  0  0
  -27.2100  -28.5554   20.7218 C   0  0  0  0  0  0
  -26.0034  -26.8964   19.4454 C   0  0  0  0  0  0
  -24.8481  -27.6992   19.4644 C   0  0  0  0  0  0
  -23.6488  -29.8410   20.1597 C   0  0  0  0  0  0
  -25.4128  -36.3072   24.0330 C   0  0  1  0  0  0
  -20.5929  -28.3759   23.1293 C   0  0  2  0  0  0
  -20.6775  -26.9445   22.5596 C   0  0  0  0  0  0
  -19.5807  -26.6399   21.5361 C   0  0  0  0  0  0
  -18.1944  -26.7925   22.1707 C   0  0  0  0  0  0
  -19.1575  -28.8881   23.2904 C   0  0  0  0  0  0
  -18.9495  -30.1504   23.8868 C   0  0  0  0  0  0
  -17.6497  -30.6643   24.0515 C   0  0  0  0  0  0
  -25.9078  -34.9444   23.5112 C   0  0  0  0  0  0
  -16.5379  -29.9132   23.6310 C   0  0  0  0  0  0
  -16.7298  -28.6507   23.0436 C   0  0  0  0  0  0
  -26.4522  -31.6591   25.0768 C   0  0  0  0  0  0
  -25.3744  -31.3773   26.1492 C   0  0  0  0  0  0
  -27.0401  -30.2998   24.6321 C   0  0  0  0  0  0
  -27.6067  -32.4352   25.7545 C   0  0  0  0  0  0
  -27.5587  -37.1802   24.8470 C   0  0  0  0  0  0
  -21.4205  -29.3010   22.3559 N   0  0  0  0  0  0
  -26.4293  -37.3772   23.9413 N   0  0  0  0  0  0
  -24.6963  -31.0570   22.1029 N   0  0  0  0  0  0
  -23.4115  -28.8291   23.3075 O   0  0  0  0  0  0
  -28.2655  -26.3157   20.1459 O   0  0  0  0  0  0
  -26.5617  -34.8903   22.4649 O   0  0  0  0  0  0
  -23.5478  -32.1465   23.7336 O   0  0  0  0  0  0
  -28.9160  -19.5047   22.1741 C   0  0  0  0  0  0
  -29.0192  -18.2781   22.8374 C   0  0  0  0  0  0
  -29.2169  -19.5565   20.8121 C   0  0  0  0  0  0
  -29.6444  -17.1821   20.9114 C   0  0  0  0  0  0
  -28.7278  -18.1815   24.3168 C   0  0  0  0  0  0
  -25.8972  -22.3804   21.3631 C   0  0  0  0  0  0
  -26.8853  -21.8046   20.3351 C   0  0  0  0  0  0
  -27.9224  -24.8574   20.3907 C   0  0  0  0  0  0
  -28.3970  -22.0738   20.6054 C   0  0  2  0  0  0
  -28.8651  -23.5543   20.0790 C   0  0  1  0  0  0
  -29.3793  -17.1451   22.2106 N   0  0  0  0  0  0
  -29.5547  -18.3568   20.1855 N   0  0  0  0  0  0
  -29.1850  -20.8461   20.1443 N   0  0  0  0  0  0
  -29.6855  -15.8722   20.3385 N   0  0  0  0  0  0
  -28.9438  -23.3950   18.6729 O   0  0  0  0  0  0
  -31.4672  -12.6110   19.1512 H   0  0  0  0  0  0
  -30.3932  -11.4991   19.9513 H   0  0  0  0  0  0
  -29.7851  -11.7039   17.5200 H   0  0  0  0  0  0
  -29.5932  -13.4300   17.6892 H   0  0  0  0  0  0
  -27.9422  -11.2373   18.9858 H   0  0  0  0  0  0
  -27.3555  -12.3838   17.8183 H   0  0  0  0  0  0
  -27.6132  -14.2202   19.4137 H   0  0  0  0  0  0
  -28.7246  -12.1684   21.4067 H   0  0  0  0  0  0
  -28.4060  -13.8448   21.7803 H   0  0  0  0  0  0
  -25.2718   -9.5729   22.4742 H   0  0  0  0  0  0
  -24.0013   -7.4624   22.7430 H   0  0  0  0  0  0
  -21.0822   -8.8742   19.8921 H   0  0  0  0  0  0
  -22.3639  -10.9665   19.6171 H   0  0  0  0  0  0
  -21.2016   -7.6151   23.9710 H   0  0  0  0  0  0
  -21.1462   -6.0530   25.9079 H   0  0  0  0  0  0
  -22.0605   -2.7606   23.2857 H   0  0  0  0  0  0
  -22.4147  -11.9886   22.4893 H   0  0  0  0  0  0
  -21.1086  -13.1168   22.2687 H   0  0  0  0  0  0
  -24.6108  -15.8125   20.4268 H   0  0  0  0  0  0
  -26.2477  -15.6481   20.0665 H   0  0  0  0  0  0
  -26.7211  -32.5420   23.1086 H   0  0  0  0  0  0
  -25.0184  -33.9713   25.0470 H   0  0  0  0  0  0
  -22.7288  -31.3222   21.4110 H   0  0  0  0  0  0
  -23.3770  -35.9612   23.3295 H   0  0  0  0  0  0
  -24.3595  -36.8900   22.2053 H   0  0  0  0  0  0
  -23.7259  -37.6482   23.6649 H   0  0  0  0  0  0
  -26.1372  -31.5259   20.6316 H   0  0  0  0  0  0
  -26.8417  -30.7897   22.0407 H   0  0  0  0  0  0
  -28.1037  -28.8957   21.2236 H   0  0  0  0  0  0
  -25.9349  -25.9810   18.8821 H   0  0  0  0  0  0
  -23.9504  -27.3624   18.9609 H   0  0  0  0  0  0
  -23.7974  -30.6305   19.4219 H   0  0  0  0  0  0
  -22.7602  -29.2995   19.8316 H   0  0  0  0  0  0
  -25.1313  -36.1904   25.0824 H   0  0  0  0  0  0
  -21.0077  -28.3477   24.1377 H   0  0  0  0  0  0
  -21.6655  -26.7342   22.1509 H   0  0  0  0  0  0
  -20.5597  -26.2436   23.3864 H   0  0  0  0  0  0
  -19.6998  -25.6328   21.1365 H   0  0  0  0  0  0
  -19.6736  -27.3244   20.6934 H   0  0  0  0  0  0
  -17.4218  -26.6741   21.4094 H   0  0  0  0  0  0
  -18.0299  -26.0028   22.9054 H   0  0  0  0  0  0
  -19.7964  -30.7355   24.2220 H   0  0  0  0  0  0
  -17.5045  -31.6368   24.5028 H   0  0  0  0  0  0
  -15.5381  -30.3064   23.7596 H   0  0  0  0  0  0
  -15.8675  -28.0791   22.7213 H   0  0  0  0  0  0
  -24.5903  -30.7136   25.7815 H   0  0  0  0  0  0
  -24.8972  -32.2969   26.4890 H   0  0  0  0  0  0
  -25.8045  -30.8964   27.0292 H   0  0  0  0  0  0
  -26.3011  -29.6733   24.1313 H   0  0  0  0  0  0
  -27.4018  -29.7264   25.4871 H   0  0  0  0  0  0
  -27.8918  -30.4268   23.9639 H   0  0  0  0  0  0
  -27.2640  -33.3645   26.2119 H   0  0  0  0  0  0
  -28.3859  -32.6939   25.0357 H   0  0  0  0  0  0
  -28.0756  -31.8507   26.5480 H   0  0  0  0  0  0
  -28.2606  -38.0094   24.7511 H   0  0  0  0  0  0
  -28.1077  -36.2631   24.6292 H   0  0  0  0  0  0
  -27.2319  -37.1454   25.8875 H   0  0  0  0  0  0
  -20.9384  -29.8577   21.6633 H   0  0  0  0  0  0
  -26.0175  -38.2857   24.1355 H   0  0  0  0  0  0
  -28.6356  -20.3773   22.7415 H   0  0  0  0  0  0
  -29.4674  -18.7467   24.8836 H   0  0  0  0  0  0
  -28.7627  -17.1465   24.6530 H   0  0  0  0  0  0
  -27.7368  -18.5786   24.5428 H   0  0  0  0  0  0
  -25.5492  -23.3766   21.0990 H   0  0  0  0  0  0
  -26.3189  -22.4247   22.3658 H   0  0  0  0  0  0
  -25.0064  -21.7525   21.4133 H   0  0  0  0  0  0
  -26.5918  -22.1459   19.3407 H   0  0  0  0  0  0
  -26.7118  -20.7288   20.3337 H   0  0  0  0  0  0
  -27.7032  -24.8302   21.4599 H   0  0  0  0  0  0
  -26.9790  -24.6054   19.9218 H   0  0  0  0  0  0
  -28.5306  -22.1250   21.6861 H   0  0  0  0  0  0
  -29.8700  -23.7548   20.4605 H   0  0  0  0  0  0
  -29.5234  -20.8760   19.1886 H   0  0  0  0  0  0
  -28.7505  -15.5277   20.2201 H   0  0  0  0  0  0
  -28.0915  -23.0841   18.3808 H   0  0  0  0  0  0
  1 25  1  0  0  0
  1 30  2  0  0  0
  1 84  1  0  0  0
  2  3  1  0  0  0
  2 25  1  0  0  0
  2 86  1  0  0  0
  2 87  1  0  0  0
  3  4  1  0  0  0
  3 88  1  0  0  0
  3 89  1  0  0  0
  4  5  1  0  0  0
  4 90  1  0  0  0
  4 91  1  0  0  0
  5  6  1  0  0  0
  5 26  1  0  0  0
  5 92  1  0  0  0
  6 25  1  0  0  0
  6 93  1  0  0  0
  6 94  1  0  0  0
  7  8  2  0  0  0
  7 26  1  0  0  0
  7 29  1  0  0  0
  8  9  1  0  0  0
  8 22  1  0  0  0
  9 10  1  0  0  0
  9 27  2  0  0  0
 10 11  2  0  0  0
 10 15  1  0  0  0
 11 12  1  0  0  0
 11 95  1  0  0  0
 12 13  2  0  0  0
 12 96  1  0  0  0
 13 14  1  0  0  0
 13 31  1  0  0  0
 14 15  2  0  0  0
 14 97  1  0  0  0
 15 98  1  0  0  0
 16 17  2  0  0  0
 16 21  1  0  0  0
 16 31  1  0  0  0
 17 18  1  0  0  0
 17 99  1  0  0  0
 18 19  2  0  0  0
 18100  1  0  0  0
 19 20  1  0  0  0
 19 24  1  0  0  0
 20 21  2  0  0  0
 20101  1  0  0  0
 21 23  1  0  0  0
 22 28  1  0  0  0
 22 32  2  0  0  0
 26 27  1  0  0  0
 28102  1  0  0  0
 28103  1  0  0  0
 29104  1  0  0  0
 29105  1  0  0  0
 33 34  1  0  0  0
 33 66  1  0  0  0
 33 70  2  0  0  0
 34 36  1  0  0  0
 34 59  1  0  0  0
 34106  1  0  0  0
 35 44  2  0  0  0
 35 45  1  0  0  0
 35 68  1  0  0  0
 36 56  1  0  0  0
 36107  1  0  0  0
 37 39  1  0  0  0
 37 47  1  0  0  0
 37 66  1  0  0  0
 37108  1  0  0  0
 38 43  2  0  0  0
 38 46  1  0  0  0
 38 47  1  0  0  0
 39 64  1  0  0  0
 39 67  2  0  0  0
 40 52  1  0  0  0
 40 53  2  0  0  0
 40 58  1  0  0  0
 41109  1  0  0  0
 41110  1  0  0  0
 41111  1  0  0  0
 41 48  1  0  0  0
 42 43  1  0  0  0
 42 66  1  0  0  0
 42112  1  0  0  0
 42113  1  0  0  0
 43 44  1  0  0  0
 44114  1  0  0  0
 45 46  2  0  0  0
 45115  1  0  0  0
 46116  1  0  0  0
 47117  1  0  0  0
 47118  1  0  0  0
 48 56  1  0  0  0
 48 65  1  0  0  0
 48119  1  0  0  0
 49 50  1  0  0  0
 49 53  1  0  0  0
 49 64  1  0  0  0
 49120  1  0  0  0
 50 51  1  0  0  0
 50121  1  0  0  0
 50122  1  0  0  0
 51 52  1  0  0  0
 51123  1  0  0  0
 51124  1  0  0  0
 52125  1  0  0  0
 52126  1  0  0  0
 53 54  1  0  0  0
 54 55  2  0  0  0
 54127  1  0  0  0
 55 57  1  0  0  0
 55128  1  0  0  0
 56 69  2  0  0  0
 57 58  2  0  0  0
 57129  1  0  0  0
 58130  1  0  0  0
 59 60  1  0  0  0
 59 61  1  0  0  0
 59 62  1  0  0  0
 60131  1  0  0  0
 60132  1  0  0  0
 60133  1  0  0  0
 61134  1  0  0  0
 61135  1  0  0  0
 61136  1  0  0  0
 62137  1  0  0  0
 62138  1  0  0  0
 62139  1  0  0  0
 63 65  1  0  0  0
 63140  1  0  0  0
 63141  1  0  0  0
 63142  1  0  0  0
 64143  1  0  0  0
 65144  1  0  0  0
 68 78  1  0  0  0
 71 72  2  0  0  0
 71 73  1  0  0  0
 71145  1  0  0  0
 72 75  1  0  0  0
 72 81  1  0  0  0
 73 82  2  0  0  0
 73 83  1  0  0  0
 74 81  2  0  0  0
 74 82  1  0  0  0
 74 84  1  0  0  0
 75146  1  0  0  0
 75147  1  0  0  0
 75148  1  0  0  0
 76 77  1  0  0  0
 76149  1  0  0  0
 76150  1  0  0  0
 76151  1  0  0  0
 77152  1  0  0  0
 77153  1  0  0  0
 77 79  1  0  0  0
 78 80  1  0  0  0
 78154  1  0  0  0
 78155  1  0  0  0
 79 80  1  0  0  0
 79 83  1  0  0  0
 79156  1  0  0  0
 80 85  1  0  0  0
 80157  1  0  0  0
 83158  1  0  0  0
 84159  1  0  0  0
 85160  1  0  0  0
M  ISO  4   1 100  68 101  78 101  84 100
M  END
> <chiral flag>
0

> <version>
0

> <s_m_source_file>
/data/baiqing/PycharmProjects/Reinvent-master-3.2/result/LINK_invent/BTK/process_docking_weight1_custom_product_contain_oxygen_bond_distance_aromatic_linkinvent_7_9_3/rearranged_h_0189.sdf

> <i_m_source_file_index>
53

> <r_mmod_Potential_Energy-OPLS-2005>
-262.681793212891

> <r_mmod_Stretch_Energy-OPLS-2005>
134.515579223633

> <r_mmod_Bend_Energy-OPLS-2005>
198.548538208008

> <r_mmod_Torsional_Energy-OPLS-2005>
301.250701904297

> <r_mmod_Improper_Torsional_Energy-OPLS-2005>
16.00537109375

> <r_mmod_Van_der_Waal_Energy-OPLS-2005>
149.619369506836

> <r_mmod_Electrostatic_Energy-OPLS-2005>
-913.860229492188

> <r_mmod_Solvation_Energy-OPLS-2005>
-254.924118041992

> <b_mmod_Minimization_Converged-OPLS-2005>
0

> <r_mmod_RMS_Derivative-OPLS-2005>
5.84110546112061

$$$$
53
                    3D
 Structure written by MMmdl.
165173  0  0  1  0            999 V2000
  -30.6400  -14.5747   20.5731 C   0  0  0  0  0  0
  -30.4490  -12.3745   19.4297 C   0  0  0  0  0  0
  -29.5055  -12.5217   18.2162 C   0  0  0  0  0  0
  -28.0287  -12.3639   18.6299 C   0  0  0  0  0  0
  -27.6664  -13.2064   19.8803 C   0  0  2  0  0  0
  -28.7133  -12.9952   20.9983 C   0  0  0  0  0  0
  -25.2609  -13.8162   20.5723 C   0  0  0  0  0  0
  -24.1841  -13.0434   20.9177 C   0  0  0  0  0  0
  -24.6411  -11.6895   20.8728 C   0  0  0  0  0  0
  -23.9065  -10.4291   21.0415 C   0  0  0  0  0  0
  -24.3609   -9.4208   21.9200 C   0  0  0  0  0  0
  -23.6293   -8.2231   22.0753 C   0  0  0  0  0  0
  -22.4270   -8.0277   21.3548 C   0  0  0  0  0  0
  -21.9905   -9.0251   20.4646 C   0  0  0  0  0  0
  -22.7232  -10.2143   20.3069 C   0  0  0  0  0  0
  -21.6841   -6.0732   22.5288 C   0  0  0  0  0  0
  -21.4014   -6.5635   23.8214 C   0  0  0  0  0  0
  -21.3677   -5.6798   24.9169 C   0  0  0  0  0  0
  -21.6051   -4.3059   24.7225 C   0  0  0  0  0  0
  -21.8822   -3.8150   23.4343 C   0  0  0  0  0  0
  -21.9189   -4.6965   22.3398 C   0  0  0  0  0  0
  -22.7867  -13.5237   21.1837 C   0  0  0  0  0  0
  -22.1661   -4.2150   21.0969 F   0  0  0  0  0  0
  -21.5627   -3.4538   25.7734 F   0  0  0  0  0  0
  -30.0359  -13.3512   20.4534 N   0  0  0  0  0  0
  -26.3052  -12.9344   20.3389 N   0  0  0  0  0  0
  -25.9344  -11.6497   20.5767 N   0  0  0  0  0  0
  -22.0516  -12.8247   22.0423 N   0  0  0  0  0  0
  -25.4356  -15.1870   20.4196 N   0  0  0  0  0  0
  -31.7380  -14.8156   20.0656 O   0  0  0  0  0  0
  -21.6639   -6.8875   21.4247 O   0  0  0  0  0  0
  -22.3577  -14.5559   20.6711 O   0  0  0  0  0  0
  -24.6166  -31.8691   23.2089 C   0  0  0  0  0  0
  -25.9046  -32.4823   23.8390 C   0  0  1  0  0  0
  -27.2391  -27.4155   20.1025 C   0  0  0  0  0  0
  -25.5889  -33.8622   24.2330 N   0  0  0  0  0  0
  -23.4027  -30.4959   21.5469 C   0  0  2  0  0  0
  -24.8539  -28.9474   20.1207 C   0  0  0  0  0  0
  -22.7412  -29.4721   22.4985 C   0  0  0  0  0  0
  -18.0300  -28.1328   22.8489 C   0  0  0  0  0  0
  -24.1489  -36.7334   23.2642 C   0  0  0  0  0  0
  -25.9309  -30.8229   21.3643 C   0  0  0  0  0  0
  -26.0104  -29.4450   20.7364 C   0  0  0  0  0  0
  -27.2019  -28.6743   20.7469 C   0  0  0  0  0  0
  -26.0767  -26.9583   19.4459 C   0  0  0  0  0  0
  -24.8779  -27.6975   19.4816 C   0  0  0  0  0  0
  -23.6169  -29.8190   20.1642 C   0  0  0  0  0  0
  -25.4086  -36.3112   24.0358 C   0  0  1  0  0  0
  -20.5880  -28.3702   23.1346 C   0  0  2  0  0  0
  -20.6759  -26.9389   22.5551 C   0  0  0  0  0  0
  -19.5838  -26.6398   21.5242 C   0  0  0  0  0  0
  -18.1985  -26.7903   22.1585 C   0  0  0  0  0  0
  -19.1524  -28.8831   23.2883 C   0  0  0  0  0  0
  -18.9453  -30.1470   23.8827 C   0  0  0  0  0  0
  -17.6445  -30.6580   24.0480 C   0  0  0  0  0  0
  -25.8989  -34.9485   23.5136 C   0  0  0  0  0  0
  -16.5351  -29.9013   23.6303 C   0  0  0  0  0  0
  -16.7280  -28.6394   23.0389 C   0  0  0  0  0  0
  -26.4470  -31.6547   25.0696 C   0  0  0  0  0  0
  -25.3767  -31.3647   26.1475 C   0  0  0  0  0  0
  -27.0286  -30.3009   24.5975 C   0  0  0  0  0  0
  -27.6047  -32.4234   25.7463 C   0  0  0  0  0  0
  -27.5569  -37.1827   24.8462 C   0  0  0  0  0  0
  -21.4140  -29.3087   22.3746 N   0  0  0  0  0  0
  -26.4275  -37.3785   23.9420 N   0  0  0  0  0  0
  -24.6689  -31.0779   22.1002 N   0  0  0  0  0  0
  -23.4188  -28.8282   23.3034 O   0  0  0  0  0  0
  -28.4087  -26.6833   20.0212 O   0  0  0  0  0  0
  -26.5549  -34.8951   22.4697 O   0  0  0  0  0  0
  -23.5357  -32.1454   23.7491 O   0  0  0  0  0  0
  -29.5707  -18.7724   22.7379 C   0  0  0  0  0  0
  -29.8044  -19.4384   21.5443 C   0  0  0  0  0  0
  -29.9687  -16.9152   21.4275 C   0  0  0  0  0  0
  -29.8075  -21.7282   20.4732 C   0  0  0  0  0  0
  -27.2154  -23.5329   20.1787 C   0  0  0  0  0  0
  -27.6605  -19.4044   24.2371 C   0  0  0  0  0  0
  -29.7712  -20.7560   24.3834 C   0  0  0  0  0  0
  -29.7580  -18.4498   25.2346 C   0  0  0  0  0  0
  -29.6608  -23.2082   20.9523 C   0  0  0  0  0  0
  -28.5739  -25.5745   20.9296 C   0  0  0  0  0  0
  -28.6228  -24.1596   20.2548 C   0  0  2  0  0  0
  -29.1925  -19.3439   24.1106 C   0  0  0  0  0  0
  -29.5631  -17.3731   22.6075 N   0  0  0  0  0  0
  -29.6735  -20.8034   21.4427 N   0  0  0  0  0  0
  -29.9066  -15.4900   21.2552 N   0  0  0  0  0  0
  -30.0583  -21.4625   19.2970 O   0  0  0  0  0  0
  -30.2715  -18.2558   20.2871 S   0  0  0  0  0  0
  -31.4861  -12.5165   19.1207 H   0  0  0  0  0  0
  -30.3943  -11.3643   19.8369 H   0  0  0  0  0  0
  -29.7557  -11.7830   17.4548 H   0  0  0  0  0  0
  -29.6530  -13.4990   17.7542 H   0  0  0  0  0  0
  -27.8559  -11.3068   18.8397 H   0  0  0  0  0  0
  -27.3709  -12.6242   17.7993 H   0  0  0  0  0  0
  -27.7056  -14.2536   19.5778 H   0  0  0  0  0  0
  -28.7205  -11.9543   21.3245 H   0  0  0  0  0  0
  -28.4504  -13.5672   21.8881 H   0  0  0  0  0  0
  -25.2756   -9.5677   22.4768 H   0  0  0  0  0  0
  -24.0003   -7.4634   22.7471 H   0  0  0  0  0  0
  -21.0829   -8.8788   19.8949 H   0  0  0  0  0  0
  -22.3698  -10.9693   19.6176 H   0  0  0  0  0  0
  -21.2003   -7.6153   23.9721 H   0  0  0  0  0  0
  -21.1499   -6.0515   25.9077 H   0  0  0  0  0  0
  -22.0580   -2.7612   23.2842 H   0  0  0  0  0  0
  -22.4108  -11.9883   22.4786 H   0  0  0  0  0  0
  -21.1150  -13.1306   22.2646 H   0  0  0  0  0  0
  -24.6793  -15.8503   20.5456 H   0  0  0  0  0  0
  -26.2980  -15.6299   20.1295 H   0  0  0  0  0  0
  -26.7127  -32.5543   23.1171 H   0  0  0  0  0  0
  -25.0130  -33.9729   25.0542 H   0  0  0  0  0  0
  -22.6921  -31.3144   21.4026 H   0  0  0  0  0  0
  -23.3736  -35.9672   23.3275 H   0  0  0  0  0  0
  -24.3624  -36.8977   22.2061 H   0  0  0  0  0  0
  -23.7241  -37.6552   23.6649 H   0  0  0  0  0  0
  -26.0135  -31.5679   20.5715 H   0  0  0  0  0  0
  -26.8301  -30.9101   21.9605 H   0  0  0  0  0  0
  -28.0897  -29.0434   21.2424 H   0  0  0  0  0  0
  -26.1029  -26.0479   18.8713 H   0  0  0  0  0  0
  -23.9914  -27.3236   18.9841 H   0  0  0  0  0  0
  -23.7237  -30.5841   19.3941 H   0  0  0  0  0  0
  -22.7393  -29.2405   19.8682 H   0  0  0  0  0  0
  -25.1260  -36.1993   25.0847 H   0  0  0  0  0  0
  -20.9987  -28.3337   24.1469 H   0  0  0  0  0  0
  -20.5460  -26.2363   23.3799 H   0  0  0  0  0  0
  -21.6687  -26.7297   22.1565 H   0  0  0  0  0  0
  -19.7049  -25.6345   21.1183 H   0  0  0  0  0  0
  -19.6827  -27.3306   20.6848 H   0  0  0  0  0  0
  -17.4322  -26.6683   21.3929 H   0  0  0  0  0  0
  -18.0328  -26.0020   22.8946 H   0  0  0  0  0  0
  -19.7910  -30.7322   24.2154 H   0  0  0  0  0  0
  -17.4970  -31.6317   24.4975 H   0  0  0  0  0  0
  -15.5344  -30.2888   23.7596 H   0  0  0  0  0  0
  -15.8692  -28.0644   22.7179 H   0  0  0  0  0  0
  -24.5966  -30.6924   25.7880 H   0  0  0  0  0  0
  -24.8926  -32.2802   26.4880 H   0  0  0  0  0  0
  -25.8192  -30.8913   27.0246 H   0  0  0  0  0  0
  -26.2792  -29.6788   24.1064 H   0  0  0  0  0  0
  -27.4179  -29.7202   25.4341 H   0  0  0  0  0  0
  -27.8563  -30.4391   23.9014 H   0  0  0  0  0  0
  -27.2656  -33.3530   26.2032 H   0  0  0  0  0  0
  -28.3859  -32.6769   25.0286 H   0  0  0  0  0  0
  -28.0669  -31.8340   26.5390 H   0  0  0  0  0  0
  -28.2579  -38.0131   24.7501 H   0  0  0  0  0  0
  -28.1077  -36.2673   24.6267 H   0  0  0  0  0  0
  -27.2318  -37.1457   25.8875 H   0  0  0  0  0  0
  -20.9287  -29.8893   21.7051 H   0  0  0  0  0  0
  -26.0187  -38.2877   24.1408 H   0  0  0  0  0  0
  -27.2224  -22.6140   19.5955 H   0  0  0  0  0  0
  -26.5056  -24.2020   19.7008 H   0  0  0  0  0  0
  -26.8197  -23.2933   21.1662 H   0  0  0  0  0  0
  -27.2208  -20.0493   23.4747 H   0  0  0  0  0  0
  -27.3518  -19.7895   25.2093 H   0  0  0  0  0  0
  -27.2215  -18.4153   24.1180 H   0  0  0  0  0  0
  -29.2774  -21.5439   23.8172 H   0  0  0  0  0  0
  -30.8429  -20.7994   24.1785 H   0  0  0  0  0  0
  -29.6351  -21.0434   25.4265 H   0  0  0  0  0  0
  -29.3658  -17.4337   25.1856 H   0  0  0  0  0  0
  -29.4977  -18.8414   26.2183 H   0  0  0  0  0  0
  -30.8456  -18.3871   25.1825 H   0  0  0  0  0  0
  -30.6509  -23.6642   20.8786 H   0  0  0  0  0  0
  -29.4478  -23.2017   22.0212 H   0  0  0  0  0  0
  -29.5269  -25.7353   21.4349 H   0  0  0  0  0  0
  -27.8301  -25.6143   21.7269 H   0  0  0  0  0  0
  -28.9707  -24.3260   19.2368 H   0  0  0  0  0  0
  -29.4110  -21.2243   22.3221 H   0  0  0  0  0  0
  -29.1502  -15.0662   21.7684 H   0  0  0  0  0  0
  1 25  1  0  0  0
  1 30  2  0  0  0
  1 85  1  0  0  0
  2  3  1  0  0  0
  2 25  1  0  0  0
  2 88  1  0  0  0
  2 89  1  0  0  0
  3  4  1  0  0  0
  3 90  1  0  0  0
  3 91  1  0  0  0
  4  5  1  0  0  0
  4 92  1  0  0  0
  4 93  1  0  0  0
  5  6  1  0  0  0
  5 26  1  0  0  0
  5 94  1  0  0  0
  6 25  1  0  0  0
  6 95  1  0  0  0
  6 96  1  0  0  0
  7  8  2  0  0  0
  7 26  1  0  0  0
  7 29  1  0  0  0
  8  9  1  0  0  0
  8 22  1  0  0  0
  9 10  1  0  0  0
  9 27  2  0  0  0
 10 11  2  0  0  0
 10 15  1  0  0  0
 11 12  1  0  0  0
 11 97  1  0  0  0
 12 13  2  0  0  0
 12 98  1  0  0  0
 13 14  1  0  0  0
 13 31  1  0  0  0
 14 15  2  0  0  0
 14 99  1  0  0  0
 15100  1  0  0  0
 16 17  2  0  0  0
 16 21  1  0  0  0
 16 31  1  0  0  0
 17 18  1  0  0  0
 17101  1  0  0  0
 18 19  2  0  0  0
 18102  1  0  0  0
 19 20  1  0  0  0
 19 24  1  0  0  0
 20 21  2  0  0  0
 20103  1  0  0  0
 21 23  1  0  0  0
 22 28  1  0  0  0
 22 32  2  0  0  0
 26 27  1  0  0  0
 28104  1  0  0  0
 28105  1  0  0  0
 29106  1  0  0  0
 29107  1  0  0  0
 33 34  1  0  0  0
 33 66  1  0  0  0
 33 70  2  0  0  0
 34 36  1  0  0  0
 34 59  1  0  0  0
 34108  1  0  0  0
 35 44  2  0  0  0
 35 45  1  0  0  0
 35 68  1  0  0  0
 36 56  1  0  0  0
 36109  1  0  0  0
 37 39  1  0  0  0
 37 47  1  0  0  0
 37 66  1  0  0  0
 37110  1  0  0  0
 38 43  2  0  0  0
 38 46  1  0  0  0
 38 47  1  0  0  0
 39 64  1  0  0  0
 39 67  2  0  0  0
 40 52  1  0  0  0
 40 53  2  0  0  0
 40 58  1  0  0  0
 41111  1  0  0  0
 41112  1  0  0  0
 41113  1  0  0  0
 41 48  1  0  0  0
 42 43  1  0  0  0
 42 66  1  0  0  0
 42114  1  0  0  0
 42115  1  0  0  0
 43 44  1  0  0  0
 44116  1  0  0  0
 45 46  2  0  0  0
 45117  1  0  0  0
 46118  1  0  0  0
 47119  1  0  0  0
 47120  1  0  0  0
 48 56  1  0  0  0
 48 65  1  0  0  0
 48121  1  0  0  0
 49 50  1  0  0  0
 49 53  1  0  0  0
 49 64  1  0  0  0
 49122  1  0  0  0
 50 51  1  0  0  0
 50123  1  0  0  0
 50124  1  0  0  0
 51 52  1  0  0  0
 51125  1  0  0  0
 51126  1  0  0  0
 52127  1  0  0  0
 52128  1  0  0  0
 53 54  1  0  0  0
 54 55  2  0  0  0
 54129  1  0  0  0
 55 57  1  0  0  0
 55130  1  0  0  0
 56 69  2  0  0  0
 57 58  2  0  0  0
 57131  1  0  0  0
 58132  1  0  0  0
 59 60  1  0  0  0
 59 61  1  0  0  0
 59 62  1  0  0  0
 60133  1  0  0  0
 60134  1  0  0  0
 60135  1  0  0  0
 61136  1  0  0  0
 61137  1  0  0  0
 61138  1  0  0  0
 62139  1  0  0  0
 62140  1  0  0  0
 62141  1  0  0  0
 63 65  1  0  0  0
 63142  1  0  0  0
 63143  1  0  0  0
 63144  1  0  0  0
 64145  1  0  0  0
 65146  1  0  0  0
 68 80  1  0  0  0
 71 72  2  0  0  0
 71 82  1  0  0  0
 71 83  1  0  0  0
 72 84  1  0  0  0
 72 87  1  0  0  0
 73 83  2  0  0  0
 73 85  1  0  0  0
 73 87  1  0  0  0
 74 79  1  0  0  0
 74 84  1  0  0  0
 74 86  2  0  0  0
 75147  1  0  0  0
 75148  1  0  0  0
 75149  1  0  0  0
 75 81  1  0  0  0
 76150  1  0  0  0
 76151  1  0  0  0
 76152  1  0  0  0
 76 82  1  0  0  0
 77 82  1  0  0  0
 77153  1  0  0  0
 77154  1  0  0  0
 77155  1  0  0  0
 78 82  1  0  0  0
 78156  1  0  0  0
 78157  1  0  0  0
 78158  1  0  0  0
 79 81  1  0  0  0
 79159  1  0  0  0
 79160  1  0  0  0
 80 81  1  0  0  0
 80161  1  0  0  0
 80162  1  0  0  0
 81163  1  0  0  0
 84164  1  0  0  0
 85165  1  0  0  0
M  ISO  4   1 100  68 101  80 101  85 100
M  END
> <chiral flag>
0

> <version>
0

> <s_m_source_file>
/data/baiqing/PycharmProjects/Reinvent-master-3.2/result/LINK_invent/BTK/process_docking_weight1_custom_product_contain_oxygen_bond_distance_aromatic_linkinvent_7_9_3/rearranged_h_0189.sdf

> <i_m_source_file_index>
54

> <r_mmod_Potential_Energy-OPLS-2005>
-84.2507247924805

> <r_mmod_Stretch_Energy-OPLS-2005>
50.0882949829102

> <r_mmod_Bend_Energy-OPLS-2005>
168.655426025391

> <r_mmod_Torsional_Energy-OPLS-2005>
234.836364746094

> <r_mmod_Improper_Torsional_Energy-OPLS-2005>
3.74394965171814

> <r_mmod_Van_der_Waal_Energy-OPLS-2005>
127.416221618652

> <r_mmod_Electrostatic_Energy-OPLS-2005>
-462.644836425781

> <r_mmod_Solvation_Energy-OPLS-2005>
-228.850067138672

> <b_mmod_Minimization_Converged-OPLS-2005>
0

> <r_mmod_RMS_Derivative-OPLS-2005>
5.23746824264526

$$$$
54
                    3D
 Structure written by MMmdl.
159167  0  0  1  0            999 V2000
  -30.5828  -14.7349   20.4885 C   0  0  0  0  0  0
  -30.4427  -12.4529   19.4770 C   0  0  0  0  0  0
  -29.5145  -12.5089   18.2419 C   0  0  0  0  0  0
  -28.0400  -12.3278   18.6541 C   0  0  0  0  0  0
  -27.6437  -13.2236   19.8577 C   0  0  2  0  0  0
  -28.6840  -13.1286   20.9954 C   0  0  0  0  0  0
  -25.2495  -13.8183   20.5685 C   0  0  0  0  0  0
  -24.1789  -13.0418   20.9197 C   0  0  0  0  0  0
  -24.6379  -11.6904   20.8729 C   0  0  0  0  0  0
  -23.9061  -10.4270   21.0399 C   0  0  0  0  0  0
  -24.3616   -9.4186   21.9179 C   0  0  0  0  0  0
  -23.6285   -8.2224   22.0751 C   0  0  0  0  0  0
  -22.4267   -8.0264   21.3537 C   0  0  0  0  0  0
  -21.9904   -9.0234   20.4636 C   0  0  0  0  0  0
  -22.7229  -10.2113   20.3044 C   0  0  0  0  0  0
  -21.6840   -6.0718   22.5263 C   0  0  0  0  0  0
  -21.4019   -6.5631   23.8193 C   0  0  0  0  0  0
  -21.3666   -5.6782   24.9158 C   0  0  0  0  0  0
  -21.6045   -4.3045   24.7210 C   0  0  0  0  0  0
  -21.8821   -3.8133   23.4331 C   0  0  0  0  0  0
  -21.9197   -4.6953   22.3385 C   0  0  0  0  0  0
  -22.7807  -13.5192   21.1896 C   0  0  0  0  0  0
  -22.1655   -4.2146   21.0958 F   0  0  0  0  0  0
  -21.5640   -3.4529   25.7724 F   0  0  0  0  0  0
  -29.9917  -13.4918   20.4300 N   0  0  0  0  0  0
  -26.2918  -12.9372   20.3269 N   0  0  0  0  0  0
  -25.9307  -11.6521   20.5744 N   0  0  0  0  0  0
  -22.0500  -12.8144   22.0472 N   0  0  0  0  0  0
  -25.4154  -15.1898   20.4062 N   0  0  0  0  0  0
  -31.7582  -14.8737   20.1329 O   0  0  0  0  0  0
  -21.6625   -6.8865   21.4225 O   0  0  0  0  0  0
  -22.3473  -14.5495   20.6770 O   0  0  0  0  0  0
  -24.6330  -31.8547   23.2028 C   0  0  0  0  0  0
  -25.9151  -32.4758   23.8347 C   0  0  1  0  0  0
  -27.2096  -27.2576   20.1352 C   0  0  0  0  0  0
  -25.5936  -33.8565   24.2269 N   0  0  0  0  0  0
  -23.4266  -30.4891   21.5442 C   0  0  2  0  0  0
  -24.8681  -28.9241   20.1237 C   0  0  0  0  0  0
  -22.7468  -29.4682   22.4898 C   0  0  0  0  0  0
  -18.0276  -28.1416   22.8465 C   0  0  0  0  0  0
  -24.1485  -36.7287   23.2642 C   0  0  0  0  0  0
  -25.9754  -30.7616   21.3852 C   0  0  0  0  0  0
  -26.0432  -29.3828   20.7344 C   0  0  0  0  0  0
  -27.2190  -28.5635   20.7314 C   0  0  0  0  0  0
  -26.0219  -26.8756   19.4810 C   0  0  0  0  0  0
  -24.8605  -27.6716   19.4910 C   0  0  0  0  0  0
  -23.6461  -29.8252   20.1613 C   0  0  0  0  0  0
  -25.4095  -36.3069   24.0334 C   0  0  1  0  0  0
  -20.5886  -28.3735   23.1235 C   0  0  2  0  0  0
  -20.6787  -26.9444   22.5389 C   0  0  0  0  0  0
  -19.5767  -26.6378   21.5204 C   0  0  0  0  0  0
  -18.1938  -26.7946   22.1598 C   0  0  0  0  0  0
  -19.1537  -28.8872   23.2860 C   0  0  0  0  0  0
  -18.9485  -30.1462   23.8902 C   0  0  0  0  0  0
  -17.6497  -30.6622   24.0580 C   0  0  0  0  0  0
  -25.9027  -34.9445   23.5093 C   0  0  0  0  0  0
  -16.5378  -29.9138   23.6351 C   0  0  0  0  0  0
  -16.7262  -28.6561   23.0336 C   0  0  0  0  0  0
  -26.4502  -31.6589   25.0757 C   0  0  0  0  0  0
  -25.3724  -31.3789   26.1502 C   0  0  0  0  0  0
  -27.0353  -30.3000   24.6257 C   0  0  0  0  0  0
  -27.6017  -32.4346   25.7550 C   0  0  0  0  0  0
  -27.5567  -37.1796   24.8464 C   0  0  0  0  0  0
  -21.4168  -29.3112   22.3628 N   0  0  0  0  0  0
  -26.4265  -37.3770   23.9421 N   0  0  0  0  0  0
  -24.6985  -31.0524   22.0999 N   0  0  0  0  0  0
  -23.4164  -28.8198   23.2980 O   0  0  0  0  0  0
  -28.3098  -26.3759   20.0689 O   0  0  0  0  0  0
  -26.5610  -34.8923   22.4669 O   0  0  0  0  0  0
  -23.5475  -32.1382   23.7309 O   0  0  0  0  0  0
  -30.6556  -19.4040   20.1359 C   0  0  0  0  0  0
  -29.4339  -19.8612   20.6355 C   0  0  0  0  0  0
  -29.8420  -17.2716   20.6756 C   0  0  0  0  0  0
  -29.0963  -22.4251   20.3503 C   0  0  0  0  0  0
  -31.7814  -20.2238   19.5859 C   0  0  0  0  0  0
  -26.3934  -21.0898   18.5301 C   0  0  0  0  0  0
  -25.9767  -22.1208   19.5903 C   0  0  0  0  0  0
  -26.7814  -23.4457   19.5976 C   0  0  0  0  0  0
  -28.3804  -25.1330   20.9143 C   0  0  0  0  0  0
  -27.9899  -23.5721   20.5666 C   0  0  2  0  0  0
  -30.8590  -17.9860   20.1647 N   0  0  0  0  0  0
  -28.8403  -21.1313   20.7876 N   0  0  0  0  0  0
  -29.7548  -15.7997   20.7968 N   0  0  0  0  0  0
  -30.1599  -22.7375   19.8172 O   0  0  0  0  0  0
  -28.5391  -18.4025   21.1613 S   0  0  0  0  0  0
  -31.4794  -12.6022   19.1714 H   0  0  0  0  0  0
  -30.4098  -11.4689   19.9473 H   0  0  0  0  0  0
  -29.7983  -11.7367   17.5264 H   0  0  0  0  0  0
  -29.6397  -13.4638   17.7305 H   0  0  0  0  0  0
  -27.8985  -11.2778   18.9172 H   0  0  0  0  0  0
  -27.3819  -12.5187   17.8064 H   0  0  0  0  0  0
  -27.6452  -14.2490   19.4880 H   0  0  0  0  0  0
  -28.7146  -12.1198   21.4086 H   0  0  0  0  0  0
  -28.4077  -13.7836   21.8229 H   0  0  0  0  0  0
  -25.2778   -9.5648   22.4736 H   0  0  0  0  0  0
  -23.9989   -7.4612   22.7475 H   0  0  0  0  0  0
  -21.0838   -8.8742   19.8932 H   0  0  0  0  0  0
  -22.3699  -10.9645   19.6136 H   0  0  0  0  0  0
  -21.2005   -7.6142   23.9694 H   0  0  0  0  0  0
  -21.1496   -6.0513   25.9061 H   0  0  0  0  0  0
  -22.0608   -2.7600   23.2817 H   0  0  0  0  0  0
  -22.4142  -11.9768   22.4764 H   0  0  0  0  0  0
  -21.1128  -13.1133   22.2772 H   0  0  0  0  0  0
  -24.6382  -15.8332   20.5153 H   0  0  0  0  0  0
  -26.2307  -15.6265   19.9969 H   0  0  0  0  0  0
  -26.7211  -32.5389   23.1079 H   0  0  0  0  0  0
  -25.0188  -33.9700   25.0489 H   0  0  0  0  0  0
  -22.7276  -31.3180   21.4021 H   0  0  0  0  0  0
  -23.3748  -35.9616   23.3282 H   0  0  0  0  0  0
  -24.3623  -36.8922   22.2065 H   0  0  0  0  0  0
  -23.7231  -37.6479   23.6679 H   0  0  0  0  0  0
  -26.1184  -31.5133   20.6074 H   0  0  0  0  0  0
  -26.8532  -30.8109   22.0174 H   0  0  0  0  0  0
  -28.1238  -28.9232   21.2026 H   0  0  0  0  0  0
  -25.9853  -25.9531   18.9277 H   0  0  0  0  0  0
  -23.9672  -27.3167   18.9943 H   0  0  0  0  0  0
  -23.7913  -30.6074   19.4153 H   0  0  0  0  0  0
  -22.7555  -29.2793   19.8451 H   0  0  0  0  0  0
  -25.1277  -36.1910   25.0822 H   0  0  0  0  0  0
  -20.9993  -28.3335   24.1357 H   0  0  0  0  0  0
  -20.5678  -26.2358   23.3615 H   0  0  0  0  0  0
  -21.6657  -26.7468   22.1194 H   0  0  0  0  0  0
  -19.6948  -25.6280   21.1266 H   0  0  0  0  0  0
  -19.6721  -27.3162   20.6730 H   0  0  0  0  0  0
  -17.4200  -26.6660   21.4017 H   0  0  0  0  0  0
  -18.0354  -26.0112   22.9018 H   0  0  0  0  0  0
  -19.7976  -30.7256   24.2271 H   0  0  0  0  0  0
  -17.5088  -31.6309   24.5176 H   0  0  0  0  0  0
  -15.5394  -30.3074   23.7693 H   0  0  0  0  0  0
  -15.8649  -28.0926   22.7037 H   0  0  0  0  0  0
  -24.5871  -30.7152   25.7886 H   0  0  0  0  0  0
  -24.8975  -32.2991   26.4896 H   0  0  0  0  0  0
  -25.8058  -30.9006   27.0300 H   0  0  0  0  0  0
  -26.2958  -29.6748   24.1248 H   0  0  0  0  0  0
  -27.4012  -29.7268   25.4788 H   0  0  0  0  0  0
  -27.8838  -30.4296   23.9540 H   0  0  0  0  0  0
  -27.2582  -33.3639   26.2111 H   0  0  0  0  0  0
  -28.3853  -32.6906   25.0407 H   0  0  0  0  0  0
  -28.0661  -31.8498   26.5498 H   0  0  0  0  0  0
  -28.2547  -38.0128   24.7518 H   0  0  0  0  0  0
  -28.1102  -36.2656   24.6249 H   0  0  0  0  0  0
  -27.2327  -37.1396   25.8883 H   0  0  0  0  0  0
  -20.9326  -29.8874   21.6881 H   0  0  0  0  0  0
  -26.0140  -38.2837   24.1448 H   0  0  0  0  0  0
  -32.1591  -20.9219   20.3330 H   0  0  0  0  0  0
  -31.4646  -20.7981   18.7159 H   0  0  0  0  0  0
  -32.6188  -19.6029   19.2641 H   0  0  0  0  0  0
  -25.8358  -20.1605   18.6592 H   0  0  0  0  0  0
  -27.4512  -20.8430   18.5660 H   0  0  0  0  0  0
  -26.1815  -21.4545   17.5251 H   0  0  0  0  0  0
  -25.9662  -21.6688   20.5831 H   0  0  0  0  0  0
  -24.9322  -22.3669   19.3871 H   0  0  0  0  0  0
  -26.0583  -24.1768   19.9532 H   0  0  0  0  0  0
  -27.0542  -23.7406   18.5826 H   0  0  0  0  0  0
  -29.4199  -25.1068   21.2489 H   0  0  0  0  0  0
  -27.8374  -25.3834   21.8276 H   0  0  0  0  0  0
  -27.5817  -23.2471   21.5241 H   0  0  0  0  0  0
  -27.9508  -21.0782   21.2623 H   0  0  0  0  0  0
  -28.8408  -15.4919   21.0901 H   0  0  0  0  0  0
  1 25  1  0  0  0
  1 30  2  0  0  0
  1 83  1  0  0  0
  2  3  1  0  0  0
  2 25  1  0  0  0
  2 86  1  0  0  0
  2 87  1  0  0  0
  3  4  1  0  0  0
  3 88  1  0  0  0
  3 89  1  0  0  0
  4  5  1  0  0  0
  4 90  1  0  0  0
  4 91  1  0  0  0
  5  6  1  0  0  0
  5 26  1  0  0  0
  5 92  1  0  0  0
  6 25  1  0  0  0
  6 93  1  0  0  0
  6 94  1  0  0  0
  7  8  2  0  0  0
  7 26  1  0  0  0
  7 29  1  0  0  0
  8  9  1  0  0  0
  8 22  1  0  0  0
  9 10  1  0  0  0
  9 27  2  0  0  0
 10 11  2  0  0  0
 10 15  1  0  0  0
 11 12  1  0  0  0
 11 95  1  0  0  0
 12 13  2  0  0  0
 12 96  1  0  0  0
 13 14  1  0  0  0
 13 31  1  0  0  0
 14 15  2  0  0  0
 14 97  1  0  0  0
 15 98  1  0  0  0
 16 17  2  0  0  0
 16 21  1  0  0  0
 16 31  1  0  0  0
 17 18  1  0  0  0
 17 99  1  0  0  0
 18 19  2  0  0  0
 18100  1  0  0  0
 19 20  1  0  0  0
 19 24  1  0  0  0
 20 21  2  0  0  0
 20101  1  0  0  0
 21 23  1  0  0  0
 22 28  1  0  0  0
 22 32  2  0  0  0
 26 27  1  0  0  0
 28102  1  0  0  0
 28103  1  0  0  0
 29104  1  0  0  0
 29105  1  0  0  0
 33 34  1  0  0  0
 33 66  1  0  0  0
 33 70  2  0  0  0
 34 36  1  0  0  0
 34 59  1  0  0  0
 34106  1  0  0  0
 35 44  2  0  0  0
 35 45  1  0  0  0
 35 68  1  0  0  0
 36 56  1  0  0  0
 36107  1  0  0  0
 37 39  1  0  0  0
 37 47  1  0  0  0
 37 66  1  0  0  0
 37108  1  0  0  0
 38 43  2  0  0  0
 38 46  1  0  0  0
 38 47  1  0  0  0
 39 64  1  0  0  0
 39 67  2  0  0  0
 40 52  1  0  0  0
 40 53  2  0  0  0
 40 58  1  0  0  0
 41109  1  0  0  0
 41110  1  0  0  0
 41111  1  0  0  0
 41 48  1  0  0  0
 42 43  1  0  0  0
 42 66  1  0  0  0
 42112  1  0  0  0
 42113  1  0  0  0
 43 44  1  0  0  0
 44114  1  0  0  0
 45 46  2  0  0  0
 45115  1  0  0  0
 46116  1  0  0  0
 47117  1  0  0  0
 47118  1  0  0  0
 48 56  1  0  0  0
 48 65  1  0  0  0
 48119  1  0  0  0
 49 50  1  0  0  0
 49 53  1  0  0  0
 49 64  1  0  0  0
 49120  1  0  0  0
 50 51  1  0  0  0
 50121  1  0  0  0
 50122  1  0  0  0
 51 52  1  0  0  0
 51123  1  0  0  0
 51124  1  0  0  0
 52125  1  0  0  0
 52126  1  0  0  0
 53 54  1  0  0  0
 54 55  2  0  0  0
 54127  1  0  0  0
 55 57  1  0  0  0
 55128  1  0  0  0
 56 69  2  0  0  0
 57 58  2  0  0  0
 57129  1  0  0  0
 58130  1  0  0  0
 59 60  1  0  0  0
 59 61  1  0  0  0
 59 62  1  0  0  0
 60131  1  0  0  0
 60132  1  0  0  0
 60133  1  0  0  0
 61134  1  0  0  0
 61135  1  0  0  0
 61136  1  0  0  0
 62137  1  0  0  0
 62138  1  0  0  0
 62139  1  0  0  0
 63 65  1  0  0  0
 63140  1  0  0  0
 63141  1  0  0  0
 63142  1  0  0  0
 64143  1  0  0  0
 65144  1  0  0  0
 68 79  1  0  0  0
 71 72  2  0  0  0
 71 75  1  0  0  0
 71 81  1  0  0  0
 72 82  1  0  0  0
 72 85  1  0  0  0
 73 81  2  0  0  0
 73 83  1  0  0  0
 73 85  1  0  0  0
 74 80  1  0  0  0
 74 82  1  0  0  0
 74 84  2  0  0  0
 75145  1  0  0  0
 75146  1  0  0  0
 75147  1  0  0  0
 76 77  1  0  0  0
 76148  1  0  0  0
 76149  1  0  0  0
 76150  1  0  0  0
 77 78  1  0  0  0
 77151  1  0  0  0
 77152  1  0  0  0
 78153  1  0  0  0
 78154  1  0  0  0
 78 80  1  0  0  0
 79 80  1  0  0  0
 79155  1  0  0  0
 79156  1  0  0  0
 80157  1  0  0  0
 82158  1  0  0  0
 83159  1  0  0  0
M  ISO  4   1 100  68 101  79 101  83 100
M  END
> <chiral flag>
0

> <version>
0

> <s_m_source_file>
/data/baiqing/PycharmProjects/Reinvent-master-3.2/result/LINK_invent/BTK/process_docking_weight1_custom_product_contain_oxygen_bond_distance_aromatic_linkinvent_7_9_3/rearranged_h_0189.sdf

> <i_m_source_file_index>
55

> <r_mmod_Potential_Energy-OPLS-2005>
136.134048461914

> <r_mmod_Stretch_Energy-OPLS-2005>
115.936416625977

> <r_mmod_Bend_Energy-OPLS-2005>
232.542984008789

> <r_mmod_Torsional_Energy-OPLS-2005>
244.498809814453

> <r_mmod_Improper_Torsional_Energy-OPLS-2005>
4.45233631134033

> <r_mmod_Van_der_Waal_Energy-OPLS-2005>
109.912246704102

> <r_mmod_Electrostatic_Energy-OPLS-2005>
-407.200164794922

> <r_mmod_Solvation_Energy-OPLS-2005>
-244.121536254883

> <b_mmod_Minimization_Converged-OPLS-2005>
0

> <r_mmod_RMS_Derivative-OPLS-2005>
3.33360695838928

$$$$
55
                    3D
 Structure written by MMmdl.
157166  0  0  1  0            999 V2000
  -30.5088  -14.9917   20.4192 C   0  0  0  0  0  0
  -30.4384  -12.6023   19.5345 C   0  0  0  0  0  0
  -29.5325  -12.5191   18.2811 C   0  0  0  0  0  0
  -28.0698  -12.2869   18.6999 C   0  0  0  0  0  0
  -27.6298  -13.2407   19.8400 C   0  0  2  0  0  0
  -28.6598  -13.2856   20.9894 C   0  0  0  0  0  0
  -25.2494  -13.8185   20.5713 C   0  0  0  0  0  0
  -24.1791  -13.0442   20.9249 C   0  0  0  0  0  0
  -24.6367  -11.6918   20.8756 C   0  0  0  0  0  0
  -23.9045  -10.4296   21.0400 C   0  0  0  0  0  0
  -24.3606   -9.4221   21.9177 C   0  0  0  0  0  0
  -23.6303   -8.2251   22.0756 C   0  0  0  0  0  0
  -22.4279   -8.0270   21.3555 C   0  0  0  0  0  0
  -21.9910   -9.0222   20.4644 C   0  0  0  0  0  0
  -22.7222  -10.2114   20.3044 C   0  0  0  0  0  0
  -21.6844   -6.0735   22.5282 C   0  0  0  0  0  0
  -21.4012   -6.5641   23.8215 C   0  0  0  0  0  0
  -21.3663   -5.6794   24.9180 C   0  0  0  0  0  0
  -21.6038   -4.3053   24.7228 C   0  0  0  0  0  0
  -21.8818   -3.8146   23.4345 C   0  0  0  0  0  0
  -21.9205   -4.6968   22.3406 C   0  0  0  0  0  0
  -22.7812  -13.5225   21.1899 C   0  0  0  0  0  0
  -22.1663   -4.2158   21.0989 F   0  0  0  0  0  0
  -21.5632   -3.4540   25.7740 F   0  0  0  0  0  0
  -29.9362  -13.7120   20.4062 N   0  0  0  0  0  0
  -26.2876  -12.9395   20.3217 N   0  0  0  0  0  0
  -25.9293  -11.6535   20.5717 N   0  0  0  0  0  0
  -22.0444  -12.8204   22.0425 N   0  0  0  0  0  0
  -25.4221  -15.1907   20.4132 N   0  0  0  0  0  0
  -31.7091  -15.0311   20.1051 O   0  0  0  0  0  0
  -21.6648   -6.8866   21.4240 O   0  0  0  0  0  0
  -22.3520  -14.5534   20.6738 O   0  0  0  0  0  0
  -24.6470  -31.8394   23.1837 C   0  0  0  0  0  0
  -25.9228  -32.4673   23.8228 C   0  0  1  0  0  0
  -27.1916  -27.0656   20.1722 C   0  0  0  0  0  0
  -25.5997  -33.8488   24.2161 N   0  0  0  0  0  0
  -23.4529  -30.4580   21.5322 C   0  0  2  0  0  0
  -24.8980  -28.8732   20.1104 C   0  0  0  0  0  0
  -22.7564  -29.4550   22.4858 C   0  0  0  0  0  0
  -18.0278  -28.1411   22.8465 C   0  0  0  0  0  0
  -24.1498  -36.7232   23.2639 C   0  0  0  0  0  0
  -26.0102  -30.6928   21.3894 C   0  0  0  0  0  0
  -26.0775  -29.2930   20.7406 C   0  0  0  0  0  0
  -27.2243  -28.4047   20.7520 C   0  0  0  0  0  0
  -25.9953  -26.7691   19.4878 C   0  0  0  0  0  0
  -24.8728  -27.6248   19.4707 C   0  0  0  0  0  0
  -23.6795  -29.7856   20.1530 C   0  0  0  0  0  0
  -25.4132  -36.3003   24.0304 C   0  0  1  0  0  0
  -20.5897  -28.3754   23.1234 C   0  0  2  0  0  0
  -20.6801  -26.9454   22.5418 C   0  0  0  0  0  0
  -19.5778  -26.6402   21.5223 C   0  0  0  0  0  0
  -18.1950  -26.7957   22.1596 C   0  0  0  0  0  0
  -19.1535  -28.8889   23.2845 C   0  0  0  0  0  0
  -18.9470  -30.1500   23.8866 C   0  0  0  0  0  0
  -17.6474  -30.6622   24.0558 C   0  0  0  0  0  0
  -25.9080  -34.9396   23.5015 C   0  0  0  0  0  0
  -16.5361  -29.9125   23.6336 C   0  0  0  0  0  0
  -16.7267  -28.6529   23.0357 C   0  0  0  0  0  0
  -26.4550  -31.6537   25.0673 C   0  0  0  0  0  0
  -25.3735  -31.3785   26.1378 C   0  0  0  0  0  0
  -27.0367  -30.2906   24.6261 C   0  0  0  0  0  0
  -27.6119  -32.4271   25.7418 C   0  0  0  0  0  0
  -27.5555  -37.1762   24.8465 C   0  0  0  0  0  0
  -21.4239  -29.3070   22.3603 N   0  0  0  0  0  0
  -26.4264  -37.3743   23.9418 N   0  0  0  0  0  0
  -24.7262  -31.0169   22.0925 N   0  0  0  0  0  0
  -23.4148  -28.8073   23.3031 O   0  0  0  0  0  0
  -28.2204  -26.0357   20.2127 O   0  0  0  0  0  0
  -26.5670  -34.8893   22.4591 O   0  0  0  0  0  0
  -23.5581  -32.1301   23.7028 O   0  0  0  0  0  0
  -29.6600  -20.0474   18.8315 C   0  0  0  0  0  0
  -30.1729  -18.8660   18.2721 C   0  0  0  0  0  0
  -25.0860  -21.1730   21.7045 C   0  0  0  0  0  0
  -26.3790  -21.3044   22.1257 C   0  0  0  0  0  0
  -29.1675  -20.0394   20.1421 C   0  0  0  0  0  0
  -29.7493  -17.5841   20.1582 C   0  0  0  0  0  0
  -30.3080  -23.4712   20.4198 C   0  0  0  0  0  0
  -27.9162  -24.5004   20.4789 C   0  0  0  0  0  0
  -28.5509  -21.4820   20.7537 C   0  0  1  0  0  0
  -28.8434  -23.0868   20.1605 C   0  0  2  0  0  0
  -30.2214  -17.6856   18.9229 N   0  0  0  0  0  0
  -25.0843  -21.1145   20.3101 N   0  0  0  0  0  0
  -29.2078  -18.7422   20.7675 N   0  0  0  0  0  0
  -26.3029  -21.2004   19.8714 N   0  0  0  0  0  0
  -27.1128  -21.3242   20.9498 N   0  0  0  0  0  0
  -29.7457  -16.1857   20.6795 N   0  0  0  0  0  0
  -31.4769  -12.7476   19.2336 H   0  0  0  0  0  0
  -30.4274  -11.6514   20.0711 H   0  0  0  0  0  0
  -29.8667  -11.7085   17.6323 H   0  0  0  0  0  0
  -29.6141  -13.4365   17.6964 H   0  0  0  0  0  0
  -27.9990  -11.2556   19.0483 H   0  0  0  0  0  0
  -27.3970  -12.3633   17.8449 H   0  0  0  0  0  0
  -27.5926  -14.2359   19.3960 H   0  0  0  0  0  0
  -28.7528  -12.3115   21.4702 H   0  0  0  0  0  0
  -28.3412  -13.9795   21.7677 H   0  0  0  0  0  0
  -25.2720   -9.5735   22.4775 H   0  0  0  0  0  0
  -24.0015   -7.4644   22.7473 H   0  0  0  0  0  0
  -21.0849   -8.8703   19.8938 H   0  0  0  0  0  0
  -22.3636  -10.9645   19.6172 H   0  0  0  0  0  0
  -21.1975   -7.6149   23.9724 H   0  0  0  0  0  0
  -21.1489   -6.0524   25.9086 H   0  0  0  0  0  0
  -22.0594   -2.7618   23.2834 H   0  0  0  0  0  0
  -22.4039  -11.9836   22.4787 H   0  0  0  0  0  0
  -21.1053  -13.1220   22.2609 H   0  0  0  0  0  0
  -24.6571  -15.8462   20.5254 H   0  0  0  0  0  0
  -26.2582  -15.6145   20.0344 H   0  0  0  0  0  0
  -26.7272  -32.5274   23.0933 H   0  0  0  0  0  0
  -25.0197  -33.9643   25.0338 H   0  0  0  0  0  0
  -22.7594  -31.2859   21.3764 H   0  0  0  0  0  0
  -23.3784  -35.9536   23.3255 H   0  0  0  0  0  0
  -24.3606  -36.8911   22.2069 H   0  0  0  0  0  0
  -23.7214  -37.6392   23.6719 H   0  0  0  0  0  0
  -26.1611  -31.4343   20.6027 H   0  0  0  0  0  0
  -26.8862  -30.7569   22.0240 H   0  0  0  0  0  0
  -28.1189  -28.7176   21.2714 H   0  0  0  0  0  0
  -25.9006  -25.8273   18.9661 H   0  0  0  0  0  0
  -23.9729  -27.2999   18.9637 H   0  0  0  0  0  0
  -23.8189  -30.5634   19.3992 H   0  0  0  0  0  0
  -22.7909  -29.2358   19.8374 H   0  0  0  0  0  0
  -25.1313  -36.1800   25.0796 H   0  0  0  0  0  0
  -20.9963  -28.3356   24.1361 H   0  0  0  0  0  0
  -20.5758  -26.2357   23.3648 H   0  0  0  0  0  0
  -21.6670  -26.7515   22.1178 H   0  0  0  0  0  0
  -19.6983  -25.6312   21.1283 H   0  0  0  0  0  0
  -19.6739  -27.3201   20.6759 H   0  0  0  0  0  0
  -17.4235  -26.6685   21.4001 H   0  0  0  0  0  0
  -18.0312  -26.0132   22.9006 H   0  0  0  0  0  0
  -19.7966  -30.7317   24.2212 H   0  0  0  0  0  0
  -17.5039  -31.6290   24.5185 H   0  0  0  0  0  0
  -15.5377  -30.3019   23.7735 H   0  0  0  0  0  0
  -15.8639  -28.0873   22.7087 H   0  0  0  0  0  0
  -24.5913  -30.7116   25.7706 H   0  0  0  0  0  0
  -24.8938  -32.3008   26.4684 H   0  0  0  0  0  0
  -25.8004  -30.9024   27.0215 H   0  0  0  0  0  0
  -26.2940  -29.6653   24.1285 H   0  0  0  0  0  0
  -27.3977  -29.7181   25.4817 H   0  0  0  0  0  0
  -27.8876  -30.4106   23.9547 H   0  0  0  0  0  0
  -27.2800  -33.3719   26.1740 H   0  0  0  0  0  0
  -28.4049  -32.6560   25.0273 H   0  0  0  0  0  0
  -28.0629  -31.8514   26.5510 H   0  0  0  0  0  0
  -28.2549  -38.0073   24.7492 H   0  0  0  0  0  0
  -28.1027  -36.2589   24.6265 H   0  0  0  0  0  0
  -27.2273  -37.1387   25.8864 H   0  0  0  0  0  0
  -20.9451  -29.8716   21.6732 H   0  0  0  0  0  0
  -26.0095  -38.2774   24.1470 H   0  0  0  0  0  0
  -29.6394  -20.9492   18.2381 H   0  0  0  0  0  0
  -30.5478  -18.8605   17.2589 H   0  0  0  0  0  0
  -24.1685  -21.1173   22.2829 H   0  0  0  0  0  0
  -26.8116  -21.3796   23.1183 H   0  0  0  0  0  0
  -30.5587  -24.3839   19.8748 H   0  0  0  0  0  0
  -31.0012  -22.6952   20.0940 H   0  0  0  0  0  0
  -30.4790  -23.6671   21.4783 H   0  0  0  0  0  0
  -27.7319  -24.4852   21.5522 H   0  0  0  0  0  0
  -26.9436  -24.2785   20.0459 H   0  0  0  0  0  0
  -28.9607  -21.4920   21.7645 H   0  0  0  0  0  0
  -28.7645  -22.9725   19.0820 H   0  0  0  0  0  0
  -28.9258  -15.9944   21.2277 H   0  0  0  0  0  0
  1 25  1  0  0  0
  1 30  2  0  0  0
  1 86  1  0  0  0
  2  3  1  0  0  0
  2 25  1  0  0  0
  2 87  1  0  0  0
  2 88  1  0  0  0
  3  4  1  0  0  0
  3 89  1  0  0  0
  3 90  1  0  0  0
  4  5  1  0  0  0
  4 91  1  0  0  0
  4 92  1  0  0  0
  5  6  1  0  0  0
  5 26  1  0  0  0
  5 93  1  0  0  0
  6 25  1  0  0  0
  6 94  1  0  0  0
  6 95  1  0  0  0
  7  8  2  0  0  0
  7 26  1  0  0  0
  7 29  1  0  0  0
  8  9  1  0  0  0
  8 22  1  0  0  0
  9 10  1  0  0  0
  9 27  2  0  0  0
 10 11  2  0  0  0
 10 15  1  0  0  0
 11 12  1  0  0  0
 11 96  1  0  0  0
 12 13  2  0  0  0
 12 97  1  0  0  0
 13 14  1  0  0  0
 13 31  1  0  0  0
 14 15  2  0  0  0
 14 98  1  0  0  0
 15 99  1  0  0  0
 16 17  2  0  0  0
 16 21  1  0  0  0
 16 31  1  0  0  0
 17 18  1  0  0  0
 17100  1  0  0  0
 18 19  2  0  0  0
 18101  1  0  0  0
 19 20  1  0  0  0
 19 24  1  0  0  0
 20 21  2  0  0  0
 20102  1  0  0  0
 21 23  1  0  0  0
 22 28  1  0  0  0
 22 32  2  0  0  0
 26 27  1  0  0  0
 28103  1  0  0  0
 28104  1  0  0  0
 29105  1  0  0  0
 29106  1  0  0  0
 33 34  1  0  0  0
 33 66  1  0  0  0
 33 70  2  0  0  0
 34 36  1  0  0  0
 34 59  1  0  0  0
 34107  1  0  0  0
 35 44  2  0  0  0
 35 45  1  0  0  0
 35 68  1  0  0  0
 36 56  1  0  0  0
 36108  1  0  0  0
 37 39  1  0  0  0
 37 47  1  0  0  0
 37 66  1  0  0  0
 37109  1  0  0  0
 38 43  2  0  0  0
 38 46  1  0  0  0
 38 47  1  0  0  0
 39 64  1  0  0  0
 39 67  2  0  0  0
 40 52  1  0  0  0
 40 53  2  0  0  0
 40 58  1  0  0  0
 41110  1  0  0  0
 41111  1  0  0  0
 41112  1  0  0  0
 41 48  1  0  0  0
 42 43  1  0  0  0
 42 66  1  0  0  0
 42113  1  0  0  0
 42114  1  0  0  0
 43 44  1  0  0  0
 44115  1  0  0  0
 45 46  2  0  0  0
 45116  1  0  0  0
 46117  1  0  0  0
 47118  1  0  0  0
 47119  1  0  0  0
 48 56  1  0  0  0
 48 65  1  0  0  0
 48120  1  0  0  0
 49 50  1  0  0  0
 49 53  1  0  0  0
 49 64  1  0  0  0
 49121  1  0  0  0
 50 51  1  0  0  0
 50122  1  0  0  0
 50123  1  0  0  0
 51 52  1  0  0  0
 51124  1  0  0  0
 51125  1  0  0  0
 52126  1  0  0  0
 52127  1  0  0  0
 53 54  1  0  0  0
 54 55  2  0  0  0
 54128  1  0  0  0
 55 57  1  0  0  0
 55129  1  0  0  0
 56 69  2  0  0  0
 57 58  2  0  0  0
 57130  1  0  0  0
 58131  1  0  0  0
 59 60  1  0  0  0
 59 61  1  0  0  0
 59 62  1  0  0  0
 60132  1  0  0  0
 60133  1  0  0  0
 60134  1  0  0  0
 61135  1  0  0  0
 61136  1  0  0  0
 61137  1  0  0  0
 62138  1  0  0  0
 62139  1  0  0  0
 62140  1  0  0  0
 63 65  1  0  0  0
 63141  1  0  0  0
 63142  1  0  0  0
 63143  1  0  0  0
 64144  1  0  0  0
 65145  1  0  0  0
 68 78  1  0  0  0
 71 72  2  0  0  0
 71 75  1  0  0  0
 71146  1  0  0  0
 72 81  1  0  0  0
 72147  1  0  0  0
 73 74  2  0  0  0
 73 82  1  0  0  0
 73148  1  0  0  0
 74 85  1  0  0  0
 74149  1  0  0  0
 75 79  1  0  0  0
 75 83  2  0  0  0
 76 81  2  0  0  0
 76 83  1  0  0  0
 76 86  1  0  0  0
 77150  1  0  0  0
 77151  1  0  0  0
 77152  1  0  0  0
 77 80  1  0  0  0
 78 80  1  0  0  0
 78153  1  0  0  0
 78154  1  0  0  0
 79 80  1  0  0  0
 79 85  1  0  0  0
 79155  1  0  0  0
 80156  1  0  0  0
 82 84  2  0  0  0
 84 85  1  0  0  0
 86157  1  0  0  0
M  ISO  4   1 100  68 101  78 101  86 100
M  END
> <chiral flag>
0

> <version>
0

> <s_m_source_file>
/data/baiqing/PycharmProjects/Reinvent-master-3.2/result/LINK_invent/BTK/process_docking_weight1_custom_product_contain_oxygen_bond_distance_aromatic_linkinvent_7_9_3/rearranged_h_0189.sdf

> <i_m_source_file_index>
56

> <r_mmod_Potential_Energy-OPLS-2005>
255.744689941406

> <r_mmod_Stretch_Energy-OPLS-2005>
333.769470214844

> <r_mmod_Bend_Energy-OPLS-2005>
294.715515136719

> <r_mmod_Torsional_Energy-OPLS-2005>
256.385314941406

> <r_mmod_Improper_Torsional_Energy-OPLS-2005>
3.33498907089233

> <r_mmod_Van_der_Waal_Energy-OPLS-2005>
120.50569152832

> <r_mmod_Electrostatic_Energy-OPLS-2005>
-722.494079589844

> <r_mmod_Solvation_Energy-OPLS-2005>
-269.112609863281

> <b_mmod_Minimization_Converged-OPLS-2005>
0

> <r_mmod_RMS_Derivative-OPLS-2005>
4.45969867706299

$$$$
56
                    3D
 Structure written by MMmdl.
157165  0  0  1  0            999 V2000
  -30.6524  -14.5756   20.6571 C   0  0  0  0  0  0
  -30.4416  -12.4041   19.4308 C   0  0  0  0  0  0
  -29.5030  -12.5602   18.2130 C   0  0  0  0  0  0
  -28.0230  -12.3820   18.6133 C   0  0  0  0  0  0
  -27.6611  -13.2012   19.8798 C   0  0  2  0  0  0
  -28.7047  -12.9280   20.9816 C   0  0  0  0  0  0
  -25.2565  -13.8139   20.5650 C   0  0  0  0  0  0
  -24.1823  -13.0414   20.9178 C   0  0  0  0  0  0
  -24.6379  -11.6885   20.8731 C   0  0  0  0  0  0
  -23.9049  -10.4277   21.0410 C   0  0  0  0  0  0
  -24.3608   -9.4197   21.9187 C   0  0  0  0  0  0
  -23.6288   -8.2231   22.0749 C   0  0  0  0  0  0
  -22.4270   -8.0273   21.3539 C   0  0  0  0  0  0
  -21.9904   -9.0245   20.4638 C   0  0  0  0  0  0
  -22.7227  -10.2125   20.3053 C   0  0  0  0  0  0
  -21.6840   -6.0732   22.5283 C   0  0  0  0  0  0
  -21.4006   -6.5635   23.8218 C   0  0  0  0  0  0
  -21.3664   -5.6790   24.9181 C   0  0  0  0  0  0
  -21.6047   -4.3054   24.7229 C   0  0  0  0  0  0
  -21.8821   -3.8147   23.4349 C   0  0  0  0  0  0
  -21.9190   -4.6962   22.3405 C   0  0  0  0  0  0
  -22.7848  -13.5210   21.1853 C   0  0  0  0  0  0
  -22.1658   -4.2142   21.0984 F   0  0  0  0  0  0
  -21.5633   -3.4544   25.7747 F   0  0  0  0  0  0
  -30.0127  -13.3677   20.4724 N   0  0  0  0  0  0
  -26.3008  -12.9293   20.3358 N   0  0  0  0  0  0
  -25.9301  -11.6462   20.5739 N   0  0  0  0  0  0
  -22.0488  -12.8197   22.0407 N   0  0  0  0  0  0
  -25.4239  -15.1850   20.4013 N   0  0  0  0  0  0
  -31.7287  -14.7631   20.0750 O   0  0  0  0  0  0
  -21.6632   -6.8874   21.4241 O   0  0  0  0  0  0
  -22.3529  -14.5516   20.6712 O   0  0  0  0  0  0
  -24.6222  -31.8634   23.2054 C   0  0  0  0  0  0
  -25.9087  -32.4801   23.8378 C   0  0  1  0  0  0
  -27.2338  -27.3691   20.1114 C   0  0  0  0  0  0
  -25.5932  -33.8599   24.2321 N   0  0  0  0  0  0
  -23.4123  -30.4864   21.5477 C   0  0  2  0  0  0
  -24.8589  -28.9386   20.1222 C   0  0  0  0  0  0
  -22.7440  -29.4651   22.4967 C   0  0  0  0  0  0
  -18.0279  -28.1382   22.8480 C   0  0  0  0  0  0
  -24.1493  -36.7299   23.2636 C   0  0  0  0  0  0
  -25.9476  -30.8124   21.3657 C   0  0  0  0  0  0
  -26.0253  -29.4398   20.7137 C   0  0  0  0  0  0
  -27.2177  -28.6679   20.6922 C   0  0  0  0  0  0
  -26.0404  -26.8915   19.5289 C   0  0  0  0  0  0
  -24.8638  -27.6657   19.5259 C   0  0  0  0  0  0
  -23.6262  -29.8163   20.1651 C   0  0  0  0  0  0
  -25.4116  -36.3098   24.0332 C   0  0  1  0  0  0
  -20.5871  -28.3687   23.1297 C   0  0  2  0  0  0
  -20.6780  -26.9421   22.5403 C   0  0  0  0  0  0
  -19.5755  -26.6389   21.5206 C   0  0  0  0  0  0
  -18.1929  -26.7931   22.1610 C   0  0  0  0  0  0
  -19.1530  -28.8847   23.2884 C   0  0  0  0  0  0
  -18.9459  -30.1446   23.8904 C   0  0  0  0  0  0
  -17.6460  -30.6586   24.0567 C   0  0  0  0  0  0
  -25.9038  -34.9460   23.5120 C   0  0  0  0  0  0
  -16.5350  -29.9089   23.6329 C   0  0  0  0  0  0
  -16.7266  -28.6505   23.0351 C   0  0  0  0  0  0
  -26.4500  -31.6590   25.0728 C   0  0  0  0  0  0
  -25.3751  -31.3686   26.1457 C   0  0  0  0  0  0
  -27.0347  -30.3035   24.6120 C   0  0  0  0  0  0
  -27.6080  -32.4310   25.7489 C   0  0  0  0  0  0
  -27.5583  -37.1803   24.8465 C   0  0  0  0  0  0
  -21.4167  -29.3051   22.3706 N   0  0  0  0  0  0
  -26.4300  -37.3787   23.9404 N   0  0  0  0  0  0
  -24.6793  -31.0694   22.0980 N   0  0  0  0  0  0
  -23.4186  -28.8199   23.3032 O   0  0  0  0  0  0
  -28.4052  -26.6206   20.0534 O   0  0  0  0  0  0
  -26.5590  -34.8918   22.4674 O   0  0  0  0  0  0
  -23.5396  -32.1422   23.7409 O   0  0  0  0  0  0
  -31.5986  -17.9012   21.6854 C   0  0  0  0  0  0
  -30.5007  -17.2219   21.2076 C   0  0  0  0  0  0
  -29.9933  -19.4121   20.5760 C   0  0  0  0  0  0
  -29.2847  -21.8185   20.2584 C   0  0  0  0  0  0
  -28.7401  -15.7609   22.2179 C   0  0  0  0  0  0
  -28.2485  -22.1756   17.9280 C   0  0  0  0  0  0
  -27.9310  -24.0961   19.5707 C   0  0  0  0  0  0
  -28.4325  -25.2364   20.5263 C   0  0  0  0  0  0
  -30.1549  -15.7620   21.6050 C   0  0  1  0  0  0
  -28.8526  -22.8679   19.1723 C   0  0  1  0  0  0
  -29.6192  -18.1075   20.5143 N   0  0  0  0  0  0
  -29.2536  -20.4852   19.9610 N   0  0  0  0  0  0
  -29.6419  -22.2352   21.3619 O   0  0  0  0  0  0
  -31.5412  -19.6219   21.3868 S   0  0  0  0  0  0
  -31.4782  -12.5488   19.1236 H   0  0  0  0  0  0
  -30.4029  -11.3833   19.8144 H   0  0  0  0  0  0
  -29.7710  -11.8487   17.4321 H   0  0  0  0  0  0
  -29.6420  -13.5522   17.7803 H   0  0  0  0  0  0
  -27.8478  -11.3211   18.7961 H   0  0  0  0  0  0
  -27.3715  -12.6607   17.7842 H   0  0  0  0  0  0
  -27.7131  -14.2551   19.6075 H   0  0  0  0  0  0
  -28.7322  -11.8551   21.1813 H   0  0  0  0  0  0
  -28.4197  -13.3279   21.9415 H   0  0  0  0  0  0
  -25.2760   -9.5670   22.4746 H   0  0  0  0  0  0
  -24.0003   -7.4618   22.7460 H   0  0  0  0  0  0
  -21.0843   -8.8763   19.8933 H   0  0  0  0  0  0
  -22.3704  -10.9661   19.6150 H   0  0  0  0  0  0
  -21.1992   -7.6143   23.9712 H   0  0  0  0  0  0
  -21.1480   -6.0525   25.9079 H   0  0  0  0  0  0
  -22.0594   -2.7607   23.2856 H   0  0  0  0  0  0
  -22.4117  -11.9875   22.4815 H   0  0  0  0  0  0
  -21.1085  -13.1184   22.2581 H   0  0  0  0  0  0
  -24.6625  -15.8417   20.5327 H   0  0  0  0  0  0
  -26.2729  -15.6255   20.0710 H   0  0  0  0  0  0
  -26.7155  -32.5496   23.1136 H   0  0  0  0  0  0
  -25.0153  -33.9772   25.0514 H   0  0  0  0  0  0
  -22.7037  -31.3045   21.4046 H   0  0  0  0  0  0
  -23.3761  -35.9628   23.3304 H   0  0  0  0  0  0
  -24.3584  -36.8911   22.2049 H   0  0  0  0  0  0
  -23.7238  -37.6497   23.6657 H   0  0  0  0  0  0
  -26.0653  -31.5757   20.5956 H   0  0  0  0  0  0
  -26.8331  -30.8680   21.9867 H   0  0  0  0  0  0
  -28.1244  -29.0620   21.1303 H   0  0  0  0  0  0
  -26.0056  -25.9228   19.0562 H   0  0  0  0  0  0
  -23.9664  -27.2735   19.0676 H   0  0  0  0  0  0
  -23.7458  -30.5911   19.4063 H   0  0  0  0  0  0
  -22.7471  -29.2437   19.8641 H   0  0  0  0  0  0
  -25.1292  -36.1959   25.0825 H   0  0  0  0  0  0
  -20.9959  -28.3255   24.1420 H   0  0  0  0  0  0
  -20.5708  -26.2287   23.3588 H   0  0  0  0  0  0
  -21.6655  -26.7480   22.1186 H   0  0  0  0  0  0
  -19.6936  -25.6304   21.1235 H   0  0  0  0  0  0
  -19.6707  -27.3200   20.6735 H   0  0  0  0  0  0
  -17.4215  -26.6673   21.4007 H   0  0  0  0  0  0
  -18.0339  -26.0069   22.9000 H   0  0  0  0  0  0
  -19.7935  -30.7249   24.2296 H   0  0  0  0  0  0
  -17.5021  -31.6275   24.5154 H   0  0  0  0  0  0
  -15.5356  -30.2996   23.7650 H   0  0  0  0  0  0
  -15.8664  -28.0824   22.7073 H   0  0  0  0  0  0
  -24.5942  -30.7016   25.7781 H   0  0  0  0  0  0
  -24.8914  -32.2822   26.4916 H   0  0  0  0  0  0
  -25.8093  -30.8845   27.0213 H   0  0  0  0  0  0
  -26.2898  -29.6750   24.1218 H   0  0  0  0  0  0
  -27.4166  -29.7315   25.4585 H   0  0  0  0  0  0
  -27.8713  -30.4356   23.9256 H   0  0  0  0  0  0
  -27.2730  -33.3627   26.2065 H   0  0  0  0  0  0
  -28.3897  -32.6831   25.0313 H   0  0  0  0  0  0
  -28.0739  -31.8422   26.5397 H   0  0  0  0  0  0
  -28.2603  -38.0103   24.7532 H   0  0  0  0  0  0
  -28.1083  -36.2629   24.6287 H   0  0  0  0  0  0
  -27.2295  -37.1446   25.8869 H   0  0  0  0  0  0
  -20.9338  -29.8763   21.6916 H   0  0  0  0  0  0
  -26.0182  -38.2860   24.1419 H   0  0  0  0  0  0
  -32.4137  -17.4970   22.2719 H   0  0  0  0  0  0
  -27.9623  -15.6413   21.4675 H   0  0  0  0  0  0
  -28.5427  -16.7079   22.7206 H   0  0  0  0  0  0
  -28.6306  -15.0238   23.0110 H   0  0  0  0  0  0
  -28.8911  -21.3868   17.5346 H   0  0  0  0  0  0
  -28.1105  -22.8869   17.1134 H   0  0  0  0  0  0
  -27.2712  -21.7440   18.1490 H   0  0  0  0  0  0
  -27.6734  -24.5913   18.6354 H   0  0  0  0  0  0
  -26.9828  -23.7155   19.9527 H   0  0  0  0  0  0
  -29.4713  -25.0315   20.7868 H   0  0  0  0  0  0
  -27.8892  -25.1802   21.4712 H   0  0  0  0  0  0
  -30.7758  -15.5631   22.4796 H   0  0  0  0  0  0
  -29.7947  -23.3043   18.8396 H   0  0  0  0  0  0
  -28.7485  -20.2359   19.1235 H   0  0  0  0  0  0
  1 25  1  0  0  0
  1 30  2  0  0  0
  1 79  1  0  0  0
  2  3  1  0  0  0
  2 25  1  0  0  0
  2 85  1  0  0  0
  2 86  1  0  0  0
  3  4  1  0  0  0
  3 87  1  0  0  0
  3 88  1  0  0  0
  4  5  1  0  0  0
  4 89  1  0  0  0
  4 90  1  0  0  0
  5  6  1  0  0  0
  5 26  1  0  0  0
  5 91  1  0  0  0
  6 25  1  0  0  0
  6 92  1  0  0  0
  6 93  1  0  0  0
  7  8  2  0  0  0
  7 26  1  0  0  0
  7 29  1  0  0  0
  8  9  1  0  0  0
  8 22  1  0  0  0
  9 10  1  0  0  0
  9 27  2  0  0  0
 10 11  2  0  0  0
 10 15  1  0  0  0
 11 12  1  0  0  0
 11 94  1  0  0  0
 12 13  2  0  0  0
 12 95  1  0  0  0
 13 14  1  0  0  0
 13 31  1  0  0  0
 14 15  2  0  0  0
 14 96  1  0  0  0
 15 97  1  0  0  0
 16 17  2  0  0  0
 16 21  1  0  0  0
 16 31  1  0  0  0
 17 18  1  0  0  0
 17 98  1  0  0  0
 18 19  2  0  0  0
 18 99  1  0  0  0
 19 20  1  0  0  0
 19 24  1  0  0  0
 20 21  2  0  0  0
 20100  1  0  0  0
 21 23  1  0  0  0
 22 28  1  0  0  0
 22 32  2  0  0  0
 26 27  1  0  0  0
 28101  1  0  0  0
 28102  1  0  0  0
 29103  1  0  0  0
 29104  1  0  0  0
 33 34  1  0  0  0
 33 66  1  0  0  0
 33 70  2  0  0  0
 34 36  1  0  0  0
 34 59  1  0  0  0
 34105  1  0  0  0
 35 44  2  0  0  0
 35 45  1  0  0  0
 35 68  1  0  0  0
 36 56  1  0  0  0
 36106  1  0  0  0
 37 39  1  0  0  0
 37 47  1  0  0  0
 37 66  1  0  0  0
 37107  1  0  0  0
 38 43  2  0  0  0
 38 46  1  0  0  0
 38 47  1  0  0  0
 39 64  1  0  0  0
 39 67  2  0  0  0
 40 52  1  0  0  0
 40 53  2  0  0  0
 40 58  1  0  0  0
 41108  1  0  0  0
 41109  1  0  0  0
 41110  1  0  0  0
 41 48  1  0  0  0
 42 43  1  0  0  0
 42 66  1  0  0  0
 42111  1  0  0  0
 42112  1  0  0  0
 43 44  1  0  0  0
 44113  1  0  0  0
 45 46  2  0  0  0
 45114  1  0  0  0
 46115  1  0  0  0
 47116  1  0  0  0
 47117  1  0  0  0
 48 56  1  0  0  0
 48 65  1  0  0  0
 48118  1  0  0  0
 49 50  1  0  0  0
 49 53  1  0  0  0
 49 64  1  0  0  0
 49119  1  0  0  0
 50 51  1  0  0  0
 50120  1  0  0  0
 50121  1  0  0  0
 51 52  1  0  0  0
 51122  1  0  0  0
 51123  1  0  0  0
 52124  1  0  0  0
 52125  1  0  0  0
 53 54  1  0  0  0
 54 55  2  0  0  0
 54126  1  0  0  0
 55 57  1  0  0  0
 55127  1  0  0  0
 56 69  2  0  0  0
 57 58  2  0  0  0
 57128  1  0  0  0
 58129  1  0  0  0
 59 60  1  0  0  0
 59 61  1  0  0  0
 59 62  1  0  0  0
 60130  1  0  0  0
 60131  1  0  0  0
 60132  1  0  0  0
 61133  1  0  0  0
 61134  1  0  0  0
 61135  1  0  0  0
 62136  1  0  0  0
 62137  1  0  0  0
 62138  1  0  0  0
 63 65  1  0  0  0
 63139  1  0  0  0
 63140  1  0  0  0
 63141  1  0  0  0
 64142  1  0  0  0
 65143  1  0  0  0
 68 78  1  0  0  0
 71 72  2  0  0  0
 71 84  1  0  0  0
 71144  1  0  0  0
 72 79  1  0  0  0
 72 81  1  0  0  0
 73 81  2  0  0  0
 73 82  1  0  0  0
 73 84  1  0  0  0
 74 80  1  0  0  0
 74 82  1  0  0  0
 74 83  2  0  0  0
 75145  1  0  0  0
 75146  1  0  0  0
 75147  1  0  0  0
 75 79  1  0  0  0
 76148  1  0  0  0
 76149  1  0  0  0
 76150  1  0  0  0
 76 80  1  0  0  0
 77 78  1  0  0  0
 77 80  1  0  0  0
 77151  1  0  0  0
 77152  1  0  0  0
 78153  1  0  0  0
 78154  1  0  0  0
 79155  1  0  0  0
 80156  1  0  0  0
 82157  1  0  0  0
M  ISO  4   1 100  68 101  78 101  79 100
M  END
> <chiral flag>
0

> <version>
0

> <s_m_source_file>
/data/baiqing/PycharmProjects/Reinvent-master-3.2/result/LINK_invent/BTK/process_docking_weight1_custom_product_contain_oxygen_bond_distance_aromatic_linkinvent_7_9_3/rearranged_h_0189.sdf

> <i_m_source_file_index>
57

> <r_mmod_Potential_Energy-OPLS-2005>
33.8727378845215

> <r_mmod_Stretch_Energy-OPLS-2005>
68.3053894042969

> <r_mmod_Bend_Energy-OPLS-2005>
177.855453491211

> <r_mmod_Torsional_Energy-OPLS-2005>
226.432952880859

> <r_mmod_Improper_Torsional_Energy-OPLS-2005>
3.57637810707092

> <r_mmod_Van_der_Waal_Energy-OPLS-2005>
132.10237121582

> <r_mmod_Electrostatic_Energy-OPLS-2005>
-381.886291503906

> <r_mmod_Solvation_Energy-OPLS-2005>
-217.90983581543

> <b_mmod_Minimization_Converged-OPLS-2005>
0

> <r_mmod_RMS_Derivative-OPLS-2005>
1.68789756298065

$$$$
57
                    3D
 Structure written by MMmdl.
155162  0  0  1  0            999 V2000
  -30.1562  -16.0172   20.3056 C   0  0  0  0  0  0
  -30.3930  -13.3845   19.5092 C   0  0  0  0  0  0
  -29.5591  -12.7503   18.3472 C   0  0  0  0  0  0
  -28.1697  -12.3077   18.8235 C   0  0  0  0  0  0
  -27.5830  -13.3447   19.8000 C   0  0  2  0  0  0
  -28.5787  -13.8483   20.8799 C   0  0  0  0  0  0
  -25.2285  -13.8336   20.5859 C   0  0  0  0  0  0
  -24.1710  -13.0440   20.9327 C   0  0  0  0  0  0
  -24.6468  -11.6966   20.8769 C   0  0  0  0  0  0
  -23.9176  -10.4298   21.0385 C   0  0  0  0  0  0
  -24.3694   -9.4210   21.9177 C   0  0  0  0  0  0
  -23.6341   -8.2257   22.0749 C   0  0  0  0  0  0
  -22.4318   -8.0305   21.3543 C   0  0  0  0  0  0
  -21.9977   -9.0284   20.4639 C   0  0  0  0  0  0
  -22.7339  -10.2149   20.3043 C   0  0  0  0  0  0
  -21.6866   -6.0760   22.5282 C   0  0  0  0  0  0
  -21.4026   -6.5653   23.8217 C   0  0  0  0  0  0
  -21.3659   -5.6797   24.9176 C   0  0  0  0  0  0
  -21.6040   -4.3058   24.7217 C   0  0  0  0  0  0
  -21.8819   -3.8164   23.4338 C   0  0  0  0  0  0
  -21.9201   -4.6983   22.3398 C   0  0  0  0  0  0
  -22.7711  -13.5133   21.1952 C   0  0  0  0  0  0
  -22.1667   -4.2173   21.0975 F   0  0  0  0  0  0
  -21.5622   -3.4538   25.7728 F   0  0  0  0  0  0
  -29.6721  -14.5938   20.1760 N   0  0  0  0  0  0
  -26.2772  -12.9738   20.3283 N   0  0  0  0  0  0
  -25.9425  -11.6765   20.5678 N   0  0  0  0  0  0
  -22.0380  -12.8091   22.0492 N   0  0  0  0  0  0
  -25.3826  -15.2083   20.4306 N   0  0  0  0  0  0
  -31.4040  -15.8808   20.3109 O   0  0  0  0  0  0
  -21.6656   -6.8916   21.4251 O   0  0  0  0  0  0
  -22.3375  -14.5431   20.6798 O   0  0  0  0  0  0
  -24.7083  -31.7701   23.1302 C   0  0  0  0  0  0
  -25.9543  -32.4321   23.7941 C   0  0  1  0  0  0
  -27.2372  -26.4415   20.2488 C   0  0  0  0  0  0
  -25.6019  -33.8163   24.1806 N   0  0  0  0  0  0
  -23.5464  -30.3603   21.4909 C   0  0  2  0  0  0
  -25.0049  -28.6428   20.1341 C   0  0  0  0  0  0
  -22.7884  -29.4152   22.4650 C   0  0  0  0  0  0
  -18.0360  -28.1437   22.8441 C   0  0  0  0  0  0
  -24.1490  -36.7096   23.2658 C   0  0  0  0  0  0
  -26.1371  -30.4190   21.4308 C   0  0  0  0  0  0
  -26.2006  -28.9517   20.7922 C   0  0  0  0  0  0
  -27.2916  -27.8907   20.8026 C   0  0  0  0  0  0
  -26.0014  -26.4068   19.5334 C   0  0  0  0  0  0
  -24.9593  -27.3985   19.4784 C   0  0  0  0  0  0
  -23.8159  -29.6319   20.1394 C   0  0  0  0  0  0
  -25.4150  -36.2807   24.0262 C   0  0  1  0  0  0
  -20.6005  -28.3808   23.1098 C   0  0  2  0  0  0
  -20.6809  -26.9444   22.5407 C   0  0  0  0  0  0
  -19.5788  -26.6364   21.5218 C   0  0  0  0  0  0
  -18.1972  -26.7963   22.1611 C   0  0  0  0  0  0
  -19.1635  -28.8952   23.2742 C   0  0  0  0  0  0
  -18.9539  -30.1529   23.8796 C   0  0  0  0  0  0
  -17.6527  -30.6612   24.0549 C   0  0  0  0  0  0
  -25.9151  -34.9207   23.4884 C   0  0  0  0  0  0
  -16.5413  -29.9090   23.6359 C   0  0  0  0  0  0
  -16.7340  -28.6516   23.0365 C   0  0  0  0  0  0
  -26.4631  -31.6463   25.0672 C   0  0  0  0  0  0
  -25.3623  -31.3866   26.1238 C   0  0  0  0  0  0
  -27.0599  -30.2778   24.6739 C   0  0  0  0  0  0
  -27.6035  -32.4384   25.7504 C   0  0  0  0  0  0
  -27.5549  -37.1703   24.8468 C   0  0  0  0  0  0
  -21.4506  -29.3009   22.3406 N   0  0  0  0  0  0
  -26.4249  -37.3602   23.9412 N   0  0  0  0  0  0
  -24.8240  -30.8883   22.0699 N   0  0  0  0  0  0
  -23.4207  -28.7778   23.3103 O   0  0  0  0  0  0
  -28.1958  -25.1239   20.2360 O   0  0  0  0  0  0
  -26.5819  -34.8835   22.4522 O   0  0  0  0  0  0
  -23.6048  -32.0892   23.6090 O   0  0  0  0  0  0
  -26.9901  -18.9778   21.7577 C   0  0  0  0  0  0
  -27.0691  -20.0099   18.2150 C   0  0  0  0  0  0
  -30.3167  -21.7470   19.6363 C   0  0  0  0  0  0
  -28.4748  -19.3144   21.9560 C   0  0  0  0  0  0
  -28.1121  -21.0724   18.6436 C   0  0  0  0  0  0
  -28.1752  -23.2417   20.4825 C   0  0  0  0  0  0
  -29.2751  -19.3492   20.6447 C   0  0  2  0  0  0
  -28.8768  -21.3121   19.9716 C   0  0  2  0  0  0
  -29.4045  -17.4828   20.2391 N   0  0  0  0  0  0
  -31.3398  -13.7230   19.0862 H   0  0  0  0  0  0
  -30.6731  -12.6304   20.2464 H   0  0  0  0  0  0
  -30.0941  -11.9089   17.9049 H   0  0  0  0  0  0
  -29.4441  -13.4914   17.5548 H   0  0  0  0  0  0
  -28.2760  -11.3517   19.3377 H   0  0  0  0  0  0
  -27.5023  -12.1371   17.9778 H   0  0  0  0  0  0
  -27.3886  -14.2065   19.1596 H   0  0  0  0  0  0
  -28.9372  -13.0378   21.5167 H   0  0  0  0  0  0
  -28.0741  -14.5503   21.5454 H   0  0  0  0  0  0
  -25.2829   -9.5677   22.4770 H   0  0  0  0  0  0
  -24.0037   -7.4645   22.7470 H   0  0  0  0  0  0
  -21.0908   -8.8834   19.8936 H   0  0  0  0  0  0
  -22.3812  -10.9701   19.6156 H   0  0  0  0  0  0
  -21.2023   -7.6162   23.9736 H   0  0  0  0  0  0
  -21.1473   -6.0517   25.9079 H   0  0  0  0  0  0
  -22.0597   -2.7626   23.2827 H   0  0  0  0  0  0
  -22.4030  -11.9765   22.4876 H   0  0  0  0  0  0
  -21.0981  -13.1072   22.2687 H   0  0  0  0  0  0
  -24.6100  -15.8550   20.5463 H   0  0  0  0  0  0
  -26.2280  -15.6530   20.1005 H   0  0  0  0  0  0
  -26.7661  -32.4735   23.0676 H   0  0  0  0  0  0
  -25.0071  -33.9168   24.9895 H   0  0  0  0  0  0
  -22.8871  -31.2043   21.2781 H   0  0  0  0  0  0
  -23.3775  -35.9399   23.3245 H   0  0  0  0  0  0
  -24.3543  -36.8844   22.2085 H   0  0  0  0  0  0
  -23.7233  -37.6239   23.6807 H   0  0  0  0  0  0
  -26.3582  -31.1213   20.6258 H   0  0  0  0  0  0
  -26.9832  -30.5050   22.1000 H   0  0  0  0  0  0
  -28.1962  -28.1523   21.3338 H   0  0  0  0  0  0
  -25.7929  -25.4865   19.0078 H   0  0  0  0  0  0
  -24.0652  -27.1475   18.9233 H   0  0  0  0  0  0
  -24.0198  -30.3796   19.3728 H   0  0  0  0  0  0
  -22.9157  -29.1147   19.8045 H   0  0  0  0  0  0
  -25.1366  -36.1525   25.0749 H   0  0  0  0  0  0
  -21.0083  -28.3446   24.1226 H   0  0  0  0  0  0
  -20.5649  -26.2441   23.3691 H   0  0  0  0  0  0
  -21.6668  -26.7341   22.1240 H   0  0  0  0  0  0
  -19.6939  -25.6249   21.1309 H   0  0  0  0  0  0
  -19.6734  -27.3123   20.6709 H   0  0  0  0  0  0
  -17.4245  -26.6724   21.4007 H   0  0  0  0  0  0
  -18.0338  -26.0119   22.9020 H   0  0  0  0  0  0
  -19.8017  -30.7371   24.2115 H   0  0  0  0  0  0
  -17.5079  -31.6277   24.5179 H   0  0  0  0  0  0
  -15.5412  -30.2960   23.7738 H   0  0  0  0  0  0
  -15.8742  -28.0805   22.7123 H   0  0  0  0  0  0
  -24.5865  -30.7154   25.7540 H   0  0  0  0  0  0
  -24.8753  -32.3111   26.4351 H   0  0  0  0  0  0
  -25.7726  -30.9241   27.0224 H   0  0  0  0  0  0
  -26.3357  -29.6328   24.1765 H   0  0  0  0  0  0
  -27.3976  -29.7308   25.5554 H   0  0  0  0  0  0
  -27.9346  -30.3857   24.0326 H   0  0  0  0  0  0
  -27.2555  -33.3800   26.1760 H   0  0  0  0  0  0
  -28.3998  -32.6762   25.0442 H   0  0  0  0  0  0
  -28.0531  -31.8737   26.5681 H   0  0  0  0  0  0
  -28.2518  -38.0042   24.7508 H   0  0  0  0  0  0
  -28.1082  -36.2560   24.6287 H   0  0  0  0  0  0
  -27.2264  -37.1324   25.8868 H   0  0  0  0  0  0
  -20.9883  -29.8663   21.6423 H   0  0  0  0  0  0
  -26.0046  -38.2627   24.1457 H   0  0  0  0  0  0
  -26.4834  -18.8869   22.7188 H   0  0  0  0  0  0
  -26.8527  -18.0357   21.2276 H   0  0  0  0  0  0
  -26.4778  -19.7564   21.1932 H   0  0  0  0  0  0
  -27.0779  -19.1243   18.8533 H   0  0  0  0  0  0
  -27.2677  -19.6644   17.1986 H   0  0  0  0  0  0
  -26.0432  -20.3923   18.1947 H   0  0  0  0  0  0
  -30.3253  -22.6281   18.9938 H   0  0  0  0  0  0
  -30.8818  -20.9667   19.1263 H   0  0  0  0  0  0
  -30.8604  -22.0041   20.5452 H   0  0  0  0  0  0
  -28.9147  -18.5797   22.6316 H   0  0  0  0  0  0
  -28.5660  -20.2749   22.4657 H   0  0  0  0  0  0
  -28.8463  -20.3018   18.4078 H   0  0  0  0  0  0
  -27.3596  -21.1461   19.4259 H   0  0  0  0  0  0
  -28.4503  -23.2435   21.5374 H   0  0  0  0  0  0
  -27.0968  -23.0865   20.5211 H   0  0  0  0  0  0
  -30.3059  -19.4845   20.9748 H   0  0  0  0  0  0
  -28.4718  -17.2278   19.9488 H   0  0  0  0  0  0
  1 25  1  0  0  0
  1 30  2  0  0  0
  1 79  1  0  0  0
  2  3  1  0  0  0
  2 25  1  0  0  0
  2 80  1  0  0  0
  2 81  1  0  0  0
  3  4  1  0  0  0
  3 82  1  0  0  0
  3 83  1  0  0  0
  4  5  1  0  0  0
  4 84  1  0  0  0
  4 85  1  0  0  0
  5  6  1  0  0  0
  5 26  1  0  0  0
  5 86  1  0  0  0
  6 25  1  0  0  0
  6 87  1  0  0  0
  6 88  1  0  0  0
  7  8  2  0  0  0
  7 26  1  0  0  0
  7 29  1  0  0  0
  8  9  1  0  0  0
  8 22  1  0  0  0
  9 10  1  0  0  0
  9 27  2  0  0  0
 10 11  2  0  0  0
 10 15  1  0  0  0
 11 12  1  0  0  0
 11 89  1  0  0  0
 12 13  2  0  0  0
 12 90  1  0  0  0
 13 14  1  0  0  0
 13 31  1  0  0  0
 14 15  2  0  0  0
 14 91  1  0  0  0
 15 92  1  0  0  0
 16 17  2  0  0  0
 16 21  1  0  0  0
 16 31  1  0  0  0
 17 18  1  0  0  0
 17 93  1  0  0  0
 18 19  2  0  0  0
 18 94  1  0  0  0
 19 20  1  0  0  0
 19 24  1  0  0  0
 20 21  2  0  0  0
 20 95  1  0  0  0
 21 23  1  0  0  0
 22 28  1  0  0  0
 22 32  2  0  0  0
 26 27  1  0  0  0
 28 96  1  0  0  0
 28 97  1  0  0  0
 29 98  1  0  0  0
 29 99  1  0  0  0
 33 34  1  0  0  0
 33 66  1  0  0  0
 33 70  2  0  0  0
 34 36  1  0  0  0
 34 59  1  0  0  0
 34100  1  0  0  0
 35 44  2  0  0  0
 35 45  1  0  0  0
 35 68  1  0  0  0
 36 56  1  0  0  0
 36101  1  0  0  0
 37 39  1  0  0  0
 37 47  1  0  0  0
 37 66  1  0  0  0
 37102  1  0  0  0
 38 43  2  0  0  0
 38 46  1  0  0  0
 38 47  1  0  0  0
 39 64  1  0  0  0
 39 67  2  0  0  0
 40 52  1  0  0  0
 40 53  2  0  0  0
 40 58  1  0  0  0
 41103  1  0  0  0
 41104  1  0  0  0
 41105  1  0  0  0
 41 48  1  0  0  0
 42 43  1  0  0  0
 42 66  1  0  0  0
 42106  1  0  0  0
 42107  1  0  0  0
 43 44  1  0  0  0
 44108  1  0  0  0
 45 46  2  0  0  0
 45109  1  0  0  0
 46110  1  0  0  0
 47111  1  0  0  0
 47112  1  0  0  0
 48 56  1  0  0  0
 48 65  1  0  0  0
 48113  1  0  0  0
 49 50  1  0  0  0
 49 53  1  0  0  0
 49 64  1  0  0  0
 49114  1  0  0  0
 50 51  1  0  0  0
 50115  1  0  0  0
 50116  1  0  0  0
 51 52  1  0  0  0
 51117  1  0  0  0
 51118  1  0  0  0
 52119  1  0  0  0
 52120  1  0  0  0
 53 54  1  0  0  0
 54 55  2  0  0  0
 54121  1  0  0  0
 55 57  1  0  0  0
 55122  1  0  0  0
 56 69  2  0  0  0
 57 58  2  0  0  0
 57123  1  0  0  0
 58124  1  0  0  0
 59 60  1  0  0  0
 59 61  1  0  0  0
 59 62  1  0  0  0
 60125  1  0  0  0
 60126  1  0  0  0
 60127  1  0  0  0
 61128  1  0  0  0
 61129  1  0  0  0
 61130  1  0  0  0
 62131  1  0  0  0
 62132  1  0  0  0
 62133  1  0  0  0
 63 65  1  0  0  0
 63134  1  0  0  0
 63135  1  0  0  0
 63136  1  0  0  0
 64137  1  0  0  0
 65138  1  0  0  0
 68 76  1  0  0  0
 71 74  1  0  0  0
 71139  1  0  0  0
 71140  1  0  0  0
 71141  1  0  0  0
 72 75  1  0  0  0
 72142  1  0  0  0
 72143  1  0  0  0
 72144  1  0  0  0
 73145  1  0  0  0
 73146  1  0  0  0
 73147  1  0  0  0
 73 78  1  0  0  0
 74148  1  0  0  0
 74149  1  0  0  0
 74 77  1  0  0  0
 75 78  1  0  0  0
 75150  1  0  0  0
 75151  1  0  0  0
 76 78  1  0  0  0
 76152  1  0  0  0
 76153  1  0  0  0
 77 78  1  0  0  0
 77 79  1  0  0  0
 77154  1  0  0  0
 79155  1  0  0  0
M  ISO  4   1 100  68 101  76 101  79 100
M  END
> <chiral flag>
0

> <version>
0

> <s_m_source_file>
/data/baiqing/PycharmProjects/Reinvent-master-3.2/result/LINK_invent/BTK/process_docking_weight1_custom_product_contain_oxygen_bond_distance_aromatic_linkinvent_7_9_3/rearranged_h_0189.sdf

> <i_m_source_file_index>
58

> <r_mmod_Potential_Energy-OPLS-2005>
4483.4951171875

> <r_mmod_Stretch_Energy-OPLS-2005>
1946.234375

> <r_mmod_Bend_Energy-OPLS-2005>
1139.30590820312

> <r_mmod_Torsional_Energy-OPLS-2005>
294.222229003906

> <r_mmod_Improper_Torsional_Energy-OPLS-2005>
5.66787528991699

> <r_mmod_Van_der_Waal_Energy-OPLS-2005>
115.681625366211

> <r_mmod_Electrostatic_Energy-OPLS-2005>
-365.286102294922

> <r_mmod_Solvation_Energy-OPLS-2005>
-206.342071533203

> <b_mmod_Minimization_Converged-OPLS-2005>
0

> <r_mmod_RMS_Derivative-OPLS-2005>
1.33263516426086

$$$$
58
                    3D
 Structure written by MMmdl.
157165  0  0  1  0            999 V2000
  -30.3837  -15.2142   20.4241 C   0  0  0  0  0  0
  -30.4459  -12.7963   19.4863 C   0  0  0  0  0  0
  -29.5319  -12.5712   18.2521 C   0  0  0  0  0  0
  -28.0680  -12.3165   18.6642 C   0  0  0  0  0  0
  -27.6072  -13.2547   19.8048 C   0  0  2  0  0  0
  -28.6405  -13.3621   20.9451 C   0  0  0  0  0  0
  -25.2334  -13.8095   20.5537 C   0  0  0  0  0  0
  -24.1730  -13.0364   20.9224 C   0  0  0  0  0  0
  -24.6360  -11.6819   20.8662 C   0  0  0  0  0  0
  -23.9039  -10.4242   21.0330 C   0  0  0  0  0  0
  -24.3611   -9.4249   21.9174 C   0  0  0  0  0  0
  -23.6303   -8.2290   22.0785 C   0  0  0  0  0  0
  -22.4293   -8.0296   21.3562 C   0  0  0  0  0  0
  -21.9912   -9.0229   20.4640 C   0  0  0  0  0  0
  -22.7218  -10.2102   20.3008 C   0  0  0  0  0  0
  -21.6867   -6.0743   22.5274 C   0  0  0  0  0  0
  -21.4011   -6.5638   23.8222 C   0  0  0  0  0  0
  -21.3677   -5.6797   24.9172 C   0  0  0  0  0  0
  -21.6069   -4.3060   24.7226 C   0  0  0  0  0  0
  -21.8816   -3.8170   23.4336 C   0  0  0  0  0  0
  -21.9204   -4.6968   22.3397 C   0  0  0  0  0  0
  -22.7780  -13.5164   21.1933 C   0  0  0  0  0  0
  -22.1661   -4.2178   21.0966 F   0  0  0  0  0  0
  -21.5637   -3.4534   25.7727 F   0  0  0  0  0  0
  -29.8671  -13.8967   20.3348 N   0  0  0  0  0  0
  -26.2757  -12.9360   20.2976 N   0  0  0  0  0  0
  -25.9297  -11.6464   20.5583 N   0  0  0  0  0  0
  -22.0356  -12.8102   22.0372 N   0  0  0  0  0  0
  -25.4063  -15.1819   20.3779 N   0  0  0  0  0  0
  -31.6045  -15.2825   20.2189 O   0  0  0  0  0  0
  -21.6689   -6.8873   21.4235 O   0  0  0  0  0  0
  -22.3501  -14.5572   20.6924 O   0  0  0  0  0  0
  -24.6525  -31.8297   23.1709 C   0  0  0  0  0  0
  -25.9258  -32.4635   23.8154 C   0  0  1  0  0  0
  -27.1855  -26.9675   20.1976 C   0  0  0  0  0  0
  -25.5959  -33.8438   24.2093 N   0  0  0  0  0  0
  -23.4576  -30.4373   21.5229 C   0  0  2  0  0  0
  -24.8997  -28.8287   20.1007 C   0  0  0  0  0  0
  -22.7576  -29.4426   22.4830 C   0  0  0  0  0  0
  -18.0324  -28.1570   22.8119 C   0  0  0  0  0  0
  -24.1482  -36.7255   23.2638 C   0  0  0  0  0  0
  -26.0177  -30.6481   21.3895 C   0  0  0  0  0  0
  -26.0770  -29.2403   20.7373 C   0  0  0  0  0  0
  -27.2096  -28.3239   20.7687 C   0  0  0  0  0  0
  -25.9965  -26.6865   19.4904 C   0  0  0  0  0  0
  -24.8850  -27.5730   19.4567 C   0  0  0  0  0  0
  -23.6853  -29.7535   20.1429 C   0  0  0  0  0  0
  -25.4135  -36.3013   24.0292 C   0  0  1  0  0  0
  -20.5886  -28.3770   23.1318 C   0  0  2  0  0  0
  -20.6615  -26.9305   22.5918 C   0  0  0  0  0  0
  -19.6080  -26.6327   21.5226 C   0  0  0  0  0  0
  -18.1918  -26.8371   22.0763 C   0  0  0  0  0  0
  -19.1525  -28.8942   23.2811 C   0  0  0  0  0  0
  -18.9391  -30.1398   23.9105 C   0  0  0  0  0  0
  -17.6397  -30.6519   24.0790 C   0  0  0  0  0  0
  -25.9092  -34.9393   23.5007 C   0  0  0  0  0  0
  -16.5302  -29.9106   23.6328 C   0  0  0  0  0  0
  -16.7269  -28.6673   23.0056 C   0  0  0  0  0  0
  -26.4488  -31.6591   25.0675 C   0  0  0  0  0  0
  -25.3604  -31.3840   26.1310 C   0  0  0  0  0  0
  -27.0384  -30.2988   24.6374 C   0  0  0  0  0  0
  -27.6007  -32.4367   25.7489 C   0  0  0  0  0  0
  -27.5577  -37.1794   24.8462 C   0  0  0  0  0  0
  -21.4289  -29.2914   22.3485 N   0  0  0  0  0  0
  -26.4300  -37.3746   23.9376 N   0  0  0  0  0  0
  -24.7303  -30.9992   22.0837 N   0  0  0  0  0  0
  -23.4160  -28.8139   23.3143 O   0  0  0  0  0  0
  -28.2041  -25.9260   20.4057 O   0  0  0  0  0  0
  -26.5725  -34.8925   22.4622 O   0  0  0  0  0  0
  -23.5634  -32.1269   23.6852 O   0  0  0  0  0  0
  -32.5968  -18.7193   22.7861 C   0  0  0  0  0  0
  -30.5034  -18.2377   22.0581 C   0  0  0  0  0  0
  -30.3482  -17.9839   23.4087 C   0  0  0  0  0  0
  -27.8511  -19.2895   19.2125 C   0  0  0  0  0  0
  -28.0362  -22.6987   20.3154 C   0  0  0  0  0  0
  -28.9790  -21.2249   20.7095 C   0  0  0  0  0  0
  -28.4539  -24.3827   19.9519 C   0  0  0  0  0  0
  -29.4911  -18.0110   20.9704 C   0  0  1  0  0  0
  -29.0541  -19.5297   20.1306 C   0  0  1  0  0  0
  -31.7927  -18.6485   21.7166 N   0  0  0  0  0  0
  -29.2275  -17.5091   24.0914 N   0  0  0  0  0  0
  -29.5177  -16.3985   20.5530 N   0  0  0  0  0  0
  -31.8188  -18.2804   24.2997 S   0  0  0  0  0  0
  -31.4398  -13.0703   19.1332 H   0  0  0  0  0  0
  -30.5920  -11.8752   20.0523 H   0  0  0  0  0  0
  -29.8972  -11.7231   17.6768 H   0  0  0  0  0  0
  -29.5925  -13.4297   17.5802 H   0  0  0  0  0  0
  -27.9922  -11.2805   18.9948 H   0  0  0  0  0  0
  -27.4159  -12.4177   17.7940 H   0  0  0  0  0  0
  -27.5453  -14.2380   19.3376 H   0  0  0  0  0  0
  -28.8046  -12.3928   21.4155 H   0  0  0  0  0  0
  -28.2793  -14.0309   21.7313 H   0  0  0  0  0  0
  -25.2755   -9.5798   22.4741 H   0  0  0  0  0  0
  -24.0023   -7.4709   22.7524 H   0  0  0  0  0  0
  -21.0886   -8.8798   19.8879 H   0  0  0  0  0  0
  -22.3749  -10.9661   19.6118 H   0  0  0  0  0  0
  -21.1972   -7.6161   23.9713 H   0  0  0  0  0  0
  -21.1511   -6.0529   25.9086 H   0  0  0  0  0  0
  -22.0569   -2.7649   23.2842 H   0  0  0  0  0  0
  -22.3963  -11.9791   22.4809 H   0  0  0  0  0  0
  -21.0928  -13.1126   22.2422 H   0  0  0  0  0  0
  -24.6626  -15.8509   20.5255 H   0  0  0  0  0  0
  -26.1255  -15.5430   19.7661 H   0  0  0  0  0  0
  -26.7300  -32.5159   23.0845 H   0  0  0  0  0  0
  -24.9994  -33.9559   25.0151 H   0  0  0  0  0  0
  -22.7623  -31.2630   21.3650 H   0  0  0  0  0  0
  -23.3759  -35.9563   23.3298 H   0  0  0  0  0  0
  -24.3541  -36.8937   22.2058 H   0  0  0  0  0  0
  -23.7240  -37.6436   23.6712 H   0  0  0  0  0  0
  -26.1789  -31.3777   20.5952 H   0  0  0  0  0  0
  -26.8883  -30.7060   22.0338 H   0  0  0  0  0  0
  -28.0876  -28.6218   21.3240 H   0  0  0  0  0  0
  -25.8824  -25.7145   19.0267 H   0  0  0  0  0  0
  -23.9837  -27.2584   18.9480 H   0  0  0  0  0  0
  -23.8430  -30.5318   19.3930 H   0  0  0  0  0  0
  -22.7867  -29.2203   19.8247 H   0  0  0  0  0  0
  -25.1323  -36.1804   25.0789 H   0  0  0  0  0  0
  -20.9891  -28.3567   24.1447 H   0  0  0  0  0  0
  -20.4706  -26.2554   23.4294 H   0  0  0  0  0  0
  -21.6669  -26.6872   22.2451 H   0  0  0  0  0  0
  -19.7220  -25.6119   21.1510 H   0  0  0  0  0  0
  -19.7762  -27.2852   20.6657 H   0  0  0  0  0  0
  -17.4861  -26.8007   21.2413 H   0  0  0  0  0  0
  -17.9289  -26.0211   22.7447 H   0  0  0  0  0  0
  -19.7858  -30.7106   24.2758 H   0  0  0  0  0  0
  -17.4901  -31.6030   24.5673 H   0  0  0  0  0  0
  -15.5316  -30.2975   23.7759 H   0  0  0  0  0  0
  -15.8705  -28.1108   22.6518 H   0  0  0  0  0  0
  -24.5795  -30.7189   25.7591 H   0  0  0  0  0  0
  -24.8723  -32.3034   26.4574 H   0  0  0  0  0  0
  -25.7773  -30.9093   27.0193 H   0  0  0  0  0  0
  -26.3012  -29.6697   24.1367 H   0  0  0  0  0  0
  -27.3946  -29.7324   25.4984 H   0  0  0  0  0  0
  -27.8930  -30.4238   23.9723 H   0  0  0  0  0  0
  -27.2618  -33.3716   26.1956 H   0  0  0  0  0  0
  -28.3881  -32.6871   25.0368 H   0  0  0  0  0  0
  -28.0584  -31.8557   26.5512 H   0  0  0  0  0  0
  -28.2582  -38.0097   24.7479 H   0  0  0  0  0  0
  -28.1104  -36.2632   24.6313 H   0  0  0  0  0  0
  -27.2292  -37.1439   25.8868 H   0  0  0  0  0  0
  -20.9589  -29.8431   21.6471 H   0  0  0  0  0  0
  -26.0168  -38.2804   24.1372 H   0  0  0  0  0  0
  -33.6243  -19.0445   22.6939 H   0  0  0  0  0  0
  -27.8182  -20.0569   18.4372 H   0  0  0  0  0  0
  -26.9045  -19.3198   19.7570 H   0  0  0  0  0  0
  -27.9345  -18.3258   18.7087 H   0  0  0  0  0  0
  -27.3052  -22.7813   21.1207 H   0  0  0  0  0  0
  -27.3949  -22.4155   19.4784 H   0  0  0  0  0  0
  -28.7651  -21.0949   21.7707 H   0  0  0  0  0  0
  -30.0146  -21.5619   20.7351 H   0  0  0  0  0  0
  -28.4787  -24.4348   18.8658 H   0  0  0  0  0  0
  -29.5049  -24.3438   20.2286 H   0  0  0  0  0  0
  -28.5559  -17.9573   21.5326 H   0  0  0  0  0  0
  -29.8887  -19.5985   19.4356 H   0  0  0  0  0  0
  -28.3169  -17.3413   23.6787 H   0  0  0  0  0  0
  -29.2275  -17.3611   25.0959 H   0  0  0  0  0  0
  -28.5922  -16.0278   20.6943 H   0  0  0  0  0  0
  1 25  1  0  0  0
  1 30  2  0  0  0
  1 82  1  0  0  0
  2  3  1  0  0  0
  2 25  1  0  0  0
  2 84  1  0  0  0
  2 85  1  0  0  0
  3  4  1  0  0  0
  3 86  1  0  0  0
  3 87  1  0  0  0
  4  5  1  0  0  0
  4 88  1  0  0  0
  4 89  1  0  0  0
  5  6  1  0  0  0
  5 26  1  0  0  0
  5 90  1  0  0  0
  6 25  1  0  0  0
  6 91  1  0  0  0
  6 92  1  0  0  0
  7  8  2  0  0  0
  7 26  1  0  0  0
  7 29  1  0  0  0
  8  9  1  0  0  0
  8 22  1  0  0  0
  9 10  1  0  0  0
  9 27  2  0  0  0
 10 11  2  0  0  0
 10 15  1  0  0  0
 11 12  1  0  0  0
 11 93  1  0  0  0
 12 13  2  0  0  0
 12 94  1  0  0  0
 13 14  1  0  0  0
 13 31  1  0  0  0
 14 15  2  0  0  0
 14 95  1  0  0  0
 15 96  1  0  0  0
 16 17  2  0  0  0
 16 21  1  0  0  0
 16 31  1  0  0  0
 17 18  1  0  0  0
 17 97  1  0  0  0
 18 19  2  0  0  0
 18 98  1  0  0  0
 19 20  1  0  0  0
 19 24  1  0  0  0
 20 21  2  0  0  0
 20 99  1  0  0  0
 21 23  1  0  0  0
 22 28  1  0  0  0
 22 32  2  0  0  0
 26 27  1  0  0  0
 28100  1  0  0  0
 28101  1  0  0  0
 29102  1  0  0  0
 29103  1  0  0  0
 33 34  1  0  0  0
 33 66  1  0  0  0
 33 70  2  0  0  0
 34 36  1  0  0  0
 34 59  1  0  0  0
 34104  1  0  0  0
 35 44  2  0  0  0
 35 45  1  0  0  0
 35 68  1  0  0  0
 36 56  1  0  0  0
 36105  1  0  0  0
 37 39  1  0  0  0
 37 47  1  0  0  0
 37 66  1  0  0  0
 37106  1  0  0  0
 38 43  2  0  0  0
 38 46  1  0  0  0
 38 47  1  0  0  0
 39 64  1  0  0  0
 39 67  2  0  0  0
 40 52  1  0  0  0
 40 53  2  0  0  0
 40 58  1  0  0  0
 41107  1  0  0  0
 41108  1  0  0  0
 41109  1  0  0  0
 41 48  1  0  0  0
 42 43  1  0  0  0
 42 66  1  0  0  0
 42110  1  0  0  0
 42111  1  0  0  0
 43 44  1  0  0  0
 44112  1  0  0  0
 45 46  2  0  0  0
 45113  1  0  0  0
 46114  1  0  0  0
 47115  1  0  0  0
 47116  1  0  0  0
 48 56  1  0  0  0
 48 65  1  0  0  0
 48117  1  0  0  0
 49 50  1  0  0  0
 49 53  1  0  0  0
 49 64  1  0  0  0
 49118  1  0  0  0
 50 51  1  0  0  0
 50119  1  0  0  0
 50120  1  0  0  0
 51 52  1  0  0  0
 51121  1  0  0  0
 51122  1  0  0  0
 52123  1  0  0  0
 52124  1  0  0  0
 53 54  1  0  0  0
 54 55  2  0  0  0
 54125  1  0  0  0
 55 57  1  0  0  0
 55126  1  0  0  0
 56 69  2  0  0  0
 57 58  2  0  0  0
 57127  1  0  0  0
 58128  1  0  0  0
 59 60  1  0  0  0
 59 61  1  0  0  0
 59 62  1  0  0  0
 60129  1  0  0  0
 60130  1  0  0  0
 60131  1  0  0  0
 61132  1  0  0  0
 61133  1  0  0  0
 61134  1  0  0  0
 62135  1  0  0  0
 62136  1  0  0  0
 62137  1  0  0  0
 63 65  1  0  0  0
 63138  1  0  0  0
 63139  1  0  0  0
 63140  1  0  0  0
 64141  1  0  0  0
 65142  1  0  0  0
 68 77  1  0  0  0
 71 80  2  0  0  0
 71 83  1  0  0  0
 71143  1  0  0  0
 72 73  2  0  0  0
 72 78  1  0  0  0
 72 80  1  0  0  0
 73 81  1  0  0  0
 73 83  1  0  0  0
 74144  1  0  0  0
 74145  1  0  0  0
 74146  1  0  0  0
 74 79  1  0  0  0
 75 76  1  0  0  0
 75 77  1  0  0  0
 75147  1  0  0  0
 75148  1  0  0  0
 76 79  1  0  0  0
 76149  1  0  0  0
 76150  1  0  0  0
 77151  1  0  0  0
 77152  1  0  0  0
 78 79  1  0  0  0
 78 82  1  0  0  0
 78153  1  0  0  0
 79154  1  0  0  0
 81155  1  0  0  0
 81156  1  0  0  0
 82157  1  0  0  0
M  ISO  4   1 100  68 101  77 101  82 100
M  END
> <chiral flag>
0

> <version>
0

> <s_m_source_file>
/data/baiqing/PycharmProjects/Reinvent-master-3.2/result/LINK_invent/BTK/process_docking_weight1_custom_product_contain_oxygen_bond_distance_aromatic_linkinvent_7_9_3/rearranged_h_0189.sdf

> <i_m_source_file_index>
59

> <r_mmod_Potential_Energy-OPLS-2005>
1274.72717285156

> <r_mmod_Stretch_Energy-OPLS-2005>
561.334167480469

> <r_mmod_Bend_Energy-OPLS-2005>
558.994445800781

> <r_mmod_Torsional_Energy-OPLS-2005>
237.883422851562

> <r_mmod_Improper_Torsional_Energy-OPLS-2005>
7.35472965240479

> <r_mmod_Van_der_Waal_Energy-OPLS-2005>
91.1835861206055

> <r_mmod_Electrostatic_Energy-OPLS-2005>
-361.3662109375

> <r_mmod_Solvation_Energy-OPLS-2005>
-237.44645690918

> <b_mmod_Minimization_Converged-OPLS-2005>
0

> <r_mmod_RMS_Derivative-OPLS-2005>
10.1795120239258

$$$$
59
                    3D
 Structure written by MMmdl.
177185  0  0  1  0            999 V2000
  -30.8081  -14.4419   20.4283 C   0  0  0  0  0  0
  -30.3819  -12.2751   19.4142 C   0  0  0  0  0  0
  -29.4694  -12.4539   18.1906 C   0  0  0  0  0  0
  -27.9982  -12.3356   18.6191 C   0  0  0  0  0  0
  -27.6429  -13.2247   19.8415 C   0  0  2  0  0  0
  -28.6992  -13.1263   20.9640 C   0  0  0  0  0  0
  -25.2530  -13.8268   20.5674 C   0  0  0  0  0  0
  -24.1804  -13.0496   20.9228 C   0  0  0  0  0  0
  -24.6386  -11.6973   20.8784 C   0  0  0  0  0  0
  -23.9064  -10.4315   21.0413 C   0  0  0  0  0  0
  -24.3620   -9.4231   21.9174 C   0  0  0  0  0  0
  -23.6299   -8.2260   22.0768 C   0  0  0  0  0  0
  -22.4277   -8.0293   21.3537 C   0  0  0  0  0  0
  -21.9905   -9.0279   20.4659 C   0  0  0  0  0  0
  -22.7242  -10.2153   20.3055 C   0  0  0  0  0  0
  -21.6880   -6.0739   22.5268 C   0  0  0  0  0  0
  -21.4024   -6.5633   23.8214 C   0  0  0  0  0  0
  -21.3657   -5.6769   24.9175 C   0  0  0  0  0  0
  -21.6040   -4.3042   24.7230 C   0  0  0  0  0  0
  -21.8811   -3.8132   23.4353 C   0  0  0  0  0  0
  -21.9197   -4.6960   22.3399 C   0  0  0  0  0  0
  -22.7821  -13.5289   21.1829 C   0  0  0  0  0  0
  -22.1646   -4.2134   21.0987 F   0  0  0  0  0  0
  -21.5639   -3.4526   25.7752 F   0  0  0  0  0  0
  -30.0168  -13.3469   20.3503 N   0  0  0  0  0  0
  -26.2935  -12.9429   20.3279 N   0  0  0  0  0  0
  -25.9310  -11.6573   20.5812 N   0  0  0  0  0  0
  -22.0437  -12.8308   22.0388 N   0  0  0  0  0  0
  -25.4204  -15.1986   20.4106 N   0  0  0  0  0  0
  -32.0255  -14.3610   20.2731 O   0  0  0  0  0  0
  -21.6657   -6.8876   21.4220 O   0  0  0  0  0  0
  -22.3474  -14.5558   20.6633 O   0  0  0  0  0  0
  -24.6111  -31.8765   23.2138 C   0  0  0  0  0  0
  -25.9039  -32.4859   23.8420 C   0  0  1  0  0  0
  -27.2314  -27.4615   20.1263 C   0  0  0  0  0  0
  -25.5979  -33.8642   24.2424 N   0  0  0  0  0  0
  -23.3952  -30.4956   21.5505 C   0  0  2  0  0  0
  -24.8472  -28.9812   20.0961 C   0  0  0  0  0  0
  -22.7399  -29.4673   22.4993 C   0  0  0  0  0  0
  -18.0234  -28.1399   22.8473 C   0  0  0  0  0  0
  -24.1456  -36.7240   23.2639 C   0  0  0  0  0  0
  -25.9167  -30.8594   21.3566 C   0  0  0  0  0  0
  -25.9988  -29.4965   20.7044 C   0  0  0  0  0  0
  -27.1972  -28.7515   20.7063 C   0  0  0  0  0  0
  -26.0767  -26.9679   19.4870 C   0  0  0  0  0  0
  -24.8885  -27.7232   19.4668 C   0  0  0  0  0  0
  -23.5972  -29.8364   20.1573 C   0  0  0  0  0  0
  -25.4090  -36.3118   24.0358 C   0  0  1  0  0  0
  -20.5833  -28.3639   23.1374 C   0  0  2  0  0  0
  -20.6742  -26.9389   22.5452 C   0  0  0  0  0  0
  -19.5707  -26.6400   21.5237 C   0  0  0  0  0  0
  -18.1881  -26.7923   22.1632 C   0  0  0  0  0  0
  -19.1500  -28.8823   23.2910 C   0  0  0  0  0  0
  -18.9423  -30.1423   23.8911 C   0  0  0  0  0  0
  -17.6446  -30.6602   24.0542 C   0  0  0  0  0  0
  -25.9042  -34.9481   23.5171 C   0  0  0  0  0  0
  -16.5328  -29.9119   23.6318 C   0  0  0  0  0  0
  -16.7233  -28.6544   23.0326 C   0  0  0  0  0  0
  -26.4483  -31.6564   25.0692 C   0  0  0  0  0  0
  -25.3787  -31.3610   26.1462 C   0  0  0  0  0  0
  -27.0314  -30.3028   24.6003 C   0  0  0  0  0  0
  -27.6116  -32.4258   25.7404 C   0  0  0  0  0  0
  -27.5551  -37.1787   24.8491 C   0  0  0  0  0  0
  -21.4136  -29.3017   22.3775 N   0  0  0  0  0  0
  -26.4270  -37.3819   23.9429 N   0  0  0  0  0  0
  -24.6579  -31.0925   22.0977 N   0  0  0  0  0  0
  -23.4196  -28.8204   23.3011 O   0  0  0  0  0  0
  -28.3246  -26.6309   20.2015 O   0  0  0  0  0  0
  -26.5535  -34.8941   22.4700 O   0  0  0  0  0  0
  -23.5344  -32.1504   23.7587 O   0  0  0  0  0  0
  -30.6316  -18.1207   19.5735 C   0  0  0  0  0  0
  -31.0490  -18.7257   18.3979 C   0  0  0  0  0  0
  -29.8064  -20.2128   19.9281 C   0  0  0  0  0  0
  -27.7970  -23.4044   22.1336 C   0  0  0  0  0  0
  -25.8402  -21.8054   22.3781 C   0  0  0  0  0  0
  -31.4438  -16.8350   16.7218 C   0  0  0  0  0  0
  -33.4183  -18.1715   17.6386 C   0  0  0  0  0  0
  -30.8609  -22.3567   22.2156 C   0  0  0  0  0  0
  -27.9196  -26.5101   22.7201 C   0  0  0  0  0  0
  -31.1544  -16.8208   20.1335 C   0  0  0  0  0  0
  -26.4932  -22.8957   21.5161 C   0  0  0  0  0  0
  -29.6833  -25.0895   21.4945 C   0  0  0  0  0  0
  -31.9192  -18.1850   17.2861 C   0  0  0  0  0  0
  -28.9348  -23.7565   21.1608 C   0  0  1  0  0  0
  -29.9352  -22.5641   20.9989 C   0  0  2  0  0  0
  -28.8890  -26.4194   21.5106 C   0  0  1  0  0  0
  -29.8634  -18.9626   20.3912 N   0  0  0  0  0  0
  -29.3118  -21.2786   20.6705 N   0  0  0  0  0  0
  -30.2493  -15.6663   20.3468 N   0  0  0  0  0  0
  -27.9339  -23.4850   23.3598 O   0  0  0  0  0  0
  -30.5625  -20.4126   18.3564 S   0  0  0  0  0  0
  -31.4291  -12.3061   19.1080 H   0  0  0  0  0  0
  -30.2354  -11.2936   19.8671 H   0  0  0  0  0  0
  -29.7033  -11.7011   17.4368 H   0  0  0  0  0  0
  -29.6401  -13.4217   17.7148 H   0  0  0  0  0  0
  -27.8229  -11.2885   18.8576 H   0  0  0  0  0  0
  -27.3443  -12.5607   17.7801 H   0  0  0  0  0  0
  -27.6526  -14.2501   19.4754 H   0  0  0  0  0  0
  -28.6726  -12.1454   21.4417 H   0  0  0  0  0  0
  -28.4997  -13.8678   21.7410 H   0  0  0  0  0  0
  -25.2789   -9.5729   22.4738 H   0  0  0  0  0  0
  -24.0025   -7.4673   22.7507 H   0  0  0  0  0  0
  -21.0831   -8.8808   19.9001 H   0  0  0  0  0  0
  -22.3699  -10.9684   19.6167 H   0  0  0  0  0  0
  -21.2011   -7.6135   23.9706 H   0  0  0  0  0  0
  -21.1484   -6.0515   25.9071 H   0  0  0  0  0  0
  -22.0595   -2.7594   23.2863 H   0  0  0  0  0  0
  -22.4066  -12.0051   22.4860 H   0  0  0  0  0  0
  -21.1037  -13.1344   22.2556 H   0  0  0  0  0  0
  -24.6508  -15.8541   20.5207 H   0  0  0  0  0  0
  -26.2833  -15.6408   20.1208 H   0  0  0  0  0  0
  -26.7067  -32.5618   23.1170 H   0  0  0  0  0  0
  -25.0275  -33.9776   25.0659 H   0  0  0  0  0  0
  -22.6772  -31.3070   21.4235 H   0  0  0  0  0  0
  -23.3768  -35.9522   23.3379 H   0  0  0  0  0  0
  -24.3570  -36.8779   22.2044 H   0  0  0  0  0  0
  -23.7137  -37.6443   23.6585 H   0  0  0  0  0  0
  -26.0326  -31.6322   20.5948 H   0  0  0  0  0  0
  -26.8000  -30.9108   21.9766 H   0  0  0  0  0  0
  -28.0704  -29.1480   21.2022 H   0  0  0  0  0  0
  -26.0937  -25.9841   19.0387 H   0  0  0  0  0  0
  -24.0142  -27.3440   18.9615 H   0  0  0  0  0  0
  -23.6682  -30.6171   19.3961 H   0  0  0  0  0  0
  -22.7255  -29.2435   19.8764 H   0  0  0  0  0  0
  -25.1252  -36.1992   25.0842 H   0  0  0  0  0  0
  -20.9906  -28.3220   24.1506 H   0  0  0  0  0  0
  -20.5691  -26.2265   23.3635 H   0  0  0  0  0  0
  -21.6606  -26.7479   22.1212 H   0  0  0  0  0  0
  -19.6895  -25.6333   21.1210 H   0  0  0  0  0  0
  -19.6644  -27.3256   20.6789 H   0  0  0  0  0  0
  -17.4183  -26.6654   21.4015 H   0  0  0  0  0  0
  -18.0250  -26.0056   22.9012 H   0  0  0  0  0  0
  -19.7896  -30.7188   24.2362 H   0  0  0  0  0  0
  -17.5006  -31.6265   24.5140 H   0  0  0  0  0  0
  -15.5333  -30.3034   23.7631 H   0  0  0  0  0  0
  -15.8618  -28.0866   22.7086 H   0  0  0  0  0  0
  -24.5968  -30.6960   25.7786 H   0  0  0  0  0  0
  -24.8928  -32.2710   26.4960 H   0  0  0  0  0  0
  -25.8174  -30.8739   27.0171 H   0  0  0  0  0  0
  -26.2831  -29.6760   24.1167 H   0  0  0  0  0  0
  -27.4250  -29.7290   25.4397 H   0  0  0  0  0  0
  -27.8574  -30.4390   23.9036 H   0  0  0  0  0  0
  -27.2806  -33.3563   26.2007 H   0  0  0  0  0  0
  -28.3859  -32.6825   25.0164 H   0  0  0  0  0  0
  -28.0833  -31.8360   26.5259 H   0  0  0  0  0  0
  -28.2658  -38.0013   24.7550 H   0  0  0  0  0  0
  -28.0980  -36.2576   24.6321 H   0  0  0  0  0  0
  -27.2290  -37.1425   25.8908 H   0  0  0  0  0  0
  -20.9357  -29.8789   21.7005 H   0  0  0  0  0  0
  -26.0175  -38.2897   24.1488 H   0  0  0  0  0  0
  -24.9726  -21.3802   21.8708 H   0  0  0  0  0  0
  -25.4977  -22.2177   23.3268 H   0  0  0  0  0  0
  -26.5493  -20.9989   22.5834 H   0  0  0  0  0  0
  -30.4614  -16.9301   16.2576 H   0  0  0  0  0  0
  -31.3729  -16.0553   17.4760 H   0  0  0  0  0  0
  -32.1344  -16.4649   15.9645 H   0  0  0  0  0  0
  -33.7649  -19.1695   17.9200 H   0  0  0  0  0  0
  -34.0096  -17.8473   16.7782 H   0  0  0  0  0  0
  -33.6536  -17.4963   18.4617 H   0  0  0  0  0  0
  -31.5336  -23.2023   22.3458 H   0  0  0  0  0  0
  -31.4920  -21.4727   22.0969 H   0  0  0  0  0  0
  -30.3066  -22.2431   23.1508 H   0  0  0  0  0  0
  -28.3995  -26.1596   23.6364 H   0  0  0  0  0  0
  -27.0065  -25.9348   22.5717 H   0  0  0  0  0  0
  -27.6121  -27.5320   22.9313 H   0  0  0  0  0  0
  -31.6753  -17.0129   21.0726 H   0  0  0  0  0  0
  -31.9639  -16.5256   19.4704 H   0  0  0  0  0  0
  -26.7077  -22.4897   20.5259 H   0  0  0  0  0  0
  -25.8085  -23.7324   21.3733 H   0  0  0  0  0  0
  -30.4677  -25.2213   20.7500 H   0  0  0  0  0  0
  -30.2022  -25.0038   22.4501 H   0  0  0  0  0  0
  -31.8359  -18.8744   16.4396 H   0  0  0  0  0  0
  -28.4723  -23.9235   20.1856 H   0  0  0  0  0  0
  -30.5756  -22.8286   20.1571 H   0  0  0  0  0  0
  -29.6234  -27.2163   21.6478 H   0  0  0  0  0  0
  -28.8434  -20.8960   21.4854 H   0  0  0  0  0  0
  -29.2502  -15.7915   20.3330 H   0  0  0  0  0  0
  1 25  1  0  0  0
  1 30  2  0  0  0
  1 89  1  0  0  0
  2  3  1  0  0  0
  2 25  1  0  0  0
  2 92  1  0  0  0
  2 93  1  0  0  0
  3  4  1  0  0  0
  3 94  1  0  0  0
  3 95  1  0  0  0
  4  5  1  0  0  0
  4 96  1  0  0  0
  4 97  1  0  0  0
  5  6  1  0  0  0
  5 26  1  0  0  0
  5 98  1  0  0  0
  6 25  1  0  0  0
  6 99  1  0  0  0
  6100  1  0  0  0
  7  8  2  0  0  0
  7 26  1  0  0  0
  7 29  1  0  0  0
  8  9  1  0  0  0
  8 22  1  0  0  0
  9 10  1  0  0  0
  9 27  2  0  0  0
 10 11  2  0  0  0
 10 15  1  0  0  0
 11 12  1  0  0  0
 11101  1  0  0  0
 12 13  2  0  0  0
 12102  1  0  0  0
 13 14  1  0  0  0
 13 31  1  0  0  0
 14 15  2  0  0  0
 14103  1  0  0  0
 15104  1  0  0  0
 16 17  2  0  0  0
 16 21  1  0  0  0
 16 31  1  0  0  0
 17 18  1  0  0  0
 17105  1  0  0  0
 18 19  2  0  0  0
 18106  1  0  0  0
 19 20  1  0  0  0
 19 24  1  0  0  0
 20 21  2  0  0  0
 20107  1  0  0  0
 21 23  1  0  0  0
 22 28  1  0  0  0
 22 32  2  0  0  0
 26 27  1  0  0  0
 28108  1  0  0  0
 28109  1  0  0  0
 29110  1  0  0  0
 29111  1  0  0  0
 33 34  1  0  0  0
 33 66  1  0  0  0
 33 70  2  0  0  0
 34 36  1  0  0  0
 34 59  1  0  0  0
 34112  1  0  0  0
 35 44  2  0  0  0
 35 45  1  0  0  0
 35 68  1  0  0  0
 36 56  1  0  0  0
 36113  1  0  0  0
 37 39  1  0  0  0
 37 47  1  0  0  0
 37 66  1  0  0  0
 37114  1  0  0  0
 38 43  2  0  0  0
 38 46  1  0  0  0
 38 47  1  0  0  0
 39 64  1  0  0  0
 39 67  2  0  0  0
 40 52  1  0  0  0
 40 53  2  0  0  0
 40 58  1  0  0  0
 41115  1  0  0  0
 41116  1  0  0  0
 41117  1  0  0  0
 41 48  1  0  0  0
 42 43  1  0  0  0
 42 66  1  0  0  0
 42118  1  0  0  0
 42119  1  0  0  0
 43 44  1  0  0  0
 44120  1  0  0  0
 45 46  2  0  0  0
 45121  1  0  0  0
 46122  1  0  0  0
 47123  1  0  0  0
 47124  1  0  0  0
 48 56  1  0  0  0
 48 65  1  0  0  0
 48125  1  0  0  0
 49 50  1  0  0  0
 49 53  1  0  0  0
 49 64  1  0  0  0
 49126  1  0  0  0
 50 51  1  0  0  0
 50127  1  0  0  0
 50128  1  0  0  0
 51 52  1  0  0  0
 51129  1  0  0  0
 51130  1  0  0  0
 52131  1  0  0  0
 52132  1  0  0  0
 53 54  1  0  0  0
 54 55  2  0  0  0
 54133  1  0  0  0
 55 57  1  0  0  0
 55134  1  0  0  0
 56 69  2  0  0  0
 57 58  2  0  0  0
 57135  1  0  0  0
 58136  1  0  0  0
 59 60  1  0  0  0
 59 61  1  0  0  0
 59 62  1  0  0  0
 60137  1  0  0  0
 60138  1  0  0  0
 60139  1  0  0  0
 61140  1  0  0  0
 61141  1  0  0  0
 61142  1  0  0  0
 62143  1  0  0  0
 62144  1  0  0  0
 62145  1  0  0  0
 63 65  1  0  0  0
 63146  1  0  0  0
 63147  1  0  0  0
 63148  1  0  0  0
 64149  1  0  0  0
 65150  1  0  0  0
 68 86  1  0  0  0
 71 72  2  0  0  0
 71 80  1  0  0  0
 71 87  1  0  0  0
 72 83  1  0  0  0
 72 91  1  0  0  0
 73 87  2  0  0  0
 73 88  1  0  0  0
 73 91  1  0  0  0
 74 81  1  0  0  0
 74 84  1  0  0  0
 74 90  2  0  0  0
 75 81  1  0  0  0
 75151  1  0  0  0
 75152  1  0  0  0
 75153  1  0  0  0
 76154  1  0  0  0
 76155  1  0  0  0
 76156  1  0  0  0
 76 83  1  0  0  0
 77 83  1  0  0  0
 77157  1  0  0  0
 77158  1  0  0  0
 77159  1  0  0  0
 78160  1  0  0  0
 78161  1  0  0  0
 78162  1  0  0  0
 78 85  1  0  0  0
 79163  1  0  0  0
 79164  1  0  0  0
 79165  1  0  0  0
 79 86  1  0  0  0
 80 89  1  0  0  0
 80166  1  0  0  0
 80167  1  0  0  0
 81168  1  0  0  0
 81169  1  0  0  0
 82 86  1  0  0  0
 82170  1  0  0  0
 82171  1  0  0  0
 82 84  1  0  0  0
 83172  1  0  0  0
 84 85  1  0  0  0
 84173  1  0  0  0
 85 88  1  0  0  0
 85174  1  0  0  0
 86175  1  0  0  0
 88176  1  0  0  0
 89177  1  0  0  0
M  ISO  4   1 100  68 101  86 101  89 100
M  END
> <chiral flag>
0

> <version>
0

> <s_m_source_file>
/data/baiqing/PycharmProjects/Reinvent-master-3.2/result/LINK_invent/BTK/process_docking_weight1_custom_product_contain_oxygen_bond_distance_aromatic_linkinvent_7_9_3/rearranged_h_0189.sdf

> <i_m_source_file_index>
60

> <r_mmod_Potential_Energy-OPLS-2005>
-124.68968963623

> <r_mmod_Stretch_Energy-OPLS-2005>
39.4460525512695

> <r_mmod_Bend_Energy-OPLS-2005>
135.798889160156

> <r_mmod_Torsional_Energy-OPLS-2005>
219.757247924805

> <r_mmod_Improper_Torsional_Energy-OPLS-2005>
14.1801452636719

> <r_mmod_Van_der_Waal_Energy-OPLS-2005>
137.988708496094

> <r_mmod_Electrostatic_Energy-OPLS-2005>
-515.003967285156

> <r_mmod_Solvation_Energy-OPLS-2005>
-203.020202636719

> <b_mmod_Minimization_Converged-OPLS-2005>
0

> <r_mmod_RMS_Derivative-OPLS-2005>
7.51740074157715

$$$$
60
                    3D
 Structure written by MMmdl.
159167  0  0  1  0            999 V2000
  -30.5718  -14.7589   20.5081 C   0  0  0  0  0  0
  -30.4647  -12.4868   19.4762 C   0  0  0  0  0  0
  -29.5407  -12.5341   18.2381 C   0  0  0  0  0  0
  -28.0600  -12.3471   18.6326 C   0  0  0  0  0  0
  -27.6502  -13.2276   19.8449 C   0  0  2  0  0  0
  -28.6863  -13.1362   20.9875 C   0  0  0  0  0  0
  -25.2552  -13.8187   20.5604 C   0  0  0  0  0  0
  -24.1849  -13.0474   20.9179 C   0  0  0  0  0  0
  -24.6378  -11.6913   20.8710 C   0  0  0  0  0  0
  -23.9028  -10.4321   21.0372 C   0  0  0  0  0  0
  -24.3565   -9.4275   21.9177 C   0  0  0  0  0  0
  -23.6288   -8.2296   22.0781 C   0  0  0  0  0  0
  -22.4276   -8.0303   21.3568 C   0  0  0  0  0  0
  -21.9889   -9.0267   20.4666 C   0  0  0  0  0  0
  -22.7196  -10.2171   20.3050 C   0  0  0  0  0  0
  -21.6872   -6.0731   22.5281 C   0  0  0  0  0  0
  -21.4010   -6.5644   23.8203 C   0  0  0  0  0  0
  -21.3629   -5.6787   24.9169 C   0  0  0  0  0  0
  -21.6038   -4.3061   24.7223 C   0  0  0  0  0  0
  -21.8806   -3.8154   23.4337 C   0  0  0  0  0  0
  -21.9200   -4.6952   22.3398 C   0  0  0  0  0  0
  -22.7849  -13.5312   21.1791 C   0  0  0  0  0  0
  -22.1676   -4.2146   21.0974 F   0  0  0  0  0  0
  -21.5629   -3.4535   25.7720 F   0  0  0  0  0  0
  -29.9845  -13.5152   20.4235 N   0  0  0  0  0  0
  -26.2956  -12.9360   20.3130 N   0  0  0  0  0  0
  -25.9304  -11.6507   20.5608 N   0  0  0  0  0  0
  -22.0337  -12.8413   22.0291 N   0  0  0  0  0  0
  -25.4341  -15.1897   20.3901 N   0  0  0  0  0  0
  -31.7586  -14.8923   20.1914 O   0  0  0  0  0  0
  -21.6668   -6.8897   21.4248 O   0  0  0  0  0  0
  -22.3583  -14.5612   20.6589 O   0  0  0  0  0  0
  -24.6335  -31.8524   23.2011 C   0  0  0  0  0  0
  -25.9146  -32.4731   23.8343 C   0  0  1  0  0  0
  -27.1666  -27.2140   20.1666 C   0  0  0  0  0  0
  -25.5907  -33.8520   24.2259 N   0  0  0  0  0  0
  -23.4284  -30.4826   21.5455 C   0  0  2  0  0  0
  -24.8664  -28.9321   20.1062 C   0  0  0  0  0  0
  -22.7501  -29.4590   22.4898 C   0  0  0  0  0  0
  -18.0265  -28.1382   22.8497 C   0  0  0  0  0  0
  -24.1489  -36.7284   23.2645 C   0  0  0  0  0  0
  -25.9758  -30.7569   21.3822 C   0  0  0  0  0  0
  -26.0394  -29.3741   20.7325 C   0  0  0  0  0  0
  -27.1976  -28.5275   20.7529 C   0  0  0  0  0  0
  -25.9931  -26.8649   19.4708 C   0  0  0  0  0  0
  -24.8527  -27.6904   19.4538 C   0  0  0  0  0  0
  -23.6456  -29.8329   20.1545 C   0  0  0  0  0  0
  -25.4110  -36.3049   24.0342 C   0  0  1  0  0  0
  -20.5888  -28.3697   23.1278 C   0  0  2  0  0  0
  -20.6756  -26.9426   22.5411 C   0  0  0  0  0  0
  -19.5735  -26.6400   21.5203 C   0  0  0  0  0  0
  -18.1911  -26.7927   22.1618 C   0  0  0  0  0  0
  -19.1525  -28.8849   23.2874 C   0  0  0  0  0  0
  -18.9444  -30.1440   23.8912 C   0  0  0  0  0  0
  -17.6451  -30.6604   24.0555 C   0  0  0  0  0  0
  -25.9039  -34.9422   23.5114 C   0  0  0  0  0  0
  -16.5340  -29.9116   23.6313 C   0  0  0  0  0  0
  -16.7252  -28.6509   23.0375 C   0  0  0  0  0  0
  -26.4474  -31.6522   25.0735 C   0  0  0  0  0  0
  -25.3677  -31.3673   26.1447 C   0  0  0  0  0  0
  -27.0287  -30.2942   24.6195 C   0  0  0  0  0  0
  -27.6049  -32.4219   25.7497 C   0  0  0  0  0  0
  -27.5572  -37.1813   24.8455 C   0  0  0  0  0  0
  -21.4194  -29.3053   22.3673 N   0  0  0  0  0  0
  -26.4270  -37.3776   23.9418 N   0  0  0  0  0  0
  -24.6996  -31.0479   22.0998 N   0  0  0  0  0  0
  -23.4200  -28.8079   23.2960 O   0  0  0  0  0  0
  -28.1950  -26.2418   20.2132 O   0  0  0  0  0  0
  -26.5666  -34.8909   22.4716 O   0  0  0  0  0  0
  -23.5473  -32.1328   23.7309 O   0  0  0  0  0  0
  -27.9943  -18.5348   21.5685 C   0  0  0  0  0  0
  -29.1717  -18.5545   20.8627 C   0  0  0  0  0  0
  -28.5957  -20.8949   20.8717 C   0  0  0  0  0  0
  -26.3835  -23.3126   19.9164 C   0  0  0  0  0  0
  -23.7936  -23.4454   19.8054 C   0  0  0  0  0  0
  -29.2203  -25.0158   22.0745 C   0  0  0  0  0  0
  -30.0921  -17.3344   20.4575 C   0  0  0  0  0  0
  -25.0756  -23.7472   20.5908 C   0  0  0  0  0  0
  -27.6429  -23.4632   20.7736 C   0  0  2  0  0  0
  -28.0308  -25.0308   21.1133 C   0  0  2  0  0  0
  -29.4839  -19.9233   20.4963 N   0  0  0  0  0  0
  -28.6395  -22.3244   20.5976 N   0  0  0  0  0  0
  -29.7598  -15.8643   20.7351 N   0  0  0  0  0  0
  -26.3937  -22.8297   18.7785 O   0  0  0  0  0  0
  -27.2750  -20.1392   21.7750 S   0  0  0  0  0  0
  -31.4965  -12.6619   19.1661 H   0  0  0  0  0  0
  -30.4558  -11.5006   19.9389 H   0  0  0  0  0  0
  -29.8487  -11.7783   17.5139 H   0  0  0  0  0  0
  -29.6627  -13.4963   17.7381 H   0  0  0  0  0  0
  -27.9137  -11.2960   18.8781 H   0  0  0  0  0  0
  -27.4148  -12.5516   17.7765 H   0  0  0  0  0  0
  -27.6564  -14.2550   19.4799 H   0  0  0  0  0  0
  -28.7276  -12.1267   21.3978 H   0  0  0  0  0  0
  -28.4022  -13.7899   21.8115 H   0  0  0  0  0  0
  -25.2654   -9.5844   22.4775 H   0  0  0  0  0  0
  -23.9998   -7.4723   22.7533 H   0  0  0  0  0  0
  -21.0812   -8.8767   19.8999 H   0  0  0  0  0  0
  -22.3589  -10.9694   19.6182 H   0  0  0  0  0  0
  -21.2012   -7.6146   23.9708 H   0  0  0  0  0  0
  -21.1456   -6.0520   25.9073 H   0  0  0  0  0  0
  -22.0614   -2.7614   23.2817 H   0  0  0  0  0  0
  -22.3756  -12.0110   22.4892 H   0  0  0  0  0  0
  -21.0940  -13.1613   22.2216 H   0  0  0  0  0  0
  -24.6692  -15.8506   20.4699 H   0  0  0  0  0  0
  -26.2370  -15.5799   19.9155 H   0  0  0  0  0  0
  -26.7205  -32.5361   23.1059 H   0  0  0  0  0  0
  -24.9891  -33.9616   25.0290 H   0  0  0  0  0  0
  -22.7251  -31.3079   21.4117 H   0  0  0  0  0  0
  -23.3733  -35.9625   23.3268 H   0  0  0  0  0  0
  -24.3587  -36.8942   22.2063 H   0  0  0  0  0  0
  -23.7240  -37.6491   23.6669 H   0  0  0  0  0  0
  -26.1098  -31.5132   20.6071 H   0  0  0  0  0  0
  -26.8574  -30.8110   22.0095 H   0  0  0  0  0  0
  -28.0904  -28.8582   21.2624 H   0  0  0  0  0  0
  -25.9405  -25.9165   18.9565 H   0  0  0  0  0  0
  -23.9617  -27.3667   18.9303 H   0  0  0  0  0  0
  -23.7846  -30.6223   19.4150 H   0  0  0  0  0  0
  -22.7541  -29.2926   19.8317 H   0  0  0  0  0  0
  -25.1276  -36.1907   25.0832 H   0  0  0  0  0  0
  -20.9962  -28.3265   24.1408 H   0  0  0  0  0  0
  -20.5660  -26.2313   23.3605 H   0  0  0  0  0  0
  -21.6611  -26.7446   22.1203 H   0  0  0  0  0  0
  -19.6905  -25.6307   21.1235 H   0  0  0  0  0  0
  -19.6666  -27.3198   20.6721 H   0  0  0  0  0  0
  -17.4183  -26.6680   21.4012 H   0  0  0  0  0  0
  -18.0309  -26.0057   22.9003 H   0  0  0  0  0  0
  -19.7915  -30.7227   24.2337 H   0  0  0  0  0  0
  -17.5015  -31.6300   24.5120 H   0  0  0  0  0  0
  -15.5353  -30.3052   23.7589 H   0  0  0  0  0  0
  -15.8641  -28.0827   22.7134 H   0  0  0  0  0  0
  -24.5879  -30.6998   25.7760 H   0  0  0  0  0  0
  -24.8824  -32.2829   26.4838 H   0  0  0  0  0  0
  -25.7988  -30.8867   27.0242 H   0  0  0  0  0  0
  -26.2851  -29.6738   24.1207 H   0  0  0  0  0  0
  -27.3934  -29.7176   25.4695 H   0  0  0  0  0  0
  -27.8736  -30.4203   23.9436 H   0  0  0  0  0  0
  -27.2688  -33.3527   26.2073 H   0  0  0  0  0  0
  -28.3858  -32.6759   25.0315 H   0  0  0  0  0  0
  -28.0708  -31.8330   26.5410 H   0  0  0  0  0  0
  -28.2573  -38.0128   24.7498 H   0  0  0  0  0  0
  -28.1079  -36.2661   24.6237 H   0  0  0  0  0  0
  -27.2299  -37.1406   25.8860 H   0  0  0  0  0  0
  -20.9370  -29.8846   21.6939 H   0  0  0  0  0  0
  -26.0139  -38.2854   24.1404 H   0  0  0  0  0  0
  -27.4886  -17.6651   21.9698 H   0  0  0  0  0  0
  -22.9313  -23.8053   20.3677 H   0  0  0  0  0  0
  -23.6673  -22.3728   19.6577 H   0  0  0  0  0  0
  -23.7815  -23.9331   18.8297 H   0  0  0  0  0  0
  -29.0617  -24.2754   22.8597 H   0  0  0  0  0  0
  -29.3580  -25.9811   22.5552 H   0  0  0  0  0  0
  -30.1402  -24.7547   21.5566 H   0  0  0  0  0  0
  -31.0864  -17.5305   20.8556 H   0  0  0  0  0  0
  -30.2088  -17.3881   19.3755 H   0  0  0  0  0  0
  -25.1328  -24.8165   20.7836 H   0  0  0  0  0  0
  -25.0229  -23.2634   21.5673 H   0  0  0  0  0  0
  -27.2800  -23.1540   21.7549 H   0  0  0  0  0  0
  -27.1943  -25.3270   21.7525 H   0  0  0  0  0  0
  -29.4294  -22.5961   20.0258 H   0  0  0  0  0  0
  -28.7943  -15.6638   20.9346 H   0  0  0  0  0  0
  1 25  1  0  0  0
  1 30  2  0  0  0
  1 83  1  0  0  0
  2  3  1  0  0  0
  2 25  1  0  0  0
  2 86  1  0  0  0
  2 87  1  0  0  0
  3  4  1  0  0  0
  3 88  1  0  0  0
  3 89  1  0  0  0
  4  5  1  0  0  0
  4 90  1  0  0  0
  4 91  1  0  0  0
  5  6  1  0  0  0
  5 26  1  0  0  0
  5 92  1  0  0  0
  6 25  1  0  0  0
  6 93  1  0  0  0
  6 94  1  0  0  0
  7  8  2  0  0  0
  7 26  1  0  0  0
  7 29  1  0  0  0
  8  9  1  0  0  0
  8 22  1  0  0  0
  9 10  1  0  0  0
  9 27  2  0  0  0
 10 11  2  0  0  0
 10 15  1  0  0  0
 11 12  1  0  0  0
 11 95  1  0  0  0
 12 13  2  0  0  0
 12 96  1  0  0  0
 13 14  1  0  0  0
 13 31  1  0  0  0
 14 15  2  0  0  0
 14 97  1  0  0  0
 15 98  1  0  0  0
 16 17  2  0  0  0
 16 21  1  0  0  0
 16 31  1  0  0  0
 17 18  1  0  0  0
 17 99  1  0  0  0
 18 19  2  0  0  0
 18100  1  0  0  0
 19 20  1  0  0  0
 19 24  1  0  0  0
 20 21  2  0  0  0
 20101  1  0  0  0
 21 23  1  0  0  0
 22 28  1  0  0  0
 22 32  2  0  0  0
 26 27  1  0  0  0
 28102  1  0  0  0
 28103  1  0  0  0
 29104  1  0  0  0
 29105  1  0  0  0
 33 34  1  0  0  0
 33 66  1  0  0  0
 33 70  2  0  0  0
 34 36  1  0  0  0
 34 59  1  0  0  0
 34106  1  0  0  0
 35 44  2  0  0  0
 35 45  1  0  0  0
 35 68  1  0  0  0
 36 56  1  0  0  0
 36107  1  0  0  0
 37 39  1  0  0  0
 37 47  1  0  0  0
 37 66  1  0  0  0
 37108  1  0  0  0
 38 43  2  0  0  0
 38 46  1  0  0  0
 38 47  1  0  0  0
 39 64  1  0  0  0
 39 67  2  0  0  0
 40 52  1  0  0  0
 40 53  2  0  0  0
 40 58  1  0  0  0
 41109  1  0  0  0
 41110  1  0  0  0
 41111  1  0  0  0
 41 48  1  0  0  0
 42 43  1  0  0  0
 42 66  1  0  0  0
 42112  1  0  0  0
 42113  1  0  0  0
 43 44  1  0  0  0
 44114  1  0  0  0
 45 46  2  0  0  0
 45115  1  0  0  0
 46116  1  0  0  0
 47117  1  0  0  0
 47118  1  0  0  0
 48 56  1  0  0  0
 48 65  1  0  0  0
 48119  1  0  0  0
 49 50  1  0  0  0
 49 53  1  0  0  0
 49 64  1  0  0  0
 49120  1  0  0  0
 50 51  1  0  0  0
 50121  1  0  0  0
 50122  1  0  0  0
 51 52  1  0  0  0
 51123  1  0  0  0
 51124  1  0  0  0
 52125  1  0  0  0
 52126  1  0  0  0
 53 54  1  0  0  0
 54 55  2  0  0  0
 54127  1  0  0  0
 55 57  1  0  0  0
 55128  1  0  0  0
 56 69  2  0  0  0
 57 58  2  0  0  0
 57129  1  0  0  0
 58130  1  0  0  0
 59 60  1  0  0  0
 59 61  1  0  0  0
 59 62  1  0  0  0
 60131  1  0  0  0
 60132  1  0  0  0
 60133  1  0  0  0
 61134  1  0  0  0
 61135  1  0  0  0
 61136  1  0  0  0
 62137  1  0  0  0
 62138  1  0  0  0
 62139  1  0  0  0
 63 65  1  0  0  0
 63140  1  0  0  0
 63141  1  0  0  0
 63142  1  0  0  0
 64143  1  0  0  0
 65144  1  0  0  0
 68 80  1  0  0  0
 71 72  2  0  0  0
 71 85  1  0  0  0
 71145  1  0  0  0
 72 77  1  0  0  0
 72 81  1  0  0  0
 73 81  2  0  0  0
 73 82  1  0  0  0
 73 85  1  0  0  0
 74 78  1  0  0  0
 74 79  1  0  0  0
 74 84  2  0  0  0
 75 78  1  0  0  0
 75146  1  0  0  0
 75147  1  0  0  0
 75148  1  0  0  0
 76149  1  0  0  0
 76150  1  0  0  0
 76151  1  0  0  0
 76 80  1  0  0  0
 77 83  1  0  0  0
 77152  1  0  0  0
 77153  1  0  0  0
 78154  1  0  0  0
 78155  1  0  0  0
 79 80  1  0  0  0
 79 82  1  0  0  0
 79156  1  0  0  0
 80157  1  0  0  0
 82158  1  0  0  0
 83159  1  0  0  0
M  ISO  4   1 100  68 101  80 101  83 100
M  END
> <chiral flag>
0

> <version>
0

> <s_m_source_file>
/data/baiqing/PycharmProjects/Reinvent-master-3.2/result/LINK_invent/BTK/process_docking_weight1_custom_product_contain_oxygen_bond_distance_aromatic_linkinvent_7_9_3/rearranged_h_0189.sdf

> <i_m_source_file_index>
61

> <r_mmod_Potential_Energy-OPLS-2005>
11.5167036056519

> <r_mmod_Stretch_Energy-OPLS-2005>
128.34358215332

> <r_mmod_Bend_Energy-OPLS-2005>
214.628280639648

> <r_mmod_Torsional_Energy-OPLS-2005>
233.173187255859

> <r_mmod_Improper_Torsional_Energy-OPLS-2005>
6.66104698181152

> <r_mmod_Van_der_Waal_Energy-OPLS-2005>
101.842590332031

> <r_mmod_Electrostatic_Energy-OPLS-2005>
-546.752014160156

> <r_mmod_Solvation_Energy-OPLS-2005>
-238.315567016602

> <b_mmod_Minimization_Converged-OPLS-2005>
0

> <r_mmod_RMS_Derivative-OPLS-2005>
6.96937084197998

$$$$
61
                    3D
 Structure written by MMmdl.
160168  0  0  1  0            999 V2000
  -30.7933  -14.4497   20.6245 C   0  0  0  0  0  0
  -30.4100  -12.3185   19.4385 C   0  0  0  0  0  0
  -29.5016  -12.5189   18.2098 C   0  0  0  0  0  0
  -28.0257  -12.3633   18.6198 C   0  0  0  0  0  0
  -27.6600  -13.2223   19.8596 C   0  0  2  0  0  0
  -28.6977  -13.0637   20.9957 C   0  0  0  0  0  0
  -25.2559  -13.8145   20.5591 C   0  0  0  0  0  0
  -24.1856  -13.0417   20.9156 C   0  0  0  0  0  0
  -24.6434  -11.6879   20.8741 C   0  0  0  0  0  0
  -23.9071  -10.4269   21.0394 C   0  0  0  0  0  0
  -24.3606   -9.4200   21.9200 C   0  0  0  0  0  0
  -23.6287   -8.2238   22.0758 C   0  0  0  0  0  0
  -22.4280   -8.0253   21.3541 C   0  0  0  0  0  0
  -21.9902   -9.0237   20.4666 C   0  0  0  0  0  0
  -22.7217  -10.2118   20.3071 C   0  0  0  0  0  0
  -21.6848   -6.0714   22.5299 C   0  0  0  0  0  0
  -21.3991   -6.5640   23.8230 C   0  0  0  0  0  0
  -21.3679   -5.6816   24.9214 C   0  0  0  0  0  0
  -21.6051   -4.3078   24.7282 C   0  0  0  0  0  0
  -21.8795   -3.8138   23.4412 C   0  0  0  0  0  0
  -21.9191   -4.6934   22.3446 C   0  0  0  0  0  0
  -22.7881  -13.5198   21.1851 C   0  0  0  0  0  0
  -22.1648   -4.2095   21.1029 F   0  0  0  0  0  0
  -21.5661   -3.4573   25.7811 F   0  0  0  0  0  0
  -30.0436  -13.3256   20.4492 N   0  0  0  0  0  0
  -26.3035  -12.9366   20.3291 N   0  0  0  0  0  0
  -25.9381  -11.6510   20.5770 N   0  0  0  0  0  0
  -22.0567  -12.8177   22.0422 N   0  0  0  0  0  0
  -25.4240  -15.1848   20.3824 N   0  0  0  0  0  0
  -31.8571  -14.6377   20.0312 O   0  0  0  0  0  0
  -21.6643   -6.8836   21.4247 O   0  0  0  0  0  0
  -22.3562  -14.5541   20.6754 O   0  0  0  0  0  0
  -24.6074  -31.8676   23.2152 C   0  0  0  0  0  0
  -25.8969  -32.4848   23.8429 C   0  0  1  0  0  0
  -27.2450  -27.4691   20.1176 C   0  0  0  0  0  0
  -25.5821  -33.8639   24.2374 N   0  0  0  0  0  0
  -23.3967  -30.4933   21.5511 C   0  0  2  0  0  0
  -24.8490  -28.9615   20.1210 C   0  0  0  0  0  0
  -22.7350  -29.4673   22.4988 C   0  0  0  0  0  0
  -18.0225  -28.1349   22.8524 C   0  0  0  0  0  0
  -24.1504  -36.7347   23.2641 C   0  0  0  0  0  0
  -25.9195  -30.8558   21.3525 C   0  0  0  0  0  0
  -26.0040  -29.4881   20.7130 C   0  0  0  0  0  0
  -27.2047  -28.7487   20.7091 C   0  0  0  0  0  0
  -26.0767  -26.9471   19.5233 C   0  0  0  0  0  0
  -24.8784  -27.6882   19.5246 C   0  0  0  0  0  0
  -23.6072  -29.8239   20.1673 C   0  0  0  0  0  0
  -25.4100  -36.3127   24.0366 C   0  0  1  0  0  0
  -20.5820  -28.3628   23.1306 C   0  0  2  0  0  0
  -20.6694  -26.9373   22.5380 C   0  0  0  0  0  0
  -19.5656  -26.6341   21.5226 C   0  0  0  0  0  0
  -18.1827  -26.7912   22.1632 C   0  0  0  0  0  0
  -19.1473  -28.8814   23.2924 C   0  0  0  0  0  0
  -18.9385  -30.1411   23.8928 C   0  0  0  0  0  0
  -17.6388  -30.6559   24.0567 C   0  0  0  0  0  0
  -25.9012  -34.9500   23.5183 C   0  0  0  0  0  0
  -16.5282  -29.9078   23.6319 C   0  0  0  0  0  0
  -16.7208  -28.6478   23.0384 C   0  0  0  0  0  0
  -26.4450  -31.6562   25.0685 C   0  0  0  0  0  0
  -25.3733  -31.3558   26.1435 C   0  0  0  0  0  0
  -27.0261  -30.3025   24.5943 C   0  0  0  0  0  0
  -27.6069  -32.4265   25.7389 C   0  0  0  0  0  0
  -27.5587  -37.1842   24.8475 C   0  0  0  0  0  0
  -21.4074  -29.3029   22.3730 N   0  0  0  0  0  0
  -26.4305  -37.3801   23.9413 N   0  0  0  0  0  0
  -24.6606  -31.0829   22.1017 N   0  0  0  0  0  0
  -23.4139  -28.8206   23.3011 O   0  0  0  0  0  0
  -28.4225  -26.7622   20.1026 O   0  0  0  0  0  0
  -26.5595  -34.8943   22.4766 O   0  0  0  0  0  0
  -23.5275  -32.1377   23.7598 O   0  0  0  0  0  0
  -30.2890  -17.8695   21.8732 C   0  0  0  0  0  0
  -28.9388  -18.0961   22.0578 C   0  0  0  0  0  0
  -30.2405  -20.1592   21.6798 C   0  0  0  0  0  0
  -27.8302  -17.1292   22.3377 C   0  0  0  0  0  0
  -29.9289  -23.0142   23.2685 C   0  0  0  0  0  0
  -31.0524  -16.5549   21.9626 C   0  0  0  0  0  0
  -28.8349  -23.0235   20.9269 C   0  0  0  0  0  0
  -28.4522  -25.6040   20.9432 C   0  0  0  0  0  0
  -30.1248  -22.7913   21.7573 C   0  0  2  0  0  0
  -28.8074  -24.3456   20.1254 C   0  0  2  0  0  0
  -31.0050  -19.0625   21.6318 N   0  0  0  0  0  0
  -30.7063  -21.4651   21.5285 N   0  0  0  0  0  0
  -30.3275  -15.3631   21.4916 N   0  0  0  0  0  0
  -27.8953  -24.2098   19.1599 F   0  0  0  0  0  0
  -28.5537  -19.7993   21.9915 S   0  0  0  0  0  0
  -31.4616  -12.3706   19.1531 H   0  0  0  0  0  0
  -30.2699  -11.3202   19.8537 H   0  0  0  0  0  0
  -29.7589  -11.7948   17.4332 H   0  0  0  0  0  0
  -29.6690  -13.5064   17.7741 H   0  0  0  0  0  0
  -27.8556  -11.3097   18.8387 H   0  0  0  0  0  0
  -27.3737  -12.6095   17.7801 H   0  0  0  0  0  0
  -27.6889  -14.2621   19.5342 H   0  0  0  0  0  0
  -28.6616  -12.0571   21.4111 H   0  0  0  0  0  0
  -28.4402  -13.7288   21.8216 H   0  0  0  0  0  0
  -25.2723   -9.5682   22.4812 H   0  0  0  0  0  0
  -24.0008   -7.4602   22.7451 H   0  0  0  0  0  0
  -21.0845   -8.8715   19.8952 H   0  0  0  0  0  0
  -22.3630  -10.9660   19.6209 H   0  0  0  0  0  0
  -21.1929   -7.6142   23.9713 H   0  0  0  0  0  0
  -21.1547   -6.0566   25.9122 H   0  0  0  0  0  0
  -22.0543   -2.7588   23.2950 H   0  0  0  0  0  0
  -22.4200  -11.9832   22.4774 H   0  0  0  0  0  0
  -21.1178  -13.1145   22.2652 H   0  0  0  0  0  0
  -24.6346  -15.8172   20.4152 H   0  0  0  0  0  0
  -26.2476  -15.5975   19.9626 H   0  0  0  0  0  0
  -26.7025  -32.5573   23.1207 H   0  0  0  0  0  0
  -24.9921  -33.9804   25.0467 H   0  0  0  0  0  0
  -22.6863  -31.3086   21.4048 H   0  0  0  0  0  0
  -23.3734  -35.9703   23.3289 H   0  0  0  0  0  0
  -24.3644  -36.8936   22.2057 H   0  0  0  0  0  0
  -23.7288  -37.6589   23.6620 H   0  0  0  0  0  0
  -26.0061  -31.6170   20.5758 H   0  0  0  0  0  0
  -26.8167  -30.9289   21.9535 H   0  0  0  0  0  0
  -28.0998  -29.1519   21.1599 H   0  0  0  0  0  0
  -26.0943  -25.9727   19.0556 H   0  0  0  0  0  0
  -23.9869  -27.2785   19.0695 H   0  0  0  0  0  0
  -23.7122  -30.6000   19.4072 H   0  0  0  0  0  0
  -22.7295  -29.2425   19.8761 H   0  0  0  0  0  0
  -25.1275  -36.2022   25.0856 H   0  0  0  0  0  0
  -20.9925  -28.3179   24.1432 H   0  0  0  0  0  0
  -20.5598  -26.2239   23.3566 H   0  0  0  0  0  0
  -21.6524  -26.7382   22.1111 H   0  0  0  0  0  0
  -19.6789  -25.6234   21.1290 H   0  0  0  0  0  0
  -19.6594  -27.3129   20.6734 H   0  0  0  0  0  0
  -17.4134  -26.6722   21.4001 H   0  0  0  0  0  0
  -18.0158  -26.0012   22.8976 H   0  0  0  0  0  0
  -19.7857  -30.7205   24.2342 H   0  0  0  0  0  0
  -17.4921  -31.6249   24.5153 H   0  0  0  0  0  0
  -15.5278  -30.2964   23.7581 H   0  0  0  0  0  0
  -15.8627  -28.0753   22.7136 H   0  0  0  0  0  0
  -24.6041  -30.6754   25.7759 H   0  0  0  0  0  0
  -24.8742  -32.2616   26.4870 H   0  0  0  0  0  0
  -25.8119  -30.8792   27.0214 H   0  0  0  0  0  0
  -26.2769  -29.6874   24.0955 H   0  0  0  0  0  0
  -27.4002  -29.7167   25.4341 H   0  0  0  0  0  0
  -27.8632  -30.4336   23.9078 H   0  0  0  0  0  0
  -27.2785  -33.3664   26.1844 H   0  0  0  0  0  0
  -28.3911  -32.6661   25.0194 H   0  0  0  0  0  0
  -28.0674  -31.8432   26.5367 H   0  0  0  0  0  0
  -28.2626  -38.0118   24.7487 H   0  0  0  0  0  0
  -28.1069  -36.2658   24.6326 H   0  0  0  0  0  0
  -27.2327  -37.1541   25.8889 H   0  0  0  0  0  0
  -20.9215  -29.8821   21.7011 H   0  0  0  0  0  0
  -26.0196  -38.2894   24.1375 H   0  0  0  0  0  0
  -27.9302  -16.2148   21.7567 H   0  0  0  0  0  0
  -26.8611  -17.5548   22.0744 H   0  0  0  0  0  0
  -27.8021  -16.8612   23.3942 H   0  0  0  0  0  0
  -29.4837  -23.9823   23.4982 H   0  0  0  0  0  0
  -30.8918  -22.9810   23.7800 H   0  0  0  0  0  0
  -29.2968  -22.2403   23.7098 H   0  0  0  0  0  0
  -31.3042  -16.3581   23.0052 H   0  0  0  0  0  0
  -32.0198  -16.6511   21.4653 H   0  0  0  0  0  0
  -27.9461  -22.9432   21.5566 H   0  0  0  0  0  0
  -28.7316  -22.2180   20.2034 H   0  0  0  0  0  0
  -29.2162  -25.7794   21.7038 H   0  0  0  0  0  0
  -27.5136  -25.4593   21.4797 H   0  0  0  0  0  0
  -30.8649  -23.5188   21.4185 H   0  0  0  0  0  0
  -29.7645  -24.4849   19.6209 H   0  0  0  0  0  0
  -31.6971  -21.5152   21.3041 H   0  0  0  0  0  0
  -29.4311  -15.1887   21.9085 H   0  0  0  0  0  0
  1 25  1  0  0  0
  1 30  2  0  0  0
  1 83  1  0  0  0
  2  3  1  0  0  0
  2 25  1  0  0  0
  2 86  1  0  0  0
  2 87  1  0  0  0
  3  4  1  0  0  0
  3 88  1  0  0  0
  3 89  1  0  0  0
  4  5  1  0  0  0
  4 90  1  0  0  0
  4 91  1  0  0  0
  5  6  1  0  0  0
  5 26  1  0  0  0
  5 92  1  0  0  0
  6 25  1  0  0  0
  6 93  1  0  0  0
  6 94  1  0  0  0
  7  8  2  0  0  0
  7 26  1  0  0  0
  7 29  1  0  0  0
  8  9  1  0  0  0
  8 22  1  0  0  0
  9 10  1  0  0  0
  9 27  2  0  0  0
 10 11  2  0  0  0
 10 15  1  0  0  0
 11 12  1  0  0  0
 11 95  1  0  0  0
 12 13  2  0  0  0
 12 96  1  0  0  0
 13 14  1  0  0  0
 13 31  1  0  0  0
 14 15  2  0  0  0
 14 97  1  0  0  0
 15 98  1  0  0  0
 16 17  2  0  0  0
 16 21  1  0  0  0
 16 31  1  0  0  0
 17 18  1  0  0  0
 17 99  1  0  0  0
 18 19  2  0  0  0
 18100  1  0  0  0
 19 20  1  0  0  0
 19 24  1  0  0  0
 20 21  2  0  0  0
 20101  1  0  0  0
 21 23  1  0  0  0
 22 28  1  0  0  0
 22 32  2  0  0  0
 26 27  1  0  0  0
 28102  1  0  0  0
 28103  1  0  0  0
 29104  1  0  0  0
 29105  1  0  0  0
 33 34  1  0  0  0
 33 66  1  0  0  0
 33 70  2  0  0  0
 34 36  1  0  0  0
 34 59  1  0  0  0
 34106  1  0  0  0
 35 44  2  0  0  0
 35 45  1  0  0  0
 35 68  1  0  0  0
 36 56  1  0  0  0
 36107  1  0  0  0
 37 39  1  0  0  0
 37 47  1  0  0  0
 37 66  1  0  0  0
 37108  1  0  0  0
 38 43  2  0  0  0
 38 46  1  0  0  0
 38 47  1  0  0  0
 39 64  1  0  0  0
 39 67  2  0  0  0
 40 52  1  0  0  0
 40 53  2  0  0  0
 40 58  1  0  0  0
 41109  1  0  0  0
 41110  1  0  0  0
 41111  1  0  0  0
 41 48  1  0  0  0
 42 43  1  0  0  0
 42 66  1  0  0  0
 42112  1  0  0  0
 42113  1  0  0  0
 43 44  1  0  0  0
 44114  1  0  0  0
 45 46  2  0  0  0
 45115  1  0  0  0
 46116  1  0  0  0
 47117  1  0  0  0
 47118  1  0  0  0
 48 56  1  0  0  0
 48 65  1  0  0  0
 48119  1  0  0  0
 49 50  1  0  0  0
 49 53  1  0  0  0
 49 64  1  0  0  0
 49120  1  0  0  0
 50 51  1  0  0  0
 50121  1  0  0  0
 50122  1  0  0  0
 51 52  1  0  0  0
 51123  1  0  0  0
 51124  1  0  0  0
 52125  1  0  0  0
 52126  1  0  0  0
 53 54  1  0  0  0
 54 55  2  0  0  0
 54127  1  0  0  0
 55 57  1  0  0  0
 55128  1  0  0  0
 56 69  2  0  0  0
 57 58  2  0  0  0
 57129  1  0  0  0
 58130  1  0  0  0
 59 60  1  0  0  0
 59 61  1  0  0  0
 59 62  1  0  0  0
 60131  1  0  0  0
 60132  1  0  0  0
 60133  1  0  0  0
 61134  1  0  0  0
 61135  1  0  0  0
 61136  1  0  0  0
 62137  1  0  0  0
 62138  1  0  0  0
 62139  1  0  0  0
 63 65  1  0  0  0
 63140  1  0  0  0
 63141  1  0  0  0
 63142  1  0  0  0
 64143  1  0  0  0
 65144  1  0  0  0
 68 78  1  0  0  0
 71 72  2  0  0  0
 71 76  1  0  0  0
 71 81  1  0  0  0
 72 74  1  0  0  0
 72 85  1  0  0  0
 73 81  2  0  0  0
 73 82  1  0  0  0
 73 85  1  0  0  0
 74145  1  0  0  0
 74146  1  0  0  0
 74147  1  0  0  0
 75148  1  0  0  0
 75149  1  0  0  0
 75150  1  0  0  0
 75 79  1  0  0  0
 76 83  1  0  0  0
 76151  1  0  0  0
 76152  1  0  0  0
 77 79  1  0  0  0
 77 80  1  0  0  0
 77153  1  0  0  0
 77154  1  0  0  0
 78 80  1  0  0  0
 78155  1  0  0  0
 78156  1  0  0  0
 79 82  1  0  0  0
 79157  1  0  0  0
 80 84  1  0  0  0
 80158  1  0  0  0
 82159  1  0  0  0
 83160  1  0  0  0
M  ISO  4   1 100  68 101  78 101  83 100
M  END
> <chiral flag>
0

> <version>
0

> <s_m_source_file>
/data/baiqing/PycharmProjects/Reinvent-master-3.2/result/LINK_invent/BTK/process_docking_weight1_custom_product_contain_oxygen_bond_distance_aromatic_linkinvent_7_9_3/rearranged_h_0189.sdf

> <i_m_source_file_index>
62

> <r_mmod_Potential_Energy-OPLS-2005>
-219.277572631836

> <r_mmod_Stretch_Energy-OPLS-2005>
35.6535263061523

> <r_mmod_Bend_Energy-OPLS-2005>
95.01171875

> <r_mmod_Torsional_Energy-OPLS-2005>
221.369934082031

> <r_mmod_Improper_Torsional_Energy-OPLS-2005>
2.73858714103699

> <r_mmod_Van_der_Waal_Energy-OPLS-2005>
121.681617736816

> <r_mmod_Electrostatic_Energy-OPLS-2005>
-488.238525390625

> <r_mmod_Solvation_Energy-OPLS-2005>
-219.188827514648

> <b_mmod_Minimization_Converged-OPLS-2005>
0

> <r_mmod_RMS_Derivative-OPLS-2005>
5.64733362197876

$$$$
62
                    3D
 Structure written by MMmdl.
160167  0  0  1  0            999 V2000
  -30.5022  -15.2077   20.3288 C   0  0  0  0  0  0
  -30.4448  -12.7616   19.5178 C   0  0  0  0  0  0
  -29.5265  -12.5660   18.2856 C   0  0  0  0  0  0
  -28.0781  -12.2972   18.7249 C   0  0  0  0  0  0
  -27.6226  -13.2723   19.8357 C   0  0  2  0  0  0
  -28.6681  -13.4482   20.9615 C   0  0  0  0  0  0
  -25.2430  -13.8261   20.5759 C   0  0  0  0  0  0
  -24.1767  -13.0434   20.9236 C   0  0  0  0  0  0
  -24.6423  -11.6940   20.8772 C   0  0  0  0  0  0
  -23.9095  -10.4312   21.0418 C   0  0  0  0  0  0
  -24.3638   -9.4230   21.9201 C   0  0  0  0  0  0
  -23.6320   -8.2253   22.0769 C   0  0  0  0  0  0
  -22.4301   -8.0291   21.3553 C   0  0  0  0  0  0
  -21.9950   -9.0256   20.4663 C   0  0  0  0  0  0
  -22.7268  -10.2141   20.3078 C   0  0  0  0  0  0
  -21.6853   -6.0741   22.5266 C   0  0  0  0  0  0
  -21.4036   -6.5638   23.8207 C   0  0  0  0  0  0
  -21.3660   -5.6798   24.9177 C   0  0  0  0  0  0
  -21.6046   -4.3072   24.7235 C   0  0  0  0  0  0
  -21.8825   -3.8143   23.4359 C   0  0  0  0  0  0
  -21.9207   -4.6959   22.3423 C   0  0  0  0  0  0
  -22.7790  -13.5187   21.1904 C   0  0  0  0  0  0
  -22.1658   -4.2119   21.1013 F   0  0  0  0  0  0
  -21.5635   -3.4579   25.7758 F   0  0  0  0  0  0
  -29.9157  -13.9159   20.3308 N   0  0  0  0  0  0
  -26.2896  -12.9532   20.3350 N   0  0  0  0  0  0
  -25.9401  -11.6627   20.5825 N   0  0  0  0  0  0
  -22.0474  -12.8101   22.0430 N   0  0  0  0  0  0
  -25.4058  -15.1993   20.4186 N   0  0  0  0  0  0
  -31.7140  -15.1893   20.0781 O   0  0  0  0  0  0
  -21.6660   -6.8877   21.4224 O   0  0  0  0  0  0
  -22.3435  -14.5495   20.6790 O   0  0  0  0  0  0
  -24.6600  -31.8272   23.1736 C   0  0  0  0  0  0
  -25.9337  -32.4577   23.8156 C   0  0  1  0  0  0
  -27.2261  -26.9847   20.1672 C   0  0  0  0  0  0
  -25.5990  -33.8384   24.2092 N   0  0  0  0  0  0
  -23.4726  -30.4388   21.5244 C   0  0  2  0  0  0
  -24.9247  -28.8419   20.1048 C   0  0  0  0  0  0
  -22.7686  -29.4419   22.4798 C   0  0  0  0  0  0
  -18.0320  -28.1409   22.8448 C   0  0  0  0  0  0
  -24.1509  -36.7223   23.2642 C   0  0  0  0  0  0
  -26.0388  -30.6482   21.3976 C   0  0  0  0  0  0
  -26.1069  -29.2487   20.7357 C   0  0  0  0  0  0
  -27.2521  -28.3394   20.7481 C   0  0  0  0  0  0
  -26.0258  -26.7355   19.4603 C   0  0  0  0  0  0
  -24.9053  -27.6000   19.4489 C   0  0  0  0  0  0
  -23.7077  -29.7596   20.1475 C   0  0  0  0  0  0
  -25.4142  -36.2977   24.0311 C   0  0  1  0  0  0
  -20.5963  -28.3735   23.1200 C   0  0  2  0  0  0
  -20.6817  -26.9412   22.5413 C   0  0  0  0  0  0
  -19.5800  -26.6365   21.5218 C   0  0  0  0  0  0
  -18.1962  -26.7933   22.1614 C   0  0  0  0  0  0
  -19.1597  -28.8887   23.2785 C   0  0  0  0  0  0
  -18.9492  -30.1477   23.8833 C   0  0  0  0  0  0
  -17.6494  -30.6583   24.0561 C   0  0  0  0  0  0
  -25.9098  -34.9343   23.5027 C   0  0  0  0  0  0
  -16.5374  -29.9077   23.6349 C   0  0  0  0  0  0
  -16.7324  -28.6517   23.0331 C   0  0  0  0  0  0
  -26.4600  -31.6488   25.0668 C   0  0  0  0  0  0
  -25.3717  -31.3724   26.1313 C   0  0  0  0  0  0
  -27.0500  -30.2837   24.6399 C   0  0  0  0  0  0
  -27.6075  -32.4313   25.7489 C   0  0  0  0  0  0
  -27.5590  -37.1740   24.8466 C   0  0  0  0  0  0
  -21.4353  -29.3013   22.3545 N   0  0  0  0  0  0
  -26.4304  -37.3698   23.9422 N   0  0  0  0  0  0
  -24.7459  -30.9970   22.0861 N   0  0  0  0  0  0
  -23.4249  -28.7987   23.3032 O   0  0  0  0  0  0
  -28.2263  -25.8945   20.2902 O   0  0  0  0  0  0
  -26.5729  -34.8896   22.4632 O   0  0  0  0  0  0
  -23.5700  -32.1251   23.6888 O   0  0  0  0  0  0
  -29.4389  -21.1864   18.4002 C   0  0  0  0  0  0
  -31.8398  -22.0200   18.3542 C   0  0  0  0  0  0
  -31.4585  -18.3502   19.7055 C   0  0  0  0  0  0
  -26.6054  -23.9436   20.6343 C   0  0  0  0  0  0
  -30.3930  -22.2894   17.9198 C   0  0  0  0  0  0
  -29.2703  -19.5769   20.5753 C   0  0  0  0  0  0
  -28.9554  -22.8451   20.4957 C   0  0  0  0  0  0
  -28.9282  -21.1813   19.8557 C   0  0  1  0  0  0
  -29.9582  -18.0674   19.9346 C   0  0  2  0  0  0
  -28.0056  -24.2864   20.0713 C   0  0  2  0  0  0
  -29.7670  -16.4823   20.4038 N   0  0  0  0  0  0
  -29.0969  -20.2983   17.6195 O   0  0  0  0  0  0
  -31.4628  -12.9388   19.1702 H   0  0  0  0  0  0
  -30.4997  -11.8537   20.1236 H   0  0  0  0  0  0
  -29.8866  -11.7478   17.6597 H   0  0  0  0  0  0
  -29.5526  -13.4639   17.6666 H   0  0  0  0  0  0
  -28.0256  -11.2740   19.0969 H   0  0  0  0  0  0
  -27.4044  -12.3547   17.8689 H   0  0  0  0  0  0
  -27.5441  -14.2387   19.3375 H   0  0  0  0  0  0
  -28.8219  -12.5295   21.5314 H   0  0  0  0  0  0
  -28.3348  -14.2040   21.6713 H   0  0  0  0  0  0
  -25.2780   -9.5686   22.4764 H   0  0  0  0  0  0
  -24.0028   -7.4648   22.7503 H   0  0  0  0  0  0
  -21.0883   -8.8796   19.8953 H   0  0  0  0  0  0
  -22.3744  -10.9691   19.6191 H   0  0  0  0  0  0
  -21.2021   -7.6144   23.9671 H   0  0  0  0  0  0
  -21.1469   -6.0563   25.9069 H   0  0  0  0  0  0
  -22.0600   -2.7596   23.2891 H   0  0  0  0  0  0
  -22.4180  -11.9777   22.4758 H   0  0  0  0  0  0
  -21.1112  -13.1062   22.2734 H   0  0  0  0  0  0
  -24.6374  -15.8527   20.5323 H   0  0  0  0  0  0
  -26.2555  -15.6440   20.0959 H   0  0  0  0  0  0
  -26.7382  -32.5130   23.0839 H   0  0  0  0  0  0
  -24.9984  -33.9465   25.0142 H   0  0  0  0  0  0
  -22.7836  -31.2676   21.3550 H   0  0  0  0  0  0
  -23.3785  -35.9525   23.3262 H   0  0  0  0  0  0
  -24.3586  -36.8938   22.2061 H   0  0  0  0  0  0
  -23.7250  -37.6386   23.6739 H   0  0  0  0  0  0
  -26.2173  -31.3967   20.6234 H   0  0  0  0  0  0
  -26.9037  -30.6977   22.0469 H   0  0  0  0  0  0
  -28.1422  -28.6440   21.2820 H   0  0  0  0  0  0
  -25.9134  -25.8003   18.9321 H   0  0  0  0  0  0
  -24.0083  -27.2865   18.9304 H   0  0  0  0  0  0
  -23.8470  -30.5334   19.3904 H   0  0  0  0  0  0
  -22.8231  -29.1997   19.8363 H   0  0  0  0  0  0
  -25.1307  -36.1769   25.0796 H   0  0  0  0  0  0
  -20.9996  -28.3343   24.1356 H   0  0  0  0  0  0
  -20.5746  -26.2321   23.3650 H   0  0  0  0  0  0
  -21.6652  -26.7432   22.1171 H   0  0  0  0  0  0
  -19.6982  -25.6277   21.1255 H   0  0  0  0  0  0
  -19.6758  -27.3178   20.6759 H   0  0  0  0  0  0
  -17.4231  -26.6669   21.4014 H   0  0  0  0  0  0
  -18.0329  -26.0109   22.9044 H   0  0  0  0  0  0
  -19.7968  -30.7276   24.2179 H   0  0  0  0  0  0
  -17.5070  -31.6278   24.5145 H   0  0  0  0  0  0
  -15.5376  -30.2955   23.7756 H   0  0  0  0  0  0
  -15.8720  -28.0857   22.7040 H   0  0  0  0  0  0
  -24.5925  -30.7069   25.7610 H   0  0  0  0  0  0
  -24.8875  -32.2913   26.4592 H   0  0  0  0  0  0
  -25.7925  -30.8966   27.0174 H   0  0  0  0  0  0
  -26.3157  -29.6478   24.1423 H   0  0  0  0  0  0
  -27.4057  -29.7220   25.5054 H   0  0  0  0  0  0
  -27.9111  -30.4012   23.9807 H   0  0  0  0  0  0
  -27.2600  -33.3660   26.1894 H   0  0  0  0  0  0
  -28.3934  -32.6802   25.0343 H   0  0  0  0  0  0
  -28.0667  -31.8542   26.5517 H   0  0  0  0  0  0
  -28.2513  -38.0113   24.7520 H   0  0  0  0  0  0
  -28.1158  -36.2628   24.6244 H   0  0  0  0  0  0
  -27.2303  -37.1294   25.8862 H   0  0  0  0  0  0
  -20.9637  -29.8713   21.6665 H   0  0  0  0  0  0
  -26.0168  -38.2767   24.1406 H   0  0  0  0  0  0
  -32.4467  -22.9227   18.2794 H   0  0  0  0  0  0
  -32.2980  -21.2620   17.7181 H   0  0  0  0  0  0
  -31.8934  -21.6725   19.3878 H   0  0  0  0  0  0
  -31.6225  -19.3380   19.2723 H   0  0  0  0  0  0
  -31.9155  -17.6425   19.0117 H   0  0  0  0  0  0
  -32.0261  -18.3146   20.6369 H   0  0  0  0  0  0
  -26.5973  -23.0152   21.2053 H   0  0  0  0  0  0
  -25.8797  -23.7990   19.8351 H   0  0  0  0  0  0
  -26.2220  -24.7095   21.3052 H   0  0  0  0  0  0
  -30.0624  -23.2621   18.2820 H   0  0  0  0  0  0
  -30.3464  -22.3649   16.8335 H   0  0  0  0  0  0
  -28.2957  -19.2663   20.9503 H   0  0  0  0  0  0
  -29.8275  -19.7853   21.4875 H   0  0  0  0  0  0
  -29.9978  -23.1603   20.4414 H   0  0  0  0  0  0
  -28.8310  -22.7319   21.5748 H   0  0  0  0  0  0
  -27.8560  -21.0724   19.6839 H   0  0  0  0  0  0
  -29.5226  -18.0236   18.9334 H   0  0  0  0  0  0
  -27.9302  -24.2302   18.9846 H   0  0  0  0  0  0
  -28.8072  -16.3010   20.6587 H   0  0  0  0  0  0
  1 25  1  0  0  0
  1 30  2  0  0  0
  1 81  1  0  0  0
  2  3  1  0  0  0
  2 25  1  0  0  0
  2 83  1  0  0  0
  2 84  1  0  0  0
  3  4  1  0  0  0
  3 85  1  0  0  0
  3 86  1  0  0  0
  4  5  1  0  0  0
  4 87  1  0  0  0
  4 88  1  0  0  0
  5  6  1  0  0  0
  5 26  1  0  0  0
  5 89  1  0  0  0
  6 25  1  0  0  0
  6 90  1  0  0  0
  6 91  1  0  0  0
  7  8  2  0  0  0
  7 26  1  0  0  0
  7 29  1  0  0  0
  8  9  1  0  0  0
  8 22  1  0  0  0
  9 10  1  0  0  0
  9 27  2  0  0  0
 10 11  2  0  0  0
 10 15  1  0  0  0
 11 12  1  0  0  0
 11 92  1  0  0  0
 12 13  2  0  0  0
 12 93  1  0  0  0
 13 14  1  0  0  0
 13 31  1  0  0  0
 14 15  2  0  0  0
 14 94  1  0  0  0
 15 95  1  0  0  0
 16 17  2  0  0  0
 16 21  1  0  0  0
 16 31  1  0  0  0
 17 18  1  0  0  0
 17 96  1  0  0  0
 18 19  2  0  0  0
 18 97  1  0  0  0
 19 20  1  0  0  0
 19 24  1  0  0  0
 20 21  2  0  0  0
 20 98  1  0  0  0
 21 23  1  0  0  0
 22 28  1  0  0  0
 22 32  2  0  0  0
 26 27  1  0  0  0
 28 99  1  0  0  0
 28100  1  0  0  0
 29101  1  0  0  0
 29102  1  0  0  0
 33 34  1  0  0  0
 33 66  1  0  0  0
 33 70  2  0  0  0
 34 36  1  0  0  0
 34 59  1  0  0  0
 34103  1  0  0  0
 35 44  2  0  0  0
 35 45  1  0  0  0
 35 68  1  0  0  0
 36 56  1  0  0  0
 36104  1  0  0  0
 37 39  1  0  0  0
 37 47  1  0  0  0
 37 66  1  0  0  0
 37105  1  0  0  0
 38 43  2  0  0  0
 38 46  1  0  0  0
 38 47  1  0  0  0
 39 64  1  0  0  0
 39 67  2  0  0  0
 40 52  1  0  0  0
 40 53  2  0  0  0
 40 58  1  0  0  0
 41106  1  0  0  0
 41107  1  0  0  0
 41108  1  0  0  0
 41 48  1  0  0  0
 42 43  1  0  0  0
 42 66  1  0  0  0
 42109  1  0  0  0
 42110  1  0  0  0
 43 44  1  0  0  0
 44111  1  0  0  0
 45 46  2  0  0  0
 45112  1  0  0  0
 46113  1  0  0  0
 47114  1  0  0  0
 47115  1  0  0  0
 48 56  1  0  0  0
 48 65  1  0  0  0
 48116  1  0  0  0
 49 50  1  0  0  0
 49 53  1  0  0  0
 49 64  1  0  0  0
 49117  1  0  0  0
 50 51  1  0  0  0
 50118  1  0  0  0
 50119  1  0  0  0
 51 52  1  0  0  0
 51120  1  0  0  0
 51121  1  0  0  0
 52122  1  0  0  0
 52123  1  0  0  0
 53 54  1  0  0  0
 54 55  2  0  0  0
 54124  1  0  0  0
 55 57  1  0  0  0
 55125  1  0  0  0
 56 69  2  0  0  0
 57 58  2  0  0  0
 57126  1  0  0  0
 58127  1  0  0  0
 59 60  1  0  0  0
 59 61  1  0  0  0
 59 62  1  0  0  0
 60128  1  0  0  0
 60129  1  0  0  0
 60130  1  0  0  0
 61131  1  0  0  0
 61132  1  0  0  0
 61133  1  0  0  0
 62134  1  0  0  0
 62135  1  0  0  0
 62136  1  0  0  0
 63 65  1  0  0  0
 63137  1  0  0  0
 63138  1  0  0  0
 63139  1  0  0  0
 64140  1  0  0  0
 65141  1  0  0  0
 68 80  1  0  0  0
 71 75  1  0  0  0
 71 78  1  0  0  0
 71 82  2  0  0  0
 72 75  1  0  0  0
 72142  1  0  0  0
 72143  1  0  0  0
 72144  1  0  0  0
 73145  1  0  0  0
 73146  1  0  0  0
 73147  1  0  0  0
 73 79  1  0  0  0
 74148  1  0  0  0
 74149  1  0  0  0
 74150  1  0  0  0
 74 80  1  0  0  0
 75151  1  0  0  0
 75152  1  0  0  0
 76 79  1  0  0  0
 76153  1  0  0  0
 76154  1  0  0  0
 76 78  1  0  0  0
 77 78  1  0  0  0
 77 80  1  0  0  0
 77155  1  0  0  0
 77156  1  0  0  0
 78157  1  0  0  0
 79 81  1  0  0  0
 79158  1  0  0  0
 80159  1  0  0  0
 81160  1  0  0  0
M  ISO  4   1 100  68 101  80 101  81 100
M  END
> <chiral flag>
0

> <version>
0

> <s_m_source_file>
/data/baiqing/PycharmProjects/Reinvent-master-3.2/result/LINK_invent/BTK/process_docking_weight1_custom_product_contain_oxygen_bond_distance_aromatic_linkinvent_7_9_3/rearranged_h_0189.sdf

> <i_m_source_file_index>
63

> <r_mmod_Potential_Energy-OPLS-2005>
1138.77026367188

> <r_mmod_Stretch_Energy-OPLS-2005>
563.936279296875

> <r_mmod_Bend_Energy-OPLS-2005>
424.252868652344

> <r_mmod_Torsional_Energy-OPLS-2005>
239.924728393555

> <r_mmod_Improper_Torsional_Energy-OPLS-2005>
4.51570320129395

> <r_mmod_Van_der_Waal_Energy-OPLS-2005>
114.738426208496

> <r_mmod_Electrostatic_Energy-OPLS-2005>
-385.152465820312

> <r_mmod_Solvation_Energy-OPLS-2005>
-217.153289794922

> <b_mmod_Minimization_Converged-OPLS-2005>
0

> <r_mmod_RMS_Derivative-OPLS-2005>
5.78273916244507

$$$$
63
                    3D
 Structure written by MMmdl.
151159  0  0  1  0            999 V2000
  -30.5979  -14.8092   20.4497 C   0  0  0  0  0  0
  -30.4343  -12.4961   19.4915 C   0  0  0  0  0  0
  -29.5187  -12.5203   18.2472 C   0  0  0  0  0  0
  -28.0451  -12.3325   18.6580 C   0  0  0  0  0  0
  -27.6384  -13.2414   19.8486 C   0  0  2  0  0  0
  -28.6806  -13.2090   20.9900 C   0  0  0  0  0  0
  -25.2483  -13.8217   20.5688 C   0  0  0  0  0  0
  -24.1797  -13.0434   20.9206 C   0  0  0  0  0  0
  -24.6406  -11.6915   20.8738 C   0  0  0  0  0  0
  -23.9094  -10.4290   21.0412 C   0  0  0  0  0  0
  -24.3634   -9.4203   21.9192 C   0  0  0  0  0  0
  -23.6291   -8.2250   22.0772 C   0  0  0  0  0  0
  -22.4271   -8.0296   21.3564 C   0  0  0  0  0  0
  -21.9915   -9.0281   20.4667 C   0  0  0  0  0  0
  -22.7263  -10.2146   20.3067 C   0  0  0  0  0  0
  -21.6850   -6.0746   22.5281 C   0  0  0  0  0  0
  -21.4028   -6.5649   23.8217 C   0  0  0  0  0  0
  -21.3658   -5.6792   24.9174 C   0  0  0  0  0  0
  -21.6036   -4.3054   24.7226 C   0  0  0  0  0  0
  -21.8813   -3.8152   23.4343 C   0  0  0  0  0  0
  -21.9193   -4.6975   22.3398 C   0  0  0  0  0  0
  -22.7809  -13.5211   21.1853 C   0  0  0  0  0  0
  -22.1650   -4.2159   21.0976 F   0  0  0  0  0  0
  -21.5626   -3.4538   25.7738 F   0  0  0  0  0  0
  -29.9772  -13.5734   20.4055 N   0  0  0  0  0  0
  -26.2919  -12.9435   20.3255 N   0  0  0  0  0  0
  -25.9335  -11.6567   20.5736 N   0  0  0  0  0  0
  -22.0441  -12.8229   22.0414 N   0  0  0  0  0  0
  -25.4122  -15.1955   20.4125 N   0  0  0  0  0  0
  -31.7859  -14.8895   20.1268 O   0  0  0  0  0  0
  -21.6632   -6.8901   21.4246 O   0  0  0  0  0  0
  -22.3488  -14.5508   20.6682 O   0  0  0  0  0  0
  -24.6360  -31.8512   23.1946 C   0  0  0  0  0  0
  -25.9162  -32.4736   23.8315 C   0  0  1  0  0  0
  -27.2145  -27.2083   20.1401 C   0  0  0  0  0  0
  -25.5928  -33.8538   24.2223 N   0  0  0  0  0  0
  -23.4373  -30.4717   21.5387 C   0  0  2  0  0  0
  -24.8874  -28.9153   20.1104 C   0  0  0  0  0  0
  -22.7546  -29.4567   22.4883 C   0  0  0  0  0  0
  -18.0301  -28.1395   22.8483 C   0  0  0  0  0  0
  -24.1489  -36.7282   23.2636 C   0  0  0  0  0  0
  -25.9893  -30.7459   21.3870 C   0  0  0  0  0  0
  -26.0616  -29.3650   20.7279 C   0  0  0  0  0  0
  -27.2306  -28.5245   20.7318 C   0  0  0  0  0  0
  -26.0237  -26.8563   19.4668 C   0  0  0  0  0  0
  -24.8773  -27.6727   19.4644 C   0  0  0  0  0  0
  -23.6603  -29.8068   20.1558 C   0  0  0  0  0  0
  -25.4117  -36.3052   24.0311 C   0  0  1  0  0  0
  -20.5913  -28.3704   23.1258 C   0  0  2  0  0  0
  -20.6790  -26.9411   22.5409 C   0  0  0  0  0  0
  -19.5762  -26.6377   21.5218 C   0  0  0  0  0  0
  -18.1943  -26.7933   22.1632 C   0  0  0  0  0  0
  -19.1557  -28.8870   23.2864 C   0  0  0  0  0  0
  -18.9471  -30.1469   23.8884 C   0  0  0  0  0  0
  -17.6466  -30.6591   24.0560 C   0  0  0  0  0  0
  -25.9059  -34.9426   23.5073 C   0  0  0  0  0  0
  -16.5359  -29.9081   23.6333 C   0  0  0  0  0  0
  -16.7286  -28.6502   23.0353 C   0  0  0  0  0  0
  -26.4494  -31.6592   25.0740 C   0  0  0  0  0  0
  -25.3680  -31.3800   26.1441 C   0  0  0  0  0  0
  -27.0341  -30.2985   24.6303 C   0  0  0  0  0  0
  -27.6022  -32.4360   25.7524 C   0  0  0  0  0  0
  -27.5579  -37.1787   24.8449 C   0  0  0  0  0  0
  -21.4243  -29.3036   22.3634 N   0  0  0  0  0  0
  -26.4280  -37.3764   23.9405 N   0  0  0  0  0  0
  -24.7065  -31.0425   22.0958 N   0  0  0  0  0  0
  -23.4218  -28.8105   23.3004 O   0  0  0  0  0  0
  -28.2591  -26.2368   20.2040 O   0  0  0  0  0  0
  -26.5648  -34.8906   22.4651 O   0  0  0  0  0  0
  -23.5490  -32.1367   23.7201 O   0  0  0  0  0  0
  -28.3530  -18.7911   21.6960 C   0  0  0  0  0  0
  -27.9044  -20.1523   21.7598 C   0  0  0  0  0  0
  -29.3586  -18.6897   20.7713 C   0  0  0  0  0  0
  -28.6371  -20.9085   20.8819 C   0  0  0  0  0  0
  -28.8099  -23.5129   20.3769 C   0  0  0  0  0  0
  -27.6412  -24.9289   22.1736 C   0  0  0  0  0  0
  -30.2308  -17.4360   20.3124 C   0  0  0  0  0  0
  -27.8759  -24.8248   20.6550 C   0  0  1  0  0  0
  -28.2714  -22.2659   20.6936 N   0  0  0  0  0  0
  -29.8411  -15.9713   20.6297 N   0  0  0  0  0  0
  -29.9413  -23.6425   19.9026 O   0  0  0  0  0  0
  -29.5526  -20.0220   20.2483 O   0  0  0  0  0  0
  -31.4763  -12.6233   19.1936 H   0  0  0  0  0  0
  -30.3867  -11.5265   19.9893 H   0  0  0  0  0  0
  -29.8142  -11.7428   17.5419 H   0  0  0  0  0  0
  -29.6388  -13.4699   17.7229 H   0  0  0  0  0  0
  -27.9109  -11.2871   18.9346 H   0  0  0  0  0  0
  -27.3900  -12.5081   17.8038 H   0  0  0  0  0  0
  -27.6229  -14.2578   19.4552 H   0  0  0  0  0  0
  -28.7277  -12.2220   21.4522 H   0  0  0  0  0  0
  -28.4068  -13.9082   21.7817 H   0  0  0  0  0  0
  -25.2791   -9.5668   22.4760 H   0  0  0  0  0  0
  -23.9998   -7.4641   22.7489 H   0  0  0  0  0  0
  -21.0847   -8.8819   19.8967 H   0  0  0  0  0  0
  -22.3743  -10.9695   19.6177 H   0  0  0  0  0  0
  -21.2030   -7.6153   23.9730 H   0  0  0  0  0  0
  -21.1475   -6.0515   25.9078 H   0  0  0  0  0  0
  -22.0591   -2.7614   23.2833 H   0  0  0  0  0  0
  -22.4031  -11.9915   22.4858 H   0  0  0  0  0  0
  -21.1071  -13.1308   22.2608 H   0  0  0  0  0  0
  -24.6361  -15.8396   20.5247 H   0  0  0  0  0  0
  -26.2505  -15.6454   20.0669 H   0  0  0  0  0  0
  -26.7229  -32.5371   23.1053 H   0  0  0  0  0  0
  -25.0034  -33.9665   25.0339 H   0  0  0  0  0  0
  -22.7360  -31.2950   21.3896 H   0  0  0  0  0  0
  -23.3741  -35.9622   23.3282 H   0  0  0  0  0  0
  -24.3583  -36.8940   22.2056 H   0  0  0  0  0  0
  -23.7249  -37.6473   23.6691 H   0  0  0  0  0  0
  -26.1390  -31.5038   20.6165 H   0  0  0  0  0  0
  -26.8620  -30.7940   22.0265 H   0  0  0  0  0  0
  -28.1236  -28.8572   21.2422 H   0  0  0  0  0  0
  -25.9527  -25.9158   18.9418 H   0  0  0  0  0  0
  -23.9850  -27.3302   18.9588 H   0  0  0  0  0  0
  -23.7878  -30.5824   19.3999 H   0  0  0  0  0  0
  -22.7795  -29.2405   19.8485 H   0  0  0  0  0  0
  -25.1299  -36.1886   25.0800 H   0  0  0  0  0  0
  -21.0008  -28.3287   24.1378 H   0  0  0  0  0  0
  -20.5704  -26.2305   23.3620 H   0  0  0  0  0  0
  -21.6654  -26.7434   22.1195 H   0  0  0  0  0  0
  -19.6914  -25.6287   21.1259 H   0  0  0  0  0  0
  -19.6697  -27.3185   20.6748 H   0  0  0  0  0  0
  -17.4209  -26.6680   21.4036 H   0  0  0  0  0  0
  -18.0332  -26.0085   22.9038 H   0  0  0  0  0  0
  -19.7946  -30.7294   24.2249 H   0  0  0  0  0  0
  -17.5015  -31.6269   24.5163 H   0  0  0  0  0  0
  -15.5359  -30.2972   23.7668 H   0  0  0  0  0  0
  -15.8691  -28.0814   22.7073 H   0  0  0  0  0  0
  -24.5819  -30.7200   25.7757 H   0  0  0  0  0  0
  -24.8913  -32.3007   26.4825 H   0  0  0  0  0  0
  -25.7945  -30.8980   27.0249 H   0  0  0  0  0  0
  -26.2959  -29.6736   24.1268 H   0  0  0  0  0  0
  -27.3907  -29.7260   25.4874 H   0  0  0  0  0  0
  -27.8887  -30.4215   23.9648 H   0  0  0  0  0  0
  -27.2590  -33.3652   26.2090 H   0  0  0  0  0  0
  -28.3836  -32.6955   25.0366 H   0  0  0  0  0  0
  -28.0695  -31.8515   26.5462 H   0  0  0  0  0  0
  -28.2558  -38.0119   24.7528 H   0  0  0  0  0  0
  -28.1114  -36.2650   24.6225 H   0  0  0  0  0  0
  -27.2309  -37.1373   25.8853 H   0  0  0  0  0  0
  -20.9443  -29.8744   21.6819 H   0  0  0  0  0  0
  -26.0148  -38.2824   24.1441 H   0  0  0  0  0  0
  -27.9687  -17.9633   22.2765 H   0  0  0  0  0  0
  -27.1108  -20.5278   22.3914 H   0  0  0  0  0  0
  -27.2983  -23.9860   22.6009 H   0  0  0  0  0  0
  -26.8871  -25.6789   22.4120 H   0  0  0  0  0  0
  -28.5616  -25.2079   22.6881 H   0  0  0  0  0  0
  -31.2378  -17.5798   20.7065 H   0  0  0  0  0  0
  -30.3497  -17.4937   19.2294 H   0  0  0  0  0  0
  -26.9269  -24.5472   20.2023 H   0  0  0  0  0  0
  -27.3322  -22.4178   21.0313 H   0  0  0  0  0  0
  -28.8721  -15.8249   20.8707 H   0  0  0  0  0  0
  1 25  1  0  0  0
  1 30  2  0  0  0
  1 80  1  0  0  0
  2  3  1  0  0  0
  2 25  1  0  0  0
  2 83  1  0  0  0
  2 84  1  0  0  0
  3  4  1  0  0  0
  3 85  1  0  0  0
  3 86  1  0  0  0
  4  5  1  0  0  0
  4 87  1  0  0  0
  4 88  1  0  0  0
  5  6  1  0  0  0
  5 26  1  0  0  0
  5 89  1  0  0  0
  6 25  1  0  0  0
  6 90  1  0  0  0
  6 91  1  0  0  0
  7  8  2  0  0  0
  7 26  1  0  0  0
  7 29  1  0  0  0
  8  9  1  0  0  0
  8 22  1  0  0  0
  9 10  1  0  0  0
  9 27  2  0  0  0
 10 11  2  0  0  0
 10 15  1  0  0  0
 11 12  1  0  0  0
 11 92  1  0  0  0
 12 13  2  0  0  0
 12 93  1  0  0  0
 13 14  1  0  0  0
 13 31  1  0  0  0
 14 15  2  0  0  0
 14 94  1  0  0  0
 15 95  1  0  0  0
 16 17  2  0  0  0
 16 21  1  0  0  0
 16 31  1  0  0  0
 17 18  1  0  0  0
 17 96  1  0  0  0
 18 19  2  0  0  0
 18 97  1  0  0  0
 19 20  1  0  0  0
 19 24  1  0  0  0
 20 21  2  0  0  0
 20 98  1  0  0  0
 21 23  1  0  0  0
 22 28  1  0  0  0
 22 32  2  0  0  0
 26 27  1  0  0  0
 28 99  1  0  0  0
 28100  1  0  0  0
 29101  1  0  0  0
 29102  1  0  0  0
 33 34  1  0  0  0
 33 66  1  0  0  0
 33 70  2  0  0  0
 34 36  1  0  0  0
 34 59  1  0  0  0
 34103  1  0  0  0
 35 44  2  0  0  0
 35 45  1  0  0  0
 35 68  1  0  0  0
 36 56  1  0  0  0
 36104  1  0  0  0
 37 39  1  0  0  0
 37 47  1  0  0  0
 37 66  1  0  0  0
 37105  1  0  0  0
 38 43  2  0  0  0
 38 46  1  0  0  0
 38 47  1  0  0  0
 39 64  1  0  0  0
 39 67  2  0  0  0
 40 52  1  0  0  0
 40 53  2  0  0  0
 40 58  1  0  0  0
 41106  1  0  0  0
 41107  1  0  0  0
 41108  1  0  0  0
 41 48  1  0  0  0
 42 43  1  0  0  0
 42 66  1  0  0  0
 42109  1  0  0  0
 42110  1  0  0  0
 43 44  1  0  0  0
 44111  1  0  0  0
 45 46  2  0  0  0
 45112  1  0  0  0
 46113  1  0  0  0
 47114  1  0  0  0
 47115  1  0  0  0
 48 56  1  0  0  0
 48 65  1  0  0  0
 48116  1  0  0  0
 49 50  1  0  0  0
 49 53  1  0  0  0
 49 64  1  0  0  0
 49117  1  0  0  0
 50 51  1  0  0  0
 50118  1  0  0  0
 50119  1  0  0  0
 51 52  1  0  0  0
 51120  1  0  0  0
 51121  1  0  0  0
 52122  1  0  0  0
 52123  1  0  0  0
 53 54  1  0  0  0
 54 55  2  0  0  0
 54124  1  0  0  0
 55 57  1  0  0  0
 55125  1  0  0  0
 56 69  2  0  0  0
 57 58  2  0  0  0
 57126  1  0  0  0
 58127  1  0  0  0
 59 60  1  0  0  0
 59 61  1  0  0  0
 59 62  1  0  0  0
 60128  1  0  0  0
 60129  1  0  0  0
 60130  1  0  0  0
 61131  1  0  0  0
 61132  1  0  0  0
 61133  1  0  0  0
 62134  1  0  0  0
 62135  1  0  0  0
 62136  1  0  0  0
 63 65  1  0  0  0
 63137  1  0  0  0
 63138  1  0  0  0
 63139  1  0  0  0
 64140  1  0  0  0
 65141  1  0  0  0
 68 78  1  0  0  0
 71 72  1  0  0  0
 71 73  2  0  0  0
 71142  1  0  0  0
 72 74  2  0  0  0
 72143  1  0  0  0
 73 77  1  0  0  0
 73 82  1  0  0  0
 74 79  1  0  0  0
 74 82  1  0  0  0
 75 78  1  0  0  0
 75 79  1  0  0  0
 75 81  2  0  0  0
 76144  1  0  0  0
 76145  1  0  0  0
 76146  1  0  0  0
 76 78  1  0  0  0
 77 80  1  0  0  0
 77147  1  0  0  0
 77148  1  0  0  0
 78149  1  0  0  0
 79150  1  0  0  0
 80151  1  0  0  0
M  ISO  4   1 100  68 101  78 101  80 100
M  END
> <chiral flag>
0

> <version>
0

> <s_m_source_file>
/data/baiqing/PycharmProjects/Reinvent-master-3.2/result/LINK_invent/BTK/process_docking_weight1_custom_product_contain_oxygen_bond_distance_aromatic_linkinvent_7_9_3/rearranged_h_0189.sdf

> <i_m_source_file_index>
64

> <r_mmod_Potential_Energy-OPLS-2005>
161.157974243164

> <r_mmod_Stretch_Energy-OPLS-2005>
156.757904052734

> <r_mmod_Bend_Energy-OPLS-2005>
231.276504516602

> <r_mmod_Torsional_Energy-OPLS-2005>
229.660171508789

> <r_mmod_Improper_Torsional_Energy-OPLS-2005>
6.26980590820312

> <r_mmod_Van_der_Waal_Energy-OPLS-2005>
114.496047973633

> <r_mmod_Electrostatic_Energy-OPLS-2005>
-446.998352050781

> <r_mmod_Solvation_Energy-OPLS-2005>
-253.46923828125

> <b_mmod_Minimization_Converged-OPLS-2005>
0

> <r_mmod_RMS_Derivative-OPLS-2005>
2.20805096626282

$$$$
64
                    3D
 Structure written by MMmdl.
162170  0  0  1  0            999 V2000
  -30.7259  -14.4623   20.5659 C   0  0  0  0  0  0
  -30.4075  -12.2921   19.4352 C   0  0  0  0  0  0
  -29.4847  -12.4929   18.2158 C   0  0  0  0  0  0
  -28.0093  -12.3582   18.6317 C   0  0  0  0  0  0
  -27.6606  -13.2091   19.8801 C   0  0  2  0  0  0
  -28.7005  -13.0098   21.0062 C   0  0  0  0  0  0
  -25.2586  -13.8177   20.5713 C   0  0  0  0  0  0
  -24.1845  -13.0442   20.9186 C   0  0  0  0  0  0
  -24.6403  -11.6904   20.8768 C   0  0  0  0  0  0
  -23.9070  -10.4297   21.0441 C   0  0  0  0  0  0
  -24.3619   -9.4210   21.9206 C   0  0  0  0  0  0
  -23.6305   -8.2249   22.0759 C   0  0  0  0  0  0
  -22.4295   -8.0281   21.3541 C   0  0  0  0  0  0
  -21.9934   -9.0254   20.4635 C   0  0  0  0  0  0
  -22.7256  -10.2141   20.3060 C   0  0  0  0  0  0
  -21.6855   -6.0744   22.5286 C   0  0  0  0  0  0
  -21.4014   -6.5648   23.8210 C   0  0  0  0  0  0
  -21.3660   -5.6803   24.9176 C   0  0  0  0  0  0
  -21.6043   -4.3057   24.7227 C   0  0  0  0  0  0
  -21.8831   -3.8152   23.4343 C   0  0  0  0  0  0
  -21.9196   -4.6975   22.3405 C   0  0  0  0  0  0
  -22.7859  -13.5226   21.1842 C   0  0  0  0  0  0
  -22.1666   -4.2160   21.0980 F   0  0  0  0  0  0
  -21.5627   -3.4540   25.7735 F   0  0  0  0  0  0
  -30.0342  -13.2927   20.4520 N   0  0  0  0  0  0
  -26.3021  -12.9352   20.3418 N   0  0  0  0  0  0
  -25.9339  -11.6504   20.5848 N   0  0  0  0  0  0
  -22.0500  -12.8208   22.0375 N   0  0  0  0  0  0
  -25.4345  -15.1889   20.4085 N   0  0  0  0  0  0
  -31.8569  -14.5896   20.0881 O   0  0  0  0  0  0
  -21.6639   -6.8891   21.4250 O   0  0  0  0  0  0
  -22.3552  -14.5540   20.6697 O   0  0  0  0  0  0
  -24.6097  -31.8689   23.2084 C   0  0  0  0  0  0
  -25.9007  -32.4813   23.8393 C   0  0  1  0  0  0
  -27.2370  -27.4437   20.1159 C   0  0  0  0  0  0
  -25.5878  -33.8619   24.2317 N   0  0  0  0  0  0
  -23.3977  -30.4885   21.5482 C   0  0  2  0  0  0
  -24.8504  -28.9575   20.1127 C   0  0  0  0  0  0
  -22.7377  -29.4650   22.4999 C   0  0  0  0  0  0
  -18.0244  -28.1408   22.8513 C   0  0  0  0  0  0
  -24.1490  -36.7341   23.2640 C   0  0  0  0  0  0
  -25.9242  -30.8397   21.3593 C   0  0  0  0  0  0
  -26.0060  -29.4735   20.7133 C   0  0  0  0  0  0
  -27.2030  -28.7244   20.7176 C   0  0  0  0  0  0
  -26.0790  -26.9564   19.4801 C   0  0  0  0  0  0
  -24.8798  -27.6944   19.4954 C   0  0  0  0  0  0
  -23.6053  -29.8132   20.1659 C   0  0  0  0  0  0
  -25.4108  -36.3107   24.0328 C   0  0  1  0  0  0
  -20.5839  -28.3663   23.1331 C   0  0  2  0  0  0
  -20.6730  -26.9413   22.5417 C   0  0  0  0  0  0
  -19.5702  -26.6435   21.5206 C   0  0  0  0  0  0
  -18.1883  -26.7960   22.1624 C   0  0  0  0  0  0
  -19.1511  -28.8846   23.2915 C   0  0  0  0  0  0
  -18.9459  -30.1454   23.8919 C   0  0  0  0  0  0
  -17.6478  -30.6609   24.0589 C   0  0  0  0  0  0
  -25.9029  -34.9472   23.5119 C   0  0  0  0  0  0
  -16.5351  -29.9127   23.6372 C   0  0  0  0  0  0
  -16.7246  -28.6543   23.0389 C   0  0  0  0  0  0
  -26.4491  -31.6566   25.0697 C   0  0  0  0  0  0
  -25.3784  -31.3612   26.1446 C   0  0  0  0  0  0
  -27.0322  -30.3004   24.6054 C   0  0  0  0  0  0
  -27.6054  -32.4293   25.7477 C   0  0  0  0  0  0
  -27.5582  -37.1816   24.8467 C   0  0  0  0  0  0
  -21.4103  -29.3022   22.3737 N   0  0  0  0  0  0
  -26.4303  -37.3780   23.9398 N   0  0  0  0  0  0
  -24.6608  -31.0824   22.0963 N   0  0  0  0  0  0
  -23.4143  -28.8186   23.3031 O   0  0  0  0  0  0
  -28.3444  -26.6229   20.1307 O   0  0  0  0  0  0
  -26.5603  -34.8921   22.4687 O   0  0  0  0  0  0
  -23.5300  -32.1424   23.7510 O   0  0  0  0  0  0
  -30.6620  -19.3511   21.2058 C   0  0  0  0  0  0
  -31.3858  -18.7618   20.1952 C   0  0  0  0  0  0
  -30.3719  -16.8893   21.0329 C   0  0  0  0  0  0
  -30.7471  -20.7330   21.7401 C   0  0  0  0  0  0
  -32.3532  -19.4309   19.2667 C   0  0  0  0  0  0
  -28.9368  -25.3458   23.6926 C   0  0  0  0  0  0
  -26.7899  -25.4767   22.4986 C   0  0  0  0  0  0
  -28.4859  -23.7894   21.6748 C   0  0  0  0  0  0
  -29.6635  -22.9182   22.2001 C   0  0  0  0  0  0
  -28.9452  -26.3617   21.4123 C   0  0  0  0  0  0
  -28.3004  -25.2284   22.2881 C   0  0  0  0  0  0
  -31.1849  -17.3814   20.0890 N   0  0  0  0  0  0
  -30.0739  -15.4931   21.1511 N   0  0  0  0  0  0
  -29.6671  -21.5328   21.6898 N   0  0  0  0  0  0
  -31.8265  -21.1361   22.1783 O   0  0  0  0  0  0
  -29.6878  -18.1600   22.0611 S   0  0  0  0  0  0
  -31.4523  -12.3631   19.1273 H   0  0  0  0  0  0
  -30.2873  -11.2853   19.8380 H   0  0  0  0  0  0
  -29.7149  -11.7621   17.4399 H   0  0  0  0  0  0
  -29.6572  -13.4750   17.7726 H   0  0  0  0  0  0
  -27.8241  -11.3047   18.8443 H   0  0  0  0  0  0
  -27.3521  -12.6242   17.8024 H   0  0  0  0  0  0
  -27.7044  -14.2540   19.5730 H   0  0  0  0  0  0
  -28.6684  -11.9844   21.3773 H   0  0  0  0  0  0
  -28.4642  -13.6365   21.8665 H   0  0  0  0  0  0
  -25.2765   -9.5680   22.4772 H   0  0  0  0  0  0
  -23.9999   -7.4649   22.7490 H   0  0  0  0  0  0
  -21.0867   -8.8778   19.8929 H   0  0  0  0  0  0
  -22.3727  -10.9683   19.6159 H   0  0  0  0  0  0
  -21.1999   -7.6153   23.9721 H   0  0  0  0  0  0
  -21.1468   -6.0525   25.9081 H   0  0  0  0  0  0
  -22.0605   -2.7612   23.2850 H   0  0  0  0  0  0
  -22.4110  -11.9837   22.4706 H   0  0  0  0  0  0
  -21.1111  -13.1246   22.2587 H   0  0  0  0  0  0
  -24.6722  -15.8509   20.5000 H   0  0  0  0  0  0
  -26.2874  -15.6160   20.0713 H   0  0  0  0  0  0
  -26.7076  -32.5557   23.1162 H   0  0  0  0  0  0
  -25.0040  -33.9806   25.0472 H   0  0  0  0  0  0
  -22.6831  -31.3020   21.4046 H   0  0  0  0  0  0
  -23.3742  -35.9689   23.3295 H   0  0  0  0  0  0
  -24.3593  -36.8976   22.2058 H   0  0  0  0  0  0
  -23.7280  -37.6556   23.6675 H   0  0  0  0  0  0
  -26.0304  -31.6024   20.5880 H   0  0  0  0  0  0
  -26.8123  -30.8976   21.9763 H   0  0  0  0  0  0
  -28.0895  -29.1301   21.1849 H   0  0  0  0  0  0
  -26.0970  -25.9827   19.0123 H   0  0  0  0  0  0
  -23.9922  -27.2834   19.0349 H   0  0  0  0  0  0
  -23.6941  -30.5801   19.3962 H   0  0  0  0  0  0
  -22.7351  -29.2159   19.8864 H   0  0  0  0  0  0
  -25.1291  -36.1975   25.0823 H   0  0  0  0  0  0
  -20.9920  -28.3224   24.1453 H   0  0  0  0  0  0
  -20.5615  -26.2278   23.3594 H   0  0  0  0  0  0
  -21.6606  -26.7440   22.1212 H   0  0  0  0  0  0
  -19.6860  -25.6365   21.1183 H   0  0  0  0  0  0
  -19.6642  -27.3298   20.6780 H   0  0  0  0  0  0
  -17.4150  -26.6750   21.4012 H   0  0  0  0  0  0
  -18.0267  -26.0098   22.9019 H   0  0  0  0  0  0
  -19.7961  -30.7249   24.2284 H   0  0  0  0  0  0
  -17.5062  -31.6289   24.5208 H   0  0  0  0  0  0
  -15.5363  -30.3052   23.7708 H   0  0  0  0  0  0
  -15.8636  -28.0873   22.7135 H   0  0  0  0  0  0
  -24.6030  -30.6871   25.7785 H   0  0  0  0  0  0
  -24.8892  -32.2715   26.4896 H   0  0  0  0  0  0
  -25.8179  -30.8816   27.0197 H   0  0  0  0  0  0
  -26.2835  -29.6744   24.1173 H   0  0  0  0  0  0
  -27.4150  -29.7254   25.4504 H   0  0  0  0  0  0
  -27.8645  -30.4312   23.9137 H   0  0  0  0  0  0
  -27.2667  -33.3603   26.2041 H   0  0  0  0  0  0
  -28.3877  -32.6829   25.0308 H   0  0  0  0  0  0
  -28.0702  -31.8425   26.5413 H   0  0  0  0  0  0
  -28.2586  -38.0127   24.7518 H   0  0  0  0  0  0
  -28.1089  -36.2653   24.6279 H   0  0  0  0  0  0
  -27.2295  -37.1446   25.8870 H   0  0  0  0  0  0
  -20.9236  -29.8772   21.7004 H   0  0  0  0  0  0
  -26.0195  -38.2866   24.1376 H   0  0  0  0  0  0
  -33.2614  -19.7220   19.7943 H   0  0  0  0  0  0
  -31.9236  -20.3344   18.8341 H   0  0  0  0  0  0
  -32.6458  -18.7794   18.4413 H   0  0  0  0  0  0
  -30.0239  -25.2718   23.6470 H   0  0  0  0  0  0
  -28.5760  -24.5759   24.3739 H   0  0  0  0  0  0
  -28.7061  -26.3077   24.1546 H   0  0  0  0  0  0
  -26.3799  -24.8173   23.2653 H   0  0  0  0  0  0
  -26.2170  -25.2862   21.5922 H   0  0  0  0  0  0
  -26.5883  -26.5050   22.8082 H   0  0  0  0  0  0
  -27.5713  -23.2171   21.8409 H   0  0  0  0  0  0
  -28.5638  -23.8741   20.5892 H   0  0  0  0  0  0
  -29.6193  -22.8332   23.2861 H   0  0  0  0  0  0
  -30.6075  -23.4135   21.9635 H   0  0  0  0  0  0
  -29.9880  -26.1046   21.2203 H   0  0  0  0  0  0
  -28.9985  -27.2801   21.9972 H   0  0  0  0  0  0
  -29.2283  -15.2603   21.6461 H   0  0  0  0  0  0
  -28.8094  -21.1536   21.3137 H   0  0  0  0  0  0
  1 25  1  0  0  0
  1 30  2  0  0  0
  1 83  1  0  0  0
  2  3  1  0  0  0
  2 25  1  0  0  0
  2 87  1  0  0  0
  2 88  1  0  0  0
  3  4  1  0  0  0
  3 89  1  0  0  0
  3 90  1  0  0  0
  4  5  1  0  0  0
  4 91  1  0  0  0
  4 92  1  0  0  0
  5  6  1  0  0  0
  5 26  1  0  0  0
  5 93  1  0  0  0
  6 25  1  0  0  0
  6 94  1  0  0  0
  6 95  1  0  0  0
  7  8  2  0  0  0
  7 26  1  0  0  0
  7 29  1  0  0  0
  8  9  1  0  0  0
  8 22  1  0  0  0
  9 10  1  0  0  0
  9 27  2  0  0  0
 10 11  2  0  0  0
 10 15  1  0  0  0
 11 12  1  0  0  0
 11 96  1  0  0  0
 12 13  2  0  0  0
 12 97  1  0  0  0
 13 14  1  0  0  0
 13 31  1  0  0  0
 14 15  2  0  0  0
 14 98  1  0  0  0
 15 99  1  0  0  0
 16 17  2  0  0  0
 16 21  1  0  0  0
 16 31  1  0  0  0
 17 18  1  0  0  0
 17100  1  0  0  0
 18 19  2  0  0  0
 18101  1  0  0  0
 19 20  1  0  0  0
 19 24  1  0  0  0
 20 21  2  0  0  0
 20102  1  0  0  0
 21 23  1  0  0  0
 22 28  1  0  0  0
 22 32  2  0  0  0
 26 27  1  0  0  0
 28103  1  0  0  0
 28104  1  0  0  0
 29105  1  0  0  0
 29106  1  0  0  0
 33 34  1  0  0  0
 33 66  1  0  0  0
 33 70  2  0  0  0
 34 36  1  0  0  0
 34 59  1  0  0  0
 34107  1  0  0  0
 35 44  2  0  0  0
 35 45  1  0  0  0
 35 68  1  0  0  0
 36 56  1  0  0  0
 36108  1  0  0  0
 37 39  1  0  0  0
 37 47  1  0  0  0
 37 66  1  0  0  0
 37109  1  0  0  0
 38 43  2  0  0  0
 38 46  1  0  0  0
 38 47  1  0  0  0
 39 64  1  0  0  0
 39 67  2  0  0  0
 40 52  1  0  0  0
 40 53  2  0  0  0
 40 58  1  0  0  0
 41110  1  0  0  0
 41111  1  0  0  0
 41112  1  0  0  0
 41 48  1  0  0  0
 42 43  1  0  0  0
 42 66  1  0  0  0
 42113  1  0  0  0
 42114  1  0  0  0
 43 44  1  0  0  0
 44115  1  0  0  0
 45 46  2  0  0  0
 45116  1  0  0  0
 46117  1  0  0  0
 47118  1  0  0  0
 47119  1  0  0  0
 48 56  1  0  0  0
 48 65  1  0  0  0
 48120  1  0  0  0
 49 50  1  0  0  0
 49 53  1  0  0  0
 49 64  1  0  0  0
 49121  1  0  0  0
 50 51  1  0  0  0
 50122  1  0  0  0
 50123  1  0  0  0
 51 52  1  0  0  0
 51124  1  0  0  0
 51125  1  0  0  0
 52126  1  0  0  0
 52127  1  0  0  0
 53 54  1  0  0  0
 54 55  2  0  0  0
 54128  1  0  0  0
 55 57  1  0  0  0
 55129  1  0  0  0
 56 69  2  0  0  0
 57 58  2  0  0  0
 57130  1  0  0  0
 58131  1  0  0  0
 59 60  1  0  0  0
 59 61  1  0  0  0
 59 62  1  0  0  0
 60132  1  0  0  0
 60133  1  0  0  0
 60134  1  0  0  0
 61135  1  0  0  0
 61136  1  0  0  0
 61137  1  0  0  0
 62138  1  0  0  0
 62139  1  0  0  0
 62140  1  0  0  0
 63 65  1  0  0  0
 63141  1  0  0  0
 63142  1  0  0  0
 63143  1  0  0  0
 64144  1  0  0  0
 65145  1  0  0  0
 68 80  1  0  0  0
 71 72  2  0  0  0
 71 74  1  0  0  0
 71 86  1  0  0  0
 72 75  1  0  0  0
 72 82  1  0  0  0
 73 82  2  0  0  0
 73 83  1  0  0  0
 73 86  1  0  0  0
 74 84  1  0  0  0
 74 85  2  0  0  0
 75146  1  0  0  0
 75147  1  0  0  0
 75148  1  0  0  0
 76149  1  0  0  0
 76150  1  0  0  0
 76151  1  0  0  0
 76 81  1  0  0  0
 77 81  1  0  0  0
 77152  1  0  0  0
 77153  1  0  0  0
 77154  1  0  0  0
 78 79  1  0  0  0
 78 81  1  0  0  0
 78155  1  0  0  0
 78156  1  0  0  0
 79 84  1  0  0  0
 79157  1  0  0  0
 79158  1  0  0  0
 80 81  1  0  0  0
 80159  1  0  0  0
 80160  1  0  0  0
 83161  1  0  0  0
 84162  1  0  0  0
M  ISO  4   1 100  68 101  80 101  83 100
M  END
> <chiral flag>
0

> <version>
0

> <s_m_source_file>
/data/baiqing/PycharmProjects/Reinvent-master-3.2/result/LINK_invent/BTK/process_docking_weight1_custom_product_contain_oxygen_bond_distance_aromatic_linkinvent_7_9_3/rearranged_h_0189.sdf

> <i_m_source_file_index>
65

> <r_mmod_Potential_Energy-OPLS-2005>
-117.924774169922

> <r_mmod_Stretch_Energy-OPLS-2005>
40.8707237243652

> <r_mmod_Bend_Energy-OPLS-2005>
112.615325927734

> <r_mmod_Torsional_Energy-OPLS-2005>
267.096038818359

> <r_mmod_Improper_Torsional_Energy-OPLS-2005>
3.45513391494751

> <r_mmod_Van_der_Waal_Energy-OPLS-2005>
134.552734375

> <r_mmod_Electrostatic_Energy-OPLS-2005>
-448.49755859375

> <r_mmod_Solvation_Energy-OPLS-2005>
-242.247055053711

> <b_mmod_Minimization_Converged-OPLS-2005>
0

> <r_mmod_RMS_Derivative-OPLS-2005>
2.86905574798584

$$$$
65
                    3D
 Structure written by MMmdl.
169177  0  0  1  0            999 V2000
  -30.6376  -14.6273   20.5308 C   0  0  0  0  0  0
  -30.4350  -12.3929   19.4413 C   0  0  0  0  0  0
  -29.5002  -12.4948   18.2166 C   0  0  0  0  0  0
  -28.0253  -12.3325   18.6351 C   0  0  0  0  0  0
  -27.6499  -13.2099   19.8589 C   0  0  2  0  0  0
  -28.6972  -13.0748   20.9867 C   0  0  0  0  0  0
  -25.2569  -13.8157   20.5700 C   0  0  0  0  0  0
  -24.1834  -13.0429   20.9206 C   0  0  0  0  0  0
  -24.6390  -11.6901   20.8762 C   0  0  0  0  0  0
  -23.9058  -10.4286   21.0427 C   0  0  0  0  0  0
  -24.3609   -9.4202   21.9200 C   0  0  0  0  0  0
  -23.6296   -8.2232   22.0761 C   0  0  0  0  0  0
  -22.4276   -8.0280   21.3552 C   0  0  0  0  0  0
  -21.9916   -9.0247   20.4641 C   0  0  0  0  0  0
  -22.7242  -10.2126   20.3059 C   0  0  0  0  0  0
  -21.6846   -6.0740   22.5283 C   0  0  0  0  0  0
  -21.4012   -6.5646   23.8217 C   0  0  0  0  0  0
  -21.3653   -5.6799   24.9180 C   0  0  0  0  0  0
  -21.6040   -4.3060   24.7234 C   0  0  0  0  0  0
  -21.8813   -3.8155   23.4352 C   0  0  0  0  0  0
  -21.9197   -4.6974   22.3411 C   0  0  0  0  0  0
  -22.7851  -13.5232   21.1859 C   0  0  0  0  0  0
  -22.1660   -4.2156   21.0989 F   0  0  0  0  0  0
  -21.5627   -3.4545   25.7744 F   0  0  0  0  0  0
  -30.0051  -13.4183   20.4096 N   0  0  0  0  0  0
  -26.2979  -12.9311   20.3320 N   0  0  0  0  0  0
  -25.9314  -11.6480   20.5775 N   0  0  0  0  0  0
  -22.0478  -12.8214   22.0385 N   0  0  0  0  0  0
  -25.4290  -15.1875   20.4101 N   0  0  0  0  0  0
  -31.8229  -14.7652   20.2090 O   0  0  0  0  0  0
  -21.6641   -6.8879   21.4239 O   0  0  0  0  0  0
  -22.3553  -14.5551   20.6718 O   0  0  0  0  0  0
  -24.6293  -31.8612   23.2027 C   0  0  0  0  0  0
  -25.9130  -32.4786   23.8377 C   0  0  1  0  0  0
  -27.2194  -27.3152   20.1172 C   0  0  0  0  0  0
  -25.5927  -33.8582   24.2313 N   0  0  0  0  0  0
  -23.4198  -30.4881   21.5480 C   0  0  2  0  0  0
  -24.8673  -28.9511   20.1078 C   0  0  0  0  0  0
  -22.7498  -29.4628   22.4958 C   0  0  0  0  0  0
  -18.0301  -28.1351   22.8472 C   0  0  0  0  0  0
  -24.1484  -36.7266   23.2644 C   0  0  0  0  0  0
  -25.9627  -30.7932   21.3718 C   0  0  0  0  0  0
  -26.0397  -29.4205   20.7172 C   0  0  0  0  0  0
  -27.2184  -28.6128   20.7162 C   0  0  0  0  0  0
  -26.0272  -26.9208   19.4604 C   0  0  0  0  0  0
  -24.8649  -27.7063   19.4704 C   0  0  0  0  0  0
  -23.6330  -29.8267   20.1639 C   0  0  0  0  0  0
  -25.4110  -36.3081   24.0349 C   0  0  1  0  0  0
  -20.5903  -28.3654   23.1284 C   0  0  2  0  0  0
  -20.6789  -26.9388   22.5390 C   0  0  0  0  0  0
  -19.5773  -26.6386   21.5177 C   0  0  0  0  0  0
  -18.1946  -26.7904   22.1582 C   0  0  0  0  0  0
  -19.1548  -28.8819   23.2870 C   0  0  0  0  0  0
  -18.9486  -30.1414   23.8913 C   0  0  0  0  0  0
  -17.6486  -30.6568   24.0556 C   0  0  0  0  0  0
  -25.9053  -34.9452   23.5140 C   0  0  0  0  0  0
  -16.5374  -29.9065   23.6323 C   0  0  0  0  0  0
  -16.7286  -28.6463   23.0364 C   0  0  0  0  0  0
  -26.4503  -31.6575   25.0737 C   0  0  0  0  0  0
  -25.3728  -31.3630   26.1439 C   0  0  0  0  0  0
  -27.0369  -30.3052   24.6079 C   0  0  0  0  0  0
  -27.6086  -32.4293   25.7505 C   0  0  0  0  0  0
  -27.5568  -37.1789   24.8476 C   0  0  0  0  0  0
  -21.4215  -29.3030   22.3686 N   0  0  0  0  0  0
  -26.4289  -37.3775   23.9419 N   0  0  0  0  0  0
  -24.6912  -31.0617   22.0982 N   0  0  0  0  0  0
  -23.4230  -28.8174   23.3031 O   0  0  0  0  0  0
  -28.3059  -26.4204   20.2010 O   0  0  0  0  0  0
  -26.5604  -34.8902   22.4695 O   0  0  0  0  0  0
  -23.5447  -32.1419   23.7335 O   0  0  0  0  0  0
  -30.5323  -18.0509   23.5203 C   0  0  0  0  0  0
  -30.4763  -16.8981   22.7201 C   0  0  0  0  0  0
  -30.2122  -19.2953   22.9554 C   0  0  0  0  0  0
  -30.0877  -16.9849   21.3682 C   0  0  0  0  0  0
  -29.8792  -19.3696   21.5900 C   0  0  0  0  0  0
  -32.3016  -19.7210   18.2524 C   0  0  0  0  0  0
  -32.3831  -21.7200   21.6334 C   0  0  0  0  0  0
  -29.6981  -23.1543   18.3070 C   0  0  0  0  0  0
  -32.5213  -20.0288   19.7424 C   0  0  0  0  0  0
  -28.8030  -23.7530   20.6901 C   0  0  0  0  0  0
  -27.9634  -24.9774   20.1011 C   0  0  0  0  0  0
  -31.8644  -21.3404   20.2336 C   0  0  1  0  0  0
  -29.8883  -22.9808   19.8263 C   0  0  1  0  0  0
  -30.3036  -21.4385   20.1011 C   0  0  2  0  0  0
  -29.7904  -18.2262   20.8181 N   0  0  0  0  0  0
  -29.8203  -15.7060   20.7369 N   0  0  0  0  0  0
  -29.5487  -20.6827   21.1349 N   0  0  0  0  0  0
  -30.2157  -20.4156   23.7218 F   0  0  0  0  0  0
  -31.4738  -12.5217   19.1357 H   0  0  0  0  0  0
  -30.3746  -11.3996   19.8894 H   0  0  0  0  0  0
  -29.7603  -11.7347   17.4789 H   0  0  0  0  0  0
  -29.6374  -13.4594   17.7239 H   0  0  0  0  0  0
  -27.8655  -11.2789   18.8761 H   0  0  0  0  0  0
  -27.3641  -12.5553   17.7965 H   0  0  0  0  0  0
  -27.6642  -14.2412   19.5091 H   0  0  0  0  0  0
  -28.7153  -12.0554   21.3768 H   0  0  0  0  0  0
  -28.4473  -13.7138   21.8349 H   0  0  0  0  0  0
  -25.2746   -9.5682   22.4785 H   0  0  0  0  0  0
  -24.0005   -7.4619   22.7475 H   0  0  0  0  0  0
  -21.0853   -8.8766   19.8936 H   0  0  0  0  0  0
  -22.3715  -10.9668   19.6165 H   0  0  0  0  0  0
  -21.2001   -7.6153   23.9725 H   0  0  0  0  0  0
  -21.1473   -6.0530   25.9081 H   0  0  0  0  0  0
  -22.0600   -2.7618   23.2858 H   0  0  0  0  0  0
  -22.4087  -11.9848   22.4723 H   0  0  0  0  0  0
  -21.1085  -13.1215   22.2569 H   0  0  0  0  0  0
  -24.6587  -15.8380   20.5220 H   0  0  0  0  0  0
  -26.2641  -15.6278   20.0454 H   0  0  0  0  0  0
  -26.7207  -32.5479   23.1143 H   0  0  0  0  0  0
  -25.0101  -33.9720   25.0469 H   0  0  0  0  0  0
  -22.7140  -31.3105   21.4075 H   0  0  0  0  0  0
  -23.3760  -35.9578   23.3315 H   0  0  0  0  0  0
  -24.3591  -36.8869   22.2054 H   0  0  0  0  0  0
  -23.7210  -37.6469   23.6646 H   0  0  0  0  0  0
  -26.0861  -31.5528   20.5980 H   0  0  0  0  0  0
  -26.8461  -30.8511   21.9964 H   0  0  0  0  0  0
  -28.1112  -28.9580   21.2187 H   0  0  0  0  0  0
  -25.9496  -25.9766   18.9445 H   0  0  0  0  0  0
  -23.9687  -27.3425   18.9855 H   0  0  0  0  0  0
  -23.7408  -30.6055   19.4089 H   0  0  0  0  0  0
  -22.7528  -29.2537   19.8623 H   0  0  0  0  0  0
  -25.1271  -36.1970   25.0839 H   0  0  0  0  0  0
  -20.9975  -28.3215   24.1409 H   0  0  0  0  0  0
  -20.5702  -26.2240   23.3562 H   0  0  0  0  0  0
  -21.6659  -26.7432   22.1181 H   0  0  0  0  0  0
  -19.6950  -25.6316   21.1165 H   0  0  0  0  0  0
  -19.6735  -27.3223   20.6735 H   0  0  0  0  0  0
  -17.4220  -26.6684   21.3976 H   0  0  0  0  0  0
  -18.0358  -26.0008   22.8944 H   0  0  0  0  0  0
  -19.7970  -30.7197   24.2322 H   0  0  0  0  0  0
  -17.5051  -31.6266   24.5138 H   0  0  0  0  0  0
  -15.5369  -30.2970   23.7650 H   0  0  0  0  0  0
  -15.8677  -28.0779   22.7101 H   0  0  0  0  0  0
  -24.6053  -30.6794   25.7771 H   0  0  0  0  0  0
  -24.8697  -32.2708   26.4778 H   0  0  0  0  0  0
  -25.8061  -30.8945   27.0282 H   0  0  0  0  0  0
  -26.2935  -29.6808   24.1099 H   0  0  0  0  0  0
  -27.4186  -29.7272   25.4504 H   0  0  0  0  0  0
  -27.8722  -30.4443   23.9216 H   0  0  0  0  0  0
  -27.2791  -33.3693   26.1944 H   0  0  0  0  0  0
  -28.3950  -32.6679   25.0328 H   0  0  0  0  0  0
  -28.0655  -31.8474   26.5507 H   0  0  0  0  0  0
  -28.2577  -38.0089   24.7533 H   0  0  0  0  0  0
  -28.1074  -36.2626   24.6316 H   0  0  0  0  0  0
  -27.2284  -37.1450   25.8874 H   0  0  0  0  0  0
  -20.9399  -29.8761   21.6900 H   0  0  0  0  0  0
  -26.0182  -38.2860   24.1415 H   0  0  0  0  0  0
  -30.7863  -17.9778   24.5672 H   0  0  0  0  0  0
  -30.6764  -15.9399   23.1797 H   0  0  0  0  0  0
  -32.7725  -18.7742   17.9861 H   0  0  0  0  0  0
  -32.7447  -20.4873   17.6167 H   0  0  0  0  0  0
  -31.2471  -19.6356   17.9918 H   0  0  0  0  0  0
  -33.4210  -22.0501   21.5854 H   0  0  0  0  0  0
  -32.3510  -20.8690   22.3130 H   0  0  0  0  0  0
  -31.8102  -22.5330   22.0796 H   0  0  0  0  0  0
  -29.5853  -24.1988   18.0206 H   0  0  0  0  0  0
  -28.8343  -22.6014   17.9350 H   0  0  0  0  0  0
  -30.5751  -22.7875   17.7702 H   0  0  0  0  0  0
  -33.5974  -20.1077   19.9029 H   0  0  0  0  0  0
  -32.2110  -19.1807   20.3458 H   0  0  0  0  0  0
  -28.0605  -22.9993   20.9566 H   0  0  0  0  0  0
  -29.2392  -24.0511   21.6451 H   0  0  0  0  0  0
  -27.0311  -24.8819   20.6617 H   0  0  0  0  0  0
  -27.6935  -24.7480   19.0706 H   0  0  0  0  0  0
  -32.2794  -22.0923   19.5601 H   0  0  0  0  0  0
  -30.7728  -23.5833   20.0346 H   0  0  0  0  0  0
  -30.0321  -20.9031   19.1932 H   0  0  0  0  0  0
  -28.8433  -15.4644   20.7097 H   0  0  0  0  0  0
  -29.4225  -21.2601   21.9594 H   0  0  0  0  0  0
  1 25  1  0  0  0
  1 30  2  0  0  0
  1 86  1  0  0  0
  2  3  1  0  0  0
  2 25  1  0  0  0
  2 89  1  0  0  0
  2 90  1  0  0  0
  3  4  1  0  0  0
  3 91  1  0  0  0
  3 92  1  0  0  0
  4  5  1  0  0  0
  4 93  1  0  0  0
  4 94  1  0  0  0
  5  6  1  0  0  0
  5 26  1  0  0  0
  5 95  1  0  0  0
  6 25  1  0  0  0
  6 96  1  0  0  0
  6 97  1  0  0  0
  7  8  2  0  0  0
  7 26  1  0  0  0
  7 29  1  0  0  0
  8  9  1  0  0  0
  8 22  1  0  0  0
  9 10  1  0  0  0
  9 27  2  0  0  0
 10 11  2  0  0  0
 10 15  1  0  0  0
 11 12  1  0  0  0
 11 98  1  0  0  0
 12 13  2  0  0  0
 12 99  1  0  0  0
 13 14  1  0  0  0
 13 31  1  0  0  0
 14 15  2  0  0  0
 14100  1  0  0  0
 15101  1  0  0  0
 16 17  2  0  0  0
 16 21  1  0  0  0
 16 31  1  0  0  0
 17 18  1  0  0  0
 17102  1  0  0  0
 18 19  2  0  0  0
 18103  1  0  0  0
 19 20  1  0  0  0
 19 24  1  0  0  0
 20 21  2  0  0  0
 20104  1  0  0  0
 21 23  1  0  0  0
 22 28  1  0  0  0
 22 32  2  0  0  0
 26 27  1  0  0  0
 28105  1  0  0  0
 28106  1  0  0  0
 29107  1  0  0  0
 29108  1  0  0  0
 33 34  1  0  0  0
 33 66  1  0  0  0
 33 70  2  0  0  0
 34 36  1  0  0  0
 34 59  1  0  0  0
 34109  1  0  0  0
 35 44  2  0  0  0
 35 45  1  0  0  0
 35 68  1  0  0  0
 36 56  1  0  0  0
 36110  1  0  0  0
 37 39  1  0  0  0
 37 47  1  0  0  0
 37 66  1  0  0  0
 37111  1  0  0  0
 38 43  2  0  0  0
 38 46  1  0  0  0
 38 47  1  0  0  0
 39 64  1  0  0  0
 39 67  2  0  0  0
 40 52  1  0  0  0
 40 53  2  0  0  0
 40 58  1  0  0  0
 41112  1  0  0  0
 41113  1  0  0  0
 41114  1  0  0  0
 41 48  1  0  0  0
 42 43  1  0  0  0
 42 66  1  0  0  0
 42115  1  0  0  0
 42116  1  0  0  0
 43 44  1  0  0  0
 44117  1  0  0  0
 45 46  2  0  0  0
 45118  1  0  0  0
 46119  1  0  0  0
 47120  1  0  0  0
 47121  1  0  0  0
 48 56  1  0  0  0
 48 65  1  0  0  0
 48122  1  0  0  0
 49 50  1  0  0  0
 49 53  1  0  0  0
 49 64  1  0  0  0
 49123  1  0  0  0
 50 51  1  0  0  0
 50124  1  0  0  0
 50125  1  0  0  0
 51 52  1  0  0  0
 51126  1  0  0  0
 51127  1  0  0  0
 52128  1  0  0  0
 52129  1  0  0  0
 53 54  1  0  0  0
 54 55  2  0  0  0
 54130  1  0  0  0
 55 57  1  0  0  0
 55131  1  0  0  0
 56 69  2  0  0  0
 57 58  2  0  0  0
 57132  1  0  0  0
 58133  1  0  0  0
 59 60  1  0  0  0
 59 61  1  0  0  0
 59 62  1  0  0  0
 60134  1  0  0  0
 60135  1  0  0  0
 60136  1  0  0  0
 61137  1  0  0  0
 61138  1  0  0  0
 61139  1  0  0  0
 62140  1  0  0  0
 62141  1  0  0  0
 62142  1  0  0  0
 63 65  1  0  0  0
 63143  1  0  0  0
 63144  1  0  0  0
 63145  1  0  0  0
 64146  1  0  0  0
 65147  1  0  0  0
 68 81  1  0  0  0
 71 72  2  0  0  0
 71 73  1  0  0  0
 71148  1  0  0  0
 72 74  1  0  0  0
 72149  1  0  0  0
 73 75  2  0  0  0
 73 88  1  0  0  0
 74 85  2  0  0  0
 74 86  1  0  0  0
 75 85  1  0  0  0
 75 87  1  0  0  0
 76 79  1  0  0  0
 76150  1  0  0  0
 76151  1  0  0  0
 76152  1  0  0  0
 77153  1  0  0  0
 77154  1  0  0  0
 77155  1  0  0  0
 77 82  1  0  0  0
 78156  1  0  0  0
 78157  1  0  0  0
 78158  1  0  0  0
 78 83  1  0  0  0
 79 82  1  0  0  0
 79159  1  0  0  0
 79160  1  0  0  0
 80 81  1  0  0  0
 80 83  1  0  0  0
 80161  1  0  0  0
 80162  1  0  0  0
 81163  1  0  0  0
 81164  1  0  0  0
 82 84  1  0  0  0
 82165  1  0  0  0
 83 84  1  0  0  0
 83166  1  0  0  0
 84 87  1  0  0  0
 84167  1  0  0  0
 86168  1  0  0  0
 87169  1  0  0  0
M  ISO  4   1 100  68 101  81 101  86 100
M  END
> <chiral flag>
0

> <version>
0

> <s_m_source_file>
/data/baiqing/PycharmProjects/Reinvent-master-3.2/result/LINK_invent/BTK/process_docking_weight1_custom_product_contain_oxygen_bond_distance_aromatic_linkinvent_7_9_3/rearranged_h_0189.sdf

> <i_m_source_file_index>
66

> <r_mmod_Potential_Energy-OPLS-2005>
61.0137825012207

> <r_mmod_Stretch_Energy-OPLS-2005>
87.325553894043

> <r_mmod_Bend_Energy-OPLS-2005>
196.645401000977

> <r_mmod_Torsional_Energy-OPLS-2005>
319.784729003906

> <r_mmod_Improper_Torsional_Energy-OPLS-2005>
14.3693914413452

> <r_mmod_Van_der_Waal_Energy-OPLS-2005>
153.806945800781

> <r_mmod_Electrostatic_Energy-OPLS-2005>
-551.483276367188

> <r_mmod_Solvation_Energy-OPLS-2005>
-212.760330200195

> <b_mmod_Minimization_Converged-OPLS-2005>
0

> <r_mmod_RMS_Derivative-OPLS-2005>
3.23366808891296

$$$$
66
                    3D
 Structure written by MMmdl.
179187  0  0  1  0            999 V2000
  -30.6978  -14.4574   20.4391 C   0  0  0  0  0  0
  -30.4040  -12.2646   19.4255 C   0  0  0  0  0  0
  -29.4866  -12.4644   18.2014 C   0  0  0  0  0  0
  -28.0049  -12.3399   18.6106 C   0  0  0  0  0  0
  -27.6470  -13.2047   19.8492 C   0  0  2  0  0  0
  -28.6901  -13.0325   20.9784 C   0  0  0  0  0  0
  -25.2528  -13.8162   20.5650 C   0  0  0  0  0  0
  -24.1789  -13.0448   20.9191 C   0  0  0  0  0  0
  -24.6313  -11.6918   20.8725 C   0  0  0  0  0  0
  -23.8981  -10.4292   21.0373 C   0  0  0  0  0  0
  -24.3559   -9.4219   21.9140 C   0  0  0  0  0  0
  -23.6278   -8.2238   22.0712 C   0  0  0  0  0  0
  -22.4266   -8.0238   21.3512 C   0  0  0  0  0  0
  -21.9874   -9.0200   20.4618 C   0  0  0  0  0  0
  -22.7152  -10.2103   20.3019 C   0  0  0  0  0  0
  -21.6861   -6.0726   22.5275 C   0  0  0  0  0  0
  -21.4015   -6.5637   23.8210 C   0  0  0  0  0  0
  -21.3666   -5.6775   24.9178 C   0  0  0  0  0  0
  -21.6050   -4.3041   24.7219 C   0  0  0  0  0  0
  -21.8813   -3.8132   23.4346 C   0  0  0  0  0  0
  -21.9192   -4.6950   22.3405 C   0  0  0  0  0  0
  -22.7791  -13.5251   21.1884 C   0  0  0  0  0  0
  -22.1651   -4.2133   21.0982 F   0  0  0  0  0  0
  -21.5640   -3.4529   25.7737 F   0  0  0  0  0  0
  -30.0228  -13.2822   20.4107 N   0  0  0  0  0  0
  -26.2925  -12.9314   20.3241 N   0  0  0  0  0  0
  -25.9237  -11.6475   20.5743 N   0  0  0  0  0  0
  -22.0444  -12.8237   22.0456 N   0  0  0  0  0  0
  -25.4331  -15.1876   20.4048 N   0  0  0  0  0  0
  -31.9038  -14.5430   20.2077 O   0  0  0  0  0  0
  -21.6629   -6.8846   21.4227 O   0  0  0  0  0  0
  -22.3469  -14.5552   20.6735 O   0  0  0  0  0  0
  -24.6099  -31.8719   23.2129 C   0  0  0  0  0  0
  -25.9005  -32.4847   23.8412 C   0  0  1  0  0  0
  -27.2242  -27.4647   20.0945 C   0  0  0  0  0  0
  -25.5880  -33.8641   24.2346 N   0  0  0  0  0  0
  -23.3938  -30.4956   21.5561 C   0  0  2  0  0  0
  -24.8339  -28.9644   20.1205 C   0  0  0  0  0  0
  -22.7387  -29.4666   22.5040 C   0  0  0  0  0  0
  -18.0260  -28.1352   22.8511 C   0  0  0  0  0  0
  -24.1478  -36.7312   23.2641 C   0  0  0  0  0  0
  -25.9200  -30.8446   21.3613 C   0  0  0  0  0  0
  -25.9937  -29.4828   20.7102 C   0  0  0  0  0  0
  -27.1899  -28.7377   20.6953 C   0  0  0  0  0  0
  -26.0396  -26.9454   19.5146 C   0  0  0  0  0  0
  -24.8492  -27.6931   19.5257 C   0  0  0  0  0  0
  -23.5970  -29.8296   20.1702 C   0  0  0  0  0  0
  -25.4102  -36.3134   24.0350 C   0  0  1  0  0  0
  -20.5850  -28.3626   23.1347 C   0  0  2  0  0  0
  -20.6746  -26.9366   22.5431 C   0  0  0  0  0  0
  -19.5724  -26.6368   21.5223 C   0  0  0  0  0  0
  -18.1902  -26.7903   22.1633 C   0  0  0  0  0  0
  -19.1511  -28.8805   23.2925 C   0  0  0  0  0  0
  -18.9446  -30.1416   23.8926 C   0  0  0  0  0  0
  -17.6452  -30.6574   24.0556 C   0  0  0  0  0  0
  -25.9032  -34.9496   23.5154 C   0  0  0  0  0  0
  -16.5339  -29.9079   23.6318 C   0  0  0  0  0  0
  -16.7253  -28.6483   23.0366 C   0  0  0  0  0  0
  -26.4451  -31.6618   25.0727 C   0  0  0  0  0  0
  -25.3723  -31.3738   26.1487 C   0  0  0  0  0  0
  -27.0267  -30.3059   24.6077 C   0  0  0  0  0  0
  -27.6038  -32.4339   25.7471 C   0  0  0  0  0  0
  -27.5591  -37.1804   24.8469 C   0  0  0  0  0  0
  -21.4120  -29.3006   22.3772 N   0  0  0  0  0  0
  -26.4294  -37.3815   23.9429 N   0  0  0  0  0  0
  -24.6595  -31.0848   22.1025 N   0  0  0  0  0  0
  -23.4181  -28.8206   23.3059 O   0  0  0  0  0  0
  -28.4188  -26.7836   20.1014 O   0  0  0  0  0  0
  -26.5605  -34.8940   22.4719 O   0  0  0  0  0  0
  -23.5298  -32.1471   23.7545 O   0  0  0  0  0  0
  -29.5329  -17.9210   19.9792 C   0  0  0  0  0  0
  -29.9906  -18.9790   19.1287 C   0  0  0  0  0  0
  -30.9442  -18.5567   18.2232 C   0  0  0  0  0  0
  -30.1440  -16.7082   19.7713 C   0  0  0  0  0  0
  -31.7103  -19.2977   17.2269 C   0  0  0  0  0  0
  -25.8972  -22.4845   18.0293 C   0  0  0  0  0  0
  -30.0871  -25.0752   21.6839 C   0  0  0  0  0  0
  -30.7318  -22.7576   17.8452 C   0  0  0  0  0  0
  -28.6031  -20.3211   16.2322 C   0  0  0  0  0  0
  -26.9356  -19.5721   17.9256 C   0  0  0  0  0  0
  -26.8661  -21.8958   16.9862 C   0  0  0  0  0  0
  -29.6331  -23.1897   20.0828 C   0  0  0  0  0  0
  -28.3679  -25.3878   19.8491 C   0  0  0  0  0  0
  -29.7040  -24.7265   20.2342 C   0  0  1  0  0  0
  -29.4154  -22.6527   18.6406 C   0  0  2  0  0  0
  -28.7262  -21.2494   18.6821 C   0  0  1  0  0  0
  -27.8189  -20.7633   17.4797 C   0  0  0  0  0  0
  -32.6521  -18.8417   16.5071 N   0  0  0  0  0  0
  -29.5362  -20.2818   19.4302 N   0  0  0  0  0  0
  -29.9163  -15.5529   20.4651 N   0  0  0  0  0  0
  -31.2498  -16.8507   18.4118 S   0  0  0  0  0  0
  -31.4554  -12.3325   19.1366 H   0  0  0  0  0  0
  -30.2747  -11.2657   19.8458 H   0  0  0  0  0  0
  -29.7212  -11.7273   17.4306 H   0  0  0  0  0  0
  -29.6638  -13.4433   17.7562 H   0  0  0  0  0  0
  -27.8063  -11.2902   18.8253 H   0  0  0  0  0  0
  -27.3585  -12.5970   17.7701 H   0  0  0  0  0  0
  -27.6778  -14.2412   19.5099 H   0  0  0  0  0  0
  -28.6445  -12.0219   21.3886 H   0  0  0  0  0  0
  -28.4755  -13.7051   21.8082 H   0  0  0  0  0  0
  -25.2705   -9.5744   22.4692 H   0  0  0  0  0  0
  -24.0029   -7.4641   22.7422 H   0  0  0  0  0  0
  -21.0804   -8.8651   19.8939 H   0  0  0  0  0  0
  -22.3553  -10.9604   19.6115 H   0  0  0  0  0  0
  -21.1999   -7.6134   23.9726 H   0  0  0  0  0  0
  -21.1500   -6.0497   25.9090 H   0  0  0  0  0  0
  -22.0599   -2.7596   23.2833 H   0  0  0  0  0  0
  -22.4074  -11.9931   22.4865 H   0  0  0  0  0  0
  -21.1030  -13.1207   22.2637 H   0  0  0  0  0  0
  -24.6755  -15.8516   20.5129 H   0  0  0  0  0  0
  -26.2883  -15.6159   20.0738 H   0  0  0  0  0  0
  -26.7070  -32.5561   23.1174 H   0  0  0  0  0  0
  -25.0014  -33.9811   25.0480 H   0  0  0  0  0  0
  -22.6801  -31.3111   21.4218 H   0  0  0  0  0  0
  -23.3763  -35.9621   23.3304 H   0  0  0  0  0  0
  -24.3576  -36.8920   22.2057 H   0  0  0  0  0  0
  -23.7190  -37.6502   23.6642 H   0  0  0  0  0  0
  -26.0298  -31.6094   20.5912 H   0  0  0  0  0  0
  -26.8095  -30.8959   21.9780 H   0  0  0  0  0  0
  -28.0853  -29.1333   21.1547 H   0  0  0  0  0  0
  -26.0089  -25.9692   19.0537 H   0  0  0  0  0  0
  -23.9495  -27.2850   19.0840 H   0  0  0  0  0  0
  -23.7033  -30.6034   19.4093 H   0  0  0  0  0  0
  -22.7216  -29.2471   19.8770 H   0  0  0  0  0  0
  -25.1267  -36.2020   25.0843 H   0  0  0  0  0  0
  -20.9931  -28.3169   24.1471 H   0  0  0  0  0  0
  -20.5645  -26.2226   23.3610 H   0  0  0  0  0  0
  -21.6618  -26.7412   22.1225 H   0  0  0  0  0  0
  -19.6880  -25.6292   21.1225 H   0  0  0  0  0  0
  -19.6660  -27.3205   20.6776 H   0  0  0  0  0  0
  -17.4179  -26.6677   21.4023 H   0  0  0  0  0  0
  -18.0282  -26.0029   22.9009 H   0  0  0  0  0  0
  -19.7927  -30.7213   24.2320 H   0  0  0  0  0  0
  -17.5015  -31.6259   24.5147 H   0  0  0  0  0  0
  -15.5343  -30.2995   23.7615 H   0  0  0  0  0  0
  -15.8653  -28.0800   22.7089 H   0  0  0  0  0  0
  -24.5860  -30.7126   25.7833 H   0  0  0  0  0  0
  -24.8952  -32.2904   26.4964 H   0  0  0  0  0  0
  -25.8068  -30.8878   27.0230 H   0  0  0  0  0  0
  -26.2793  -29.6837   24.1134 H   0  0  0  0  0  0
  -27.4055  -29.7279   25.4519 H   0  0  0  0  0  0
  -27.8626  -30.4392   23.9203 H   0  0  0  0  0  0
  -27.2661  -33.3632   26.2075 H   0  0  0  0  0  0
  -28.3814  -32.6918   25.0268 H   0  0  0  0  0  0
  -28.0740  -31.8452   26.5359 H   0  0  0  0  0  0
  -28.2618  -38.0097   24.7544 H   0  0  0  0  0  0
  -28.1077  -36.2635   24.6255 H   0  0  0  0  0  0
  -27.2319  -37.1413   25.8875 H   0  0  0  0  0  0
  -20.9279  -29.8733   21.7005 H   0  0  0  0  0  0
  -26.0199  -38.2899   24.1436 H   0  0  0  0  0  0
  -28.7954  -18.1004   20.7488 H   0  0  0  0  0  0
  -31.4133  -20.3360   17.0876 H   0  0  0  0  0  0
  -25.2719  -23.2549   17.5785 H   0  0  0  0  0  0
  -26.4214  -22.9483   18.8634 H   0  0  0  0  0  0
  -25.2314  -21.7194   18.4290 H   0  0  0  0  0  0
  -31.0689  -24.6754   21.9361 H   0  0  0  0  0  0
  -29.3674  -24.6675   22.3937 H   0  0  0  0  0  0
  -30.1264  -26.1525   21.8452 H   0  0  0  0  0  0
  -31.0914  -23.7871   17.8159 H   0  0  0  0  0  0
  -30.6234  -22.4550   16.8080 H   0  0  0  0  0  0
  -31.5210  -22.1618   18.3016 H   0  0  0  0  0  0
  -27.9269  -20.0732   15.4133 H   0  0  0  0  0  0
  -29.1850  -19.4247   16.4064 H   0  0  0  0  0  0
  -29.2602  -21.1019   15.8596 H   0  0  0  0  0  0
  -26.1356  -19.3748   17.2087 H   0  0  0  0  0  0
  -26.4628  -19.7552   18.8901 H   0  0  0  0  0  0
  -27.5048  -18.6490   18.0239 H   0  0  0  0  0  0
  -27.4450  -22.7024   16.5352 H   0  0  0  0  0  0
  -26.2590  -21.5162   16.1629 H   0  0  0  0  0  0
  -28.8395  -22.8401   20.7456 H   0  0  0  0  0  0
  -30.5441  -22.7427   20.4836 H   0  0  0  0  0  0
  -27.5624  -24.9200   20.4185 H   0  0  0  0  0  0
  -28.1556  -25.2550   18.7890 H   0  0  0  0  0  0
  -30.4854  -25.1213   19.5851 H   0  0  0  0  0  0
  -28.7151  -23.3198   18.1567 H   0  0  0  0  0  0
  -27.9485  -21.4094   19.4297 H   0  0  0  0  0  0
  -32.8492  -17.8646   16.7004 H   0  0  0  0  0  0
  -29.2824  -20.3468   20.4100 H   0  0  0  0  0  0
  -28.9795  -15.4169   20.8156 H   0  0  0  0  0  0
  1 25  1  0  0  0
  1 30  2  0  0  0
  1 90  1  0  0  0
  2  3  1  0  0  0
  2 25  1  0  0  0
  2 92  1  0  0  0
  2 93  1  0  0  0
  3  4  1  0  0  0
  3 94  1  0  0  0
  3 95  1  0  0  0
  4  5  1  0  0  0
  4 96  1  0  0  0
  4 97  1  0  0  0
  5  6  1  0  0  0
  5 26  1  0  0  0
  5 98  1  0  0  0
  6 25  1  0  0  0
  6 99  1  0  0  0
  6100  1  0  0  0
  7  8  2  0  0  0
  7 26  1  0  0  0
  7 29  1  0  0  0
  8  9  1  0  0  0
  8 22  1  0  0  0
  9 10  1  0  0  0
  9 27  2  0  0  0
 10 11  2  0  0  0
 10 15  1  0  0  0
 11 12  1  0  0  0
 11101  1  0  0  0
 12 13  2  0  0  0
 12102  1  0  0  0
 13 14  1  0  0  0
 13 31  1  0  0  0
 14 15  2  0  0  0
 14103  1  0  0  0
 15104  1  0  0  0
 16 17  2  0  0  0
 16 21  1  0  0  0
 16 31  1  0  0  0
 17 18  1  0  0  0
 17105  1  0  0  0
 18 19  2  0  0  0
 18106  1  0  0  0
 19 20  1  0  0  0
 19 24  1  0  0  0
 20 21  2  0  0  0
 20107  1  0  0  0
 21 23  1  0  0  0
 22 28  1  0  0  0
 22 32  2  0  0  0
 26 27  1  0  0  0
 28108  1  0  0  0
 28109  1  0  0  0
 29110  1  0  0  0
 29111  1  0  0  0
 33 34  1  0  0  0
 33 66  1  0  0  0
 33 70  2  0  0  0
 34 36  1  0  0  0
 34 59  1  0  0  0
 34112  1  0  0  0
 35 44  2  0  0  0
 35 45  1  0  0  0
 35 68  1  0  0  0
 36 56  1  0  0  0
 36113  1  0  0  0
 37 39  1  0  0  0
 37 47  1  0  0  0
 37 66  1  0  0  0
 37114  1  0  0  0
 38 43  2  0  0  0
 38 46  1  0  0  0
 38 47  1  0  0  0
 39 64  1  0  0  0
 39 67  2  0  0  0
 40 52  1  0  0  0
 40 53  2  0  0  0
 40 58  1  0  0  0
 41115  1  0  0  0
 41116  1  0  0  0
 41117  1  0  0  0
 41 48  1  0  0  0
 42 43  1  0  0  0
 42 66  1  0  0  0
 42118  1  0  0  0
 42119  1  0  0  0
 43 44  1  0  0  0
 44120  1  0  0  0
 45 46  2  0  0  0
 45121  1  0  0  0
 46122  1  0  0  0
 47123  1  0  0  0
 47124  1  0  0  0
 48 56  1  0  0  0
 48 65  1  0  0  0
 48125  1  0  0  0
 49 50  1  0  0  0
 49 53  1  0  0  0
 49 64  1  0  0  0
 49126  1  0  0  0
 50 51  1  0  0  0
 50127  1  0  0  0
 50128  1  0  0  0
 51 52  1  0  0  0
 51129  1  0  0  0
 51130  1  0  0  0
 52131  1  0  0  0
 52132  1  0  0  0
 53 54  1  0  0  0
 54 55  2  0  0  0
 54133  1  0  0  0
 55 57  1  0  0  0
 55134  1  0  0  0
 56 69  2  0  0  0
 57 58  2  0  0  0
 57135  1  0  0  0
 58136  1  0  0  0
 59 60  1  0  0  0
 59 61  1  0  0  0
 59 62  1  0  0  0
 60137  1  0  0  0
 60138  1  0  0  0
 60139  1  0  0  0
 61140  1  0  0  0
 61141  1  0  0  0
 61142  1  0  0  0
 62143  1  0  0  0
 62144  1  0  0  0
 62145  1  0  0  0
 63 65  1  0  0  0
 63146  1  0  0  0
 63147  1  0  0  0
 63148  1  0  0  0
 64149  1  0  0  0
 65150  1  0  0  0
 68 83  1  0  0  0
 71 72  1  0  0  0
 71 74  2  0  0  0
 71151  1  0  0  0
 72 73  2  0  0  0
 72 89  1  0  0  0
 73 75  1  0  0  0
 73 91  1  0  0  0
 74 90  1  0  0  0
 74 91  1  0  0  0
 75 88  2  0  0  0
 75152  1  0  0  0
 76 81  1  0  0  0
 76153  1  0  0  0
 76154  1  0  0  0
 76155  1  0  0  0
 77156  1  0  0  0
 77157  1  0  0  0
 77158  1  0  0  0
 77 84  1  0  0  0
 78159  1  0  0  0
 78160  1  0  0  0
 78161  1  0  0  0
 78 85  1  0  0  0
 79162  1  0  0  0
 79163  1  0  0  0
 79164  1  0  0  0
 79 87  1  0  0  0
 80 87  1  0  0  0
 80165  1  0  0  0
 80166  1  0  0  0
 80167  1  0  0  0
 81 87  1  0  0  0
 81168  1  0  0  0
 81169  1  0  0  0
 82 84  1  0  0  0
 82 85  1  0  0  0
 82170  1  0  0  0
 82171  1  0  0  0
 83 84  1  0  0  0
 83172  1  0  0  0
 83173  1  0  0  0
 84174  1  0  0  0
 85 86  1  0  0  0
 85175  1  0  0  0
 86 87  1  0  0  0
 86 89  1  0  0  0
 86176  1  0  0  0
 88177  1  0  0  0
 89178  1  0  0  0
 90179  1  0  0  0
M  ISO  4   1 100  68 101  83 101  90 100
M  END
> <chiral flag>
0

> <version>
0

> <s_m_source_file>
/data/baiqing/PycharmProjects/Reinvent-master-3.2/result/LINK_invent/BTK/process_docking_weight1_custom_product_contain_oxygen_bond_distance_aromatic_linkinvent_7_9_3/rearranged_h_0189.sdf

> <i_m_source_file_index>
67

> <r_mmod_Potential_Energy-OPLS-2005>
90.9435501098633

> <r_mmod_Stretch_Energy-OPLS-2005>
39.1756401062012

> <r_mmod_Bend_Energy-OPLS-2005>
164.756896972656

> <r_mmod_Torsional_Energy-OPLS-2005>
303.2626953125

> <r_mmod_Improper_Torsional_Energy-OPLS-2005>
11.2539443969727

> <r_mmod_Van_der_Waal_Energy-OPLS-2005>
146.402954101562

> <r_mmod_Electrostatic_Energy-OPLS-2005>
-380.030609130859

> <r_mmod_Solvation_Energy-OPLS-2005>
-216.245010375977

> <b_mmod_Minimization_Converged-OPLS-2005>
0

> <r_mmod_RMS_Derivative-OPLS-2005>
3.71462035179138

$$$$
67
                    3D
 Structure written by MMmdl.
153161  0  0  1  0            999 V2000
  -30.6391  -14.7217   20.5256 C   0  0  0  0  0  0
  -30.4303  -12.4541   19.4763 C   0  0  0  0  0  0
  -29.5098  -12.5223   18.2371 C   0  0  0  0  0  0
  -28.0337  -12.3480   18.6431 C   0  0  0  0  0  0
  -27.6457  -13.2299   19.8594 C   0  0  2  0  0  0
  -28.6863  -13.1164   20.9923 C   0  0  0  0  0  0
  -25.2523  -13.8196   20.5705 C   0  0  0  0  0  0
  -24.1805  -13.0442   20.9198 C   0  0  0  0  0  0
  -24.6394  -11.6918   20.8744 C   0  0  0  0  0  0
  -23.9074  -10.4295   21.0409 C   0  0  0  0  0  0
  -24.3623   -9.4213   21.9190 C   0  0  0  0  0  0
  -23.6298   -8.2248   22.0756 C   0  0  0  0  0  0
  -22.4280   -8.0287   21.3546 C   0  0  0  0  0  0
  -21.9919   -9.0260   20.4650 C   0  0  0  0  0  0
  -22.7246  -10.2138   20.3060 C   0  0  0  0  0  0
  -21.6858   -6.0743   22.5282 C   0  0  0  0  0  0
  -21.4013   -6.5645   23.8216 C   0  0  0  0  0  0
  -21.3657   -5.6796   24.9177 C   0  0  0  0  0  0
  -21.6044   -4.3059   24.7226 C   0  0  0  0  0  0
  -21.8819   -3.8153   23.4347 C   0  0  0  0  0  0
  -21.9190   -4.6970   22.3404 C   0  0  0  0  0  0
  -22.7829  -13.5227   21.1866 C   0  0  0  0  0  0
  -22.1661   -4.2156   21.0983 F   0  0  0  0  0  0
  -21.5627   -3.4542   25.7738 F   0  0  0  0  0  0
  -29.9904  -13.5028   20.4319 N   0  0  0  0  0  0
  -26.2948  -12.9399   20.3304 N   0  0  0  0  0  0
  -25.9321  -11.6541   20.5746 N   0  0  0  0  0  0
  -22.0471  -12.8212   22.0418 N   0  0  0  0  0  0
  -25.4242  -15.1920   20.4156 N   0  0  0  0  0  0
  -31.7815  -14.8208   20.0636 O   0  0  0  0  0  0
  -21.6641   -6.8886   21.4245 O   0  0  0  0  0  0
  -22.3515  -14.5535   20.6719 O   0  0  0  0  0  0
  -24.6290  -31.8559   23.1979 C   0  0  0  0  0  0
  -25.9119  -32.4758   23.8331 C   0  0  1  0  0  0
  -27.2201  -27.2754   20.1431 C   0  0  0  0  0  0
  -25.5931  -33.8560   24.2263 N   0  0  0  0  0  0
  -23.4257  -30.4772   21.5405 C   0  0  2  0  0  0
  -24.8760  -28.9231   20.1106 C   0  0  0  0  0  0
  -22.7493  -29.4597   22.4916 C   0  0  0  0  0  0
  -18.0290  -28.1392   22.8485 C   0  0  0  0  0  0
  -24.1486  -36.7283   23.2643 C   0  0  0  0  0  0
  -25.9697  -30.7732   21.3760 C   0  0  0  0  0  0
  -26.0445  -29.3950   20.7235 C   0  0  0  0  0  0
  -27.2227  -28.5834   20.7283 C   0  0  0  0  0  0
  -26.0397  -26.8696   19.4880 C   0  0  0  0  0  0
  -24.8776  -27.6672   19.4807 C   0  0  0  0  0  0
  -23.6443  -29.8082   20.1572 C   0  0  0  0  0  0
  -25.4113  -36.3070   24.0328 C   0  0  1  0  0  0
  -20.5897  -28.3693   23.1280 C   0  0  2  0  0  0
  -20.6785  -26.9416   22.5411 C   0  0  0  0  0  0
  -19.5755  -26.6388   21.5219 C   0  0  0  0  0  0
  -18.1933  -26.7936   22.1626 C   0  0  0  0  0  0
  -19.1548  -28.8861   23.2873 C   0  0  0  0  0  0
  -18.9469  -30.1468   23.8882 C   0  0  0  0  0  0
  -17.6470  -30.6591   24.0566 C   0  0  0  0  0  0
  -25.9054  -34.9442   23.5092 C   0  0  0  0  0  0
  -16.5359  -29.9089   23.6335 C   0  0  0  0  0  0
  -16.7279  -28.6510   23.0347 C   0  0  0  0  0  0
  -26.4494  -31.6578   25.0714 C   0  0  0  0  0  0
  -25.3713  -31.3723   26.1431 C   0  0  0  0  0  0
  -27.0341  -30.2996   24.6197 C   0  0  0  0  0  0
  -27.6048  -32.4320   25.7490 C   0  0  0  0  0  0
  -27.5573  -37.1802   24.8472 C   0  0  0  0  0  0
  -21.4203  -29.3036   22.3664 N   0  0  0  0  0  0
  -26.4286  -37.3771   23.9413 N   0  0  0  0  0  0
  -24.6933  -31.0541   22.0943 N   0  0  0  0  0  0
  -23.4205  -28.8144   23.3015 O   0  0  0  0  0  0
  -28.3049  -26.3746   20.1675 O   0  0  0  0  0  0
  -26.5628  -34.8922   22.4661 O   0  0  0  0  0  0
  -23.5442  -32.1379   23.7276 O   0  0  0  0  0  0
  -28.3302  -18.8508   21.3260 C   0  0  0  0  0  0
  -29.4742  -18.6062   20.5897 C   0  0  0  0  0  0
  -28.7220  -21.1030   20.8159 C   0  0  0  0  0  0
  -28.7052  -23.7158   20.3240 C   0  0  0  0  0  0
  -26.9307  -24.9428   21.8082 C   0  0  0  0  0  0
  -29.4924  -15.9917   22.2788 C   0  0  0  0  0  0
  -30.2135  -17.2452   20.2326 C   0  0  0  0  0  0
  -28.2304  -25.1092   20.9851 C   0  0  2  0  0  0
  -27.9497  -20.2136   21.4635 N   0  0  0  0  0  0
  -28.4214  -22.5383   20.9871 N   0  0  0  0  0  0
  -29.9380  -15.8802   20.8857 N   0  0  0  0  0  0
  -29.3275  -23.7275   19.2587 O   0  0  0  0  0  0
  -30.0462  -20.2115   19.9853 S   0  0  0  0  0  0
  -31.4719  -12.5717   19.1730 H   0  0  0  0  0  0
  -30.3742  -11.4689   19.9416 H   0  0  0  0  0  0
  -29.7916  -11.7553   17.5143 H   0  0  0  0  0  0
  -29.6411  -13.4813   17.7334 H   0  0  0  0  0  0
  -27.8822  -11.2957   18.8874 H   0  0  0  0  0  0
  -27.3798  -12.5604   17.7964 H   0  0  0  0  0  0
  -27.6544  -14.2623   19.5081 H   0  0  0  0  0  0
  -28.7250  -12.0953   21.3742 H   0  0  0  0  0  0
  -28.3897  -13.7278   21.8399 H   0  0  0  0  0  0
  -25.2769   -9.5685   22.4765 H   0  0  0  0  0  0
  -24.0007   -7.4638   22.7474 H   0  0  0  0  0  0
  -21.0852   -8.8786   19.8954 H   0  0  0  0  0  0
  -22.3715  -10.9680   19.6168 H   0  0  0  0  0  0
  -21.2009   -7.6153   23.9723 H   0  0  0  0  0  0
  -21.1476   -6.0525   25.9080 H   0  0  0  0  0  0
  -22.0597   -2.7615   23.2847 H   0  0  0  0  0  0
  -22.4086  -11.9866   22.4794 H   0  0  0  0  0  0
  -21.1089  -13.1243   22.2628 H   0  0  0  0  0  0
  -24.6609  -15.8492   20.5315 H   0  0  0  0  0  0
  -26.2825  -15.6303   20.1059 H   0  0  0  0  0  0
  -26.7175  -32.5417   23.1061 H   0  0  0  0  0  0
  -25.0086  -33.9707   25.0418 H   0  0  0  0  0  0
  -22.7206  -31.2977   21.3927 H   0  0  0  0  0  0
  -23.3749  -35.9616   23.3316 H   0  0  0  0  0  0
  -24.3570  -36.8895   22.2054 H   0  0  0  0  0  0
  -23.7241  -37.6492   23.6657 H   0  0  0  0  0  0
  -26.1063  -31.5311   20.6037 H   0  0  0  0  0  0
  -26.8488  -30.8252   22.0065 H   0  0  0  0  0  0
  -28.1182  -28.9387   21.2187 H   0  0  0  0  0  0
  -26.0101  -25.9029   19.0052 H   0  0  0  0  0  0
  -23.9848  -27.3023   18.9919 H   0  0  0  0  0  0
  -23.7672  -30.5839   19.4001 H   0  0  0  0  0  0
  -22.7641  -29.2396   19.8526 H   0  0  0  0  0  0
  -25.1292  -36.1910   25.0819 H   0  0  0  0  0  0
  -20.9989  -28.3275   24.1401 H   0  0  0  0  0  0
  -20.5697  -26.2300   23.3613 H   0  0  0  0  0  0
  -21.6650  -26.7444   22.1194 H   0  0  0  0  0  0
  -19.6917  -25.6300   21.1247 H   0  0  0  0  0  0
  -19.6704  -27.3197   20.6754 H   0  0  0  0  0  0
  -17.4209  -26.6690   21.4024 H   0  0  0  0  0  0
  -18.0322  -26.0086   22.9028 H   0  0  0  0  0  0
  -19.7945  -30.7294   24.2241 H   0  0  0  0  0  0
  -17.5021  -31.6272   24.5170 H   0  0  0  0  0  0
  -15.5358  -30.2983   23.7675 H   0  0  0  0  0  0
  -15.8676  -28.0830   22.7055 H   0  0  0  0  0  0
  -24.5900  -30.7059   25.7763 H   0  0  0  0  0  0
  -24.8892  -32.2891   26.4832 H   0  0  0  0  0  0
  -25.8031  -30.8920   27.0217 H   0  0  0  0  0  0
  -26.2913  -29.6741   24.1231 H   0  0  0  0  0  0
  -27.4039  -29.7260   25.4712 H   0  0  0  0  0  0
  -27.8793  -30.4278   23.9428 H   0  0  0  0  0  0
  -27.2651  -33.3629   26.2040 H   0  0  0  0  0  0
  -28.3877  -32.6864   25.0329 H   0  0  0  0  0  0
  -28.0692  -31.8454   26.5432 H   0  0  0  0  0  0
  -28.2602  -38.0087   24.7503 H   0  0  0  0  0  0
  -28.1052  -36.2618   24.6309 H   0  0  0  0  0  0
  -27.2289  -37.1462   25.8876 H   0  0  0  0  0  0
  -20.9385  -29.8744   21.6857 H   0  0  0  0  0  0
  -26.0165  -38.2848   24.1409 H   0  0  0  0  0  0
  -27.7097  -18.1106   21.8109 H   0  0  0  0  0  0
  -27.0164  -24.1453   22.5467 H   0  0  0  0  0  0
  -26.0759  -24.7089   21.1746 H   0  0  0  0  0  0
  -26.6997  -25.8471   22.3718 H   0  0  0  0  0  0
  -28.4042  -16.0047   22.3321 H   0  0  0  0  0  0
  -29.8717  -16.9000   22.7480 H   0  0  0  0  0  0
  -29.8455  -15.1661   22.9002 H   0  0  0  0  0  0
  -31.2831  -17.4266   20.3506 H   0  0  0  0  0  0
  -30.0860  -17.0864   19.1610 H   0  0  0  0  0  0
  -29.0038  -25.2824   21.7343 H   0  0  0  0  0  0
  -27.8295  -22.7088   21.7861 H   0  0  0  0  0  0
  1 25  1  0  0  0
  1 30  2  0  0  0
  1 81  1  0  0  0
  2  3  1  0  0  0
  2 25  1  0  0  0
  2 84  1  0  0  0
  2 85  1  0  0  0
  3  4  1  0  0  0
  3 86  1  0  0  0
  3 87  1  0  0  0
  4  5  1  0  0  0
  4 88  1  0  0  0
  4 89  1  0  0  0
  5  6  1  0  0  0
  5 26  1  0  0  0
  5 90  1  0  0  0
  6 25  1  0  0  0
  6 91  1  0  0  0
  6 92  1  0  0  0
  7  8  2  0  0  0
  7 26  1  0  0  0
  7 29  1  0  0  0
  8  9  1  0  0  0
  8 22  1  0  0  0
  9 10  1  0  0  0
  9 27  2  0  0  0
 10 11  2  0  0  0
 10 15  1  0  0  0
 11 12  1  0  0  0
 11 93  1  0  0  0
 12 13  2  0  0  0
 12 94  1  0  0  0
 13 14  1  0  0  0
 13 31  1  0  0  0
 14 15  2  0  0  0
 14 95  1  0  0  0
 15 96  1  0  0  0
 16 17  2  0  0  0
 16 21  1  0  0  0
 16 31  1  0  0  0
 17 18  1  0  0  0
 17 97  1  0  0  0
 18 19  2  0  0  0
 18 98  1  0  0  0
 19 20  1  0  0  0
 19 24  1  0  0  0
 20 21  2  0  0  0
 20 99  1  0  0  0
 21 23  1  0  0  0
 22 28  1  0  0  0
 22 32  2  0  0  0
 26 27  1  0  0  0
 28100  1  0  0  0
 28101  1  0  0  0
 29102  1  0  0  0
 29103  1  0  0  0
 33 34  1  0  0  0
 33 66  1  0  0  0
 33 70  2  0  0  0
 34 36  1  0  0  0
 34 59  1  0  0  0
 34104  1  0  0  0
 35 44  2  0  0  0
 35 45  1  0  0  0
 35 68  1  0  0  0
 36 56  1  0  0  0
 36105  1  0  0  0
 37 39  1  0  0  0
 37 47  1  0  0  0
 37 66  1  0  0  0
 37106  1  0  0  0
 38 43  2  0  0  0
 38 46  1  0  0  0
 38 47  1  0  0  0
 39 64  1  0  0  0
 39 67  2  0  0  0
 40 52  1  0  0  0
 40 53  2  0  0  0
 40 58  1  0  0  0
 41107  1  0  0  0
 41108  1  0  0  0
 41109  1  0  0  0
 41 48  1  0  0  0
 42 43  1  0  0  0
 42 66  1  0  0  0
 42110  1  0  0  0
 42111  1  0  0  0
 43 44  1  0  0  0
 44112  1  0  0  0
 45 46  2  0  0  0
 45113  1  0  0  0
 46114  1  0  0  0
 47115  1  0  0  0
 47116  1  0  0  0
 48 56  1  0  0  0
 48 65  1  0  0  0
 48117  1  0  0  0
 49 50  1  0  0  0
 49 53  1  0  0  0
 49 64  1  0  0  0
 49118  1  0  0  0
 50 51  1  0  0  0
 50119  1  0  0  0
 50120  1  0  0  0
 51 52  1  0  0  0
 51121  1  0  0  0
 51122  1  0  0  0
 52123  1  0  0  0
 52124  1  0  0  0
 53 54  1  0  0  0
 54 55  2  0  0  0
 54125  1  0  0  0
 55 57  1  0  0  0
 55126  1  0  0  0
 56 69  2  0  0  0
 57 58  2  0  0  0
 57127  1  0  0  0
 58128  1  0  0  0
 59 60  1  0  0  0
 59 61  1  0  0  0
 59 62  1  0  0  0
 60129  1  0  0  0
 60130  1  0  0  0
 60131  1  0  0  0
 61132  1  0  0  0
 61133  1  0  0  0
 61134  1  0  0  0
 62135  1  0  0  0
 62136  1  0  0  0
 62137  1  0  0  0
 63 65  1  0  0  0
 63138  1  0  0  0
 63139  1  0  0  0
 63140  1  0  0  0
 64141  1  0  0  0
 65142  1  0  0  0
 68 78  1  0  0  0
 71 72  2  0  0  0
 71 79  1  0  0  0
 71143  1  0  0  0
 72 77  1  0  0  0
 72 83  1  0  0  0
 73 79  2  0  0  0
 73 80  1  0  0  0
 73 83  1  0  0  0
 74 78  1  0  0  0
 74 80  1  0  0  0
 74 82  2  0  0  0
 75144  1  0  0  0
 75145  1  0  0  0
 75146  1  0  0  0
 75 78  1  0  0  0
 76 81  1  0  0  0
 76147  1  0  0  0
 76148  1  0  0  0
 76149  1  0  0  0
 77 81  1  0  0  0
 77150  1  0  0  0
 77151  1  0  0  0
 78152  1  0  0  0
 80153  1  0  0  0
M  ISO  4   1 100  68 101  78 101  81 100
M  END
> <chiral flag>
0

> <version>
0

> <s_m_source_file>
/data/baiqing/PycharmProjects/Reinvent-master-3.2/result/LINK_invent/BTK/process_docking_weight1_custom_product_contain_oxygen_bond_distance_aromatic_linkinvent_7_9_3/rearranged_h_0189.sdf

> <i_m_source_file_index>
68

> <r_mmod_Potential_Energy-OPLS-2005>
220.708160400391

> <r_mmod_Stretch_Energy-OPLS-2005>
120.156242370605

> <r_mmod_Bend_Energy-OPLS-2005>
200.893173217773

> <r_mmod_Torsional_Energy-OPLS-2005>
287.880310058594

> <r_mmod_Improper_Torsional_Energy-OPLS-2005>
8.57572555541992

> <r_mmod_Van_der_Waal_Energy-OPLS-2005>
122.29906463623

> <r_mmod_Electrostatic_Energy-OPLS-2005>
-362.773620605469

> <r_mmod_Solvation_Energy-OPLS-2005>
-229.405654907227

> <b_mmod_Minimization_Converged-OPLS-2005>
0

> <r_mmod_RMS_Derivative-OPLS-2005>
1.14358997344971

$$$$
68
                    3D
 Structure written by MMmdl.
164173  0  0  1  0            999 V2000
  -29.5620  -16.1305   20.1157 C   0  0  0  0  0  0
  -30.2631  -13.4919   19.4864 C   0  0  0  0  0  0
  -29.5181  -12.7529   18.3287 C   0  0  0  0  0  0
  -28.1399  -12.2613   18.7942 C   0  0  0  0  0  0
  -27.5002  -13.2941   19.7452 C   0  0  2  0  0  0
  -28.4211  -13.7987   20.8582 C   0  0  0  0  0  0
  -25.1961  -13.8119   20.5715 C   0  0  0  0  0  0
  -24.1461  -13.0288   20.9373 C   0  0  0  0  0  0
  -24.6190  -11.6813   20.8791 C   0  0  0  0  0  0
  -23.8970  -10.4186   21.0448 C   0  0  0  0  0  0
  -24.3556   -9.4118   21.9222 C   0  0  0  0  0  0
  -23.6256   -8.2139   22.0750 C   0  0  0  0  0  0
  -22.4246   -8.0187   21.3521 C   0  0  0  0  0  0
  -21.9856   -9.0151   20.4633 C   0  0  0  0  0  0
  -22.7153  -10.2044   20.3081 C   0  0  0  0  0  0
  -21.6813   -6.0698   22.5293 C   0  0  0  0  0  0
  -21.3987   -6.5611   23.8226 C   0  0  0  0  0  0
  -21.3653   -5.6768   24.9189 C   0  0  0  0  0  0
  -21.6042   -4.3032   24.7239 C   0  0  0  0  0  0
  -21.8819   -3.8121   23.4360 C   0  0  0  0  0  0
  -21.9181   -4.6934   22.3416 C   0  0  0  0  0  0
  -22.7529  -13.5067   21.2050 C   0  0  0  0  0  0
  -22.1650   -4.2114   21.0995 F   0  0  0  0  0  0
  -21.5640   -3.4533   25.7763 F   0  0  0  0  0  0
  -29.3917  -14.6285   20.1323 N   0  0  0  0  0  0
  -26.2179  -12.9352   20.2781 N   0  0  0  0  0  0
  -25.9020  -11.6461   20.5435 N   0  0  0  0  0  0
  -22.0181  -12.8069   22.0603 N   0  0  0  0  0  0
  -25.3566  -15.1876   20.4191 N   0  0  0  0  0  0
  -30.8298  -16.1599   20.0184 O   0  0  0  0  0  0
  -21.6585   -6.8818   21.4244 O   0  0  0  0  0  0
  -22.3252  -14.5391   20.6892 O   0  0  0  0  0  0
  -24.1136  -31.9156   22.2960 C   0  0  0  0  0  0
  -25.3154  -32.6188   23.1202 C   0  0  1  0  0  0
  -28.1134  -27.8360   19.8469 C   0  0  0  0  0  0
  -24.9090  -34.0764   23.2888 N   0  0  0  0  0  0
  -23.5030  -29.4407   21.7291 C   0  0  2  0  0  0
  -25.9062  -27.5731   20.8705 C   0  0  0  0  0  0
  -22.5595  -29.3607   22.8267 C   0  0  0  0  0  0
  -17.9507  -28.1500   22.8416 C   0  0  0  0  0  0
  -24.0598  -36.9478   23.2890 C   0  0  0  0  0  0
  -25.4352  -30.5207   20.3955 C   0  0  0  0  0  0
  -26.1460  -28.9839   20.0676 C   0  0  0  0  0  0
  -27.4503  -29.0303   19.6543 C   0  0  0  0  0  0
  -27.3947  -26.7038   19.4414 C   0  0  0  0  0  0
  -26.4840  -26.4807   20.4146 C   0  0  0  0  0  0
  -24.2579  -27.7604   22.0471 C   0  0  0  0  0  0
  -25.3436  -36.3936   23.9110 C   0  0  1  0  0  0
  -20.4572  -28.3246   23.2108 C   0  0  2  0  0  0
  -20.5604  -26.9084   22.6001 C   0  0  0  0  0  0
  -19.5088  -26.6382   21.5322 C   0  0  0  0  0  0
  -18.1164  -26.8113   22.1409 C   0  0  0  0  0  0
  -19.0624  -28.8787   23.3144 C   0  0  0  0  0  0
  -18.8841  -30.1435   23.9097 C   0  0  0  0  0  0
  -17.5947  -30.6735   24.0645 C   0  0  0  0  0  0
  -25.7044  -35.1385   23.1181 C   0  0  0  0  0  0
  -16.4823  -29.9349   23.6261 C   0  0  0  0  0  0
  -16.6611  -28.6819   23.0120 C   0  0  0  0  0  0
  -26.9107  -31.0638   25.4808 C   0  0  0  0  0  0
  -26.2074  -30.8159   26.9425 C   0  0  0  0  0  0
  -27.5387  -29.6517   25.2977 C   0  0  0  0  0  0
  -28.2017  -31.7574   26.2094 C   0  0  0  0  0  0
  -27.5155  -37.1386   24.8251 C   0  0  0  0  0  0
  -21.2911  -29.2487   22.4839 N   0  0  0  0  0  0
  -26.3990  -37.4344   23.9297 N   0  0  0  0  0  0
  -24.2946  -30.7682   21.4681 N   0  0  0  0  0  0
  -23.0054  -29.0336   23.9125 O   0  0  0  0  0  0
  -28.4183  -27.7258   21.1931 O   0  0  0  0  0  0
  -26.6771  -35.1049   22.3671 O   0  0  0  0  0  0
  -23.0302  -32.2090   22.8223 O   0  0  0  0  0  0
  -27.2720  -33.0276   24.2693 C   0  0  0  0  0  0
  -27.3826  -31.5710   23.2485 C   0  0  0  0  0  0
  -25.9638  -33.1120   25.2899 C   0  0  0  0  0  0
  -25.2949  -21.3361   19.5756 C   0  0  0  0  0  0
  -26.1399  -30.4867   23.3296 C   0  0  0  0  0  0
  -26.7171  -21.0033   19.8326 C   0  0  0  0  0  0
  -25.0271  -24.1124   19.6977 C   0  0  0  0  0  0
  -24.3389  -20.2227   19.2298 C   0  0  0  0  0  0
  -23.8790  -28.3779   18.4721 C   0  0  0  0  0  0
  -28.0552  -19.3758   19.8814 C   0  0  0  0  0  0
  -27.7135  -28.6721   22.2412 C   0  0  0  0  0  0
  -25.9736  -29.1528   22.3789 C   0  0  2  0  0  0
  -24.0191  -27.7144   19.8629 C   0  0  2  0  0  0
  -24.5639  -22.7504   19.5503 N   0  0  0  0  0  0
  -24.2011  -25.7549   19.6851 N   0  0  0  0  0  0
  -28.4816  -17.4488   20.0568 N   0  0  0  0  0  0
  -24.5661  -31.2441   24.9502 S   0  0  0  0  0  0
  -26.8551  -23.0807   19.9469 S   0  0  0  0  0  0
  -31.1816  -13.9231   19.0819 H   0  0  0  0  0  0
  -30.6034  -12.7702   20.2305 H   0  0  0  0  0  0
  -30.1143  -11.9217   17.9439 H   0  0  0  0  0  0
  -29.3871  -13.4434   17.4952 H   0  0  0  0  0  0
  -28.2744  -11.3219   19.3308 H   0  0  0  0  0  0
  -27.4961  -12.0516   17.9365 H   0  0  0  0  0  0
  -27.2878  -14.1358   19.0805 H   0  0  0  0  0  0
  -28.8513  -12.9950   21.4618 H   0  0  0  0  0  0
  -27.8788  -14.4532   21.5421 H   0  0  0  0  0  0
  -25.2684   -9.5601   22.4811 H   0  0  0  0  0  0
  -23.9943   -7.4519   22.7461 H   0  0  0  0  0  0
  -21.0785   -8.8651   19.8954 H   0  0  0  0  0  0
  -22.3582  -10.9588   19.6205 H   0  0  0  0  0  0
  -21.1956   -7.6117   23.9719 H   0  0  0  0  0  0
  -21.1486   -6.0505   25.9093 H   0  0  0  0  0  0
  -22.0611   -2.7581   23.2879 H   0  0  0  0  0  0
  -22.3745  -11.9722   22.5024 H   0  0  0  0  0  0
  -21.0789  -13.1100   22.2770 H   0  0  0  0  0  0
  -24.5719  -15.8205   20.5395 H   0  0  0  0  0  0
  -26.1413  -15.6105   19.9459 H   0  0  0  0  0  0
  -25.8594  -32.8073   22.1833 H   0  0  0  0  0  0
  -24.0783  -34.2051   23.8468 H   0  0  0  0  0  0
  -22.8608  -29.5191   20.8559 H   0  0  0  0  0  0
  -23.2438  -36.2236   23.3207 H   0  0  0  0  0  0
  -24.2042  -37.2322   22.2458 H   0  0  0  0  0  0
  -23.7111  -37.8300   23.8260 H   0  0  0  0  0  0
  -25.0366  -30.8877   19.4490 H   0  0  0  0  0  0
  -26.2416  -31.2212   20.6062 H   0  0  0  0  0  0
  -27.9687  -29.9760   19.5526 H   0  0  0  0  0  0
  -27.9910  -25.8317   19.2060 H   0  0  0  0  0  0
  -26.3654  -25.5565   20.9488 H   0  0  0  0  0  0
  -23.5628  -26.9234   21.9514 H   0  0  0  0  0  0
  -24.4276  -27.4369   23.0786 H   0  0  0  0  0  0
  -25.1194  -36.1095   24.9396 H   0  0  0  0  0  0
  -20.7746  -28.2338   24.2531 H   0  0  0  0  0  0
  -20.3987  -26.1878   23.4015 H   0  0  0  0  0  0
  -21.5466  -26.6795   22.2192 H   0  0  0  0  0  0
  -19.6182  -25.6296   21.1312 H   0  0  0  0  0  0
  -19.6452  -27.3298   20.6993 H   0  0  0  0  0  0
  -17.3639  -26.7273   21.3562 H   0  0  0  0  0  0
  -17.9176  -26.0139   22.8585 H   0  0  0  0  0  0
  -19.7352  -30.7094   24.2621 H   0  0  0  0  0  0
  -17.4563  -31.6387   24.5326 H   0  0  0  0  0  0
  -15.4869  -30.3377   23.7529 H   0  0  0  0  0  0
  -15.7989  -28.1343   22.6587 H   0  0  0  0  0  0
  -25.4938  -29.9854   26.9439 H   0  0  0  0  0  0
  -25.7109  -31.6856   27.3753 H   0  0  0  0  0  0
  -26.8895  -30.4762   27.7223 H   0  0  0  0  0  0
  -26.8028  -28.8640   25.1453 H   0  0  0  0  0  0
  -28.0508  -29.2963   26.1902 H   0  0  0  0  0  0
  -28.3388  -29.6355   24.5648 H   0  0  0  0  0  0
  -27.9904  -32.6916   26.7318 H   0  0  0  0  0  0
  -29.0353  -31.9328   25.5252 H   0  0  0  0  0  0
  -28.6898  -31.1463   26.9698 H   0  0  0  0  0  0
  -28.2497  -37.9454   24.7888 H   0  0  0  0  0  0
  -28.0260  -36.2159   24.5483 H   0  0  0  0  0  0
  -27.1796  -37.0474   25.8592 H   0  0  0  0  0  0
  -21.0060  -29.5085   21.5502 H   0  0  0  0  0  0
  -26.0130  -38.3318   24.2098 H   0  0  0  0  0  0
  -28.0501  -33.7745   24.2216 H   0  0  0  0  0  0
  -28.2180  -31.5110   22.5675 H   0  0  0  0  0  0
  -25.7198  -33.8727   26.0195 H   0  0  0  0  0  0
  -24.7761  -19.2385   19.3919 H   0  0  0  0  0  0
  -24.0340  -20.2758   18.1828 H   0  0  0  0  0  0
  -23.4297  -20.2607   19.8290 H   0  0  0  0  0  0
  -23.5509  -29.4109   18.5676 H   0  0  0  0  0  0
  -23.1155  -27.8711   17.8828 H   0  0  0  0  0  0
  -24.8071  -28.3555   17.9005 H   0  0  0  0  0  0
  -28.8294  -19.7760   20.5356 H   0  0  0  0  0  0
  -28.5164  -19.5076   18.9014 H   0  0  0  0  0  0
  -27.9856  -28.1676   23.1640 H   0  0  0  0  0  0
  -28.3621  -29.5359   22.1843 H   0  0  0  0  0  0
  -25.9285  -28.5601   23.2909 H   0  0  0  0  0  0
  -22.9522  -27.7048   20.1240 H   0  0  0  0  0  0
  -23.2259  -25.4809   19.6025 H   0  0  0  0  0  0
  -27.5742  -17.0122   20.1067 H   0  0  0  0  0  0
  1 25  1  0  0  0
  1 30  2  0  0  0
  1 86  1  0  0  0
  2  3  1  0  0  0
  2 25  1  0  0  0
  2 89  1  0  0  0
  2 90  1  0  0  0
  3  4  1  0  0  0
  3 91  1  0  0  0
  3 92  1  0  0  0
  4  5  1  0  0  0
  4 93  1  0  0  0
  4 94  1  0  0  0
  5  6  1  0  0  0
  5 26  1  0  0  0
  5 95  1  0  0  0
  6 25  1  0  0  0
  6 96  1  0  0  0
  6 97  1  0  0  0
  7  8  2  0  0  0
  7 26  1  0  0  0
  7 29  1  0  0  0
  8  9  1  0  0  0
  8 22  1  0  0  0
  9 10  1  0  0  0
  9 27  2  0  0  0
 10 11  2  0  0  0
 10 15  1  0  0  0
 11 12  1  0  0  0
 11 98  1  0  0  0
 12 13  2  0  0  0
 12 99  1  0  0  0
 13 14  1  0  0  0
 13 31  1  0  0  0
 14 15  2  0  0  0
 14100  1  0  0  0
 15101  1  0  0  0
 16 17  2  0  0  0
 16 21  1  0  0  0
 16 31  1  0  0  0
 17 18  1  0  0  0
 17102  1  0  0  0
 18 19  2  0  0  0
 18103  1  0  0  0
 19 20  1  0  0  0
 19 24  1  0  0  0
 20 21  2  0  0  0
 20104  1  0  0  0
 21 23  1  0  0  0
 22 28  1  0  0  0
 22 32  2  0  0  0
 26 27  1  0  0  0
 28105  1  0  0  0
 28106  1  0  0  0
 29107  1  0  0  0
 29108  1  0  0  0
 33 34  1  0  0  0
 33 66  1  0  0  0
 33 70  2  0  0  0
 34 36  1  0  0  0
 34 59  1  0  0  0
 34109  1  0  0  0
 35 44  2  0  0  0
 35 45  1  0  0  0
 35 68  1  0  0  0
 36 56  1  0  0  0
 36110  1  0  0  0
 37 39  1  0  0  0
 37 47  1  0  0  0
 37 66  1  0  0  0
 37111  1  0  0  0
 38 43  2  0  0  0
 38 46  1  0  0  0
 38 47  1  0  0  0
 39 64  1  0  0  0
 39 67  2  0  0  0
 40 52  1  0  0  0
 40 53  2  0  0  0
 40 58  1  0  0  0
 41112  1  0  0  0
 41113  1  0  0  0
 41114  1  0  0  0
 41 48  1  0  0  0
 42 43  1  0  0  0
 42 66  1  0  0  0
 42115  1  0  0  0
 42116  1  0  0  0
 43 44  1  0  0  0
 44117  1  0  0  0
 45 46  2  0  0  0
 45118  1  0  0  0
 46119  1  0  0  0
 47120  1  0  0  0
 47121  1  0  0  0
 48 56  1  0  0  0
 48 65  1  0  0  0
 48122  1  0  0  0
 49 50  1  0  0  0
 49 53  1  0  0  0
 49 64  1  0  0  0
 49123  1  0  0  0
 50 51  1  0  0  0
 50124  1  0  0  0
 50125  1  0  0  0
 51 52  1  0  0  0
 51126  1  0  0  0
 51127  1  0  0  0
 52128  1  0  0  0
 52129  1  0  0  0
 53 54  1  0  0  0
 54 55  2  0  0  0
 54130  1  0  0  0
 55 57  1  0  0  0
 55131  1  0  0  0
 56 69  2  0  0  0
 57 58  2  0  0  0
 57132  1  0  0  0
 58133  1  0  0  0
 59 60  1  0  0  0
 59 61  1  0  0  0
 59 62  1  0  0  0
 60134  1  0  0  0
 60135  1  0  0  0
 60136  1  0  0  0
 61137  1  0  0  0
 61138  1  0  0  0
 61139  1  0  0  0
 62140  1  0  0  0
 62141  1  0  0  0
 62142  1  0  0  0
 63 65  1  0  0  0
 63143  1  0  0  0
 63144  1  0  0  0
 63145  1  0  0  0
 64146  1  0  0  0
 65147  1  0  0  0
 68 81  1  0  0  0
 71 72  1  0  0  0
 71 73  2  0  0  0
 71148  1  0  0  0
 72 75  2  0  0  0
 72149  1  0  0  0
 73 87  1  0  0  0
 73150  1  0  0  0
 74 76  2  0  0  0
 74 78  1  0  0  0
 74 84  1  0  0  0
 75 82  1  0  0  0
 75 87  1  0  0  0
 76 80  1  0  0  0
 76 88  1  0  0  0
 77 84  2  0  0  0
 77 85  1  0  0  0
 77 88  1  0  0  0
 78151  1  0  0  0
 78152  1  0  0  0
 78153  1  0  0  0
 79154  1  0  0  0
 79155  1  0  0  0
 79156  1  0  0  0
 79 83  1  0  0  0
 80 86  1  0  0  0
 80157  1  0  0  0
 80158  1  0  0  0
 81159  1  0  0  0
 81160  1  0  0  0
 81 82  1  0  0  0
 82 83  1  0  0  0
 82161  1  0  0  0
 83 85  1  0  0  0
 83162  1  0  0  0
 85163  1  0  0  0
 86164  1  0  0  0
M  ISO  4   1 100  68 101  81 101  86 100
M  END
> <chiral flag>
0

> <version>
0

> <s_m_source_file>
/data/baiqing/PycharmProjects/Reinvent-master-3.2/result/LINK_invent/BTK/process_docking_weight1_custom_product_contain_oxygen_bond_distance_aromatic_linkinvent_7_9_3/rearranged_h_0189.sdf

> <i_m_source_file_index>
69

> <r_mmod_Potential_Energy-OPLS-2005>
23713.36328125

> <r_mmod_Stretch_Energy-OPLS-2005>
12479.6162109375

> <r_mmod_Bend_Energy-OPLS-2005>
1675.35290527344

> <r_mmod_Torsional_Energy-OPLS-2005>
534.887329101562

> <r_mmod_Improper_Torsional_Energy-OPLS-2005>
78.7820510864258

> <r_mmod_Van_der_Waal_Energy-OPLS-2005>
4567.16845703125

> <r_mmod_Electrostatic_Energy-OPLS-2005>
-400.392242431641

> <r_mmod_Solvation_Energy-OPLS-2005>
-234.293182373047

> <b_mmod_Minimization_Converged-OPLS-2005>
0

> <r_mmod_RMS_Derivative-OPLS-2005>
9.31952953338623

$$$$
69
                    3D
 Structure written by MMmdl.
150158  0  0  1  0            999 V2000
  -30.7318  -14.4771   20.5378 C   0  0  0  0  0  0
  -30.4072  -12.3018   19.4390 C   0  0  0  0  0  0
  -29.4924  -12.4963   18.2133 C   0  0  0  0  0  0
  -28.0170  -12.3500   18.6267 C   0  0  0  0  0  0
  -27.6555  -13.2115   19.8673 C   0  0  2  0  0  0
  -28.6977  -13.0450   20.9985 C   0  0  0  0  0  0
  -25.2561  -13.8172   20.5668 C   0  0  0  0  0  0
  -24.1820  -13.0449   20.9180 C   0  0  0  0  0  0
  -24.6378  -11.6917   20.8733 C   0  0  0  0  0  0
  -23.9063  -10.4298   21.0399 C   0  0  0  0  0  0
  -24.3624   -9.4212   21.9174 C   0  0  0  0  0  0
  -23.6294   -8.2247   22.0737 C   0  0  0  0  0  0
  -22.4276   -8.0283   21.3529 C   0  0  0  0  0  0
  -21.9917   -9.0261   20.4634 C   0  0  0  0  0  0
  -22.7242  -10.2140   20.3043 C   0  0  0  0  0  0
  -21.6860   -6.0734   22.5277 C   0  0  0  0  0  0
  -21.4020   -6.5634   23.8210 C   0  0  0  0  0  0
  -21.3655   -5.6790   24.9171 C   0  0  0  0  0  0
  -21.6045   -4.3053   24.7229 C   0  0  0  0  0  0
  -21.8824   -3.8142   23.4347 C   0  0  0  0  0  0
  -21.9200   -4.6959   22.3402 C   0  0  0  0  0  0
  -22.7842  -13.5230   21.1871 C   0  0  0  0  0  0
  -22.1668   -4.2137   21.0982 F   0  0  0  0  0  0
  -21.5636   -3.4539   25.7744 F   0  0  0  0  0  0
  -30.0287  -13.3172   20.4359 N   0  0  0  0  0  0
  -26.2987  -12.9350   20.3332 N   0  0  0  0  0  0
  -25.9305  -11.6506   20.5760 N   0  0  0  0  0  0
  -22.0500  -12.8193   22.0422 N   0  0  0  0  0  0
  -25.4311  -15.1890   20.4052 N   0  0  0  0  0  0
  -31.8785  -14.5946   20.1013 O   0  0  0  0  0  0
  -21.6639   -6.8875   21.4236 O   0  0  0  0  0  0
  -22.3512  -14.5537   20.6732 O   0  0  0  0  0  0
  -24.6173  -31.8682   23.2092 C   0  0  0  0  0  0
  -25.9055  -32.4821   23.8410 C   0  0  1  0  0  0
  -27.2234  -27.4025   20.1119 C   0  0  0  0  0  0
  -25.5881  -33.8622   24.2319 N   0  0  0  0  0  0
  -23.4076  -30.4925   21.5505 C   0  0  2  0  0  0
  -24.8550  -28.9583   20.1164 C   0  0  0  0  0  0
  -22.7422  -29.4695   22.4998 C   0  0  0  0  0  0
  -18.0291  -28.1384   22.8504 C   0  0  0  0  0  0
  -24.1474  -36.7315   23.2646 C   0  0  0  0  0  0
  -25.9423  -30.8249   21.3712 C   0  0  0  0  0  0
  -26.0190  -29.4594   20.7140 C   0  0  0  0  0  0
  -27.2105  -28.6911   20.7045 C   0  0  0  0  0  0
  -26.0447  -26.9368   19.4874 C   0  0  0  0  0  0
  -24.8635  -27.6976   19.4995 C   0  0  0  0  0  0
  -23.6178  -29.8252   20.1657 C   0  0  0  0  0  0
  -25.4096  -36.3114   24.0343 C   0  0  1  0  0  0
  -20.5868  -28.3700   23.1324 C   0  0  2  0  0  0
  -20.6785  -26.9431   22.5434 C   0  0  0  0  0  0
  -19.5773  -26.6347   21.5244 C   0  0  0  0  0  0
  -18.1947  -26.7922   22.1647 C   0  0  0  0  0  0
  -19.1532  -28.8856   23.2907 C   0  0  0  0  0  0
  -18.9446  -30.1466   23.8892 C   0  0  0  0  0  0
  -17.6437  -30.6598   24.0539 C   0  0  0  0  0  0
  -25.9029  -34.9481   23.5125 C   0  0  0  0  0  0
  -16.5338  -29.9084   23.6317 C   0  0  0  0  0  0
  -16.7278  -28.6496   23.0358 C   0  0  0  0  0  0
  -26.4450  -31.6633   25.0774 C   0  0  0  0  0  0
  -25.3677  -31.3788   26.1498 C   0  0  0  0  0  0
  -27.0298  -30.3061   24.6229 C   0  0  0  0  0  0
  -27.6016  -32.4381   25.7518 C   0  0  0  0  0  0
  -27.5575  -37.1814   24.8468 C   0  0  0  0  0  0
  -21.4139  -29.3086   22.3751 N   0  0  0  0  0  0
  -26.4288  -37.3792   23.9407 N   0  0  0  0  0  0
  -24.6737  -31.0758   22.1015 N   0  0  0  0  0  0
  -23.4179  -28.8238   23.3062 O   0  0  0  0  0  0
  -28.3468  -26.5957   20.1468 O   0  0  0  0  0  0
  -26.5611  -34.8933   22.4699 O   0  0  0  0  0  0
  -23.5354  -32.1461   23.7451 O   0  0  0  0  0  0
  -28.4130  -18.0579   21.5593 C   0  0  0  0  0  0
  -29.6797  -18.0771   21.0283 C   0  0  0  0  0  0
  -29.1599  -20.3145   20.8902 C   0  0  0  0  0  0
  -28.7501  -22.7757   20.9869 C   0  0  0  0  0  0
  -30.6394  -16.9214   20.8531 C   0  0  0  0  0  0
  -28.1225  -25.2919   20.7543 C   0  0  0  0  0  0
  -29.0909  -24.1456   20.3298 C   0  0  2  0  0  0
  -30.0778  -19.3704   20.6332 N   0  0  0  0  0  0
  -29.4073  -21.6783   20.5492 N   0  0  0  0  0  0
  -30.0675  -15.5659   20.9653 N   0  0  0  0  0  0
  -27.9225  -22.7266   21.9016 O   0  0  0  0  0  0
  -29.0398  -23.9926   19.0022 F   0  0  0  0  0  0
  -27.6871  -19.6491   21.6005 S   0  0  0  0  0  0
  -31.4566  -12.3644   19.1455 H   0  0  0  0  0  0
  -30.2780  -11.3023   19.8569 H   0  0  0  0  0  0
  -29.7377  -11.7710   17.4365 H   0  0  0  0  0  0
  -29.6589  -13.4823   17.7761 H   0  0  0  0  0  0
  -27.8433  -11.2952   18.8449 H   0  0  0  0  0  0
  -27.3615  -12.5967   17.7906 H   0  0  0  0  0  0
  -27.6872  -14.2508   19.5411 H   0  0  0  0  0  0
  -28.6664  -12.0321   21.4027 H   0  0  0  0  0  0
  -28.4650  -13.7059   21.8353 H   0  0  0  0  0  0
  -25.2777   -9.5680   22.4736 H   0  0  0  0  0  0
  -24.0015   -7.4627   22.7441 H   0  0  0  0  0  0
  -21.0852   -8.8772   19.8921 H   0  0  0  0  0  0
  -22.3706  -10.9677   19.6140 H   0  0  0  0  0  0
  -21.2001   -7.6144   23.9708 H   0  0  0  0  0  0
  -21.1476   -6.0519   25.9074 H   0  0  0  0  0  0
  -22.0603   -2.7603   23.2856 H   0  0  0  0  0  0
  -22.4159  -11.9850   22.4776 H   0  0  0  0  0  0
  -21.1104  -13.1162   22.2653 H   0  0  0  0  0  0
  -24.6653  -15.8468   20.4954 H   0  0  0  0  0  0
  -26.2750  -15.6151   20.0447 H   0  0  0  0  0  0
  -26.7142  -32.5514   23.1189 H   0  0  0  0  0  0
  -24.9968  -33.9785   25.0420 H   0  0  0  0  0  0
  -22.7002  -31.3133   21.4084 H   0  0  0  0  0  0
  -23.3728  -35.9657   23.3328 H   0  0  0  0  0  0
  -24.3582  -36.8903   22.2058 H   0  0  0  0  0  0
  -23.7226  -37.6527   23.6647 H   0  0  0  0  0  0
  -26.0674  -31.5933   20.6071 H   0  0  0  0  0  0
  -26.8250  -30.8693   21.9980 H   0  0  0  0  0  0
  -28.1074  -29.0707   21.1734 H   0  0  0  0  0  0
  -26.0272  -25.9717   19.0000 H   0  0  0  0  0  0
  -23.9681  -27.3085   19.0352 H   0  0  0  0  0  0
  -23.7284  -30.5990   19.4060 H   0  0  0  0  0  0
  -22.7420  -29.2435   19.8710 H   0  0  0  0  0  0
  -25.1272  -36.1987   25.0839 H   0  0  0  0  0  0
  -20.9970  -28.3263   24.1438 H   0  0  0  0  0  0
  -20.5712  -26.2310   23.3637 H   0  0  0  0  0  0
  -21.6670  -26.7509   22.1224 H   0  0  0  0  0  0
  -19.6960  -25.6233   21.1376 H   0  0  0  0  0  0
  -19.6707  -27.3071   20.6702 H   0  0  0  0  0  0
  -17.4237  -26.6679   21.4035 H   0  0  0  0  0  0
  -18.0333  -26.0097   22.9063 H   0  0  0  0  0  0
  -19.7919  -30.7295   24.2235 H   0  0  0  0  0  0
  -17.4984  -31.6301   24.5102 H   0  0  0  0  0  0
  -15.5334  -30.2978   23.7620 H   0  0  0  0  0  0
  -15.8679  -28.0809   22.7083 H   0  0  0  0  0  0
  -24.5819  -30.7180   25.7822 H   0  0  0  0  0  0
  -24.8903  -32.2969   26.4939 H   0  0  0  0  0  0
  -25.7984  -30.8942   27.0266 H   0  0  0  0  0  0
  -26.2899  -29.6827   24.1196 H   0  0  0  0  0  0
  -27.3926  -29.7316   25.4761 H   0  0  0  0  0  0
  -27.8789  -30.4354   23.9513 H   0  0  0  0  0  0
  -27.2618  -33.3660   26.2129 H   0  0  0  0  0  0
  -28.3783  -32.6983   25.0318 H   0  0  0  0  0  0
  -28.0734  -31.8500   26.5394 H   0  0  0  0  0  0
  -28.2605  -38.0097   24.7495 H   0  0  0  0  0  0
  -28.1055  -36.2632   24.6308 H   0  0  0  0  0  0
  -27.2314  -37.1485   25.8879 H   0  0  0  0  0  0
  -20.9289  -29.8876   21.7035 H   0  0  0  0  0  0
  -26.0181  -38.2876   24.1390 H   0  0  0  0  0  0
  -27.8614  -17.2117   21.9457 H   0  0  0  0  0  0
  -31.4511  -17.0074   21.5787 H   0  0  0  0  0  0
  -31.1116  -17.0218   19.8722 H   0  0  0  0  0  0
  -27.1100  -24.9242   20.5898 H   0  0  0  0  0  0
  -28.2006  -25.4352   21.8331 H   0  0  0  0  0  0
  -30.1179  -24.4110   20.5774 H   0  0  0  0  0  0
  -30.1478  -21.8424   19.8829 H   0  0  0  0  0  0
  -29.1184  -15.4657   21.2852 H   0  0  0  0  0  0
  1 25  1  0  0  0
  1 30  2  0  0  0
  1 80  1  0  0  0
  2  3  1  0  0  0
  2 25  1  0  0  0
  2 84  1  0  0  0
  2 85  1  0  0  0
  3  4  1  0  0  0
  3 86  1  0  0  0
  3 87  1  0  0  0
  4  5  1  0  0  0
  4 88  1  0  0  0
  4 89  1  0  0  0
  5  6  1  0  0  0
  5 26  1  0  0  0
  5 90  1  0  0  0
  6 25  1  0  0  0
  6 91  1  0  0  0
  6 92  1  0  0  0
  7  8  2  0  0  0
  7 26  1  0  0  0
  7 29  1  0  0  0
  8  9  1  0  0  0
  8 22  1  0  0  0
  9 10  1  0  0  0
  9 27  2  0  0  0
 10 11  2  0  0  0
 10 15  1  0  0  0
 11 12  1  0  0  0
 11 93  1  0  0  0
 12 13  2  0  0  0
 12 94  1  0  0  0
 13 14  1  0  0  0
 13 31  1  0  0  0
 14 15  2  0  0  0
 14 95  1  0  0  0
 15 96  1  0  0  0
 16 17  2  0  0  0
 16 21  1  0  0  0
 16 31  1  0  0  0
 17 18  1  0  0  0
 17 97  1  0  0  0
 18 19  2  0  0  0
 18 98  1  0  0  0
 19 20  1  0  0  0
 19 24  1  0  0  0
 20 21  2  0  0  0
 20 99  1  0  0  0
 21 23  1  0  0  0
 22 28  1  0  0  0
 22 32  2  0  0  0
 26 27  1  0  0  0
 28100  1  0  0  0
 28101  1  0  0  0
 29102  1  0  0  0
 29103  1  0  0  0
 33 34  1  0  0  0
 33 66  1  0  0  0
 33 70  2  0  0  0
 34 36  1  0  0  0
 34 59  1  0  0  0
 34104  1  0  0  0
 35 44  2  0  0  0
 35 45  1  0  0  0
 35 68  1  0  0  0
 36 56  1  0  0  0
 36105  1  0  0  0
 37 39  1  0  0  0
 37 47  1  0  0  0
 37 66  1  0  0  0
 37106  1  0  0  0
 38 43  2  0  0  0
 38 46  1  0  0  0
 38 47  1  0  0  0
 39 64  1  0  0  0
 39 67  2  0  0  0
 40 52  1  0  0  0
 40 53  2  0  0  0
 40 58  1  0  0  0
 41107  1  0  0  0
 41108  1  0  0  0
 41109  1  0  0  0
 41 48  1  0  0  0
 42 43  1  0  0  0
 42 66  1  0  0  0
 42110  1  0  0  0
 42111  1  0  0  0
 43 44  1  0  0  0
 44112  1  0  0  0
 45 46  2  0  0  0
 45113  1  0  0  0
 46114  1  0  0  0
 47115  1  0  0  0
 47116  1  0  0  0
 48 56  1  0  0  0
 48 65  1  0  0  0
 48117  1  0  0  0
 49 50  1  0  0  0
 49 53  1  0  0  0
 49 64  1  0  0  0
 49118  1  0  0  0
 50 51  1  0  0  0
 50119  1  0  0  0
 50120  1  0  0  0
 51 52  1  0  0  0
 51121  1  0  0  0
 51122  1  0  0  0
 52123  1  0  0  0
 52124  1  0  0  0
 53 54  1  0  0  0
 54 55  2  0  0  0
 54125  1  0  0  0
 55 57  1  0  0  0
 55126  1  0  0  0
 56 69  2  0  0  0
 57 58  2  0  0  0
 57127  1  0  0  0
 58128  1  0  0  0
 59 60  1  0  0  0
 59 61  1  0  0  0
 59 62  1  0  0  0
 60129  1  0  0  0
 60130  1  0  0  0
 60131  1  0  0  0
 61132  1  0  0  0
 61133  1  0  0  0
 61134  1  0  0  0
 62135  1  0  0  0
 62136  1  0  0  0
 62137  1  0  0  0
 63 65  1  0  0  0
 63138  1  0  0  0
 63139  1  0  0  0
 63140  1  0  0  0
 64141  1  0  0  0
 65142  1  0  0  0
 68 76  1  0  0  0
 71 72  2  0  0  0
 71 83  1  0  0  0
 71143  1  0  0  0
 72 75  1  0  0  0
 72 78  1  0  0  0
 73 78  2  0  0  0
 73 79  1  0  0  0
 73 83  1  0  0  0
 74 77  1  0  0  0
 74 79  1  0  0  0
 74 81  2  0  0  0
 75 80  1  0  0  0
 75144  1  0  0  0
 75145  1  0  0  0
 76 77  1  0  0  0
 76146  1  0  0  0
 76147  1  0  0  0
 77 82  1  0  0  0
 77148  1  0  0  0
 79149  1  0  0  0
 80150  1  0  0  0
M  ISO  4   1 100  68 101  76 101  80 100
M  END
> <chiral flag>
0

> <version>
0

> <s_m_source_file>
/data/baiqing/PycharmProjects/Reinvent-master-3.2/result/LINK_invent/BTK/process_docking_weight1_custom_product_contain_oxygen_bond_distance_aromatic_linkinvent_7_9_3/rearranged_h_0189.sdf

> <i_m_source_file_index>
70

> <r_mmod_Potential_Energy-OPLS-2005>
-250.619033813477

> <r_mmod_Stretch_Energy-OPLS-2005>
39.5181083679199

> <r_mmod_Bend_Energy-OPLS-2005>
97.230583190918

> <r_mmod_Torsional_Energy-OPLS-2005>
214.958877563477

> <r_mmod_Improper_Torsional_Energy-OPLS-2005>
4.36781215667725

> <r_mmod_Van_der_Waal_Energy-OPLS-2005>
136.789276123047

> <r_mmod_Electrostatic_Energy-OPLS-2005>
-530.487426757812

> <r_mmod_Solvation_Energy-OPLS-2005>
-233.697174072266

> <b_mmod_Minimization_Converged-OPLS-2005>
0

> <r_mmod_RMS_Derivative-OPLS-2005>
2.44287776947021

$$$$
70
                    3D
 Structure written by MMmdl.
155163  0  0  1  0            999 V2000
  -30.7055  -14.4545   20.5984 C   0  0  0  0  0  0
  -30.4217  -12.3020   19.4169 C   0  0  0  0  0  0
  -29.4932  -12.5132   18.2030 C   0  0  0  0  0  0
  -28.0132  -12.3772   18.6127 C   0  0  0  0  0  0
  -27.6630  -13.2049   19.8783 C   0  0  2  0  0  0
  -28.7034  -12.9673   20.9962 C   0  0  0  0  0  0
  -25.2597  -13.8157   20.5675 C   0  0  0  0  0  0
  -24.1844  -13.0435   20.9172 C   0  0  0  0  0  0
  -24.6395  -11.6903   20.8728 C   0  0  0  0  0  0
  -23.9062  -10.4292   21.0405 C   0  0  0  0  0  0
  -24.3614   -9.4211   21.9185 C   0  0  0  0  0  0
  -23.6292   -8.2247   22.0758 C   0  0  0  0  0  0
  -22.4277   -8.0279   21.3545 C   0  0  0  0  0  0
  -21.9913   -9.0249   20.4644 C   0  0  0  0  0  0
  -22.7237  -10.2131   20.3052 C   0  0  0  0  0  0
  -21.6851   -6.0736   22.5278 C   0  0  0  0  0  0
  -21.4013   -6.5640   23.8209 C   0  0  0  0  0  0
  -21.3658   -5.6797   24.9174 C   0  0  0  0  0  0
  -21.6044   -4.3058   24.7227 C   0  0  0  0  0  0
  -21.8819   -3.8149   23.4348 C   0  0  0  0  0  0
  -21.9193   -4.6965   22.3403 C   0  0  0  0  0  0
  -22.7869  -13.5237   21.1838 C   0  0  0  0  0  0
  -22.1661   -4.2148   21.0981 F   0  0  0  0  0  0
  -21.5631   -3.4542   25.7741 F   0  0  0  0  0  0
  -30.0367  -13.2774   20.4490 N   0  0  0  0  0  0
  -26.3028  -12.9321   20.3367 N   0  0  0  0  0  0
  -25.9320  -11.6484   20.5762 N   0  0  0  0  0  0
  -22.0508  -12.8219   22.0386 N   0  0  0  0  0  0
  -25.4340  -15.1874   20.4076 N   0  0  0  0  0  0
  -31.8216  -14.6453   20.1032 O   0  0  0  0  0  0
  -21.6636   -6.8877   21.4241 O   0  0  0  0  0  0
  -22.3557  -14.5552   20.6700 O   0  0  0  0  0  0
  -24.6131  -31.8688   23.2117 C   0  0  0  0  0  0
  -25.9036  -32.4823   23.8408 C   0  0  1  0  0  0
  -27.2410  -27.4485   20.1043 C   0  0  0  0  0  0
  -25.5909  -33.8616   24.2355 N   0  0  0  0  0  0
  -23.4011  -30.4914   21.5503 C   0  0  2  0  0  0
  -24.8511  -28.9550   20.1202 C   0  0  0  0  0  0
  -22.7401  -29.4663   22.4996 C   0  0  0  0  0  0
  -18.0273  -28.1375   22.8504 C   0  0  0  0  0  0
  -24.1480  -36.7304   23.2645 C   0  0  0  0  0  0
  -25.9263  -30.8398   21.3616 C   0  0  0  0  0  0
  -26.0069  -29.4696   20.7221 C   0  0  0  0  0  0
  -27.2041  -28.7202   20.7225 C   0  0  0  0  0  0
  -26.0759  -26.9496   19.4897 C   0  0  0  0  0  0
  -24.8781  -27.6908   19.5039 C   0  0  0  0  0  0
  -23.6110  -29.8191   20.1662 C   0  0  0  0  0  0
  -25.4102  -36.3105   24.0348 C   0  0  1  0  0  0
  -20.5865  -28.3659   23.1322 C   0  0  2  0  0  0
  -20.6762  -26.9396   22.5418 C   0  0  0  0  0  0
  -19.5738  -26.6393   21.5213 C   0  0  0  0  0  0
  -18.1913  -26.7932   22.1618 C   0  0  0  0  0  0
  -19.1522  -28.8833   23.2914 C   0  0  0  0  0  0
  -18.9456  -30.1441   23.8923 C   0  0  0  0  0  0
  -17.6457  -30.6587   24.0565 C   0  0  0  0  0  0
  -25.9034  -34.9469   23.5143 C   0  0  0  0  0  0
  -16.5348  -29.9090   23.6331 C   0  0  0  0  0  0
  -16.7263  -28.6502   23.0365 C   0  0  0  0  0  0
  -26.4484  -31.6582   25.0710 C   0  0  0  0  0  0
  -25.3769  -31.3649   26.1466 C   0  0  0  0  0  0
  -27.0323  -30.3049   24.6028 C   0  0  0  0  0  0
  -27.6069  -32.4294   25.7465 C   0  0  0  0  0  0
  -27.5572  -37.1805   24.8473 C   0  0  0  0  0  0
  -21.4137  -29.3023   22.3728 N   0  0  0  0  0  0
  -26.4290  -37.3785   23.9413 N   0  0  0  0  0  0
  -24.6650  -31.0806   22.1005 N   0  0  0  0  0  0
  -23.4177  -28.8213   23.3041 O   0  0  0  0  0  0
  -28.3879  -26.6931   20.0221 O   0  0  0  0  0  0
  -26.5576  -34.8917   22.4692 O   0  0  0  0  0  0
  -23.5329  -32.1431   23.7524 O   0  0  0  0  0  0
  -30.2673  -19.2568   21.7186 C   0  0  0  0  0  0
  -31.5273  -18.7116   21.5866 C   0  0  0  0  0  0
  -30.2875  -16.8092   21.3531 C   0  0  0  0  0  0
  -29.8301  -20.6318   22.0662 C   0  0  0  0  0  0
  -28.7906  -23.6683   21.2136 C   0  0  0  0  0  0
  -32.8378  -19.4352   21.6729 C   0  0  0  0  0  0
  -28.3457  -25.0060   21.8337 C   0  0  0  0  0  0
  -28.1024  -22.4050   21.7642 C   0  0  0  0  0  0
  -28.9862  -26.2919   21.2561 C   0  0  0  0  0  0
  -31.5232  -17.3250   21.3683 N   0  0  0  0  0  0
  -29.9994  -15.4233   21.2125 N   0  0  0  0  0  0
  -28.7790  -21.1453   21.4112 N   0  0  0  0  0  0
  -30.4350  -21.2702   22.9289 O   0  0  0  0  0  0
  -29.6465  -23.6031   20.3245 O   0  0  0  0  0  0
  -29.0300  -18.0188   21.6016 S   0  0  0  0  0  0
  -31.4670  -12.3978   19.1169 H   0  0  0  0  0  0
  -30.3176  -11.2871   19.8044 H   0  0  0  0  0  0
  -29.7299  -11.7953   17.4164 H   0  0  0  0  0  0
  -29.6658  -13.5023   17.7757 H   0  0  0  0  0  0
  -27.8140  -11.3202   18.7935 H   0  0  0  0  0  0
  -27.3660  -12.6694   17.7846 H   0  0  0  0  0  0
  -27.7121  -14.2558   19.5924 H   0  0  0  0  0  0
  -28.6779  -11.9255   21.3200 H   0  0  0  0  0  0
  -28.4611  -13.5483   21.8869 H   0  0  0  0  0  0
  -25.2762   -9.5682   22.4753 H   0  0  0  0  0  0
  -23.9995   -7.4643   22.7483 H   0  0  0  0  0  0
  -21.0845   -8.8766   19.8945 H   0  0  0  0  0  0
  -22.3702  -10.9667   19.6153 H   0  0  0  0  0  0
  -21.2003   -7.6147   23.9712 H   0  0  0  0  0  0
  -21.1480   -6.0527   25.9075 H   0  0  0  0  0  0
  -22.0599   -2.7610   23.2850 H   0  0  0  0  0  0
  -22.4125  -11.9862   22.4742 H   0  0  0  0  0  0
  -21.1125  -13.1236   22.2599 H   0  0  0  0  0  0
  -24.6675  -15.8438   20.5097 H   0  0  0  0  0  0
  -26.2819  -15.6220   20.0659 H   0  0  0  0  0  0
  -26.7109  -32.5557   23.1183 H   0  0  0  0  0  0
  -25.0084  -33.9774   25.0517 H   0  0  0  0  0  0
  -22.6910  -31.3086   21.4093 H   0  0  0  0  0  0
  -23.3743  -35.9636   23.3315 H   0  0  0  0  0  0
  -24.3575  -36.8907   22.2056 H   0  0  0  0  0  0
  -23.7230  -37.6513   23.6650 H   0  0  0  0  0  0
  -26.0263  -31.5984   20.5839 H   0  0  0  0  0  0
  -26.8196  -30.9059   21.9707 H   0  0  0  0  0  0
  -28.0974  -29.1246   21.1768 H   0  0  0  0  0  0
  -26.1005  -25.9846   19.0026 H   0  0  0  0  0  0
  -23.9906  -27.2911   19.0327 H   0  0  0  0  0  0
  -23.7154  -30.5919   19.4035 H   0  0  0  0  0  0
  -22.7374  -29.2328   19.8742 H   0  0  0  0  0  0
  -25.1277  -36.1972   25.0841 H   0  0  0  0  0  0
  -20.9959  -28.3227   24.1439 H   0  0  0  0  0  0
  -20.5679  -26.2261   23.3602 H   0  0  0  0  0  0
  -21.6633  -26.7448   22.1194 H   0  0  0  0  0  0
  -19.6897  -25.6311   21.1219 H   0  0  0  0  0  0
  -19.6685  -27.3228   20.6757 H   0  0  0  0  0  0
  -17.4191  -26.6715   21.4004 H   0  0  0  0  0  0
  -18.0284  -26.0060   22.8991 H   0  0  0  0  0  0
  -19.7936  -30.7244   24.2314 H   0  0  0  0  0  0
  -17.5015  -31.6275   24.5158 H   0  0  0  0  0  0
  -15.5348  -30.2991   23.7657 H   0  0  0  0  0  0
  -15.8662  -28.0823   22.7082 H   0  0  0  0  0  0
  -24.5956  -30.6985   25.7796 H   0  0  0  0  0  0
  -24.8945  -32.2782   26.4953 H   0  0  0  0  0  0
  -25.8143  -30.8795   27.0202 H   0  0  0  0  0  0
  -26.2838  -29.6774   24.1177 H   0  0  0  0  0  0
  -27.4245  -29.7301   25.4428 H   0  0  0  0  0  0
  -27.8599  -30.4408   23.9063 H   0  0  0  0  0  0
  -27.2717  -33.3605   26.2044 H   0  0  0  0  0  0
  -28.3877  -32.6828   25.0283 H   0  0  0  0  0  0
  -28.0736  -31.8407   26.5374 H   0  0  0  0  0  0
  -28.2604  -38.0085   24.7503 H   0  0  0  0  0  0
  -28.1048  -36.2617   24.6325 H   0  0  0  0  0  0
  -27.2282  -37.1493   25.8873 H   0  0  0  0  0  0
  -20.9303  -29.8728   21.6936 H   0  0  0  0  0  0
  -26.0181  -38.2864   24.1413 H   0  0  0  0  0  0
  -32.9809  -19.8712   22.6617 H   0  0  0  0  0  0
  -32.8879  -20.2474   20.9476 H   0  0  0  0  0  0
  -33.6835  -18.7736   21.4832 H   0  0  0  0  0  0
  -28.6023  -24.9466   22.8916 H   0  0  0  0  0  0
  -27.2592  -25.0761   21.7914 H   0  0  0  0  0  0
  -27.0850  -22.3761   21.3754 H   0  0  0  0  0  0
  -28.0158  -22.4938   22.8483 H   0  0  0  0  0  0
  -30.0525  -26.1397   21.0841 H   0  0  0  0  0  0
  -28.9230  -27.0883   21.9984 H   0  0  0  0  0  0
  -29.0744  -15.1453   21.4988 H   0  0  0  0  0  0
  -28.3710  -20.5960   20.6684 H   0  0  0  0  0  0
  1 25  1  0  0  0
  1 30  2  0  0  0
  1 81  1  0  0  0
  2  3  1  0  0  0
  2 25  1  0  0  0
  2 86  1  0  0  0
  2 87  1  0  0  0
  3  4  1  0  0  0
  3 88  1  0  0  0
  3 89  1  0  0  0
  4  5  1  0  0  0
  4 90  1  0  0  0
  4 91  1  0  0  0
  5  6  1  0  0  0
  5 26  1  0  0  0
  5 92  1  0  0  0
  6 25  1  0  0  0
  6 93  1  0  0  0
  6 94  1  0  0  0
  7  8  2  0  0  0
  7 26  1  0  0  0
  7 29  1  0  0  0
  8  9  1  0  0  0
  8 22  1  0  0  0
  9 10  1  0  0  0
  9 27  2  0  0  0
 10 11  2  0  0  0
 10 15  1  0  0  0
 11 12  1  0  0  0
 11 95  1  0  0  0
 12 13  2  0  0  0
 12 96  1  0  0  0
 13 14  1  0  0  0
 13 31  1  0  0  0
 14 15  2  0  0  0
 14 97  1  0  0  0
 15 98  1  0  0  0
 16 17  2  0  0  0
 16 21  1  0  0  0
 16 31  1  0  0  0
 17 18  1  0  0  0
 17 99  1  0  0  0
 18 19  2  0  0  0
 18100  1  0  0  0
 19 20  1  0  0  0
 19 24  1  0  0  0
 20 21  2  0  0  0
 20101  1  0  0  0
 21 23  1  0  0  0
 22 28  1  0  0  0
 22 32  2  0  0  0
 26 27  1  0  0  0
 28102  1  0  0  0
 28103  1  0  0  0
 29104  1  0  0  0
 29105  1  0  0  0
 33 34  1  0  0  0
 33 66  1  0  0  0
 33 70  2  0  0  0
 34 36  1  0  0  0
 34 59  1  0  0  0
 34106  1  0  0  0
 35 44  2  0  0  0
 35 45  1  0  0  0
 35 68  1  0  0  0
 36 56  1  0  0  0
 36107  1  0  0  0
 37 39  1  0  0  0
 37 47  1  0  0  0
 37 66  1  0  0  0
 37108  1  0  0  0
 38 43  2  0  0  0
 38 46  1  0  0  0
 38 47  1  0  0  0
 39 64  1  0  0  0
 39 67  2  0  0  0
 40 52  1  0  0  0
 40 53  2  0  0  0
 40 58  1  0  0  0
 41109  1  0  0  0
 41110  1  0  0  0
 41111  1  0  0  0
 41 48  1  0  0  0
 42 43  1  0  0  0
 42 66  1  0  0  0
 42112  1  0  0  0
 42113  1  0  0  0
 43 44  1  0  0  0
 44114  1  0  0  0
 45 46  2  0  0  0
 45115  1  0  0  0
 46116  1  0  0  0
 47117  1  0  0  0
 47118  1  0  0  0
 48 56  1  0  0  0
 48 65  1  0  0  0
 48119  1  0  0  0
 49 50  1  0  0  0
 49 53  1  0  0  0
 49 64  1  0  0  0
 49120  1  0  0  0
 50 51  1  0  0  0
 50121  1  0  0  0
 50122  1  0  0  0
 51 52  1  0  0  0
 51123  1  0  0  0
 51124  1  0  0  0
 52125  1  0  0  0
 52126  1  0  0  0
 53 54  1  0  0  0
 54 55  2  0  0  0
 54127  1  0  0  0
 55 57  1  0  0  0
 55128  1  0  0  0
 56 69  2  0  0  0
 57 58  2  0  0  0
 57129  1  0  0  0
 58130  1  0  0  0
 59 60  1  0  0  0
 59 61  1  0  0  0
 59 62  1  0  0  0
 60131  1  0  0  0
 60132  1  0  0  0
 60133  1  0  0  0
 61134  1  0  0  0
 61135  1  0  0  0
 61136  1  0  0  0
 62137  1  0  0  0
 62138  1  0  0  0
 62139  1  0  0  0
 63 65  1  0  0  0
 63140  1  0  0  0
 63141  1  0  0  0
 63142  1  0  0  0
 64143  1  0  0  0
 65144  1  0  0  0
 68 79  1  0  0  0
 71 72  2  0  0  0
 71 74  1  0  0  0
 71 85  1  0  0  0
 72 76  1  0  0  0
 72 80  1  0  0  0
 73 80  2  0  0  0
 73 81  1  0  0  0
 73 85  1  0  0  0
 74 82  1  0  0  0
 74 83  2  0  0  0
 75 77  1  0  0  0
 75 78  1  0  0  0
 75 84  2  0  0  0
 76145  1  0  0  0
 76146  1  0  0  0
 76147  1  0  0  0
 77 79  1  0  0  0
 77148  1  0  0  0
 77149  1  0  0  0
 78 82  1  0  0  0
 78150  1  0  0  0
 78151  1  0  0  0
 79152  1  0  0  0
 79153  1  0  0  0
 81154  1  0  0  0
 82155  1  0  0  0
M  ISO  4   1 100  68 101  79 101  81 100
M  END
> <chiral flag>
0

> <version>
0

> <s_m_source_file>
/data/baiqing/PycharmProjects/Reinvent-master-3.2/result/LINK_invent/BTK/process_docking_weight1_custom_product_contain_oxygen_bond_distance_aromatic_linkinvent_7_9_3/rearranged_h_0189.sdf

> <i_m_source_file_index>
71

> <r_mmod_Potential_Energy-OPLS-2005>
-285.832061767578

> <r_mmod_Stretch_Energy-OPLS-2005>
33.9098167419434

> <r_mmod_Bend_Energy-OPLS-2005>
99.6522521972656

> <r_mmod_Torsional_Energy-OPLS-2005>
229.490356445312

> <r_mmod_Improper_Torsional_Energy-OPLS-2005>
3.78518629074097

> <r_mmod_Van_der_Waal_Energy-OPLS-2005>
127.940277099609

> <r_mmod_Electrostatic_Energy-OPLS-2005>
-519.489074707031

> <r_mmod_Solvation_Energy-OPLS-2005>
-270.414031982422

> <b_mmod_Minimization_Converged-OPLS-2005>
0

> <r_mmod_RMS_Derivative-OPLS-2005>
1.04792404174805

$$$$
71
                    3D
 Structure written by MMmdl.
169177  0  0  1  0            999 V2000
  -30.6246  -14.5755   20.5492 C   0  0  0  0  0  0
  -30.4282  -12.3710   19.4339 C   0  0  0  0  0  0
  -29.4935  -12.5329   18.2129 C   0  0  0  0  0  0
  -28.0168  -12.3691   18.6245 C   0  0  0  0  0  0
  -27.6531  -13.2044   19.8805 C   0  0  2  0  0  0
  -28.6958  -13.0070   21.0027 C   0  0  0  0  0  0
  -25.2541  -13.8128   20.5739 C   0  0  0  0  0  0
  -24.1797  -13.0401   20.9220 C   0  0  0  0  0  0
  -24.6351  -11.6878   20.8756 C   0  0  0  0  0  0
  -23.9032  -10.4271   21.0410 C   0  0  0  0  0  0
  -24.3597   -9.4186   21.9186 C   0  0  0  0  0  0
  -23.6285   -8.2218   22.0751 C   0  0  0  0  0  0
  -22.4277   -8.0262   21.3540 C   0  0  0  0  0  0
  -21.9911   -9.0230   20.4625 C   0  0  0  0  0  0
  -22.7208  -10.2125   20.3051 C   0  0  0  0  0  0
  -21.6846   -6.0736   22.5289 C   0  0  0  0  0  0
  -21.3998   -6.5654   23.8215 C   0  0  0  0  0  0
  -21.3664   -5.6820   24.9179 C   0  0  0  0  0  0
  -21.6051   -4.3090   24.7243 C   0  0  0  0  0  0
  -21.8826   -3.8148   23.4381 C   0  0  0  0  0  0
  -21.9182   -4.6956   22.3431 C   0  0  0  0  0  0
  -22.7836  -13.5203   21.1908 C   0  0  0  0  0  0
  -22.1669   -4.2122   21.1033 F   0  0  0  0  0  0
  -21.5600   -3.4575   25.7758 F   0  0  0  0  0  0
  -30.0173  -13.3550   20.4536 N   0  0  0  0  0  0
  -26.2960  -12.9283   20.3379 N   0  0  0  0  0  0
  -25.9294  -11.6454   20.5805 N   0  0  0  0  0  0
  -22.0521  -12.8124   22.0430 N   0  0  0  0  0  0
  -25.4273  -15.1835   20.4250 N   0  0  0  0  0  0
  -31.7428  -14.7892   20.0685 O   0  0  0  0  0  0
  -21.6630   -6.8872   21.4253 O   0  0  0  0  0  0
  -22.3511  -14.5515   20.6751 O   0  0  0  0  0  0
  -24.6213  -31.8642   23.2059 C   0  0  0  0  0  0
  -25.9081  -32.4798   23.8370 C   0  0  1  0  0  0
  -27.2240  -27.3784   20.1070 C   0  0  0  0  0  0
  -25.5914  -33.8603   24.2295 N   0  0  0  0  0  0
  -23.4083  -30.4896   21.5490 C   0  0  2  0  0  0
  -24.8515  -28.9449   20.1221 C   0  0  0  0  0  0
  -22.7411  -29.4675   22.4978 C   0  0  0  0  0  0
  -18.0273  -28.1400   22.8500 C   0  0  0  0  0  0
  -24.1490  -36.7307   23.2641 C   0  0  0  0  0  0
  -25.9433  -30.8146   21.3651 C   0  0  0  0  0  0
  -26.0194  -29.4457   20.7102 C   0  0  0  0  0  0
  -27.2128  -28.6753   20.6889 C   0  0  0  0  0  0
  -26.0325  -26.9022   19.5218 C   0  0  0  0  0  0
  -24.8570  -27.6762   19.5195 C   0  0  0  0  0  0
  -23.6174  -29.8212   20.1666 C   0  0  0  0  0  0
  -25.4109  -36.3103   24.0342 C   0  0  1  0  0  0
  -20.5853  -28.3701   23.1298 C   0  0  2  0  0  0
  -20.6771  -26.9444   22.5415 C   0  0  0  0  0  0
  -19.5759  -26.6400   21.5211 C   0  0  0  0  0  0
  -18.1926  -26.7936   22.1617 C   0  0  0  0  0  0
  -19.1517  -28.8856   23.2889 C   0  0  0  0  0  0
  -18.9451  -30.1453   23.8911 C   0  0  0  0  0  0
  -17.6462  -30.6602   24.0570 C   0  0  0  0  0  0
  -25.9050  -34.9469   23.5116 C   0  0  0  0  0  0
  -16.5356  -29.9108   23.6331 C   0  0  0  0  0  0
  -16.7263  -28.6514   23.0372 C   0  0  0  0  0  0
  -26.4473  -31.6586   25.0726 C   0  0  0  0  0  0
  -25.3721  -31.3735   26.1464 C   0  0  0  0  0  0
  -27.0347  -30.3017   24.6167 C   0  0  0  0  0  0
  -27.6010  -32.4318   25.7513 C   0  0  0  0  0  0
  -27.5579  -37.1817   24.8462 C   0  0  0  0  0  0
  -21.4126  -29.3059   22.3689 N   0  0  0  0  0  0
  -26.4290  -37.3787   23.9408 N   0  0  0  0  0  0
  -24.6765  -31.0716   22.0971 N   0  0  0  0  0  0
  -23.4146  -28.8225   23.3059 O   0  0  0  0  0  0
  -28.3741  -26.6030   20.0795 O   0  0  0  0  0  0
  -26.5608  -34.8924   22.4682 O   0  0  0  0  0  0
  -23.5390  -32.1393   23.7428 O   0  0  0  0  0  0
  -29.3136  -19.1157   20.4433 C   0  0  0  0  0  0
  -28.3768  -18.7569   19.4972 C   0  0  0  0  0  0
  -29.5602  -16.8325   20.5791 C   0  0  0  0  0  0
  -29.7491  -20.5178   20.7362 C   0  0  0  0  0  0
  -32.7126  -23.6217   17.4651 C   0  0  0  0  0  0
  -32.4688  -24.4479   19.8439 C   0  0  0  0  0  0
  -27.4001  -23.4720   18.8209 C   0  0  0  0  0  0
  -30.7630  -22.8108   18.8346 C   0  0  0  0  0  0
  -28.2941  -25.2224   20.5569 C   0  0  0  0  0  0
  -31.7221  -23.9967   18.5782 C   0  0  0  0  0  0
  -28.6285  -24.0901   19.5095 C   0  0  1  0  0  0
  -29.6805  -22.9732   19.9314 C   0  0  1  0  0  0
  -29.9763  -18.0221   21.0733 N   0  0  0  0  0  0
  -27.5272  -19.5599   18.7312 N   0  0  0  0  0  0
  -30.8249  -20.6807   21.5200 N   0  0  0  0  0  0
  -29.9002  -15.5551   21.1493 N   0  0  0  0  0  0
  -29.1273  -21.5978   20.1724 N   0  3  0  0  0  0
  -28.3353  -17.0138   19.3125 S   0  0  0  0  0  0
  -31.4647  -12.4996   19.1234 H   0  0  0  0  0  0
  -30.3669  -11.3588   19.8358 H   0  0  0  0  0  0
  -29.7460  -11.8111   17.4336 H   0  0  0  0  0  0
  -29.6417  -13.5183   17.7677 H   0  0  0  0  0  0
  -27.8381  -11.3110   18.8182 H   0  0  0  0  0  0
  -27.3646  -12.6392   17.7959 H   0  0  0  0  0  0
  -27.6870  -14.2469   19.5761 H   0  0  0  0  0  0
  -28.6912  -11.9687   21.3397 H   0  0  0  0  0  0
  -28.4345  -13.5926   21.8852 H   0  0  0  0  0  0
  -25.2772   -9.5660   22.4714 H   0  0  0  0  0  0
  -24.0000   -7.4614   22.7476 H   0  0  0  0  0  0
  -21.0854   -8.8728   19.8929 H   0  0  0  0  0  0
  -22.3675  -10.9646   19.6137 H   0  0  0  0  0  0
  -21.2018   -7.6177   23.9707 H   0  0  0  0  0  0
  -21.1471   -6.0563   25.9074 H   0  0  0  0  0  0
  -22.0606   -2.7594   23.2899 H   0  0  0  0  0  0
  -22.4221  -11.9766   22.4737 H   0  0  0  0  0  0
  -21.1121  -13.1027   22.2697 H   0  0  0  0  0  0
  -24.6586  -15.8355   20.5360 H   0  0  0  0  0  0
  -26.2776  -15.6297   20.1090 H   0  0  0  0  0  0
  -26.7171  -32.5482   23.1154 H   0  0  0  0  0  0
  -25.0060  -33.9775   25.0430 H   0  0  0  0  0  0
  -22.6966  -31.3064   21.4105 H   0  0  0  0  0  0
  -23.3773  -35.9620   23.3277 H   0  0  0  0  0  0
  -24.3575  -36.8967   22.2065 H   0  0  0  0  0  0
  -23.7228  -37.6494   23.6675 H   0  0  0  0  0  0
  -26.0649  -31.5788   20.5964 H   0  0  0  0  0  0
  -26.8264  -30.8649   21.9906 H   0  0  0  0  0  0
  -28.1161  -29.0612   21.1353 H   0  0  0  0  0  0
  -25.9991  -25.9291   19.0617 H   0  0  0  0  0  0
  -23.9561  -27.2820   19.0656 H   0  0  0  0  0  0
  -23.7368  -30.5968   19.4099 H   0  0  0  0  0  0
  -22.7357  -29.2518   19.8691 H   0  0  0  0  0  0
  -25.1290  -36.1963   25.0834 H   0  0  0  0  0  0
  -20.9928  -28.3337   24.1427 H   0  0  0  0  0  0
  -20.5724  -26.2328   23.3621 H   0  0  0  0  0  0
  -21.6642  -26.7533   22.1206 H   0  0  0  0  0  0
  -19.6950  -25.6310   21.1259 H   0  0  0  0  0  0
  -19.6702  -27.3186   20.6731 H   0  0  0  0  0  0
  -17.4201  -26.6679   21.4016 H   0  0  0  0  0  0
  -18.0349  -26.0078   22.9016 H   0  0  0  0  0  0
  -19.7932  -30.7244   24.2305 H   0  0  0  0  0  0
  -17.5040  -31.6294   24.5183 H   0  0  0  0  0  0
  -15.5366  -30.3042   23.7632 H   0  0  0  0  0  0
  -15.8654  -28.0835   22.7107 H   0  0  0  0  0  0
  -24.5796  -30.7217   25.7760 H   0  0  0  0  0  0
  -24.9042  -32.2951   26.4939 H   0  0  0  0  0  0
  -25.8029  -30.8813   27.0199 H   0  0  0  0  0  0
  -26.2966  -29.6754   24.1148 H   0  0  0  0  0  0
  -27.4036  -29.7258   25.4666 H   0  0  0  0  0  0
  -27.8804  -30.4316   23.9413 H   0  0  0  0  0  0
  -27.2567  -33.3566   26.2141 H   0  0  0  0  0  0
  -28.3788  -32.6968   25.0347 H   0  0  0  0  0  0
  -28.0715  -31.8435   26.5404 H   0  0  0  0  0  0
  -28.2583  -38.0127   24.7523 H   0  0  0  0  0  0
  -28.1100  -36.2662   24.6274 H   0  0  0  0  0  0
  -27.2313  -37.1451   25.8870 H   0  0  0  0  0  0
  -20.9280  -29.8740   21.6879 H   0  0  0  0  0  0
  -26.0191  -38.2870   24.1394 H   0  0  0  0  0  0
  -33.3993  -24.4405   17.2501 H   0  0  0  0  0  0
  -32.1889  -23.3846   16.5371 H   0  0  0  0  0  0
  -33.3070  -22.7482   17.7393 H   0  0  0  0  0  0
  -33.2705  -25.1438   19.5963 H   0  0  0  0  0  0
  -32.9141  -23.6050   20.3735 H   0  0  0  0  0  0
  -31.8045  -24.9689   20.5350 H   0  0  0  0  0  0
  -26.8830  -24.2016   18.2035 H   0  0  0  0  0  0
  -26.6912  -23.0712   19.5444 H   0  0  0  0  0  0
  -27.6880  -22.6648   18.1463 H   0  0  0  0  0  0
  -31.3592  -21.9253   19.0551 H   0  0  0  0  0  0
  -30.2534  -22.5778   17.8970 H   0  0  0  0  0  0
  -29.0341  -25.1698   21.3550 H   0  0  0  0  0  0
  -27.3426  -25.0225   21.0510 H   0  0  0  0  0  0
  -31.1678  -24.8587   18.2067 H   0  0  0  0  0  0
  -29.0947  -24.6546   18.7059 H   0  0  0  0  0  0
  -30.1692  -23.2903   20.8528 H   0  0  0  0  0  0
  -26.6328  -19.6901   19.2053 H   0  0  0  0  0  0
  -27.2944  -19.1027   17.8511 H   0  0  0  0  0  0
  -31.2373  -19.8345   21.8890 H   0  0  0  0  0  0
  -31.1989  -21.5696   21.8031 H   0  0  0  0  0  0
  -29.1350  -15.1573   21.6680 H   0  0  0  0  0  0
  -28.3720  -21.3087   19.5522 H   0  0  0  0  0  0
  1 25  1  0  0  0
  1 30  2  0  0  0
  1 86  1  0  0  0
  2  3  1  0  0  0
  2 25  1  0  0  0
  2 89  1  0  0  0
  2 90  1  0  0  0
  3  4  1  0  0  0
  3 91  1  0  0  0
  3 92  1  0  0  0
  4  5  1  0  0  0
  4 93  1  0  0  0
  4 94  1  0  0  0
  5  6  1  0  0  0
  5 26  1  0  0  0
  5 95  1  0  0  0
  6 25  1  0  0  0
  6 96  1  0  0  0
  6 97  1  0  0  0
  7  8  2  0  0  0
  7 26  1  0  0  0
  7 29  1  0  0  0
  8  9  1  0  0  0
  8 22  1  0  0  0
  9 10  1  0  0  0
  9 27  2  0  0  0
 10 11  2  0  0  0
 10 15  1  0  0  0
 11 12  1  0  0  0
 11 98  1  0  0  0
 12 13  2  0  0  0
 12 99  1  0  0  0
 13 14  1  0  0  0
 13 31  1  0  0  0
 14 15  2  0  0  0
 14100  1  0  0  0
 15101  1  0  0  0
 16 17  2  0  0  0
 16 21  1  0  0  0
 16 31  1  0  0  0
 17 18  1  0  0  0
 17102  1  0  0  0
 18 19  2  0  0  0
 18103  1  0  0  0
 19 20  1  0  0  0
 19 24  1  0  0  0
 20 21  2  0  0  0
 20104  1  0  0  0
 21 23  1  0  0  0
 22 28  1  0  0  0
 22 32  2  0  0  0
 26 27  1  0  0  0
 28105  1  0  0  0
 28106  1  0  0  0
 29107  1  0  0  0
 29108  1  0  0  0
 33 34  1  0  0  0
 33 66  1  0  0  0
 33 70  2  0  0  0
 34 36  1  0  0  0
 34 59  1  0  0  0
 34109  1  0  0  0
 35 44  2  0  0  0
 35 45  1  0  0  0
 35 68  1  0  0  0
 36 56  1  0  0  0
 36110  1  0  0  0
 37 39  1  0  0  0
 37 47  1  0  0  0
 37 66  1  0  0  0
 37111  1  0  0  0
 38 43  2  0  0  0
 38 46  1  0  0  0
 38 47  1  0  0  0
 39 64  1  0  0  0
 39 67  2  0  0  0
 40 52  1  0  0  0
 40 53  2  0  0  0
 40 58  1  0  0  0
 41112  1  0  0  0
 41113  1  0  0  0
 41114  1  0  0  0
 41 48  1  0  0  0
 42 43  1  0  0  0
 42 66  1  0  0  0
 42115  1  0  0  0
 42116  1  0  0  0
 43 44  1  0  0  0
 44117  1  0  0  0
 45 46  2  0  0  0
 45118  1  0  0  0
 46119  1  0  0  0
 47120  1  0  0  0
 47121  1  0  0  0
 48 56  1  0  0  0
 48 65  1  0  0  0
 48122  1  0  0  0
 49 50  1  0  0  0
 49 53  1  0  0  0
 49 64  1  0  0  0
 49123  1  0  0  0
 50 51  1  0  0  0
 50124  1  0  0  0
 50125  1  0  0  0
 51 52  1  0  0  0
 51126  1  0  0  0
 51127  1  0  0  0
 52128  1  0  0  0
 52129  1  0  0  0
 53 54  1  0  0  0
 54 55  2  0  0  0
 54130  1  0  0  0
 55 57  1  0  0  0
 55131  1  0  0  0
 56 69  2  0  0  0
 57 58  2  0  0  0
 57132  1  0  0  0
 58133  1  0  0  0
 59 60  1  0  0  0
 59 61  1  0  0  0
 59 62  1  0  0  0
 60134  1  0  0  0
 60135  1  0  0  0
 60136  1  0  0  0
 61137  1  0  0  0
 61138  1  0  0  0
 61139  1  0  0  0
 62140  1  0  0  0
 62141  1  0  0  0
 62142  1  0  0  0
 63 65  1  0  0  0
 63143  1  0  0  0
 63144  1  0  0  0
 63145  1  0  0  0
 64146  1  0  0  0
 65147  1  0  0  0
 68 79  1  0  0  0
 71 72  2  0  0  0
 71 74  1  0  0  0
 71 83  1  0  0  0
 72 84  1  0  0  0
 72 88  1  0  0  0
 73 83  2  0  0  0
 73 86  1  0  0  0
 73 88  1  0  0  0
 74 85  1  0  0  0
 74 87  2  0  0  0
 75148  1  0  0  0
 75149  1  0  0  0
 75150  1  0  0  0
 75 80  1  0  0  0
 76 80  1  0  0  0
 76151  1  0  0  0
 76152  1  0  0  0
 76153  1  0  0  0
 77154  1  0  0  0
 77155  1  0  0  0
 77156  1  0  0  0
 77 81  1  0  0  0
 78 80  1  0  0  0
 78157  1  0  0  0
 78158  1  0  0  0
 78 82  1  0  0  0
 79 81  1  0  0  0
 79159  1  0  0  0
 79160  1  0  0  0
 80161  1  0  0  0
 81 82  1  0  0  0
 81162  1  0  0  0
 82 87  1  0  0  0
 82163  1  0  0  0
 84164  1  0  0  0
 84165  1  0  0  0
 85166  1  0  0  0
 85167  1  0  0  0
 86168  1  0  0  0
 87169  1  0  0  0
M  CHG  1  87   1
M  ISO  4   1 100  68 101  79 101  86 100
M  END
> <chiral flag>
0

> <version>
0

> <s_m_source_file>
/data/baiqing/PycharmProjects/Reinvent-master-3.2/result/LINK_invent/BTK/process_docking_weight1_custom_product_contain_oxygen_bond_distance_aromatic_linkinvent_7_9_3/rearranged_h_0189.sdf

> <i_m_source_file_index>
72

> <r_mmod_Potential_Energy-OPLS-2005>
6.61929321289062

> <r_mmod_Stretch_Energy-OPLS-2005>
56.9015579223633

> <r_mmod_Bend_Energy-OPLS-2005>
142.762054443359

> <r_mmod_Torsional_Energy-OPLS-2005>
326.895050048828

> <r_mmod_Improper_Torsional_Energy-OPLS-2005>
15.1732845306396

> <r_mmod_Van_der_Waal_Energy-OPLS-2005>
123.904655456543

> <r_mmod_Electrostatic_Energy-OPLS-2005>
-255.929183959961

> <r_mmod_Solvation_Energy-OPLS-2005>
-429.608856201172

> <b_mmod_Minimization_Converged-OPLS-2005>
0

> <r_mmod_RMS_Derivative-OPLS-2005>
4.35597896575928

$$$$
72
                    3D
 Structure written by MMmdl.
165173  0  0  1  0            999 V2000
  -30.5805  -14.7343   20.4870 C   0  0  0  0  0  0
  -30.4505  -12.4495   19.4712 C   0  0  0  0  0  0
  -29.5154  -12.5011   18.2393 C   0  0  0  0  0  0
  -28.0439  -12.3118   18.6572 C   0  0  0  0  0  0
  -27.6480  -13.2134   19.8543 C   0  0  2  0  0  0
  -28.6926  -13.1145   20.9906 C   0  0  0  0  0  0
  -25.2537  -13.8146   20.5678 C   0  0  0  0  0  0
  -24.1811  -13.0428   20.9224 C   0  0  0  0  0  0
  -24.6379  -11.6903   20.8744 C   0  0  0  0  0  0
  -23.9041  -10.4294   21.0409 C   0  0  0  0  0  0
  -24.3601   -9.4220   21.9190 C   0  0  0  0  0  0
  -23.6296   -8.2238   22.0756 C   0  0  0  0  0  0
  -22.4277   -8.0260   21.3535 C   0  0  0  0  0  0
  -21.9912   -9.0233   20.4640 C   0  0  0  0  0  0
  -22.7219  -10.2133   20.3056 C   0  0  0  0  0  0
  -21.6844   -6.0739   22.5282 C   0  0  0  0  0  0
  -21.4006   -6.5652   23.8215 C   0  0  0  0  0  0
  -21.3658   -5.6787   24.9172 C   0  0  0  0  0  0
  -21.6049   -4.3044   24.7217 C   0  0  0  0  0  0
  -21.8819   -3.8147   23.4337 C   0  0  0  0  0  0
  -21.9197   -4.6968   22.3401 C   0  0  0  0  0  0
  -22.7841  -13.5224   21.1859 C   0  0  0  0  0  0
  -22.1665   -4.2161   21.0974 F   0  0  0  0  0  0
  -21.5631   -3.4525   25.7730 F   0  0  0  0  0  0
  -30.0027  -13.4855   20.4279 N   0  0  0  0  0  0
  -26.2954  -12.9326   20.3270 N   0  0  0  0  0  0
  -25.9300  -11.6489   20.5750 N   0  0  0  0  0  0
  -22.0479  -12.8213   22.0412 N   0  0  0  0  0  0
  -25.4272  -15.1865   20.4052 N   0  0  0  0  0  0
  -31.7472  -14.9000   20.1154 O   0  0  0  0  0  0
  -21.6623   -6.8870   21.4241 O   0  0  0  0  0  0
  -22.3555  -14.5541   20.6708 O   0  0  0  0  0  0
  -24.6254  -31.8579   23.2012 C   0  0  0  0  0  0
  -25.9097  -32.4767   23.8325 C   0  0  1  0  0  0
  -27.2111  -27.2958   20.1333 C   0  0  0  0  0  0
  -25.5912  -33.8561   24.2249 N   0  0  0  0  0  0
  -23.4193  -30.4855   21.5448 C   0  0  2  0  0  0
  -24.8650  -28.9318   20.1187 C   0  0  0  0  0  0
  -22.7476  -29.4618   22.4901 C   0  0  0  0  0  0
  -18.0312  -28.1426   22.8503 C   0  0  0  0  0  0
  -24.1479  -36.7273   23.2628 C   0  0  0  0  0  0
  -25.9614  -30.7774   21.3797 C   0  0  0  0  0  0
  -26.0309  -29.3974   20.7382 C   0  0  0  0  0  0
  -27.2085  -28.5866   20.7489 C   0  0  0  0  0  0
  -26.0372  -26.9063   19.4573 C   0  0  0  0  0  0
  -24.8656  -27.6877   19.4722 C   0  0  0  0  0  0
  -23.6379  -29.8208   20.1594 C   0  0  0  0  0  0
  -25.4103  -36.3059   24.0323 C   0  0  1  0  0  0
  -20.5922  -28.3681   23.1293 C   0  0  2  0  0  0
  -20.6802  -26.9415   22.5405 C   0  0  0  0  0  0
  -19.5774  -26.6409   21.5221 C   0  0  0  0  0  0
  -18.1954  -26.7978   22.1629 C   0  0  0  0  0  0
  -19.1566  -28.8873   23.2915 C   0  0  0  0  0  0
  -18.9478  -30.1496   23.8901 C   0  0  0  0  0  0
  -17.6485  -30.6624   24.0597 C   0  0  0  0  0  0
  -25.9038  -34.9432   23.5085 C   0  0  0  0  0  0
  -16.5379  -29.9122   23.6372 C   0  0  0  0  0  0
  -16.7305  -28.6553   23.0358 C   0  0  0  0  0  0
  -26.4487  -31.6595   25.0698 C   0  0  0  0  0  0
  -25.3709  -31.3802   26.1432 C   0  0  0  0  0  0
  -27.0301  -30.3001   24.6147 C   0  0  0  0  0  0
  -27.6026  -32.4337   25.7469 C   0  0  0  0  0  0
  -27.5574  -37.1784   24.8461 C   0  0  0  0  0  0
  -21.4179  -29.3035   22.3652 N   0  0  0  0  0  0
  -26.4272  -37.3768   23.9424 N   0  0  0  0  0  0
  -24.6875  -31.0600   22.0965 N   0  0  0  0  0  0
  -23.4193  -28.8166   23.3003 O   0  0  0  0  0  0
  -28.3114  -26.4289   20.0411 O   0  0  0  0  0  0
  -26.5606  -34.8917   22.4653 O   0  0  0  0  0  0
  -23.5411  -32.1371   23.7343 O   0  0  0  0  0  0
  -28.6554  -17.8959   21.4442 C   0  0  0  0  0  0
  -29.3700  -20.0863   20.9364 C   0  0  0  0  0  0
  -29.7456  -17.2510   20.7855 C   0  0  0  0  0  0
  -30.4621  -19.4664   20.2263 C   0  0  0  0  0  0
  -29.1807  -21.5558   21.3780 C   0  0  0  0  0  0
  -25.9153  -22.3895   21.0980 C   0  0  0  0  0  0
  -25.6685  -24.7214   21.9352 C   0  0  0  0  0  0
  -30.1541  -25.3726   21.1586 C   0  0  0  0  0  0
  -26.4758  -23.8191   20.9718 C   0  0  0  0  0  0
  -28.0105  -23.9073   21.2188 C   0  0  2  0  0  0
  -28.6252  -25.4103   21.0748 C   0  0  2  0  0  0
  -28.4735  -19.2511   21.5326 N   0  0  0  0  0  0
  -30.6350  -18.0922   20.1548 N   0  0  0  0  0  0
  -31.4639  -20.2055   19.6016 N   0  0  0  0  0  0
  -29.4247  -21.7495   22.6859 N   0  0  0  0  0  0
  -29.7395  -15.7708   20.8441 N   0  0  0  0  0  0
  -28.7401  -22.6655   20.6555 N   0  3  0  0  0  0
  -31.4848  -12.6040   19.1631 H   0  0  0  0  0  0
  -30.4216  -11.4654   19.9427 H   0  0  0  0  0  0
  -29.8037  -11.7358   17.5185 H   0  0  0  0  0  0
  -29.6283  -13.4580   17.7257 H   0  0  0  0  0  0
  -27.9167  -11.2649   18.9370 H   0  0  0  0  0  0
  -27.3775  -12.4820   17.8096 H   0  0  0  0  0  0
  -27.6516  -14.2370   19.4778 H   0  0  0  0  0  0
  -28.7283  -12.1001   21.3890 H   0  0  0  0  0  0
  -28.4169  -13.7569   21.8273 H   0  0  0  0  0  0
  -25.2765   -9.5685   22.4747 H   0  0  0  0  0  0
  -24.0010   -7.4625   22.7463 H   0  0  0  0  0  0
  -21.0847   -8.8726   19.8934 H   0  0  0  0  0  0
  -22.3675  -10.9649   19.6141 H   0  0  0  0  0  0
  -21.1988   -7.6152   23.9716 H   0  0  0  0  0  0
  -21.1483   -6.0518   25.9074 H   0  0  0  0  0  0
  -22.0605   -2.7612   23.2813 H   0  0  0  0  0  0
  -22.4092  -11.9861   22.4769 H   0  0  0  0  0  0
  -21.1103  -13.1236   22.2600 H   0  0  0  0  0  0
  -24.6472  -15.8304   20.4823 H   0  0  0  0  0  0
  -26.2439  -15.6077   19.9847 H   0  0  0  0  0  0
  -26.7147  -32.5441   23.1050 H   0  0  0  0  0  0
  -25.0085  -33.9694   25.0412 H   0  0  0  0  0  0
  -22.7198  -31.3125   21.4013 H   0  0  0  0  0  0
  -23.3742  -35.9603   23.3268 H   0  0  0  0  0  0
  -24.3587  -36.8917   22.2051 H   0  0  0  0  0  0
  -23.7221  -37.6453   23.6676 H   0  0  0  0  0  0
  -26.0954  -31.5335   20.6045 H   0  0  0  0  0  0
  -26.8418  -30.8320   22.0049 H   0  0  0  0  0  0
  -28.1064  -28.9442   21.2338 H   0  0  0  0  0  0
  -26.0215  -25.9807   18.9071 H   0  0  0  0  0  0
  -23.9783  -27.3381   18.9617 H   0  0  0  0  0  0
  -23.7630  -30.5952   19.4016 H   0  0  0  0  0  0
  -22.7550  -29.2529   19.8556 H   0  0  0  0  0  0
  -25.1303  -36.1861   25.0816 H   0  0  0  0  0  0
  -21.0080  -28.3252   24.1386 H   0  0  0  0  0  0
  -20.5731  -26.2282   23.3593 H   0  0  0  0  0  0
  -21.6676  -26.7467   22.1172 H   0  0  0  0  0  0
  -19.6914  -25.6312   21.1247 H   0  0  0  0  0  0
  -19.6740  -27.3225   20.6767 H   0  0  0  0  0  0
  -17.4244  -26.6767   21.4011 H   0  0  0  0  0  0
  -18.0343  -26.0132   22.9035 H   0  0  0  0  0  0
  -19.7953  -30.7346   24.2207 H   0  0  0  0  0  0
  -17.5044  -31.6295   24.5208 H   0  0  0  0  0  0
  -15.5375  -30.3034   23.7695 H   0  0  0  0  0  0
  -15.8721  -28.0911   22.7007 H   0  0  0  0  0  0
  -24.5841  -30.7200   25.7787 H   0  0  0  0  0  0
  -24.8956  -32.3012   26.4807 H   0  0  0  0  0  0
  -25.8013  -30.9002   27.0222 H   0  0  0  0  0  0
  -26.2856  -29.6768   24.1168 H   0  0  0  0  0  0
  -27.3994  -29.7254   25.4639 H   0  0  0  0  0  0
  -27.8752  -30.4298   23.9385 H   0  0  0  0  0  0
  -27.2628  -33.3664   26.1996 H   0  0  0  0  0  0
  -28.3874  -32.6844   25.0322 H   0  0  0  0  0  0
  -28.0645  -31.8478   26.5425 H   0  0  0  0  0  0
  -28.2567  -38.0103   24.7538 H   0  0  0  0  0  0
  -28.1102  -36.2627   24.6259 H   0  0  0  0  0  0
  -27.2315  -37.1409   25.8871 H   0  0  0  0  0  0
  -20.9302  -29.8761   21.6880 H   0  0  0  0  0  0
  -26.0126  -38.2820   24.1471 H   0  0  0  0  0  0
  -27.9035  -17.3024   21.9473 H   0  0  0  0  0  0
  -24.8304  -22.3843   20.9789 H   0  0  0  0  0  0
  -26.1325  -21.9547   22.0742 H   0  0  0  0  0  0
  -26.3122  -21.7237   20.3304 H   0  0  0  0  0  0
  -24.6192  -24.7683   21.6411 H   0  0  0  0  0  0
  -26.0259  -25.7473   21.9680 H   0  0  0  0  0  0
  -25.7021  -24.3459   22.9600 H   0  0  0  0  0  0
  -30.4977  -24.7744   22.0027 H   0  0  0  0  0  0
  -30.5560  -26.3800   21.2863 H   0  0  0  0  0  0
  -30.5867  -24.9551   20.2499 H   0  0  0  0  0  0
  -26.2866  -24.1521   19.9546 H   0  0  0  0  0  0
  -28.0865  -23.7472   22.2929 H   0  0  0  0  0  0
  -28.3292  -25.9069   22.0005 H   0  0  0  0  0  0
  -31.3916  -21.2087   19.4828 H   0  0  0  0  0  0
  -32.1388  -19.7545   18.9950 H   0  0  0  0  0  0
  -29.6339  -20.9429   23.2562 H   0  0  0  0  0  0
  -29.5059  -22.6556   23.1115 H   0  0  0  0  0  0
  -28.8655  -15.4043   21.1889 H   0  0  0  0  0  0
  -28.6816  -22.5631   19.6528 H   0  0  0  0  0  0
  1 25  1  0  0  0
  1 30  2  0  0  0
  1 86  1  0  0  0
  2  3  1  0  0  0
  2 25  1  0  0  0
  2 88  1  0  0  0
  2 89  1  0  0  0
  3  4  1  0  0  0
  3 90  1  0  0  0
  3 91  1  0  0  0
  4  5  1  0  0  0
  4 92  1  0  0  0
  4 93  1  0  0  0
  5  6  1  0  0  0
  5 26  1  0  0  0
  5 94  1  0  0  0
  6 25  1  0  0  0
  6 95  1  0  0  0
  6 96  1  0  0  0
  7  8  2  0  0  0
  7 26  1  0  0  0
  7 29  1  0  0  0
  8  9  1  0  0  0
  8 22  1  0  0  0
  9 10  1  0  0  0
  9 27  2  0  0  0
 10 11  2  0  0  0
 10 15  1  0  0  0
 11 12  1  0  0  0
 11 97  1  0  0  0
 12 13  2  0  0  0
 12 98  1  0  0  0
 13 14  1  0  0  0
 13 31  1  0  0  0
 14 15  2  0  0  0
 14 99  1  0  0  0
 15100  1  0  0  0
 16 17  2  0  0  0
 16 21  1  0  0  0
 16 31  1  0  0  0
 17 18  1  0  0  0
 17101  1  0  0  0
 18 19  2  0  0  0
 18102  1  0  0  0
 19 20  1  0  0  0
 19 24  1  0  0  0
 20 21  2  0  0  0
 20103  1  0  0  0
 21 23  1  0  0  0
 22 28  1  0  0  0
 22 32  2  0  0  0
 26 27  1  0  0  0
 28104  1  0  0  0
 28105  1  0  0  0
 29106  1  0  0  0
 29107  1  0  0  0
 33 34  1  0  0  0
 33 66  1  0  0  0
 33 70  2  0  0  0
 34 36  1  0  0  0
 34 59  1  0  0  0
 34108  1  0  0  0
 35 44  2  0  0  0
 35 45  1  0  0  0
 35 68  1  0  0  0
 36 56  1  0  0  0
 36109  1  0  0  0
 37 39  1  0  0  0
 37 47  1  0  0  0
 37 66  1  0  0  0
 37110  1  0  0  0
 38 43  2  0  0  0
 38 46  1  0  0  0
 38 47  1  0  0  0
 39 64  1  0  0  0
 39 67  2  0  0  0
 40 52  1  0  0  0
 40 53  2  0  0  0
 40 58  1  0  0  0
 41111  1  0  0  0
 41112  1  0  0  0
 41113  1  0  0  0
 41 48  1  0  0  0
 42 43  1  0  0  0
 42 66  1  0  0  0
 42114  1  0  0  0
 42115  1  0  0  0
 43 44  1  0  0  0
 44116  1  0  0  0
 45 46  2  0  0  0
 45117  1  0  0  0
 46118  1  0  0  0
 47119  1  0  0  0
 47120  1  0  0  0
 48 56  1  0  0  0
 48 65  1  0  0  0
 48121  1  0  0  0
 49 50  1  0  0  0
 49 53  1  0  0  0
 49 64  1  0  0  0
 49122  1  0  0  0
 50 51  1  0  0  0
 50123  1  0  0  0
 50124  1  0  0  0
 51 52  1  0  0  0
 51125  1  0  0  0
 51126  1  0  0  0
 52127  1  0  0  0
 52128  1  0  0  0
 53 54  1  0  0  0
 54 55  2  0  0  0
 54129  1  0  0  0
 55 57  1  0  0  0
 55130  1  0  0  0
 56 69  2  0  0  0
 57 58  2  0  0  0
 57131  1  0  0  0
 58132  1  0  0  0
 59 60  1  0  0  0
 59 61  1  0  0  0
 59 62  1  0  0  0
 60133  1  0  0  0
 60134  1  0  0  0
 60135  1  0  0  0
 61136  1  0  0  0
 61137  1  0  0  0
 61138  1  0  0  0
 62139  1  0  0  0
 62140  1  0  0  0
 62141  1  0  0  0
 63 65  1  0  0  0
 63142  1  0  0  0
 63143  1  0  0  0
 63144  1  0  0  0
 64145  1  0  0  0
 65146  1  0  0  0
 68 81  1  0  0  0
 71 73  2  0  0  0
 71 82  1  0  0  0
 71147  1  0  0  0
 72 74  1  0  0  0
 72 75  1  0  0  0
 72 82  2  0  0  0
 73 83  1  0  0  0
 73 86  1  0  0  0
 74 83  2  0  0  0
 74 84  1  0  0  0
 75 85  1  0  0  0
 75 87  2  0  0  0
 76148  1  0  0  0
 76149  1  0  0  0
 76150  1  0  0  0
 76 79  1  0  0  0
 77 79  1  0  0  0
 77151  1  0  0  0
 77152  1  0  0  0
 77153  1  0  0  0
 78154  1  0  0  0
 78155  1  0  0  0
 78156  1  0  0  0
 78 81  1  0  0  0
 79 80  1  0  0  0
 79157  1  0  0  0
 80 81  1  0  0  0
 80 87  1  0  0  0
 80158  1  0  0  0
 81159  1  0  0  0
 84160  1  0  0  0
 84161  1  0  0  0
 85162  1  0  0  0
 85163  1  0  0  0
 86164  1  0  0  0
 87165  1  0  0  0
M  CHG  1  87   1
M  ISO  4   1 100  68 101  81 101  86 100
M  END
> <chiral flag>
0

> <version>
0

> <s_m_source_file>
/data/baiqing/PycharmProjects/Reinvent-master-3.2/result/LINK_invent/BTK/process_docking_weight1_custom_product_contain_oxygen_bond_distance_aromatic_linkinvent_7_9_3/rearranged_h_0189.sdf

> <i_m_source_file_index>
73

> <r_mmod_Potential_Energy-OPLS-2005>
193.880004882812

> <r_mmod_Stretch_Energy-OPLS-2005>
117.027534484863

> <r_mmod_Bend_Energy-OPLS-2005>
230.169738769531

> <r_mmod_Torsional_Energy-OPLS-2005>
302.565124511719

> <r_mmod_Improper_Torsional_Energy-OPLS-2005>
7.38365840911865

> <r_mmod_Van_der_Waal_Energy-OPLS-2005>
135.142974853516

> <r_mmod_Electrostatic_Energy-OPLS-2005>
-197.734756469727

> <r_mmod_Solvation_Energy-OPLS-2005>
-472.7236328125

> <b_mmod_Minimization_Converged-OPLS-2005>
0

> <r_mmod_RMS_Derivative-OPLS-2005>
4.08305168151855

$$$$
73
                    3D
 Structure written by MMmdl.
162170  0  0  1  0            999 V2000
  -30.7471  -14.3966   20.5472 C   0  0  0  0  0  0
  -30.4057  -12.2488   19.4306 C   0  0  0  0  0  0
  -29.4942  -12.4848   18.2086 C   0  0  0  0  0  0
  -28.0113  -12.3710   18.6119 C   0  0  0  0  0  0
  -27.6633  -13.2083   19.8725 C   0  0  2  0  0  0
  -28.6997  -12.9862   20.9962 C   0  0  0  0  0  0
  -25.2605  -13.8171   20.5677 C   0  0  0  0  0  0
  -24.1851  -13.0453   20.9162 C   0  0  0  0  0  0
  -24.6406  -11.6917   20.8726 C   0  0  0  0  0  0
  -23.9072  -10.4302   21.0403 C   0  0  0  0  0  0
  -24.3622   -9.4216   21.9183 C   0  0  0  0  0  0
  -23.6293   -8.2252   22.0761 C   0  0  0  0  0  0
  -22.4275   -8.0289   21.3552 C   0  0  0  0  0  0
  -21.9914   -9.0262   20.4652 C   0  0  0  0  0  0
  -22.7243  -10.2140   20.3057 C   0  0  0  0  0  0
  -21.6857   -6.0741   22.5284 C   0  0  0  0  0  0
  -21.4016   -6.5645   23.8215 C   0  0  0  0  0  0
  -21.3660   -5.6800   24.9179 C   0  0  0  0  0  0
  -21.6044   -4.3062   24.7230 C   0  0  0  0  0  0
  -21.8819   -3.8153   23.4352 C   0  0  0  0  0  0
  -21.9196   -4.6969   22.3406 C   0  0  0  0  0  0
  -22.7869  -13.5245   21.1831 C   0  0  0  0  0  0
  -22.1660   -4.2151   21.0983 F   0  0  0  0  0  0
  -21.5630   -3.4547   25.7743 F   0  0  0  0  0  0
  -30.0406  -13.2422   20.4509 N   0  0  0  0  0  0
  -26.3040  -12.9347   20.3355 N   0  0  0  0  0  0
  -25.9333  -11.6504   20.5758 N   0  0  0  0  0  0
  -22.0508  -12.8233   22.0380 N   0  0  0  0  0  0
  -25.4381  -15.1888   20.4107 N   0  0  0  0  0  0
  -31.8980  -14.5060   20.1144 O   0  0  0  0  0  0
  -21.6642   -6.8887   21.4247 O   0  0  0  0  0  0
  -22.3549  -14.5555   20.6686 O   0  0  0  0  0  0
  -24.6080  -31.8724   23.2144 C   0  0  0  0  0  0
  -25.9004  -32.4841   23.8413 C   0  0  1  0  0  0
  -27.2355  -27.4893   20.0793 C   0  0  0  0  0  0
  -25.5886  -33.8640   24.2347 N   0  0  0  0  0  0
  -23.3926  -30.4950   21.5544 C   0  0  2  0  0  0
  -24.8381  -28.9603   20.1231 C   0  0  0  0  0  0
  -22.7365  -29.4676   22.5032 C   0  0  0  0  0  0
  -18.0260  -28.1370   22.8497 C   0  0  0  0  0  0
  -24.1489  -36.7323   23.2636 C   0  0  0  0  0  0
  -25.9150  -30.8482   21.3631 C   0  0  0  0  0  0
  -25.9922  -29.4815   20.7222 C   0  0  0  0  0  0
  -27.1923  -28.7437   20.7158 C   0  0  0  0  0  0
  -26.0653  -26.9579   19.4968 C   0  0  0  0  0  0
  -24.8640  -27.6909   19.5171 C   0  0  0  0  0  0
  -23.5986  -29.8236   20.1694 C   0  0  0  0  0  0
  -25.4108  -36.3124   24.0340 C   0  0  1  0  0  0
  -20.5840  -28.3646   23.1342 C   0  0  2  0  0  0
  -20.6751  -26.9389   22.5421 C   0  0  0  0  0  0
  -19.5731  -26.6385   21.5209 C   0  0  0  0  0  0
  -18.1909  -26.7918   22.1621 C   0  0  0  0  0  0
  -19.1505  -28.8827   23.2916 C   0  0  0  0  0  0
  -18.9437  -30.1437   23.8921 C   0  0  0  0  0  0
  -17.6443  -30.6582   24.0566 C   0  0  0  0  0  0
  -25.9031  -34.9487   23.5140 C   0  0  0  0  0  0
  -16.5335  -29.9087   23.6322 C   0  0  0  0  0  0
  -16.7249  -28.6501   23.0346 C   0  0  0  0  0  0
  -26.4453  -31.6602   25.0719 C   0  0  0  0  0  0
  -25.3737  -31.3682   26.1475 C   0  0  0  0  0  0
  -27.0284  -30.3058   24.6057 C   0  0  0  0  0  0
  -27.6035  -32.4310   25.7486 C   0  0  0  0  0  0
  -27.5580  -37.1819   24.8462 C   0  0  0  0  0  0
  -21.4101  -29.3028   22.3766 N   0  0  0  0  0  0
  -26.4297  -37.3803   23.9403 N   0  0  0  0  0  0
  -24.6563  -31.0860   22.1029 N   0  0  0  0  0  0
  -23.4159  -28.8225   23.3061 O   0  0  0  0  0  0
  -28.4257  -26.8197   19.9907 O   0  0  0  0  0  0
  -26.5586  -34.8931   22.4697 O   0  0  0  0  0  0
  -23.5289  -32.1460   23.7567 O   0  0  0  0  0  0
  -29.0269  -20.1230   20.8233 C   0  0  0  0  0  0
  -29.1734  -18.7549   21.2246 C   0  0  0  0  0  0
  -29.6411  -17.9795   20.1906 C   0  0  0  0  0  0
  -29.3662  -20.3537   19.5104 C   0  0  0  0  0  0
  -30.0816  -16.6267   20.1302 C   0  0  0  0  0  0
  -30.0127  -15.5751   20.9710 C   0  0  0  0  0  0
  -30.4303  -22.4010   19.0051 C   0  0  0  0  0  0
  -28.9158  -18.2656   22.6189 C   0  0  0  0  0  0
  -32.1939  -23.0543   17.3321 C   0  0  0  0  0  0
  -29.0607  -25.1674   18.3427 C   0  0  0  0  0  0
  -30.5377  -24.7972   18.1365 C   0  0  0  0  0  0
  -28.8778  -26.6558   18.6491 C   0  0  0  0  0  0
  -30.7533  -23.3086   17.8087 C   0  0  2  0  0  0
  -29.4494  -21.5101   18.8211 N   0  0  0  0  0  0
  -31.0418  -22.5298   20.0697 O   0  0  0  0  0  0
  -29.7616  -18.8729   18.7064 S   0  0  0  0  0  0
  -31.4549  -12.3021   19.1357 H   0  0  0  0  0  0
  -30.2632  -11.2414   19.8240 H   0  0  0  0  0  0
  -29.7209  -11.7605   17.4252 H   0  0  0  0  0  0
  -29.6905  -13.4696   17.7812 H   0  0  0  0  0  0
  -27.8015  -11.3169   18.7988 H   0  0  0  0  0  0
  -27.3727  -12.6631   17.7780 H   0  0  0  0  0  0
  -27.7124  -14.2569   19.5775 H   0  0  0  0  0  0
  -28.6512  -11.9583   21.3581 H   0  0  0  0  0  0
  -28.4755  -13.6086   21.8619 H   0  0  0  0  0  0
  -25.2775   -9.5690   22.4748 H   0  0  0  0  0  0
  -24.0009   -7.4648   22.7480 H   0  0  0  0  0  0
  -21.0855   -8.8781   19.8947 H   0  0  0  0  0  0
  -22.3713  -10.9678   19.6159 H   0  0  0  0  0  0
  -21.2009   -7.6154   23.9718 H   0  0  0  0  0  0
  -21.1478   -6.0532   25.9080 H   0  0  0  0  0  0
  -22.0598   -2.7612   23.2856 H   0  0  0  0  0  0
  -22.4120  -11.9895   22.4770 H   0  0  0  0  0  0
  -21.1128  -13.1260   22.2577 H   0  0  0  0  0  0
  -24.6822  -15.8553   20.5218 H   0  0  0  0  0  0
  -26.3100  -15.6214   20.1310 H   0  0  0  0  0  0
  -26.7079  -32.5576   23.1187 H   0  0  0  0  0  0
  -25.0057  -33.9812   25.0503 H   0  0  0  0  0  0
  -22.6786  -31.3095   21.4161 H   0  0  0  0  0  0
  -23.3748  -35.9659   23.3311 H   0  0  0  0  0  0
  -24.3583  -36.8924   22.2047 H   0  0  0  0  0  0
  -23.7244  -37.6536   23.6639 H   0  0  0  0  0  0
  -26.0172  -31.6114   20.5902 H   0  0  0  0  0  0
  -26.8063  -30.9076   21.9752 H   0  0  0  0  0  0
  -28.0893  -29.1474   21.1642 H   0  0  0  0  0  0
  -26.0910  -25.9918   19.0128 H   0  0  0  0  0  0
  -23.9754  -27.2806   19.0576 H   0  0  0  0  0  0
  -23.7022  -30.5949   19.4051 H   0  0  0  0  0  0
  -22.7239  -29.2388   19.8787 H   0  0  0  0  0  0
  -25.1284  -36.1998   25.0834 H   0  0  0  0  0  0
  -20.9922  -28.3201   24.1463 H   0  0  0  0  0  0
  -20.5656  -26.2249   23.3597 H   0  0  0  0  0  0
  -21.6628  -26.7446   22.1216 H   0  0  0  0  0  0
  -19.6897  -25.6303   21.1226 H   0  0  0  0  0  0
  -19.6671  -27.3210   20.6751 H   0  0  0  0  0  0
  -17.4179  -26.6665   21.4026 H   0  0  0  0  0  0
  -18.0310  -26.0056   22.9011 H   0  0  0  0  0  0
  -19.7914  -30.7243   24.2299 H   0  0  0  0  0  0
  -17.5001  -31.6264   24.5162 H   0  0  0  0  0  0
  -15.5337  -30.2999   23.7636 H   0  0  0  0  0  0
  -15.8645  -28.0833   22.7048 H   0  0  0  0  0  0
  -24.5900  -30.7043   25.7803 H   0  0  0  0  0  0
  -24.8939  -32.2833   26.4962 H   0  0  0  0  0  0
  -25.8107  -30.8816   27.0205 H   0  0  0  0  0  0
  -26.2820  -29.6828   24.1114 H   0  0  0  0  0  0
  -27.4081  -29.7276   25.4491 H   0  0  0  0  0  0
  -27.8639  -30.4392   23.9178 H   0  0  0  0  0  0
  -27.2654  -33.3590   26.2107 H   0  0  0  0  0  0
  -28.3829  -32.6898   25.0308 H   0  0  0  0  0  0
  -28.0717  -31.8404   26.5370 H   0  0  0  0  0  0
  -28.2603  -38.0112   24.7515 H   0  0  0  0  0  0
  -28.1075  -36.2647   24.6290 H   0  0  0  0  0  0
  -27.2296  -37.1472   25.8863 H   0  0  0  0  0  0
  -20.9249  -29.8760   21.7003 H   0  0  0  0  0  0
  -26.0193  -38.2886   24.1398 H   0  0  0  0  0  0
  -28.7196  -20.8928   21.5180 H   0  0  0  0  0  0
  -30.6209  -16.4483   19.2070 H   0  0  0  0  0  0
  -29.4865  -15.6110   21.9114 H   0  0  0  0  0  0
  -28.5900  -19.0710   23.2768 H   0  0  0  0  0  0
  -29.8166  -17.8338   23.0560 H   0  0  0  0  0  0
  -28.1400  -17.4999   22.6326 H   0  0  0  0  0  0
  -32.3335  -22.0109   17.0463 H   0  0  0  0  0  0
  -32.9223  -23.2868   18.1098 H   0  0  0  0  0  0
  -32.4335  -23.6636   16.4610 H   0  0  0  0  0  0
  -28.6206  -24.5723   19.1438 H   0  0  0  0  0  0
  -28.4981  -24.9173   17.4422 H   0  0  0  0  0  0
  -31.1160  -25.0769   19.0192 H   0  0  0  0  0  0
  -30.9330  -25.3998   17.3176 H   0  0  0  0  0  0
  -28.2061  -27.1003   17.9101 H   0  0  0  0  0  0
  -29.8182  -27.1970   18.5399 H   0  0  0  0  0  0
  -30.0902  -23.0465   16.9822 H   0  0  0  0  0  0
  -29.0567  -21.5043   17.8893 H   0  0  0  0  0  0
  1 25  1  0  0  0
  1 30  2  0  0  0
  1 76  1  0  0  0
  2  3  1  0  0  0
  2 25  1  0  0  0
  2 87  1  0  0  0
  2 88  1  0  0  0
  3  4  1  0  0  0
  3 89  1  0  0  0
  3 90  1  0  0  0
  4  5  1  0  0  0
  4 91  1  0  0  0
  4 92  1  0  0  0
  5  6  1  0  0  0
  5 26  1  0  0  0
  5 93  1  0  0  0
  6 25  1  0  0  0
  6 94  1  0  0  0
  6 95  1  0  0  0
  7  8  2  0  0  0
  7 26  1  0  0  0
  7 29  1  0  0  0
  8  9  1  0  0  0
  8 22  1  0  0  0
  9 10  1  0  0  0
  9 27  2  0  0  0
 10 11  2  0  0  0
 10 15  1  0  0  0
 11 12  1  0  0  0
 11 96  1  0  0  0
 12 13  2  0  0  0
 12 97  1  0  0  0
 13 14  1  0  0  0
 13 31  1  0  0  0
 14 15  2  0  0  0
 14 98  1  0  0  0
 15 99  1  0  0  0
 16 17  2  0  0  0
 16 21  1  0  0  0
 16 31  1  0  0  0
 17 18  1  0  0  0
 17100  1  0  0  0
 18 19  2  0  0  0
 18101  1  0  0  0
 19 20  1  0  0  0
 19 24  1  0  0  0
 20 21  2  0  0  0
 20102  1  0  0  0
 21 23  1  0  0  0
 22 28  1  0  0  0
 22 32  2  0  0  0
 26 27  1  0  0  0
 28103  1  0  0  0
 28104  1  0  0  0
 29105  1  0  0  0
 29106  1  0  0  0
 33 34  1  0  0  0
 33 66  1  0  0  0
 33 70  2  0  0  0
 34 36  1  0  0  0
 34 59  1  0  0  0
 34107  1  0  0  0
 35 44  2  0  0  0
 35 45  1  0  0  0
 35 68  1  0  0  0
 36 56  1  0  0  0
 36108  1  0  0  0
 37 39  1  0  0  0
 37 47  1  0  0  0
 37 66  1  0  0  0
 37109  1  0  0  0
 38 43  2  0  0  0
 38 46  1  0  0  0
 38 47  1  0  0  0
 39 64  1  0  0  0
 39 67  2  0  0  0
 40 52  1  0  0  0
 40 53  2  0  0  0
 40 58  1  0  0  0
 41110  1  0  0  0
 41111  1  0  0  0
 41112  1  0  0  0
 41 48  1  0  0  0
 42 43  1  0  0  0
 42 66  1  0  0  0
 42113  1  0  0  0
 42114  1  0  0  0
 43 44  1  0  0  0
 44115  1  0  0  0
 45 46  2  0  0  0
 45116  1  0  0  0
 46117  1  0  0  0
 47118  1  0  0  0
 47119  1  0  0  0
 48 56  1  0  0  0
 48 65  1  0  0  0
 48120  1  0  0  0
 49 50  1  0  0  0
 49 53  1  0  0  0
 49 64  1  0  0  0
 49121  1  0  0  0
 50 51  1  0  0  0
 50122  1  0  0  0
 50123  1  0  0  0
 51 52  1  0  0  0
 51124  1  0  0  0
 51125  1  0  0  0
 52126  1  0  0  0
 52127  1  0  0  0
 53 54  1  0  0  0
 54 55  2  0  0  0
 54128  1  0  0  0
 55 57  1  0  0  0
 55129  1  0  0  0
 56 69  2  0  0  0
 57 58  2  0  0  0
 57130  1  0  0  0
 58131  1  0  0  0
 59 60  1  0  0  0
 59 61  1  0  0  0
 59 62  1  0  0  0
 60132  1  0  0  0
 60133  1  0  0  0
 60134  1  0  0  0
 61135  1  0  0  0
 61136  1  0  0  0
 61137  1  0  0  0
 62138  1  0  0  0
 62139  1  0  0  0
 62140  1  0  0  0
 63 65  1  0  0  0
 63141  1  0  0  0
 63142  1  0  0  0
 63143  1  0  0  0
 64144  1  0  0  0
 65145  1  0  0  0
 68 82  1  0  0  0
 71 72  1  0  0  0
 71 74  2  0  0  0
 71146  1  0  0  0
 72 73  2  0  0  0
 72 78  1  0  0  0
 73 75  1  0  0  0
 73 86  1  0  0  0
 74 84  1  0  0  0
 74 86  1  0  0  0
 75 76  2  0  0  0
 75147  1  0  0  0
 76148  1  0  0  0
 77 83  1  0  0  0
 77 84  1  0  0  0
 77 85  2  0  0  0
 78149  1  0  0  0
 78150  1  0  0  0
 78151  1  0  0  0
 79152  1  0  0  0
 79153  1  0  0  0
 79154  1  0  0  0
 79 83  1  0  0  0
 80 81  1  0  0  0
 80 82  1  0  0  0
 80155  1  0  0  0
 80156  1  0  0  0
 81 83  1  0  0  0
 81157  1  0  0  0
 81158  1  0  0  0
 82159  1  0  0  0
 82160  1  0  0  0
 83161  1  0  0  0
 84162  1  0  0  0
M  ISO  4   1 100  68 101  76 100  82 101
M  END
> <chiral flag>
0

> <version>
0

> <s_m_source_file>
/data/baiqing/PycharmProjects/Reinvent-master-3.2/result/LINK_invent/BTK/process_docking_weight1_custom_product_contain_oxygen_bond_distance_aromatic_linkinvent_7_9_3/rearranged_h_0189.sdf

> <i_m_source_file_index>
74

> <r_mmod_Potential_Energy-OPLS-2005>
-20.6203804016113

> <r_mmod_Stretch_Energy-OPLS-2005>
29.2906894683838

> <r_mmod_Bend_Energy-OPLS-2005>
104.68189239502

> <r_mmod_Torsional_Energy-OPLS-2005>
262.731658935547

> <r_mmod_Improper_Torsional_Energy-OPLS-2005>
7.42609786987305

> <r_mmod_Van_der_Waal_Energy-OPLS-2005>
137.617706298828

> <r_mmod_Electrostatic_Energy-OPLS-2005>
-358.713348388672

> <r_mmod_Solvation_Energy-OPLS-2005>
-216.724243164062

> <b_mmod_Minimization_Converged-OPLS-2005>
0

> <r_mmod_RMS_Derivative-OPLS-2005>
1.10134947299957

$$$$
74
                    3D
 Structure written by MMmdl.
159167  0  0  1  0            999 V2000
  -29.8633  -12.9303   19.9839 C   0  0  0  0  0  0
  -30.5356  -11.8869   18.9532 C   0  0  0  0  0  0
  -29.4012  -12.6314   17.7041 C   0  0  0  0  0  0
  -28.1376  -13.7191   18.3221 C   0  0  0  0  0  0
  -27.9390  -14.1570   20.0830 C   0  0  2  0  0  0
  -29.0767  -13.4327   21.3050 C   0  0  0  0  0  0
  -25.5206  -14.5642   20.0287 C   0  0  0  0  0  0
  -24.1775  -13.9886   20.4737 C   0  0  0  0  0  0
  -24.8557  -12.0458   21.8797 C   0  0  0  0  0  0
  -24.0497  -10.5189   21.9349 C   0  0  0  0  0  0
  -24.6422   -9.2716   22.1871 C   0  0  0  0  0  0
  -23.9307   -8.0303   22.0712 C   0  0  0  0  0  0
  -22.6357   -7.9282   21.4945 C   0  0  0  0  0  0
  -22.0541   -9.0669   21.0300 C   0  0  0  0  0  0
  -22.6562  -10.2401   21.4575 C   0  0  0  0  0  0
  -21.7331   -6.0268   22.5212 C   0  0  0  0  0  0
  -21.4284   -6.5468   23.7983 C   0  0  0  0  0  0
  -21.3624   -5.6778   24.9054 C   0  0  0  0  0  0
  -21.5903   -4.2975   24.7301 C   0  0  0  0  0  0
  -21.8601   -3.7848   23.4488 C   0  0  0  0  0  0
  -21.9247   -4.6504   22.3470 C   0  0  0  0  0  0
  -22.7615  -14.5288   20.0148 C   0  0  0  0  0  0
  -22.1826   -4.1676   21.1086 F   0  0  0  0  0  0
  -21.5475   -3.4575   25.7908 F   0  0  0  0  0  0
  -30.1625  -12.2291   20.6551 N   0  0  0  0  0  0
  -26.7954  -13.6937   20.5993 N   0  0  0  0  0  0
  -26.5129  -12.2480   21.6753 N   0  0  0  0  0  0
  -21.7024  -13.7009   19.8758 N   0  0  0  0  0  0
  -25.6876  -15.8125   19.5542 N   0  0  0  0  0  0
  -30.9994  -13.7200   20.1657 O   0  0  0  0  0  0
  -21.8628   -6.8075   21.4099 O   0  0  0  0  0  0
  -22.4247  -15.6294   20.3302 O   0  0  0  0  0  0
  -24.6828  -31.8013   23.1624 C   0  0  0  0  0  0
  -25.9455  -32.4412   23.8098 C   0  0  1  0  0  0
  -26.6905  -26.4673   20.4739 C   0  0  0  0  0  0
  -25.6066  -33.8259   24.1957 N   0  0  0  0  0  0
  -23.4873  -30.4378   21.5146 C   0  0  2  0  0  0
  -24.8731  -28.7857   20.0862 C   0  0  0  0  0  0
  -22.7686  -29.4386   22.4625 C   0  0  0  0  0  0
  -18.0341  -28.1408   22.8460 C   0  0  0  0  0  0
  -24.1502  -36.7117   23.2658 C   0  0  0  0  0  0
  -26.0620  -30.4600   21.4596 C   0  0  0  0  0  0
  -26.0329  -29.0161   20.8295 C   0  0  0  0  0  0
  -26.9704  -27.8688   20.9904 C   0  0  0  0  0  0
  -25.6850  -26.5279   19.5034 C   0  0  0  0  0  0
  -24.7724  -27.5972   19.3571 C   0  0  0  0  0  0
  -23.7258  -29.7940   20.1202 C   0  0  0  0  0  0
  -25.4156  -36.2864   24.0278 C   0  0  1  0  0  0
  -20.5965  -28.3764   23.1118 C   0  0  2  0  0  0
  -20.6795  -26.9422   22.5383 C   0  0  0  0  0  0
  -19.5763  -26.6362   21.5206 C   0  0  0  0  0  0
  -18.1958  -26.7937   22.1625 C   0  0  0  0  0  0
  -19.1603  -28.8916   23.2785 C   0  0  0  0  0  0
  -18.9514  -30.1504   23.8833 C   0  0  0  0  0  0
  -17.6505  -30.6596   24.0557 C   0  0  0  0  0  0
  -25.9150  -34.9252   23.4942 C   0  0  0  0  0  0
  -16.5397  -29.9075   23.6354 C   0  0  0  0  0  0
  -16.7326  -28.6493   23.0377 C   0  0  0  0  0  0
  -26.4611  -31.6497   25.0751 C   0  0  0  0  0  0
  -25.3676  -31.3846   26.1370 C   0  0  0  0  0  0
  -27.0554  -30.2821   24.6753 C   0  0  0  0  0  0
  -27.6036  -32.4397   25.7560 C   0  0  0  0  0  0
  -27.5555  -37.1723   24.8470 C   0  0  0  0  0  0
  -21.4347  -29.3029   22.3407 N   0  0  0  0  0  0
  -26.4265  -37.3631   23.9409 N   0  0  0  0  0  0
  -24.7711  -30.9443   22.0929 N   0  0  0  0  0  0
  -23.4189  -28.7970   23.2917 O   0  0  0  0  0  0
  -27.1358  -25.0144   20.8251 O   0  0  0  0  0  0
  -26.5781  -34.8830   22.4550 O   0  0  0  0  0  0
  -23.5866  -32.1187   23.6588 O   0  0  0  0  0  0
  -23.6279  -11.8942   19.8967 C   0  0  0  0  0  0
  -25.2503  -12.2339   19.7873 C   0  0  0  0  0  0
  -24.1626  -14.8296   22.6915 C   0  0  0  0  0  0
  -25.2012  -17.8841   22.2408 C   0  0  0  0  0  0
  -26.7270   -9.9411   19.3424 C   0  0  0  0  0  0
  -23.7844  -20.2259   22.3088 C   0  0  0  0  0  0
  -26.2001  -21.4758   21.5848 C   0  0  0  0  0  0
  -26.2146  -23.4211   20.9682 C   0  0  0  0  0  0
  -26.8890  -11.4655   19.2929 C   0  0  2  0  0  0
  -25.1130  -19.7573   21.7052 C   0  0  1  0  0  0
  -25.3571  -14.1147   22.2842 N   0  0  0  0  0  0
  -24.2568  -16.5921   22.3766 N   0  0  0  0  0  0
  -28.5353  -11.7302   19.9486 N   0  0  0  0  0  0
  -26.3566  -17.6400   22.5918 O   0  0  0  0  0  0
  -22.6456  -13.0689   22.2452 S   0  0  0  0  0  0
  -31.5928  -12.0428   18.6583 H   0  0  0  0  0  0
  -30.5048  -10.7950   18.8135 H   0  0  0  0  0  0
  -28.9312  -11.8170   17.1514 H   0  0  0  0  0  0
  -29.9896  -13.1496   16.9449 H   0  0  0  0  0  0
  -27.1840  -13.6078   17.8066 H   0  0  0  0  0  0
  -28.4473  -14.6741   17.9004 H   0  0  0  0  0  0
  -27.9951  -15.2375   20.2167 H   0  0  0  0  0  0
  -28.6264  -13.0043   22.2038 H   0  0  0  0  0  0
  -29.5520  -14.2687   21.8613 H   0  0  0  0  0  0
  -25.6737   -9.2535   22.5017 H   0  0  0  0  0  0
  -24.4358   -7.1229   22.3664 H   0  0  0  0  0  0
  -21.0586   -9.0601   20.6114 H   0  0  0  0  0  0
  -21.9328  -10.9980   21.2260 H   0  0  0  0  0  0
  -21.2687   -7.6072   23.9276 H   0  0  0  0  0  0
  -21.1474   -6.0752   25.8864 H   0  0  0  0  0  0
  -22.0246   -2.7281   23.3100 H   0  0  0  0  0  0
  -21.8847  -12.7135   19.7858 H   0  0  0  0  0  0
  -20.7676  -14.0778   19.7961 H   0  0  0  0  0  0
  -24.9005  -16.4427   19.4799 H   0  0  0  0  0  0
  -26.5748  -16.2999   19.5819 H   0  0  0  0  0  0
  -26.7497  -32.4754   23.0749 H   0  0  0  0  0  0
  -25.0118  -33.9318   25.0050 H   0  0  0  0  0  0
  -22.8167  -31.2853   21.3608 H   0  0  0  0  0  0
  -23.3782  -35.9426   23.3274 H   0  0  0  0  0  0
  -24.3564  -36.8822   22.2080 H   0  0  0  0  0  0
  -23.7242  -37.6276   23.6761 H   0  0  0  0  0  0
  -26.3073  -31.1600   20.6596 H   0  0  0  0  0  0
  -26.9156  -30.4979   22.1226 H   0  0  0  0  0  0
  -27.7954  -27.9952   21.6778 H   0  0  0  0  0  0
  -25.4478  -25.6181   18.9688 H   0  0  0  0  0  0
  -23.9181  -27.4486   18.7107 H   0  0  0  0  0  0
  -23.9537  -30.5768   19.3959 H   0  0  0  0  0  0
  -22.8103  -29.3186   19.7632 H   0  0  0  0  0  0
  -25.1365  -36.1622   25.0764 H   0  0  0  0  0  0
  -21.0079  -28.3403   24.1234 H   0  0  0  0  0  0
  -20.5651  -26.2402   23.3652 H   0  0  0  0  0  0
  -21.6658  -26.7366   22.1210 H   0  0  0  0  0  0
  -19.6911  -25.6256   21.1280 H   0  0  0  0  0  0
  -19.6694  -27.3136   20.6705 H   0  0  0  0  0  0
  -17.4218  -26.6700   21.4037 H   0  0  0  0  0  0
  -18.0354  -26.0092   22.9033 H   0  0  0  0  0  0
  -19.8000  -30.7334   24.2157 H   0  0  0  0  0  0
  -17.5066  -31.6268   24.5167 H   0  0  0  0  0  0
  -15.5393  -30.2961   23.7706 H   0  0  0  0  0  0
  -15.8730  -28.0790   22.7121 H   0  0  0  0  0  0
  -24.5878  -30.7168   25.7696 H   0  0  0  0  0  0
  -24.8859  -32.3078   26.4598 H   0  0  0  0  0  0
  -25.7863  -30.9154   27.0286 H   0  0  0  0  0  0
  -26.3264  -29.6381   24.1830 H   0  0  0  0  0  0
  -27.3989  -29.7332   25.5533 H   0  0  0  0  0  0
  -27.9261  -30.3907   24.0285 H   0  0  0  0  0  0
  -27.2545  -33.3761   26.1930 H   0  0  0  0  0  0
  -28.3950  -32.6876   25.0474 H   0  0  0  0  0  0
  -28.0603  -31.8696   26.5665 H   0  0  0  0  0  0
  -28.2542  -38.0047   24.7507 H   0  0  0  0  0  0
  -28.1085  -36.2565   24.6317 H   0  0  0  0  0  0
  -27.2265  -37.1371   25.8872 H   0  0  0  0  0  0
  -20.9607  -29.8725   21.6537 H   0  0  0  0  0  0
  -26.0086  -38.2670   24.1428 H   0  0  0  0  0  0
  -23.0864  -11.1782   19.2875 H   0  0  0  0  0  0
  -25.8281   -9.6286   18.8114 H   0  0  0  0  0  0
  -26.6603   -9.5826   20.3659 H   0  0  0  0  0  0
  -27.5766   -9.4366   18.8784 H   0  0  0  0  0  0
  -23.0332  -19.4347   22.3046 H   0  0  0  0  0  0
  -23.3767  -21.0683   21.7512 H   0  0  0  0  0  0
  -23.9223  -20.5529   23.3384 H   0  0  0  0  0  0
  -26.4592  -21.6023   22.6366 H   0  0  0  0  0  0
  -27.1277  -21.1079   21.1415 H   0  0  0  0  0  0
  -25.3027  -23.7910   21.4376 H   0  0  0  0  0  0
  -25.9261  -23.2973   19.9252 H   0  0  0  0  0  0
  -26.9492  -11.5849   18.2159 H   0  0  0  0  0  0
  -24.9104  -19.5942   20.6457 H   0  0  0  0  0  0
  -23.3313  -16.8857   22.0910 H   0  0  0  0  0  0
  -28.7712  -10.9930   20.5924 H   0  0  0  0  0  0
  1 25  1  0  0  0
  1 30  2  0  0  0
  1 83  1  0  0  0
  2  3  1  0  0  0
  2 25  1  0  0  0
  2 86  1  0  0  0
  2 87  1  0  0  0
  3  4  1  0  0  0
  3 88  1  0  0  0
  3 89  1  0  0  0
  4  5  1  0  0  0
  4 90  1  0  0  0
  4 91  1  0  0  0
  5  6  1  0  0  0
  5 26  1  0  0  0
  5 92  1  0  0  0
  6 25  1  0  0  0
  6 93  1  0  0  0
  6 94  1  0  0  0
  7  8  2  0  0  0
  7 26  1  0  0  0
  7 29  1  0  0  0
  8  9  1  0  0  0
  8 22  1  0  0  0
  9 10  1  0  0  0
  9 27  2  0  0  0
 10 11  2  0  0  0
 10 15  1  0  0  0
 11 12  1  0  0  0
 11 95  1  0  0  0
 12 13  2  0  0  0
 12 96  1  0  0  0
 13 14  1  0  0  0
 13 31  1  0  0  0
 14 15  2  0  0  0
 14 97  1  0  0  0
 15 98  1  0  0  0
 16 17  2  0  0  0
 16 21  1  0  0  0
 16 31  1  0  0  0
 17 18  1  0  0  0
 17 99  1  0  0  0
 18 19  2  0  0  0
 18100  1  0  0  0
 19 20  1  0  0  0
 19 24  1  0  0  0
 20 21  2  0  0  0
 20101  1  0  0  0
 21 23  1  0  0  0
 22 28  1  0  0  0
 22 32  2  0  0  0
 26 27  1  0  0  0
 28102  1  0  0  0
 28103  1  0  0  0
 29104  1  0  0  0
 29105  1  0  0  0
 33 34  1  0  0  0
 33 66  1  0  0  0
 33 70  2  0  0  0
 34 36  1  0  0  0
 34 59  1  0  0  0
 34106  1  0  0  0
 35 44  2  0  0  0
 35 45  1  0  0  0
 35 68  1  0  0  0
 36 56  1  0  0  0
 36107  1  0  0  0
 37 39  1  0  0  0
 37 47  1  0  0  0
 37 66  1  0  0  0
 37108  1  0  0  0
 38 43  2  0  0  0
 38 46  1  0  0  0
 38 47  1  0  0  0
 39 64  1  0  0  0
 39 67  2  0  0  0
 40 52  1  0  0  0
 40 53  2  0  0  0
 40 58  1  0  0  0
 41109  1  0  0  0
 41110  1  0  0  0
 41111  1  0  0  0
 41 48  1  0  0  0
 42 43  1  0  0  0
 42 66  1  0  0  0
 42112  1  0  0  0
 42113  1  0  0  0
 43 44  1  0  0  0
 44114  1  0  0  0
 45 46  2  0  0  0
 45115  1  0  0  0
 46116  1  0  0  0
 47117  1  0  0  0
 47118  1  0  0  0
 48 56  1  0  0  0
 48 65  1  0  0  0
 48119  1  0  0  0
 49 50  1  0  0  0
 49 53  1  0  0  0
 49 64  1  0  0  0
 49120  1  0  0  0
 50 51  1  0  0  0
 50121  1  0  0  0
 50122  1  0  0  0
 51 52  1  0  0  0
 51123  1  0  0  0
 51124  1  0  0  0
 52125  1  0  0  0
 52126  1  0  0  0
 53 54  1  0  0  0
 54 55  2  0  0  0
 54127  1  0  0  0
 55 57  1  0  0  0
 55128  1  0  0  0
 56 69  2  0  0  0
 57 58  2  0  0  0
 57129  1  0  0  0
 58130  1  0  0  0
 59 60  1  0  0  0
 59 61  1  0  0  0
 59 62  1  0  0  0
 60131  1  0  0  0
 60132  1  0  0  0
 60133  1  0  0  0
 61134  1  0  0  0
 61135  1  0  0  0
 61136  1  0  0  0
 62137  1  0  0  0
 62138  1  0  0  0
 62139  1  0  0  0
 63 65  1  0  0  0
 63140  1  0  0  0
 63141  1  0  0  0
 63142  1  0  0  0
 64143  1  0  0  0
 65144  1  0  0  0
 68 78  1  0  0  0
 71 72  2  0  0  0
 71 85  1  0  0  0
 71145  1  0  0  0
 72 79  1  0  0  0
 72 81  1  0  0  0
 73 81  2  0  0  0
 73 82  1  0  0  0
 73 85  1  0  0  0
 74 80  1  0  0  0
 74 82  1  0  0  0
 74 84  2  0  0  0
 75146  1  0  0  0
 75147  1  0  0  0
 75148  1  0  0  0
 75 79  1  0  0  0
 76149  1  0  0  0
 76150  1  0  0  0
 76151  1  0  0  0
 76 80  1  0  0  0
 77 78  1  0  0  0
 77 80  1  0  0  0
 77152  1  0  0  0
 77153  1  0  0  0
 78154  1  0  0  0
 78155  1  0  0  0
 79 83  1  0  0  0
 79156  1  0  0  0
 80157  1  0  0  0
 82158  1  0  0  0
 83159  1  0  0  0
M  ISO  4   1 100  68 101  78 101  83 100
M  END
> <chiral flag>
0

> <version>
0

> <s_m_source_file>
/data/baiqing/PycharmProjects/Reinvent-master-3.2/result/LINK_invent/BTK/process_docking_weight1_custom_product_contain_oxygen_bond_distance_aromatic_linkinvent_7_9_3/rearranged_h_0189.sdf

> <i_m_source_file_index>
75

> <r_mmod_Potential_Energy-OPLS-2005>
24422.931640625

> <r_mmod_Stretch_Energy-OPLS-2005>
13500.8349609375

> <r_mmod_Bend_Energy-OPLS-2005>
1953.95654296875

> <r_mmod_Torsional_Energy-OPLS-2005>
545.134094238281

> <r_mmod_Improper_Torsional_Energy-OPLS-2005>
68.4002075195312

> <r_mmod_Van_der_Waal_Energy-OPLS-2005>
5390.9482421875

> <r_mmod_Electrostatic_Energy-OPLS-2005>
-534.907836914062

> <r_mmod_Solvation_Energy-OPLS-2005>
-267.876068115234

> <b_mmod_Minimization_Converged-OPLS-2005>
0

> <r_mmod_RMS_Derivative-OPLS-2005>
8.62988567352295

$$$$
75
                    3D
 Structure written by MMmdl.
164172  0  0  1  0            999 V2000
  -30.7271  -14.3987   20.5629 C   0  0  0  0  0  0
  -30.4076  -12.2495   19.4285 C   0  0  0  0  0  0
  -29.4907  -12.4981   18.2112 C   0  0  0  0  0  0
  -28.0077  -12.3897   18.6167 C   0  0  0  0  0  0
  -27.6602  -13.2098   19.8882 C   0  0  2  0  0  0
  -28.7014  -12.9642   21.0078 C   0  0  0  0  0  0
  -25.2526  -13.8156   20.5701 C   0  0  0  0  0  0
  -24.1805  -13.0411   20.9206 C   0  0  0  0  0  0
  -24.6368  -11.6888   20.8737 C   0  0  0  0  0  0
  -23.9041  -10.4294   21.0383 C   0  0  0  0  0  0
  -24.3590   -9.4224   21.9172 C   0  0  0  0  0  0
  -23.6289   -8.2235   22.0711 C   0  0  0  0  0  0
  -22.4257   -8.0302   21.3521 C   0  0  0  0  0  0
  -21.9909   -9.0267   20.4603 C   0  0  0  0  0  0
  -22.7222  -10.2148   20.3017 C   0  0  0  0  0  0
  -21.6826   -6.0768   22.5310 C   0  0  0  0  0  0
  -21.4003   -6.5652   23.8258 C   0  0  0  0  0  0
  -21.3654   -5.6786   24.9209 C   0  0  0  0  0  0
  -21.6041   -4.3051   24.7235 C   0  0  0  0  0  0
  -21.8787   -3.8160   23.4348 C   0  0  0  0  0  0
  -21.9159   -4.6998   22.3422 C   0  0  0  0  0  0
  -22.7809  -13.5199   21.1870 C   0  0  0  0  0  0
  -22.1595   -4.2174   21.0996 F   0  0  0  0  0  0
  -21.5661   -3.4530   25.7745 F   0  0  0  0  0  0
  -30.0437  -13.2296   20.4610 N   0  0  0  0  0  0
  -26.3011  -12.9337   20.3455 N   0  0  0  0  0  0
  -25.9327  -11.6500   20.5845 N   0  0  0  0  0  0
  -22.0467  -12.8184   22.0424 N   0  0  0  0  0  0
  -25.4146  -15.1875   20.4044 N   0  0  0  0  0  0
  -31.8605  -14.5636   20.0983 O   0  0  0  0  0  0
  -21.6596   -6.8907   21.4256 O   0  0  0  0  0  0
  -22.3519  -14.5541   20.6784 O   0  0  0  0  0  0
  -24.6065  -31.8697   23.2133 C   0  0  0  0  0  0
  -25.8994  -32.4806   23.8393 C   0  0  1  0  0  0
  -27.2319  -27.4919   20.0893 C   0  0  0  0  0  0
  -25.5906  -33.8607   24.2325 N   0  0  0  0  0  0
  -23.3891  -30.4883   21.5603 C   0  0  2  0  0  0
  -24.8306  -28.9567   20.1203 C   0  0  0  0  0  0
  -22.7356  -29.4636   22.5127 C   0  0  0  0  0  0
  -18.0241  -28.1342   22.8521 C   0  0  0  0  0  0
  -24.1486  -36.7317   23.2640 C   0  0  0  0  0  0
  -25.9083  -30.8526   21.3542 C   0  0  0  0  0  0
  -25.9851  -29.4893   20.7086 C   0  0  0  0  0  0
  -27.1890  -28.7650   20.6846 C   0  0  0  0  0  0
  -26.0649  -26.9504   19.5058 C   0  0  0  0  0  0
  -24.8634  -27.6858   19.5153 C   0  0  0  0  0  0
  -23.5857  -29.8108   20.1763 C   0  0  0  0  0  0
  -25.4111  -36.3097   24.0337 C   0  0  1  0  0  0
  -20.5828  -28.3601   23.1391 C   0  0  2  0  0  0
  -20.6737  -26.9357   22.5444 C   0  0  0  0  0  0
  -19.5727  -26.6370   21.5221 C   0  0  0  0  0  0
  -18.1900  -26.7912   22.1614 C   0  0  0  0  0  0
  -19.1489  -28.8796   23.2943 C   0  0  0  0  0  0
  -18.9416  -30.1426   23.8923 C   0  0  0  0  0  0
  -17.6411  -30.6568   24.0562 C   0  0  0  0  0  0
  -25.9032  -34.9459   23.5112 C   0  0  0  0  0  0
  -16.5304  -29.9061   23.6335 C   0  0  0  0  0  0
  -16.7231  -28.6468   23.0383 C   0  0  0  0  0  0
  -26.4455  -31.6602   25.0708 C   0  0  0  0  0  0
  -25.3760  -31.3681   26.1485 C   0  0  0  0  0  0
  -27.0242  -30.3053   24.5999 C   0  0  0  0  0  0
  -27.6006  -32.4369   25.7490 C   0  0  0  0  0  0
  -27.5588  -37.1811   24.8448 C   0  0  0  0  0  0
  -21.4097  -29.2981   22.3836 N   0  0  0  0  0  0
  -26.4293  -37.3788   23.9397 N   0  0  0  0  0  0
  -24.6534  -31.0839   22.1012 N   0  0  0  0  0  0
  -23.4164  -28.8186   23.3147 O   0  0  0  0  0  0
  -28.4403  -26.8621   20.0285 O   0  0  0  0  0  0
  -26.5585  -34.8903   22.4664 O   0  0  0  0  0  0
  -23.5285  -32.1430   23.7577 O   0  0  0  0  0  0
  -30.0025  -18.7277   19.1499 C   0  0  0  0  0  0
  -29.5258  -18.9118   20.4268 C   0  0  0  0  0  0
  -30.0294  -16.7009   20.5180 C   0  0  0  0  0  0
  -29.7437  -22.9202   22.6595 C   0  0  0  0  0  0
  -28.3227  -23.9254   18.5409 C   0  0  0  0  0  0
  -30.2185  -25.5399   18.5797 C   0  0  0  0  0  0
  -29.0075  -20.1933   21.0066 C   0  0  0  0  0  0
  -30.2374  -23.6706   20.2361 C   0  0  0  0  0  0
  -28.5214  -25.5257   20.4876 C   0  0  0  0  0  0
  -29.5425  -22.6285   21.1558 C   0  0  1  0  0  0
  -29.3116  -24.6592   19.4751 C   0  0  0  0  0  0
  -29.5282  -17.7394   21.1929 N   0  0  0  0  0  0
  -30.0416  -15.4150   21.0919 N   0  0  0  0  0  0
  -30.0005  -21.2644   20.8090 N   0  3  0  0  0  0
  -30.5206  -17.0933   18.8698 S   0  0  0  0  0  0
  -31.4581  -12.3055   19.1412 H   0  0  0  0  0  0
  -30.2648  -11.2390   19.8128 H   0  0  0  0  0  0
  -29.7133  -11.7861   17.4146 H   0  0  0  0  0  0
  -29.6875  -13.4888   17.7980 H   0  0  0  0  0  0
  -27.7868  -11.3338   18.7853 H   0  0  0  0  0  0
  -27.3670  -12.7040   17.7908 H   0  0  0  0  0  0
  -27.7103  -14.2646   19.6189 H   0  0  0  0  0  0
  -28.6488  -11.9287   21.3492 H   0  0  0  0  0  0
  -28.4794  -13.5658   21.8899 H   0  0  0  0  0  0
  -25.2729   -9.5736   22.4761 H   0  0  0  0  0  0
  -24.0017   -7.4585   22.7372 H   0  0  0  0  0  0
  -21.0865   -8.8795   19.8860 H   0  0  0  0  0  0
  -22.3697  -10.9709   19.6116 H   0  0  0  0  0  0
  -21.1995   -7.6160   23.9814 H   0  0  0  0  0  0
  -21.1487   -6.0494   25.9131 H   0  0  0  0  0  0
  -22.0569   -2.7628   23.2828 H   0  0  0  0  0  0
  -22.4093  -11.9838   22.4800 H   0  0  0  0  0  0
  -21.1064  -13.1160   22.2576 H   0  0  0  0  0  0
  -24.6308  -15.8272   20.4852 H   0  0  0  0  0  0
  -26.2635  -15.6438   20.0960 H   0  0  0  0  0  0
  -26.7071  -32.5486   23.1165 H   0  0  0  0  0  0
  -25.0074  -33.9765   25.0480 H   0  0  0  0  0  0
  -22.6786  -31.3050   21.4233 H   0  0  0  0  0  0
  -23.3741  -35.9654   23.3274 H   0  0  0  0  0  0
  -24.3606  -36.8945   22.2062 H   0  0  0  0  0  0
  -23.7209  -37.6511   23.6647 H   0  0  0  0  0  0
  -26.0065  -31.6174   20.5830 H   0  0  0  0  0  0
  -26.8004  -30.9029   21.9648 H   0  0  0  0  0  0
  -28.0874  -29.1812   21.1167 H   0  0  0  0  0  0
  -26.0848  -25.9825   19.0282 H   0  0  0  0  0  0
  -23.9777  -27.2725   19.0559 H   0  0  0  0  0  0
  -23.6709  -30.5743   19.4043 H   0  0  0  0  0  0
  -22.7132  -29.2128   19.9067 H   0  0  0  0  0  0
  -25.1298  -36.1949   25.0842 H   0  0  0  0  0  0
  -20.9887  -28.3094   24.1520 H   0  0  0  0  0  0
  -20.5631  -26.2184   23.3600 H   0  0  0  0  0  0
  -21.6607  -26.7443   22.1218 H   0  0  0  0  0  0
  -19.6870  -25.6278   21.1234 H   0  0  0  0  0  0
  -19.6660  -27.3209   20.6775 H   0  0  0  0  0  0
  -17.4190  -26.6710   21.3983 H   0  0  0  0  0  0
  -18.0264  -25.9997   22.8951 H   0  0  0  0  0  0
  -19.7886  -30.7252   24.2306 H   0  0  0  0  0  0
  -17.4948  -31.6249   24.5141 H   0  0  0  0  0  0
  -15.5311  -30.2952   23.7641 H   0  0  0  0  0  0
  -15.8639  -28.0759   22.7153 H   0  0  0  0  0  0
  -24.5995  -30.6938   25.7876 H   0  0  0  0  0  0
  -24.8894  -32.2812   26.4928 H   0  0  0  0  0  0
  -25.8182  -30.8920   27.0239 H   0  0  0  0  0  0
  -26.2726  -29.6858   24.1086 H   0  0  0  0  0  0
  -27.4070  -29.7230   25.4383 H   0  0  0  0  0  0
  -27.8544  -30.4407   23.9058 H   0  0  0  0  0  0
  -27.2582  -33.3666   26.2062 H   0  0  0  0  0  0
  -28.3835  -32.6958   25.0351 H   0  0  0  0  0  0
  -28.0642  -31.8503   26.5424 H   0  0  0  0  0  0
  -28.2592  -38.0130   24.7559 H   0  0  0  0  0  0
  -28.1103  -36.2665   24.6205 H   0  0  0  0  0  0
  -27.2313  -37.1399   25.8854 H   0  0  0  0  0  0
  -20.9256  -29.8694   21.7056 H   0  0  0  0  0  0
  -26.0157  -38.2849   24.1432 H   0  0  0  0  0  0
  -30.0816  -19.4436   18.3433 H   0  0  0  0  0  0
  -29.4100  -23.9236   22.9241 H   0  0  0  0  0  0
  -30.7888  -22.8389   22.9538 H   0  0  0  0  0  0
  -29.1724  -22.2276   23.2777 H   0  0  0  0  0  0
  -28.8381  -23.2441   17.8628 H   0  0  0  0  0  0
  -27.7679  -24.6376   17.9284 H   0  0  0  0  0  0
  -27.5773  -23.3465   19.0851 H   0  0  0  0  0  0
  -30.7879  -24.9389   17.8700 H   0  0  0  0  0  0
  -30.9251  -26.1225   19.1742 H   0  0  0  0  0  0
  -29.6354  -26.2466   17.9852 H   0  0  0  0  0  0
  -28.7993  -20.0776   22.0708 H   0  0  0  0  0  0
  -28.0638  -20.4563   20.5266 H   0  0  0  0  0  0
  -30.8618  -23.1639   19.4990 H   0  0  0  0  0  0
  -30.9526  -24.2462   20.8279 H   0  0  0  0  0  0
  -29.0480  -25.5897   21.4393 H   0  0  0  0  0  0
  -27.5497  -25.0861   20.7196 H   0  0  0  0  0  0
  -28.4711  -22.6671   20.9696 H   0  0  0  0  0  0
  -29.2504  -15.1831   21.6692 H   0  0  0  0  0  0
  -30.2147  -21.2504   19.8252 H   0  0  0  0  0  0
  -30.8482  -21.0325   21.3047 H   0  0  0  0  0  0
  1 25  1  0  0  0
  1 30  2  0  0  0
  1 83  1  0  0  0
  2  3  1  0  0  0
  2 25  1  0  0  0
  2 86  1  0  0  0
  2 87  1  0  0  0
  3  4  1  0  0  0
  3 88  1  0  0  0
  3 89  1  0  0  0
  4  5  1  0  0  0
  4 90  1  0  0  0
  4 91  1  0  0  0
  5  6  1  0  0  0
  5 26  1  0  0  0
  5 92  1  0  0  0
  6 25  1  0  0  0
  6 93  1  0  0  0
  6 94  1  0  0  0
  7  8  2  0  0  0
  7 26  1  0  0  0
  7 29  1  0  0  0
  8  9  1  0  0  0
  8 22  1  0  0  0
  9 10  1  0  0  0
  9 27  2  0  0  0
 10 11  2  0  0  0
 10 15  1  0  0  0
 11 12  1  0  0  0
 11 95  1  0  0  0
 12 13  2  0  0  0
 12 96  1  0  0  0
 13 14  1  0  0  0
 13 31  1  0  0  0
 14 15  2  0  0  0
 14 97  1  0  0  0
 15 98  1  0  0  0
 16 17  2  0  0  0
 16 21  1  0  0  0
 16 31  1  0  0  0
 17 18  1  0  0  0
 17 99  1  0  0  0
 18 19  2  0  0  0
 18100  1  0  0  0
 19 20  1  0  0  0
 19 24  1  0  0  0
 20 21  2  0  0  0
 20101  1  0  0  0
 21 23  1  0  0  0
 22 28  1  0  0  0
 22 32  2  0  0  0
 26 27  1  0  0  0
 28102  1  0  0  0
 28103  1  0  0  0
 29104  1  0  0  0
 29105  1  0  0  0
 33 34  1  0  0  0
 33 66  1  0  0  0
 33 70  2  0  0  0
 34 36  1  0  0  0
 34 59  1  0  0  0
 34106  1  0  0  0
 35 44  2  0  0  0
 35 45  1  0  0  0
 35 68  1  0  0  0
 36 56  1  0  0  0
 36107  1  0  0  0
 37 39  1  0  0  0
 37 47  1  0  0  0
 37 66  1  0  0  0
 37108  1  0  0  0
 38 43  2  0  0  0
 38 46  1  0  0  0
 38 47  1  0  0  0
 39 64  1  0  0  0
 39 67  2  0  0  0
 40 52  1  0  0  0
 40 53  2  0  0  0
 40 58  1  0  0  0
 41109  1  0  0  0
 41110  1  0  0  0
 41111  1  0  0  0
 41 48  1  0  0  0
 42 43  1  0  0  0
 42 66  1  0  0  0
 42112  1  0  0  0
 42113  1  0  0  0
 43 44  1  0  0  0
 44114  1  0  0  0
 45 46  2  0  0  0
 45115  1  0  0  0
 46116  1  0  0  0
 47117  1  0  0  0
 47118  1  0  0  0
 48 56  1  0  0  0
 48 65  1  0  0  0
 48119  1  0  0  0
 49 50  1  0  0  0
 49 53  1  0  0  0
 49 64  1  0  0  0
 49120  1  0  0  0
 50 51  1  0  0  0
 50121  1  0  0  0
 50122  1  0  0  0
 51 52  1  0  0  0
 51123  1  0  0  0
 51124  1  0  0  0
 52125  1  0  0  0
 52126  1  0  0  0
 53 54  1  0  0  0
 54 55  2  0  0  0
 54127  1  0  0  0
 55 57  1  0  0  0
 55128  1  0  0  0
 56 69  2  0  0  0
 57 58  2  0  0  0
 57129  1  0  0  0
 58130  1  0  0  0
 59 60  1  0  0  0
 59 61  1  0  0  0
 59 62  1  0  0  0
 60131  1  0  0  0
 60132  1  0  0  0
 60133  1  0  0  0
 61134  1  0  0  0
 61135  1  0  0  0
 61136  1  0  0  0
 62137  1  0  0  0
 62138  1  0  0  0
 62139  1  0  0  0
 63 65  1  0  0  0
 63140  1  0  0  0
 63141  1  0  0  0
 63142  1  0  0  0
 64143  1  0  0  0
 65144  1  0  0  0
 68 79  1  0  0  0
 71 72  2  0  0  0
 71 85  1  0  0  0
 71145  1  0  0  0
 72 77  1  0  0  0
 72 82  1  0  0  0
 73 82  2  0  0  0
 73 83  1  0  0  0
 73 85  1  0  0  0
 74146  1  0  0  0
 74147  1  0  0  0
 74148  1  0  0  0
 74 80  1  0  0  0
 75149  1  0  0  0
 75150  1  0  0  0
 75151  1  0  0  0
 75 81  1  0  0  0
 76 81  1  0  0  0
 76152  1  0  0  0
 76153  1  0  0  0
 76154  1  0  0  0
 77 84  1  0  0  0
 77155  1  0  0  0
 77156  1  0  0  0
 78 80  1  0  0  0
 78 81  1  0  0  0
 78157  1  0  0  0
 78158  1  0  0  0
 79 81  1  0  0  0
 79159  1  0  0  0
 79160  1  0  0  0
 80 84  1  0  0  0
 80161  1  0  0  0
 83162  1  0  0  0
 84163  1  0  0  0
 84164  1  0  0  0
M  CHG  1  84   1
M  ISO  4   1 100  68 101  79 101  83 100
M  END
> <chiral flag>
0

> <version>
0

> <s_m_source_file>
/data/baiqing/PycharmProjects/Reinvent-master-3.2/result/LINK_invent/BTK/process_docking_weight1_custom_product_contain_oxygen_bond_distance_aromatic_linkinvent_7_9_3/rearranged_h_0189.sdf

> <i_m_source_file_index>
76

> <r_mmod_Potential_Energy-OPLS-2005>
-297.301239013672

> <r_mmod_Stretch_Energy-OPLS-2005>
31.3472099304199

> <r_mmod_Bend_Energy-OPLS-2005>
100.107109069824

> <r_mmod_Torsional_Energy-OPLS-2005>
269.167053222656

> <r_mmod_Improper_Torsional_Energy-OPLS-2005>
5.13339996337891

> <r_mmod_Van_der_Waal_Energy-OPLS-2005>
138.399932861328

> <r_mmod_Electrostatic_Energy-OPLS-2005>
-383.629791259766

> <r_mmod_Solvation_Energy-OPLS-2005>
-468.954986572266

> <b_mmod_Minimization_Converged-OPLS-2005>
0

> <r_mmod_RMS_Derivative-OPLS-2005>
4.50890588760376

$$$$
76
                    3D
 Structure written by MMmdl.
163171  0  0  1  0            999 V2000
  -30.7079  -14.4838   20.5432 C   0  0  0  0  0  0
  -30.4262  -12.3043   19.4276 C   0  0  0  0  0  0
  -29.4938  -12.4959   18.2123 C   0  0  0  0  0  0
  -28.0154  -12.3565   18.6269 C   0  0  0  0  0  0
  -27.6606  -13.1941   19.8846 C   0  0  2  0  0  0
  -28.7119  -12.9981   21.0028 C   0  0  0  0  0  0
  -25.2530  -13.8064   20.5608 C   0  0  0  0  0  0
  -24.1805  -13.0372   20.9172 C   0  0  0  0  0  0
  -24.6376  -11.6853   20.8770 C   0  0  0  0  0  0
  -23.9043  -10.4259   21.0422 C   0  0  0  0  0  0
  -24.3599   -9.4179   21.9195 C   0  0  0  0  0  0
  -23.6270   -8.2223   22.0757 C   0  0  0  0  0  0
  -22.4253   -8.0269   21.3548 C   0  0  0  0  0  0
  -21.9892   -9.0241   20.4648 C   0  0  0  0  0  0
  -22.7224  -10.2114   20.3060 C   0  0  0  0  0  0
  -21.6845   -6.0727   22.5279 C   0  0  0  0  0  0
  -21.4014   -6.5632   23.8212 C   0  0  0  0  0  0
  -21.3648   -5.6784   24.9174 C   0  0  0  0  0  0
  -21.6038   -4.3050   24.7225 C   0  0  0  0  0  0
  -21.8825   -3.8140   23.4349 C   0  0  0  0  0  0
  -21.9194   -4.6956   22.3404 C   0  0  0  0  0  0
  -22.7836  -13.5195   21.1820 C   0  0  0  0  0  0
  -22.1662   -4.2145   21.0982 F   0  0  0  0  0  0
  -21.5621   -3.4532   25.7739 F   0  0  0  0  0  0
  -30.0434  -13.2985   20.4428 N   0  0  0  0  0  0
  -26.3016  -12.9246   20.3444 N   0  0  0  0  0  0
  -25.9314  -11.6422   20.5862 N   0  0  0  0  0  0
  -22.0475  -12.8217   22.0394 N   0  0  0  0  0  0
  -25.4103  -15.1753   20.3817 N   0  0  0  0  0  0
  -31.8337  -14.6666   20.0745 O   0  0  0  0  0  0
  -21.6620   -6.8869   21.4240 O   0  0  0  0  0  0
  -22.3543  -14.5515   20.6671 O   0  0  0  0  0  0
  -24.6145  -31.8681   23.2102 C   0  0  0  0  0  0
  -25.9038  -32.4826   23.8398 C   0  0  1  0  0  0
  -27.2423  -27.4328   20.0909 C   0  0  0  0  0  0
  -25.5895  -33.8624   24.2328 N   0  0  0  0  0  0
  -23.4029  -30.4922   21.5497 C   0  0  2  0  0  0
  -24.8496  -28.9580   20.1153 C   0  0  0  0  0  0
  -22.7408  -29.4664   22.4980 C   0  0  0  0  0  0
  -18.0273  -28.1384   22.8490 C   0  0  0  0  0  0
  -24.1488  -36.7316   23.2638 C   0  0  0  0  0  0
  -25.9321  -30.8317   21.3648 C   0  0  0  0  0  0
  -26.0088  -29.4654   20.7131 C   0  0  0  0  0  0
  -27.2034  -28.7086   20.7013 C   0  0  0  0  0  0
  -26.0583  -26.9420   19.4872 C   0  0  0  0  0  0
  -24.8690  -27.6945   19.5017 C   0  0  0  0  0  0
  -23.6120  -29.8249   20.1641 C   0  0  0  0  0  0
  -25.4108  -36.3113   24.0338 C   0  0  1  0  0  0
  -20.5865  -28.3668   23.1311 C   0  0  2  0  0  0
  -20.6765  -26.9407   22.5411 C   0  0  0  0  0  0
  -19.5746  -26.6393   21.5208 C   0  0  0  0  0  0
  -18.1924  -26.7930   22.1621 C   0  0  0  0  0  0
  -19.1524  -28.8843   23.2900 C   0  0  0  0  0  0
  -18.9453  -30.1448   23.8915 C   0  0  0  0  0  0
  -17.6457  -30.6589   24.0570 C   0  0  0  0  0  0
  -25.9033  -34.9477   23.5132 C   0  0  0  0  0  0
  -16.5348  -29.9095   23.6326 C   0  0  0  0  0  0
  -16.7264  -28.6511   23.0344 C   0  0  0  0  0  0
  -26.4468  -31.6603   25.0724 C   0  0  0  0  0  0
  -25.3737  -31.3705   26.1475 C   0  0  0  0  0  0
  -27.0302  -30.3049   24.6096 C   0  0  0  0  0  0
  -27.6051  -32.4317   25.7480 C   0  0  0  0  0  0
  -27.5583  -37.1813   24.8465 C   0  0  0  0  0  0
  -21.4136  -29.3041   22.3719 N   0  0  0  0  0  0
  -26.4295  -37.3797   23.9413 N   0  0  0  0  0  0
  -24.6682  -31.0780   22.1004 N   0  0  0  0  0  0
  -23.4180  -28.8206   23.3023 O   0  0  0  0  0  0
  -28.4294  -26.7192   20.1137 O   0  0  0  0  0  0
  -26.5594  -34.8930   22.4692 O   0  0  0  0  0  0
  -23.5336  -32.1432   23.7497 O   0  0  0  0  0  0
  -29.6974  -21.0487   22.8359 C   0  0  0  0  0  0
  -29.8734  -19.7271   23.1341 C   0  0  0  0  0  0
  -30.2684  -21.1848   21.5377 C   0  0  0  0  0  0
  -29.7131  -23.5776   21.0082 C   0  0  0  0  0  0
  -27.6879  -17.3516   21.2710 C   0  0  0  0  0  0
  -28.4335  -17.0633   18.8387 C   0  0  0  0  0  0
  -29.7709  -24.6295   19.8828 C   0  0  0  0  0  0
  -30.8452  -17.7069   21.9152 C   0  0  0  0  0  0
  -28.4329  -25.3711   19.6171 C   0  0  0  0  0  0
  -28.8170  -17.5554   20.2450 C   0  0  0  0  0  0
  -30.1693  -16.9532   20.7252 C   0  0  1  0  0  0
  -30.7993  -20.0460   21.0969 N   0  0  0  0  0  0
  -30.5032  -19.1289   22.0602 N   0  0  0  0  0  0
  -30.2700  -22.3723   20.7508 N   0  0  0  0  0  0
  -29.9773  -15.5118   21.0087 N   0  0  0  0  0  0
  -29.1885  -23.8809   22.0831 O   0  0  0  0  0  0
  -31.4703  -12.3968   19.1230 H   0  0  0  0  0  0
  -30.3244  -11.2963   19.8333 H   0  0  0  0  0  0
  -29.7319  -11.7661   17.4371 H   0  0  0  0  0  0
  -29.6603  -13.4786   17.7680 H   0  0  0  0  0  0
  -27.8269  -11.3003   18.8240 H   0  0  0  0  0  0
  -27.3640  -12.6306   17.7963 H   0  0  0  0  0  0
  -27.6875  -14.2353   19.5889 H   0  0  0  0  0  0
  -28.6918  -11.9684   21.3636 H   0  0  0  0  0  0
  -28.4767  -13.6174   21.8695 H   0  0  0  0  0  0
  -25.2742   -9.5652   22.4777 H   0  0  0  0  0  0
  -23.9973   -7.4609   22.7471 H   0  0  0  0  0  0
  -21.0828   -8.8768   19.8949 H   0  0  0  0  0  0
  -22.3694  -10.9661   19.6175 H   0  0  0  0  0  0
  -21.2016   -7.6141   23.9721 H   0  0  0  0  0  0
  -21.1451   -6.0507   25.9074 H   0  0  0  0  0  0
  -22.0616   -2.7604   23.2848 H   0  0  0  0  0  0
  -22.4076  -11.9857   22.4763 H   0  0  0  0  0  0
  -21.1110  -13.1277   22.2614 H   0  0  0  0  0  0
  -24.6367  -15.8214   20.4891 H   0  0  0  0  0  0
  -26.2596  -15.6234   20.0630 H   0  0  0  0  0  0
  -26.7109  -32.5537   23.1164 H   0  0  0  0  0  0
  -25.0064  -33.9786   25.0485 H   0  0  0  0  0  0
  -22.6918  -31.3093   21.4104 H   0  0  0  0  0  0
  -23.3747  -35.9653   23.3311 H   0  0  0  0  0  0
  -24.3583  -36.8916   22.2050 H   0  0  0  0  0  0
  -23.7242  -37.6528   23.6640 H   0  0  0  0  0  0
  -26.0435  -31.5974   20.5959 H   0  0  0  0  0  0
  -26.8201  -30.8863   21.9826 H   0  0  0  0  0  0
  -28.0976  -29.0982   21.1681 H   0  0  0  0  0  0
  -26.0263  -25.9807   18.9964 H   0  0  0  0  0  0
  -23.9776  -27.2978   19.0357 H   0  0  0  0  0  0
  -23.7224  -30.5998   19.4045 H   0  0  0  0  0  0
  -22.7362  -29.2451   19.8670 H   0  0  0  0  0  0
  -25.1285  -36.1983   25.0831 H   0  0  0  0  0  0
  -20.9958  -28.3240   24.1432 H   0  0  0  0  0  0
  -20.5670  -26.2282   23.3598 H   0  0  0  0  0  0
  -21.6635  -26.7458   22.1205 H   0  0  0  0  0  0
  -19.6909  -25.6309   21.1228 H   0  0  0  0  0  0
  -19.6684  -27.3211   20.6744 H   0  0  0  0  0  0
  -17.4193  -26.6676   21.4025 H   0  0  0  0  0  0
  -18.0332  -26.0069   22.9015 H   0  0  0  0  0  0
  -19.7931  -30.7255   24.2293 H   0  0  0  0  0  0
  -17.5017  -31.6269   24.5172 H   0  0  0  0  0  0
  -15.5350  -30.3008   23.7640 H   0  0  0  0  0  0
  -15.8661  -28.0842   22.7047 H   0  0  0  0  0  0
  -24.5907  -30.7056   25.7810 H   0  0  0  0  0  0
  -24.8931  -32.2858   26.4937 H   0  0  0  0  0  0
  -25.8092  -30.8863   27.0223 H   0  0  0  0  0  0
  -26.2847  -29.6810   24.1153 H   0  0  0  0  0  0
  -27.4084  -29.7286   25.4549 H   0  0  0  0  0  0
  -27.8674  -30.4379   23.9240 H   0  0  0  0  0  0
  -27.2679  -33.3606   26.2092 H   0  0  0  0  0  0
  -28.3839  -32.6891   25.0290 H   0  0  0  0  0  0
  -28.0741  -31.8418   26.5365 H   0  0  0  0  0  0
  -28.2606  -38.0107   24.7515 H   0  0  0  0  0  0
  -28.1073  -36.2639   24.6285 H   0  0  0  0  0  0
  -27.2301  -37.1458   25.8868 H   0  0  0  0  0  0
  -20.9295  -29.8766   21.6944 H   0  0  0  0  0  0
  -26.0186  -38.2878   24.1410 H   0  0  0  0  0  0
  -29.2112  -21.7898   23.4539 H   0  0  0  0  0  0
  -29.5812  -19.1611   24.0075 H   0  0  0  0  0  0
  -27.9242  -17.8382   22.2163 H   0  0  0  0  0  0
  -27.5113  -16.3015   21.4940 H   0  0  0  0  0  0
  -26.7524  -17.7846   20.9165 H   0  0  0  0  0  0
  -28.4486  -15.9833   18.7489 H   0  0  0  0  0  0
  -29.1375  -17.4418   18.0967 H   0  0  0  0  0  0
  -27.4427  -17.4140   18.5489 H   0  0  0  0  0  0
  -30.0742  -24.1301   18.9618 H   0  0  0  0  0  0
  -30.5624  -25.3454   20.1047 H   0  0  0  0  0  0
  -31.9298  -17.6192   21.8432 H   0  0  0  0  0  0
  -30.5737  -17.2163   22.8507 H   0  0  0  0  0  0
  -27.6093  -24.8051   20.0567 H   0  0  0  0  0  0
  -28.2571  -25.3988   18.5404 H   0  0  0  0  0  0
  -28.9179  -18.6311   20.1157 H   0  0  0  0  0  0
  -30.8592  -17.0586   19.8851 H   0  0  0  0  0  0
  -30.6990  -22.2778   19.8418 H   0  0  0  0  0  0
  -29.0772  -15.2595   21.3856 H   0  0  0  0  0  0
  1 25  1  0  0  0
  1 30  2  0  0  0
  1 85  1  0  0  0
  2  3  1  0  0  0
  2 25  1  0  0  0
  2 87  1  0  0  0
  2 88  1  0  0  0
  3  4  1  0  0  0
  3 89  1  0  0  0
  3 90  1  0  0  0
  4  5  1  0  0  0
  4 91  1  0  0  0
  4 92  1  0  0  0
  5  6  1  0  0  0
  5 26  1  0  0  0
  5 93  1  0  0  0
  6 25  1  0  0  0
  6 94  1  0  0  0
  6 95  1  0  0  0
  7  8  2  0  0  0
  7 26  1  0  0  0
  7 29  1  0  0  0
  8  9  1  0  0  0
  8 22  1  0  0  0
  9 10  1  0  0  0
  9 27  2  0  0  0
 10 11  2  0  0  0
 10 15  1  0  0  0
 11 12  1  0  0  0
 11 96  1  0  0  0
 12 13  2  0  0  0
 12 97  1  0  0  0
 13 14  1  0  0  0
 13 31  1  0  0  0
 14 15  2  0  0  0
 14 98  1  0  0  0
 15 99  1  0  0  0
 16 17  2  0  0  0
 16 21  1  0  0  0
 16 31  1  0  0  0
 17 18  1  0  0  0
 17100  1  0  0  0
 18 19  2  0  0  0
 18101  1  0  0  0
 19 20  1  0  0  0
 19 24  1  0  0  0
 20 21  2  0  0  0
 20102  1  0  0  0
 21 23  1  0  0  0
 22 28  1  0  0  0
 22 32  2  0  0  0
 26 27  1  0  0  0
 28103  1  0  0  0
 28104  1  0  0  0
 29105  1  0  0  0
 29106  1  0  0  0
 33 34  1  0  0  0
 33 66  1  0  0  0
 33 70  2  0  0  0
 34 36  1  0  0  0
 34 59  1  0  0  0
 34107  1  0  0  0
 35 44  2  0  0  0
 35 45  1  0  0  0
 35 68  1  0  0  0
 36 56  1  0  0  0
 36108  1  0  0  0
 37 39  1  0  0  0
 37 47  1  0  0  0
 37 66  1  0  0  0
 37109  1  0  0  0
 38 43  2  0  0  0
 38 46  1  0  0  0
 38 47  1  0  0  0
 39 64  1  0  0  0
 39 67  2  0  0  0
 40 52  1  0  0  0
 40 53  2  0  0  0
 40 58  1  0  0  0
 41110  1  0  0  0
 41111  1  0  0  0
 41112  1  0  0  0
 41 48  1  0  0  0
 42 43  1  0  0  0
 42 66  1  0  0  0
 42113  1  0  0  0
 42114  1  0  0  0
 43 44  1  0  0  0
 44115  1  0  0  0
 45 46  2  0  0  0
 45116  1  0  0  0
 46117  1  0  0  0
 47118  1  0  0  0
 47119  1  0  0  0
 48 56  1  0  0  0
 48 65  1  0  0  0
 48120  1  0  0  0
 49 50  1  0  0  0
 49 53  1  0  0  0
 49 64  1  0  0  0
 49121  1  0  0  0
 50 51  1  0  0  0
 50122  1  0  0  0
 50123  1  0  0  0
 51 52  1  0  0  0
 51124  1  0  0  0
 51125  1  0  0  0
 52126  1  0  0  0
 52127  1  0  0  0
 53 54  1  0  0  0
 54 55  2  0  0  0
 54128  1  0  0  0
 55 57  1  0  0  0
 55129  1  0  0  0
 56 69  2  0  0  0
 57 58  2  0  0  0
 57130  1  0  0  0
 58131  1  0  0  0
 59 60  1  0  0  0
 59 61  1  0  0  0
 59 62  1  0  0  0
 60132  1  0  0  0
 60133  1  0  0  0
 60134  1  0  0  0
 61135  1  0  0  0
 61136  1  0  0  0
 61137  1  0  0  0
 62138  1  0  0  0
 62139  1  0  0  0
 62140  1  0  0  0
 63 65  1  0  0  0
 63141  1  0  0  0
 63142  1  0  0  0
 63143  1  0  0  0
 64144  1  0  0  0
 65145  1  0  0  0
 68 79  1  0  0  0
 71 72  2  0  0  0
 71 73  1  0  0  0
 71146  1  0  0  0
 72 83  1  0  0  0
 72147  1  0  0  0
 73 82  2  0  0  0
 73 84  1  0  0  0
 74 77  1  0  0  0
 74 84  1  0  0  0
 74 86  2  0  0  0
 75148  1  0  0  0
 75149  1  0  0  0
 75150  1  0  0  0
 75 80  1  0  0  0
 76 80  1  0  0  0
 76151  1  0  0  0
 76152  1  0  0  0
 76153  1  0  0  0
 77 79  1  0  0  0
 77154  1  0  0  0
 77155  1  0  0  0
 78 83  1  0  0  0
 78156  1  0  0  0
 78157  1  0  0  0
 78 81  1  0  0  0
 79158  1  0  0  0
 79159  1  0  0  0
 80 81  1  0  0  0
 80160  1  0  0  0
 81 85  1  0  0  0
 81161  1  0  0  0
 82 83  1  0  0  0
 84162  1  0  0  0
 85163  1  0  0  0
M  ISO  4   1 100  68 101  79 101  85 100
M  END
> <chiral flag>
0

> <version>
0

> <s_m_source_file>
/data/baiqing/PycharmProjects/Reinvent-master-3.2/result/LINK_invent/BTK/process_docking_weight1_custom_product_contain_oxygen_bond_distance_aromatic_linkinvent_7_9_3/rearranged_h_0189.sdf

> <i_m_source_file_index>
77

> <r_mmod_Potential_Energy-OPLS-2005>
-167.161712646484

> <r_mmod_Stretch_Energy-OPLS-2005>
39.5021858215332

> <r_mmod_Bend_Energy-OPLS-2005>
112.602684020996

> <r_mmod_Torsional_Energy-OPLS-2005>
228.844436645508

> <r_mmod_Improper_Torsional_Energy-OPLS-2005>
5.27748680114746

> <r_mmod_Van_der_Waal_Energy-OPLS-2005>
135.22038269043

> <r_mmod_Electrostatic_Energy-OPLS-2005>
-464.468475341797

> <r_mmod_Solvation_Energy-OPLS-2005>
-238.13151550293

> <b_mmod_Minimization_Converged-OPLS-2005>
0

> <r_mmod_RMS_Derivative-OPLS-2005>
0.901395678520203

$$$$
77
                    3D
 Structure written by MMmdl.
160168  0  0  1  0            999 V2000
  -30.7045  -14.4700   20.5849 C   0  0  0  0  0  0
  -30.4245  -12.3102   19.4208 C   0  0  0  0  0  0
  -29.4943  -12.5046   18.2064 C   0  0  0  0  0  0
  -28.0161  -12.3631   18.6209 C   0  0  0  0  0  0
  -27.6624  -13.2067   19.8751 C   0  0  2  0  0  0
  -28.7046  -12.9858   20.9947 C   0  0  0  0  0  0
  -25.2595  -13.8163   20.5700 C   0  0  0  0  0  0
  -24.1845  -13.0443   20.9185 C   0  0  0  0  0  0
  -24.6391  -11.6904   20.8737 C   0  0  0  0  0  0
  -23.9055  -10.4293   21.0401 C   0  0  0  0  0  0
  -24.3606   -9.4209   21.9180 C   0  0  0  0  0  0
  -23.6283   -8.2246   22.0745 C   0  0  0  0  0  0
  -22.4267   -8.0283   21.3534 C   0  0  0  0  0  0
  -21.9897   -9.0261   20.4642 C   0  0  0  0  0  0
  -22.7226  -10.2140   20.3056 C   0  0  0  0  0  0
  -21.6846   -6.0738   22.5281 C   0  0  0  0  0  0
  -21.4017   -6.5636   23.8220 C   0  0  0  0  0  0
  -21.3659   -5.6788   24.9180 C   0  0  0  0  0  0
  -21.6048   -4.3053   24.7225 C   0  0  0  0  0  0
  -21.8817   -3.8145   23.4344 C   0  0  0  0  0  0
  -21.9189   -4.6965   22.3402 C   0  0  0  0  0  0
  -22.7863  -13.5255   21.1839 C   0  0  0  0  0  0
  -22.1654   -4.2151   21.0981 F   0  0  0  0  0  0
  -21.5622   -3.4530   25.7735 F   0  0  0  0  0  0
  -30.0354  -13.2939   20.4425 N   0  0  0  0  0  0
  -26.3029  -12.9332   20.3378 N   0  0  0  0  0  0
  -25.9320  -11.6489   20.5772 N   0  0  0  0  0  0
  -22.0475  -12.8278   22.0398 N   0  0  0  0  0  0
  -25.4326  -15.1887   20.4114 N   0  0  0  0  0  0
  -31.8201  -14.6700   20.0972 O   0  0  0  0  0  0
  -21.6631   -6.8882   21.4242 O   0  0  0  0  0  0
  -22.3559  -14.5557   20.6672 O   0  0  0  0  0  0
  -24.6158  -31.8680   23.2120 C   0  0  0  0  0  0
  -25.9050  -32.4823   23.8409 C   0  0  1  0  0  0
  -27.2273  -27.4222   20.1062 C   0  0  0  0  0  0
  -25.5905  -33.8625   24.2338 N   0  0  0  0  0  0
  -23.4037  -30.4929   21.5526 C   0  0  2  0  0  0
  -24.8495  -28.9590   20.1175 C   0  0  0  0  0  0
  -22.7411  -29.4654   22.4992 C   0  0  0  0  0  0
  -18.0268  -28.1383   22.8491 C   0  0  0  0  0  0
  -24.1479  -36.7319   23.2638 C   0  0  0  0  0  0
  -25.9339  -30.8312   21.3664 C   0  0  0  0  0  0
  -26.0113  -29.4648   20.7151 C   0  0  0  0  0  0
  -27.2055  -28.7052   20.7042 C   0  0  0  0  0  0
  -26.0501  -26.9380   19.4994 C   0  0  0  0  0  0
  -24.8641  -27.6939   19.5069 C   0  0  0  0  0  0
  -23.6133  -29.8290   20.1656 C   0  0  0  0  0  0
  -25.4099  -36.3113   24.0338 C   0  0  1  0  0  0
  -20.5861  -28.3665   23.1315 C   0  0  2  0  0  0
  -20.6759  -26.9402   22.5415 C   0  0  0  0  0  0
  -19.5737  -26.6388   21.5209 C   0  0  0  0  0  0
  -18.1916  -26.7927   22.1625 C   0  0  0  0  0  0
  -19.1522  -28.8841   23.2898 C   0  0  0  0  0  0
  -18.9448  -30.1444   23.8909 C   0  0  0  0  0  0
  -17.6455  -30.6589   24.0564 C   0  0  0  0  0  0
  -25.9027  -34.9479   23.5132 C   0  0  0  0  0  0
  -16.5343  -29.9093   23.6331 C   0  0  0  0  0  0
  -16.7256  -28.6513   23.0342 C   0  0  0  0  0  0
  -26.4471  -31.6614   25.0746 C   0  0  0  0  0  0
  -25.3740  -31.3739   26.1499 C   0  0  0  0  0  0
  -27.0298  -30.3052   24.6138 C   0  0  0  0  0  0
  -27.6045  -32.4335   25.7515 C   0  0  0  0  0  0
  -27.5574  -37.1816   24.8463 C   0  0  0  0  0  0
  -21.4137  -29.3033   22.3728 N   0  0  0  0  0  0
  -26.4287  -37.3797   23.9410 N   0  0  0  0  0  0
  -24.6697  -31.0777   22.1028 N   0  0  0  0  0  0
  -23.4180  -28.8198   23.3036 O   0  0  0  0  0  0
  -28.3872  -26.6718   20.0709 O   0  0  0  0  0  0
  -26.5576  -34.8927   22.4686 O   0  0  0  0  0  0
  -23.5346  -32.1438   23.7508 O   0  0  0  0  0  0
  -30.9247  -19.8975   21.4320 C   0  0  0  0  0  0
  -29.8811  -19.3245   20.7406 C   0  0  0  0  0  0
  -29.7893  -21.8155   20.9243 C   0  0  0  0  0  0
  -29.7972  -17.5425   18.9610 C   0  0  0  0  0  0
  -27.7082  -23.6258   19.2662 C   0  0  0  0  0  0
  -27.3664  -25.2541   21.9244 C   0  0  0  0  0  0
  -30.4232  -16.8642   21.3487 C   0  0  0  0  0  0
  -29.6171  -17.8564   20.4557 C   0  0  1  0  0  0
  -28.8747  -24.2003   20.0851 C   0  0  1  0  0  0
  -28.5024  -25.4874   20.9007 C   0  0  1  0  0  0
  -30.8476  -21.2948   21.5458 N   0  0  0  0  0  0
  -29.5316  -23.1907   20.9309 N   0  0  0  0  0  0
  -30.0152  -15.4568   21.1863 N   0  0  0  0  0  0
  -28.7751  -20.5731   20.1786 S   0  0  0  0  0  0
  -31.4687  -12.4084   19.1196 H   0  0  0  0  0  0
  -30.3270  -11.2998   19.8202 H   0  0  0  0  0  0
  -29.7346  -11.7778   17.4290 H   0  0  0  0  0  0
  -29.6617  -13.4888   17.7676 H   0  0  0  0  0  0
  -27.8316  -11.3071   18.8241 H   0  0  0  0  0  0
  -27.3616  -12.6270   17.7895 H   0  0  0  0  0  0
  -27.7094  -14.2544   19.5771 H   0  0  0  0  0  0
  -28.6824  -11.9489   21.3334 H   0  0  0  0  0  0
  -28.4629  -13.5805   21.8758 H   0  0  0  0  0  0
  -25.2737   -9.5692   22.4773 H   0  0  0  0  0  0
  -23.9985   -7.4637   22.7461 H   0  0  0  0  0  0
  -21.0822   -8.8788   19.8955 H   0  0  0  0  0  0
  -22.3669  -10.9687   19.6181 H   0  0  0  0  0  0
  -21.2017   -7.6143   23.9732 H   0  0  0  0  0  0
  -21.1479   -6.0508   25.9087 H   0  0  0  0  0  0
  -22.0595   -2.7606   23.2842 H   0  0  0  0  0  0
  -22.4046  -11.9950   22.4844 H   0  0  0  0  0  0
  -21.1100  -13.1347   22.2566 H   0  0  0  0  0  0
  -24.6673  -15.8455   20.5204 H   0  0  0  0  0  0
  -26.2866  -15.6252   20.0873 H   0  0  0  0  0  0
  -26.7124  -32.5525   23.1176 H   0  0  0  0  0  0
  -25.0066  -33.9796   25.0489 H   0  0  0  0  0  0
  -22.6924  -31.3100   21.4145 H   0  0  0  0  0  0
  -23.3736  -35.9660   23.3315 H   0  0  0  0  0  0
  -24.3574  -36.8922   22.2051 H   0  0  0  0  0  0
  -23.7237  -37.6533   23.6638 H   0  0  0  0  0  0
  -26.0437  -31.5975   20.5977 H   0  0  0  0  0  0
  -26.8232  -30.8863   21.9826 H   0  0  0  0  0  0
  -28.1040  -29.0950   21.1620 H   0  0  0  0  0  0
  -26.0346  -25.9739   19.0222 H   0  0  0  0  0  0
  -23.9732  -27.2989   19.0383 H   0  0  0  0  0  0
  -23.7249  -30.6061   19.4086 H   0  0  0  0  0  0
  -22.7361  -29.2522   19.8661 H   0  0  0  0  0  0
  -25.1275  -36.1984   25.0832 H   0  0  0  0  0  0
  -20.9943  -28.3226   24.1439 H   0  0  0  0  0  0
  -20.5656  -26.2268   23.3601 H   0  0  0  0  0  0
  -21.6631  -26.7439   22.1211 H   0  0  0  0  0  0
  -19.6898  -25.6301   21.1234 H   0  0  0  0  0  0
  -19.6688  -27.3201   20.6740 H   0  0  0  0  0  0
  -17.4183  -26.6662   21.4030 H   0  0  0  0  0  0
  -18.0323  -26.0073   22.9025 H   0  0  0  0  0  0
  -19.7921  -30.7251   24.2291 H   0  0  0  0  0  0
  -17.5009  -31.6271   24.5158 H   0  0  0  0  0  0
  -15.5343  -30.2997   23.7653 H   0  0  0  0  0  0
  -15.8649  -28.0839   22.7048 H   0  0  0  0  0  0
  -24.5897  -30.7094   25.7854 H   0  0  0  0  0  0
  -24.8941  -32.2897   26.4956 H   0  0  0  0  0  0
  -25.8094  -30.8909   27.0252 H   0  0  0  0  0  0
  -26.2853  -29.6837   24.1143 H   0  0  0  0  0  0
  -27.4000  -29.7273   25.4616 H   0  0  0  0  0  0
  -27.8714  -30.4371   23.9337 H   0  0  0  0  0  0
  -27.2660  -33.3618   26.2131 H   0  0  0  0  0  0
  -28.3840  -32.6927   25.0341 H   0  0  0  0  0  0
  -28.0722  -31.8432   26.5406 H   0  0  0  0  0  0
  -28.2602  -38.0101   24.7491 H   0  0  0  0  0  0
  -28.1053  -36.2631   24.6303 H   0  0  0  0  0  0
  -27.2287  -37.1488   25.8866 H   0  0  0  0  0  0
  -20.9294  -29.8782   21.6979 H   0  0  0  0  0  0
  -26.0176  -38.2877   24.1415 H   0  0  0  0  0  0
  -31.7613  -19.3879   21.8913 H   0  0  0  0  0  0
  -30.8293  -17.6979   18.6457 H   0  0  0  0  0  0
  -29.1599  -18.1779   18.3459 H   0  0  0  0  0  0
  -29.5333  -16.5115   18.7242 H   0  0  0  0  0  0
  -28.0322  -22.8046   18.6295 H   0  0  0  0  0  0
  -26.8959  -23.2662   19.8992 H   0  0  0  0  0  0
  -27.3089  -24.3724   18.5860 H   0  0  0  0  0  0
  -27.6089  -24.4284   22.5921 H   0  0  0  0  0  0
  -26.4203  -25.0099   21.4432 H   0  0  0  0  0  0
  -27.2071  -26.1330   22.5493 H   0  0  0  0  0  0
  -30.2727  -17.1180   22.3990 H   0  0  0  0  0  0
  -31.4919  -16.9768   21.1598 H   0  0  0  0  0  0
  -28.5638  -17.6834   20.6818 H   0  0  0  0  0  0
  -29.6410  -24.5014   19.3684 H   0  0  0  0  0  0
  -29.3802  -25.7216   21.5047 H   0  0  0  0  0  0
  -30.1538  -23.6474   21.5894 H   0  0  0  0  0  0
  -29.1043  -15.2080   21.5418 H   0  0  0  0  0  0
  1 25  1  0  0  0
  1 30  2  0  0  0
  1 83  1  0  0  0
  2  3  1  0  0  0
  2 25  1  0  0  0
  2 85  1  0  0  0
  2 86  1  0  0  0
  3  4  1  0  0  0
  3 87  1  0  0  0
  3 88  1  0  0  0
  4  5  1  0  0  0
  4 89  1  0  0  0
  4 90  1  0  0  0
  5  6  1  0  0  0
  5 26  1  0  0  0
  5 91  1  0  0  0
  6 25  1  0  0  0
  6 92  1  0  0  0
  6 93  1  0  0  0
  7  8  2  0  0  0
  7 26  1  0  0  0
  7 29  1  0  0  0
  8  9  1  0  0  0
  8 22  1  0  0  0
  9 10  1  0  0  0
  9 27  2  0  0  0
 10 11  2  0  0  0
 10 15  1  0  0  0
 11 12  1  0  0  0
 11 94  1  0  0  0
 12 13  2  0  0  0
 12 95  1  0  0  0
 13 14  1  0  0  0
 13 31  1  0  0  0
 14 15  2  0  0  0
 14 96  1  0  0  0
 15 97  1  0  0  0
 16 17  2  0  0  0
 16 21  1  0  0  0
 16 31  1  0  0  0
 17 18  1  0  0  0
 17 98  1  0  0  0
 18 19  2  0  0  0
 18 99  1  0  0  0
 19 20  1  0  0  0
 19 24  1  0  0  0
 20 21  2  0  0  0
 20100  1  0  0  0
 21 23  1  0  0  0
 22 28  1  0  0  0
 22 32  2  0  0  0
 26 27  1  0  0  0
 28101  1  0  0  0
 28102  1  0  0  0
 29103  1  0  0  0
 29104  1  0  0  0
 33 34  1  0  0  0
 33 66  1  0  0  0
 33 70  2  0  0  0
 34 36  1  0  0  0
 34 59  1  0  0  0
 34105  1  0  0  0
 35 44  2  0  0  0
 35 45  1  0  0  0
 35 68  1  0  0  0
 36 56  1  0  0  0
 36106  1  0  0  0
 37 39  1  0  0  0
 37 47  1  0  0  0
 37 66  1  0  0  0
 37107  1  0  0  0
 38 43  2  0  0  0
 38 46  1  0  0  0
 38 47  1  0  0  0
 39 64  1  0  0  0
 39 67  2  0  0  0
 40 52  1  0  0  0
 40 53  2  0  0  0
 40 58  1  0  0  0
 41108  1  0  0  0
 41109  1  0  0  0
 41110  1  0  0  0
 41 48  1  0  0  0
 42 43  1  0  0  0
 42 66  1  0  0  0
 42111  1  0  0  0
 42112  1  0  0  0
 43 44  1  0  0  0
 44113  1  0  0  0
 45 46  2  0  0  0
 45114  1  0  0  0
 46115  1  0  0  0
 47116  1  0  0  0
 47117  1  0  0  0
 48 56  1  0  0  0
 48 65  1  0  0  0
 48118  1  0  0  0
 49 50  1  0  0  0
 49 53  1  0  0  0
 49 64  1  0  0  0
 49119  1  0  0  0
 50 51  1  0  0  0
 50120  1  0  0  0
 50121  1  0  0  0
 51 52  1  0  0  0
 51122  1  0  0  0
 51123  1  0  0  0
 52124  1  0  0  0
 52125  1  0  0  0
 53 54  1  0  0  0
 54 55  2  0  0  0
 54126  1  0  0  0
 55 57  1  0  0  0
 55127  1  0  0  0
 56 69  2  0  0  0
 57 58  2  0  0  0
 57128  1  0  0  0
 58129  1  0  0  0
 59 60  1  0  0  0
 59 61  1  0  0  0
 59 62  1  0  0  0
 60130  1  0  0  0
 60131  1  0  0  0
 60132  1  0  0  0
 61133  1  0  0  0
 61134  1  0  0  0
 61135  1  0  0  0
 62136  1  0  0  0
 62137  1  0  0  0
 62138  1  0  0  0
 63 65  1  0  0  0
 63139  1  0  0  0
 63140  1  0  0  0
 63141  1  0  0  0
 64142  1  0  0  0
 65143  1  0  0  0
 68 80  1  0  0  0
 71 72  2  0  0  0
 71 81  1  0  0  0
 71144  1  0  0  0
 72 78  1  0  0  0
 72 84  1  0  0  0
 73 81  2  0  0  0
 73 82  1  0  0  0
 73 84  1  0  0  0
 74145  1  0  0  0
 74146  1  0  0  0
 74147  1  0  0  0
 74 78  1  0  0  0
 75148  1  0  0  0
 75149  1  0  0  0
 75150  1  0  0  0
 75 79  1  0  0  0
 76151  1  0  0  0
 76152  1  0  0  0
 76153  1  0  0  0
 76 80  1  0  0  0
 77 78  1  0  0  0
 77 83  1  0  0  0
 77154  1  0  0  0
 77155  1  0  0  0
 78156  1  0  0  0
 79 80  1  0  0  0
 79 82  1  0  0  0
 79157  1  0  0  0
 80158  1  0  0  0
 82159  1  0  0  0
 83160  1  0  0  0
M  ISO  4   1 100  68 101  80 101  83 100
M  END
> <chiral flag>
0

> <version>
0

> <s_m_source_file>
/data/baiqing/PycharmProjects/Reinvent-master-3.2/result/LINK_invent/BTK/process_docking_weight1_custom_product_contain_oxygen_bond_distance_aromatic_linkinvent_7_9_3/rearranged_h_0189.sdf

> <i_m_source_file_index>
78

> <r_mmod_Potential_Energy-OPLS-2005>
-196.582168579102

> <r_mmod_Stretch_Energy-OPLS-2005>
39.4909973144531

> <r_mmod_Bend_Energy-OPLS-2005>
116.463165283203

> <r_mmod_Torsional_Energy-OPLS-2005>
216.720092773438

> <r_mmod_Improper_Torsional_Energy-OPLS-2005>
3.74944615364075

> <r_mmod_Van_der_Waal_Energy-OPLS-2005>
124.073104858398

> <r_mmod_Electrostatic_Energy-OPLS-2005>
-493.458190917969

> <r_mmod_Solvation_Energy-OPLS-2005>
-216.015258789062

> <b_mmod_Minimization_Converged-OPLS-2005>
0

> <r_mmod_RMS_Derivative-OPLS-2005>
1.61343657970428

$$$$
78
                    3D
 Structure written by MMmdl.
158166  0  0  1  0            999 V2000
  -30.6803  -14.5315   20.5883 C   0  0  0  0  0  0
  -30.4393  -12.3479   19.4364 C   0  0  0  0  0  0
  -29.5107  -12.5347   18.2183 C   0  0  0  0  0  0
  -28.0305  -12.3801   18.6225 C   0  0  0  0  0  0
  -27.6662  -13.2135   19.8798 C   0  0  2  0  0  0
  -28.7075  -12.9988   21.0023 C   0  0  0  0  0  0
  -25.2548  -13.8121   20.5614 C   0  0  0  0  0  0
  -24.1831  -13.0405   20.9168 C   0  0  0  0  0  0
  -24.6417  -11.6884   20.8733 C   0  0  0  0  0  0
  -23.9080  -10.4281   21.0410 C   0  0  0  0  0  0
  -24.3622   -9.4199   21.9193 C   0  0  0  0  0  0
  -23.6299   -8.2237   22.0764 C   0  0  0  0  0  0
  -22.4281   -8.0279   21.3543 C   0  0  0  0  0  0
  -21.9923   -9.0260   20.4653 C   0  0  0  0  0  0
  -22.7251  -10.2131   20.3062 C   0  0  0  0  0  0
  -21.6848   -6.0741   22.5279 C   0  0  0  0  0  0
  -21.4007   -6.5637   23.8212 C   0  0  0  0  0  0
  -21.3663   -5.6785   24.9176 C   0  0  0  0  0  0
  -21.6058   -4.3049   24.7216 C   0  0  0  0  0  0
  -21.8814   -3.8144   23.4333 C   0  0  0  0  0  0
  -21.9191   -4.6975   22.3397 C   0  0  0  0  0  0
  -22.7846  -13.5217   21.1819 C   0  0  0  0  0  0
  -22.1657   -4.2158   21.0970 F   0  0  0  0  0  0
  -21.5647   -3.4532   25.7733 F   0  0  0  0  0  0
  -30.0436  -13.3275   20.4644 N   0  0  0  0  0  0
  -26.3043  -12.9334   20.3362 N   0  0  0  0  0  0
  -25.9353  -11.6486   20.5762 N   0  0  0  0  0  0
  -22.0465  -12.8234   22.0381 N   0  0  0  0  0  0
  -25.4128  -15.1824   20.3911 N   0  0  0  0  0  0
  -31.7677  -14.7617   20.0485 O   0  0  0  0  0  0
  -21.6632   -6.8886   21.4241 O   0  0  0  0  0  0
  -22.3543  -14.5530   20.6679 O   0  0  0  0  0  0
  -24.6206  -31.8650   23.2072 C   0  0  0  0  0  0
  -25.9085  -32.4805   23.8370 C   0  0  1  0  0  0
  -27.2303  -27.3773   20.0933 C   0  0  0  0  0  0
  -25.5934  -33.8604   24.2307 N   0  0  0  0  0  0
  -23.4112  -30.4912   21.5473 C   0  0  2  0  0  0
  -24.8587  -28.9598   20.1079 C   0  0  0  0  0  0
  -22.7457  -29.4638   22.4929 C   0  0  0  0  0  0
  -18.0283  -28.1386   22.8493 C   0  0  0  0  0  0
  -24.1497  -36.7301   23.2633 C   0  0  0  0  0  0
  -25.9486  -30.8144   21.3712 C   0  0  0  0  0  0
  -26.0244  -29.4467   20.7123 C   0  0  0  0  0  0
  -27.2111  -28.6640   20.7010 C   0  0  0  0  0  0
  -26.0440  -26.9410   19.4545 C   0  0  0  0  0  0
  -24.8676  -27.7097   19.4742 C   0  0  0  0  0  0
  -23.6250  -29.8326   20.1599 C   0  0  0  0  0  0
  -25.4118  -36.3088   24.0327 C   0  0  1  0  0  0
  -20.5885  -28.3674   23.1311 C   0  0  2  0  0  0
  -20.6768  -26.9399   22.5425 C   0  0  0  0  0  0
  -19.5738  -26.6383   21.5229 C   0  0  0  0  0  0
  -18.1919  -26.7933   22.1634 C   0  0  0  0  0  0
  -19.1538  -28.8844   23.2901 C   0  0  0  0  0  0
  -18.9456  -30.1454   23.8906 C   0  0  0  0  0  0
  -17.6455  -30.6586   24.0567 C   0  0  0  0  0  0
  -25.9047  -34.9462   23.5105 C   0  0  0  0  0  0
  -16.5346  -29.9090   23.6326 C   0  0  0  0  0  0
  -16.7275  -28.6511   23.0342 C   0  0  0  0  0  0
  -26.4492  -31.6590   25.0713 C   0  0  0  0  0  0
  -25.3739  -31.3723   26.1445 C   0  0  0  0  0  0
  -27.0324  -30.3021   24.6119 C   0  0  0  0  0  0
  -27.6061  -32.4307   25.7487 C   0  0  0  0  0  0
  -27.5589  -37.1798   24.8455 C   0  0  0  0  0  0
  -21.4170  -29.3042   22.3707 N   0  0  0  0  0  0
  -26.4290  -37.3788   23.9411 N   0  0  0  0  0  0
  -24.6782  -31.0719   22.0993 N   0  0  0  0  0  0
  -23.4215  -28.8154   23.2958 O   0  0  0  0  0  0
  -28.3749  -26.5763   20.1425 O   0  0  0  0  0  0
  -26.5603  -34.8917   22.4657 O   0  0  0  0  0  0
  -23.5384  -32.1416   23.7439 O   0  0  0  0  0  0
  -29.6843  -19.0140   20.3306 C   0  0  0  0  0  0
  -28.3271  -18.8207   20.4996 C   0  0  0  0  0  0
  -29.6302  -16.7766   20.9722 C   0  0  0  0  0  0
  -30.0513  -21.5706   20.6029 C   0  0  0  0  0  0
  -27.2062  -19.7630   20.2016 C   0  0  0  0  0  0
  -31.8708  -20.1254   19.5562 C   0  0  0  0  0  0
  -29.1381  -22.6905   19.9997 C   0  0  0  0  0  0
  -28.2369  -25.1529   19.8348 C   0  0  0  0  0  0
  -30.3498  -20.2863   19.7540 C   0  0  1  0  0  0
  -29.2514  -24.1782   20.5285 C   0  0  1  0  0  0
  -30.4125  -17.8072   20.5815 N   0  0  0  0  0  0
  -30.0333  -15.4491   21.3371 N   0  0  0  0  0  0
  -30.5728  -21.7066   21.7145 O   0  0  0  0  0  0
  -28.8976  -24.2349   21.9028 O   0  0  0  0  0  0
  -27.9483  -17.2349   21.1196 S   0  0  0  0  0  0
  -31.4840  -12.4601   19.1413 H   0  0  0  0  0  0
  -30.3511  -11.3345   19.8303 H   0  0  0  0  0  0
  -29.7638  -11.8163   17.4378 H   0  0  0  0  0  0
  -29.6719  -13.5228   17.7833 H   0  0  0  0  0  0
  -27.8448  -11.3223   18.8103 H   0  0  0  0  0  0
  -27.3849  -12.6560   17.7886 H   0  0  0  0  0  0
  -27.7079  -14.2630   19.5877 H   0  0  0  0  0  0
  -28.6953  -11.9604   21.3360 H   0  0  0  0  0  0
  -28.4440  -13.5818   21.8850 H   0  0  0  0  0  0
  -25.2765   -9.5690   22.4769 H   0  0  0  0  0  0
  -24.0012   -7.4629   22.7480 H   0  0  0  0  0  0
  -21.0858   -8.8786   19.8956 H   0  0  0  0  0  0
  -22.3716  -10.9679   19.6176 H   0  0  0  0  0  0
  -21.1975   -7.6144   23.9717 H   0  0  0  0  0  0
  -21.1503   -6.0511   25.9078 H   0  0  0  0  0  0
  -22.0592   -2.7612   23.2815 H   0  0  0  0  0  0
  -22.4025  -11.9904   22.4812 H   0  0  0  0  0  0
  -21.1090  -13.1317   22.2551 H   0  0  0  0  0  0
  -24.6339  -15.8246   20.4867 H   0  0  0  0  0  0
  -26.2568  -15.6297   20.0596 H   0  0  0  0  0  0
  -26.7150  -32.5501   23.1126 H   0  0  0  0  0  0
  -25.0116  -33.9758   25.0473 H   0  0  0  0  0  0
  -22.7007  -31.3089   21.4089 H   0  0  0  0  0  0
  -23.3763  -35.9629   23.3280 H   0  0  0  0  0  0
  -24.3603  -36.8936   22.2053 H   0  0  0  0  0  0
  -23.7247  -37.6495   23.6662 H   0  0  0  0  0  0
  -26.0732  -31.5835   20.6073 H   0  0  0  0  0  0
  -26.8326  -30.8624   21.9953 H   0  0  0  0  0  0
  -28.1065  -29.0355   21.1794 H   0  0  0  0  0  0
  -25.9932  -26.0011   18.9259 H   0  0  0  0  0  0
  -23.9759  -27.3389   18.9876 H   0  0  0  0  0  0
  -23.7408  -30.6122   19.4055 H   0  0  0  0  0  0
  -22.7478  -29.2582   19.8567 H   0  0  0  0  0  0
  -25.1297  -36.1931   25.0819 H   0  0  0  0  0  0
  -20.9988  -28.3240   24.1429 H   0  0  0  0  0  0
  -20.5686  -26.2270   23.3617 H   0  0  0  0  0  0
  -21.6631  -26.7437   22.1206 H   0  0  0  0  0  0
  -19.6886  -25.6295   21.1255 H   0  0  0  0  0  0
  -19.6684  -27.3199   20.6766 H   0  0  0  0  0  0
  -17.4196  -26.6707   21.4028 H   0  0  0  0  0  0
  -18.0296  -26.0081   22.9031 H   0  0  0  0  0  0
  -19.7926  -30.7278   24.2277 H   0  0  0  0  0  0
  -17.5004  -31.6267   24.5165 H   0  0  0  0  0  0
  -15.5348  -30.2992   23.7636 H   0  0  0  0  0  0
  -15.8680  -28.0844   22.7027 H   0  0  0  0  0  0
  -24.5921  -30.7059   25.7781 H   0  0  0  0  0  0
  -24.8920  -32.2890   26.4855 H   0  0  0  0  0  0
  -25.8083  -30.8919   27.0221 H   0  0  0  0  0  0
  -26.2877  -29.6781   24.1164 H   0  0  0  0  0  0
  -27.4068  -29.7264   25.4595 H   0  0  0  0  0  0
  -27.8730  -30.4322   23.9298 H   0  0  0  0  0  0
  -27.2682  -33.3607   26.2070 H   0  0  0  0  0  0
  -28.3887  -32.6863   25.0328 H   0  0  0  0  0  0
  -28.0710  -31.8414   26.5403 H   0  0  0  0  0  0
  -28.2570  -38.0131   24.7546 H   0  0  0  0  0  0
  -28.1118  -36.2663   24.6218 H   0  0  0  0  0  0
  -27.2312  -37.1376   25.8855 H   0  0  0  0  0  0
  -20.9312  -29.8809   21.6984 H   0  0  0  0  0  0
  -26.0168  -38.2849   24.1442 H   0  0  0  0  0  0
  -27.3949  -20.3227   19.2851 H   0  0  0  0  0  0
  -27.0601  -20.4672   21.0201 H   0  0  0  0  0  0
  -26.2681  -19.2247   20.0594 H   0  0  0  0  0  0
  -32.0899  -19.3221   18.8522 H   0  0  0  0  0  0
  -32.3747  -19.8945   20.4956 H   0  0  0  0  0  0
  -32.3170  -21.0362   19.1568 H   0  0  0  0  0  0
  -28.1066  -22.3617   20.1088 H   0  0  0  0  0  0
  -29.3289  -22.6990   18.9256 H   0  0  0  0  0  0
  -27.2473  -24.7819   20.1046 H   0  0  0  0  0  0
  -28.3223  -25.0487   18.7521 H   0  0  0  0  0  0
  -29.9196  -20.4706   18.7698 H   0  0  0  0  0  0
  -30.2709  -24.5419   20.3893 H   0  0  0  0  0  0
  -29.3214  -14.9888   21.8828 H   0  0  0  0  0  0
  -28.8886  -25.1569   22.1496 H   0  0  0  0  0  0
  1 25  1  0  0  0
  1 30  2  0  0  0
  1 82  1  0  0  0
  2  3  1  0  0  0
  2 25  1  0  0  0
  2 86  1  0  0  0
  2 87  1  0  0  0
  3  4  1  0  0  0
  3 88  1  0  0  0
  3 89  1  0  0  0
  4  5  1  0  0  0
  4 90  1  0  0  0
  4 91  1  0  0  0
  5  6  1  0  0  0
  5 26  1  0  0  0
  5 92  1  0  0  0
  6 25  1  0  0  0
  6 93  1  0  0  0
  6 94  1  0  0  0
  7  8  2  0  0  0
  7 26  1  0  0  0
  7 29  1  0  0  0
  8  9  1  0  0  0
  8 22  1  0  0  0
  9 10  1  0  0  0
  9 27  2  0  0  0
 10 11  2  0  0  0
 10 15  1  0  0  0
 11 12  1  0  0  0
 11 95  1  0  0  0
 12 13  2  0  0  0
 12 96  1  0  0  0
 13 14  1  0  0  0
 13 31  1  0  0  0
 14 15  2  0  0  0
 14 97  1  0  0  0
 15 98  1  0  0  0
 16 17  2  0  0  0
 16 21  1  0  0  0
 16 31  1  0  0  0
 17 18  1  0  0  0
 17 99  1  0  0  0
 18 19  2  0  0  0
 18100  1  0  0  0
 19 20  1  0  0  0
 19 24  1  0  0  0
 20 21  2  0  0  0
 20101  1  0  0  0
 21 23  1  0  0  0
 22 28  1  0  0  0
 22 32  2  0  0  0
 26 27  1  0  0  0
 28102  1  0  0  0
 28103  1  0  0  0
 29104  1  0  0  0
 29105  1  0  0  0
 33 34  1  0  0  0
 33 66  1  0  0  0
 33 70  2  0  0  0
 34 36  1  0  0  0
 34 59  1  0  0  0
 34106  1  0  0  0
 35 44  2  0  0  0
 35 45  1  0  0  0
 35 68  1  0  0  0
 36 56  1  0  0  0
 36107  1  0  0  0
 37 39  1  0  0  0
 37 47  1  0  0  0
 37 66  1  0  0  0
 37108  1  0  0  0
 38 43  2  0  0  0
 38 46  1  0  0  0
 38 47  1  0  0  0
 39 64  1  0  0  0
 39 67  2  0  0  0
 40 52  1  0  0  0
 40 53  2  0  0  0
 40 58  1  0  0  0
 41109  1  0  0  0
 41110  1  0  0  0
 41111  1  0  0  0
 41 48  1  0  0  0
 42 43  1  0  0  0
 42 66  1  0  0  0
 42112  1  0  0  0
 42113  1  0  0  0
 43 44  1  0  0  0
 44114  1  0  0  0
 45 46  2  0  0  0
 45115  1  0  0  0
 46116  1  0  0  0
 47117  1  0  0  0
 47118  1  0  0  0
 48 56  1  0  0  0
 48 65  1  0  0  0
 48119  1  0  0  0
 49 50  1  0  0  0
 49 53  1  0  0  0
 49 64  1  0  0  0
 49120  1  0  0  0
 50 51  1  0  0  0
 50121  1  0  0  0
 50122  1  0  0  0
 51 52  1  0  0  0
 51123  1  0  0  0
 51124  1  0  0  0
 52125  1  0  0  0
 52126  1  0  0  0
 53 54  1  0  0  0
 54 55  2  0  0  0
 54127  1  0  0  0
 55 57  1  0  0  0
 55128  1  0  0  0
 56 69  2  0  0  0
 57 58  2  0  0  0
 57129  1  0  0  0
 58130  1  0  0  0
 59 60  1  0  0  0
 59 61  1  0  0  0
 59 62  1  0  0  0
 60131  1  0  0  0
 60132  1  0  0  0
 60133  1  0  0  0
 61134  1  0  0  0
 61135  1  0  0  0
 61136  1  0  0  0
 62137  1  0  0  0
 62138  1  0  0  0
 62139  1  0  0  0
 63 65  1  0  0  0
 63140  1  0  0  0
 63141  1  0  0  0
 63142  1  0  0  0
 64143  1  0  0  0
 65144  1  0  0  0
 68 78  1  0  0  0
 71 72  2  0  0  0
 71 79  1  0  0  0
 71 81  1  0  0  0
 72 75  1  0  0  0
 72 85  1  0  0  0
 73 81  2  0  0  0
 73 82  1  0  0  0
 73 85  1  0  0  0
 74 77  1  0  0  0
 74 79  1  0  0  0
 74 83  2  0  0  0
 75145  1  0  0  0
 75146  1  0  0  0
 75147  1  0  0  0
 76148  1  0  0  0
 76149  1  0  0  0
 76150  1  0  0  0
 76 79  1  0  0  0
 77 80  1  0  0  0
 77151  1  0  0  0
 77152  1  0  0  0
 78 80  1  0  0  0
 78153  1  0  0  0
 78154  1  0  0  0
 79155  1  0  0  0
 80 84  1  0  0  0
 80156  1  0  0  0
 82157  1  0  0  0
 84158  1  0  0  0
M  ISO  4   1 100  68 101  78 101  82 100
M  END
> <chiral flag>
0

> <version>
0

> <s_m_source_file>
/data/baiqing/PycharmProjects/Reinvent-master-3.2/result/LINK_invent/BTK/process_docking_weight1_custom_product_contain_oxygen_bond_distance_aromatic_linkinvent_7_9_3/rearranged_h_0189.sdf

> <i_m_source_file_index>
79

> <r_mmod_Potential_Energy-OPLS-2005>
-24.8774948120117

> <r_mmod_Stretch_Energy-OPLS-2005>
58.4081840515137

> <r_mmod_Bend_Energy-OPLS-2005>
129.703994750977

> <r_mmod_Torsional_Energy-OPLS-2005>
237.719711303711

> <r_mmod_Improper_Torsional_Energy-OPLS-2005>
6.56013917922974

> <r_mmod_Van_der_Waal_Energy-OPLS-2005>
123.22509765625

> <r_mmod_Electrostatic_Energy-OPLS-2005>
-343.120727539062

> <r_mmod_Solvation_Energy-OPLS-2005>
-260.664001464844

> <b_mmod_Minimization_Converged-OPLS-2005>
0

> <r_mmod_RMS_Derivative-OPLS-2005>
1.81438791751862

$$$$
79
                    3D
 Structure written by MMmdl.
179187  0  0  1  0            999 V2000
  -30.6982  -14.5317   20.5595 C   0  0  0  0  0  0
  -30.4387  -12.3281   19.4491 C   0  0  0  0  0  0
  -29.5161  -12.4957   18.2214 C   0  0  0  0  0  0
  -28.0335  -12.3551   18.6250 C   0  0  0  0  0  0
  -27.6653  -13.2095   19.8664 C   0  0  2  0  0  0
  -28.7096  -13.0366   20.9938 C   0  0  0  0  0  0
  -25.2679  -13.8168   20.5723 C   0  0  0  0  0  0
  -24.1892  -13.0447   20.9215 C   0  0  0  0  0  0
  -24.6448  -11.6914   20.8736 C   0  0  0  0  0  0
  -23.9098  -10.4292   21.0407 C   0  0  0  0  0  0
  -24.3622   -9.4210   21.9187 C   0  0  0  0  0  0
  -23.6315   -8.2235   22.0749 C   0  0  0  0  0  0
  -22.4305   -8.0275   21.3530 C   0  0  0  0  0  0
  -21.9923   -9.0240   20.4627 C   0  0  0  0  0  0
  -22.7263  -10.2128   20.3058 C   0  0  0  0  0  0
  -21.6847   -6.0748   22.5295 C   0  0  0  0  0  0
  -21.4008   -6.5659   23.8212 C   0  0  0  0  0  0
  -21.3662   -5.6812   24.9181 C   0  0  0  0  0  0
  -21.6045   -4.3083   24.7253 C   0  0  0  0  0  0
  -21.8800   -3.8168   23.4367 C   0  0  0  0  0  0
  -21.9188   -4.6973   22.3429 C   0  0  0  0  0  0
  -22.7925  -13.5259   21.1862 C   0  0  0  0  0  0
  -22.1662   -4.2156   21.1022 F   0  0  0  0  0  0
  -21.5614   -3.4577   25.7772 F   0  0  0  0  0  0
  -30.0408  -13.3361   20.4469 N   0  0  0  0  0  0
  -26.3084  -12.9321   20.3328 N   0  0  0  0  0  0
  -25.9383  -11.6475   20.5746 N   0  0  0  0  0  0
  -22.0535  -12.8195   22.0383 N   0  0  0  0  0  0
  -25.4422  -15.1871   20.4174 N   0  0  0  0  0  0
  -31.8532  -14.6528   20.1570 O   0  0  0  0  0  0
  -21.6640   -6.8887   21.4256 O   0  0  0  0  0  0
  -22.3613  -14.5539   20.6729 O   0  0  0  0  0  0
  -24.6248  -31.8628   23.1957 C   0  0  0  0  0  0
  -25.9074  -32.4777   23.8348 C   0  0  1  0  0  0
  -27.2287  -27.3695   20.0836 C   0  0  0  0  0  0
  -25.5891  -33.8543   24.2295 N   0  0  0  0  0  0
  -23.4204  -30.4872   21.5361 C   0  0  2  0  0  0
  -24.8577  -28.9450   20.1014 C   0  0  0  0  0  0
  -22.7526  -29.4623   22.4779 C   0  0  0  0  0  0
  -18.0300  -28.1394   22.8405 C   0  0  0  0  0  0
  -24.1487  -36.7339   23.2641 C   0  0  0  0  0  0
  -25.9554  -30.7999   21.3537 C   0  0  0  0  0  0
  -26.0234  -29.4292   20.7064 C   0  0  0  0  0  0
  -27.2050  -28.6482   20.6999 C   0  0  0  0  0  0
  -26.0378  -26.9151   19.4617 C   0  0  0  0  0  0
  -24.8612  -27.6884   19.4792 C   0  0  0  0  0  0
  -23.6395  -29.8352   20.1474 C   0  0  0  0  0  0
  -25.4082  -36.3077   24.0331 C   0  0  1  0  0  0
  -20.5945  -28.3705   23.1256 C   0  0  2  0  0  0
  -20.6834  -26.9401   22.5412 C   0  0  0  0  0  0
  -19.5786  -26.6346   21.5256 C   0  0  0  0  0  0
  -18.1933  -26.7933   22.1596 C   0  0  0  0  0  0
  -19.1557  -28.8839   23.2848 C   0  0  0  0  0  0
  -18.9496  -30.1394   23.8886 C   0  0  0  0  0  0
  -17.6508  -30.6588   24.0544 C   0  0  0  0  0  0
  -25.9019  -34.9435   23.5114 C   0  0  0  0  0  0
  -16.5382  -29.9114   23.6309 C   0  0  0  0  0  0
  -16.7296  -28.6553   23.0282 C   0  0  0  0  0  0
  -26.4466  -31.6603   25.0701 C   0  0  0  0  0  0
  -25.3715  -31.3794   26.1471 C   0  0  0  0  0  0
  -27.0330  -30.3051   24.6085 C   0  0  0  0  0  0
  -27.6018  -32.4412   25.7491 C   0  0  0  0  0  0
  -27.5564  -37.1769   24.8448 C   0  0  0  0  0  0
  -21.4200  -29.3097   22.3595 N   0  0  0  0  0  0
  -26.4257  -37.3777   23.9407 N   0  0  0  0  0  0
  -24.6863  -31.0695   22.0861 N   0  0  0  0  0  0
  -23.4281  -28.8113   23.2785 O   0  0  0  0  0  0
  -28.3962  -26.6134   20.1413 O   0  0  0  0  0  0
  -26.5641  -34.8897   22.4715 O   0  0  0  0  0  0
  -23.5408  -32.1370   23.7349 O   0  0  0  0  0  0
  -27.8262  -21.3216   20.0181 C   0  0  0  0  0  0
  -28.8705  -21.8202   20.7563 C   0  0  0  0  0  0
  -29.2141  -19.5455   21.0385 C   0  0  0  0  0  0
  -28.8970  -23.2177   21.2527 C   0  0  0  0  0  0
  -28.8699  -19.5242   24.0105 C   0  0  0  0  0  0
  -34.7618  -18.9905   22.3064 C   0  0  0  0  0  0
  -34.8397  -17.1713   20.5934 C   0  0  0  0  0  0
  -31.7714  -18.4377   17.7413 C   0  0  0  0  0  0
  -29.4863  -24.3400   20.3577 C   0  0  0  0  0  0
  -29.9261  -15.8147   21.0148 C   0  0  0  0  0  0
  -29.8935  -18.6019   23.3165 C   0  0  0  0  0  0
  -32.7506  -18.6887   20.7381 C   0  0  0  0  0  0
  -28.4475  -25.2509   19.6280 C   0  0  0  0  0  0
  -29.6297  -18.2896   21.8230 C   0  0  2  0  0  0
  -33.9105  -17.9876   21.5076 C   0  0  0  0  0  0
  -30.6589  -17.2089   21.2458 C   0  0  2  0  0  0
  -31.6612  -17.7303   20.1493 C   0  0  1  0  0  0
  -29.7407  -20.7780   21.1797 N   0  0  0  0  0  0
  -30.9591  -18.2949   18.9687 N   0  3  0  0  0  0
  -28.4834  -23.5287   22.3805 O   0  0  0  0  0  0
  -27.7822  -19.5732   20.0035 S   0  0  0  0  0  0
  -31.4882  -12.4151   19.1583 H   0  0  0  0  0  0
  -30.3271  -11.3260   19.8710 H   0  0  0  0  0  0
  -29.7643  -11.7458   17.4701 H   0  0  0  0  0  0
  -29.6881  -13.4672   17.7506 H   0  0  0  0  0  0
  -27.8556  -11.2991   18.8430 H   0  0  0  0  0  0
  -27.3802  -12.6099   17.7905 H   0  0  0  0  0  0
  -27.6936  -14.2492   19.5483 H   0  0  0  0  0  0
  -28.6907  -12.0143   21.3728 H   0  0  0  0  0  0
  -28.4633  -13.6603   21.8530 H   0  0  0  0  0  0
  -25.2748   -9.5682   22.4763 H   0  0  0  0  0  0
  -24.0014   -7.4631   22.7446 H   0  0  0  0  0  0
  -21.0848   -8.8764   19.8925 H   0  0  0  0  0  0
  -22.3715  -10.9664   19.6163 H   0  0  0  0  0  0
  -21.1989   -7.6167   23.9716 H   0  0  0  0  0  0
  -21.1495   -6.0566   25.9075 H   0  0  0  0  0  0
  -22.0565   -2.7644   23.2895 H   0  0  0  0  0  0
  -22.4185  -11.9918   22.4842 H   0  0  0  0  0  0
  -21.1113  -13.1136   22.2481 H   0  0  0  0  0  0
  -24.6874  -15.8493   20.5352 H   0  0  0  0  0  0
  -26.3014  -15.6104   20.0932 H   0  0  0  0  0  0
  -26.7183  -32.5431   23.1164 H   0  0  0  0  0  0
  -24.9964  -33.9709   25.0399 H   0  0  0  0  0  0
  -22.7184  -31.3092   21.3927 H   0  0  0  0  0  0
  -23.3695  -35.9725   23.3320 H   0  0  0  0  0  0
  -24.3564  -36.8948   22.2056 H   0  0  0  0  0  0
  -23.7346  -37.6563   23.6710 H   0  0  0  0  0  0
  -26.0659  -31.5422   20.5608 H   0  0  0  0  0  0
  -26.8560  -30.8748   21.9532 H   0  0  0  0  0  0
  -28.1004  -29.0082   21.1920 H   0  0  0  0  0  0
  -25.9677  -25.9641   18.9575 H   0  0  0  0  0  0
  -23.9653  -27.3160   19.0008 H   0  0  0  0  0  0
  -23.7829  -30.6288   19.4102 H   0  0  0  0  0  0
  -22.7510  -29.2944   19.8141 H   0  0  0  0  0  0
  -25.1255  -36.1926   25.0841 H   0  0  0  0  0  0
  -21.0011  -28.3268   24.1410 H   0  0  0  0  0  0
  -20.5784  -26.2270   23.3595 H   0  0  0  0  0  0
  -21.6681  -26.7448   22.1101 H   0  0  0  0  0  0
  -19.6954  -25.6292   21.1228 H   0  0  0  0  0  0
  -19.6740  -27.3163   20.6810 H   0  0  0  0  0  0
  -17.4224  -26.6644   21.3983 H   0  0  0  0  0  0
  -18.0263  -26.0133   22.9063 H   0  0  0  0  0  0
  -19.7962  -30.7163   24.2275 H   0  0  0  0  0  0
  -17.5097  -31.6266   24.5164 H   0  0  0  0  0  0
  -15.5384  -30.3055   23.7624 H   0  0  0  0  0  0
  -15.8671  -28.0908   22.6971 H   0  0  0  0  0  0
  -24.5810  -30.7181   25.7862 H   0  0  0  0  0  0
  -24.8882  -32.2964   26.4863 H   0  0  0  0  0  0
  -25.8024  -30.9042   27.0282 H   0  0  0  0  0  0
  -26.2872  -29.6757   24.1160 H   0  0  0  0  0  0
  -27.4182  -29.7336   25.4530 H   0  0  0  0  0  0
  -27.8695  -30.4397   23.9185 H   0  0  0  0  0  0
  -27.2568  -33.3715   26.2063 H   0  0  0  0  0  0
  -28.3877  -32.6950   25.0360 H   0  0  0  0  0  0
  -28.0698  -31.8553   26.5397 H   0  0  0  0  0  0
  -28.2493  -38.0128   24.7512 H   0  0  0  0  0  0
  -28.1129  -36.2640   24.6258 H   0  0  0  0  0  0
  -27.2295  -37.1419   25.8849 H   0  0  0  0  0  0
  -20.9373  -29.9025   21.6998 H   0  0  0  0  0  0
  -26.0124  -38.2815   24.1517 H   0  0  0  0  0  0
  -27.0024  -21.8730   19.5843 H   0  0  0  0  0  0
  -28.8218  -20.5222   23.5743 H   0  0  0  0  0  0
  -29.1389  -19.6514   25.0599 H   0  0  0  0  0  0
  -27.8633  -19.0997   23.9622 H   0  0  0  0  0  0
  -35.5434  -18.4744   22.8726 H   0  0  0  0  0  0
  -34.1551  -19.5419   23.0260 H   0  0  0  0  0  0
  -35.2507  -19.7097   21.6449 H   0  0  0  0  0  0
  -35.6816  -16.7599   21.1538 H   0  0  0  0  0  0
  -35.2581  -17.7825   19.7918 H   0  0  0  0  0  0
  -34.3306  -16.3172   20.1368 H   0  0  0  0  0  0
  -31.1350  -18.6935   16.8915 H   0  0  0  0  0  0
  -32.2908  -17.5153   17.4860 H   0  0  0  0  0  0
  -32.5072  -19.2331   17.8464 H   0  0  0  0  0  0
  -30.1375  -24.9689   20.9692 H   0  0  0  0  0  0
  -30.1298  -23.8682   19.6174 H   0  0  0  0  0  0
  -29.1050  -15.9502   20.3152 H   0  0  0  0  0  0
  -29.4623  -15.5634   21.9709 H   0  0  0  0  0  0
  -29.9182  -17.6599   23.8681 H   0  0  0  0  0  0
  -30.8903  -19.0353   23.4141 H   0  0  0  0  0  0
  -33.2043  -19.2900   19.9473 H   0  0  0  0  0  0
  -32.2648  -19.4173   21.3889 H   0  0  0  0  0  0
  -27.4831  -24.7477   19.6379 H   0  0  0  0  0  0
  -28.7219  -25.3104   18.5755 H   0  0  0  0  0  0
  -28.6892  -17.7449   21.8779 H   0  0  0  0  0  0
  -33.4827  -17.3006   22.2369 H   0  0  0  0  0  0
  -31.3128  -16.9525   22.0770 H   0  0  0  0  0  0
  -32.2192  -16.8937   19.7452 H   0  0  0  0  0  0
  -30.1926  -17.6829   18.7378 H   0  0  0  0  0  0
  -30.5759  -19.2004   19.1941 H   0  0  0  0  0  0
  1 25  1  0  0  0
  1 30  2  0  0  0
  1 80  1  0  0  0
  2  3  1  0  0  0
  2 25  1  0  0  0
  2 92  1  0  0  0
  2 93  1  0  0  0
  3  4  1  0  0  0
  3 94  1  0  0  0
  3 95  1  0  0  0
  4  5  1  0  0  0
  4 96  1  0  0  0
  4 97  1  0  0  0
  5  6  1  0  0  0
  5 26  1  0  0  0
  5 98  1  0  0  0
  6 25  1  0  0  0
  6 99  1  0  0  0
  6100  1  0  0  0
  7  8  2  0  0  0
  7 26  1  0  0  0
  7 29  1  0  0  0
  8  9  1  0  0  0
  8 22  1  0  0  0
  9 10  1  0  0  0
  9 27  2  0  0  0
 10 11  2  0  0  0
 10 15  1  0  0  0
 11 12  1  0  0  0
 11101  1  0  0  0
 12 13  2  0  0  0
 12102  1  0  0  0
 13 14  1  0  0  0
 13 31  1  0  0  0
 14 15  2  0  0  0
 14103  1  0  0  0
 15104  1  0  0  0
 16 17  2  0  0  0
 16 21  1  0  0  0
 16 31  1  0  0  0
 17 18  1  0  0  0
 17105  1  0  0  0
 18 19  2  0  0  0
 18106  1  0  0  0
 19 20  1  0  0  0
 19 24  1  0  0  0
 20 21  2  0  0  0
 20107  1  0  0  0
 21 23  1  0  0  0
 22 28  1  0  0  0
 22 32  2  0  0  0
 26 27  1  0  0  0
 28108  1  0  0  0
 28109  1  0  0  0
 29110  1  0  0  0
 29111  1  0  0  0
 33 34  1  0  0  0
 33 66  1  0  0  0
 33 70  2  0  0  0
 34 36  1  0  0  0
 34 59  1  0  0  0
 34112  1  0  0  0
 35 44  2  0  0  0
 35 45  1  0  0  0
 35 68  1  0  0  0
 36 56  1  0  0  0
 36113  1  0  0  0
 37 39  1  0  0  0
 37 47  1  0  0  0
 37 66  1  0  0  0
 37114  1  0  0  0
 38 43  2  0  0  0
 38 46  1  0  0  0
 38 47  1  0  0  0
 39 64  1  0  0  0
 39 67  2  0  0  0
 40 52  1  0  0  0
 40 53  2  0  0  0
 40 58  1  0  0  0
 41115  1  0  0  0
 41116  1  0  0  0
 41117  1  0  0  0
 41 48  1  0  0  0
 42 43  1  0  0  0
 42 66  1  0  0  0
 42118  1  0  0  0
 42119  1  0  0  0
 43 44  1  0  0  0
 44120  1  0  0  0
 45 46  2  0  0  0
 45121  1  0  0  0
 46122  1  0  0  0
 47123  1  0  0  0
 47124  1  0  0  0
 48 56  1  0  0  0
 48 65  1  0  0  0
 48125  1  0  0  0
 49 50  1  0  0  0
 49 53  1  0  0  0
 49 64  1  0  0  0
 49126  1  0  0  0
 50 51  1  0  0  0
 50127  1  0  0  0
 50128  1  0  0  0
 51 52  1  0  0  0
 51129  1  0  0  0
 51130  1  0  0  0
 52131  1  0  0  0
 52132  1  0  0  0
 53 54  1  0  0  0
 54 55  2  0  0  0
 54133  1  0  0  0
 55 57  1  0  0  0
 55134  1  0  0  0
 56 69  2  0  0  0
 57 58  2  0  0  0
 57135  1  0  0  0
 58136  1  0  0  0
 59 60  1  0  0  0
 59 61  1  0  0  0
 59 62  1  0  0  0
 60137  1  0  0  0
 60138  1  0  0  0
 60139  1  0  0  0
 61140  1  0  0  0
 61141  1  0  0  0
 61142  1  0  0  0
 62143  1  0  0  0
 62144  1  0  0  0
 62145  1  0  0  0
 63 65  1  0  0  0
 63146  1  0  0  0
 63147  1  0  0  0
 63148  1  0  0  0
 64149  1  0  0  0
 65150  1  0  0  0
 68 83  1  0  0  0
 71 72  2  0  0  0
 71 91  1  0  0  0
 71151  1  0  0  0
 72 74  1  0  0  0
 72 88  1  0  0  0
 73 84  1  0  0  0
 73 88  2  0  0  0
 73 91  1  0  0  0
 74 79  1  0  0  0
 74 90  2  0  0  0
 75 81  1  0  0  0
 75152  1  0  0  0
 75153  1  0  0  0
 75154  1  0  0  0
 76155  1  0  0  0
 76156  1  0  0  0
 76157  1  0  0  0
 76 85  1  0  0  0
 77 85  1  0  0  0
 77158  1  0  0  0
 77159  1  0  0  0
 77160  1  0  0  0
 78 89  1  0  0  0
 78161  1  0  0  0
 78162  1  0  0  0
 78163  1  0  0  0
 79 83  1  0  0  0
 79164  1  0  0  0
 79165  1  0  0  0
 80166  1  0  0  0
 80167  1  0  0  0
 80 86  1  0  0  0
 81168  1  0  0  0
 81169  1  0  0  0
 81 84  1  0  0  0
 82 85  1  0  0  0
 82170  1  0  0  0
 82171  1  0  0  0
 82 87  1  0  0  0
 83172  1  0  0  0
 83173  1  0  0  0
 84 86  1  0  0  0
 84174  1  0  0  0
 85175  1  0  0  0
 86 87  1  0  0  0
 86176  1  0  0  0
 87 89  1  0  0  0
 87177  1  0  0  0
 89178  1  0  0  0
 89179  1  0  0  0
M  CHG  1  89   1
M  ISO  4   1 100  68 101  80 100  83 101
M  END
> <chiral flag>
0

> <version>
0

> <s_m_source_file>
/data/baiqing/PycharmProjects/Reinvent-master-3.2/result/LINK_invent/BTK/process_docking_weight1_custom_product_contain_oxygen_bond_distance_aromatic_linkinvent_7_9_3/rearranged_h_0189.sdf

> <i_m_source_file_index>
80

> <r_mmod_Potential_Energy-OPLS-2005>
-57.3196830749512

> <r_mmod_Stretch_Energy-OPLS-2005>
65.2192001342773

> <r_mmod_Bend_Energy-OPLS-2005>
162.293106079102

> <r_mmod_Torsional_Energy-OPLS-2005>
246.630676269531

> <r_mmod_Improper_Torsional_Energy-OPLS-2005>
6.19701671600342

> <r_mmod_Van_der_Waal_Energy-OPLS-2005>
118.278839111328

> <r_mmod_Electrostatic_Energy-OPLS-2005>
-246.751892089844

> <r_mmod_Solvation_Energy-OPLS-2005>
-435.360656738281

> <b_mmod_Minimization_Converged-OPLS-2005>
0

> <r_mmod_RMS_Derivative-OPLS-2005>
8.59194755554199

$$$$
80
                    3D
 Structure written by MMmdl.
156164  0  0  1  0            999 V2000
  -30.5851  -14.7809   20.4344 C   0  0  0  0  0  0
  -30.4169  -12.4722   19.4927 C   0  0  0  0  0  0
  -29.5029  -12.5266   18.2457 C   0  0  0  0  0  0
  -28.0303  -12.3365   18.6523 C   0  0  0  0  0  0
  -27.6314  -13.2394   19.8495 C   0  0  2  0  0  0
  -28.6692  -13.1857   20.9926 C   0  0  0  0  0  0
  -25.2463  -13.8211   20.5697 C   0  0  0  0  0  0
  -24.1767  -13.0452   20.9214 C   0  0  0  0  0  0
  -24.6361  -11.6930   20.8743 C   0  0  0  0  0  0
  -23.9048  -10.4307   21.0382 C   0  0  0  0  0  0
  -24.3604   -9.4223   21.9162 C   0  0  0  0  0  0
  -23.6303   -8.2243   22.0723 C   0  0  0  0  0  0
  -22.4284   -8.0276   21.3523 C   0  0  0  0  0  0
  -21.9910   -9.0241   20.4622 C   0  0  0  0  0  0
  -22.7221  -10.2133   20.3039 C   0  0  0  0  0  0
  -21.6862   -6.0744   22.5288 C   0  0  0  0  0  0
  -21.4018   -6.5648   23.8221 C   0  0  0  0  0  0
  -21.3654   -5.6794   24.9181 C   0  0  0  0  0  0
  -21.6040   -4.3055   24.7213 C   0  0  0  0  0  0
  -21.8824   -3.8156   23.4339 C   0  0  0  0  0  0
  -21.9196   -4.6977   22.3399 C   0  0  0  0  0  0
  -22.7792  -13.5208   21.1901 C   0  0  0  0  0  0
  -22.1667   -4.2171   21.0975 F   0  0  0  0  0  0
  -21.5617   -3.4529   25.7718 F   0  0  0  0  0  0
  -29.9748  -13.5407   20.4234 N   0  0  0  0  0  0
  -26.2870  -12.9420   20.3247 N   0  0  0  0  0  0
  -25.9291  -11.6567   20.5733 N   0  0  0  0  0  0
  -22.0440  -12.8182   22.0444 N   0  0  0  0  0  0
  -25.4169  -15.1938   20.4126 N   0  0  0  0  0  0
  -31.7733  -14.8577   20.0918 O   0  0  0  0  0  0
  -21.6643   -6.8878   21.4248 O   0  0  0  0  0  0
  -22.3463  -14.5519   20.6764 O   0  0  0  0  0  0
  -24.6326  -31.8504   23.1915 C   0  0  0  0  0  0
  -25.9130  -32.4735   23.8287 C   0  0  1  0  0  0
  -27.2318  -27.2411   20.1264 C   0  0  0  0  0  0
  -25.5906  -33.8531   24.2213 N   0  0  0  0  0  0
  -23.4310  -30.4723   21.5325 C   0  0  2  0  0  0
  -24.8785  -28.9052   20.1070 C   0  0  0  0  0  0
  -22.7494  -29.4604   22.4857 C   0  0  0  0  0  0
  -18.0296  -28.1405   22.8470 C   0  0  0  0  0  0
  -24.1483  -36.7275   23.2641 C   0  0  0  0  0  0
  -25.9757  -30.7605   21.3671 C   0  0  0  0  0  0
  -26.0493  -29.3790   20.7104 C   0  0  0  0  0  0
  -27.2229  -28.5591   20.7050 C   0  0  0  0  0  0
  -26.0270  -26.8217   19.5239 C   0  0  0  0  0  0
  -24.8731  -27.6342   19.5055 C   0  0  0  0  0  0
  -23.6490  -29.7935   20.1529 C   0  0  0  0  0  0
  -25.4112  -36.3061   24.0326 C   0  0  1  0  0  0
  -20.5898  -28.3722   23.1238 C   0  0  2  0  0  0
  -20.6775  -26.9434   22.5395 C   0  0  0  0  0  0
  -19.5757  -26.6394   21.5192 C   0  0  0  0  0  0
  -18.1943  -26.7947   22.1616 C   0  0  0  0  0  0
  -19.1548  -28.8878   23.2863 C   0  0  0  0  0  0
  -18.9471  -30.1475   23.8895 C   0  0  0  0  0  0
  -17.6470  -30.6601   24.0569 C   0  0  0  0  0  0
  -25.9053  -34.9435   23.5081 C   0  0  0  0  0  0
  -16.5363  -29.9105   23.6330 C   0  0  0  0  0  0
  -16.7286  -28.6528   23.0342 C   0  0  0  0  0  0
  -26.4485  -31.6580   25.0691 C   0  0  0  0  0  0
  -25.3693  -31.3746   26.1400 C   0  0  0  0  0  0
  -27.0326  -30.3001   24.6188 C   0  0  0  0  0  0
  -27.6042  -32.4322   25.7464 C   0  0  0  0  0  0
  -27.5580  -37.1788   24.8463 C   0  0  0  0  0  0
  -21.4199  -29.3069   22.3610 N   0  0  0  0  0  0
  -26.4289  -37.3765   23.9417 N   0  0  0  0  0  0
  -24.6993  -31.0463   22.0873 N   0  0  0  0  0  0
  -23.4187  -28.8143   23.2959 O   0  0  0  0  0  0
  -28.3631  -26.3918   20.2283 O   0  0  0  0  0  0
  -26.5648  -34.8926   22.4666 O   0  0  0  0  0  0
  -23.5472  -32.1314   23.7213 O   0  0  0  0  0  0
  -29.1480  -19.3611   18.4600 C   0  0  0  0  0  0
  -29.1914  -19.5307   19.8432 C   0  0  0  0  0  0
  -29.4302  -18.1058   17.9224 C   0  0  0  0  0  0
  -29.7086  -17.1718   20.0024 C   0  0  0  0  0  0
  -29.9839  -22.3072   18.6043 C   0  0  0  0  0  0
  -28.3529  -25.1613   18.0666 C   0  0  0  0  0  0
  -28.2790  -23.5470   20.1811 C   0  0  0  0  0  0
  -29.2928  -22.2560   19.9761 C   0  0  1  0  0  0
  -28.6261  -25.0457   19.5820 C   0  0  2  0  0  0
  -29.4263  -18.3860   20.6063 N   0  0  0  0  0  0
  -29.7179  -17.0385   18.6832 N   0  0  0  0  0  0
  -28.8766  -20.8356   20.4223 N   0  0  0  0  0  0
  -29.8346  -15.9266   20.7126 N   0  0  0  0  0  0
  -29.3895  -17.9435   16.5800 F   0  0  0  0  0  0
  -31.4617  -12.5849   19.1998 H   0  0  0  0  0  0
  -30.3452  -11.4969   19.9748 H   0  0  0  0  0  0
  -29.7988  -11.7629   17.5257 H   0  0  0  0  0  0
  -29.6188  -13.4865   17.7395 H   0  0  0  0  0  0
  -27.8980  -11.2868   18.9154 H   0  0  0  0  0  0
  -27.3708  -12.5207   17.8014 H   0  0  0  0  0  0
  -27.6194  -14.2592   19.4629 H   0  0  0  0  0  0
  -28.6989  -12.1922   21.4416 H   0  0  0  0  0  0
  -28.3873  -13.8707   21.7930 H   0  0  0  0  0  0
  -25.2736   -9.5720   22.4740 H   0  0  0  0  0  0
  -24.0030   -7.4626   22.7434 H   0  0  0  0  0  0
  -21.0842   -8.8743   19.8921 H   0  0  0  0  0  0
  -22.3658  -10.9664   19.6143 H   0  0  0  0  0  0
  -21.2026   -7.6158   23.9738 H   0  0  0  0  0  0
  -21.1462   -6.0512   25.9084 H   0  0  0  0  0  0
  -22.0611   -2.7624   23.2821 H   0  0  0  0  0  0
  -22.4064  -11.9827   22.4808 H   0  0  0  0  0  0
  -21.1047  -13.1181   22.2652 H   0  0  0  0  0  0
  -24.6477  -15.8465   20.5177 H   0  0  0  0  0  0
  -26.2573  -15.6286   20.0567 H   0  0  0  0  0  0
  -26.7190  -32.5380   23.1022 H   0  0  0  0  0  0
  -25.0002  -33.9646   25.0328 H   0  0  0  0  0  0
  -22.7313  -31.2966   21.3782 H   0  0  0  0  0  0
  -23.3758  -35.9592   23.3285 H   0  0  0  0  0  0
  -24.3576  -36.8918   22.2059 H   0  0  0  0  0  0
  -23.7221  -37.6464   23.6677 H   0  0  0  0  0  0
  -26.1104  -31.5163   20.5919 H   0  0  0  0  0  0
  -26.8552  -30.8147   21.9984 H   0  0  0  0  0  0
  -28.1217  -28.9187   21.1869 H   0  0  0  0  0  0
  -25.9409  -25.8286   19.1149 H   0  0  0  0  0  0
  -23.9668  -27.2518   19.0565 H   0  0  0  0  0  0
  -23.7726  -30.5606   19.3872 H   0  0  0  0  0  0
  -22.7674  -29.2226   19.8548 H   0  0  0  0  0  0
  -25.1303  -36.1891   25.0821 H   0  0  0  0  0  0
  -21.0029  -28.3311   24.1341 H   0  0  0  0  0  0
  -20.5626  -26.2346   23.3607 H   0  0  0  0  0  0
  -21.6648  -26.7421   22.1220 H   0  0  0  0  0  0
  -19.6918  -25.6297   21.1240 H   0  0  0  0  0  0
  -19.6703  -27.3185   20.6705 H   0  0  0  0  0  0
  -17.4203  -26.6670   21.4036 H   0  0  0  0  0  0
  -18.0382  -26.0102   22.9029 H   0  0  0  0  0  0
  -19.7948  -30.7292   24.2267 H   0  0  0  0  0  0
  -17.5029  -31.6278   24.5177 H   0  0  0  0  0  0
  -15.5370  -30.3014   23.7659 H   0  0  0  0  0  0
  -15.8685  -28.0861   22.7048 H   0  0  0  0  0  0
  -24.5867  -30.7103   25.7717 H   0  0  0  0  0  0
  -24.8875  -32.2912   26.4811 H   0  0  0  0  0  0
  -25.7973  -30.8921   27.0191 H   0  0  0  0  0  0
  -26.2904  -29.6750   24.1204 H   0  0  0  0  0  0
  -27.3994  -29.7276   25.4715 H   0  0  0  0  0  0
  -27.8789  -30.4287   23.9438 H   0  0  0  0  0  0
  -27.2669  -33.3640   26.2023 H   0  0  0  0  0  0
  -28.3861  -32.6852   25.0290 H   0  0  0  0  0  0
  -28.0698  -31.8451   26.5389 H   0  0  0  0  0  0
  -28.2589  -38.0096   24.7537 H   0  0  0  0  0  0
  -28.1088  -36.2630   24.6258 H   0  0  0  0  0  0
  -27.2303  -37.1402   25.8866 H   0  0  0  0  0  0
  -20.9370  -29.8806   21.6835 H   0  0  0  0  0  0
  -26.0160  -38.2836   24.1430 H   0  0  0  0  0  0
  -28.8728  -20.1508   17.7842 H   0  0  0  0  0  0
  -30.5280  -23.2419   18.4817 H   0  0  0  0  0  0
  -29.2628  -22.2472   17.7915 H   0  0  0  0  0  0
  -30.7316  -21.5228   18.4857 H   0  0  0  0  0  0
  -28.9873  -24.5077   17.4733 H   0  0  0  0  0  0
  -28.5434  -26.1728   17.7063 H   0  0  0  0  0  0
  -27.3289  -24.8941   17.8128 H   0  0  0  0  0  0
  -28.1279  -23.6586   21.2550 H   0  0  0  0  0  0
  -27.2987  -23.2699   19.7950 H   0  0  0  0  0  0
  -30.1096  -22.4680   20.6668 H   0  0  0  0  0  0
  -29.7132  -25.0643   19.6619 H   0  0  0  0  0  0
  -28.7222  -20.7724   21.4237 H   0  0  0  0  0  0
  -29.0549  -15.7545   21.3246 H   0  0  0  0  0  0
  1 25  1  0  0  0
  1 30  2  0  0  0
  1 83  1  0  0  0
  2  3  1  0  0  0
  2 25  1  0  0  0
  2 85  1  0  0  0
  2 86  1  0  0  0
  3  4  1  0  0  0
  3 87  1  0  0  0
  3 88  1  0  0  0
  4  5  1  0  0  0
  4 89  1  0  0  0
  4 90  1  0  0  0
  5  6  1  0  0  0
  5 26  1  0  0  0
  5 91  1  0  0  0
  6 25  1  0  0  0
  6 92  1  0  0  0
  6 93  1  0  0  0
  7  8  2  0  0  0
  7 26  1  0  0  0
  7 29  1  0  0  0
  8  9  1  0  0  0
  8 22  1  0  0  0
  9 10  1  0  0  0
  9 27  2  0  0  0
 10 11  2  0  0  0
 10 15  1  0  0  0
 11 12  1  0  0  0
 11 94  1  0  0  0
 12 13  2  0  0  0
 12 95  1  0  0  0
 13 14  1  0  0  0
 13 31  1  0  0  0
 14 15  2  0  0  0
 14 96  1  0  0  0
 15 97  1  0  0  0
 16 17  2  0  0  0
 16 21  1  0  0  0
 16 31  1  0  0  0
 17 18  1  0  0  0
 17 98  1  0  0  0
 18 19  2  0  0  0
 18 99  1  0  0  0
 19 20  1  0  0  0
 19 24  1  0  0  0
 20 21  2  0  0  0
 20100  1  0  0  0
 21 23  1  0  0  0
 22 28  1  0  0  0
 22 32  2  0  0  0
 26 27  1  0  0  0
 28101  1  0  0  0
 28102  1  0  0  0
 29103  1  0  0  0
 29104  1  0  0  0
 33 34  1  0  0  0
 33 66  1  0  0  0
 33 70  2  0  0  0
 34 36  1  0  0  0
 34 59  1  0  0  0
 34105  1  0  0  0
 35 44  2  0  0  0
 35 45  1  0  0  0
 35 68  1  0  0  0
 36 56  1  0  0  0
 36106  1  0  0  0
 37 39  1  0  0  0
 37 47  1  0  0  0
 37 66  1  0  0  0
 37107  1  0  0  0
 38 43  2  0  0  0
 38 46  1  0  0  0
 38 47  1  0  0  0
 39 64  1  0  0  0
 39 67  2  0  0  0
 40 52  1  0  0  0
 40 53  2  0  0  0
 40 58  1  0  0  0
 41108  1  0  0  0
 41109  1  0  0  0
 41110  1  0  0  0
 41 48  1  0  0  0
 42 43  1  0  0  0
 42 66  1  0  0  0
 42111  1  0  0  0
 42112  1  0  0  0
 43 44  1  0  0  0
 44113  1  0  0  0
 45 46  2  0  0  0
 45114  1  0  0  0
 46115  1  0  0  0
 47116  1  0  0  0
 47117  1  0  0  0
 48 56  1  0  0  0
 48 65  1  0  0  0
 48118  1  0  0  0
 49 50  1  0  0  0
 49 53  1  0  0  0
 49 64  1  0  0  0
 49119  1  0  0  0
 50 51  1  0  0  0
 50120  1  0  0  0
 50121  1  0  0  0
 51 52  1  0  0  0
 51122  1  0  0  0
 51123  1  0  0  0
 52124  1  0  0  0
 52125  1  0  0  0
 53 54  1  0  0  0
 54 55  2  0  0  0
 54126  1  0  0  0
 55 57  1  0  0  0
 55127  1  0  0  0
 56 69  2  0  0  0
 57 58  2  0  0  0
 57128  1  0  0  0
 58129  1  0  0  0
 59 60  1  0  0  0
 59 61  1  0  0  0
 59 62  1  0  0  0
 60130  1  0  0  0
 60131  1  0  0  0
 60132  1  0  0  0
 61133  1  0  0  0
 61134  1  0  0  0
 61135  1  0  0  0
 62136  1  0  0  0
 62137  1  0  0  0
 62138  1  0  0  0
 63 65  1  0  0  0
 63139  1  0  0  0
 63140  1  0  0  0
 63141  1  0  0  0
 64142  1  0  0  0
 65143  1  0  0  0
 68 79  1  0  0  0
 71 72  2  0  0  0
 71 73  1  0  0  0
 71144  1  0  0  0
 72 80  1  0  0  0
 72 82  1  0  0  0
 73 81  2  0  0  0
 73 84  1  0  0  0
 74 80  2  0  0  0
 74 81  1  0  0  0
 74 83  1  0  0  0
 75145  1  0  0  0
 75146  1  0  0  0
 75147  1  0  0  0
 75 78  1  0  0  0
 76148  1  0  0  0
 76149  1  0  0  0
 76150  1  0  0  0
 76 79  1  0  0  0
 77 78  1  0  0  0
 77 79  1  0  0  0
 77151  1  0  0  0
 77152  1  0  0  0
 78 82  1  0  0  0
 78153  1  0  0  0
 79154  1  0  0  0
 82155  1  0  0  0
 83156  1  0  0  0
M  ISO  4   1 100  68 101  79 101  83 100
M  END
> <chiral flag>
0

> <version>
0

> <s_m_source_file>
/data/baiqing/PycharmProjects/Reinvent-master-3.2/result/LINK_invent/BTK/process_docking_weight1_custom_product_contain_oxygen_bond_distance_aromatic_linkinvent_7_9_3/rearranged_h_0189.sdf

> <i_m_source_file_index>
81

> <r_mmod_Potential_Energy-OPLS-2005>
-201.77165222168

> <r_mmod_Stretch_Energy-OPLS-2005>
152.781677246094

> <r_mmod_Bend_Energy-OPLS-2005>
245.622787475586

> <r_mmod_Torsional_Energy-OPLS-2005>
244.913787841797

> <r_mmod_Improper_Torsional_Energy-OPLS-2005>
7.28556966781616

> <r_mmod_Van_der_Waal_Energy-OPLS-2005>
149.982986450195

> <r_mmod_Electrostatic_Energy-OPLS-2005>
-870.370178222656

> <r_mmod_Solvation_Energy-OPLS-2005>
-228.967147827148

> <b_mmod_Minimization_Converged-OPLS-2005>
0

> <r_mmod_RMS_Derivative-OPLS-2005>
2.67253684997559

$$$$
81
                    3D
 Structure written by MMmdl.
171179  0  0  1  0            999 V2000
  -30.7199  -14.5024   20.5300 C   0  0  0  0  0  0
  -30.4181  -12.3158   19.4215 C   0  0  0  0  0  0
  -29.4896  -12.4864   18.2012 C   0  0  0  0  0  0
  -28.0116  -12.3526   18.6210 C   0  0  0  0  0  0
  -27.6558  -13.2176   19.8590 C   0  0  2  0  0  0
  -28.7059  -13.0398   20.9795 C   0  0  0  0  0  0
  -25.2596  -13.8196   20.5723 C   0  0  0  0  0  0
  -24.1849  -13.0443   20.9180 C   0  0  0  0  0  0
  -24.6433  -11.6920   20.8752 C   0  0  0  0  0  0
  -23.9109  -10.4297   21.0404 C   0  0  0  0  0  0
  -24.3636   -9.4196   21.9184 C   0  0  0  0  0  0
  -23.6295   -8.2243   22.0755 C   0  0  0  0  0  0
  -22.4268   -8.0299   21.3548 C   0  0  0  0  0  0
  -21.9921   -9.0291   20.4645 C   0  0  0  0  0  0
  -22.7279  -10.2149   20.3056 C   0  0  0  0  0  0
  -21.6860   -6.0750   22.5288 C   0  0  0  0  0  0
  -21.4007   -6.5634   23.8229 C   0  0  0  0  0  0
  -21.3649   -5.6791   24.9194 C   0  0  0  0  0  0
  -21.6056   -4.3062   24.7239 C   0  0  0  0  0  0
  -21.8802   -3.8134   23.4363 C   0  0  0  0  0  0
  -21.9184   -4.6965   22.3417 C   0  0  0  0  0  0
  -22.7860  -13.5230   21.1852 C   0  0  0  0  0  0
  -22.1652   -4.2146   21.0994 F   0  0  0  0  0  0
  -21.5626   -3.4528   25.7757 F   0  0  0  0  0  0
  -30.0319  -13.3324   20.4084 N   0  0  0  0  0  0
  -26.3026  -12.9400   20.3344 N   0  0  0  0  0  0
  -25.9377  -11.6541   20.5777 N   0  0  0  0  0  0
  -22.0503  -12.8223   22.0395 N   0  0  0  0  0  0
  -25.4313  -15.1918   20.4202 N   0  0  0  0  0  0
  -31.8779  -14.6377   20.1331 O   0  0  0  0  0  0
  -21.6627   -6.8884   21.4259 O   0  0  0  0  0  0
  -22.3542  -14.5532   20.6692 O   0  0  0  0  0  0
  -24.6194  -31.8667   23.2069 C   0  0  0  0  0  0
  -25.9064  -32.4806   23.8408 C   0  0  1  0  0  0
  -27.2208  -27.3858   20.0696 C   0  0  0  0  0  0
  -25.5923  -33.8604   24.2357 N   0  0  0  0  0  0
  -23.4075  -30.4963   21.5460 C   0  0  2  0  0  0
  -24.8452  -28.9557   20.1107 C   0  0  0  0  0  0
  -22.7434  -29.4682   22.4923 C   0  0  0  0  0  0
  -18.0304  -28.1414   22.8492 C   0  0  0  0  0  0
  -24.1465  -36.7288   23.2643 C   0  0  0  0  0  0
  -25.9397  -30.8168   21.3597 C   0  0  0  0  0  0
  -26.0117  -29.4466   20.7054 C   0  0  0  0  0  0
  -27.1969  -28.6687   20.6838 C   0  0  0  0  0  0
  -26.0146  -26.9110   19.4961 C   0  0  0  0  0  0
  -24.8430  -27.6890   19.5099 C   0  0  0  0  0  0
  -23.6152  -29.8339   20.1611 C   0  0  0  0  0  0
  -25.4095  -36.3116   24.0367 C   0  0  1  0  0  0
  -20.5882  -28.3705   23.1281 C   0  0  2  0  0  0
  -20.6761  -26.9438   22.5381 C   0  0  0  0  0  0
  -19.5740  -26.6432   21.5172 C   0  0  0  0  0  0
  -18.1937  -26.7962   22.1623 C   0  0  0  0  0  0
  -19.1547  -28.8874   23.2895 C   0  0  0  0  0  0
  -18.9481  -30.1466   23.8928 C   0  0  0  0  0  0
  -17.6484  -30.6600   24.0580 C   0  0  0  0  0  0
  -25.9032  -34.9484   23.5155 C   0  0  0  0  0  0
  -16.5374  -29.9111   23.6318 C   0  0  0  0  0  0
  -16.7293  -28.6523   23.0346 C   0  0  0  0  0  0
  -26.4498  -31.6589   25.0729 C   0  0  0  0  0  0
  -25.3772  -31.3681   26.1483 C   0  0  0  0  0  0
  -27.0306  -30.3038   24.6077 C   0  0  0  0  0  0
  -27.6120  -32.4272   25.7484 C   0  0  0  0  0  0
  -27.5573  -37.1789   24.8495 C   0  0  0  0  0  0
  -21.4156  -29.3081   22.3669 N   0  0  0  0  0  0
  -26.4279  -37.3802   23.9446 N   0  0  0  0  0  0
  -24.6751  -31.0748   22.0962 N   0  0  0  0  0  0
  -23.4193  -28.8232   23.2972 O   0  0  0  0  0  0
  -28.4058  -26.6535   20.0781 O   0  0  0  0  0  0
  -26.5603  -34.8950   22.4716 O   0  0  0  0  0  0
  -23.5389  -32.1447   23.7450 O   0  0  0  0  0  0
  -27.5592  -19.8062   19.9603 C   0  0  0  0  0  0
  -29.8655  -19.3368   20.4391 C   0  0  0  0  0  0
  -27.3004  -18.4375   20.1414 C   0  0  0  0  0  0
  -28.8691  -20.3021   20.1355 C   0  0  0  0  0  0
  -29.5092  -17.9854   20.6856 C   0  0  0  0  0  0
  -28.4438  -22.8106   19.9341 C   0  0  0  0  0  0
  -30.5914  -24.2141   20.3642 C   0  0  0  0  0  0
  -32.8897  -18.4721   22.6018 C   0  0  0  0  0  0
  -30.7865  -19.4850   23.5923 C   0  0  0  0  0  0
  -32.0105  -17.7125   24.8040 C   0  0  0  0  0  0
  -30.7741  -17.0247   22.7494 C   0  0  0  0  0  0
  -28.5467  -25.3932   19.3638 C   0  0  0  0  0  0
  -30.5137  -16.9375   21.2130 C   0  0  2  0  0  0
  -29.0502  -24.2137   20.2681 C   0  0  1  0  0  0
  -31.5990  -18.1850   23.3919 C   0  0  0  0  0  0
  -28.2392  -17.5487   20.5229 N   0  0  0  0  0  0
  -29.2203  -21.7033   20.0909 N   0  0  0  0  0  0
  -30.0183  -15.5614   20.9683 N   0  0  0  0  0  0
  -27.2727  -22.7597   19.5533 O   0  0  0  0  0  0
  -31.4635  -12.3943   19.1145 H   0  0  0  0  0  0
  -30.3078  -11.3187   19.8509 H   0  0  0  0  0  0
  -29.7276  -11.7431   17.4396 H   0  0  0  0  0  0
  -29.6577  -13.4613   17.7422 H   0  0  0  0  0  0
  -27.8335  -11.3002   18.8432 H   0  0  0  0  0  0
  -27.3541  -12.5950   17.7843 H   0  0  0  0  0  0
  -27.6865  -14.2575   19.5339 H   0  0  0  0  0  0
  -28.6923  -12.0169   21.3581 H   0  0  0  0  0  0
  -28.4765  -13.6777   21.8356 H   0  0  0  0  0  0
  -25.2789   -9.5650   22.4773 H   0  0  0  0  0  0
  -23.9997   -7.4619   22.7455 H   0  0  0  0  0  0
  -21.0863   -8.8844   19.8954 H   0  0  0  0  0  0
  -22.3772  -10.9711   19.6157 H   0  0  0  0  0  0
  -21.2010   -7.6147   23.9746 H   0  0  0  0  0  0
  -21.1480   -6.0511   25.9104 H   0  0  0  0  0  0
  -22.0589   -2.7607   23.2868 H   0  0  0  0  0  0
  -22.4097  -11.9891   22.4811 H   0  0  0  0  0  0
  -21.1139  -13.1266   22.2608 H   0  0  0  0  0  0
  -24.6750  -15.8498   20.5744 H   0  0  0  0  0  0
  -26.3103  -15.6422   20.1884 H   0  0  0  0  0  0
  -26.7112  -32.5504   23.1156 H   0  0  0  0  0  0
  -25.0078  -33.9776   25.0517 H   0  0  0  0  0  0
  -22.6958  -31.3124   21.4093 H   0  0  0  0  0  0
  -23.3738  -35.9587   23.3316 H   0  0  0  0  0  0
  -24.3556  -36.8885   22.2052 H   0  0  0  0  0  0
  -23.7201  -37.6505   23.6611 H   0  0  0  0  0  0
  -26.0489  -31.5749   20.5841 H   0  0  0  0  0  0
  -26.8276  -30.8764   21.9758 H   0  0  0  0  0  0
  -28.0968  -29.0510   21.1487 H   0  0  0  0  0  0
  -25.9136  -25.9382   19.0454 H   0  0  0  0  0  0
  -23.9360  -27.2953   19.0691 H   0  0  0  0  0  0
  -23.7365  -30.6061   19.4006 H   0  0  0  0  0  0
  -22.7355  -29.2626   19.8635 H   0  0  0  0  0  0
  -25.1244  -36.1985   25.0851 H   0  0  0  0  0  0
  -21.0017  -28.3256   24.1383 H   0  0  0  0  0  0
  -20.5604  -26.2336   23.3571 H   0  0  0  0  0  0
  -21.6642  -26.7434   22.1208 H   0  0  0  0  0  0
  -19.6877  -25.6338   21.1204 H   0  0  0  0  0  0
  -19.6657  -27.3230   20.6683 H   0  0  0  0  0  0
  -17.4179  -26.6702   21.4047 H   0  0  0  0  0  0
  -18.0375  -26.0106   22.9039 H   0  0  0  0  0  0
  -19.7959  -30.7266   24.2313 H   0  0  0  0  0  0
  -17.5053  -31.6275   24.5202 H   0  0  0  0  0  0
  -15.5380  -30.3039   23.7617 H   0  0  0  0  0  0
  -15.8703  -28.0847   22.7061 H   0  0  0  0  0  0
  -24.5990  -30.6966   25.7826 H   0  0  0  0  0  0
  -24.8888  -32.2802   26.4911 H   0  0  0  0  0  0
  -25.8155  -30.8906   27.0252 H   0  0  0  0  0  0
  -26.2827  -29.6809   24.1140 H   0  0  0  0  0  0
  -27.4119  -29.7274   25.4518 H   0  0  0  0  0  0
  -27.8648  -30.4394   23.9186 H   0  0  0  0  0  0
  -27.2821  -33.3594   26.2087 H   0  0  0  0  0  0
  -28.3929  -32.6785   25.0284 H   0  0  0  0  0  0
  -28.0758  -31.8346   26.5391 H   0  0  0  0  0  0
  -28.2621  -38.0052   24.7527 H   0  0  0  0  0  0
  -28.1045  -36.2608   24.6319 H   0  0  0  0  0  0
  -27.2308  -37.1447   25.8899 H   0  0  0  0  0  0
  -20.9296  -29.8873   21.6959 H   0  0  0  0  0  0
  -26.0185  -38.2876   24.1435 H   0  0  0  0  0  0
  -26.7267  -20.4471   19.7155 H   0  0  0  0  0  0
  -30.8917  -19.6451   20.5653 H   0  0  0  0  0  0
  -26.3003  -18.0503   20.0092 H   0  0  0  0  0  0
  -31.0643  -23.9643   19.4114 H   0  0  0  0  0  0
  -30.9565  -23.5212   21.1244 H   0  0  0  0  0  0
  -30.9496  -25.2024   20.6537 H   0  0  0  0  0  0
  -33.4833  -19.2491   23.0854 H   0  0  0  0  0  0
  -32.6892  -18.8181   21.5909 H   0  0  0  0  0  0
  -33.5164  -17.5821   22.5194 H   0  0  0  0  0  0
  -31.2759  -20.1454   24.3076 H   0  0  0  0  0  0
  -29.7863  -19.2912   23.9785 H   0  0  0  0  0  0
  -30.6821  -20.0786   22.6917 H   0  0  0  0  0  0
  -32.5825  -18.4759   25.3349 H   0  0  0  0  0  0
  -32.6338  -16.8162   24.7719 H   0  0  0  0  0  0
  -31.1369  -17.4796   25.4156 H   0  0  0  0  0  0
  -31.3159  -16.1115   23.0030 H   0  0  0  0  0  0
  -29.8221  -16.9338   23.2730 H   0  0  0  0  0  0
  -27.6818  -25.0916   18.7849 H   0  0  0  0  0  0
  -29.2965  -25.5787   18.5939 H   0  0  0  0  0  0
  -31.4493  -17.0790   20.6689 H   0  0  0  0  0  0
  -28.6706  -24.4185   21.2692 H   0  0  0  0  0  0
  -30.1826  -21.9090   20.3142 H   0  0  0  0  0  0
  -29.0225  -15.4538   21.0938 H   0  0  0  0  0  0
  1 25  1  0  0  0
  1 30  2  0  0  0
  1 88  1  0  0  0
  2  3  1  0  0  0
  2 25  1  0  0  0
  2 90  1  0  0  0
  2 91  1  0  0  0
  3  4  1  0  0  0
  3 92  1  0  0  0
  3 93  1  0  0  0
  4  5  1  0  0  0
  4 94  1  0  0  0
  4 95  1  0  0  0
  5  6  1  0  0  0
  5 26  1  0  0  0
  5 96  1  0  0  0
  6 25  1  0  0  0
  6 97  1  0  0  0
  6 98  1  0  0  0
  7  8  2  0  0  0
  7 26  1  0  0  0
  7 29  1  0  0  0
  8  9  1  0  0  0
  8 22  1  0  0  0
  9 10  1  0  0  0
  9 27  2  0  0  0
 10 11  2  0  0  0
 10 15  1  0  0  0
 11 12  1  0  0  0
 11 99  1  0  0  0
 12 13  2  0  0  0
 12100  1  0  0  0
 13 14  1  0  0  0
 13 31  1  0  0  0
 14 15  2  0  0  0
 14101  1  0  0  0
 15102  1  0  0  0
 16 17  2  0  0  0
 16 21  1  0  0  0
 16 31  1  0  0  0
 17 18  1  0  0  0
 17103  1  0  0  0
 18 19  2  0  0  0
 18104  1  0  0  0
 19 20  1  0  0  0
 19 24  1  0  0  0
 20 21  2  0  0  0
 20105  1  0  0  0
 21 23  1  0  0  0
 22 28  1  0  0  0
 22 32  2  0  0  0
 26 27  1  0  0  0
 28106  1  0  0  0
 28107  1  0  0  0
 29108  1  0  0  0
 29109  1  0  0  0
 33 34  1  0  0  0
 33 66  1  0  0  0
 33 70  2  0  0  0
 34 36  1  0  0  0
 34 59  1  0  0  0
 34110  1  0  0  0
 35 44  2  0  0  0
 35 45  1  0  0  0
 35 68  1  0  0  0
 36 56  1  0  0  0
 36111  1  0  0  0
 37 39  1  0  0  0
 37 47  1  0  0  0
 37 66  1  0  0  0
 37112  1  0  0  0
 38 43  2  0  0  0
 38 46  1  0  0  0
 38 47  1  0  0  0
 39 64  1  0  0  0
 39 67  2  0  0  0
 40 52  1  0  0  0
 40 53  2  0  0  0
 40 58  1  0  0  0
 41113  1  0  0  0
 41114  1  0  0  0
 41115  1  0  0  0
 41 48  1  0  0  0
 42 43  1  0  0  0
 42 66  1  0  0  0
 42116  1  0  0  0
 42117  1  0  0  0
 43 44  1  0  0  0
 44118  1  0  0  0
 45 46  2  0  0  0
 45119  1  0  0  0
 46120  1  0  0  0
 47121  1  0  0  0
 47122  1  0  0  0
 48 56  1  0  0  0
 48 65  1  0  0  0
 48123  1  0  0  0
 49 50  1  0  0  0
 49 53  1  0  0  0
 49 64  1  0  0  0
 49124  1  0  0  0
 50 51  1  0  0  0
 50125  1  0  0  0
 50126  1  0  0  0
 51 52  1  0  0  0
 51127  1  0  0  0
 51128  1  0  0  0
 52129  1  0  0  0
 52130  1  0  0  0
 53 54  1  0  0  0
 54 55  2  0  0  0
 54131  1  0  0  0
 55 57  1  0  0  0
 55132  1  0  0  0
 56 69  2  0  0  0
 57 58  2  0  0  0
 57133  1  0  0  0
 58134  1  0  0  0
 59 60  1  0  0  0
 59 61  1  0  0  0
 59 62  1  0  0  0
 60135  1  0  0  0
 60136  1  0  0  0
 60137  1  0  0  0
 61138  1  0  0  0
 61139  1  0  0  0
 61140  1  0  0  0
 62141  1  0  0  0
 62142  1  0  0  0
 62143  1  0  0  0
 63 65  1  0  0  0
 63144  1  0  0  0
 63145  1  0  0  0
 63146  1  0  0  0
 64147  1  0  0  0
 65148  1  0  0  0
 68 82  1  0  0  0
 71 73  2  0  0  0
 71 74  1  0  0  0
 71149  1  0  0  0
 72 74  2  0  0  0
 72 75  1  0  0  0
 72150  1  0  0  0
 73 86  1  0  0  0
 73151  1  0  0  0
 74 87  1  0  0  0
 75 83  1  0  0  0
 75 86  2  0  0  0
 76 84  1  0  0  0
 76 87  1  0  0  0
 76 89  2  0  0  0
 77152  1  0  0  0
 77153  1  0  0  0
 77154  1  0  0  0
 77 84  1  0  0  0
 78155  1  0  0  0
 78156  1  0  0  0
 78157  1  0  0  0
 78 85  1  0  0  0
 79 85  1  0  0  0
 79158  1  0  0  0
 79159  1  0  0  0
 79160  1  0  0  0
 80 85  1  0  0  0
 80161  1  0  0  0
 80162  1  0  0  0
 80163  1  0  0  0
 81 85  1  0  0  0
 81164  1  0  0  0
 81165  1  0  0  0
 81 83  1  0  0  0
 82 84  1  0  0  0
 82166  1  0  0  0
 82167  1  0  0  0
 83 88  1  0  0  0
 83168  1  0  0  0
 84169  1  0  0  0
 87170  1  0  0  0
 88171  1  0  0  0
M  ISO  4   1 100  68 101  82 101  88 100
M  END
> <chiral flag>
0

> <version>
0

> <s_m_source_file>
/data/baiqing/PycharmProjects/Reinvent-master-3.2/result/LINK_invent/BTK/process_docking_weight1_custom_product_contain_oxygen_bond_distance_aromatic_linkinvent_7_9_3/rearranged_h_0189.sdf

> <i_m_source_file_index>
82

> <r_mmod_Potential_Energy-OPLS-2005>
-273.509033203125

> <r_mmod_Stretch_Energy-OPLS-2005>
52.8474807739258

> <r_mmod_Bend_Energy-OPLS-2005>
145.082733154297

> <r_mmod_Torsional_Energy-OPLS-2005>
224.582168579102

> <r_mmod_Improper_Torsional_Energy-OPLS-2005>
3.52437853813171

> <r_mmod_Van_der_Waal_Energy-OPLS-2005>
168.202545166016

> <r_mmod_Electrostatic_Energy-OPLS-2005>
-676.84326171875

> <r_mmod_Solvation_Energy-OPLS-2005>
-212.120712280273

> <b_mmod_Minimization_Converged-OPLS-2005>
0

> <r_mmod_RMS_Derivative-OPLS-2005>
4.31379175186157

$$$$
82
                    3D
 Structure written by MMmdl.
163171  0  0  1  0            999 V2000
  -30.7068  -14.4804   20.5186 C   0  0  0  0  0  0
  -30.4183  -12.3066   19.4217 C   0  0  0  0  0  0
  -29.4879  -12.5117   18.2065 C   0  0  0  0  0  0
  -28.0119  -12.3656   18.6214 C   0  0  0  0  0  0
  -27.6586  -13.2087   19.8744 C   0  0  2  0  0  0
  -28.7057  -13.0150   20.9970 C   0  0  0  0  0  0
  -25.2563  -13.8187   20.5725 C   0  0  0  0  0  0
  -24.1845  -13.0457   20.9239 C   0  0  0  0  0  0
  -24.6396  -11.6923   20.8800 C   0  0  0  0  0  0
  -23.9061  -10.4318   21.0441 C   0  0  0  0  0  0
  -24.3610   -9.4226   21.9203 C   0  0  0  0  0  0
  -23.6294   -8.2249   22.0750 C   0  0  0  0  0  0
  -22.4265   -8.0303   21.3548 C   0  0  0  0  0  0
  -21.9919   -9.0283   20.4639 C   0  0  0  0  0  0
  -22.7251  -10.2167   20.3066 C   0  0  0  0  0  0
  -21.6843   -6.0758   22.5287 C   0  0  0  0  0  0
  -21.4005   -6.5655   23.8227 C   0  0  0  0  0  0
  -21.3666   -5.6795   24.9183 C   0  0  0  0  0  0
  -21.6043   -4.3065   24.7209 C   0  0  0  0  0  0
  -21.8817   -3.8167   23.4325 C   0  0  0  0  0  0
  -21.9184   -4.6996   22.3402 C   0  0  0  0  0  0
  -22.7854  -13.5221   21.1889 C   0  0  0  0  0  0
  -22.1653   -4.2191   21.0974 F   0  0  0  0  0  0
  -21.5633   -3.4547   25.7718 F   0  0  0  0  0  0
  -30.0405  -13.2971   20.4407 N   0  0  0  0  0  0
  -26.3004  -12.9361   20.3396 N   0  0  0  0  0  0
  -25.9311  -11.6520   20.5805 N   0  0  0  0  0  0
  -22.0461  -12.8247   22.0441 N   0  0  0  0  0  0
  -25.4266  -15.1915   20.4115 N   0  0  0  0  0  0
  -31.8662  -14.6252   20.1184 O   0  0  0  0  0  0
  -21.6614   -6.8906   21.4251 O   0  0  0  0  0  0
  -22.3559  -14.5528   20.6725 O   0  0  0  0  0  0
  -24.6101  -31.8673   23.2117 C   0  0  0  0  0  0
  -25.9016  -32.4815   23.8382 C   0  0  1  0  0  0
  -27.2720  -27.4501   20.1037 C   0  0  0  0  0  0
  -25.5891  -33.8624   24.2315 N   0  0  0  0  0  0
  -23.4003  -30.4854   21.5541 C   0  0  2  0  0  0
  -24.8561  -28.9517   20.1173 C   0  0  0  0  0  0
  -22.7392  -29.4646   22.5064 C   0  0  0  0  0  0
  -18.0268  -28.1345   22.8532 C   0  0  0  0  0  0
  -24.1501  -36.7347   23.2642 C   0  0  0  0  0  0
  -25.9231  -30.8387   21.3618 C   0  0  0  0  0  0
  -26.0095  -29.4710   20.7167 C   0  0  0  0  0  0
  -27.2083  -28.7232   20.7150 C   0  0  0  0  0  0
  -26.1034  -26.9583   19.4691 C   0  0  0  0  0  0
  -24.9014  -27.6938   19.4909 C   0  0  0  0  0  0
  -23.6068  -29.8058   20.1722 C   0  0  0  0  0  0
  -25.4104  -36.3113   24.0339 C   0  0  1  0  0  0
  -20.5856  -28.3644   23.1365 C   0  0  2  0  0  0
  -20.6753  -26.9392   22.5445 C   0  0  0  0  0  0
  -19.5731  -26.6379   21.5234 C   0  0  0  0  0  0
  -18.1908  -26.7907   22.1638 C   0  0  0  0  0  0
  -19.1511  -28.8808   23.2936 C   0  0  0  0  0  0
  -18.9436  -30.1416   23.8945 C   0  0  0  0  0  0
  -17.6441  -30.6568   24.0553 C   0  0  0  0  0  0
  -25.9031  -34.9476   23.5123 C   0  0  0  0  0  0
  -16.5335  -29.9065   23.6320 C   0  0  0  0  0  0
  -16.7255  -28.6457   23.0387 C   0  0  0  0  0  0
  -26.4457  -31.6585   25.0706 C   0  0  0  0  0  0
  -25.3766  -31.3674   26.1491 C   0  0  0  0  0  0
  -27.0291  -30.3028   24.6064 C   0  0  0  0  0  0
  -27.6011  -32.4329   25.7467 C   0  0  0  0  0  0
  -27.5586  -37.1800   24.8454 C   0  0  0  0  0  0
  -21.4119  -29.3037   22.3805 N   0  0  0  0  0  0
  -26.4297  -37.3784   23.9407 N   0  0  0  0  0  0
  -24.6626  -31.0790   22.1005 N   0  0  0  0  0  0
  -23.4167  -28.8191   23.3102 O   0  0  0  0  0  0
  -28.4779  -26.7688   20.1840 O   0  0  0  0  0  0
  -26.5607  -34.8922   22.4696 O   0  0  0  0  0  0
  -23.5313  -32.1391   23.7557 O   0  0  0  0  0  0
  -30.6281  -18.5480   18.8139 C   0  0  0  0  0  0
  -30.4729  -17.1964   19.1744 C   0  0  0  0  0  0
  -30.4340  -19.5255   19.8058 C   0  0  0  0  0  0
  -30.1581  -16.8851   20.5252 C   0  0  0  0  0  0
  -31.7351  -22.9058   22.5111 C   0  0  0  0  0  0
  -33.0734  -22.4363   20.4041 C   0  0  0  0  0  0
  -29.5776  -24.5346   20.4560 C   0  0  0  0  0  0
  -28.6508  -25.4643   19.6154 C   0  0  0  0  0  0
  -31.8335  -22.0591   21.2357 C   0  0  0  0  0  0
  -30.5060  -21.9997   20.4254 C   0  0  1  0  0  0
  -30.0943  -23.3015   19.6489 C   0  0  1  0  0  0
  -30.0919  -19.1806   21.0726 N   0  0  0  0  0  0
  -29.9556  -17.8911   21.4203 N   0  0  0  0  0  0
  -29.9738  -15.5307   20.9266 N   0  0  0  0  0  0
  -30.5664  -20.8826   19.4632 N   0  0  0  0  0  0
  -29.0419  -22.8333   18.8250 O   0  0  0  0  0  0
  -30.5871  -16.2396   18.2190 F   0  0  0  0  0  0
  -31.4612  -12.4041   19.1162 H   0  0  0  0  0  0
  -30.3161  -11.2963   19.8212 H   0  0  0  0  0  0
  -29.7291  -11.7960   17.4185 H   0  0  0  0  0  0
  -29.6491  -13.5021   17.7763 H   0  0  0  0  0  0
  -27.8312  -11.3113   18.8241 H   0  0  0  0  0  0
  -27.3526  -12.6277   17.7926 H   0  0  0  0  0  0
  -27.6897  -14.2524   19.5661 H   0  0  0  0  0  0
  -28.6772  -11.9912   21.3719 H   0  0  0  0  0  0
  -28.4787  -13.6523   21.8524 H   0  0  0  0  0  0
  -25.2738   -9.5686   22.4810 H   0  0  0  0  0  0
  -24.0023   -7.4605   22.7429 H   0  0  0  0  0  0
  -21.0860   -8.8759   19.8936 H   0  0  0  0  0  0
  -22.3675  -10.9700   19.6183 H   0  0  0  0  0  0
  -21.1998   -7.6154   23.9748 H   0  0  0  0  0  0
  -21.1492   -6.0515   25.9088 H   0  0  0  0  0  0
  -22.0594   -2.7634   23.2792 H   0  0  0  0  0  0
  -22.3991  -11.9864   22.4823 H   0  0  0  0  0  0
  -21.1072  -13.1306   22.2594 H   0  0  0  0  0  0
  -24.6594  -15.8447   20.5267 H   0  0  0  0  0  0
  -26.2666  -15.6364   20.0666 H   0  0  0  0  0  0
  -26.7104  -32.5528   23.1162 H   0  0  0  0  0  0
  -25.0016  -33.9773   25.0434 H   0  0  0  0  0  0
  -22.6901  -31.3019   21.4110 H   0  0  0  0  0  0
  -23.3745  -35.9698   23.3297 H   0  0  0  0  0  0
  -24.3614  -36.8981   22.2063 H   0  0  0  0  0  0
  -23.7274  -37.6556   23.6681 H   0  0  0  0  0  0
  -26.0345  -31.6025   20.5914 H   0  0  0  0  0  0
  -26.8105  -30.8964   21.9809 H   0  0  0  0  0  0
  -28.0936  -29.1176   21.1948 H   0  0  0  0  0  0
  -26.0882  -26.0157   18.9450 H   0  0  0  0  0  0
  -24.0220  -27.2875   19.0107 H   0  0  0  0  0  0
  -23.6949  -30.5725   19.4029 H   0  0  0  0  0  0
  -22.7354  -29.2120   19.8901 H   0  0  0  0  0  0
  -25.1284  -36.1986   25.0835 H   0  0  0  0  0  0
  -20.9902  -28.3190   24.1502 H   0  0  0  0  0  0
  -20.5666  -26.2250   23.3626 H   0  0  0  0  0  0
  -21.6614  -26.7466   22.1217 H   0  0  0  0  0  0
  -19.6882  -25.6299   21.1236 H   0  0  0  0  0  0
  -19.6642  -27.3209   20.6780 H   0  0  0  0  0  0
  -17.4178  -26.6725   21.4030 H   0  0  0  0  0  0
  -18.0279  -26.0001   22.8980 H   0  0  0  0  0  0
  -19.7905  -30.7205   24.2353 H   0  0  0  0  0  0
  -17.4992  -31.6251   24.5145 H   0  0  0  0  0  0
  -15.5326  -30.2959   23.7607 H   0  0  0  0  0  0
  -15.8663  -28.0726   22.7154 H   0  0  0  0  0  0
  -24.5917  -30.7045   25.7858 H   0  0  0  0  0  0
  -24.8980  -32.2817   26.5009 H   0  0  0  0  0  0
  -25.8142  -30.8804   27.0209 H   0  0  0  0  0  0
  -26.2806  -29.6766   24.1198 H   0  0  0  0  0  0
  -27.4156  -29.7293   25.4496 H   0  0  0  0  0  0
  -27.8609  -30.4347   23.9139 H   0  0  0  0  0  0
  -27.2599  -33.3612   26.2058 H   0  0  0  0  0  0
  -28.3797  -32.6910   25.0291 H   0  0  0  0  0  0
  -28.0699  -31.8448   26.5365 H   0  0  0  0  0  0
  -28.2559  -38.0132   24.7522 H   0  0  0  0  0  0
  -28.1104  -36.2652   24.6225 H   0  0  0  0  0  0
  -27.2336  -37.1404   25.8865 H   0  0  0  0  0  0
  -20.9277  -29.8707   21.6985 H   0  0  0  0  0  0
  -26.0203  -38.2882   24.1348 H   0  0  0  0  0  0
  -30.8689  -18.8101   17.7958 H   0  0  0  0  0  0
  -32.5586  -22.6691   23.1848 H   0  0  0  0  0  0
  -30.8071  -22.7001   23.0467 H   0  0  0  0  0  0
  -31.7869  -23.9742   22.3042 H   0  0  0  0  0  0
  -33.9826  -22.3022   20.9917 H   0  0  0  0  0  0
  -33.0542  -23.4765   20.0811 H   0  0  0  0  0  0
  -33.1759  -21.8072   19.5214 H   0  0  0  0  0  0
  -29.0357  -24.2083   21.3447 H   0  0  0  0  0  0
  -30.4308  -25.0980   20.8391 H   0  0  0  0  0  0
  -27.7085  -24.9322   19.5244 H   0  0  0  0  0  0
  -29.0583  -25.5906   18.6097 H   0  0  0  0  0  0
  -32.0184  -21.0483   21.6013 H   0  0  0  0  0  0
  -29.7033  -21.7775   21.1301 H   0  0  0  0  0  0
  -30.9131  -23.6208   19.0011 H   0  0  0  0  0  0
  -29.1197  -15.3252   21.4149 H   0  0  0  0  0  0
  -31.0084  -21.0798   18.5714 H   0  0  0  0  0  0
  -29.2212  -21.8921   18.7739 H   0  0  0  0  0  0
  1 25  1  0  0  0
  1 30  2  0  0  0
  1 84  1  0  0  0
  2  3  1  0  0  0
  2 25  1  0  0  0
  2 88  1  0  0  0
  2 89  1  0  0  0
  3  4  1  0  0  0
  3 90  1  0  0  0
  3 91  1  0  0  0
  4  5  1  0  0  0
  4 92  1  0  0  0
  4 93  1  0  0  0
  5  6  1  0  0  0
  5 26  1  0  0  0
  5 94  1  0  0  0
  6 25  1  0  0  0
  6 95  1  0  0  0
  6 96  1  0  0  0
  7  8  2  0  0  0
  7 26  1  0  0  0
  7 29  1  0  0  0
  8  9  1  0  0  0
  8 22  1  0  0  0
  9 10  1  0  0  0
  9 27  2  0  0  0
 10 11  2  0  0  0
 10 15  1  0  0  0
 11 12  1  0  0  0
 11 97  1  0  0  0
 12 13  2  0  0  0
 12 98  1  0  0  0
 13 14  1  0  0  0
 13 31  1  0  0  0
 14 15  2  0  0  0
 14 99  1  0  0  0
 15100  1  0  0  0
 16 17  2  0  0  0
 16 21  1  0  0  0
 16 31  1  0  0  0
 17 18  1  0  0  0
 17101  1  0  0  0
 18 19  2  0  0  0
 18102  1  0  0  0
 19 20  1  0  0  0
 19 24  1  0  0  0
 20 21  2  0  0  0
 20103  1  0  0  0
 21 23  1  0  0  0
 22 28  1  0  0  0
 22 32  2  0  0  0
 26 27  1  0  0  0
 28104  1  0  0  0
 28105  1  0  0  0
 29106  1  0  0  0
 29107  1  0  0  0
 33 34  1  0  0  0
 33 66  1  0  0  0
 33 70  2  0  0  0
 34 36  1  0  0  0
 34 59  1  0  0  0
 34108  1  0  0  0
 35 44  2  0  0  0
 35 45  1  0  0  0
 35 68  1  0  0  0
 36 56  1  0  0  0
 36109  1  0  0  0
 37 39  1  0  0  0
 37 47  1  0  0  0
 37 66  1  0  0  0
 37110  1  0  0  0
 38 43  2  0  0  0
 38 46  1  0  0  0
 38 47  1  0  0  0
 39 64  1  0  0  0
 39 67  2  0  0  0
 40 52  1  0  0  0
 40 53  2  0  0  0
 40 58  1  0  0  0
 41111  1  0  0  0
 41112  1  0  0  0
 41113  1  0  0  0
 41 48  1  0  0  0
 42 43  1  0  0  0
 42 66  1  0  0  0
 42114  1  0  0  0
 42115  1  0  0  0
 43 44  1  0  0  0
 44116  1  0  0  0
 45 46  2  0  0  0
 45117  1  0  0  0
 46118  1  0  0  0
 47119  1  0  0  0
 47120  1  0  0  0
 48 56  1  0  0  0
 48 65  1  0  0  0
 48121  1  0  0  0
 49 50  1  0  0  0
 49 53  1  0  0  0
 49 64  1  0  0  0
 49122  1  0  0  0
 50 51  1  0  0  0
 50123  1  0  0  0
 50124  1  0  0  0
 51 52  1  0  0  0
 51125  1  0  0  0
 51126  1  0  0  0
 52127  1  0  0  0
 52128  1  0  0  0
 53 54  1  0  0  0
 54 55  2  0  0  0
 54129  1  0  0  0
 55 57  1  0  0  0
 55130  1  0  0  0
 56 69  2  0  0  0
 57 58  2  0  0  0
 57131  1  0  0  0
 58132  1  0  0  0
 59 60  1  0  0  0
 59 61  1  0  0  0
 59 62  1  0  0  0
 60133  1  0  0  0
 60134  1  0  0  0
 60135  1  0  0  0
 61136  1  0  0  0
 61137  1  0  0  0
 61138  1  0  0  0
 62139  1  0  0  0
 62140  1  0  0  0
 62141  1  0  0  0
 63 65  1  0  0  0
 63142  1  0  0  0
 63143  1  0  0  0
 63144  1  0  0  0
 64145  1  0  0  0
 65146  1  0  0  0
 68 78  1  0  0  0
 71 72  2  0  0  0
 71 73  1  0  0  0
 71147  1  0  0  0
 72 74  1  0  0  0
 72 87  1  0  0  0
 73 82  2  0  0  0
 73 85  1  0  0  0
 74 83  2  0  0  0
 74 84  1  0  0  0
 75148  1  0  0  0
 75149  1  0  0  0
 75150  1  0  0  0
 75 79  1  0  0  0
 76 79  1  0  0  0
 76151  1  0  0  0
 76152  1  0  0  0
 76153  1  0  0  0
 77 78  1  0  0  0
 77 81  1  0  0  0
 77154  1  0  0  0
 77155  1  0  0  0
 78156  1  0  0  0
 78157  1  0  0  0
 79 80  1  0  0  0
 79158  1  0  0  0
 80 81  1  0  0  0
 80 85  1  0  0  0
 80159  1  0  0  0
 81 86  1  0  0  0
 81160  1  0  0  0
 82 83  1  0  0  0
 84161  1  0  0  0
 85162  1  0  0  0
 86163  1  0  0  0
M  ISO  4   1 100  68 101  78 101  84 100
M  END
> <chiral flag>
0

> <version>
0

> <s_m_source_file>
/data/baiqing/PycharmProjects/Reinvent-master-3.2/result/LINK_invent/BTK/process_docking_weight1_custom_product_contain_oxygen_bond_distance_aromatic_linkinvent_7_9_3/rearranged_h_0189.sdf

> <i_m_source_file_index>
83

> <r_mmod_Potential_Energy-OPLS-2005>
-206.867263793945

> <r_mmod_Stretch_Energy-OPLS-2005>
42.832332611084

> <r_mmod_Bend_Energy-OPLS-2005>
138.449188232422

> <r_mmod_Torsional_Energy-OPLS-2005>
275.127655029297

> <r_mmod_Improper_Torsional_Energy-OPLS-2005>
5.08887100219727

> <r_mmod_Van_der_Waal_Energy-OPLS-2005>
178.781967163086

> <r_mmod_Electrostatic_Energy-OPLS-2005>
-627.56884765625

> <r_mmod_Solvation_Energy-OPLS-2005>
-236.48957824707

> <b_mmod_Minimization_Converged-OPLS-2005>
0

> <r_mmod_RMS_Derivative-OPLS-2005>
4.8023099899292

$$$$
83
                    3D
 Structure written by MMmdl.
157165  0  0  1  0            999 V2000
  -30.7023  -14.4933   20.6096 C   0  0  0  0  0  0
  -30.4291  -12.3326   19.4327 C   0  0  0  0  0  0
  -29.4973  -12.5024   18.2146 C   0  0  0  0  0  0
  -28.0192  -12.3502   18.6243 C   0  0  0  0  0  0
  -27.6570  -13.1980   19.8727 C   0  0  2  0  0  0
  -28.6988  -13.0028   20.9992 C   0  0  0  0  0  0
  -25.2557  -13.8119   20.5687 C   0  0  0  0  0  0
  -24.1810  -13.0399   20.9196 C   0  0  0  0  0  0
  -24.6353  -11.6880   20.8728 C   0  0  0  0  0  0
  -23.9006  -10.4284   21.0399 C   0  0  0  0  0  0
  -24.3569   -9.4204   21.9165 C   0  0  0  0  0  0
  -23.6273   -8.2227   22.0739 C   0  0  0  0  0  0
  -22.4249   -8.0261   21.3548 C   0  0  0  0  0  0
  -21.9877   -9.0219   20.4629 C   0  0  0  0  0  0
  -22.7189  -10.2102   20.3043 C   0  0  0  0  0  0
  -21.6840   -6.0722   22.5286 C   0  0  0  0  0  0
  -21.4015   -6.5633   23.8217 C   0  0  0  0  0  0
  -21.3666   -5.6793   24.9180 C   0  0  0  0  0  0
  -21.6049   -4.3058   24.7231 C   0  0  0  0  0  0
  -21.8826   -3.8136   23.4354 C   0  0  0  0  0  0
  -21.9186   -4.6949   22.3408 C   0  0  0  0  0  0
  -22.7836  -13.5204   21.1871 C   0  0  0  0  0  0
  -22.1665   -4.2136   21.0982 F   0  0  0  0  0  0
  -21.5626   -3.4549   25.7741 F   0  0  0  0  0  0
  -30.0289  -13.3205   20.4503 N   0  0  0  0  0  0
  -26.2990  -12.9266   20.3358 N   0  0  0  0  0  0
  -25.9279  -11.6435   20.5750 N   0  0  0  0  0  0
  -22.0476  -12.8210   22.0429 N   0  0  0  0  0  0
  -25.4246  -15.1848   20.4112 N   0  0  0  0  0  0
  -31.8123  -14.6935   20.1078 O   0  0  0  0  0  0
  -21.6613   -6.8862   21.4246 O   0  0  0  0  0  0
  -22.3529  -14.5505   20.6701 O   0  0  0  0  0  0
  -24.6224  -31.8646   23.2094 C   0  0  0  0  0  0
  -25.9094  -32.4800   23.8399 C   0  0  1  0  0  0
  -27.2344  -27.3907   20.0674 C   0  0  0  0  0  0
  -25.5932  -33.8603   24.2312 N   0  0  0  0  0  0
  -23.4110  -30.4908   21.5515 C   0  0  2  0  0  0
  -24.8540  -28.9538   20.1136 C   0  0  0  0  0  0
  -22.7451  -29.4656   22.4985 C   0  0  0  0  0  0
  -18.0286  -28.1387   22.8502 C   0  0  0  0  0  0
  -24.1487  -36.7299   23.2634 C   0  0  0  0  0  0
  -25.9490  -30.8079   21.3754 C   0  0  0  0  0  0
  -26.0191  -29.4427   20.7152 C   0  0  0  0  0  0
  -27.2096  -28.6666   20.6935 C   0  0  0  0  0  0
  -26.0406  -26.9393   19.4523 C   0  0  0  0  0  0
  -24.8607  -27.7029   19.4799 C   0  0  0  0  0  0
  -23.6199  -29.8268   20.1659 C   0  0  0  0  0  0
  -25.4112  -36.3091   24.0331 C   0  0  1  0  0  0
  -20.5878  -28.3681   23.1315 C   0  0  2  0  0  0
  -20.6780  -26.9418   22.5416 C   0  0  0  0  0  0
  -19.5753  -26.6393   21.5223 C   0  0  0  0  0  0
  -18.1933  -26.7937   22.1630 C   0  0  0  0  0  0
  -19.1534  -28.8858   23.2897 C   0  0  0  0  0  0
  -18.9454  -30.1464   23.8907 C   0  0  0  0  0  0
  -17.6453  -30.6587   24.0574 C   0  0  0  0  0  0
  -25.9056  -34.9463   23.5109 C   0  0  0  0  0  0
  -16.5347  -29.9091   23.6325 C   0  0  0  0  0  0
  -16.7275  -28.6510   23.0346 C   0  0  0  0  0  0
  -26.4490  -31.6600   25.0752 C   0  0  0  0  0  0
  -25.3748  -31.3731   26.1494 C   0  0  0  0  0  0
  -27.0293  -30.3027   24.6163 C   0  0  0  0  0  0
  -27.6059  -32.4334   25.7500 C   0  0  0  0  0  0
  -27.5580  -37.1801   24.8460 C   0  0  0  0  0  0
  -21.4169  -29.3042   22.3714 N   0  0  0  0  0  0
  -26.4289  -37.3787   23.9406 N   0  0  0  0  0  0
  -24.6792  -31.0711   22.1014 N   0  0  0  0  0  0
  -23.4208  -28.8195   23.3038 O   0  0  0  0  0  0
  -28.3957  -26.6186   20.0707 O   0  0  0  0  0  0
  -26.5607  -34.8924   22.4670 O   0  0  0  0  0  0
  -23.5399  -32.1425   23.7463 O   0  0  0  0  0  0
  -29.0307  -19.6324   19.5810 C   0  0  0  0  0  0
  -29.2779  -18.2395   19.8564 C   0  0  0  0  0  0
  -30.0055  -18.0418   21.0131 C   0  0  0  0  0  0
  -29.5546  -20.5123   20.5051 C   0  0  0  0  0  0
  -29.1936  -22.8020   19.6389 C   0  0  0  0  0  0
  -28.8053  -17.1408   18.9513 C   0  0  0  0  0  0
  -30.7853  -24.7072   19.1967 C   0  0  0  0  0  0
  -30.5807  -16.7884   21.6688 C   0  0  0  0  0  0
  -28.3061  -25.2495   19.5838 C   0  0  0  0  0  0
  -29.4957  -24.3033   19.9421 C   0  0  1  0  0  0
  -29.5660  -21.8835   20.5625 N   0  0  0  0  0  0
  -30.0487  -15.4658   21.2810 N   0  0  0  0  0  0
  -28.6421  -22.4998   18.5769 O   0  0  0  0  0  0
  -30.3286  -19.5901   21.7745 S   0  0  0  0  0  0
  -31.4699  -12.4525   19.1285 H   0  0  0  0  0  0
  -30.3538  -11.3246   19.8439 H   0  0  0  0  0  0
  -29.7550  -11.7737   17.4440 H   0  0  0  0  0  0
  -29.6529  -13.4864   17.7710 H   0  0  0  0  0  0
  -27.8403  -11.2933   18.8261 H   0  0  0  0  0  0
  -27.3641  -12.6107   17.7929 H   0  0  0  0  0  0
  -27.6884  -14.2382   19.5584 H   0  0  0  0  0  0
  -28.6883  -11.9724   21.3552 H   0  0  0  0  0  0
  -28.4421  -13.6056   21.8705 H   0  0  0  0  0  0
  -25.2721   -9.5683   22.4718 H   0  0  0  0  0  0
  -23.9995   -7.4622   22.7464 H   0  0  0  0  0  0
  -21.0808   -8.8697   19.8949 H   0  0  0  0  0  0
  -22.3632  -10.9609   19.6129 H   0  0  0  0  0  0
  -21.2003   -7.6145   23.9713 H   0  0  0  0  0  0
  -21.1496   -6.0523   25.9078 H   0  0  0  0  0  0
  -22.0591   -2.7601   23.2849 H   0  0  0  0  0  0
  -22.4094  -11.9876   22.4849 H   0  0  0  0  0  0
  -21.1063  -13.1204   22.2548 H   0  0  0  0  0  0
  -24.6565  -15.8336   20.5434 H   0  0  0  0  0  0
  -26.2772  -15.6396   20.1114 H   0  0  0  0  0  0
  -26.7165  -32.5469   23.1151 H   0  0  0  0  0  0
  -25.0097  -33.9760   25.0468 H   0  0  0  0  0  0
  -22.7025  -31.3104   21.4151 H   0  0  0  0  0  0
  -23.3743  -35.9633   23.3300 H   0  0  0  0  0  0
  -24.3582  -36.8913   22.2045 H   0  0  0  0  0  0
  -23.7256  -37.6515   23.6649 H   0  0  0  0  0  0
  -26.0813  -31.5724   20.6090 H   0  0  0  0  0  0
  -26.8323  -30.8517   22.0009 H   0  0  0  0  0  0
  -28.1076  -29.0380   21.1655 H   0  0  0  0  0  0
  -25.9841  -25.9970   18.9276 H   0  0  0  0  0  0
  -23.9692  -27.3276   18.9978 H   0  0  0  0  0  0
  -23.7323  -30.6040   19.4101 H   0  0  0  0  0  0
  -22.7406  -29.2533   19.8675 H   0  0  0  0  0  0
  -25.1291  -36.1928   25.0826 H   0  0  0  0  0  0
  -20.9985  -28.3245   24.1428 H   0  0  0  0  0  0
  -20.5708  -26.2289   23.3604 H   0  0  0  0  0  0
  -21.6641  -26.7466   22.1186 H   0  0  0  0  0  0
  -19.6907  -25.6311   21.1237 H   0  0  0  0  0  0
  -19.6682  -27.3217   20.6764 H   0  0  0  0  0  0
  -17.4202  -26.6704   21.4022 H   0  0  0  0  0  0
  -18.0317  -26.0079   22.9025 H   0  0  0  0  0  0
  -19.7923  -30.7286   24.2274 H   0  0  0  0  0  0
  -17.4997  -31.6264   24.5173 H   0  0  0  0  0  0
  -15.5345  -30.2984   23.7647 H   0  0  0  0  0  0
  -15.8676  -28.0832   22.7039 H   0  0  0  0  0  0
  -24.5917  -30.7075   25.7842 H   0  0  0  0  0  0
  -24.8947  -32.2890   26.4945 H   0  0  0  0  0  0
  -25.8103  -30.8904   27.0250 H   0  0  0  0  0  0
  -26.2831  -29.6820   24.1187 H   0  0  0  0  0  0
  -27.3988  -29.7240   25.4637 H   0  0  0  0  0  0
  -27.8713  -30.4309   23.9362 H   0  0  0  0  0  0
  -27.2671  -33.3624   26.2092 H   0  0  0  0  0  0
  -28.3844  -32.6919   25.0313 H   0  0  0  0  0  0
  -28.0751  -31.8463   26.5399 H   0  0  0  0  0  0
  -28.2589  -38.0108   24.7512 H   0  0  0  0  0  0
  -28.1085  -36.2641   24.6261 H   0  0  0  0  0  0
  -27.2307  -37.1417   25.8868 H   0  0  0  0  0  0
  -20.9357  -29.8745   21.6909 H   0  0  0  0  0  0
  -26.0161  -38.2851   24.1428 H   0  0  0  0  0  0
  -28.4860  -19.9337   18.6967 H   0  0  0  0  0  0
  -28.0512  -17.4877   18.2446 H   0  0  0  0  0  0
  -28.3459  -16.3365   19.5194 H   0  0  0  0  0  0
  -29.6313  -16.7168   18.3793 H   0  0  0  0  0  0
  -31.6341  -24.1188   19.5487 H   0  0  0  0  0  0
  -31.0305  -25.7588   19.3481 H   0  0  0  0  0  0
  -30.7007  -24.5388   18.1212 H   0  0  0  0  0  0
  -30.4380  -16.8709   22.7470 H   0  0  0  0  0  0
  -31.6649  -16.8029   21.5396 H   0  0  0  0  0  0
  -27.4125  -24.7753   19.9932 H   0  0  0  0  0  0
  -28.1851  -25.2725   18.4984 H   0  0  0  0  0  0
  -29.6718  -24.3981   21.0145 H   0  0  0  0  0  0
  -29.9890  -22.2682   21.3949 H   0  0  0  0  0  0
  -29.1442  -15.2163   21.6520 H   0  0  0  0  0  0
  1 25  1  0  0  0
  1 30  2  0  0  0
  1 82  1  0  0  0
  2  3  1  0  0  0
  2 25  1  0  0  0
  2 85  1  0  0  0
  2 86  1  0  0  0
  3  4  1  0  0  0
  3 87  1  0  0  0
  3 88  1  0  0  0
  4  5  1  0  0  0
  4 89  1  0  0  0
  4 90  1  0  0  0
  5  6  1  0  0  0
  5 26  1  0  0  0
  5 91  1  0  0  0
  6 25  1  0  0  0
  6 92  1  0  0  0
  6 93  1  0  0  0
  7  8  2  0  0  0
  7 26  1  0  0  0
  7 29  1  0  0  0
  8  9  1  0  0  0
  8 22  1  0  0  0
  9 10  1  0  0  0
  9 27  2  0  0  0
 10 11  2  0  0  0
 10 15  1  0  0  0
 11 12  1  0  0  0
 11 94  1  0  0  0
 12 13  2  0  0  0
 12 95  1  0  0  0
 13 14  1  0  0  0
 13 31  1  0  0  0
 14 15  2  0  0  0
 14 96  1  0  0  0
 15 97  1  0  0  0
 16 17  2  0  0  0
 16 21  1  0  0  0
 16 31  1  0  0  0
 17 18  1  0  0  0
 17 98  1  0  0  0
 18 19  2  0  0  0
 18 99  1  0  0  0
 19 20  1  0  0  0
 19 24  1  0  0  0
 20 21  2  0  0  0
 20100  1  0  0  0
 21 23  1  0  0  0
 22 28  1  0  0  0
 22 32  2  0  0  0
 26 27  1  0  0  0
 28101  1  0  0  0
 28102  1  0  0  0
 29103  1  0  0  0
 29104  1  0  0  0
 33 34  1  0  0  0
 33 66  1  0  0  0
 33 70  2  0  0  0
 34 36  1  0  0  0
 34 59  1  0  0  0
 34105  1  0  0  0
 35 44  2  0  0  0
 35 45  1  0  0  0
 35 68  1  0  0  0
 36 56  1  0  0  0
 36106  1  0  0  0
 37 39  1  0  0  0
 37 47  1  0  0  0
 37 66  1  0  0  0
 37107  1  0  0  0
 38 43  2  0  0  0
 38 46  1  0  0  0
 38 47  1  0  0  0
 39 64  1  0  0  0
 39 67  2  0  0  0
 40 52  1  0  0  0
 40 53  2  0  0  0
 40 58  1  0  0  0
 41108  1  0  0  0
 41109  1  0  0  0
 41110  1  0  0  0
 41 48  1  0  0  0
 42 43  1  0  0  0
 42 66  1  0  0  0
 42111  1  0  0  0
 42112  1  0  0  0
 43 44  1  0  0  0
 44113  1  0  0  0
 45 46  2  0  0  0
 45114  1  0  0  0
 46115  1  0  0  0
 47116  1  0  0  0
 47117  1  0  0  0
 48 56  1  0  0  0
 48 65  1  0  0  0
 48118  1  0  0  0
 49 50  1  0  0  0
 49 53  1  0  0  0
 49 64  1  0  0  0
 49119  1  0  0  0
 50 51  1  0  0  0
 50120  1  0  0  0
 50121  1  0  0  0
 51 52  1  0  0  0
 51122  1  0  0  0
 51123  1  0  0  0
 52124  1  0  0  0
 52125  1  0  0  0
 53 54  1  0  0  0
 54 55  2  0  0  0
 54126  1  0  0  0
 55 57  1  0  0  0
 55127  1  0  0  0
 56 69  2  0  0  0
 57 58  2  0  0  0
 57128  1  0  0  0
 58129  1  0  0  0
 59 60  1  0  0  0
 59 61  1  0  0  0
 59 62  1  0  0  0
 60130  1  0  0  0
 60131  1  0  0  0
 60132  1  0  0  0
 61133  1  0  0  0
 61134  1  0  0  0
 61135  1  0  0  0
 62136  1  0  0  0
 62137  1  0  0  0
 62138  1  0  0  0
 63 65  1  0  0  0
 63139  1  0  0  0
 63140  1  0  0  0
 63141  1  0  0  0
 64142  1  0  0  0
 65143  1  0  0  0
 68 79  1  0  0  0
 71 72  1  0  0  0
 71 74  2  0  0  0
 71144  1  0  0  0
 72 73  2  0  0  0
 72 76  1  0  0  0
 73 78  1  0  0  0
 73 84  1  0  0  0
 74 81  1  0  0  0
 74 84  1  0  0  0
 75 80  1  0  0  0
 75 81  1  0  0  0
 75 83  2  0  0  0
 76145  1  0  0  0
 76146  1  0  0  0
 76147  1  0  0  0
 77148  1  0  0  0
 77149  1  0  0  0
 77150  1  0  0  0
 77 80  1  0  0  0
 78 82  1  0  0  0
 78151  1  0  0  0
 78152  1  0  0  0
 79 80  1  0  0  0
 79153  1  0  0  0
 79154  1  0  0  0
 80155  1  0  0  0
 81156  1  0  0  0
 82157  1  0  0  0
M  ISO  4   1 100  68 101  79 101  82 100
M  END
> <chiral flag>
0

> <version>
0

> <s_m_source_file>
/data/baiqing/PycharmProjects/Reinvent-master-3.2/result/LINK_invent/BTK/process_docking_weight1_custom_product_contain_oxygen_bond_distance_aromatic_linkinvent_7_9_3/rearranged_h_0189.sdf

> <i_m_source_file_index>
84

> <r_mmod_Potential_Energy-OPLS-2005>
-146.582763671875

> <r_mmod_Stretch_Energy-OPLS-2005>
45.7258911132812

> <r_mmod_Bend_Energy-OPLS-2005>
120.527626037598

> <r_mmod_Torsional_Energy-OPLS-2005>
198.98078918457

> <r_mmod_Improper_Torsional_Energy-OPLS-2005>
2.39293885231018

> <r_mmod_Van_der_Waal_Energy-OPLS-2005>
132.022933959961

> <r_mmod_Electrostatic_Energy-OPLS-2005>
-437.892364501953

> <r_mmod_Solvation_Energy-OPLS-2005>
-226.51594543457

> <b_mmod_Minimization_Converged-OPLS-2005>
0

> <r_mmod_RMS_Derivative-OPLS-2005>
3.43440580368042

$$$$
84
                    3D
 Structure written by MMmdl.
159167  0  0  1  0            999 V2000
  -29.7769  -16.0423   20.8647 C   0  0  0  0  0  0
  -30.3176  -13.4845   19.7692 C   0  0  0  0  0  0
  -29.5787  -12.8696   18.5121 C   0  0  0  0  0  0
  -28.1807  -12.3558   18.8694 C   0  0  0  0  0  0
  -27.5508  -13.3301   19.8790 C   0  0  2  0  0  0
  -28.4382  -13.6915   21.0913 C   0  0  0  0  0  0
  -25.1972  -13.8260   20.5755 C   0  0  0  0  0  0
  -24.1435  -13.0382   20.9263 C   0  0  0  0  0  0
  -24.6193  -11.6911   20.8723 C   0  0  0  0  0  0
  -23.8967  -10.4262   21.0377 C   0  0  0  0  0  0
  -24.3562   -9.4203   21.9157 C   0  0  0  0  0  0
  -23.6268   -8.2213   22.0731 C   0  0  0  0  0  0
  -22.4245   -8.0229   21.3527 C   0  0  0  0  0  0
  -21.9853   -9.0181   20.4620 C   0  0  0  0  0  0
  -22.7150  -10.2073   20.3032 C   0  0  0  0  0  0
  -21.6855   -6.0698   22.5276 C   0  0  0  0  0  0
  -21.4013   -6.5614   23.8207 C   0  0  0  0  0  0
  -21.3658   -5.6774   24.9175 C   0  0  0  0  0  0
  -21.6056   -4.3035   24.7239 C   0  0  0  0  0  0
  -21.8821   -3.8116   23.4363 C   0  0  0  0  0  0
  -21.9200   -4.6924   22.3413 C   0  0  0  0  0  0
  -22.7498  -13.5122   21.1961 C   0  0  0  0  0  0
  -22.1664   -4.2117   21.0986 F   0  0  0  0  0  0
  -21.5629   -3.4520   25.7749 F   0  0  0  0  0  0
  -29.5041  -14.5708   20.5915 N   0  0  0  0  0  0
  -26.2343  -12.9574   20.3181 N   0  0  0  0  0  0
  -25.9120  -11.6642   20.5635 N   0  0  0  0  0  0
  -22.0189  -12.8105   22.0523 N   0  0  0  0  0  0
  -25.3609  -15.2010   20.4275 N   0  0  0  0  0  0
  -31.0052  -16.0761   20.5477 O   0  0  0  0  0  0
  -21.6624   -6.8822   21.4229 O   0  0  0  0  0  0
  -22.3224  -14.5462   20.6836 O   0  0  0  0  0  0
  -25.3363  -31.2705   23.2548 C   0  0  0  0  0  0
  -26.3473  -32.2954   23.8259 C   0  0  1  0  0  0
  -26.1137  -29.6294   19.3321 C   0  0  0  0  0  0
  -25.7891  -33.6866   24.1257 N   0  0  0  0  0  0
  -24.4157  -28.4394   21.8516 C   0  0  2  0  0  0
  -25.6339  -27.6658   20.4117 C   0  0  0  0  0  0
  -22.7461  -28.0281   22.0072 C   0  0  0  0  0  0
  -17.9357  -28.1880   22.7473 C   0  0  0  0  0  0
  -24.1544  -36.6200   23.2664 C   0  0  0  0  0  0
  -26.7948  -29.6090   22.0818 C   0  0  0  0  0  0
  -26.7100  -28.5954   20.9287 C   0  0  0  0  0  0
  -27.3080  -29.2514   19.9281 C   0  0  0  0  0  0
  -25.8454  -28.4648   18.4906 C   0  0  0  0  0  0
  -25.6691  -27.2639   19.1180 C   0  0  0  0  0  0
  -24.2026  -28.0888   20.4705 C   0  0  0  0  0  0
  -25.4290  -36.1820   24.0109 C   0  0  1  0  0  0
  -20.4854  -28.1571   23.0094 C   0  0  2  0  0  0
  -20.2295  -26.6530   22.6971 C   0  0  0  0  0  0
  -19.3503  -26.5104   21.4930 C   0  0  0  0  0  0
  -17.9691  -26.8613   22.0020 C   0  0  0  0  0  0
  -19.1222  -28.8637   23.1577 C   0  0  0  0  0  0
  -18.9903  -30.1098   23.8159 C   0  0  0  0  0  0
  -17.7129  -30.6629   24.0565 C   0  0  0  0  0  0
  -25.9778  -34.8347   23.4446 C   0  0  0  0  0  0
  -16.5540  -29.9713   23.6620 C   0  0  0  0  0  0
  -16.6686  -28.7345   23.0130 C   0  0  0  0  0  0
  -26.7586  -31.6744   25.1997 C   0  0  0  0  0  0
  -25.6384  -31.4603   26.2547 C   0  0  0  0  0  0
  -27.4503  -30.3161   24.9980 C   0  0  0  0  0  0
  -27.8077  -32.5938   25.8285 C   0  0  0  0  0  0
  -27.5439  -37.1413   24.8479 C   0  0  0  0  0  0
  -21.5376  -28.7218   22.1042 N   0  0  0  0  0  0
  -26.4051  -37.3004   23.9484 N   0  0  0  0  0  0
  -25.5425  -29.8800   22.5614 N   0  0  0  0  0  0
  -22.8119  -27.0774   22.7107 O   0  0  0  0  0  0
  -25.1317  -30.3467   20.3264 O   0  0  0  0  0  0
  -26.6228  -34.8547   22.3984 O   0  0  0  0  0  0
  -24.2409  -31.8100   23.5921 O   0  0  0  0  0  0
  -25.6950  -23.2574   22.2603 C   0  0  0  0  0  0
  -26.2991  -21.8320   21.8323 C   0  0  0  0  0  0
  -27.2637  -23.4303   23.6317 C   0  0  0  0  0  0
  -26.0714  -24.3719   23.2719 C   0  0  0  0  0  0
  -27.5041  -20.9678   22.2754 C   0  0  0  0  0  0
  -24.7794  -27.5402   24.3990 C   0  0  0  0  0  0
  -22.9623  -29.9892   25.1318 C   0  0  0  0  0  0
  -22.8989  -31.9265   21.3601 C   0  0  0  0  0  0
  -28.5661  -19.2922   21.6498 C   0  0  0  0  0  0
  -23.6715  -29.3042   23.8883 C   0  0  1  0  0  0
  -23.5459  -30.5109   21.5653 C   0  0  2  0  0  0
  -27.8546  -22.0667   23.2181 N   0  0  0  0  0  0
  -25.4707  -26.0282   24.0023 N   0  0  0  0  0  0
  -28.8265  -17.3646   21.3306 N   0  0  0  0  0  0
  -25.0607  -27.6934   25.5842 O   0  0  0  0  0  0
  -31.2472  -13.9315   19.4163 H   0  0  0  0  0  0
  -30.6494  -12.6849   20.4337 H   0  0  0  0  0  0
  -30.1779  -12.0750   18.0654 H   0  0  0  0  0  0
  -29.4826  -13.6507   17.7589 H   0  0  0  0  0  0
  -28.2693  -11.3682   19.3219 H   0  0  0  0  0  0
  -27.5597  -12.2432   17.9800 H   0  0  0  0  0  0
  -27.4165  -14.2439   19.2986 H   0  0  0  0  0  0
  -28.8055  -12.8083   21.6184 H   0  0  0  0  0  0
  -27.8653  -14.2632   21.8231 H   0  0  0  0  0  0
  -25.2705   -9.5722   22.4734 H   0  0  0  0  0  0
  -23.9992   -7.4622   22.7466 H   0  0  0  0  0  0
  -21.0784   -8.8686   19.8939 H   0  0  0  0  0  0
  -22.3586  -10.9600   19.6146 H   0  0  0  0  0  0
  -21.1990   -7.6121   23.9707 H   0  0  0  0  0  0
  -21.1484   -6.0497   25.9080 H   0  0  0  0  0  0
  -22.0605   -2.7579   23.2875 H   0  0  0  0  0  0
  -22.3851  -11.9806   22.4936 H   0  0  0  0  0  0
  -21.0807  -13.1110   22.2751 H   0  0  0  0  0  0
  -24.5816  -15.8434   20.5254 H   0  0  0  0  0  0
  -26.1872  -15.6319   20.0338 H   0  0  0  0  0  0
  -27.2030  -32.3795   23.1549 H   0  0  0  0  0  0
  -25.1789  -33.7274   24.9280 H   0  0  0  0  0  0
  -24.8145  -27.5057   22.2135 H   0  0  0  0  0  0
  -23.3972  -35.8343   23.2967 H   0  0  0  0  0  0
  -24.3589  -36.8377   22.2166 H   0  0  0  0  0  0
  -23.7133  -37.5104   23.7167 H   0  0  0  0  0  0
  -27.3666  -30.5257   21.9218 H   0  0  0  0  0  0
  -27.3420  -29.0263   22.8156 H   0  0  0  0  0  0
  -28.0429  -30.0228   20.1156 H   0  0  0  0  0  0
  -25.4018  -28.5947   17.5137 H   0  0  0  0  0  0
  -25.0553  -26.5115   18.6403 H   0  0  0  0  0  0
  -23.7466  -28.7594   19.7366 H   0  0  0  0  0  0
  -23.7005  -27.1267   20.2411 H   0  0  0  0  0  0
  -25.1532  -36.0150   25.0547 H   0  0  0  0  0  0
  -20.8558  -28.1733   24.0322 H   0  0  0  0  0  0
  -19.7244  -26.2340   23.5701 H   0  0  0  0  0  0
  -21.0089  -25.9114   22.5773 H   0  0  0  0  0  0
  -19.3615  -25.4896   21.1103 H   0  0  0  0  0  0
  -19.6720  -27.1670   20.6836 H   0  0  0  0  0  0
  -17.2780  -26.8977   21.1594 H   0  0  0  0  0  0
  -17.5992  -26.0772   22.6663 H   0  0  0  0  0  0
  -19.8676  -30.6406   24.1548 H   0  0  0  0  0  0
  -17.6215  -31.6114   24.5678 H   0  0  0  0  0  0
  -15.5777  -30.3912   23.8602 H   0  0  0  0  0  0
  -15.7725  -28.2120   22.7040 H   0  0  0  0  0  0
  -25.2079  -30.4670   26.1834 H   0  0  0  0  0  0
  -24.8620  -32.2236   26.2228 H   0  0  0  0  0  0
  -26.0524  -31.4944   27.2635 H   0  0  0  0  0  0
  -26.7724  -29.4896   24.8187 H   0  0  0  0  0  0
  -27.9798  -30.0229   25.9057 H   0  0  0  0  0  0
  -28.2256  -30.3685   24.2350 H   0  0  0  0  0  0
  -27.3996  -33.5643   26.1163 H   0  0  0  0  0  0
  -28.6323  -32.7821   25.1383 H   0  0  0  0  0  0
  -28.2454  -32.1621   26.7290 H   0  0  0  0  0  0
  -28.2123  -37.9989   24.7574 H   0  0  0  0  0  0
  -28.1243  -36.2462   24.6146 H   0  0  0  0  0  0
  -27.2232  -37.0826   25.8905 H   0  0  0  0  0  0
  -21.4346  -29.6646   21.7612 H   0  0  0  0  0  0
  -25.9521  -38.1861   24.1590 H   0  0  0  0  0  0
  -24.7943  -23.4998   21.7137 H   0  0  0  0  0  0
  -25.7381  -21.3751   21.0278 H   0  0  0  0  0  0
  -27.8908  -23.8477   24.4072 H   0  0  0  0  0  0
  -23.0348  -29.3663   26.0284 H   0  0  0  0  0  0
  -21.8956  -30.1875   24.9747 H   0  0  0  0  0  0
  -23.3045  -30.9568   25.4530 H   0  0  0  0  0  0
  -22.0787  -32.0999   22.0580 H   0  0  0  0  0  0
  -22.4979  -32.0596   20.3523 H   0  0  0  0  0  0
  -23.6137  -32.7419   21.4653 H   0  0  0  0  0  0
  -29.5218  -19.5137   22.1232 H   0  0  0  0  0  0
  -28.7210  -19.6209   20.6218 H   0  0  0  0  0  0
  -22.7949  -28.7558   24.1721 H   0  0  0  0  0  0
  -22.7883  -30.1623   20.8732 H   0  0  0  0  0  0
  -25.9362  -25.9771   24.8992 H   0  0  0  0  0  0
  -27.9214  -16.9531   21.5127 H   0  0  0  0  0  0
  1 25  1  0  0  0
  1 30  2  0  0  0
  1 84  1  0  0  0
  2  3  1  0  0  0
  2 25  1  0  0  0
  2 86  1  0  0  0
  2 87  1  0  0  0
  3  4  1  0  0  0
  3 88  1  0  0  0
  3 89  1  0  0  0
  4  5  1  0  0  0
  4 90  1  0  0  0
  4 91  1  0  0  0
  5  6  1  0  0  0
  5 26  1  0  0  0
  5 92  1  0  0  0
  6 25  1  0  0  0
  6 93  1  0  0  0
  6 94  1  0  0  0
  7  8  2  0  0  0
  7 26  1  0  0  0
  7 29  1  0  0  0
  8  9  1  0  0  0
  8 22  1  0  0  0
  9 10  1  0  0  0
  9 27  2  0  0  0
 10 11  2  0  0  0
 10 15  1  0  0  0
 11 12  1  0  0  0
 11 95  1  0  0  0
 12 13  2  0  0  0
 12 96  1  0  0  0
 13 14  1  0  0  0
 13 31  1  0  0  0
 14 15  2  0  0  0
 14 97  1  0  0  0
 15 98  1  0  0  0
 16 17  2  0  0  0
 16 21  1  0  0  0
 16 31  1  0  0  0
 17 18  1  0  0  0
 17 99  1  0  0  0
 18 19  2  0  0  0
 18100  1  0  0  0
 19 20  1  0  0  0
 19 24  1  0  0  0
 20 21  2  0  0  0
 20101  1  0  0  0
 21 23  1  0  0  0
 22 28  1  0  0  0
 22 32  2  0  0  0
 26 27  1  0  0  0
 28102  1  0  0  0
 28103  1  0  0  0
 29104  1  0  0  0
 29105  1  0  0  0
 33 34  1  0  0  0
 33 66  1  0  0  0
 33 70  2  0  0  0
 34 36  1  0  0  0
 34 59  1  0  0  0
 34106  1  0  0  0
 35 44  2  0  0  0
 35 45  1  0  0  0
 35 68  1  0  0  0
 36 56  1  0  0  0
 36107  1  0  0  0
 37 39  1  0  0  0
 37 47  1  0  0  0
 37 66  1  0  0  0
 37108  1  0  0  0
 38 43  2  0  0  0
 38 46  1  0  0  0
 38 47  1  0  0  0
 39 64  1  0  0  0
 39 67  2  0  0  0
 40 52  1  0  0  0
 40 53  2  0  0  0
 40 58  1  0  0  0
 41109  1  0  0  0
 41110  1  0  0  0
 41111  1  0  0  0
 41 48  1  0  0  0
 42 43  1  0  0  0
 42 66  1  0  0  0
 42112  1  0  0  0
 42113  1  0  0  0
 43 44  1  0  0  0
 44114  1  0  0  0
 45 46  2  0  0  0
 45115  1  0  0  0
 46116  1  0  0  0
 47117  1  0  0  0
 47118  1  0  0  0
 48 56  1  0  0  0
 48 65  1  0  0  0
 48119  1  0  0  0
 49 50  1  0  0  0
 49 53  1  0  0  0
 49 64  1  0  0  0
 49120  1  0  0  0
 50 51  1  0  0  0
 50121  1  0  0  0
 50122  1  0  0  0
 51 52  1  0  0  0
 51123  1  0  0  0
 51124  1  0  0  0
 52125  1  0  0  0
 52126  1  0  0  0
 53 54  1  0  0  0
 54 55  2  0  0  0
 54127  1  0  0  0
 55 57  1  0  0  0
 55128  1  0  0  0
 56 69  2  0  0  0
 57 58  2  0  0  0
 57129  1  0  0  0
 58130  1  0  0  0
 59 60  1  0  0  0
 59 61  1  0  0  0
 59 62  1  0  0  0
 60131  1  0  0  0
 60132  1  0  0  0
 60133  1  0  0  0
 61134  1  0  0  0
 61135  1  0  0  0
 61136  1  0  0  0
 62137  1  0  0  0
 62138  1  0  0  0
 62139  1  0  0  0
 63 65  1  0  0  0
 63140  1  0  0  0
 63141  1  0  0  0
 63142  1  0  0  0
 64143  1  0  0  0
 65144  1  0  0  0
 68 81  1  0  0  0
 71 72  2  0  0  0
 71 74  1  0  0  0
 71145  1  0  0  0
 72 75  1  0  0  0
 72146  1  0  0  0
 73 74  2  0  0  0
 73 82  1  0  0  0
 73147  1  0  0  0
 74 83  1  0  0  0
 75 79  1  0  0  0
 75 82  2  0  0  0
 76 80  1  0  0  0
 76 83  1  0  0  0
 76 85  2  0  0  0
 77148  1  0  0  0
 77149  1  0  0  0
 77150  1  0  0  0
 77 80  1  0  0  0
 78151  1  0  0  0
 78152  1  0  0  0
 78153  1  0  0  0
 78 81  1  0  0  0
 79 84  1  0  0  0
 79154  1  0  0  0
 79155  1  0  0  0
 80 81  1  0  0  0
 80156  1  0  0  0
 81157  1  0  0  0
 83158  1  0  0  0
 84159  1  0  0  0
M  ISO  4   1 100  68 101  81 101  84 100
M  END
> <chiral flag>
0

> <version>
0

> <s_m_source_file>
/data/baiqing/PycharmProjects/Reinvent-master-3.2/result/LINK_invent/BTK/process_docking_weight1_custom_product_contain_oxygen_bond_distance_aromatic_linkinvent_7_9_3/rearranged_h_0189.sdf

> <i_m_source_file_index>
85

> <r_mmod_Potential_Energy-OPLS-2005>
17006.025390625

> <r_mmod_Stretch_Energy-OPLS-2005>
5289.470703125

> <r_mmod_Bend_Energy-OPLS-2005>
2464.7529296875

> <r_mmod_Torsional_Energy-OPLS-2005>
652.888366699219

> <r_mmod_Improper_Torsional_Energy-OPLS-2005>
106.927803039551

> <r_mmod_Van_der_Waal_Energy-OPLS-2005>
1913.38500976562

> <r_mmod_Electrostatic_Energy-OPLS-2005>
-620.765625

> <r_mmod_Solvation_Energy-OPLS-2005>
-236.292510986328

> <b_mmod_Minimization_Converged-OPLS-2005>
0

> <r_mmod_RMS_Derivative-OPLS-2005>
3.86803674697876

$$$$
85
                    3D
 Structure written by MMmdl.
156164  0  0  1  0            999 V2000
  -30.4757  -14.9974   20.4217 C   0  0  0  0  0  0
  -30.4492  -12.6197   19.4978 C   0  0  0  0  0  0
  -29.5267  -12.5513   18.2558 C   0  0  0  0  0  0
  -28.0573  -12.3319   18.6677 C   0  0  0  0  0  0
  -27.6317  -13.2482   19.8439 C   0  0  2  0  0  0
  -28.6746  -13.2600   20.9820 C   0  0  0  0  0  0
  -25.2475  -13.8213   20.5698 C   0  0  0  0  0  0
  -24.1792  -13.0444   20.9220 C   0  0  0  0  0  0
  -24.6398  -11.6926   20.8743 C   0  0  0  0  0  0
  -23.9075  -10.4301   21.0396 C   0  0  0  0  0  0
  -24.3626   -9.4218   21.9177 C   0  0  0  0  0  0
  -23.6307   -8.2251   22.0748 C   0  0  0  0  0  0
  -22.4291   -8.0283   21.3535 C   0  0  0  0  0  0
  -21.9917   -9.0255   20.4636 C   0  0  0  0  0  0
  -22.7240  -10.2140   20.3047 C   0  0  0  0  0  0
  -21.6864   -6.0732   22.5275 C   0  0  0  0  0  0
  -21.4020   -6.5635   23.8207 C   0  0  0  0  0  0
  -21.3665   -5.6790   24.9168 C   0  0  0  0  0  0
  -21.6050   -4.3050   24.7221 C   0  0  0  0  0  0
  -21.8824   -3.8141   23.4340 C   0  0  0  0  0  0
  -21.9202   -4.6961   22.3397 C   0  0  0  0  0  0
  -22.7815  -13.5221   21.1885 C   0  0  0  0  0  0
  -22.1669   -4.2146   21.0977 F   0  0  0  0  0  0
  -21.5632   -3.4531   25.7733 F   0  0  0  0  0  0
  -29.9457  -13.7029   20.3913 N   0  0  0  0  0  0
  -26.2898  -12.9437   20.3253 N   0  0  0  0  0  0
  -25.9333  -11.6566   20.5724 N   0  0  0  0  0  0
  -22.0466  -12.8202   22.0428 N   0  0  0  0  0  0
  -25.4119  -15.1950   20.4118 N   0  0  0  0  0  0
  -31.6754  -15.1186   20.1400 O   0  0  0  0  0  0
  -21.6656   -6.8878   21.4237 O   0  0  0  0  0  0
  -22.3503  -14.5529   20.6730 O   0  0  0  0  0  0
  -24.6460  -31.8418   23.1859 C   0  0  0  0  0  0
  -25.9219  -32.4680   23.8265 C   0  0  1  0  0  0
  -27.2130  -27.0892   20.1796 C   0  0  0  0  0  0
  -25.5956  -33.8488   24.2175 N   0  0  0  0  0  0
  -23.4516  -30.4594   21.5316 C   0  0  2  0  0  0
  -24.9027  -28.8729   20.1212 C   0  0  0  0  0  0
  -22.7582  -29.4537   22.4843 C   0  0  0  0  0  0
  -18.0308  -28.1400   22.8475 C   0  0  0  0  0  0
  -24.1480  -36.7235   23.2645 C   0  0  0  0  0  0
  -26.0108  -30.6982   21.3965 C   0  0  0  0  0  0
  -26.0793  -29.3012   20.7498 C   0  0  0  0  0  0
  -27.2361  -28.4263   20.7613 C   0  0  0  0  0  0
  -26.0266  -26.7910   19.4827 C   0  0  0  0  0  0
  -24.8910  -27.6303   19.4703 C   0  0  0  0  0  0
  -23.6833  -29.7833   20.1539 C   0  0  0  0  0  0
  -25.4117  -36.3019   24.0312 C   0  0  1  0  0  0
  -20.5924  -28.3728   23.1222 C   0  0  2  0  0  0
  -20.6790  -26.9423   22.5402 C   0  0  0  0  0  0
  -19.5759  -26.6378   21.5211 C   0  0  0  0  0  0
  -18.1942  -26.7935   22.1623 C   0  0  0  0  0  0
  -19.1570  -28.8880   23.2844 C   0  0  0  0  0  0
  -18.9484  -30.1473   23.8870 C   0  0  0  0  0  0
  -17.6483  -30.6599   24.0558 C   0  0  0  0  0  0
  -25.9073  -34.9398   23.5053 C   0  0  0  0  0  0
  -16.5373  -29.9090   23.6335 C   0  0  0  0  0  0
  -16.7291  -28.6508   23.0355 C   0  0  0  0  0  0
  -26.4526  -31.6565   25.0727 C   0  0  0  0  0  0
  -25.3693  -31.3771   26.1410 C   0  0  0  0  0  0
  -27.0406  -30.2953   24.6355 C   0  0  0  0  0  0
  -27.6049  -32.4351   25.7518 C   0  0  0  0  0  0
  -27.5562  -37.1774   24.8468 C   0  0  0  0  0  0
  -21.4273  -29.3046   22.3584 N   0  0  0  0  0  0
  -26.4274  -37.3740   23.9411 N   0  0  0  0  0  0
  -24.7225  -31.0232   22.0919 N   0  0  0  0  0  0
  -23.4209  -28.8092   23.3014 O   0  0  0  0  0  0
  -28.2837  -26.1156   20.1108 O   0  0  0  0  0  0
  -26.5667  -34.8906   22.4638 O   0  0  0  0  0  0
  -23.5569  -32.1317   23.7052 O   0  0  0  0  0  0
  -29.4374  -17.6265   20.4250 C   0  0  0  0  0  0
  -29.0751  -20.3128   20.3814 C   0  0  0  0  0  0
  -25.5520  -23.4886   19.9750 C   0  0  0  0  0  0
  -26.4645  -22.2462   21.9669 C   0  0  0  0  0  0
  -29.7950  -24.7042   21.3182 C   0  0  0  0  0  0
  -26.6762  -22.5830   20.4752 C   0  0  0  0  0  0
  -28.1212  -23.0723   20.1501 C   0  0  2  0  0  0
  -28.3691  -24.6745   20.7547 C   0  0  2  0  0  0
  -28.2054  -18.0950   20.0896 N   0  0  0  0  0  0
  -28.0181  -19.5353   20.0400 N   0  0  0  0  0  0
  -29.5768  -16.0927   20.5926 N   0  0  0  0  0  0
  -29.0529  -21.8249   20.4535 N   0  0  0  0  0  0
  -30.4761  -19.1277   20.7393 S   0  0  0  0  0  0
  -31.4793  -12.8006   19.1877 H   0  0  0  0  0  0
  -30.4577  -11.6630   20.0215 H   0  0  0  0  0  0
  -29.8497  -11.7543   17.5849 H   0  0  0  0  0  0
  -29.6114  -13.4807   17.6897 H   0  0  0  0  0  0
  -27.9464  -11.2861   18.9564 H   0  0  0  0  0  0
  -27.3967  -12.4828   17.8125 H   0  0  0  0  0  0
  -27.5944  -14.2555   19.4287 H   0  0  0  0  0  0
  -28.7731  -12.2731   21.4367 H   0  0  0  0  0  0
  -28.3648  -13.9340   21.7821 H   0  0  0  0  0  0
  -25.2764   -9.5720   22.4756 H   0  0  0  0  0  0
  -24.0028   -7.4649   22.7472 H   0  0  0  0  0  0
  -21.0847   -8.8767   19.8942 H   0  0  0  0  0  0
  -22.3682  -10.9681   19.6166 H   0  0  0  0  0  0
  -21.2005   -7.6143   23.9709 H   0  0  0  0  0  0
  -21.1485   -6.0515   25.9076 H   0  0  0  0  0  0
  -22.0599   -2.7604   23.2838 H   0  0  0  0  0  0
  -22.4090  -11.9864   22.4817 H   0  0  0  0  0  0
  -21.1084  -13.1224   22.2630 H   0  0  0  0  0  0
  -24.6338  -15.8375   20.5142 H   0  0  0  0  0  0
  -26.2400  -15.6432   20.0426 H   0  0  0  0  0  0
  -26.7288  -32.5278   23.0995 H   0  0  0  0  0  0
  -25.0080  -33.9609   25.0307 H   0  0  0  0  0  0
  -22.7558  -31.2861   21.3722 H   0  0  0  0  0  0
  -23.3756  -35.9556   23.3304 H   0  0  0  0  0  0
  -24.3552  -36.8873   22.2059 H   0  0  0  0  0  0
  -23.7226  -37.6422   23.6693 H   0  0  0  0  0  0
  -26.1754  -31.4456   20.6189 H   0  0  0  0  0  0
  -26.8784  -30.7519   22.0420 H   0  0  0  0  0  0
  -28.1395  -28.7596   21.2523 H   0  0  0  0  0  0
  -25.9776  -25.8750   18.9191 H   0  0  0  0  0  0
  -24.0055  -27.3092   18.9394 H   0  0  0  0  0  0
  -23.8278  -30.5556   19.3973 H   0  0  0  0  0  0
  -22.7972  -29.2283   19.8397 H   0  0  0  0  0  0
  -25.1309  -36.1836   25.0803 H   0  0  0  0  0  0
  -21.0021  -28.3321   24.1340 H   0  0  0  0  0  0
  -20.5663  -26.2342   23.3627 H   0  0  0  0  0  0
  -21.6656  -26.7408   22.1208 H   0  0  0  0  0  0
  -19.6916  -25.6279   21.1256 H   0  0  0  0  0  0
  -19.6699  -27.3175   20.6730 H   0  0  0  0  0  0
  -17.4209  -26.6679   21.4030 H   0  0  0  0  0  0
  -18.0342  -26.0090   22.9031 H   0  0  0  0  0  0
  -19.7960  -30.7298   24.2227 H   0  0  0  0  0  0
  -17.5035  -31.6270   24.5166 H   0  0  0  0  0  0
  -15.5370  -30.2988   23.7664 H   0  0  0  0  0  0
  -15.8692  -28.0817   22.7085 H   0  0  0  0  0  0
  -24.5892  -30.7096   25.7717 H   0  0  0  0  0  0
  -24.8863  -32.2962   26.4746 H   0  0  0  0  0  0
  -25.7963  -30.8999   27.0243 H   0  0  0  0  0  0
  -26.3030  -29.6651   24.1369 H   0  0  0  0  0  0
  -27.3994  -29.7284   25.4956 H   0  0  0  0  0  0
  -27.8953  -30.4162   23.9697 H   0  0  0  0  0  0
  -27.2628  -33.3681   26.2019 H   0  0  0  0  0  0
  -28.3904  -32.6867   25.0376 H   0  0  0  0  0  0
  -28.0674  -31.8529   26.5501 H   0  0  0  0  0  0
  -28.2580  -38.0070   24.7515 H   0  0  0  0  0  0
  -28.1058  -36.2599   24.6298 H   0  0  0  0  0  0
  -27.2281  -37.1425   25.8872 H   0  0  0  0  0  0
  -20.9485  -29.8744   21.6748 H   0  0  0  0  0  0
  -26.0131  -38.2799   24.1437 H   0  0  0  0  0  0
  -24.5868  -22.9889   20.0622 H   0  0  0  0  0  0
  -25.6891  -23.7341   18.9226 H   0  0  0  0  0  0
  -25.4897  -24.4032   20.5616 H   0  0  0  0  0  0
  -25.4803  -21.8046   22.1274 H   0  0  0  0  0  0
  -26.5304  -23.1287   22.6016 H   0  0  0  0  0  0
  -27.1956  -21.5254   22.3333 H   0  0  0  0  0  0
  -29.9916  -25.6314   21.8572 H   0  0  0  0  0  0
  -30.5289  -24.6212   20.5156 H   0  0  0  0  0  0
  -29.9642  -23.8854   22.0180 H   0  0  0  0  0  0
  -26.5264  -21.6572   19.9221 H   0  0  0  0  0  0
  -28.1851  -23.1742   19.0652 H   0  0  0  0  0  0
  -27.7207  -24.7630   21.6258 H   0  0  0  0  0  0
  -28.6663  -15.7003   20.7626 H   0  0  0  0  0  0
  -29.9638  -22.1531   20.7543 H   0  0  0  0  0  0
  1 25  1  0  0  0
  1 30  2  0  0  0
  1 81  1  0  0  0
  2  3  1  0  0  0
  2 25  1  0  0  0
  2 84  1  0  0  0
  2 85  1  0  0  0
  3  4  1  0  0  0
  3 86  1  0  0  0
  3 87  1  0  0  0
  4  5  1  0  0  0
  4 88  1  0  0  0
  4 89  1  0  0  0
  5  6  1  0  0  0
  5 26  1  0  0  0
  5 90  1  0  0  0
  6 25  1  0  0  0
  6 91  1  0  0  0
  6 92  1  0  0  0
  7  8  2  0  0  0
  7 26  1  0  0  0
  7 29  1  0  0  0
  8  9  1  0  0  0
  8 22  1  0  0  0
  9 10  1  0  0  0
  9 27  2  0  0  0
 10 11  2  0  0  0
 10 15  1  0  0  0
 11 12  1  0  0  0
 11 93  1  0  0  0
 12 13  2  0  0  0
 12 94  1  0  0  0
 13 14  1  0  0  0
 13 31  1  0  0  0
 14 15  2  0  0  0
 14 95  1  0  0  0
 15 96  1  0  0  0
 16 17  2  0  0  0
 16 21  1  0  0  0
 16 31  1  0  0  0
 17 18  1  0  0  0
 17 97  1  0  0  0
 18 19  2  0  0  0
 18 98  1  0  0  0
 19 20  1  0  0  0
 19 24  1  0  0  0
 20 21  2  0  0  0
 20 99  1  0  0  0
 21 23  1  0  0  0
 22 28  1  0  0  0
 22 32  2  0  0  0
 26 27  1  0  0  0
 28100  1  0  0  0
 28101  1  0  0  0
 29102  1  0  0  0
 29103  1  0  0  0
 33 34  1  0  0  0
 33 66  1  0  0  0
 33 70  2  0  0  0
 34 36  1  0  0  0
 34 59  1  0  0  0
 34104  1  0  0  0
 35 44  2  0  0  0
 35 45  1  0  0  0
 35 68  1  0  0  0
 36 56  1  0  0  0
 36105  1  0  0  0
 37 39  1  0  0  0
 37 47  1  0  0  0
 37 66  1  0  0  0
 37106  1  0  0  0
 38 43  2  0  0  0
 38 46  1  0  0  0
 38 47  1  0  0  0
 39 64  1  0  0  0
 39 67  2  0  0  0
 40 52  1  0  0  0
 40 53  2  0  0  0
 40 58  1  0  0  0
 41107  1  0  0  0
 41108  1  0  0  0
 41109  1  0  0  0
 41 48  1  0  0  0
 42 43  1  0  0  0
 42 66  1  0  0  0
 42110  1  0  0  0
 42111  1  0  0  0
 43 44  1  0  0  0
 44112  1  0  0  0
 45 46  2  0  0  0
 45113  1  0  0  0
 46114  1  0  0  0
 47115  1  0  0  0
 47116  1  0  0  0
 48 56  1  0  0  0
 48 65  1  0  0  0
 48117  1  0  0  0
 49 50  1  0  0  0
 49 53  1  0  0  0
 49 64  1  0  0  0
 49118  1  0  0  0
 50 51  1  0  0  0
 50119  1  0  0  0
 50120  1  0  0  0
 51 52  1  0  0  0
 51121  1  0  0  0
 51122  1  0  0  0
 52123  1  0  0  0
 52124  1  0  0  0
 53 54  1  0  0  0
 54 55  2  0  0  0
 54125  1  0  0  0
 55 57  1  0  0  0
 55126  1  0  0  0
 56 69  2  0  0  0
 57 58  2  0  0  0
 57127  1  0  0  0
 58128  1  0  0  0
 59 60  1  0  0  0
 59 61  1  0  0  0
 59 62  1  0  0  0
 60129  1  0  0  0
 60130  1  0  0  0
 60131  1  0  0  0
 61132  1  0  0  0
 61133  1  0  0  0
 61134  1  0  0  0
 62135  1  0  0  0
 62136  1  0  0  0
 62137  1  0  0  0
 63 65  1  0  0  0
 63138  1  0  0  0
 63139  1  0  0  0
 63140  1  0  0  0
 64141  1  0  0  0
 65142  1  0  0  0
 68 78  1  0  0  0
 71 79  2  0  0  0
 71 81  1  0  0  0
 71 83  1  0  0  0
 72 80  2  0  0  0
 72 82  1  0  0  0
 72 83  1  0  0  0
 73143  1  0  0  0
 73144  1  0  0  0
 73145  1  0  0  0
 73 76  1  0  0  0
 74 76  1  0  0  0
 74146  1  0  0  0
 74147  1  0  0  0
 74148  1  0  0  0
 75149  1  0  0  0
 75150  1  0  0  0
 75151  1  0  0  0
 75 78  1  0  0  0
 76 77  1  0  0  0
 76152  1  0  0  0
 77 78  1  0  0  0
 77 82  1  0  0  0
 77153  1  0  0  0
 78154  1  0  0  0
 79 80  1  0  0  0
 81155  1  0  0  0
 82156  1  0  0  0
M  ISO  4   1 100  68 101  78 101  81 100
M  END
> <chiral flag>
0

> <version>
0

> <s_m_source_file>
/data/baiqing/PycharmProjects/Reinvent-master-3.2/result/LINK_invent/BTK/process_docking_weight1_custom_product_contain_oxygen_bond_distance_aromatic_linkinvent_7_9_3/rearranged_h_0189.sdf

> <i_m_source_file_index>
86

> <r_mmod_Potential_Energy-OPLS-2005>
536.693542480469

> <r_mmod_Stretch_Energy-OPLS-2005>
290.525482177734

> <r_mmod_Bend_Energy-OPLS-2005>
351.399383544922

> <r_mmod_Torsional_Energy-OPLS-2005>
260.650512695312

> <r_mmod_Improper_Torsional_Energy-OPLS-2005>
5.60791301727295

> <r_mmod_Van_der_Waal_Energy-OPLS-2005>
107.368377685547

> <r_mmod_Electrostatic_Energy-OPLS-2005>
-485.325500488281

> <r_mmod_Solvation_Energy-OPLS-2005>
-217.582550048828

> <b_mmod_Minimization_Converged-OPLS-2005>
0

> <r_mmod_RMS_Derivative-OPLS-2005>
1.46707439422607

$$$$
86
                    3D
 Structure written by MMmdl.
157165  0  0  1  0            999 V2000
  -30.5892  -14.7931   20.4393 C   0  0  0  0  0  0
  -30.4285  -12.4891   19.4606 C   0  0  0  0  0  0
  -29.5039  -12.5392   18.2235 C   0  0  0  0  0  0
  -28.0263  -12.3701   18.6294 C   0  0  0  0  0  0
  -27.6342  -13.2433   19.8493 C   0  0  2  0  0  0
  -28.6849  -13.1768   20.9778 C   0  0  0  0  0  0
  -25.2438  -13.8167   20.5697 C   0  0  0  0  0  0
  -24.1773  -13.0351   20.9203 C   0  0  0  0  0  0
  -24.6417  -11.6856   20.8723 C   0  0  0  0  0  0
  -23.9141  -10.4193   21.0389 C   0  0  0  0  0  0
  -24.3685   -9.4133   21.9185 C   0  0  0  0  0  0
  -23.6329   -8.2195   22.0770 C   0  0  0  0  0  0
  -22.4299   -8.0245   21.3564 C   0  0  0  0  0  0
  -21.9946   -9.0216   20.4666 C   0  0  0  0  0  0
  -22.7287  -10.2078   20.3058 C   0  0  0  0  0  0
  -21.6891   -6.0715   22.5255 C   0  0  0  0  0  0
  -21.4049   -6.5634   23.8161 C   0  0  0  0  0  0
  -21.3674   -5.6801   24.9141 C   0  0  0  0  0  0
  -21.6027   -4.3050   24.7221 C   0  0  0  0  0  0
  -21.8835   -3.8145   23.4338 C   0  0  0  0  0  0
  -21.9221   -4.6946   22.3389 C   0  0  0  0  0  0
  -22.7778  -13.5075   21.1885 C   0  0  0  0  0  0
  -22.1659   -4.2141   21.0965 F   0  0  0  0  0  0
  -21.5658   -3.4544   25.7736 F   0  0  0  0  0  0
  -29.9767  -13.5554   20.3868 N   0  0  0  0  0  0
  -26.2899  -12.9420   20.3296 N   0  0  0  0  0  0
  -25.9358  -11.6534   20.5738 N   0  0  0  0  0  0
  -22.0551  -12.8002   22.0463 N   0  0  0  0  0  0
  -25.4077  -15.1929   20.4086 N   0  0  0  0  0  0
  -31.7924  -14.8800   20.1685 O   0  0  0  0  0  0
  -21.6674   -6.8850   21.4214 O   0  0  0  0  0  0
  -22.3378  -14.5363   20.6724 O   0  0  0  0  0  0
  -24.6292  -31.8576   23.2037 C   0  0  0  0  0  0
  -25.9132  -32.4784   23.8388 C   0  0  1  0  0  0
  -27.2397  -27.2826   20.1531 C   0  0  0  0  0  0
  -25.5925  -33.8584   24.2342 N   0  0  0  0  0  0
  -23.4253  -30.4748   21.5498 C   0  0  2  0  0  0
  -24.8772  -28.9167   20.1284 C   0  0  0  0  0  0
  -22.7504  -29.4569   22.5020 C   0  0  0  0  0  0
  -18.0307  -28.1302   22.8533 C   0  0  0  0  0  0
  -24.1499  -36.7257   23.2630 C   0  0  0  0  0  0
  -25.9687  -30.7804   21.3784 C   0  0  0  0  0  0
  -26.0462  -29.3988   20.7308 C   0  0  0  0  0  0
  -27.2301  -28.5982   20.7249 C   0  0  0  0  0  0
  -26.0545  -26.8674   19.5106 C   0  0  0  0  0  0
  -24.8869  -27.6596   19.5041 C   0  0  0  0  0  0
  -23.6467  -29.8009   20.1685 C   0  0  0  0  0  0
  -25.4116  -36.3080   24.0351 C   0  0  1  0  0  0
  -20.5899  -28.3604   23.1331 C   0  0  2  0  0  0
  -20.6777  -26.9343   22.5404 C   0  0  0  0  0  0
  -19.5746  -26.6330   21.5205 C   0  0  0  0  0  0
  -18.1929  -26.7867   22.1612 C   0  0  0  0  0  0
  -19.1552  -28.8780   23.2933 C   0  0  0  0  0  0
  -18.9457  -30.1391   23.8931 C   0  0  0  0  0  0
  -17.6450  -30.6542   24.0511 C   0  0  0  0  0  0
  -25.9033  -34.9444   23.5154 C   0  0  0  0  0  0
  -16.5352  -29.9000   23.6315 C   0  0  0  0  0  0
  -16.7289  -28.6388   23.0411 C   0  0  0  0  0  0
  -26.4509  -31.6579   25.0739 C   0  0  0  0  0  0
  -25.3730  -31.3690   26.1465 C   0  0  0  0  0  0
  -27.0357  -30.3026   24.6110 C   0  0  0  0  0  0
  -27.6068  -32.4304   25.7540 C   0  0  0  0  0  0
  -27.5613  -37.1790   24.8476 C   0  0  0  0  0  0
  -21.4209  -29.2979   22.3767 N   0  0  0  0  0  0
  -26.4287  -37.3784   23.9419 N   0  0  0  0  0  0
  -24.6933  -31.0564   22.0995 N   0  0  0  0  0  0
  -23.4220  -28.8118   23.3114 O   0  0  0  0  0  0
  -28.3676  -26.4299   20.1759 O   0  0  0  0  0  0
  -26.5610  -34.8917   22.4721 O   0  0  0  0  0  0
  -23.5440  -32.1365   23.7345 O   0  0  0  0  0  0
  -29.6457  -19.6809   20.2063 C   0  0  0  0  0  0
  -30.0736  -17.3852   20.4743 C   0  0  0  0  0  0
  -27.3617  -20.6138   19.5300 C   0  0  0  0  0  0
  -27.6959  -23.7390   18.6092 C   0  0  0  0  0  0
  -27.1140  -24.7668   21.6474 C   0  0  0  0  0  0
  -28.8491  -21.0006   19.7115 C   0  0  1  0  0  0
  -28.6983  -23.7504   19.7871 C   0  0  1  0  0  0
  -28.3428  -25.0273   20.7430 C   0  0  1  0  0  0
  -29.1607  -18.3739   20.2019 N   0  0  0  0  0  0
  -30.9567  -19.7287   20.5353 N   0  0  0  0  0  0
  -29.7782  -15.9225   20.5462 N   0  0  0  0  0  0
  -28.9639  -22.3571   20.4601 N   0  3  0  0  0  0
  -31.6069  -18.1536   20.7668 S   0  0  0  0  0  0
  -31.4721  -12.6058   19.1596 H   0  0  0  0  0  0
  -30.3659  -11.5150   19.9480 H   0  0  0  0  0  0
  -29.7837  -11.7690   17.5036 H   0  0  0  0  0  0
  -29.6316  -13.4994   17.7177 H   0  0  0  0  0  0
  -27.8630  -11.3175   18.8498 H   0  0  0  0  0  0
  -27.3842  -12.6039   17.7789 H   0  0  0  0  0  0
  -27.6169  -14.2695   19.4805 H   0  0  0  0  0  0
  -28.7365  -12.1661   21.3913 H   0  0  0  0  0  0
  -28.4169  -13.8362   21.8040 H   0  0  0  0  0  0
  -25.2843   -9.5602   22.4750 H   0  0  0  0  0  0
  -24.0077   -7.4571   22.7440 H   0  0  0  0  0  0
  -21.0935   -8.8666   19.8895 H   0  0  0  0  0  0
  -22.3763  -10.9611   19.6127 H   0  0  0  0  0  0
  -21.2034   -7.6138   23.9659 H   0  0  0  0  0  0
  -21.1497   -6.0549   25.9044 H   0  0  0  0  0  0
  -22.0632   -2.7618   23.2843 H   0  0  0  0  0  0
  -22.4275  -11.9680   22.4798 H   0  0  0  0  0  0
  -21.1128  -13.0846   22.2687 H   0  0  0  0  0  0
  -24.6441  -15.8494   20.5234 H   0  0  0  0  0  0
  -26.2588  -15.6404   20.0962 H   0  0  0  0  0  0
  -26.7206  -32.5463   23.1149 H   0  0  0  0  0  0
  -25.0190  -33.9740   25.0569 H   0  0  0  0  0  0
  -22.7141  -31.2914   21.4018 H   0  0  0  0  0  0
  -23.3820  -35.9533   23.3246 H   0  0  0  0  0  0
  -24.3617  -36.8908   22.2055 H   0  0  0  0  0  0
  -23.7206  -37.6416   23.6679 H   0  0  0  0  0  0
  -26.0978  -31.5386   20.6047 H   0  0  0  0  0  0
  -26.8480  -30.8366   22.0078 H   0  0  0  0  0  0
  -28.1302  -28.9742   21.1920 H   0  0  0  0  0  0
  -26.0221  -25.9077   19.0172 H   0  0  0  0  0  0
  -23.9980  -27.2814   19.0184 H   0  0  0  0  0  0
  -23.7710  -30.5747   19.4104 H   0  0  0  0  0  0
  -22.7661  -29.2316   19.8680 H   0  0  0  0  0  0
  -25.1308  -36.1929   25.0846 H   0  0  0  0  0  0
  -21.0001  -28.3106   24.1437 H   0  0  0  0  0  0
  -20.5616  -26.2210   23.3576 H   0  0  0  0  0  0
  -21.6648  -26.7324   22.1216 H   0  0  0  0  0  0
  -19.6868  -25.6229   21.1232 H   0  0  0  0  0  0
  -19.6666  -27.3146   20.6735 H   0  0  0  0  0  0
  -17.4204  -26.6706   21.3991 H   0  0  0  0  0  0
  -18.0291  -25.9962   22.8947 H   0  0  0  0  0  0
  -19.7916  -30.7215   24.2318 H   0  0  0  0  0  0
  -17.4971  -31.6247   24.5046 H   0  0  0  0  0  0
  -15.5338  -30.2868   23.7593 H   0  0  0  0  0  0
  -15.8713  -28.0632   22.7180 H   0  0  0  0  0  0
  -24.5876  -30.7083   25.7794 H   0  0  0  0  0  0
  -24.8929  -32.2835   26.4942 H   0  0  0  0  0  0
  -25.7987  -30.8812   27.0236 H   0  0  0  0  0  0
  -26.2906  -29.6823   24.1094 H   0  0  0  0  0  0
  -27.4126  -29.7208   25.4536 H   0  0  0  0  0  0
  -27.8762  -30.4435   23.9305 H   0  0  0  0  0  0
  -27.2676  -33.3588   26.2173 H   0  0  0  0  0  0
  -28.3859  -32.6900   25.0354 H   0  0  0  0  0  0
  -28.0783  -31.8392   26.5413 H   0  0  0  0  0  0
  -28.2581  -38.0134   24.7603 H   0  0  0  0  0  0
  -28.1149  -36.2676   24.6200 H   0  0  0  0  0  0
  -27.2330  -37.1334   25.8870 H   0  0  0  0  0  0
  -20.9383  -29.8725   21.7011 H   0  0  0  0  0  0
  -26.0181  -38.2844   24.1433 H   0  0  0  0  0  0
  -27.2643  -19.7559   18.8641 H   0  0  0  0  0  0
  -26.7658  -21.4009   19.0833 H   0  0  0  0  0  0
  -26.8980  -20.3452   20.4810 H   0  0  0  0  0  0
  -27.6876  -24.7065   18.1035 H   0  0  0  0  0  0
  -26.6743  -23.5644   18.9440 H   0  0  0  0  0  0
  -27.9478  -23.0027   17.8473 H   0  0  0  0  0  0
  -27.2560  -23.8762   22.2561 H   0  0  0  0  0  0
  -26.1975  -24.6186   21.0793 H   0  0  0  0  0  0
  -26.9420  -25.5884   22.3433 H   0  0  0  0  0  0
  -29.2771  -21.2011   18.7255 H   0  0  0  0  0  0
  -29.6592  -23.9896   19.3280 H   0  0  0  0  0  0
  -29.1696  -25.0827   21.4526 H   0  0  0  0  0  0
  -28.8032  -15.6998   20.6391 H   0  0  0  0  0  0
  -29.9208  -22.3931   20.7858 H   0  0  0  0  0  0
  -28.4094  -22.2768   21.2995 H   0  0  0  0  0  0
  1 25  1  0  0  0
  1 30  2  0  0  0
  1 81  1  0  0  0
  2  3  1  0  0  0
  2 25  1  0  0  0
  2 84  1  0  0  0
  2 85  1  0  0  0
  3  4  1  0  0  0
  3 86  1  0  0  0
  3 87  1  0  0  0
  4  5  1  0  0  0
  4 88  1  0  0  0
  4 89  1  0  0  0
  5  6  1  0  0  0
  5 26  1  0  0  0
  5 90  1  0  0  0
  6 25  1  0  0  0
  6 91  1  0  0  0
  6 92  1  0  0  0
  7  8  2  0  0  0
  7 26  1  0  0  0
  7 29  1  0  0  0
  8  9  1  0  0  0
  8 22  1  0  0  0
  9 10  1  0  0  0
  9 27  2  0  0  0
 10 11  2  0  0  0
 10 15  1  0  0  0
 11 12  1  0  0  0
 11 93  1  0  0  0
 12 13  2  0  0  0
 12 94  1  0  0  0
 13 14  1  0  0  0
 13 31  1  0  0  0
 14 15  2  0  0  0
 14 95  1  0  0  0
 15 96  1  0  0  0
 16 17  2  0  0  0
 16 21  1  0  0  0
 16 31  1  0  0  0
 17 18  1  0  0  0
 17 97  1  0  0  0
 18 19  2  0  0  0
 18 98  1  0  0  0
 19 20  1  0  0  0
 19 24  1  0  0  0
 20 21  2  0  0  0
 20 99  1  0  0  0
 21 23  1  0  0  0
 22 28  1  0  0  0
 22 32  2  0  0  0
 26 27  1  0  0  0
 28100  1  0  0  0
 28101  1  0  0  0
 29102  1  0  0  0
 29103  1  0  0  0
 33 34  1  0  0  0
 33 66  1  0  0  0
 33 70  2  0  0  0
 34 36  1  0  0  0
 34 59  1  0  0  0
 34104  1  0  0  0
 35 44  2  0  0  0
 35 45  1  0  0  0
 35 68  1  0  0  0
 36 56  1  0  0  0
 36105  1  0  0  0
 37 39  1  0  0  0
 37 47  1  0  0  0
 37 66  1  0  0  0
 37106  1  0  0  0
 38 43  2  0  0  0
 38 46  1  0  0  0
 38 47  1  0  0  0
 39 64  1  0  0  0
 39 67  2  0  0  0
 40 52  1  0  0  0
 40 53  2  0  0  0
 40 58  1  0  0  0
 41107  1  0  0  0
 41108  1  0  0  0
 41109  1  0  0  0
 41 48  1  0  0  0
 42 43  1  0  0  0
 42 66  1  0  0  0
 42110  1  0  0  0
 42111  1  0  0  0
 43 44  1  0  0  0
 44112  1  0  0  0
 45 46  2  0  0  0
 45113  1  0  0  0
 46114  1  0  0  0
 47115  1  0  0  0
 47116  1  0  0  0
 48 56  1  0  0  0
 48 65  1  0  0  0
 48117  1  0  0  0
 49 50  1  0  0  0
 49 53  1  0  0  0
 49 64  1  0  0  0
 49118  1  0  0  0
 50 51  1  0  0  0
 50119  1  0  0  0
 50120  1  0  0  0
 51 52  1  0  0  0
 51121  1  0  0  0
 51122  1  0  0  0
 52123  1  0  0  0
 52124  1  0  0  0
 53 54  1  0  0  0
 54 55  2  0  0  0
 54125  1  0  0  0
 55 57  1  0  0  0
 55126  1  0  0  0
 56 69  2  0  0  0
 57 58  2  0  0  0
 57127  1  0  0  0
 58128  1  0  0  0
 59 60  1  0  0  0
 59 61  1  0  0  0
 59 62  1  0  0  0
 60129  1  0  0  0
 60130  1  0  0  0
 60131  1  0  0  0
 61132  1  0  0  0
 61133  1  0  0  0
 61134  1  0  0  0
 62135  1  0  0  0
 62136  1  0  0  0
 62137  1  0  0  0
 63 65  1  0  0  0
 63138  1  0  0  0
 63139  1  0  0  0
 63140  1  0  0  0
 64141  1  0  0  0
 65142  1  0  0  0
 68 78  1  0  0  0
 71 76  1  0  0  0
 71 79  1  0  0  0
 71 80  2  0  0  0
 72 79  2  0  0  0
 72 81  1  0  0  0
 72 83  1  0  0  0
 73143  1  0  0  0
 73144  1  0  0  0
 73145  1  0  0  0
 73 76  1  0  0  0
 74146  1  0  0  0
 74147  1  0  0  0
 74148  1  0  0  0
 74 77  1  0  0  0
 75149  1  0  0  0
 75150  1  0  0  0
 75151  1  0  0  0
 75 78  1  0  0  0
 76 82  1  0  0  0
 76152  1  0  0  0
 77 78  1  0  0  0
 77 82  1  0  0  0
 77153  1  0  0  0
 78154  1  0  0  0
 80 83  1  0  0  0
 81155  1  0  0  0
 82156  1  0  0  0
 82157  1  0  0  0
M  CHG  1  82   1
M  ISO  4   1 100  68 101  78 101  81 100
M  END
> <chiral flag>
0

> <version>
0

> <s_m_source_file>
/data/baiqing/PycharmProjects/Reinvent-master-3.2/result/LINK_invent/BTK/process_docking_weight1_custom_product_contain_oxygen_bond_distance_aromatic_linkinvent_7_9_3/rearranged_h_0189.sdf

> <i_m_source_file_index>
87

> <r_mmod_Potential_Energy-OPLS-2005>
-17.6687068939209

> <r_mmod_Stretch_Energy-OPLS-2005>
146.200668334961

> <r_mmod_Bend_Energy-OPLS-2005>
208.118865966797

> <r_mmod_Torsional_Energy-OPLS-2005>
256.714172363281

> <r_mmod_Improper_Torsional_Energy-OPLS-2005>
6.19175672531128

> <r_mmod_Van_der_Waal_Energy-OPLS-2005>
116.378257751465

> <r_mmod_Electrostatic_Energy-OPLS-2005>
-384.998107910156

> <r_mmod_Solvation_Energy-OPLS-2005>
-455.090026855469

> <b_mmod_Minimization_Converged-OPLS-2005>
0

> <r_mmod_RMS_Derivative-OPLS-2005>
6.74299383163452

$$$$
87
                    3D
 Structure written by MMmdl.
159167  0  0  1  0            999 V2000
  -30.7358  -14.4406   20.5546 C   0  0  0  0  0  0
  -30.4036  -12.2787   19.4439 C   0  0  0  0  0  0
  -29.4969  -12.5023   18.2173 C   0  0  0  0  0  0
  -28.0149  -12.3727   18.6176 C   0  0  0  0  0  0
  -27.6592  -13.2141   19.8740 C   0  0  2  0  0  0
  -28.6940  -13.0105   21.0034 C   0  0  0  0  0  0
  -25.2562  -13.8184   20.5687 C   0  0  0  0  0  0
  -24.1823  -13.0442   20.9161 C   0  0  0  0  0  0
  -24.6383  -11.6911   20.8711 C   0  0  0  0  0  0
  -23.9049  -10.4293   21.0391 C   0  0  0  0  0  0
  -24.3607   -9.4211   21.9174 C   0  0  0  0  0  0
  -23.6288   -8.2243   22.0747 C   0  0  0  0  0  0
  -22.4270   -8.0280   21.3531 C   0  0  0  0  0  0
  -21.9898   -9.0253   20.4637 C   0  0  0  0  0  0
  -22.7220  -10.2134   20.3043 C   0  0  0  0  0  0
  -21.6852   -6.0734   22.5275 C   0  0  0  0  0  0
  -21.4021   -6.5635   23.8210 C   0  0  0  0  0  0
  -21.3661   -5.6787   24.9175 C   0  0  0  0  0  0
  -21.6049   -4.3053   24.7230 C   0  0  0  0  0  0
  -21.8814   -3.8142   23.4347 C   0  0  0  0  0  0
  -21.9191   -4.6958   22.3404 C   0  0  0  0  0  0
  -22.7848  -13.5232   21.1834 C   0  0  0  0  0  0
  -22.1655   -4.2141   21.0982 F   0  0  0  0  0  0
  -21.5629   -3.4538   25.7744 F   0  0  0  0  0  0
  -30.0320  -13.2797   20.4572 N   0  0  0  0  0  0
  -26.3005  -12.9363   20.3343 N   0  0  0  0  0  0
  -25.9313  -11.6512   20.5740 N   0  0  0  0  0  0
  -22.0490  -12.8236   22.0400 N   0  0  0  0  0  0
  -25.4283  -15.1908   20.4144 N   0  0  0  0  0  0
  -31.8653  -14.5580   20.0711 O   0  0  0  0  0  0
  -21.6629   -6.8876   21.4239 O   0  0  0  0  0  0
  -22.3545  -14.5542   20.6687 O   0  0  0  0  0  0
  -24.6152  -31.8686   23.2108 C   0  0  0  0  0  0
  -25.9039  -32.4820   23.8402 C   0  0  1  0  0  0
  -27.2241  -27.4459   20.0829 C   0  0  0  0  0  0
  -25.5895  -33.8616   24.2343 N   0  0  0  0  0  0
  -23.4014  -30.4964   21.5499 C   0  0  2  0  0  0
  -24.8424  -28.9648   20.1136 C   0  0  0  0  0  0
  -22.7415  -29.4680   22.4968 C   0  0  0  0  0  0
  -18.0285  -28.1366   22.8481 C   0  0  0  0  0  0
  -24.1485  -36.7319   23.2640 C   0  0  0  0  0  0
  -25.9309  -30.8392   21.3607 C   0  0  0  0  0  0
  -26.0053  -29.4767   20.7025 C   0  0  0  0  0  0
  -27.2021  -28.7257   20.6805 C   0  0  0  0  0  0
  -26.0430  -26.9486   19.4874 C   0  0  0  0  0  0
  -24.8549  -27.6988   19.5054 C   0  0  0  0  0  0
  -23.6086  -29.8342   20.1626 C   0  0  0  0  0  0
  -25.4100  -36.3110   24.0346 C   0  0  1  0  0  0
  -20.5874  -28.3662   23.1308 C   0  0  2  0  0  0
  -20.6775  -26.9399   22.5406 C   0  0  0  0  0  0
  -19.5759  -26.6383   21.5195 C   0  0  0  0  0  0
  -18.1939  -26.7916   22.1609 C   0  0  0  0  0  0
  -19.1530  -28.8832   23.2897 C   0  0  0  0  0  0
  -18.9452  -30.1440   23.8909 C   0  0  0  0  0  0
  -17.6451  -30.6570   24.0573 C   0  0  0  0  0  0
  -25.9020  -34.9471   23.5138 C   0  0  0  0  0  0
  -16.5344  -29.9072   23.6321 C   0  0  0  0  0  0
  -16.7273  -28.6492   23.0332 C   0  0  0  0  0  0
  -26.4475  -31.6585   25.0717 C   0  0  0  0  0  0
  -25.3746  -31.3679   26.1468 C   0  0  0  0  0  0
  -27.0301  -30.3029   24.6069 C   0  0  0  0  0  0
  -27.6066  -32.4295   25.7473 C   0  0  0  0  0  0
  -27.5577  -37.1816   24.8464 C   0  0  0  0  0  0
  -21.4145  -29.3033   22.3703 N   0  0  0  0  0  0
  -26.4290  -37.3787   23.9408 N   0  0  0  0  0  0
  -24.6673  -31.0816   22.0990 N   0  0  0  0  0  0
  -23.4196  -28.8209   23.2997 O   0  0  0  0  0  0
  -28.3851  -26.7050   20.0989 O   0  0  0  0  0  0
  -26.5584  -34.8919   22.4703 O   0  0  0  0  0  0
  -23.5351  -32.1434   23.7519 O   0  0  0  0  0  0
  -29.3050  -18.5169   22.0121 C   0  0  0  0  0  0
  -29.6990  -18.0942   20.7685 C   0  0  0  0  0  0
  -29.5215  -20.3076   20.3338 C   0  0  0  0  0  0
  -30.1316  -16.7434   20.3998 C   0  0  0  0  0  0
  -30.0562  -15.6001   21.1164 C   0  0  0  0  0  0
  -30.8512  -25.0358   18.8200 C   0  0  0  0  0  0
  -31.7275  -22.6245   20.2100 C   0  0  0  0  0  0
  -28.4154  -24.4157   19.1326 C   0  0  0  0  0  0
  -28.2309  -25.3061   20.3832 C   0  0  0  0  0  0
  -29.8473  -23.8697   18.9249 C   0  0  2  0  0  0
  -30.2150  -22.7809   19.9813 C   0  0  1  0  0  0
  -29.7601  -19.1078   19.8077 N   0  0  0  0  0  0
  -29.6598  -21.4844   19.6144 N   0  0  0  0  0  0
  -29.1132  -20.2561   22.0479 S   0  0  0  0  0  0
  -31.4540  -12.3322   19.1527 H   0  0  0  0  0  0
  -30.2645  -11.2745   19.8475 H   0  0  0  0  0  0
  -29.7369  -11.7837   17.4329 H   0  0  0  0  0  0
  -29.6847  -13.4917   17.7981 H   0  0  0  0  0  0
  -27.8196  -11.3177   18.8127 H   0  0  0  0  0  0
  -27.3710  -12.6499   17.7821 H   0  0  0  0  0  0
  -27.6994  -14.2621   19.5743 H   0  0  0  0  0  0
  -28.6567  -11.9856   21.3757 H   0  0  0  0  0  0
  -28.4562  -13.6394   21.8611 H   0  0  0  0  0  0
  -25.2753   -9.5698   22.4751 H   0  0  0  0  0  0
  -23.9993   -7.4643   22.7475 H   0  0  0  0  0  0
  -21.0821   -8.8777   19.8958 H   0  0  0  0  0  0
  -22.3669  -10.9676   19.6160 H   0  0  0  0  0  0
  -21.2015   -7.6143   23.9716 H   0  0  0  0  0  0
  -21.1487   -6.0516   25.9076 H   0  0  0  0  0  0
  -22.0589   -2.7601   23.2849 H   0  0  0  0  0  0
  -22.4088  -11.9905   22.4817 H   0  0  0  0  0  0
  -21.1107  -13.1284   22.2590 H   0  0  0  0  0  0
  -24.6647  -15.8482   20.5317 H   0  0  0  0  0  0
  -26.2940  -15.6338   20.1330 H   0  0  0  0  0  0
  -26.7119  -32.5533   23.1174 H   0  0  0  0  0  0
  -25.0026  -33.9778   25.0476 H   0  0  0  0  0  0
  -22.6888  -31.3120   21.4128 H   0  0  0  0  0  0
  -23.3727  -35.9673   23.3327 H   0  0  0  0  0  0
  -24.3568  -36.8900   22.2043 H   0  0  0  0  0  0
  -23.7262  -37.6547   23.6634 H   0  0  0  0  0  0
  -26.0422  -31.6085   20.5953 H   0  0  0  0  0  0
  -26.8211  -30.8885   21.9774 H   0  0  0  0  0  0
  -28.1007  -29.1162   21.1362 H   0  0  0  0  0  0
  -26.0300  -25.9808   19.0082 H   0  0  0  0  0  0
  -23.9582  -27.2969   19.0528 H   0  0  0  0  0  0
  -23.7268  -30.6119   19.4069 H   0  0  0  0  0  0
  -22.7308  -29.2602   19.8616 H   0  0  0  0  0  0
  -25.1279  -36.1983   25.0841 H   0  0  0  0  0  0
  -20.9985  -28.3221   24.1416 H   0  0  0  0  0  0
  -20.5651  -26.2267   23.3584 H   0  0  0  0  0  0
  -21.6649  -26.7419   22.1213 H   0  0  0  0  0  0
  -19.6915  -25.6297   21.1210 H   0  0  0  0  0  0
  -19.6701  -27.3202   20.6729 H   0  0  0  0  0  0
  -17.4210  -26.6668   21.4009 H   0  0  0  0  0  0
  -18.0347  -26.0045   22.8996 H   0  0  0  0  0  0
  -19.7923  -30.7268   24.2265 H   0  0  0  0  0  0
  -17.4998  -31.6241   24.5179 H   0  0  0  0  0  0
  -15.5346  -30.2983   23.7619 H   0  0  0  0  0  0
  -15.8678  -28.0827   22.7019 H   0  0  0  0  0  0
  -24.5958  -30.6970   25.7822 H   0  0  0  0  0  0
  -24.8886  -32.2819   26.4894 H   0  0  0  0  0  0
  -25.8122  -30.8891   27.0234 H   0  0  0  0  0  0
  -26.2825  -29.6782   24.1157 H   0  0  0  0  0  0
  -27.4115  -29.7274   25.4515 H   0  0  0  0  0  0
  -27.8650  -30.4349   23.9176 H   0  0  0  0  0  0
  -27.2702  -33.3605   26.2055 H   0  0  0  0  0  0
  -28.3880  -32.6826   25.0287 H   0  0  0  0  0  0
  -28.0724  -31.8392   26.5381 H   0  0  0  0  0  0
  -28.2615  -38.0093   24.7488 H   0  0  0  0  0  0
  -28.1059  -36.2625   24.6328 H   0  0  0  0  0  0
  -27.2292  -37.1513   25.8868 H   0  0  0  0  0  0
  -20.9292  -29.8754   21.6939 H   0  0  0  0  0  0
  -26.0186  -38.2871   24.1405 H   0  0  0  0  0  0
  -29.1865  -17.9370   22.9158 H   0  0  0  0  0  0
  -30.6126  -16.7008   19.4310 H   0  0  0  0  0  0
  -29.5651  -15.5627   22.0761 H   0  0  0  0  0  0
  -30.5036  -25.7828   18.1049 H   0  0  0  0  0  0
  -31.8256  -24.6933   18.4691 H   0  0  0  0  0  0
  -30.9963  -25.5366   19.7777 H   0  0  0  0  0  0
  -32.1704  -23.5400   20.6031 H   0  0  0  0  0  0
  -32.2490  -22.3681   19.2874 H   0  0  0  0  0  0
  -31.9395  -21.8434   20.9405 H   0  0  0  0  0  0
  -28.0942  -24.9625   18.2450 H   0  0  0  0  0  0
  -27.7370  -23.5651   19.2064 H   0  0  0  0  0  0
  -28.9570  -25.0486   21.1529 H   0  0  0  0  0  0
  -27.2667  -25.0919   20.8478 H   0  0  0  0  0  0
  -29.8662  -23.3908   17.9433 H   0  0  0  0  0  0
  -29.7777  -23.0491   20.9427 H   0  0  0  0  0  0
  -29.7269  -21.3042   18.6182 H   0  0  0  0  0  0
  1 25  1  0  0  0
  1 30  2  0  0  0
  1 75  1  0  0  0
  2  3  1  0  0  0
  2 25  1  0  0  0
  2 85  1  0  0  0
  2 86  1  0  0  0
  3  4  1  0  0  0
  3 87  1  0  0  0
  3 88  1  0  0  0
  4  5  1  0  0  0
  4 89  1  0  0  0
  4 90  1  0  0  0
  5  6  1  0  0  0
  5 26  1  0  0  0
  5 91  1  0  0  0
  6 25  1  0  0  0
  6 92  1  0  0  0
  6 93  1  0  0  0
  7  8  2  0  0  0
  7 26  1  0  0  0
  7 29  1  0  0  0
  8  9  1  0  0  0
  8 22  1  0  0  0
  9 10  1  0  0  0
  9 27  2  0  0  0
 10 11  2  0  0  0
 10 15  1  0  0  0
 11 12  1  0  0  0
 11 94  1  0  0  0
 12 13  2  0  0  0
 12 95  1  0  0  0
 13 14  1  0  0  0
 13 31  1  0  0  0
 14 15  2  0  0  0
 14 96  1  0  0  0
 15 97  1  0  0  0
 16 17  2  0  0  0
 16 21  1  0  0  0
 16 31  1  0  0  0
 17 18  1  0  0  0
 17 98  1  0  0  0
 18 19  2  0  0  0
 18 99  1  0  0  0
 19 20  1  0  0  0
 19 24  1  0  0  0
 20 21  2  0  0  0
 20100  1  0  0  0
 21 23  1  0  0  0
 22 28  1  0  0  0
 22 32  2  0  0  0
 26 27  1  0  0  0
 28101  1  0  0  0
 28102  1  0  0  0
 29103  1  0  0  0
 29104  1  0  0  0
 33 34  1  0  0  0
 33 66  1  0  0  0
 33 70  2  0  0  0
 34 36  1  0  0  0
 34 59  1  0  0  0
 34105  1  0  0  0
 35 44  2  0  0  0
 35 45  1  0  0  0
 35 68  1  0  0  0
 36 56  1  0  0  0
 36106  1  0  0  0
 37 39  1  0  0  0
 37 47  1  0  0  0
 37 66  1  0  0  0
 37107  1  0  0  0
 38 43  2  0  0  0
 38 46  1  0  0  0
 38 47  1  0  0  0
 39 64  1  0  0  0
 39 67  2  0  0  0
 40 52  1  0  0  0
 40 53  2  0  0  0
 40 58  1  0  0  0
 41108  1  0  0  0
 41109  1  0  0  0
 41110  1  0  0  0
 41 48  1  0  0  0
 42 43  1  0  0  0
 42 66  1  0  0  0
 42111  1  0  0  0
 42112  1  0  0  0
 43 44  1  0  0  0
 44113  1  0  0  0
 45 46  2  0  0  0
 45114  1  0  0  0
 46115  1  0  0  0
 47116  1  0  0  0
 47117  1  0  0  0
 48 56  1  0  0  0
 48 65  1  0  0  0
 48118  1  0  0  0
 49 50  1  0  0  0
 49 53  1  0  0  0
 49 64  1  0  0  0
 49119  1  0  0  0
 50 51  1  0  0  0
 50120  1  0  0  0
 50121  1  0  0  0
 51 52  1  0  0  0
 51122  1  0  0  0
 51123  1  0  0  0
 52124  1  0  0  0
 52125  1  0  0  0
 53 54  1  0  0  0
 54 55  2  0  0  0
 54126  1  0  0  0
 55 57  1  0  0  0
 55127  1  0  0  0
 56 69  2  0  0  0
 57 58  2  0  0  0
 57128  1  0  0  0
 58129  1  0  0  0
 59 60  1  0  0  0
 59 61  1  0  0  0
 59 62  1  0  0  0
 60130  1  0  0  0
 60131  1  0  0  0
 60132  1  0  0  0
 61133  1  0  0  0
 61134  1  0  0  0
 61135  1  0  0  0
 62136  1  0  0  0
 62137  1  0  0  0
 62138  1  0  0  0
 63 65  1  0  0  0
 63139  1  0  0  0
 63140  1  0  0  0
 63141  1  0  0  0
 64142  1  0  0  0
 65143  1  0  0  0
 68 79  1  0  0  0
 71 72  2  0  0  0
 71 84  1  0  0  0
 71144  1  0  0  0
 72 74  1  0  0  0
 72 82  1  0  0  0
 73 82  2  0  0  0
 73 83  1  0  0  0
 73 84  1  0  0  0
 74 75  2  0  0  0
 74145  1  0  0  0
 75146  1  0  0  0
 76147  1  0  0  0
 76148  1  0  0  0
 76149  1  0  0  0
 76 80  1  0  0  0
 77150  1  0  0  0
 77151  1  0  0  0
 77152  1  0  0  0
 77 81  1  0  0  0
 78 79  1  0  0  0
 78 80  1  0  0  0
 78153  1  0  0  0
 78154  1  0  0  0
 79155  1  0  0  0
 79156  1  0  0  0
 80 81  1  0  0  0
 80157  1  0  0  0
 81 83  1  0  0  0
 81158  1  0  0  0
 83159  1  0  0  0
M  ISO  4   1 100  68 101  75 100  79 101
M  END
> <chiral flag>
0

> <version>
0

> <s_m_source_file>
/data/baiqing/PycharmProjects/Reinvent-master-3.2/result/LINK_invent/BTK/process_docking_weight1_custom_product_contain_oxygen_bond_distance_aromatic_linkinvent_7_9_3/rearranged_h_0189.sdf

> <i_m_source_file_index>
88

> <r_mmod_Potential_Energy-OPLS-2005>
-159.081253051758

> <r_mmod_Stretch_Energy-OPLS-2005>
33.138500213623

> <r_mmod_Bend_Energy-OPLS-2005>
103.712371826172

> <r_mmod_Torsional_Energy-OPLS-2005>
227.787246704102

> <r_mmod_Improper_Torsional_Energy-OPLS-2005>
5.86626434326172

> <r_mmod_Van_der_Waal_Energy-OPLS-2005>
136.587158203125

> <r_mmod_Electrostatic_Energy-OPLS-2005>
-479.962677001953

> <r_mmod_Solvation_Energy-OPLS-2005>
-199.669906616211

> <b_mmod_Minimization_Converged-OPLS-2005>
0

> <r_mmod_RMS_Derivative-OPLS-2005>
2.0186915397644

$$$$
88
                    3D
 Structure written by MMmdl.
158166  0  0  1  0            999 V2000
  -30.7038  -14.4517   20.6005 C   0  0  0  0  0  0
  -30.4273  -12.3036   19.4174 C   0  0  0  0  0  0
  -29.4952  -12.5163   18.2063 C   0  0  0  0  0  0
  -28.0165  -12.3737   18.6178 C   0  0  0  0  0  0
  -27.6669  -13.2031   19.8820 C   0  0  2  0  0  0
  -28.7066  -12.9601   20.9998 C   0  0  0  0  0  0
  -25.2608  -13.8155   20.5676 C   0  0  0  0  0  0
  -24.1847  -13.0437   20.9160 C   0  0  0  0  0  0
  -24.6395  -11.6903   20.8729 C   0  0  0  0  0  0
  -23.9055  -10.4292   21.0404 C   0  0  0  0  0  0
  -24.3611   -9.4207   21.9180 C   0  0  0  0  0  0
  -23.6289   -8.2244   22.0753 C   0  0  0  0  0  0
  -22.4272   -8.0280   21.3543 C   0  0  0  0  0  0
  -21.9904   -9.0250   20.4643 C   0  0  0  0  0  0
  -22.7230  -10.2131   20.3051 C   0  0  0  0  0  0
  -21.6851   -6.0735   22.5280 C   0  0  0  0  0  0
  -21.4013   -6.5642   23.8212 C   0  0  0  0  0  0
  -21.3658   -5.6796   24.9175 C   0  0  0  0  0  0
  -21.6045   -4.3058   24.7226 C   0  0  0  0  0  0
  -21.8821   -3.8147   23.4348 C   0  0  0  0  0  0
  -21.9192   -4.6963   22.3403 C   0  0  0  0  0  0
  -22.7870  -13.5237   21.1832 C   0  0  0  0  0  0
  -22.1660   -4.2150   21.0981 F   0  0  0  0  0  0
  -21.5629   -3.4541   25.7738 F   0  0  0  0  0  0
  -30.0446  -13.2689   20.4606 N   0  0  0  0  0  0
  -26.3048  -12.9317   20.3389 N   0  0  0  0  0  0
  -25.9322  -11.6478   20.5768 N   0  0  0  0  0  0
  -22.0512  -12.8227   22.0391 N   0  0  0  0  0  0
  -25.4355  -15.1870   20.4095 N   0  0  0  0  0  0
  -31.7909  -14.6829   20.0622 O   0  0  0  0  0  0
  -21.6637   -6.8876   21.4242 O   0  0  0  0  0  0
  -22.3552  -14.5547   20.6688 O   0  0  0  0  0  0
  -24.6156  -31.8685   23.2121 C   0  0  0  0  0  0
  -25.9047  -32.4825   23.8412 C   0  0  1  0  0  0
  -27.2307  -27.4209   20.0837 C   0  0  0  0  0  0
  -25.5903  -33.8626   24.2334 N   0  0  0  0  0  0
  -23.4029  -30.4947   21.5536 C   0  0  2  0  0  0
  -24.8465  -28.9653   20.1134 C   0  0  0  0  0  0
  -22.7414  -29.4661   22.4993 C   0  0  0  0  0  0
  -18.0272  -28.1372   22.8498 C   0  0  0  0  0  0
  -24.1486  -36.7320   23.2637 C   0  0  0  0  0  0
  -25.9354  -30.8264   21.3717 C   0  0  0  0  0  0
  -26.0084  -29.4616   20.7155 C   0  0  0  0  0  0
  -27.1981  -28.6943   20.7041 C   0  0  0  0  0  0
  -26.0447  -26.9557   19.4617 C   0  0  0  0  0  0
  -24.8606  -27.7114   19.4860 C   0  0  0  0  0  0
  -23.6105  -29.8335   20.1664 C   0  0  0  0  0  0
  -25.4107  -36.3113   24.0335 C   0  0  1  0  0  0
  -20.5864  -28.3662   23.1321 C   0  0  2  0  0  0
  -20.6760  -26.9400   22.5418 C   0  0  0  0  0  0
  -19.5738  -26.6382   21.5216 C   0  0  0  0  0  0
  -18.1916  -26.7920   22.1626 C   0  0  0  0  0  0
  -19.1521  -28.8833   23.2905 C   0  0  0  0  0  0
  -18.9448  -30.1441   23.8910 C   0  0  0  0  0  0
  -17.6449  -30.6580   24.0565 C   0  0  0  0  0  0
  -25.9038  -34.9478   23.5131 C   0  0  0  0  0  0
  -16.5341  -29.9081   23.6328 C   0  0  0  0  0  0
  -16.7260  -28.6497   23.0351 C   0  0  0  0  0  0
  -26.4470  -31.6606   25.0746 C   0  0  0  0  0  0
  -25.3734  -31.3713   26.1493 C   0  0  0  0  0  0
  -27.0303  -30.3046   24.6138 C   0  0  0  0  0  0
  -27.6044  -32.4332   25.7504 C   0  0  0  0  0  0
  -27.5582  -37.1813   24.8461 C   0  0  0  0  0  0
  -21.4141  -29.3031   22.3731 N   0  0  0  0  0  0
  -26.4293  -37.3799   23.9407 N   0  0  0  0  0  0
  -24.6695  -31.0777   22.1034 N   0  0  0  0  0  0
  -23.4186  -28.8195   23.3029 O   0  0  0  0  0  0
  -28.4075  -26.6852   20.1227 O   0  0  0  0  0  0
  -26.5599  -34.8927   22.4692 O   0  0  0  0  0  0
  -23.5346  -32.1446   23.7507 O   0  0  0  0  0  0
  -29.5036  -17.7425   22.0642 C   0  0  0  0  0  0
  -30.8520  -17.5578   20.3010 C   0  0  0  0  0  0
  -30.1710  -16.8058   21.2227 C   0  0  0  0  0  0
  -31.0892  -19.9213   19.8121 C   0  0  0  0  0  0
  -30.8655  -21.2617   19.8959 C   0  0  0  0  0  0
  -29.4281  -24.4390   20.3326 C   0  0  0  0  0  0
  -31.5989  -22.1733   18.9212 C   0  0  0  0  0  0
  -28.8158  -25.4479   18.0853 C   0  0  0  0  0  0
  -29.9517  -22.0150   20.8765 C   0  0  0  0  0  0
  -28.4358  -25.3493   19.5719 C   0  0  2  0  0  0
  -29.7470  -18.9989   21.6950 N   0  0  0  0  0  0
  -30.5514  -18.8753   20.6129 N   0  0  0  0  0  0
  -30.0604  -15.3834   21.3272 N   0  0  0  0  0  0
  -29.2000  -23.1139   20.2487 N   0  0  0  0  0  0
  -30.3635  -24.9166   20.9794 O   0  0  0  0  0  0
  -31.4707  -12.4092   19.1140 H   0  0  0  0  0  0
  -30.3324  -11.2857   19.7985 H   0  0  0  0  0  0
  -29.7326  -11.8022   17.4164 H   0  0  0  0  0  0
  -29.6636  -13.5073   17.7828 H   0  0  0  0  0  0
  -27.8242  -11.3164   18.8041 H   0  0  0  0  0  0
  -27.3662  -12.6583   17.7902 H   0  0  0  0  0  0
  -27.7193  -14.2548   19.5998 H   0  0  0  0  0  0
  -28.6784  -11.9170   21.3189 H   0  0  0  0  0  0
  -28.4584  -13.5361   21.8916 H   0  0  0  0  0  0
  -25.2760   -9.5684   22.4747 H   0  0  0  0  0  0
  -24.0001   -7.4636   22.7473 H   0  0  0  0  0  0
  -21.0838   -8.8763   19.8947 H   0  0  0  0  0  0
  -22.3688  -10.9667   19.6156 H   0  0  0  0  0  0
  -21.2007   -7.6151   23.9715 H   0  0  0  0  0  0
  -21.1479   -6.0527   25.9078 H   0  0  0  0  0  0
  -22.0601   -2.7609   23.2849 H   0  0  0  0  0  0
  -22.4129  -11.9883   22.4773 H   0  0  0  0  0  0
  -21.1129  -13.1247   22.2601 H   0  0  0  0  0  0
  -24.6747  -15.8487   20.5189 H   0  0  0  0  0  0
  -26.2971  -15.6219   20.1027 H   0  0  0  0  0  0
  -26.7116  -32.5527   23.1172 H   0  0  0  0  0  0
  -25.0052  -33.9797   25.0477 H   0  0  0  0  0  0
  -22.6916  -31.3120   21.4180 H   0  0  0  0  0  0
  -23.3748  -35.9654   23.3302 H   0  0  0  0  0  0
  -24.3578  -36.8937   22.2053 H   0  0  0  0  0  0
  -23.7243  -37.6525   23.6654 H   0  0  0  0  0  0
  -26.0557  -31.5940   20.6060 H   0  0  0  0  0  0
  -26.8207  -30.8739   21.9940 H   0  0  0  0  0  0
  -28.0923  -29.0734   21.1793 H   0  0  0  0  0  0
  -25.9912  -26.0159   18.9361 H   0  0  0  0  0  0
  -23.9697  -27.3276   19.0076 H   0  0  0  0  0  0
  -23.7197  -30.6113   19.4099 H   0  0  0  0  0  0
  -22.7333  -29.2561   19.8690 H   0  0  0  0  0  0
  -25.1284  -36.1978   25.0828 H   0  0  0  0  0  0
  -20.9955  -28.3220   24.1442 H   0  0  0  0  0  0
  -20.5671  -26.2267   23.3603 H   0  0  0  0  0  0
  -21.6630  -26.7441   22.1210 H   0  0  0  0  0  0
  -19.6901  -25.6298   21.1232 H   0  0  0  0  0  0
  -19.6674  -27.3204   20.6756 H   0  0  0  0  0  0
  -17.4191  -26.6681   21.4020 H   0  0  0  0  0  0
  -18.0306  -26.0050   22.9009 H   0  0  0  0  0  0
  -19.7923  -30.7257   24.2282 H   0  0  0  0  0  0
  -17.5003  -31.6263   24.5162 H   0  0  0  0  0  0
  -15.5343  -30.2986   23.7641 H   0  0  0  0  0  0
  -15.8660  -28.0820   22.7059 H   0  0  0  0  0  0
  -24.5904  -30.7063   25.7831 H   0  0  0  0  0  0
  -24.8929  -32.2869   26.4953 H   0  0  0  0  0  0
  -25.8089  -30.8874   27.0245 H   0  0  0  0  0  0
  -26.2856  -29.6811   24.1175 H   0  0  0  0  0  0
  -27.4046  -29.7279   25.4606 H   0  0  0  0  0  0
  -27.8705  -30.4359   23.9314 H   0  0  0  0  0  0
  -27.2661  -33.3624   26.2102 H   0  0  0  0  0  0
  -28.3838  -32.6908   25.0320 H   0  0  0  0  0  0
  -28.0729  -31.8447   26.5402 H   0  0  0  0  0  0
  -28.2598  -38.0113   24.7516 H   0  0  0  0  0  0
  -28.1080  -36.2645   24.6274 H   0  0  0  0  0  0
  -27.2303  -37.1452   25.8865 H   0  0  0  0  0  0
  -20.9295  -29.8772   21.6974 H   0  0  0  0  0  0
  -26.0182  -38.2878   24.1409 H   0  0  0  0  0  0
  -28.8556  -17.5567   22.9096 H   0  0  0  0  0  0
  -31.4806  -17.2772   19.4666 H   0  0  0  0  0  0
  -31.7575  -19.5313   19.0569 H   0  0  0  0  0  0
  -32.3332  -21.6288   18.3267 H   0  0  0  0  0  0
  -32.1291  -22.9572   19.4629 H   0  0  0  0  0  0
  -30.9021  -22.6444   18.2274 H   0  0  0  0  0  0
  -28.8733  -24.4622   17.6225 H   0  0  0  0  0  0
  -29.7857  -25.9305   17.9609 H   0  0  0  0  0  0
  -28.0830  -26.0294   17.5268 H   0  0  0  0  0  0
  -30.5663  -22.3949   21.6943 H   0  0  0  0  0  0
  -29.2135  -21.3585   21.3280 H   0  0  0  0  0  0
  -27.4791  -24.8441   19.6916 H   0  0  0  0  0  0
  -29.2791  -15.0381   21.8649 H   0  0  0  0  0  0
  -28.4014  -22.8370   19.6934 H   0  0  0  0  0  0
  1 25  1  0  0  0
  1 30  2  0  0  0
  1 83  1  0  0  0
  2  3  1  0  0  0
  2 25  1  0  0  0
  2 86  1  0  0  0
  2 87  1  0  0  0
  3  4  1  0  0  0
  3 88  1  0  0  0
  3 89  1  0  0  0
  4  5  1  0  0  0
  4 90  1  0  0  0
  4 91  1  0  0  0
  5  6  1  0  0  0
  5 26  1  0  0  0
  5 92  1  0  0  0
  6 25  1  0  0  0
  6 93  1  0  0  0
  6 94  1  0  0  0
  7  8  2  0  0  0
  7 26  1  0  0  0
  7 29  1  0  0  0
  8  9  1  0  0  0
  8 22  1  0  0  0
  9 10  1  0  0  0
  9 27  2  0  0  0
 10 11  2  0  0  0
 10 15  1  0  0  0
 11 12  1  0  0  0
 11 95  1  0  0  0
 12 13  2  0  0  0
 12 96  1  0  0  0
 13 14  1  0  0  0
 13 31  1  0  0  0
 14 15  2  0  0  0
 14 97  1  0  0  0
 15 98  1  0  0  0
 16 17  2  0  0  0
 16 21  1  0  0  0
 16 31  1  0  0  0
 17 18  1  0  0  0
 17 99  1  0  0  0
 18 19  2  0  0  0
 18100  1  0  0  0
 19 20  1  0  0  0
 19 24  1  0  0  0
 20 21  2  0  0  0
 20101  1  0  0  0
 21 23  1  0  0  0
 22 28  1  0  0  0
 22 32  2  0  0  0
 26 27  1  0  0  0
 28102  1  0  0  0
 28103  1  0  0  0
 29104  1  0  0  0
 29105  1  0  0  0
 33 34  1  0  0  0
 33 66  1  0  0  0
 33 70  2  0  0  0
 34 36  1  0  0  0
 34 59  1  0  0  0
 34106  1  0  0  0
 35 44  2  0  0  0
 35 45  1  0  0  0
 35 68  1  0  0  0
 36 56  1  0  0  0
 36107  1  0  0  0
 37 39  1  0  0  0
 37 47  1  0  0  0
 37 66  1  0  0  0
 37108  1  0  0  0
 38 43  2  0  0  0
 38 46  1  0  0  0
 38 47  1  0  0  0
 39 64  1  0  0  0
 39 67  2  0  0  0
 40 52  1  0  0  0
 40 53  2  0  0  0
 40 58  1  0  0  0
 41109  1  0  0  0
 41110  1  0  0  0
 41111  1  0  0  0
 41 48  1  0  0  0
 42 43  1  0  0  0
 42 66  1  0  0  0
 42112  1  0  0  0
 42113  1  0  0  0
 43 44  1  0  0  0
 44114  1  0  0  0
 45 46  2  0  0  0
 45115  1  0  0  0
 46116  1  0  0  0
 47117  1  0  0  0
 47118  1  0  0  0
 48 56  1  0  0  0
 48 65  1  0  0  0
 48119  1  0  0  0
 49 50  1  0  0  0
 49 53  1  0  0  0
 49 64  1  0  0  0
 49120  1  0  0  0
 50 51  1  0  0  0
 50121  1  0  0  0
 50122  1  0  0  0
 51 52  1  0  0  0
 51123  1  0  0  0
 51124  1  0  0  0
 52125  1  0  0  0
 52126  1  0  0  0
 53 54  1  0  0  0
 54 55  2  0  0  0
 54127  1  0  0  0
 55 57  1  0  0  0
 55128  1  0  0  0
 56 69  2  0  0  0
 57 58  2  0  0  0
 57129  1  0  0  0
 58130  1  0  0  0
 59 60  1  0  0  0
 59 61  1  0  0  0
 59 62  1  0  0  0
 60131  1  0  0  0
 60132  1  0  0  0
 60133  1  0  0  0
 61134  1  0  0  0
 61135  1  0  0  0
 61136  1  0  0  0
 62137  1  0  0  0
 62138  1  0  0  0
 62139  1  0  0  0
 63 65  1  0  0  0
 63140  1  0  0  0
 63141  1  0  0  0
 63142  1  0  0  0
 64143  1  0  0  0
 65144  1  0  0  0
 68 80  1  0  0  0
 71 73  1  0  0  0
 71 81  2  0  0  0
 71145  1  0  0  0
 72 73  2  0  0  0
 72 82  1  0  0  0
 72146  1  0  0  0
 73 83  1  0  0  0
 74 75  2  0  0  0
 74 82  1  0  0  0
 74147  1  0  0  0
 75 77  1  0  0  0
 75 79  1  0  0  0
 76 80  1  0  0  0
 76 84  1  0  0  0
 76 85  2  0  0  0
 77148  1  0  0  0
 77149  1  0  0  0
 77150  1  0  0  0
 78151  1  0  0  0
 78152  1  0  0  0
 78153  1  0  0  0
 78 80  1  0  0  0
 79 84  1  0  0  0
 79154  1  0  0  0
 79155  1  0  0  0
 80156  1  0  0  0
 81 82  1  0  0  0
 83157  1  0  0  0
 84158  1  0  0  0
M  ISO  4   1 100  68 101  80 101  83 100
M  END
> <chiral flag>
0

> <version>
0

> <s_m_source_file>
/data/baiqing/PycharmProjects/Reinvent-master-3.2/result/LINK_invent/BTK/process_docking_weight1_custom_product_contain_oxygen_bond_distance_aromatic_linkinvent_7_9_3/rearranged_h_0189.sdf

> <i_m_source_file_index>
89

> <r_mmod_Potential_Energy-OPLS-2005>
-118.836448669434

> <r_mmod_Stretch_Energy-OPLS-2005>
39.8347473144531

> <r_mmod_Bend_Energy-OPLS-2005>
146.188201904297

> <r_mmod_Torsional_Energy-OPLS-2005>
205.756332397461

> <r_mmod_Improper_Torsional_Energy-OPLS-2005>
2.77035188674927

> <r_mmod_Van_der_Waal_Energy-OPLS-2005>
145.30224609375

> <r_mmod_Electrostatic_Energy-OPLS-2005>
-414.333953857422

> <r_mmod_Solvation_Energy-OPLS-2005>
-256.604034423828

> <b_mmod_Minimization_Converged-OPLS-2005>
0

> <r_mmod_RMS_Derivative-OPLS-2005>
0.532960057258606

$$$$
89
                    3D
 Structure written by MMmdl.
160168  0  0  1  0            999 V2000
  -30.5711  -14.8238   20.4071 C   0  0  0  0  0  0
  -30.4541  -12.4907   19.5061 C   0  0  0  0  0  0
  -29.5445  -12.5208   18.2580 C   0  0  0  0  0  0
  -28.0653  -12.3226   18.6571 C   0  0  0  0  0  0
  -27.6472  -13.2347   19.8441 C   0  0  2  0  0  0
  -28.6877  -13.2018   20.9844 C   0  0  0  0  0  0
  -25.2593  -13.8212   20.5650 C   0  0  0  0  0  0
  -24.1861  -13.0475   20.9164 C   0  0  0  0  0  0
  -24.6427  -11.6946   20.8719 C   0  0  0  0  0  0
  -23.9108  -10.4312   21.0372 C   0  0  0  0  0  0
  -24.3637   -9.4260   21.9178 C   0  0  0  0  0  0
  -23.6307   -8.2306   22.0759 C   0  0  0  0  0  0
  -22.4314   -8.0302   21.3567 C   0  0  0  0  0  0
  -21.9969   -9.0267   20.4649 C   0  0  0  0  0  0
  -22.7279  -10.2137   20.3032 C   0  0  0  0  0  0
  -21.6863   -6.0755   22.5285 C   0  0  0  0  0  0
  -21.4009   -6.5652   23.8200 C   0  0  0  0  0  0
  -21.3648   -5.6797   24.9156 C   0  0  0  0  0  0
  -21.6036   -4.3069   24.7196 C   0  0  0  0  0  0
  -21.8844   -3.8164   23.4317 C   0  0  0  0  0  0
  -21.9204   -4.6985   22.3379 C   0  0  0  0  0  0
  -22.7900  -13.5287   21.1730 C   0  0  0  0  0  0
  -22.1665   -4.2173   21.0962 F   0  0  0  0  0  0
  -21.5626   -3.4520   25.7702 F   0  0  0  0  0  0
  -29.9886  -13.5663   20.4146 N   0  0  0  0  0  0
  -26.2983  -12.9397   20.3219 N   0  0  0  0  0  0
  -25.9359  -11.6540   20.5746 N   0  0  0  0  0  0
  -22.0389  -12.8351   22.0198 N   0  0  0  0  0  0
  -25.4445  -15.1928   20.4020 N   0  0  0  0  0  0
  -31.7622  -14.9095   20.0927 O   0  0  0  0  0  0
  -21.6663   -6.8906   21.4256 O   0  0  0  0  0  0
  -22.3687  -14.5563   20.6465 O   0  0  0  0  0  0
  -24.6342  -31.8462   23.1897 C   0  0  0  0  0  0
  -25.9141  -32.4672   23.8261 C   0  0  1  0  0  0
  -27.2197  -27.2128   20.1406 C   0  0  0  0  0  0
  -25.5942  -33.8467   24.2191 N   0  0  0  0  0  0
  -23.4334  -30.4601   21.5353 C   0  0  2  0  0  0
  -24.8831  -28.8970   20.1069 C   0  0  0  0  0  0
  -22.7494  -29.4542   22.4935 C   0  0  0  0  0  0
  -18.0305  -28.1302   22.8554 C   0  0  0  0  0  0
  -24.1503  -36.7234   23.2640 C   0  0  0  0  0  0
  -25.9798  -30.7404   21.3773 C   0  0  0  0  0  0
  -26.0506  -29.3598   20.7196 C   0  0  0  0  0  0
  -27.2208  -28.5298   20.7256 C   0  0  0  0  0  0
  -26.0341  -26.8240   19.4842 C   0  0  0  0  0  0
  -24.8842  -27.6446   19.4712 C   0  0  0  0  0  0
  -23.6476  -29.7771   20.1572 C   0  0  0  0  0  0
  -25.4137  -36.3038   24.0327 C   0  0  1  0  0  0
  -20.5916  -28.3639   23.1299 C   0  0  2  0  0  0
  -20.6797  -26.9359   22.5403 C   0  0  0  0  0  0
  -19.5764  -26.6358   21.5210 C   0  0  0  0  0  0
  -18.1960  -26.7875   22.1630 C   0  0  0  0  0  0
  -19.1558  -28.8789   23.2934 C   0  0  0  0  0  0
  -18.9452  -30.1403   23.8917 C   0  0  0  0  0  0
  -17.6449  -30.6544   24.0543 C   0  0  0  0  0  0
  -25.9084  -34.9394   23.5089 C   0  0  0  0  0  0
  -16.5347  -29.9017   23.6322 C   0  0  0  0  0  0
  -16.7286  -28.6401   23.0418 C   0  0  0  0  0  0
  -26.4500  -31.6488   25.0635 C   0  0  0  0  0  0
  -25.3667  -31.3587   26.1298 C   0  0  0  0  0  0
  -27.0387  -30.2951   24.6052 C   0  0  0  0  0  0
  -27.6019  -32.4244   25.7421 C   0  0  0  0  0  0
  -27.5598  -37.1789   24.8467 C   0  0  0  0  0  0
  -21.4201  -29.2990   22.3672 N   0  0  0  0  0  0
  -26.4320  -37.3746   23.9407 N   0  0  0  0  0  0
  -24.7007  -31.0369   22.0893 N   0  0  0  0  0  0
  -23.4183  -28.8103   23.3070 O   0  0  0  0  0  0
  -28.3212  -26.3217   20.2382 O   0  0  0  0  0  0
  -26.5669  -34.8886   22.4672 O   0  0  0  0  0  0
  -23.5480  -32.1314   23.7154 O   0  0  0  0  0  0
  -30.1826  -18.5810   17.8982 C   0  0  0  0  0  0
  -30.3654  -17.4371   18.7014 C   0  0  0  0  0  0
  -29.4176  -19.6561   18.3706 C   0  0  0  0  0  0
  -29.7625  -17.3312   19.9787 C   0  0  0  0  0  0
  -28.9498  -19.6493   19.7001 C   0  0  0  0  0  0
  -30.8484  -22.7451   22.1775 C   0  0  0  0  0  0
  -31.0170  -22.4410   19.6213 C   0  0  0  0  0  0
  -28.0796  -23.5843   20.7989 C   0  0  0  0  0  0
  -28.3586  -24.8595   19.8030 C   0  0  0  0  0  0
  -30.3219  -22.0271   20.9292 C   0  0  0  0  0  0
  -28.7805  -22.0654   20.8341 C   0  0  2  0  0  0
  -29.1026  -18.4835   20.4705 N   0  0  0  0  0  0
  -29.7723  -15.9634   20.6068 N   0  0  0  0  0  0
  -28.2341  -20.8654   20.0730 N   0  0  0  0  0  0
  -29.1348  -20.6970   17.5492 F   0  0  0  0  0  0
  -31.4960  -12.6174   19.2077 H   0  0  0  0  0  0
  -30.4131  -11.5190   20.0003 H   0  0  0  0  0  0
  -29.8554  -11.7514   17.5528 H   0  0  0  0  0  0
  -29.6702  -13.4746   17.7456 H   0  0  0  0  0  0
  -27.9378  -11.2786   18.9410 H   0  0  0  0  0  0
  -27.4135  -12.4797   17.7963 H   0  0  0  0  0  0
  -27.6344  -14.2520   19.4537 H   0  0  0  0  0  0
  -28.7301  -12.2120   21.4425 H   0  0  0  0  0  0
  -28.4115  -13.9008   21.7745 H   0  0  0  0  0  0
  -25.2697   -9.5760   22.4847 H   0  0  0  0  0  0
  -23.9947   -7.4735   22.7539 H   0  0  0  0  0  0
  -21.0871   -8.8797   19.8992 H   0  0  0  0  0  0
  -22.3686  -10.9689   19.6174 H   0  0  0  0  0  0
  -21.1990   -7.6162   23.9709 H   0  0  0  0  0  0
  -21.1446   -6.0510   25.9054 H   0  0  0  0  0  0
  -22.0633   -2.7624   23.2795 H   0  0  0  0  0  0
  -22.3781  -11.9961   22.4688 H   0  0  0  0  0  0
  -21.1014  -13.1505   22.2129 H   0  0  0  0  0  0
  -24.7045  -15.8765   20.5132 H   0  0  0  0  0  0
  -26.2976  -15.5980   20.0375 H   0  0  0  0  0  0
  -26.7150  -32.5299   23.0932 H   0  0  0  0  0  0
  -25.0115  -33.9576   25.0361 H   0  0  0  0  0  0
  -22.7337  -31.2860   21.3820 H   0  0  0  0  0  0
  -23.3815  -35.9517   23.3237 H   0  0  0  0  0  0
  -24.3646  -36.8910   22.2080 H   0  0  0  0  0  0
  -23.7149  -37.6374   23.6690 H   0  0  0  0  0  0
  -26.1274  -31.4961   20.6059 H   0  0  0  0  0  0
  -26.8531  -30.7858   22.0149 H   0  0  0  0  0  0
  -28.1115  -28.8819   21.2300 H   0  0  0  0  0  0
  -25.9560  -25.8628   18.9997 H   0  0  0  0  0  0
  -23.9936  -27.2904   18.9723 H   0  0  0  0  0  0
  -23.7358  -30.5366   19.3782 H   0  0  0  0  0  0
  -22.7741  -29.1813   19.8891 H   0  0  0  0  0  0
  -25.1314  -36.1925   25.0821 H   0  0  0  0  0  0
  -21.0031  -28.3178   24.1408 H   0  0  0  0  0  0
  -20.5752  -26.2198   23.3583 H   0  0  0  0  0  0
  -21.6655  -26.7428   22.1126 H   0  0  0  0  0  0
  -19.6936  -25.6290   21.1185 H   0  0  0  0  0  0
  -19.6696  -27.3207   20.6778 H   0  0  0  0  0  0
  -17.4253  -26.6712   21.4004 H   0  0  0  0  0  0
  -18.0328  -25.9937   22.8929 H   0  0  0  0  0  0
  -19.7918  -30.7240   24.2280 H   0  0  0  0  0  0
  -17.4973  -31.6241   24.5084 H   0  0  0  0  0  0
  -15.5331  -30.2903   23.7593 H   0  0  0  0  0  0
  -15.8702  -28.0659   22.7179 H   0  0  0  0  0  0
  -24.5865  -30.6950   25.7541 H   0  0  0  0  0  0
  -24.8816  -32.2720   26.4765 H   0  0  0  0  0  0
  -25.7928  -30.8681   27.0056 H   0  0  0  0  0  0
  -26.2964  -29.6648   24.1127 H   0  0  0  0  0  0
  -27.4243  -29.7234   25.4503 H   0  0  0  0  0  0
  -27.8757  -30.4330   23.9189 H   0  0  0  0  0  0
  -27.2621  -33.3579   26.1940 H   0  0  0  0  0  0
  -28.3856  -32.6745   25.0235 H   0  0  0  0  0  0
  -28.0636  -31.8377   26.5382 H   0  0  0  0  0  0
  -28.2563  -38.0145   24.7625 H   0  0  0  0  0  0
  -28.1166  -36.2686   24.6199 H   0  0  0  0  0  0
  -27.2330  -37.1271   25.8868 H   0  0  0  0  0  0
  -20.9392  -29.8640   21.6808 H   0  0  0  0  0  0
  -26.0209  -38.2837   24.1393 H   0  0  0  0  0  0
  -30.5899  -18.6367   16.8961 H   0  0  0  0  0  0
  -30.9229  -16.6185   18.2729 H   0  0  0  0  0  0
  -31.8901  -22.4785   22.3650 H   0  0  0  0  0  0
  -30.2923  -22.4331   23.0634 H   0  0  0  0  0  0
  -30.7667  -23.8286   22.1026 H   0  0  0  0  0  0
  -31.9201  -21.8529   19.4594 H   0  0  0  0  0  0
  -31.3059  -23.4903   19.6050 H   0  0  0  0  0  0
  -30.3673  -22.2801   18.7599 H   0  0  0  0  0  0
  -26.9982  -23.4554   20.8407 H   0  0  0  0  0  0
  -28.3028  -23.9973   21.7852 H   0  0  0  0  0  0
  -27.7640  -24.7250   18.9005 H   0  0  0  0  0  0
  -29.3796  -24.7392   19.4442 H   0  0  0  0  0  0
  -30.5915  -20.9898   21.1136 H   0  0  0  0  0  0
  -28.4687  -21.7410   21.8311 H   0  0  0  0  0  0
  -28.9238  -15.7567   21.1055 H   0  0  0  0  0  0
  -27.8703  -21.2303   19.1978 H   0  0  0  0  0  0
  1 25  1  0  0  0
  1 30  2  0  0  0
  1 83  1  0  0  0
  2  3  1  0  0  0
  2 25  1  0  0  0
  2 86  1  0  0  0
  2 87  1  0  0  0
  3  4  1  0  0  0
  3 88  1  0  0  0
  3 89  1  0  0  0
  4  5  1  0  0  0
  4 90  1  0  0  0
  4 91  1  0  0  0
  5  6  1  0  0  0
  5 26  1  0  0  0
  5 92  1  0  0  0
  6 25  1  0  0  0
  6 93  1  0  0  0
  6 94  1  0  0  0
  7  8  2  0  0  0
  7 26  1  0  0  0
  7 29  1  0  0  0
  8  9  1  0  0  0
  8 22  1  0  0  0
  9 10  1  0  0  0
  9 27  2  0  0  0
 10 11  2  0  0  0
 10 15  1  0  0  0
 11 12  1  0  0  0
 11 95  1  0  0  0
 12 13  2  0  0  0
 12 96  1  0  0  0
 13 14  1  0  0  0
 13 31  1  0  0  0
 14 15  2  0  0  0
 14 97  1  0  0  0
 15 98  1  0  0  0
 16 17  2  0  0  0
 16 21  1  0  0  0
 16 31  1  0  0  0
 17 18  1  0  0  0
 17 99  1  0  0  0
 18 19  2  0  0  0
 18100  1  0  0  0
 19 20  1  0  0  0
 19 24  1  0  0  0
 20 21  2  0  0  0
 20101  1  0  0  0
 21 23  1  0  0  0
 22 28  1  0  0  0
 22 32  2  0  0  0
 26 27  1  0  0  0
 28102  1  0  0  0
 28103  1  0  0  0
 29104  1  0  0  0
 29105  1  0  0  0
 33 34  1  0  0  0
 33 66  1  0  0  0
 33 70  2  0  0  0
 34 36  1  0  0  0
 34 59  1  0  0  0
 34106  1  0  0  0
 35 44  2  0  0  0
 35 45  1  0  0  0
 35 68  1  0  0  0
 36 56  1  0  0  0
 36107  1  0  0  0
 37 39  1  0  0  0
 37 47  1  0  0  0
 37 66  1  0  0  0
 37108  1  0  0  0
 38 43  2  0  0  0
 38 46  1  0  0  0
 38 47  1  0  0  0
 39 64  1  0  0  0
 39 67  2  0  0  0
 40 52  1  0  0  0
 40 53  2  0  0  0
 40 58  1  0  0  0
 41109  1  0  0  0
 41110  1  0  0  0
 41111  1  0  0  0
 41 48  1  0  0  0
 42 43  1  0  0  0
 42 66  1  0  0  0
 42112  1  0  0  0
 42113  1  0  0  0
 43 44  1  0  0  0
 44114  1  0  0  0
 45 46  2  0  0  0
 45115  1  0  0  0
 46116  1  0  0  0
 47117  1  0  0  0
 47118  1  0  0  0
 48 56  1  0  0  0
 48 65  1  0  0  0
 48119  1  0  0  0
 49 50  1  0  0  0
 49 53  1  0  0  0
 49 64  1  0  0  0
 49120  1  0  0  0
 50 51  1  0  0  0
 50121  1  0  0  0
 50122  1  0  0  0
 51 52  1  0  0  0
 51123  1  0  0  0
 51124  1  0  0  0
 52125  1  0  0  0
 52126  1  0  0  0
 53 54  1  0  0  0
 54 55  2  0  0  0
 54127  1  0  0  0
 55 57  1  0  0  0
 55128  1  0  0  0
 56 69  2  0  0  0
 57 58  2  0  0  0
 57129  1  0  0  0
 58130  1  0  0  0
 59 60  1  0  0  0
 59 61  1  0  0  0
 59 62  1  0  0  0
 60131  1  0  0  0
 60132  1  0  0  0
 60133  1  0  0  0
 61134  1  0  0  0
 61135  1  0  0  0
 61136  1  0  0  0
 62137  1  0  0  0
 62138  1  0  0  0
 62139  1  0  0  0
 63 65  1  0  0  0
 63140  1  0  0  0
 63141  1  0  0  0
 63142  1  0  0  0
 64143  1  0  0  0
 65144  1  0  0  0
 68 79  1  0  0  0
 71 72  2  0  0  0
 71 73  1  0  0  0
 71145  1  0  0  0
 72 74  1  0  0  0
 72146  1  0  0  0
 73 75  2  0  0  0
 73 85  1  0  0  0
 74 82  2  0  0  0
 74 83  1  0  0  0
 75 82  1  0  0  0
 75 84  1  0  0  0
 76147  1  0  0  0
 76148  1  0  0  0
 76149  1  0  0  0
 76 80  1  0  0  0
 77 80  1  0  0  0
 77150  1  0  0  0
 77151  1  0  0  0
 77152  1  0  0  0
 78 79  1  0  0  0
 78153  1  0  0  0
 78154  1  0  0  0
 78 81  1  0  0  0
 79155  1  0  0  0
 79156  1  0  0  0
 80 81  1  0  0  0
 80157  1  0  0  0
 81 84  1  0  0  0
 81158  1  0  0  0
 83159  1  0  0  0
 84160  1  0  0  0
M  ISO  4   1 100  68 101  79 101  83 100
M  END
> <chiral flag>
0

> <version>
0

> <s_m_source_file>
/data/baiqing/PycharmProjects/Reinvent-master-3.2/result/LINK_invent/BTK/process_docking_weight1_custom_product_contain_oxygen_bond_distance_aromatic_linkinvent_7_9_3/rearranged_h_0189.sdf

> <i_m_source_file_index>
90

> <r_mmod_Potential_Energy-OPLS-2005>
240.326950073242

> <r_mmod_Stretch_Energy-OPLS-2005>
168.857208251953

> <r_mmod_Bend_Energy-OPLS-2005>
265.993438720703

> <r_mmod_Torsional_Energy-OPLS-2005>
284.910400390625

> <r_mmod_Improper_Torsional_Energy-OPLS-2005>
10.779088973999

> <r_mmod_Van_der_Waal_Energy-OPLS-2005>
138.142807006836

> <r_mmod_Electrostatic_Energy-OPLS-2005>
-529.438781738281

> <r_mmod_Solvation_Energy-OPLS-2005>
-218.805191040039

> <b_mmod_Minimization_Converged-OPLS-2005>
0

> <r_mmod_RMS_Derivative-OPLS-2005>
7.6552882194519

$$$$
90
                    3D
 Structure written by MMmdl.
171179  0  0  1  0            999 V2000
  -30.7284  -14.4326   20.5798 C   0  0  0  0  0  0
  -30.4106  -12.2828   19.4284 C   0  0  0  0  0  0
  -29.4998  -12.5222   18.2094 C   0  0  0  0  0  0
  -28.0174  -12.3928   18.6074 C   0  0  0  0  0  0
  -27.6633  -13.2136   19.8777 C   0  0  2  0  0  0
  -28.6995  -12.9868   21.0026 C   0  0  0  0  0  0
  -25.2609  -13.8151   20.5824 C   0  0  0  0  0  0
  -24.1845  -13.0426   20.9222 C   0  0  0  0  0  0
  -24.6376  -11.6892   20.8668 C   0  0  0  0  0  0
  -23.9030  -10.4299   21.0347 C   0  0  0  0  0  0
  -24.3594   -9.4254   21.9152 C   0  0  0  0  0  0
  -23.6293   -8.2279   22.0745 C   0  0  0  0  0  0
  -22.4272   -8.0285   21.3534 C   0  0  0  0  0  0
  -21.9893   -9.0243   20.4629 C   0  0  0  0  0  0
  -22.7187  -10.2132   20.3023 C   0  0  0  0  0  0
  -21.6868   -6.0733   22.5279 C   0  0  0  0  0  0
  -21.4023   -6.5638   23.8215 C   0  0  0  0  0  0
  -21.3673   -5.6787   24.9184 C   0  0  0  0  0  0
  -21.6050   -4.3054   24.7229 C   0  0  0  0  0  0
  -21.8819   -3.8138   23.4356 C   0  0  0  0  0  0
  -21.9200   -4.6962   22.3408 C   0  0  0  0  0  0
  -22.7859  -13.5230   21.1868 C   0  0  0  0  0  0
  -22.1660   -4.2143   21.0984 F   0  0  0  0  0  0
  -21.5639   -3.4534   25.7749 F   0  0  0  0  0  0
  -30.0388  -13.2658   20.4598 N   0  0  0  0  0  0
  -26.3029  -12.9338   20.3340 N   0  0  0  0  0  0
  -25.9296  -11.6477   20.5612 N   0  0  0  0  0  0
  -22.0426  -12.8234   22.0371 N   0  0  0  0  0  0
  -25.4382  -15.1894   20.4522 N   0  0  0  0  0  0
  -31.8429  -14.5887   20.0735 O   0  0  0  0  0  0
  -21.6658   -6.8865   21.4238 O   0  0  0  0  0  0
  -22.3610  -14.5569   20.6709 O   0  0  0  0  0  0
  -24.6156  -31.8686   23.2068 C   0  0  0  0  0  0
  -25.9050  -32.4832   23.8377 C   0  0  1  0  0  0
  -27.2323  -27.4349   20.1033 C   0  0  0  0  0  0
  -25.5900  -33.8628   24.2311 N   0  0  0  0  0  0
  -23.4012  -30.4919   21.5493 C   0  0  2  0  0  0
  -24.8433  -28.9564   20.1148 C   0  0  0  0  0  0
  -22.7401  -29.4668   22.4990 C   0  0  0  0  0  0
  -18.0272  -28.1391   22.8485 C   0  0  0  0  0  0
  -24.1486  -36.7314   23.2631 C   0  0  0  0  0  0
  -25.9275  -30.8421   21.3496 C   0  0  0  0  0  0
  -26.0045  -29.4736   20.7023 C   0  0  0  0  0  0
  -27.2017  -28.7232   20.6857 C   0  0  0  0  0  0
  -26.0502  -26.9317   19.5102 C   0  0  0  0  0  0
  -24.8622  -27.6861   19.5119 C   0  0  0  0  0  0
  -23.6046  -29.8218   20.1642 C   0  0  0  0  0  0
  -25.4105  -36.3103   24.0327 C   0  0  1  0  0  0
  -20.5862  -28.3674   23.1311 C   0  0  2  0  0  0
  -20.6761  -26.9414   22.5408 C   0  0  0  0  0  0
  -19.5737  -26.6392   21.5216 C   0  0  0  0  0  0
  -18.1917  -26.7937   22.1623 C   0  0  0  0  0  0
  -19.1527  -28.8848   23.2894 C   0  0  0  0  0  0
  -18.9453  -30.1452   23.8905 C   0  0  0  0  0  0
  -17.6456  -30.6585   24.0583 C   0  0  0  0  0  0
  -25.9031  -34.9486   23.5118 C   0  0  0  0  0  0
  -16.5342  -29.9100   23.6328 C   0  0  0  0  0  0
  -16.7260  -28.6521   23.0336 C   0  0  0  0  0  0
  -26.4473  -31.6593   25.0698 C   0  0  0  0  0  0
  -25.3745  -31.3711   26.1444 C   0  0  0  0  0  0
  -27.0270  -30.3035   24.6037 C   0  0  0  0  0  0
  -27.6053  -32.4293   25.7467 C   0  0  0  0  0  0
  -27.5571  -37.1802   24.8464 C   0  0  0  0  0  0
  -21.4131  -29.3044   22.3721 N   0  0  0  0  0  0
  -26.4281  -37.3792   23.9411 N   0  0  0  0  0  0
  -24.6673  -31.0812   22.0946 N   0  0  0  0  0  0
  -23.4191  -28.8226   23.3025 O   0  0  0  0  0  0
  -28.4117  -26.7166   20.1209 O   0  0  0  0  0  0
  -26.5584  -34.8938   22.4677 O   0  0  0  0  0  0
  -23.5347  -32.1404   23.7478 O   0  0  0  0  0  0
  -30.4517  -19.0429   21.5880 C   0  0  0  0  0  0
  -31.0325  -19.0623   20.3404 C   0  0  0  0  0  0
  -30.3809  -16.8206   21.0145 C   0  0  0  0  0  0
  -33.0774  -19.5248   25.2526 C   0  0  0  0  0  0
  -32.9867  -21.6705   23.9886 C   0  0  0  0  0  0
  -33.3591  -19.5009   22.7789 C   0  0  0  0  0  0
  -30.4067  -21.6157   21.9983 C   0  0  0  0  0  0
  -31.0488  -19.9705   23.8790 C   0  0  0  0  0  0
  -29.8708  -23.1972   20.0043 C   0  0  0  0  0  0
  -28.3183  -25.2858   20.2126 C   0  0  0  0  0  0
  -30.2386  -20.1828   22.5696 C   0  0  2  0  0  0
  -29.7242  -24.6784   20.4547 C   0  0  1  0  0  0
  -29.3752  -22.0521   20.9329 C   0  0  2  0  0  0
  -32.6002  -20.1760   23.9380 C   0  0  0  0  0  0
  -30.0360  -17.7374   21.9327 N   0  0  0  0  0  0
  -30.1025  -15.4399   21.2143 N   0  0  0  0  0  0
  -30.1079  -24.8346   21.8122 O   0  0  0  0  0  0
  -31.5163  -20.1672   19.7235 F   0  0  0  0  0  0
  -28.2126  -22.3583   21.5133 F   0  0  0  0  0  0
  -31.1449  -17.5118   19.5763 S   0  0  0  0  0  0
  -31.4566  -12.3573   19.1288 H   0  0  0  0  0  0
  -30.2844  -11.2677   19.8083 H   0  0  0  0  0  0
  -29.7375  -11.8126   17.4153 H   0  0  0  0  0  0
  -29.6881  -13.5158   17.7985 H   0  0  0  0  0  0
  -27.8138  -11.3366   18.7790 H   0  0  0  0  0  0
  -27.3854  -12.6963   17.7713 H   0  0  0  0  0  0
  -27.7131  -14.2661   19.5943 H   0  0  0  0  0  0
  -28.6560  -11.9570   21.3615 H   0  0  0  0  0  0
  -28.4611  -13.6046   21.8689 H   0  0  0  0  0  0
  -25.2727   -9.5804   22.4731 H   0  0  0  0  0  0
  -24.0022   -7.4724   22.7500 H   0  0  0  0  0  0
  -21.0822   -8.8759   19.8959 H   0  0  0  0  0  0
  -22.3611  -10.9689   19.6158 H   0  0  0  0  0  0
  -21.1997   -7.6144   23.9720 H   0  0  0  0  0  0
  -21.1496   -6.0514   25.9089 H   0  0  0  0  0  0
  -22.0571   -2.7602   23.2855 H   0  0  0  0  0  0
  -22.3942  -11.9873   22.4790 H   0  0  0  0  0  0
  -21.1038  -13.1282   22.2518 H   0  0  0  0  0  0
  -26.3013  -15.6500   20.1937 H   0  0  0  0  0  0
  -24.6933  -15.8404   20.6705 H   0  0  0  0  0  0
  -26.7143  -32.5536   23.1164 H   0  0  0  0  0  0
  -25.0105  -33.9799   25.0493 H   0  0  0  0  0  0
  -22.6904  -31.3087   21.4117 H   0  0  0  0  0  0
  -23.3736  -35.9660   23.3297 H   0  0  0  0  0  0
  -24.3580  -36.8912   22.2043 H   0  0  0  0  0  0
  -23.7263  -37.6532   23.6637 H   0  0  0  0  0  0
  -26.0253  -31.6027   20.5729 H   0  0  0  0  0  0
  -26.8221  -30.9075   21.9563 H   0  0  0  0  0  0
  -28.1009  -29.1252   21.1323 H   0  0  0  0  0  0
  -26.0311  -25.9627   19.0340 H   0  0  0  0  0  0
  -23.9718  -27.2816   19.0471 H   0  0  0  0  0  0
  -23.7095  -30.5950   19.4016 H   0  0  0  0  0  0
  -22.7289  -29.2377   19.8736 H   0  0  0  0  0  0
  -25.1297  -36.1949   25.0818 H   0  0  0  0  0  0
  -20.9972  -28.3235   24.1422 H   0  0  0  0  0  0
  -20.5687  -26.2291   23.3601 H   0  0  0  0  0  0
  -21.6634  -26.7459   22.1203 H   0  0  0  0  0  0
  -19.6906  -25.6319   21.1216 H   0  0  0  0  0  0
  -19.6673  -27.3227   20.6772 H   0  0  0  0  0  0
  -17.4193  -26.6680   21.4014 H   0  0  0  0  0  0
  -18.0297  -26.0101   22.9038 H   0  0  0  0  0  0
  -19.7931  -30.7271   24.2260 H   0  0  0  0  0  0
  -17.5013  -31.6262   24.5196 H   0  0  0  0  0  0
  -15.5343  -30.3022   23.7631 H   0  0  0  0  0  0
  -15.8654  -28.0854   22.7034 H   0  0  0  0  0  0
  -24.5938  -30.7037   25.7785 H   0  0  0  0  0  0
  -24.8930  -32.2878   26.4855 H   0  0  0  0  0  0
  -25.8096  -30.8916   27.0224 H   0  0  0  0  0  0
  -26.2788  -29.6830   24.1091 H   0  0  0  0  0  0
  -27.4057  -29.7223   25.4455 H   0  0  0  0  0  0
  -27.8620  -30.4349   23.9152 H   0  0  0  0  0  0
  -27.2680  -33.3597   26.2046 H   0  0  0  0  0  0
  -28.3862  -32.6833   25.0291 H   0  0  0  0  0  0
  -28.0727  -31.8429   26.5383 H   0  0  0  0  0  0
  -28.2594  -38.0091   24.7508 H   0  0  0  0  0  0
  -28.1052  -36.2624   24.6285 H   0  0  0  0  0  0
  -27.2291  -37.1455   25.8867 H   0  0  0  0  0  0
  -20.9274  -29.8772   21.6960 H   0  0  0  0  0  0
  -26.0157  -38.2861   24.1425 H   0  0  0  0  0  0
  -34.1454  -19.6716   25.4190 H   0  0  0  0  0  0
  -32.9005  -18.4468   25.2516 H   0  0  0  0  0  0
  -32.5583  -19.9428   26.1165 H   0  0  0  0  0  0
  -33.9903  -21.8129   24.3917 H   0  0  0  0  0  0
  -32.3087  -22.2441   24.6213 H   0  0  0  0  0  0
  -32.9941  -22.1346   23.0033 H   0  0  0  0  0  0
  -34.4369  -19.5196   22.9460 H   0  0  0  0  0  0
  -33.1939  -20.0095   21.8301 H   0  0  0  0  0  0
  -33.0694  -18.4553   22.6596 H   0  0  0  0  0  0
  -31.4064  -21.7051   21.5798 H   0  0  0  0  0  0
  -30.3723  -22.3285   22.8214 H   0  0  0  0  0  0
  -30.8144  -18.9649   24.2303 H   0  0  0  0  0  0
  -30.6085  -20.6194   24.6358 H   0  0  0  0  0  0
  -30.9222  -23.0121   19.7784 H   0  0  0  0  0  0
  -29.3743  -23.0933   19.0389 H   0  0  0  0  0  0
  -27.6211  -24.9851   20.9974 H   0  0  0  0  0  0
  -27.9339  -24.9027   19.2674 H   0  0  0  0  0  0
  -29.1956  -20.1247   22.8829 H   0  0  0  0  0  0
  -30.4234  -25.2520   19.8436 H   0  0  0  0  0  0
  -29.1534  -21.1956   20.2964 H   0  0  0  0  0  0
  -29.2851  -15.2121   21.7571 H   0  0  0  0  0  0
  -29.4793  -24.3528   22.3414 H   0  0  0  0  0  0
  1 25  1  0  0  0
  1 30  2  0  0  0
  1 86  1  0  0  0
  2  3  1  0  0  0
  2 25  1  0  0  0
  2 91  1  0  0  0
  2 92  1  0  0  0
  3  4  1  0  0  0
  3 93  1  0  0  0
  3 94  1  0  0  0
  4  5  1  0  0  0
  4 95  1  0  0  0
  4 96  1  0  0  0
  5  6  1  0  0  0
  5 26  1  0  0  0
  5 97  1  0  0  0
  6 25  1  0  0  0
  6 98  1  0  0  0
  6 99  1  0  0  0
  7  8  2  0  0  0
  7 26  1  0  0  0
  7 29  1  0  0  0
  8  9  1  0  0  0
  8 22  1  0  0  0
  9 10  1  0  0  0
  9 27  2  0  0  0
 10 11  2  0  0  0
 10 15  1  0  0  0
 11 12  1  0  0  0
 11100  1  0  0  0
 12 13  2  0  0  0
 12101  1  0  0  0
 13 14  1  0  0  0
 13 31  1  0  0  0
 14 15  2  0  0  0
 14102  1  0  0  0
 15103  1  0  0  0
 16 17  2  0  0  0
 16 21  1  0  0  0
 16 31  1  0  0  0
 17 18  1  0  0  0
 17104  1  0  0  0
 18 19  2  0  0  0
 18105  1  0  0  0
 19 20  1  0  0  0
 19 24  1  0  0  0
 20 21  2  0  0  0
 20106  1  0  0  0
 21 23  1  0  0  0
 22 28  1  0  0  0
 22 32  2  0  0  0
 26 27  1  0  0  0
 28107  1  0  0  0
 28108  1  0  0  0
 29109  1  0  0  0
 29110  1  0  0  0
 33 34  1  0  0  0
 33 66  1  0  0  0
 33 70  2  0  0  0
 34 36  1  0  0  0
 34 59  1  0  0  0
 34111  1  0  0  0
 35 44  2  0  0  0
 35 45  1  0  0  0
 35 68  1  0  0  0
 36 56  1  0  0  0
 36112  1  0  0  0
 37 39  1  0  0  0
 37 47  1  0  0  0
 37 66  1  0  0  0
 37113  1  0  0  0
 38 43  2  0  0  0
 38 46  1  0  0  0
 38 47  1  0  0  0
 39 64  1  0  0  0
 39 67  2  0  0  0
 40 52  1  0  0  0
 40 53  2  0  0  0
 40 58  1  0  0  0
 41114  1  0  0  0
 41115  1  0  0  0
 41116  1  0  0  0
 41 48  1  0  0  0
 42 43  1  0  0  0
 42 66  1  0  0  0
 42117  1  0  0  0
 42118  1  0  0  0
 43 44  1  0  0  0
 44119  1  0  0  0
 45 46  2  0  0  0
 45120  1  0  0  0
 46121  1  0  0  0
 47122  1  0  0  0
 47123  1  0  0  0
 48 56  1  0  0  0
 48 65  1  0  0  0
 48124  1  0  0  0
 49 50  1  0  0  0
 49 53  1  0  0  0
 49 64  1  0  0  0
 49125  1  0  0  0
 50 51  1  0  0  0
 50126  1  0  0  0
 50127  1  0  0  0
 51 52  1  0  0  0
 51128  1  0  0  0
 51129  1  0  0  0
 52130  1  0  0  0
 52131  1  0  0  0
 53 54  1  0  0  0
 54 55  2  0  0  0
 54132  1  0  0  0
 55 57  1  0  0  0
 55133  1  0  0  0
 56 69  2  0  0  0
 57 58  2  0  0  0
 57134  1  0  0  0
 58135  1  0  0  0
 59 60  1  0  0  0
 59 61  1  0  0  0
 59 62  1  0  0  0
 60136  1  0  0  0
 60137  1  0  0  0
 60138  1  0  0  0
 61139  1  0  0  0
 61140  1  0  0  0
 61141  1  0  0  0
 62142  1  0  0  0
 62143  1  0  0  0
 62144  1  0  0  0
 63 65  1  0  0  0
 63145  1  0  0  0
 63146  1  0  0  0
 63147  1  0  0  0
 64148  1  0  0  0
 65149  1  0  0  0
 68 80  1  0  0  0
 71 72  2  0  0  0
 71 81  1  0  0  0
 71 85  1  0  0  0
 72 88  1  0  0  0
 72 90  1  0  0  0
 73 85  2  0  0  0
 73 86  1  0  0  0
 73 90  1  0  0  0
 74150  1  0  0  0
 74151  1  0  0  0
 74152  1  0  0  0
 74 84  1  0  0  0
 75 84  1  0  0  0
 75153  1  0  0  0
 75154  1  0  0  0
 75155  1  0  0  0
 76 84  1  0  0  0
 76156  1  0  0  0
 76157  1  0  0  0
 76158  1  0  0  0
 77 83  1  0  0  0
 77159  1  0  0  0
 77160  1  0  0  0
 77 81  1  0  0  0
 78 81  1  0  0  0
 78 84  1  0  0  0
 78161  1  0  0  0
 78162  1  0  0  0
 79 82  1  0  0  0
 79 83  1  0  0  0
 79163  1  0  0  0
 79164  1  0  0  0
 80 82  1  0  0  0
 80165  1  0  0  0
 80166  1  0  0  0
 81167  1  0  0  0
 82 87  1  0  0  0
 82168  1  0  0  0
 83 89  1  0  0  0
 83169  1  0  0  0
 86170  1  0  0  0
 87171  1  0  0  0
M  ISO  4   1 100  68 101  80 101  86 100
M  END
> <chiral flag>
0

> <version>
0

> <s_m_source_file>
/data/baiqing/PycharmProjects/Reinvent-master-3.2/result/LINK_invent/BTK/process_docking_weight1_custom_product_contain_oxygen_bond_distance_aromatic_linkinvent_7_9_3/rearranged_h_0189.sdf

> <i_m_source_file_index>
91

> <r_mmod_Potential_Energy-OPLS-2005>
-38.0838432312012

> <r_mmod_Stretch_Energy-OPLS-2005>
39.5396423339844

> <r_mmod_Bend_Energy-OPLS-2005>
126.904609680176

> <r_mmod_Torsional_Energy-OPLS-2005>
249.370056152344

> <r_mmod_Improper_Torsional_Energy-OPLS-2005>
2.57334685325623

> <r_mmod_Van_der_Waal_Energy-OPLS-2005>
135.626083374023

> <r_mmod_Electrostatic_Energy-OPLS-2005>
-394.461090087891

> <r_mmod_Solvation_Energy-OPLS-2005>
-209.306869506836

> <b_mmod_Minimization_Converged-OPLS-2005>
0

> <r_mmod_RMS_Derivative-OPLS-2005>
3.56000208854675

$$$$
91
                    3D
 Structure written by MMmdl.
173181  0  0  1  0            999 V2000
  -30.7195  -14.5202   20.5101 C   0  0  0  0  0  0
  -30.4511  -12.3224   19.4378 C   0  0  0  0  0  0
  -29.5151  -12.4672   18.2161 C   0  0  0  0  0  0
  -28.0311  -12.3438   18.6293 C   0  0  0  0  0  0
  -27.6615  -13.2006   19.8705 C   0  0  2  0  0  0
  -28.7203  -13.0416   20.9892 C   0  0  0  0  0  0
  -25.2609  -13.8123   20.5698 C   0  0  0  0  0  0
  -24.1850  -13.0435   20.9179 C   0  0  0  0  0  0
  -24.6404  -11.6886   20.8765 C   0  0  0  0  0  0
  -23.9060  -10.4305   21.0416 C   0  0  0  0  0  0
  -24.3612   -9.4220   21.9191 C   0  0  0  0  0  0
  -23.6284   -8.2262   22.0758 C   0  0  0  0  0  0
  -22.4250   -8.0322   21.3548 C   0  0  0  0  0  0
  -21.9896   -9.0295   20.4649 C   0  0  0  0  0  0
  -22.7242  -10.2171   20.3049 C   0  0  0  0  0  0
  -21.6853   -6.0755   22.5288 C   0  0  0  0  0  0
  -21.3996   -6.5643   23.8220 C   0  0  0  0  0  0
  -21.3633   -5.6784   24.9176 C   0  0  0  0  0  0
  -21.6037   -4.3053   24.7224 C   0  0  0  0  0  0
  -21.8830   -3.8152   23.4348 C   0  0  0  0  0  0
  -21.9198   -4.6975   22.3406 C   0  0  0  0  0  0
  -22.7874  -13.5246   21.1853 C   0  0  0  0  0  0
  -22.1677   -4.2160   21.0988 F   0  0  0  0  0  0
  -21.5617   -3.4543   25.7739 F   0  0  0  0  0  0
  -30.0545  -13.3293   20.4357 N   0  0  0  0  0  0
  -26.3055  -12.9274   20.3403 N   0  0  0  0  0  0
  -25.9345  -11.6456   20.5826 N   0  0  0  0  0  0
  -22.0485  -12.8251   22.0382 N   0  0  0  0  0  0
  -25.4359  -15.1851   20.4083 N   0  0  0  0  0  0
  -31.9061  -14.6279   20.1974 O   0  0  0  0  0  0
  -21.6616   -6.8917   21.4257 O   0  0  0  0  0  0
  -22.3584  -14.5581   20.6735 O   0  0  0  0  0  0
  -24.6133  -31.8663   23.2088 C   0  0  0  0  0  0
  -25.9029  -32.4815   23.8377 C   0  0  1  0  0  0
  -27.2558  -27.4388   20.1025 C   0  0  0  0  0  0
  -25.5903  -33.8608   24.2318 N   0  0  0  0  0  0
  -23.4023  -30.4856   21.5474 C   0  0  2  0  0  0
  -24.8529  -28.9457   20.1212 C   0  0  0  0  0  0
  -22.7388  -29.4643   22.4987 C   0  0  0  0  0  0
  -18.0265  -28.1358   22.8490 C   0  0  0  0  0  0
  -24.1485  -36.7293   23.2643 C   0  0  0  0  0  0
  -25.9296  -30.8335   21.3609 C   0  0  0  0  0  0
  -26.0105  -29.4647   20.7140 C   0  0  0  0  0  0
  -27.2124  -28.7200   20.6993 C   0  0  0  0  0  0
  -26.0789  -26.9328   19.5036 C   0  0  0  0  0  0
  -24.8825  -27.6779   19.5132 C   0  0  0  0  0  0
  -23.6128  -29.8085   20.1657 C   0  0  0  0  0  0
  -25.4106  -36.3102   24.0344 C   0  0  1  0  0  0
  -20.5849  -28.3638   23.1324 C   0  0  2  0  0  0
  -20.6742  -26.9378   22.5419 C   0  0  0  0  0  0
  -19.5737  -26.6374   21.5200 C   0  0  0  0  0  0
  -18.1914  -26.7914   22.1607 C   0  0  0  0  0  0
  -19.1513  -28.8806   23.2907 C   0  0  0  0  0  0
  -18.9451  -30.1419   23.8914 C   0  0  0  0  0  0
  -17.6457  -30.6576   24.0565 C   0  0  0  0  0  0
  -25.9020  -34.9467   23.5116 C   0  0  0  0  0  0
  -16.5338  -29.9079   23.6328 C   0  0  0  0  0  0
  -16.7252  -28.6492   23.0352 C   0  0  0  0  0  0
  -26.4459  -31.6588   25.0699 C   0  0  0  0  0  0
  -25.3745  -31.3690   26.1462 C   0  0  0  0  0  0
  -27.0289  -30.3045   24.6051 C   0  0  0  0  0  0
  -27.6024  -32.4303   25.7483 C   0  0  0  0  0  0
  -27.5577  -37.1798   24.8468 C   0  0  0  0  0  0
  -21.4108  -29.3019   22.3732 N   0  0  0  0  0  0
  -26.4284  -37.3792   23.9423 N   0  0  0  0  0  0
  -24.6660  -31.0762   22.0980 N   0  0  0  0  0  0
  -23.4176  -28.8178   23.3016 O   0  0  0  0  0  0
  -28.4526  -26.7476   20.0712 O   0  0  0  0  0  0
  -26.5571  -34.8931   22.4680 O   0  0  0  0  0  0
  -23.5330  -32.1382   23.7496 O   0  0  0  0  0  0
  -30.8782  -18.2221   20.7391 C   0  0  0  0  0  0
  -31.2510  -19.0577   21.7511 C   0  0  0  0  0  0
  -30.8878  -17.0674   22.6457 C   0  0  0  0  0  0
  -29.4335  -16.3577   24.5694 C   0  0  0  0  0  0
  -31.9244  -15.9516   24.6585 C   0  0  0  0  0  0
  -29.5343  -16.2529   19.1786 C   0  0  0  0  0  0
  -32.4929  -23.2438   21.3944 C   0  0  0  0  0  0
  -30.0072  -23.2824   20.6733 C   0  0  0  0  0  0
  -31.4372  -21.1203   20.3985 C   0  0  0  0  0  0
  -28.4331  -25.3467   20.3845 C   0  0  0  0  0  0
  -30.6918  -16.0489   23.7389 C   0  0  0  0  0  0
  -29.9114  -15.8444   20.6314 C   0  0  2  0  0  0
  -31.4204  -22.6714   20.4484 C   0  0  2  0  0  0
  -29.7843  -24.6761   20.0113 C   0  0  2  0  0  0
  -30.5882  -16.9971   21.3219 N   0  0  0  0  0  0
  -31.2992  -18.3235   22.8931 N   0  3  0  0  0  0
  -31.4768  -20.4479   21.6969 N   0  0  0  0  0  0
  -29.8008  -24.4914   18.6016 O   0  0  0  0  0  0
  -31.4873  -12.4398   19.1135 H   0  0  0  0  0  0
  -30.3868  -11.3218   19.8661 H   0  0  0  0  0  0
  -29.7553  -11.6981   17.4799 H   0  0  0  0  0  0
  -29.6991  -13.4181   17.7146 H   0  0  0  0  0  0
  -27.8487  -11.2932   18.8521 H   0  0  0  0  0  0
  -27.3827  -12.5969   17.7904 H   0  0  0  0  0  0
  -27.6556  -14.2339   19.5492 H   0  0  0  0  0  0
  -28.7095  -12.0215   21.3742 H   0  0  0  0  0  0
  -28.4893  -13.6761   21.8458 H   0  0  0  0  0  0
  -25.2793   -9.5676   22.4730 H   0  0  0  0  0  0
  -24.0001   -7.4633   22.7466 H   0  0  0  0  0  0
  -21.0830   -8.8841   19.8946 H   0  0  0  0  0  0
  -22.3756  -10.9703   19.6119 H   0  0  0  0  0  0
  -21.1977   -7.6148   23.9732 H   0  0  0  0  0  0
  -21.1419   -6.0506   25.9074 H   0  0  0  0  0  0
  -22.0625   -2.7624   23.2846 H   0  0  0  0  0  0
  -22.4061  -11.9860   22.4719 H   0  0  0  0  0  0
  -21.1107  -13.1300   22.2609 H   0  0  0  0  0  0
  -24.6742  -15.8484   20.4979 H   0  0  0  0  0  0
  -26.3007  -15.6147   20.1046 H   0  0  0  0  0  0
  -26.7092  -32.5530   23.1133 H   0  0  0  0  0  0
  -25.0119  -33.9773   25.0508 H   0  0  0  0  0  0
  -22.6908  -31.3017   21.4010 H   0  0  0  0  0  0
  -23.3753  -35.9617   23.3305 H   0  0  0  0  0  0
  -24.3581  -36.8900   22.2057 H   0  0  0  0  0  0
  -23.7221  -37.6497   23.6640 H   0  0  0  0  0  0
  -26.0372  -31.5956   20.5880 H   0  0  0  0  0  0
  -26.8196  -30.8924   21.9753 H   0  0  0  0  0  0
  -28.1084  -29.1234   21.1491 H   0  0  0  0  0  0
  -26.0782  -25.9766   19.0001 H   0  0  0  0  0  0
  -23.9969  -27.2711   19.0448 H   0  0  0  0  0  0
  -23.7187  -30.5759   19.3984 H   0  0  0  0  0  0
  -22.7413  -29.2211   19.8730 H   0  0  0  0  0  0
  -25.1283  -36.1958   25.0832 H   0  0  0  0  0  0
  -20.9938  -28.3184   24.1443 H   0  0  0  0  0  0
  -20.5612  -26.2239   23.3589 H   0  0  0  0  0  0
  -21.6618  -26.7402   22.1233 H   0  0  0  0  0  0
  -19.6896  -25.6288   21.1221 H   0  0  0  0  0  0
  -19.6696  -27.3188   20.6732 H   0  0  0  0  0  0
  -17.4182  -26.6654   21.4017 H   0  0  0  0  0  0
  -18.0322  -26.0053   22.8996 H   0  0  0  0  0  0
  -19.7933  -30.7224   24.2303 H   0  0  0  0  0  0
  -17.5021  -31.6278   24.5147 H   0  0  0  0  0  0
  -15.5342  -30.3002   23.7652 H   0  0  0  0  0  0
  -15.8639  -28.0827   22.7065 H   0  0  0  0  0  0
  -24.5946  -30.6991   25.7825 H   0  0  0  0  0  0
  -24.8909  -32.2847   26.4875 H   0  0  0  0  0  0
  -25.8139  -30.8915   27.0228 H   0  0  0  0  0  0
  -26.2817  -29.6814   24.1129 H   0  0  0  0  0  0
  -27.4099  -29.7272   25.4477 H   0  0  0  0  0  0
  -27.8630  -30.4375   23.9159 H   0  0  0  0  0  0
  -27.2629  -33.3605   26.2047 H   0  0  0  0  0  0
  -28.3868  -32.6845   25.0344 H   0  0  0  0  0  0
  -28.0639  -31.8421   26.5424 H   0  0  0  0  0  0
  -28.2582  -38.0102   24.7537 H   0  0  0  0  0  0
  -28.1073  -36.2639   24.6257 H   0  0  0  0  0  0
  -27.2295  -37.1408   25.8864 H   0  0  0  0  0  0
  -20.9225  -29.8792   21.7019 H   0  0  0  0  0  0
  -26.0167  -38.2860   24.1446 H   0  0  0  0  0  0
  -30.7271  -18.4363   19.6934 H   0  0  0  0  0  0
  -28.5369  -16.3898   23.9483 H   0  0  0  0  0  0
  -29.5162  -17.3181   25.0842 H   0  0  0  0  0  0
  -29.2754  -15.5963   25.3343 H   0  0  0  0  0  0
  -32.8247  -15.6967   24.0994 H   0  0  0  0  0  0
  -31.7865  -15.1901   25.4267 H   0  0  0  0  0  0
  -32.1152  -16.8875   25.1832 H   0  0  0  0  0  0
  -28.8655  -17.1147   19.1605 H   0  0  0  0  0  0
  -29.0420  -15.4629   18.6182 H   0  0  0  0  0  0
  -30.4243  -16.4950   18.5922 H   0  0  0  0  0  0
  -32.5238  -24.3317   21.3550 H   0  0  0  0  0  0
  -33.4839  -22.8829   21.1154 H   0  0  0  0  0  0
  -32.3204  -22.9604   22.4326 H   0  0  0  0  0  0
  -29.8178  -23.3439   21.7456 H   0  0  0  0  0  0
  -29.2533  -22.5976   20.2842 H   0  0  0  0  0  0
  -32.3158  -20.7963   19.8377 H   0  0  0  0  0  0
  -30.5707  -20.7696   19.8364 H   0  0  0  0  0  0
  -28.2845  -25.2769   21.4624 H   0  0  0  0  0  0
  -27.6078  -24.8054   19.9235 H   0  0  0  0  0  0
  -30.5523  -15.0844   23.2556 H   0  0  0  0  0  0
  -28.9963  -15.6764   21.1947 H   0  0  0  0  0  0
  -31.7155  -22.9711   19.4420 H   0  0  0  0  0  0
  -30.6029  -25.3434   20.2918 H   0  0  0  0  0  0
  -31.5610  -18.6733   23.8053 H   0  0  0  0  0  0
  -31.7457  -20.9705   22.5222 H   0  0  0  0  0  0
  -29.0149  -24.0096   18.3635 H   0  0  0  0  0  0
  1 25  1  0  0  0
  1 30  2  0  0  0
  1 82  1  0  0  0
  2  3  1  0  0  0
  2 25  1  0  0  0
  2 89  1  0  0  0
  2 90  1  0  0  0
  3  4  1  0  0  0
  3 91  1  0  0  0
  3 92  1  0  0  0
  4  5  1  0  0  0
  4 93  1  0  0  0
  4 94  1  0  0  0
  5  6  1  0  0  0
  5 26  1  0  0  0
  5 95  1  0  0  0
  6 25  1  0  0  0
  6 96  1  0  0  0
  6 97  1  0  0  0
  7  8  2  0  0  0
  7 26  1  0  0  0
  7 29  1  0  0  0
  8  9  1  0  0  0
  8 22  1  0  0  0
  9 10  1  0  0  0
  9 27  2  0  0  0
 10 11  2  0  0  0
 10 15  1  0  0  0
 11 12  1  0  0  0
 11 98  1  0  0  0
 12 13  2  0  0  0
 12 99  1  0  0  0
 13 14  1  0  0  0
 13 31  1  0  0  0
 14 15  2  0  0  0
 14100  1  0  0  0
 15101  1  0  0  0
 16 17  2  0  0  0
 16 21  1  0  0  0
 16 31  1  0  0  0
 17 18  1  0  0  0
 17102  1  0  0  0
 18 19  2  0  0  0
 18103  1  0  0  0
 19 20  1  0  0  0
 19 24  1  0  0  0
 20 21  2  0  0  0
 20104  1  0  0  0
 21 23  1  0  0  0
 22 28  1  0  0  0
 22 32  2  0  0  0
 26 27  1  0  0  0
 28105  1  0  0  0
 28106  1  0  0  0
 29107  1  0  0  0
 29108  1  0  0  0
 33 34  1  0  0  0
 33 66  1  0  0  0
 33 70  2  0  0  0
 34 36  1  0  0  0
 34 59  1  0  0  0
 34109  1  0  0  0
 35 44  2  0  0  0
 35 45  1  0  0  0
 35 68  1  0  0  0
 36 56  1  0  0  0
 36110  1  0  0  0
 37 39  1  0  0  0
 37 47  1  0  0  0
 37 66  1  0  0  0
 37111  1  0  0  0
 38 43  2  0  0  0
 38 46  1  0  0  0
 38 47  1  0  0  0
 39 64  1  0  0  0
 39 67  2  0  0  0
 40 52  1  0  0  0
 40 53  2  0  0  0
 40 58  1  0  0  0
 41112  1  0  0  0
 41113  1  0  0  0
 41114  1  0  0  0
 41 48  1  0  0  0
 42 43  1  0  0  0
 42 66  1  0  0  0
 42115  1  0  0  0
 42116  1  0  0  0
 43 44  1  0  0  0
 44117  1  0  0  0
 45 46  2  0  0  0
 45118  1  0  0  0
 46119  1  0  0  0
 47120  1  0  0  0
 47121  1  0  0  0
 48 56  1  0  0  0
 48 65  1  0  0  0
 48122  1  0  0  0
 49 50  1  0  0  0
 49 53  1  0  0  0
 49 64  1  0  0  0
 49123  1  0  0  0
 50 51  1  0  0  0
 50124  1  0  0  0
 50125  1  0  0  0
 51 52  1  0  0  0
 51126  1  0  0  0
 51127  1  0  0  0
 52128  1  0  0  0
 52129  1  0  0  0
 53 54  1  0  0  0
 54 55  2  0  0  0
 54130  1  0  0  0
 55 57  1  0  0  0
 55131  1  0  0  0
 56 69  2  0  0  0
 57 58  2  0  0  0
 57132  1  0  0  0
 58133  1  0  0  0
 59 60  1  0  0  0
 59 61  1  0  0  0
 59 62  1  0  0  0
 60134  1  0  0  0
 60135  1  0  0  0
 60136  1  0  0  0
 61137  1  0  0  0
 61138  1  0  0  0
 61139  1  0  0  0
 62140  1  0  0  0
 62141  1  0  0  0
 62142  1  0  0  0
 63 65  1  0  0  0
 63143  1  0  0  0
 63144  1  0  0  0
 63145  1  0  0  0
 64146  1  0  0  0
 65147  1  0  0  0
 68 80  1  0  0  0
 71 72  2  0  0  0
 71 85  1  0  0  0
 71148  1  0  0  0
 72 86  1  0  0  0
 72 87  1  0  0  0
 73 81  1  0  0  0
 73 85  1  0  0  0
 73 86  2  0  0  0
 74149  1  0  0  0
 74150  1  0  0  0
 74151  1  0  0  0
 74 81  1  0  0  0
 75 81  1  0  0  0
 75152  1  0  0  0
 75153  1  0  0  0
 75154  1  0  0  0
 76155  1  0  0  0
 76156  1  0  0  0
 76157  1  0  0  0
 76 82  1  0  0  0
 77158  1  0  0  0
 77159  1  0  0  0
 77160  1  0  0  0
 77 83  1  0  0  0
 78 83  1  0  0  0
 78 84  1  0  0  0
 78161  1  0  0  0
 78162  1  0  0  0
 79 83  1  0  0  0
 79 87  1  0  0  0
 79163  1  0  0  0
 79164  1  0  0  0
 80 84  1  0  0  0
 80165  1  0  0  0
 80166  1  0  0  0
 81167  1  0  0  0
 82 85  1  0  0  0
 82168  1  0  0  0
 83169  1  0  0  0
 84 88  1  0  0  0
 84170  1  0  0  0
 86171  1  0  0  0
 87172  1  0  0  0
 88173  1  0  0  0
M  CHG  1  86   1
M  ISO  4   1 100  68 101  80 101  82 100
M  END
> <chiral flag>
0

> <version>
0

> <s_m_source_file>
/data/baiqing/PycharmProjects/Reinvent-master-3.2/result/LINK_invent/BTK/process_docking_weight1_custom_product_contain_oxygen_bond_distance_aromatic_linkinvent_7_9_3/rearranged_h_0189.sdf

> <i_m_source_file_index>
92

> <r_mmod_Potential_Energy-OPLS-2005>
-62.2785186767578

> <r_mmod_Stretch_Energy-OPLS-2005>
44.6573638916016

> <r_mmod_Bend_Energy-OPLS-2005>
128.426055908203

> <r_mmod_Torsional_Energy-OPLS-2005>
270.832702636719

> <r_mmod_Improper_Torsional_Energy-OPLS-2005>
9.4935417175293

> <r_mmod_Van_der_Waal_Energy-OPLS-2005>
128.397521972656

> <r_mmod_Electrostatic_Energy-OPLS-2005>
-241.333129882812

> <r_mmod_Solvation_Energy-OPLS-2005>
-423.214080810547

> <b_mmod_Minimization_Converged-OPLS-2005>
0

> <r_mmod_RMS_Derivative-OPLS-2005>
3.76237869262695

$$$$
92
                    3D
 Structure written by MMmdl.
152160  0  0  1  0            999 V2000
  -30.6846  -14.4607   20.6094 C   0  0  0  0  0  0
  -30.4324  -12.3125   19.4212 C   0  0  0  0  0  0
  -29.5009  -12.5174   18.2082 C   0  0  0  0  0  0
  -28.0214  -12.3713   18.6159 C   0  0  0  0  0  0
  -27.6639  -13.2007   19.8780 C   0  0  2  0  0  0
  -28.7001  -12.9514   20.9967 C   0  0  0  0  0  0
  -25.2594  -13.8153   20.5674 C   0  0  0  0  0  0
  -24.1834  -13.0438   20.9164 C   0  0  0  0  0  0
  -24.6380  -11.6901   20.8708 C   0  0  0  0  0  0
  -23.9049  -10.4291   21.0391 C   0  0  0  0  0  0
  -24.3598   -9.4209   21.9172 C   0  0  0  0  0  0
  -23.6278   -8.2240   22.0747 C   0  0  0  0  0  0
  -22.4256   -8.0288   21.3554 C   0  0  0  0  0  0
  -21.9895   -9.0264   20.4652 C   0  0  0  0  0  0
  -22.7226  -10.2135   20.3048 C   0  0  0  0  0  0
  -21.6863   -6.0729   22.5281 C   0  0  0  0  0  0
  -21.4023   -6.5625   23.8218 C   0  0  0  0  0  0
  -21.3655   -5.6781   24.9179 C   0  0  0  0  0  0
  -21.6038   -4.3046   24.7231 C   0  0  0  0  0  0
  -21.8822   -3.8145   23.4354 C   0  0  0  0  0  0
  -21.9196   -4.6957   22.3409 C   0  0  0  0  0  0
  -22.7858  -13.5246   21.1851 C   0  0  0  0  0  0
  -22.1660   -4.2152   21.0981 F   0  0  0  0  0  0
  -21.5627   -3.4526   25.7739 F   0  0  0  0  0  0
  -30.0377  -13.2723   20.4631 N   0  0  0  0  0  0
  -26.3020  -12.9299   20.3343 N   0  0  0  0  0  0
  -25.9296  -11.6464   20.5718 N   0  0  0  0  0  0
  -22.0493  -12.8249   22.0405 N   0  0  0  0  0  0
  -25.4359  -15.1869   20.4101 N   0  0  0  0  0  0
  -31.7815  -14.6995   20.0943 O   0  0  0  0  0  0
  -21.6641   -6.8867   21.4243 O   0  0  0  0  0  0
  -22.3541  -14.5564   20.6722 O   0  0  0  0  0  0
  -24.6119  -31.8699   23.2099 C   0  0  0  0  0  0
  -25.9029  -32.4831   23.8388 C   0  0  1  0  0  0
  -27.2389  -27.4512   20.1057 C   0  0  0  0  0  0
  -25.5887  -33.8627   24.2318 N   0  0  0  0  0  0
  -23.3982  -30.4919   21.5511 C   0  0  2  0  0  0
  -24.8493  -28.9568   20.1163 C   0  0  0  0  0  0
  -22.7385  -29.4674   22.5015 C   0  0  0  0  0  0
  -18.0272  -28.1368   22.8499 C   0  0  0  0  0  0
  -24.1481  -36.7314   23.2634 C   0  0  0  0  0  0
  -25.9246  -30.8399   21.3611 C   0  0  0  0  0  0
  -26.0065  -29.4744   20.7127 C   0  0  0  0  0  0
  -27.2058  -28.7282   20.7065 C   0  0  0  0  0  0
  -26.0699  -26.9422   19.5032 C   0  0  0  0  0  0
  -24.8748  -27.6877   19.5093 C   0  0  0  0  0  0
  -23.6074  -29.8202   20.1667 C   0  0  0  0  0  0
  -25.4099  -36.3116   24.0339 C   0  0  1  0  0  0
  -20.5855  -28.3653   23.1337 C   0  0  2  0  0  0
  -20.6762  -26.9397   22.5430 C   0  0  0  0  0  0
  -19.5746  -26.6385   21.5215 C   0  0  0  0  0  0
  -18.1919  -26.7918   22.1622 C   0  0  0  0  0  0
  -19.1519  -28.8826   23.2911 C   0  0  0  0  0  0
  -18.9457  -30.1434   23.8913 C   0  0  0  0  0  0
  -17.6463  -30.6583   24.0564 C   0  0  0  0  0  0
  -25.9034  -34.9487   23.5130 C   0  0  0  0  0  0
  -16.5352  -29.9089   23.6321 C   0  0  0  0  0  0
  -16.7263  -28.6501   23.0347 C   0  0  0  0  0  0
  -26.4463  -31.6602   25.0706 C   0  0  0  0  0  0
  -25.3742  -31.3733   26.1477 C   0  0  0  0  0  0
  -27.0275  -30.3039   24.6069 C   0  0  0  0  0  0
  -27.6044  -32.4317   25.7458 C   0  0  0  0  0  0
  -27.5591  -37.1791   24.8449 C   0  0  0  0  0  0
  -21.4119  -29.3025   22.3746 N   0  0  0  0  0  0
  -26.4277  -37.3811   23.9437 N   0  0  0  0  0  0
  -24.6629  -31.0810   22.1000 N   0  0  0  0  0  0
  -23.4167  -28.8229   23.3059 O   0  0  0  0  0  0
  -28.3865  -26.6940   20.1082 O   0  0  0  0  0  0
  -26.5605  -34.8939   22.4698 O   0  0  0  0  0  0
  -23.5320  -32.1459   23.7511 O   0  0  0  0  0  0
  -30.9907  -17.5699   20.6316 C   0  0  0  0  0  0
  -30.0309  -16.7432   21.1806 C   0  0  0  0  0  0
  -29.4624  -19.1796   21.1945 C   0  0  0  0  0  0
  -28.7450  -20.4938   21.3552 C   0  0  0  0  0  0
  -29.4437  -21.7853   20.8712 C   0  0  0  0  0  0
  -29.0725  -24.3505   20.5504 C   0  0  0  0  0  0
  -28.3638  -25.6261   21.0671 C   0  0  0  0  0  0
  -28.9208  -23.1188   21.4874 C   0  0  2  0  0  0
  -30.6599  -18.9360   20.6429 N   0  0  0  0  0  0
  -29.9919  -15.3856   21.3036 N   0  0  0  0  0  0
  -27.6038  -20.5282   21.8321 O   0  0  0  0  0  0
  -29.5868  -23.3743   22.7190 O   0  0  0  0  0  0
  -28.6855  -17.6995   21.7644 S   0  0  0  0  0  0
  -31.4758  -12.4299   19.1219 H   0  0  0  0  0  0
  -30.3446  -11.2948   19.8034 H   0  0  0  0  0  0
  -29.7445  -11.8029   17.4205 H   0  0  0  0  0  0
  -29.6682  -13.5084   17.7836 H   0  0  0  0  0  0
  -27.8327  -11.3137   18.8057 H   0  0  0  0  0  0
  -27.3733  -12.6512   17.7843 H   0  0  0  0  0  0
  -27.7185  -14.2530   19.5955 H   0  0  0  0  0  0
  -28.6741  -11.9052   21.3054 H   0  0  0  0  0  0
  -28.4426  -13.5143   21.8946 H   0  0  0  0  0  0
  -25.2747   -9.5695   22.4735 H   0  0  0  0  0  0
  -24.0015   -7.4628   22.7444 H   0  0  0  0  0  0
  -21.0843   -8.8791   19.8941 H   0  0  0  0  0  0
  -22.3708  -10.9673   19.6147 H   0  0  0  0  0  0
  -21.2017   -7.6134   23.9725 H   0  0  0  0  0  0
  -21.1461   -6.0504   25.9084 H   0  0  0  0  0  0
  -22.0599   -2.7610   23.2858 H   0  0  0  0  0  0
  -22.4094  -11.9913   22.4806 H   0  0  0  0  0  0
  -21.1110  -13.1286   22.2593 H   0  0  0  0  0  0
  -24.6767  -15.8499   20.5254 H   0  0  0  0  0  0
  -26.2969  -15.6228   20.1061 H   0  0  0  0  0  0
  -26.7100  -32.5557   23.1153 H   0  0  0  0  0  0
  -25.0019  -33.9786   25.0454 H   0  0  0  0  0  0
  -22.6847  -31.3071   21.4117 H   0  0  0  0  0  0
  -23.3758  -35.9629   23.3274 H   0  0  0  0  0  0
  -24.3593  -36.8961   22.2058 H   0  0  0  0  0  0
  -23.7209  -37.6500   23.6671 H   0  0  0  0  0  0
  -26.0317  -31.6040   20.5902 H   0  0  0  0  0  0
  -26.8138  -30.8974   21.9767 H   0  0  0  0  0  0
  -28.0976  -29.1215   21.1741 H   0  0  0  0  0  0
  -26.0857  -25.9655   19.0397 H   0  0  0  0  0  0
  -23.9853  -27.2791   19.0494 H   0  0  0  0  0  0
  -23.7122  -30.5936   19.4051 H   0  0  0  0  0  0
  -22.7315  -29.2382   19.8737 H   0  0  0  0  0  0
  -25.1267  -36.1964   25.0829 H   0  0  0  0  0  0
  -20.9944  -28.3222   24.1459 H   0  0  0  0  0  0
  -20.5666  -26.2261   23.3612 H   0  0  0  0  0  0
  -21.6638  -26.7447   22.1228 H   0  0  0  0  0  0
  -19.6908  -25.6299   21.1235 H   0  0  0  0  0  0
  -19.6678  -27.3198   20.6744 H   0  0  0  0  0  0
  -17.4196  -26.6683   21.4013 H   0  0  0  0  0  0
  -18.0310  -26.0041   22.8996 H   0  0  0  0  0  0
  -19.7941  -30.7234   24.2285 H   0  0  0  0  0  0
  -17.5033  -31.6265   24.5162 H   0  0  0  0  0  0
  -15.5355  -30.3000   23.7626 H   0  0  0  0  0  0
  -15.8667  -28.0816   22.7057 H   0  0  0  0  0  0
  -24.5831  -30.7175   25.7826 H   0  0  0  0  0  0
  -24.9037  -32.2913   26.5005 H   0  0  0  0  0  0
  -25.8092  -30.8816   27.0185 H   0  0  0  0  0  0
  -26.2800  -29.6806   24.1140 H   0  0  0  0  0  0
  -27.4070  -29.7266   25.4510 H   0  0  0  0  0  0
  -27.8633  -30.4348   23.9189 H   0  0  0  0  0  0
  -27.2648  -33.3582   26.2096 H   0  0  0  0  0  0
  -28.3811  -32.6937   25.0261 H   0  0  0  0  0  0
  -28.0762  -31.8412   26.5321 H   0  0  0  0  0  0
  -28.2564  -38.0134   24.7591 H   0  0  0  0  0  0
  -28.1131  -36.2683   24.6131 H   0  0  0  0  0  0
  -27.2343  -37.1285   25.8855 H   0  0  0  0  0  0
  -20.9276  -29.8731   21.6956 H   0  0  0  0  0  0
  -26.0162  -38.2878   24.1493 H   0  0  0  0  0  0
  -31.9362  -17.2783   20.1978 H   0  0  0  0  0  0
  -29.2951  -21.8134   19.7927 H   0  0  0  0  0  0
  -30.5181  -21.6866   21.0226 H   0  0  0  0  0  0
  -30.1249  -24.5634   20.3589 H   0  0  0  0  0  0
  -28.6389  -24.0990   19.5819 H   0  0  0  0  0  0
  -28.8556  -25.9789   21.9744 H   0  0  0  0  0  0
  -27.3431  -25.3700   21.3571 H   0  0  0  0  0  0
  -27.8569  -23.0207   21.7104 H   0  0  0  0  0  0
  -29.1689  -15.0174   21.7551 H   0  0  0  0  0  0
  -30.5078  -23.5478   22.5434 H   0  0  0  0  0  0
  1 25  1  0  0  0
  1 30  2  0  0  0
  1 80  1  0  0  0
  2  3  1  0  0  0
  2 25  1  0  0  0
  2 84  1  0  0  0
  2 85  1  0  0  0
  3  4  1  0  0  0
  3 86  1  0  0  0
  3 87  1  0  0  0
  4  5  1  0  0  0
  4 88  1  0  0  0
  4 89  1  0  0  0
  5  6  1  0  0  0
  5 26  1  0  0  0
  5 90  1  0  0  0
  6 25  1  0  0  0
  6 91  1  0  0  0
  6 92  1  0  0  0
  7  8  2  0  0  0
  7 26  1  0  0  0
  7 29  1  0  0  0
  8  9  1  0  0  0
  8 22  1  0  0  0
  9 10  1  0  0  0
  9 27  2  0  0  0
 10 11  2  0  0  0
 10 15  1  0  0  0
 11 12  1  0  0  0
 11 93  1  0  0  0
 12 13  2  0  0  0
 12 94  1  0  0  0
 13 14  1  0  0  0
 13 31  1  0  0  0
 14 15  2  0  0  0
 14 95  1  0  0  0
 15 96  1  0  0  0
 16 17  2  0  0  0
 16 21  1  0  0  0
 16 31  1  0  0  0
 17 18  1  0  0  0
 17 97  1  0  0  0
 18 19  2  0  0  0
 18 98  1  0  0  0
 19 20  1  0  0  0
 19 24  1  0  0  0
 20 21  2  0  0  0
 20 99  1  0  0  0
 21 23  1  0  0  0
 22 28  1  0  0  0
 22 32  2  0  0  0
 26 27  1  0  0  0
 28100  1  0  0  0
 28101  1  0  0  0
 29102  1  0  0  0
 29103  1  0  0  0
 33 34  1  0  0  0
 33 66  1  0  0  0
 33 70  2  0  0  0
 34 36  1  0  0  0
 34 59  1  0  0  0
 34104  1  0  0  0
 35 44  2  0  0  0
 35 45  1  0  0  0
 35 68  1  0  0  0
 36 56  1  0  0  0
 36105  1  0  0  0
 37 39  1  0  0  0
 37 47  1  0  0  0
 37 66  1  0  0  0
 37106  1  0  0  0
 38 43  2  0  0  0
 38 46  1  0  0  0
 38 47  1  0  0  0
 39 64  1  0  0  0
 39 67  2  0  0  0
 40 52  1  0  0  0
 40 53  2  0  0  0
 40 58  1  0  0  0
 41107  1  0  0  0
 41108  1  0  0  0
 41109  1  0  0  0
 41 48  1  0  0  0
 42 43  1  0  0  0
 42 66  1  0  0  0
 42110  1  0  0  0
 42111  1  0  0  0
 43 44  1  0  0  0
 44112  1  0  0  0
 45 46  2  0  0  0
 45113  1  0  0  0
 46114  1  0  0  0
 47115  1  0  0  0
 47116  1  0  0  0
 48 56  1  0  0  0
 48 65  1  0  0  0
 48117  1  0  0  0
 49 50  1  0  0  0
 49 53  1  0  0  0
 49 64  1  0  0  0
 49118  1  0  0  0
 50 51  1  0  0  0
 50119  1  0  0  0
 50120  1  0  0  0
 51 52  1  0  0  0
 51121  1  0  0  0
 51122  1  0  0  0
 52123  1  0  0  0
 52124  1  0  0  0
 53 54  1  0  0  0
 54 55  2  0  0  0
 54125  1  0  0  0
 55 57  1  0  0  0
 55126  1  0  0  0
 56 69  2  0  0  0
 57 58  2  0  0  0
 57127  1  0  0  0
 58128  1  0  0  0
 59 60  1  0  0  0
 59 61  1  0  0  0
 59 62  1  0  0  0
 60129  1  0  0  0
 60130  1  0  0  0
 60131  1  0  0  0
 61132  1  0  0  0
 61133  1  0  0  0
 61134  1  0  0  0
 62135  1  0  0  0
 62136  1  0  0  0
 62137  1  0  0  0
 63 65  1  0  0  0
 63138  1  0  0  0
 63139  1  0  0  0
 63140  1  0  0  0
 64141  1  0  0  0
 65142  1  0  0  0
 68 77  1  0  0  0
 71 72  2  0  0  0
 71 79  1  0  0  0
 71143  1  0  0  0
 72 80  1  0  0  0
 72 83  1  0  0  0
 73 74  1  0  0  0
 73 79  2  0  0  0
 73 83  1  0  0  0
 74 75  1  0  0  0
 74 81  2  0  0  0
 75 78  1  0  0  0
 75144  1  0  0  0
 75145  1  0  0  0
 76 77  1  0  0  0
 76 78  1  0  0  0
 76146  1  0  0  0
 76147  1  0  0  0
 77148  1  0  0  0
 77149  1  0  0  0
 78 82  1  0  0  0
 78150  1  0  0  0
 80151  1  0  0  0
 82152  1  0  0  0
M  ISO  4   1 100  68 101  77 101  80 100
M  END
> <chiral flag>
0

> <version>
0

> <s_m_source_file>
/data/baiqing/PycharmProjects/Reinvent-master-3.2/result/LINK_invent/BTK/process_docking_weight1_custom_product_contain_oxygen_bond_distance_aromatic_linkinvent_7_9_3/rearranged_h_0189.sdf

> <i_m_source_file_index>
93

> <r_mmod_Potential_Energy-OPLS-2005>
-43.6212615966797

> <r_mmod_Stretch_Energy-OPLS-2005>
36.1021118164062

> <r_mmod_Bend_Energy-OPLS-2005>
95.2144088745117

> <r_mmod_Torsional_Energy-OPLS-2005>
228.728225708008

> <r_mmod_Improper_Torsional_Energy-OPLS-2005>
3.40414595603943

> <r_mmod_Van_der_Waal_Energy-OPLS-2005>
130.461639404297

> <r_mmod_Electrostatic_Energy-OPLS-2005>
-313.035491943359

> <r_mmod_Solvation_Energy-OPLS-2005>
-235.245635986328

> <b_mmod_Minimization_Converged-OPLS-2005>
0

> <r_mmod_RMS_Derivative-OPLS-2005>
2.05268454551697

$$$$
93
                    3D
 Structure written by MMmdl.
159167  0  0  1  0            999 V2000
  -30.7888  -14.3986   20.6656 C   0  0  0  0  0  0
  -30.4141  -12.3029   19.4066 C   0  0  0  0  0  0
  -29.4912  -12.5451   18.1978 C   0  0  0  0  0  0
  -28.0154  -12.3964   18.6132 C   0  0  0  0  0  0
  -27.6706  -13.2197   19.8842 C   0  0  2  0  0  0
  -28.7135  -12.9914   21.0057 C   0  0  0  0  0  0
  -25.2624  -13.8211   20.5722 C   0  0  0  0  0  0
  -24.1855  -13.0462   20.9176 C   0  0  0  0  0  0
  -24.6421  -11.6931   20.8734 C   0  0  0  0  0  0
  -23.9082  -10.4304   21.0409 C   0  0  0  0  0  0
  -24.3620   -9.4223   21.9191 C   0  0  0  0  0  0
  -23.6298   -8.2250   22.0744 C   0  0  0  0  0  0
  -22.4296   -8.0274   21.3529 C   0  0  0  0  0  0
  -21.9929   -9.0253   20.4636 C   0  0  0  0  0  0
  -22.7258  -10.2147   20.3051 C   0  0  0  0  0  0
  -21.6847   -6.0731   22.5273 C   0  0  0  0  0  0
  -21.3999   -6.5628   23.8216 C   0  0  0  0  0  0
  -21.3667   -5.6795   24.9176 C   0  0  0  0  0  0
  -21.6056   -4.3052   24.7243 C   0  0  0  0  0  0
  -21.8807   -3.8136   23.4356 C   0  0  0  0  0  0
  -21.9187   -4.6944   22.3416 C   0  0  0  0  0  0
  -22.7866  -13.5256   21.1803 C   0  0  0  0  0  0
  -22.1650   -4.2122   21.1000 F   0  0  0  0  0  0
  -21.5660   -3.4551   25.7770 F   0  0  0  0  0  0
  -30.0542  -13.2689   20.4606 N   0  0  0  0  0  0
  -26.3085  -12.9402   20.3425 N   0  0  0  0  0  0
  -25.9366  -11.6546   20.5801 N   0  0  0  0  0  0
  -22.0459  -12.8278   22.0335 N   0  0  0  0  0  0
  -25.4366  -15.1931   20.4232 N   0  0  0  0  0  0
  -31.8117  -14.6534   20.0260 O   0  0  0  0  0  0
  -21.6639   -6.8871   21.4234 O   0  0  0  0  0  0
  -22.3546  -14.5536   20.6621 O   0  0  0  0  0  0
  -24.6078  -31.8657   23.2158 C   0  0  0  0  0  0
  -25.8964  -32.4843   23.8432 C   0  0  1  0  0  0
  -27.2411  -27.4312   20.1052 C   0  0  0  0  0  0
  -25.5824  -33.8643   24.2334 N   0  0  0  0  0  0
  -23.3984  -30.4910   21.5517 C   0  0  2  0  0  0
  -24.8503  -28.9579   20.1180 C   0  0  0  0  0  0
  -22.7340  -29.4634   22.4967 C   0  0  0  0  0  0
  -18.0245  -28.1345   22.8522 C   0  0  0  0  0  0
  -24.1478  -36.7329   23.2640 C   0  0  0  0  0  0
  -25.9262  -30.8312   21.3709 C   0  0  0  0  0  0
  -26.0055  -29.4629   20.7249 C   0  0  0  0  0  0
  -27.1981  -28.7014   20.7244 C   0  0  0  0  0  0
  -26.0652  -26.9450   19.4883 C   0  0  0  0  0  0
  -24.8754  -27.6968   19.4990 C   0  0  0  0  0  0
  -23.6118  -29.8255   20.1659 C   0  0  0  0  0  0
  -25.4089  -36.3108   24.0337 C   0  0  1  0  0  0
  -20.5829  -28.3600   23.1339 C   0  0  2  0  0  0
  -20.6728  -26.9343   22.5417 C   0  0  0  0  0  0
  -19.5719  -26.6366   21.5204 C   0  0  0  0  0  0
  -18.1901  -26.7902   22.1631 C   0  0  0  0  0  0
  -19.1495  -28.8785   23.2942 C   0  0  0  0  0  0
  -18.9429  -30.1397   23.8943 C   0  0  0  0  0  0
  -17.6440  -30.6578   24.0551 C   0  0  0  0  0  0
  -25.8994  -34.9481   23.5132 C   0  0  0  0  0  0
  -16.5322  -29.9077   23.6335 C   0  0  0  0  0  0
  -16.7234  -28.6480   23.0376 C   0  0  0  0  0  0
  -26.4444  -31.6627   25.0742 C   0  0  0  0  0  0
  -25.3756  -31.3727   26.1518 C   0  0  0  0  0  0
  -27.0258  -30.3058   24.6128 C   0  0  0  0  0  0
  -27.6011  -32.4341   25.7523 C   0  0  0  0  0  0
  -27.5564  -37.1816   24.8453 C   0  0  0  0  0  0
  -21.4054  -29.2994   22.3734 N   0  0  0  0  0  0
  -26.4276  -37.3781   23.9406 N   0  0  0  0  0  0
  -24.6629  -31.0764   22.1062 N   0  0  0  0  0  0
  -23.4115  -28.8138   23.2979 O   0  0  0  0  0  0
  -28.4296  -26.7256   20.1417 O   0  0  0  0  0  0
  -26.5584  -34.8918   22.4709 O   0  0  0  0  0  0
  -23.5270  -32.1381   23.7555 O   0  0  0  0  0  0
  -30.6195  -18.9171   21.4156 C   0  0  0  0  0  0
  -28.5070  -18.9638   21.8944 C   0  0  0  0  0  0
  -30.2236  -17.6727   21.8613 C   0  0  0  0  0  0
  -27.2378  -22.8133   18.3267 C   0  0  0  0  0  0
  -31.0399  -16.4312   22.1013 C   0  0  0  0  0  0
  -28.1189  -21.5895   20.3698 C   0  0  0  0  0  0
  -28.0525  -24.2258   20.2854 C   0  0  0  0  0  0
  -29.4266  -21.1701   21.0933 C   0  0  0  0  0  0
  -28.5616  -25.4562   19.4850 C   0  0  0  0  0  0
  -28.2253  -22.8852   19.5091 C   0  0  2  0  0  0
  -28.8656  -17.7108   22.1649 N   0  0  0  0  0  0
  -29.4948  -19.7435   21.4303 N   0  0  0  0  0  0
  -30.3646  -15.2139   21.6427 N   0  0  0  0  0  0
  -31.4614  -12.3746   19.1043 H   0  0  0  0  0  0
  -30.2873  -11.2831   19.7748 H   0  0  0  0  0  0
  -29.7264  -11.8490   17.3914 H   0  0  0  0  0  0
  -29.6658  -13.5467   17.7978 H   0  0  0  0  0  0
  -27.8273  -11.3370   18.7951 H   0  0  0  0  0  0
  -27.3613  -12.6807   17.7882 H   0  0  0  0  0  0
  -27.7251  -14.2722   19.6023 H   0  0  0  0  0  0
  -28.6784  -11.9613   21.3646 H   0  0  0  0  0  0
  -28.4688  -13.6149   21.8682 H   0  0  0  0  0  0
  -25.2758   -9.5698   22.4768 H   0  0  0  0  0  0
  -24.0007   -7.4645   22.7449 H   0  0  0  0  0  0
  -21.0858   -8.8765   19.8952 H   0  0  0  0  0  0
  -22.3702  -10.9675   19.6148 H   0  0  0  0  0  0
  -21.1938   -7.6131   23.9696 H   0  0  0  0  0  0
  -21.1523   -6.0534   25.9080 H   0  0  0  0  0  0
  -22.0567   -2.7591   23.2877 H   0  0  0  0  0  0
  -22.4081  -12.0026   22.4886 H   0  0  0  0  0  0
  -21.1016  -13.1276   22.2341 H   0  0  0  0  0  0
  -24.6831  -15.8581   20.5658 H   0  0  0  0  0  0
  -26.3183  -15.6375   20.1925 H   0  0  0  0  0  0
  -26.7006  -32.5566   23.1178 H   0  0  0  0  0  0
  -24.9992  -33.9843   25.0482 H   0  0  0  0  0  0
  -22.6869  -31.3069   21.4126 H   0  0  0  0  0  0
  -23.3728  -35.9675   23.3307 H   0  0  0  0  0  0
  -24.3567  -36.8943   22.2054 H   0  0  0  0  0  0
  -23.7257  -37.6543   23.6660 H   0  0  0  0  0  0
  -26.0217  -31.5986   20.6011 H   0  0  0  0  0  0
  -26.8164  -30.8941   21.9850 H   0  0  0  0  0  0
  -28.0891  -29.0810   21.2062 H   0  0  0  0  0  0
  -26.0487  -25.9887   18.9906 H   0  0  0  0  0  0
  -23.9898  -27.3037   19.0184 H   0  0  0  0  0  0
  -23.7130  -30.6031   19.4071 H   0  0  0  0  0  0
  -22.7380  -29.2424   19.8712 H   0  0  0  0  0  0
  -25.1277  -36.1982   25.0834 H   0  0  0  0  0  0
  -20.9932  -28.3161   24.1449 H   0  0  0  0  0  0
  -20.5594  -26.2184   23.3571 H   0  0  0  0  0  0
  -21.6605  -26.7383   22.1227 H   0  0  0  0  0  0
  -19.6871  -25.6281   21.1224 H   0  0  0  0  0  0
  -19.6694  -27.3181   20.6748 H   0  0  0  0  0  0
  -17.4149  -26.6621   21.4061 H   0  0  0  0  0  0
  -18.0347  -26.0024   22.9016 H   0  0  0  0  0  0
  -19.7892  -30.7207   24.2333 H   0  0  0  0  0  0
  -17.4986  -31.6281   24.5097 H   0  0  0  0  0  0
  -15.5315  -30.2991   23.7640 H   0  0  0  0  0  0
  -15.8622  -28.0806   22.7098 H   0  0  0  0  0  0
  -24.5925  -30.7064   25.7891 H   0  0  0  0  0  0
  -24.8967  -32.2886   26.4994 H   0  0  0  0  0  0
  -25.8153  -30.8908   27.0259 H   0  0  0  0  0  0
  -26.2799  -29.6868   24.1129 H   0  0  0  0  0  0
  -27.3925  -29.7255   25.4605 H   0  0  0  0  0  0
  -27.8689  -30.4345   23.9334 H   0  0  0  0  0  0
  -27.2611  -33.3610   26.2161 H   0  0  0  0  0  0
  -28.3834  -32.6949   25.0385 H   0  0  0  0  0  0
  -28.0677  -31.8436   26.5423 H   0  0  0  0  0  0
  -28.2573  -38.0112   24.7472 H   0  0  0  0  0  0
  -28.1059  -36.2640   24.6308 H   0  0  0  0  0  0
  -27.2278  -37.1506   25.8851 H   0  0  0  0  0  0
  -20.9106  -29.8744   21.7048 H   0  0  0  0  0  0
  -26.0168  -38.2855   24.1415 H   0  0  0  0  0  0
  -31.5969  -19.2686   21.1085 H   0  0  0  0  0  0
  -27.5049  -19.3316   22.0553 H   0  0  0  0  0  0
  -27.3321  -21.8786   17.7743 H   0  0  0  0  0  0
  -27.3977  -23.6073   17.5974 H   0  0  0  0  0  0
  -26.2059  -22.8879   18.6643 H   0  0  0  0  0  0
  -31.1978  -16.3211   23.1742 H   0  0  0  0  0  0
  -32.0381  -16.5301   21.6688 H   0  0  0  0  0  0
  -27.2899  -21.6654   21.0759 H   0  0  0  0  0  0
  -27.8494  -20.7617   19.7109 H   0  0  0  0  0  0
  -27.0045  -24.3747   20.5468 H   0  0  0  0  0  0
  -28.5955  -24.1758   21.2315 H   0  0  0  0  0  0
  -29.5449  -21.7421   22.0119 H   0  0  0  0  0  0
  -30.2849  -21.4056   20.4632 H   0  0  0  0  0  0
  -29.6295  -25.3191   19.3225 H   0  0  0  0  0  0
  -28.1395  -25.4986   18.4833 H   0  0  0  0  0  0
  -29.2250  -22.8846   19.0755 H   0  0  0  0  0  0
  -29.5057  -14.9749   22.1120 H   0  0  0  0  0  0
  1 25  1  0  0  0
  1 30  2  0  0  0
  1 83  1  0  0  0
  2  3  1  0  0  0
  2 25  1  0  0  0
  2 84  1  0  0  0
  2 85  1  0  0  0
  3  4  1  0  0  0
  3 86  1  0  0  0
  3 87  1  0  0  0
  4  5  1  0  0  0
  4 88  1  0  0  0
  4 89  1  0  0  0
  5  6  1  0  0  0
  5 26  1  0  0  0
  5 90  1  0  0  0
  6 25  1  0  0  0
  6 91  1  0  0  0
  6 92  1  0  0  0
  7  8  2  0  0  0
  7 26  1  0  0  0
  7 29  1  0  0  0
  8  9  1  0  0  0
  8 22  1  0  0  0
  9 10  1  0  0  0
  9 27  2  0  0  0
 10 11  2  0  0  0
 10 15  1  0  0  0
 11 12  1  0  0  0
 11 93  1  0  0  0
 12 13  2  0  0  0
 12 94  1  0  0  0
 13 14  1  0  0  0
 13 31  1  0  0  0
 14 15  2  0  0  0
 14 95  1  0  0  0
 15 96  1  0  0  0
 16 17  2  0  0  0
 16 21  1  0  0  0
 16 31  1  0  0  0
 17 18  1  0  0  0
 17 97  1  0  0  0
 18 19  2  0  0  0
 18 98  1  0  0  0
 19 20  1  0  0  0
 19 24  1  0  0  0
 20 21  2  0  0  0
 20 99  1  0  0  0
 21 23  1  0  0  0
 22 28  1  0  0  0
 22 32  2  0  0  0
 26 27  1  0  0  0
 28100  1  0  0  0
 28101  1  0  0  0
 29102  1  0  0  0
 29103  1  0  0  0
 33 34  1  0  0  0
 33 66  1  0  0  0
 33 70  2  0  0  0
 34 36  1  0  0  0
 34 59  1  0  0  0
 34104  1  0  0  0
 35 44  2  0  0  0
 35 45  1  0  0  0
 35 68  1  0  0  0
 36 56  1  0  0  0
 36105  1  0  0  0
 37 39  1  0  0  0
 37 47  1  0  0  0
 37 66  1  0  0  0
 37106  1  0  0  0
 38 43  2  0  0  0
 38 46  1  0  0  0
 38 47  1  0  0  0
 39 64  1  0  0  0
 39 67  2  0  0  0
 40 52  1  0  0  0
 40 53  2  0  0  0
 40 58  1  0  0  0
 41107  1  0  0  0
 41108  1  0  0  0
 41109  1  0  0  0
 41 48  1  0  0  0
 42 43  1  0  0  0
 42 66  1  0  0  0
 42110  1  0  0  0
 42111  1  0  0  0
 43 44  1  0  0  0
 44112  1  0  0  0
 45 46  2  0  0  0
 45113  1  0  0  0
 46114  1  0  0  0
 47115  1  0  0  0
 47116  1  0  0  0
 48 56  1  0  0  0
 48 65  1  0  0  0
 48117  1  0  0  0
 49 50  1  0  0  0
 49 53  1  0  0  0
 49 64  1  0  0  0
 49118  1  0  0  0
 50 51  1  0  0  0
 50119  1  0  0  0
 50120  1  0  0  0
 51 52  1  0  0  0
 51121  1  0  0  0
 51122  1  0  0  0
 52123  1  0  0  0
 52124  1  0  0  0
 53 54  1  0  0  0
 54 55  2  0  0  0
 54125  1  0  0  0
 55 57  1  0  0  0
 55126  1  0  0  0
 56 69  2  0  0  0
 57 58  2  0  0  0
 57127  1  0  0  0
 58128  1  0  0  0
 59 60  1  0  0  0
 59 61  1  0  0  0
 59 62  1  0  0  0
 60129  1  0  0  0
 60130  1  0  0  0
 60131  1  0  0  0
 61132  1  0  0  0
 61133  1  0  0  0
 61134  1  0  0  0
 62135  1  0  0  0
 62136  1  0  0  0
 62137  1  0  0  0
 63 65  1  0  0  0
 63138  1  0  0  0
 63139  1  0  0  0
 63140  1  0  0  0
 64141  1  0  0  0
 65142  1  0  0  0
 68 79  1  0  0  0
 71 73  2  0  0  0
 71 82  1  0  0  0
 71143  1  0  0  0
 72 81  2  0  0  0
 72 82  1  0  0  0
 72144  1  0  0  0
 73 75  1  0  0  0
 73 81  1  0  0  0
 74145  1  0  0  0
 74146  1  0  0  0
 74147  1  0  0  0
 74 80  1  0  0  0
 75 83  1  0  0  0
 75148  1  0  0  0
 75149  1  0  0  0
 76 78  1  0  0  0
 76 80  1  0  0  0
 76150  1  0  0  0
 76151  1  0  0  0
 77 79  1  0  0  0
 77 80  1  0  0  0
 77152  1  0  0  0
 77153  1  0  0  0
 78 82  1  0  0  0
 78154  1  0  0  0
 78155  1  0  0  0
 79156  1  0  0  0
 79157  1  0  0  0
 80158  1  0  0  0
 83159  1  0  0  0
M  ISO  4   1 100  68 101  79 101  83 100
M  END
> <chiral flag>
0

> <version>
0

> <s_m_source_file>
/data/baiqing/PycharmProjects/Reinvent-master-3.2/result/LINK_invent/BTK/process_docking_weight1_custom_product_contain_oxygen_bond_distance_aromatic_linkinvent_7_9_3/rearranged_h_0189.sdf

> <i_m_source_file_index>
94

> <r_mmod_Potential_Energy-OPLS-2005>
-172.577743530273

> <r_mmod_Stretch_Energy-OPLS-2005>
37.1899642944336

> <r_mmod_Bend_Energy-OPLS-2005>
112.95295715332

> <r_mmod_Torsional_Energy-OPLS-2005>
204.156524658203

> <r_mmod_Improper_Torsional_Energy-OPLS-2005>
1.91690015792847

> <r_mmod_Van_der_Waal_Energy-OPLS-2005>
130.112655639648

> <r_mmod_Electrostatic_Energy-OPLS-2005>
-455.530944824219

> <r_mmod_Solvation_Energy-OPLS-2005>
-213.477096557617

> <b_mmod_Minimization_Converged-OPLS-2005>
0

> <r_mmod_RMS_Derivative-OPLS-2005>
4.73183965682983

$$$$
94
                    3D
 Structure written by MMmdl.
157165  0  0  1  0            999 V2000
  -30.6825  -14.5326   20.5660 C   0  0  0  0  0  0
  -30.4175  -12.3425   19.4455 C   0  0  0  0  0  0
  -29.4953  -12.5140   18.2218 C   0  0  0  0  0  0
  -28.0181  -12.3664   18.6308 C   0  0  0  0  0  0
  -27.6575  -13.2134   19.8788 C   0  0  2  0  0  0
  -28.6954  -13.0275   21.0088 C   0  0  0  0  0  0
  -25.2553  -13.8173   20.5676 C   0  0  0  0  0  0
  -24.1807  -13.0442   20.9154 C   0  0  0  0  0  0
  -24.6367  -11.6909   20.8754 C   0  0  0  0  0  0
  -23.9046  -10.4289   21.0429 C   0  0  0  0  0  0
  -24.3609   -9.4190   21.9195 C   0  0  0  0  0  0
  -23.6278   -8.2228   22.0773 C   0  0  0  0  0  0
  -22.4257   -8.0271   21.3555 C   0  0  0  0  0  0
  -21.9899   -9.0247   20.4646 C   0  0  0  0  0  0
  -22.7234  -10.2124   20.3051 C   0  0  0  0  0  0
  -21.6841   -6.0717   22.5275 C   0  0  0  0  0  0
  -21.4001   -6.5627   23.8199 C   0  0  0  0  0  0
  -21.3656   -5.6796   24.9175 C   0  0  0  0  0  0
  -21.6059   -4.3059   24.7232 C   0  0  0  0  0  0
  -21.8827   -3.8128   23.4360 C   0  0  0  0  0  0
  -21.9195   -4.6944   22.3413 C   0  0  0  0  0  0
  -22.7822  -13.5234   21.1847 C   0  0  0  0  0  0
  -22.1661   -4.2131   21.0992 F   0  0  0  0  0  0
  -21.5650   -3.4542   25.7741 F   0  0  0  0  0  0
  -30.0188  -13.3437   20.4561 N   0  0  0  0  0  0
  -26.2992  -12.9349   20.3376 N   0  0  0  0  0  0
  -25.9299  -11.6497   20.5804 N   0  0  0  0  0  0
  -22.0507  -12.8180   22.0407 N   0  0  0  0  0  0
  -25.4269  -15.1904   20.4034 N   0  0  0  0  0  0
  -31.8179  -14.6822   20.1092 O   0  0  0  0  0  0
  -21.6628   -6.8862   21.4238 O   0  0  0  0  0  0
  -22.3476  -14.5558   20.6745 O   0  0  0  0  0  0
  -24.6172  -31.8669   23.2070 C   0  0  0  0  0  0
  -25.9032  -32.4827   23.8387 C   0  0  1  0  0  0
  -27.2245  -27.3860   20.1127 C   0  0  0  0  0  0
  -25.5868  -33.8628   24.2291 N   0  0  0  0  0  0
  -23.4057  -30.4904   21.5485 C   0  0  2  0  0  0
  -24.8554  -28.9591   20.1092 C   0  0  0  0  0  0
  -22.7420  -29.4653   22.4964 C   0  0  0  0  0  0
  -18.0271  -28.1390   22.8514 C   0  0  0  0  0  0
  -24.1486  -36.7316   23.2642 C   0  0  0  0  0  0
  -25.9410  -30.8181   21.3701 C   0  0  0  0  0  0
  -26.0181  -29.4515   20.7139 C   0  0  0  0  0  0
  -27.2061  -28.6743   20.7098 C   0  0  0  0  0  0
  -26.0428  -26.9339   19.4790 C   0  0  0  0  0  0
  -24.8678  -27.7048   19.4806 C   0  0  0  0  0  0
  -23.6151  -29.8227   20.1645 C   0  0  0  0  0  0
  -25.4126  -36.3133   24.0332 C   0  0  1  0  0  0
  -20.5862  -28.3679   23.1326 C   0  0  2  0  0  0
  -20.6756  -26.9399   22.5453 C   0  0  0  0  0  0
  -19.5729  -26.6390   21.5242 C   0  0  0  0  0  0
  -18.1907  -26.7948   22.1646 C   0  0  0  0  0  0
  -19.1525  -28.8850   23.2915 C   0  0  0  0  0  0
  -18.9457  -30.1464   23.8922 C   0  0  0  0  0  0
  -17.6456  -30.6612   24.0581 C   0  0  0  0  0  0
  -25.9052  -34.9493   23.5119 C   0  0  0  0  0  0
  -16.5341  -29.9109   23.6345 C   0  0  0  0  0  0
  -16.7260  -28.6516   23.0377 C   0  0  0  0  0  0
  -26.4457  -31.6630   25.0738 C   0  0  0  0  0  0
  -25.3691  -31.3734   26.1464 C   0  0  0  0  0  0
  -27.0298  -30.3068   24.6136 C   0  0  0  0  0  0
  -27.6030  -32.4363   25.7506 C   0  0  0  0  0  0
  -27.5596  -37.1810   24.8462 C   0  0  0  0  0  0
  -21.4134  -29.3047   22.3717 N   0  0  0  0  0  0
  -26.4311  -37.3822   23.9401 N   0  0  0  0  0  0
  -24.6727  -31.0745   22.0989 N   0  0  0  0  0  0
  -23.4189  -28.8182   23.3001 O   0  0  0  0  0  0
  -28.3622  -26.5867   20.1779 O   0  0  0  0  0  0
  -26.5633  -34.8952   22.4688 O   0  0  0  0  0  0
  -23.5351  -32.1446   23.7420 O   0  0  0  0  0  0
  -28.5490  -18.0995   22.2490 C   0  0  0  0  0  0
  -29.5635  -18.1484   21.3243 C   0  0  0  0  0  0
  -28.9100  -20.3810   21.3473 C   0  0  0  0  0  0
  -29.4875  -24.4382   22.0746 C   0  0  0  0  0  0
  -28.8222  -22.4709   18.7050 C   0  0  0  0  0  0
  -30.4878  -16.9995   20.9101 C   0  0  0  0  0  0
  -28.1888  -25.1504   20.0008 C   0  0  0  0  0  0
  -29.3556  -24.2568   20.5476 C   0  0  2  0  0  0
  -29.4016  -22.7250   20.1105 C   0  0  1  0  0  0
  -29.7331  -19.4628   20.8004 N   0  0  0  0  0  0
  -28.8359  -21.7647   21.0772 N   0  0  0  0  0  0
  -29.9900  -15.6010   21.0358 N   0  0  0  0  0  0
  -27.8291  -19.6678   22.5398 S   0  0  0  0  0  0
  -31.4608  -12.4405   19.1391 H   0  0  0  0  0  0
  -30.3253  -11.3377   19.8562 H   0  0  0  0  0  0
  -29.7433  -11.7845   17.4506 H   0  0  0  0  0  0
  -29.6562  -13.4964   17.7787 H   0  0  0  0  0  0
  -27.8309  -11.3126   18.8372 H   0  0  0  0  0  0
  -27.3677  -12.6331   17.7977 H   0  0  0  0  0  0
  -27.6946  -14.2596   19.5726 H   0  0  0  0  0  0
  -28.6815  -12.0003   21.3771 H   0  0  0  0  0  0
  -28.4503  -13.6489   21.8715 H   0  0  0  0  0  0
  -25.2772   -9.5665   22.4749 H   0  0  0  0  0  0
  -24.0003   -7.4619   22.7488 H   0  0  0  0  0  0
  -21.0845   -8.8747   19.8920 H   0  0  0  0  0  0
  -22.3697  -10.9664   19.6149 H   0  0  0  0  0  0
  -21.1963   -7.6129   23.9684 H   0  0  0  0  0  0
  -21.1481   -6.0534   25.9082 H   0  0  0  0  0  0
  -22.0608   -2.7588   23.2866 H   0  0  0  0  0  0
  -22.4126  -11.9812   22.4731 H   0  0  0  0  0  0
  -21.1134  -13.1164   22.2700 H   0  0  0  0  0  0
  -24.6594  -15.8476   20.4913 H   0  0  0  0  0  0
  -26.2849  -15.6224   20.0862 H   0  0  0  0  0  0
  -26.7077  -32.5543   23.1131 H   0  0  0  0  0  0
  -24.9959  -33.9797   25.0398 H   0  0  0  0  0  0
  -22.6969  -31.3098   21.4057 H   0  0  0  0  0  0
  -23.3795  -35.9599   23.3288 H   0  0  0  0  0  0
  -24.3555  -36.8978   22.2054 H   0  0  0  0  0  0
  -23.7180  -37.6477   23.6699 H   0  0  0  0  0  0
  -26.0544  -31.5819   20.5991 H   0  0  0  0  0  0
  -26.8289  -30.8744   21.9897 H   0  0  0  0  0  0
  -28.0978  -29.0451   21.1945 H   0  0  0  0  0  0
  -26.0024  -25.9789   18.9767 H   0  0  0  0  0  0
  -23.9786  -27.3243   18.9971 H   0  0  0  0  0  0
  -23.7081  -30.5937   19.3996 H   0  0  0  0  0  0
  -22.7421  -29.2330   19.8773 H   0  0  0  0  0  0
  -25.1283  -36.2005   25.0823 H   0  0  0  0  0  0
  -20.9959  -28.3274   24.1444 H   0  0  0  0  0  0
  -20.5667  -26.2276   23.3658 H   0  0  0  0  0  0
  -21.6624  -26.7452   22.1231 H   0  0  0  0  0  0
  -19.6890  -25.6305   21.1262 H   0  0  0  0  0  0
  -19.6665  -27.3214   20.6784 H   0  0  0  0  0  0
  -17.4184  -26.6755   21.4034 H   0  0  0  0  0  0
  -18.0246  -26.0067   22.9007 H   0  0  0  0  0  0
  -19.7931  -30.7266   24.2307 H   0  0  0  0  0  0
  -17.5025  -31.6299   24.5171 H   0  0  0  0  0  0
  -15.5350  -30.3026   23.7651 H   0  0  0  0  0  0
  -15.8664  -28.0843   22.7098 H   0  0  0  0  0  0
  -24.5847  -30.7113   25.7784 H   0  0  0  0  0  0
  -24.8896  -32.2887   26.4941 H   0  0  0  0  0  0
  -25.8023  -30.8866   27.0214 H   0  0  0  0  0  0
  -26.2867  -29.6823   24.1168 H   0  0  0  0  0  0
  -27.4025  -29.7309   25.4622 H   0  0  0  0  0  0
  -27.8720  -30.4374   23.9338 H   0  0  0  0  0  0
  -27.2654  -33.3670   26.2082 H   0  0  0  0  0  0
  -28.3842  -32.6913   25.0332 H   0  0  0  0  0  0
  -28.0689  -31.8484   26.5418 H   0  0  0  0  0  0
  -28.2603  -38.0129   24.7563 H   0  0  0  0  0  0
  -28.1119  -36.2652   24.6255 H   0  0  0  0  0  0
  -27.2305  -37.1409   25.8868 H   0  0  0  0  0  0
  -20.9299  -29.8766   21.6928 H   0  0  0  0  0  0
  -26.0216  -38.2896   24.1475 H   0  0  0  0  0  0
  -28.1990  -17.2459   22.8127 H   0  0  0  0  0  0
  -29.6551  -25.4845   22.3343 H   0  0  0  0  0  0
  -30.3217  -23.8637   22.4796 H   0  0  0  0  0  0
  -28.5811  -24.1240   22.5957 H   0  0  0  0  0  0
  -29.3172  -23.0801   17.9469 H   0  0  0  0  0  0
  -27.7553  -22.6935   18.6631 H   0  0  0  0  0  0
  -28.9374  -21.4297   18.4021 H   0  0  0  0  0  0
  -31.4035  -17.0647   21.4995 H   0  0  0  0  0  0
  -30.8000  -17.1520   19.8745 H   0  0  0  0  0  0
  -27.2670  -24.8132   20.4798 H   0  0  0  0  0  0
  -28.0713  -24.9902   18.9299 H   0  0  0  0  0  0
  -30.2554  -24.6944   20.1101 H   0  0  0  0  0  0
  -30.4602  -22.4658   20.0627 H   0  0  0  0  0  0
  -28.2295  -22.2254   21.7473 H   0  0  0  0  0  0
  -29.0605  -15.4529   21.3968 H   0  0  0  0  0  0
  1 25  1  0  0  0
  1 30  2  0  0  0
  1 82  1  0  0  0
  2  3  1  0  0  0
  2 25  1  0  0  0
  2 84  1  0  0  0
  2 85  1  0  0  0
  3  4  1  0  0  0
  3 86  1  0  0  0
  3 87  1  0  0  0
  4  5  1  0  0  0
  4 88  1  0  0  0
  4 89  1  0  0  0
  5  6  1  0  0  0
  5 26  1  0  0  0
  5 90  1  0  0  0
  6 25  1  0  0  0
  6 91  1  0  0  0
  6 92  1  0  0  0
  7  8  2  0  0  0
  7 26  1  0  0  0
  7 29  1  0  0  0
  8  9  1  0  0  0
  8 22  1  0  0  0
  9 10  1  0  0  0
  9 27  2  0  0  0
 10 11  2  0  0  0
 10 15  1  0  0  0
 11 12  1  0  0  0
 11 93  1  0  0  0
 12 13  2  0  0  0
 12 94  1  0  0  0
 13 14  1  0  0  0
 13 31  1  0  0  0
 14 15  2  0  0  0
 14 95  1  0  0  0
 15 96  1  0  0  0
 16 17  2  0  0  0
 16 21  1  0  0  0
 16 31  1  0  0  0
 17 18  1  0  0  0
 17 97  1  0  0  0
 18 19  2  0  0  0
 18 98  1  0  0  0
 19 20  1  0  0  0
 19 24  1  0  0  0
 20 21  2  0  0  0
 20 99  1  0  0  0
 21 23  1  0  0  0
 22 28  1  0  0  0
 22 32  2  0  0  0
 26 27  1  0  0  0
 28100  1  0  0  0
 28101  1  0  0  0
 29102  1  0  0  0
 29103  1  0  0  0
 33 34  1  0  0  0
 33 66  1  0  0  0
 33 70  2  0  0  0
 34 36  1  0  0  0
 34 59  1  0  0  0
 34104  1  0  0  0
 35 44  2  0  0  0
 35 45  1  0  0  0
 35 68  1  0  0  0
 36 56  1  0  0  0
 36105  1  0  0  0
 37 39  1  0  0  0
 37 47  1  0  0  0
 37 66  1  0  0  0
 37106  1  0  0  0
 38 43  2  0  0  0
 38 46  1  0  0  0
 38 47  1  0  0  0
 39 64  1  0  0  0
 39 67  2  0  0  0
 40 52  1  0  0  0
 40 53  2  0  0  0
 40 58  1  0  0  0
 41107  1  0  0  0
 41108  1  0  0  0
 41109  1  0  0  0
 41 48  1  0  0  0
 42 43  1  0  0  0
 42 66  1  0  0  0
 42110  1  0  0  0
 42111  1  0  0  0
 43 44  1  0  0  0
 44112  1  0  0  0
 45 46  2  0  0  0
 45113  1  0  0  0
 46114  1  0  0  0
 47115  1  0  0  0
 47116  1  0  0  0
 48 56  1  0  0  0
 48 65  1  0  0  0
 48117  1  0  0  0
 49 50  1  0  0  0
 49 53  1  0  0  0
 49 64  1  0  0  0
 49118  1  0  0  0
 50 51  1  0  0  0
 50119  1  0  0  0
 50120  1  0  0  0
 51 52  1  0  0  0
 51121  1  0  0  0
 51122  1  0  0  0
 52123  1  0  0  0
 52124  1  0  0  0
 53 54  1  0  0  0
 54 55  2  0  0  0
 54125  1  0  0  0
 55 57  1  0  0  0
 55126  1  0  0  0
 56 69  2  0  0  0
 57 58  2  0  0  0
 57127  1  0  0  0
 58128  1  0  0  0
 59 60  1  0  0  0
 59 61  1  0  0  0
 59 62  1  0  0  0
 60129  1  0  0  0
 60130  1  0  0  0
 60131  1  0  0  0
 61132  1  0  0  0
 61133  1  0  0  0
 61134  1  0  0  0
 62135  1  0  0  0
 62136  1  0  0  0
 62137  1  0  0  0
 63 65  1  0  0  0
 63138  1  0  0  0
 63139  1  0  0  0
 63140  1  0  0  0
 64141  1  0  0  0
 65142  1  0  0  0
 68 77  1  0  0  0
 71 72  2  0  0  0
 71 83  1  0  0  0
 71143  1  0  0  0
 72 76  1  0  0  0
 72 80  1  0  0  0
 73 80  2  0  0  0
 73 81  1  0  0  0
 73 83  1  0  0  0
 74144  1  0  0  0
 74145  1  0  0  0
 74146  1  0  0  0
 74 78  1  0  0  0
 75147  1  0  0  0
 75148  1  0  0  0
 75149  1  0  0  0
 75 79  1  0  0  0
 76 82  1  0  0  0
 76150  1  0  0  0
 76151  1  0  0  0
 77 78  1  0  0  0
 77152  1  0  0  0
 77153  1  0  0  0
 78 79  1  0  0  0
 78154  1  0  0  0
 79 81  1  0  0  0
 79155  1  0  0  0
 81156  1  0  0  0
 82157  1  0  0  0
M  ISO  4   1 100  68 101  77 101  82 100
M  END
> <chiral flag>
0

> <version>
0

> <s_m_source_file>
/data/baiqing/PycharmProjects/Reinvent-master-3.2/result/LINK_invent/BTK/process_docking_weight1_custom_product_contain_oxygen_bond_distance_aromatic_linkinvent_7_9_3/rearranged_h_0189.sdf

> <i_m_source_file_index>
95

> <r_mmod_Potential_Energy-OPLS-2005>
-218.929122924805

> <r_mmod_Stretch_Energy-OPLS-2005>
52.3188934326172

> <r_mmod_Bend_Energy-OPLS-2005>
116.495429992676

> <r_mmod_Torsional_Energy-OPLS-2005>
211.972152709961

> <r_mmod_Improper_Torsional_Energy-OPLS-2005>
4.02585792541504

> <r_mmod_Van_der_Waal_Energy-OPLS-2005>
128.269912719727

> <r_mmod_Electrostatic_Energy-OPLS-2005>
-534.248291015625

> <r_mmod_Solvation_Energy-OPLS-2005>
-221.426193237305

> <b_mmod_Minimization_Converged-OPLS-2005>
0

> <r_mmod_RMS_Derivative-OPLS-2005>
3.8567054271698

$$$$
95
                    3D
 Structure written by MMmdl.
153161  0  0  1  0            999 V2000
  -30.6198  -14.7650   20.4318 C   0  0  0  0  0  0
  -30.4317  -12.4604   19.4890 C   0  0  0  0  0  0
  -29.5144  -12.5043   18.2464 C   0  0  0  0  0  0
  -28.0408  -12.3284   18.6587 C   0  0  0  0  0  0
  -27.6434  -13.2368   19.8525 C   0  0  2  0  0  0
  -28.6879  -13.1923   20.9911 C   0  0  0  0  0  0
  -25.2515  -13.8208   20.5698 C   0  0  0  0  0  0
  -24.1811  -13.0444   20.9207 C   0  0  0  0  0  0
  -24.6411  -11.6923   20.8752 C   0  0  0  0  0  0
  -23.9083  -10.4297   21.0406 C   0  0  0  0  0  0
  -24.3627   -9.4209   21.9186 C   0  0  0  0  0  0
  -23.6299   -8.2246   22.0757 C   0  0  0  0  0  0
  -22.4282   -8.0284   21.3547 C   0  0  0  0  0  0
  -21.9918   -9.0257   20.4649 C   0  0  0  0  0  0
  -22.7251  -10.2135   20.3058 C   0  0  0  0  0  0
  -21.6853   -6.0738   22.5279 C   0  0  0  0  0  0
  -21.4017   -6.5640   23.8211 C   0  0  0  0  0  0
  -21.3659   -5.6795   24.9169 C   0  0  0  0  0  0
  -21.6039   -4.3058   24.7224 C   0  0  0  0  0  0
  -21.8822   -3.8148   23.4348 C   0  0  0  0  0  0
  -21.9194   -4.6965   22.3402 C   0  0  0  0  0  0
  -22.7826  -13.5219   21.1859 C   0  0  0  0  0  0
  -22.1662   -4.2150   21.0981 F   0  0  0  0  0  0
  -21.5625   -3.4544   25.7737 F   0  0  0  0  0  0
  -29.9908  -13.5370   20.4105 N   0  0  0  0  0  0
  -26.2953  -12.9428   20.3301 N   0  0  0  0  0  0
  -25.9346  -11.6563   20.5764 N   0  0  0  0  0  0
  -22.0477  -12.8205   22.0414 N   0  0  0  0  0  0
  -25.4197  -15.1933   20.4115 N   0  0  0  0  0  0
  -31.8027  -14.8403   20.0909 O   0  0  0  0  0  0
  -21.6644   -6.8882   21.4240 O   0  0  0  0  0  0
  -22.3505  -14.5522   20.6703 O   0  0  0  0  0  0
  -24.6338  -31.8533   23.1993 C   0  0  0  0  0  0
  -25.9157  -32.4752   23.8333 C   0  0  1  0  0  0
  -27.2100  -27.2369   20.1263 C   0  0  0  0  0  0
  -25.5947  -33.8556   24.2258 N   0  0  0  0  0  0
  -23.4328  -30.4785   21.5430 C   0  0  2  0  0  0
  -24.8811  -28.9339   20.1015 C   0  0  0  0  0  0
  -22.7522  -29.4590   22.4900 C   0  0  0  0  0  0
  -18.0291  -28.1394   22.8463 C   0  0  0  0  0  0
  -24.1492  -36.7278   23.2638 C   0  0  0  0  0  0
  -25.9821  -30.7591   21.3848 C   0  0  0  0  0  0
  -26.0542  -29.3823   20.7214 C   0  0  0  0  0  0
  -27.2216  -28.5460   20.7269 C   0  0  0  0  0  0
  -26.0253  -26.8911   19.4359 C   0  0  0  0  0  0
  -24.8739  -27.6975   19.4444 C   0  0  0  0  0  0
  -23.6515  -29.8199   20.1565 C   0  0  0  0  0  0
  -25.4120  -36.3068   24.0324 C   0  0  1  0  0  0
  -20.5899  -28.3702   23.1256 C   0  0  2  0  0  0
  -20.6779  -26.9418   22.5403 C   0  0  0  0  0  0
  -19.5758  -26.6384   21.5204 C   0  0  0  0  0  0
  -18.1935  -26.7929   22.1613 C   0  0  0  0  0  0
  -19.1547  -28.8862   23.2847 C   0  0  0  0  0  0
  -18.9470  -30.1456   23.8875 C   0  0  0  0  0  0
  -17.6472  -30.6587   24.0557 C   0  0  0  0  0  0
  -25.9065  -34.9439   23.5091 C   0  0  0  0  0  0
  -16.5359  -29.9081   23.6342 C   0  0  0  0  0  0
  -16.7276  -28.6504   23.0349 C   0  0  0  0  0  0
  -26.4514  -31.6582   25.0733 C   0  0  0  0  0  0
  -25.3727  -31.3748   26.1444 C   0  0  0  0  0  0
  -27.0365  -30.2993   24.6244 C   0  0  0  0  0  0
  -27.6067  -32.4327   25.7504 C   0  0  0  0  0  0
  -27.5579  -37.1785   24.8465 C   0  0  0  0  0  0
  -21.4225  -29.3045   22.3646 N   0  0  0  0  0  0
  -26.4291  -37.3775   23.9417 N   0  0  0  0  0  0
  -24.7023  -31.0475   22.0988 N   0  0  0  0  0  0
  -23.4205  -28.8117   23.3002 O   0  0  0  0  0  0
  -28.2549  -26.2738   20.2336 O   0  0  0  0  0  0
  -26.5634  -34.8911   22.4660 O   0  0  0  0  0  0
  -23.5482  -32.1367   23.7270 O   0  0  0  0  0  0
  -30.1248  -20.8731   21.7004 C   0  0  0  0  0  0
  -29.3577  -21.0387   20.5721 C   0  0  0  0  0  0
  -29.8112  -18.6646   20.4836 C   0  0  0  0  0  0
  -28.9979  -23.6621   20.5131 C   0  0  0  0  0  0
  -29.3076  -17.1392   18.4782 C   0  0  0  0  0  0
  -26.8556  -24.6007   21.4408 C   0  0  0  0  0  0
  -30.0713  -17.2460   19.8111 C   0  0  2  0  0  0
  -27.8718  -24.7955   20.2880 C   0  0  1  0  0  0
  -29.1927  -19.7619   19.9133 N   0  0  0  0  0  0
  -28.7303  -22.3314   20.1838 N   0  0  0  0  0  0
  -29.8595  -15.9231   20.5650 N   0  0  0  0  0  0
  -30.0821  -23.9997   20.9983 O   0  0  0  0  0  0
  -30.6308  -19.1954   21.9579 S   0  0  0  0  0  0
  -31.4749  -12.5703   19.1875 H   0  0  0  0  0  0
  -30.3679  -11.4893   19.9822 H   0  0  0  0  0  0
  -29.7993  -11.7245   17.5381 H   0  0  0  0  0  0
  -29.6416  -13.4540   17.7245 H   0  0  0  0  0  0
  -27.9004  -11.2815   18.9303 H   0  0  0  0  0  0
  -27.3841  -12.5109   17.8074 H   0  0  0  0  0  0
  -27.6328  -14.2542   19.4603 H   0  0  0  0  0  0
  -28.7229  -12.2035   21.4494 H   0  0  0  0  0  0
  -28.4226  -13.8898   21.7867 H   0  0  0  0  0  0
  -25.2774   -9.5679   22.4763 H   0  0  0  0  0  0
  -24.0002   -7.4637   22.7480 H   0  0  0  0  0  0
  -21.0847   -8.8782   19.8954 H   0  0  0  0  0  0
  -22.3713  -10.9676   19.6167 H   0  0  0  0  0  0
  -21.2016   -7.6151   23.9713 H   0  0  0  0  0  0
  -21.1474   -6.0527   25.9075 H   0  0  0  0  0  0
  -22.0602   -2.7611   23.2848 H   0  0  0  0  0  0
  -22.4100  -11.9864   22.4797 H   0  0  0  0  0  0
  -21.1096  -13.1224   22.2625 H   0  0  0  0  0  0
  -24.6501  -15.8453   20.5201 H   0  0  0  0  0  0
  -26.2613  -15.6321   20.0609 H   0  0  0  0  0  0
  -26.7213  -32.5391   23.1059 H   0  0  0  0  0  0
  -25.0108  -33.9697   25.0411 H   0  0  0  0  0  0
  -22.7307  -31.3016   21.3977 H   0  0  0  0  0  0
  -23.3760  -35.9606   23.3296 H   0  0  0  0  0  0
  -24.3578  -36.8921   22.2056 H   0  0  0  0  0  0
  -23.7241  -37.6473   23.6667 H   0  0  0  0  0  0
  -26.1255  -31.5211   20.6171 H   0  0  0  0  0  0
  -26.8578  -30.8061   22.0203 H   0  0  0  0  0  0
  -28.1096  -28.8743   21.2482 H   0  0  0  0  0  0
  -25.9420  -25.9548   18.9069 H   0  0  0  0  0  0
  -23.9824  -27.3557   18.9363 H   0  0  0  0  0  0
  -23.7756  -30.5994   19.4042 H   0  0  0  0  0  0
  -22.7693  -29.2556   19.8502 H   0  0  0  0  0  0
  -25.1295  -36.1910   25.0816 H   0  0  0  0  0  0
  -20.9974  -28.3278   24.1381 H   0  0  0  0  0  0
  -20.5691  -26.2306   23.3603 H   0  0  0  0  0  0
  -21.6645  -26.7450   22.1187 H   0  0  0  0  0  0
  -19.6936  -25.6295   21.1237 H   0  0  0  0  0  0
  -19.6706  -27.3189   20.6729 H   0  0  0  0  0  0
  -17.4210  -26.6665   21.4015 H   0  0  0  0  0  0
  -18.0329  -26.0081   22.9019 H   0  0  0  0  0  0
  -19.7953  -30.7262   24.2241 H   0  0  0  0  0  0
  -17.5037  -31.6272   24.5156 H   0  0  0  0  0  0
  -15.5359  -30.2977   23.7690 H   0  0  0  0  0  0
  -15.8675  -28.0821   22.7076 H   0  0  0  0  0  0
  -24.5910  -30.7089   25.7773 H   0  0  0  0  0  0
  -24.8899  -32.2920   26.4823 H   0  0  0  0  0  0
  -25.8024  -30.8957   27.0250 H   0  0  0  0  0  0
  -26.2959  -29.6729   24.1257 H   0  0  0  0  0  0
  -27.4028  -29.7269   25.4777 H   0  0  0  0  0  0
  -27.8846  -30.4262   23.9514 H   0  0  0  0  0  0
  -27.2693  -33.3659   26.2018 H   0  0  0  0  0  0
  -28.3903  -32.6834   25.0347 H   0  0  0  0  0  0
  -28.0694  -31.8489   26.5471 H   0  0  0  0  0  0
  -28.2577  -38.0096   24.7520 H   0  0  0  0  0  0
  -28.1088  -36.2625   24.6273 H   0  0  0  0  0  0
  -27.2292  -37.1424   25.8864 H   0  0  0  0  0  0
  -20.9411  -29.8792   21.6868 H   0  0  0  0  0  0
  -26.0162  -38.2847   24.1430 H   0  0  0  0  0  0
  -30.4182  -21.6311   22.4151 H   0  0  0  0  0  0
  -29.5801  -17.9537   17.8055 H   0  0  0  0  0  0
  -28.2294  -17.1861   18.6334 H   0  0  0  0  0  0
  -29.5319  -16.2083   17.9566 H   0  0  0  0  0  0
  -25.8706  -24.9983   21.2057 H   0  0  0  0  0  0
  -27.2010  -25.0949   22.3496 H   0  0  0  0  0  0
  -26.7002  -23.5481   21.6811 H   0  0  0  0  0  0
  -31.1309  -17.2697   19.5535 H   0  0  0  0  0  0
  -27.4136  -24.5208   19.3386 H   0  0  0  0  0  0
  -27.8918  -22.2255   19.6307 H   0  0  0  0  0  0
  -28.9256  -15.7845   20.9206 H   0  0  0  0  0  0
  1 25  1  0  0  0
  1 30  2  0  0  0
  1 81  1  0  0  0
  2  3  1  0  0  0
  2 25  1  0  0  0
  2 84  1  0  0  0
  2 85  1  0  0  0
  3  4  1  0  0  0
  3 86  1  0  0  0
  3 87  1  0  0  0
  4  5  1  0  0  0
  4 88  1  0  0  0
  4 89  1  0  0  0
  5  6  1  0  0  0
  5 26  1  0  0  0
  5 90  1  0  0  0
  6 25  1  0  0  0
  6 91  1  0  0  0
  6 92  1  0  0  0
  7  8  2  0  0  0
  7 26  1  0  0  0
  7 29  1  0  0  0
  8  9  1  0  0  0
  8 22  1  0  0  0
  9 10  1  0  0  0
  9 27  2  0  0  0
 10 11  2  0  0  0
 10 15  1  0  0  0
 11 12  1  0  0  0
 11 93  1  0  0  0
 12 13  2  0  0  0
 12 94  1  0  0  0
 13 14  1  0  0  0
 13 31  1  0  0  0
 14 15  2  0  0  0
 14 95  1  0  0  0
 15 96  1  0  0  0
 16 17  2  0  0  0
 16 21  1  0  0  0
 16 31  1  0  0  0
 17 18  1  0  0  0
 17 97  1  0  0  0
 18 19  2  0  0  0
 18 98  1  0  0  0
 19 20  1  0  0  0
 19 24  1  0  0  0
 20 21  2  0  0  0
 20 99  1  0  0  0
 21 23  1  0  0  0
 22 28  1  0  0  0
 22 32  2  0  0  0
 26 27  1  0  0  0
 28100  1  0  0  0
 28101  1  0  0  0
 29102  1  0  0  0
 29103  1  0  0  0
 33 34  1  0  0  0
 33 66  1  0  0  0
 33 70  2  0  0  0
 34 36  1  0  0  0
 34 59  1  0  0  0
 34104  1  0  0  0
 35 44  2  0  0  0
 35 45  1  0  0  0
 35 68  1  0  0  0
 36 56  1  0  0  0
 36105  1  0  0  0
 37 39  1  0  0  0
 37 47  1  0  0  0
 37 66  1  0  0  0
 37106  1  0  0  0
 38 43  2  0  0  0
 38 46  1  0  0  0
 38 47  1  0  0  0
 39 64  1  0  0  0
 39 67  2  0  0  0
 40 52  1  0  0  0
 40 53  2  0  0  0
 40 58  1  0  0  0
 41107  1  0  0  0
 41108  1  0  0  0
 41109  1  0  0  0
 41 48  1  0  0  0
 42 43  1  0  0  0
 42 66  1  0  0  0
 42110  1  0  0  0
 42111  1  0  0  0
 43 44  1  0  0  0
 44112  1  0  0  0
 45 46  2  0  0  0
 45113  1  0  0  0
 46114  1  0  0  0
 47115  1  0  0  0
 47116  1  0  0  0
 48 56  1  0  0  0
 48 65  1  0  0  0
 48117  1  0  0  0
 49 50  1  0  0  0
 49 53  1  0  0  0
 49 64  1  0  0  0
 49118  1  0  0  0
 50 51  1  0  0  0
 50119  1  0  0  0
 50120  1  0  0  0
 51 52  1  0  0  0
 51121  1  0  0  0
 51122  1  0  0  0
 52123  1  0  0  0
 52124  1  0  0  0
 53 54  1  0  0  0
 54 55  2  0  0  0
 54125  1  0  0  0
 55 57  1  0  0  0
 55126  1  0  0  0
 56 69  2  0  0  0
 57 58  2  0  0  0
 57127  1  0  0  0
 58128  1  0  0  0
 59 60  1  0  0  0
 59 61  1  0  0  0
 59 62  1  0  0  0
 60129  1  0  0  0
 60130  1  0  0  0
 60131  1  0  0  0
 61132  1  0  0  0
 61133  1  0  0  0
 61134  1  0  0  0
 62135  1  0  0  0
 62136  1  0  0  0
 62137  1  0  0  0
 63 65  1  0  0  0
 63138  1  0  0  0
 63139  1  0  0  0
 63140  1  0  0  0
 64141  1  0  0  0
 65142  1  0  0  0
 68 78  1  0  0  0
 71 72  2  0  0  0
 71 83  1  0  0  0
 71143  1  0  0  0
 72 79  1  0  0  0
 72 80  1  0  0  0
 73 77  1  0  0  0
 73 79  2  0  0  0
 73 83  1  0  0  0
 74 78  1  0  0  0
 74 80  1  0  0  0
 74 82  2  0  0  0
 75144  1  0  0  0
 75145  1  0  0  0
 75146  1  0  0  0
 75 77  1  0  0  0
 76147  1  0  0  0
 76148  1  0  0  0
 76149  1  0  0  0
 76 78  1  0  0  0
 77 81  1  0  0  0
 77150  1  0  0  0
 78151  1  0  0  0
 80152  1  0  0  0
 81153  1  0  0  0
M  ISO  4   1 100  68 101  78 101  81 100
M  END
> <chiral flag>
0

> <version>
0

> <s_m_source_file>
/data/baiqing/PycharmProjects/Reinvent-master-3.2/result/LINK_invent/BTK/process_docking_weight1_custom_product_contain_oxygen_bond_distance_aromatic_linkinvent_7_9_3/rearranged_h_0189.sdf

> <i_m_source_file_index>
96

> <r_mmod_Potential_Energy-OPLS-2005>
85.3434143066406

> <r_mmod_Stretch_Energy-OPLS-2005>
136.875061035156

> <r_mmod_Bend_Energy-OPLS-2005>
181.475845336914

> <r_mmod_Torsional_Energy-OPLS-2005>
248.673797607422

> <r_mmod_Improper_Torsional_Energy-OPLS-2005>
9.96634387969971

> <r_mmod_Van_der_Waal_Energy-OPLS-2005>
122.198249816895

> <r_mmod_Electrostatic_Energy-OPLS-2005>
-475.360473632812

> <r_mmod_Solvation_Energy-OPLS-2005>
-243.717819213867

> <b_mmod_Minimization_Converged-OPLS-2005>
0

> <r_mmod_RMS_Derivative-OPLS-2005>
1.32602000236511

$$$$
96
                    3D
 Structure written by MMmdl.
173181  0  0  1  0            999 V2000
  -30.6201  -14.7711   20.4729 C   0  0  0  0  0  0
  -30.4355  -12.4829   19.4670 C   0  0  0  0  0  0
  -29.5078  -12.4987   18.2318 C   0  0  0  0  0  0
  -28.0366  -12.3128   18.6549 C   0  0  0  0  0  0
  -27.6344  -13.2283   19.8410 C   0  0  2  0  0  0
  -28.6825  -13.1935   20.9748 C   0  0  0  0  0  0
  -25.2484  -13.8174   20.5687 C   0  0  0  0  0  0
  -24.1796  -13.0432   20.9243 C   0  0  0  0  0  0
  -24.6384  -11.6911   20.8776 C   0  0  0  0  0  0
  -23.9065  -10.4291   21.0429 C   0  0  0  0  0  0
  -24.3620   -9.4202   21.9195 C   0  0  0  0  0  0
  -23.6296   -8.2237   22.0762 C   0  0  0  0  0  0
  -22.4277   -8.0281   21.3549 C   0  0  0  0  0  0
  -21.9911   -9.0256   20.4652 C   0  0  0  0  0  0
  -22.7245  -10.2133   20.3064 C   0  0  0  0  0  0
  -21.6849   -6.0736   22.5277 C   0  0  0  0  0  0
  -21.4013   -6.5640   23.8214 C   0  0  0  0  0  0
  -21.3657   -5.6790   24.9175 C   0  0  0  0  0  0
  -21.6045   -4.3053   24.7221 C   0  0  0  0  0  0
  -21.8821   -3.8149   23.4343 C   0  0  0  0  0  0
  -21.9192   -4.6965   22.3403 C   0  0  0  0  0  0
  -22.7817  -13.5218   21.1881 C   0  0  0  0  0  0
  -22.1662   -4.2151   21.0981 F   0  0  0  0  0  0
  -21.5629   -3.4538   25.7737 F   0  0  0  0  0  0
  -29.9742  -13.5559   20.3794 N   0  0  0  0  0  0
  -26.2899  -12.9371   20.3242 N   0  0  0  0  0  0
  -25.9304  -11.6526   20.5757 N   0  0  0  0  0  0
  -22.0444  -12.8212   22.0426 N   0  0  0  0  0  0
  -25.4131  -15.1897   20.4054 N   0  0  0  0  0  0
  -31.8261  -14.8456   20.2106 O   0  0  0  0  0  0
  -21.6637   -6.8879   21.4244 O   0  0  0  0  0  0
  -22.3523  -14.5528   20.6726 O   0  0  0  0  0  0
  -24.6318  -31.8547   23.1983 C   0  0  0  0  0  0
  -25.9145  -32.4745   23.8328 C   0  0  1  0  0  0
  -27.2162  -27.2456   20.1419 C   0  0  0  0  0  0
  -25.5948  -33.8550   24.2255 N   0  0  0  0  0  0
  -23.4297  -30.4763   21.5412 C   0  0  2  0  0  0
  -24.8798  -28.9192   20.1149 C   0  0  0  0  0  0
  -22.7504  -29.4602   22.4909 C   0  0  0  0  0  0
  -18.0288  -28.1387   22.8479 C   0  0  0  0  0  0
  -24.1492  -36.7283   23.2635 C   0  0  0  0  0  0
  -25.9765  -30.7579   21.3856 C   0  0  0  0  0  0
  -26.0484  -29.3744   20.7403 C   0  0  0  0  0  0
  -27.2203  -28.5462   20.7529 C   0  0  0  0  0  0
  -26.0441  -26.8838   19.4524 C   0  0  0  0  0  0
  -24.8827  -27.6794   19.4583 C   0  0  0  0  0  0
  -23.6509  -29.8081   20.1585 C   0  0  0  0  0  0
  -25.4114  -36.3062   24.0325 C   0  0  1  0  0  0
  -20.5896  -28.3708   23.1259 C   0  0  2  0  0  0
  -20.6780  -26.9428   22.5400 C   0  0  0  0  0  0
  -19.5756  -26.6388   21.5206 C   0  0  0  0  0  0
  -18.1937  -26.7926   22.1619 C   0  0  0  0  0  0
  -19.1543  -28.8864   23.2864 C   0  0  0  0  0  0
  -18.9463  -30.1461   23.8888 C   0  0  0  0  0  0
  -17.6464  -30.6591   24.0565 C   0  0  0  0  0  0
  -25.9061  -34.9434   23.5091 C   0  0  0  0  0  0
  -16.5354  -29.9089   23.6330 C   0  0  0  0  0  0
  -16.7275  -28.6505   23.0351 C   0  0  0  0  0  0
  -26.4514  -31.6558   25.0710 C   0  0  0  0  0  0
  -25.3741  -31.3719   26.1435 C   0  0  0  0  0  0
  -27.0347  -30.2963   24.6197 C   0  0  0  0  0  0
  -27.6069  -32.4294   25.7487 C   0  0  0  0  0  0
  -27.5577  -37.1797   24.8460 C   0  0  0  0  0  0
  -21.4212  -29.3053   22.3650 N   0  0  0  0  0  0
  -26.4282  -37.3767   23.9412 N   0  0  0  0  0  0
  -24.6982  -31.0490   22.0975 N   0  0  0  0  0  0
  -23.4198  -28.8144   23.3014 O   0  0  0  0  0  0
  -28.2938  -26.3286   20.1036 O   0  0  0  0  0  0
  -26.5629  -34.8915   22.4657 O   0  0  0  0  0  0
  -23.5466  -32.1383   23.7270 O   0  0  0  0  0  0
  -28.6730  -18.6670   19.1821 C   0  0  0  0  0  0
  -29.4719  -18.6244   20.2935 C   0  0  0  0  0  0
  -28.9696  -20.9625   20.2440 C   0  0  0  0  0  0
  -30.2388  -17.3811   20.7820 C   0  0  0  0  0  0
  -32.1822  -25.5303   21.7977 C   0  0  0  0  0  0
  -29.5599  -24.5383   23.1971 C   0  0  0  0  0  0
  -32.0318  -17.4991   23.8255 C   0  0  0  0  0  0
  -33.6956  -17.1029   21.9480 C   0  0  0  0  0  0
  -30.9112  -25.0722   21.0656 C   0  0  0  0  0  0
  -29.6073  -25.3088   21.8626 C   0  0  1  0  0  0
  -27.9422  -23.5285   20.6709 C   0  0  1  0  0  0
  -32.2299  -16.9972   22.3884 C   0  0  0  0  0  0
  -28.3262  -25.1158   21.0047 C   0  0  2  0  0  0
  -26.6710  -23.3481   19.8097 C   0  0  0  0  0  0
  -29.6638  -19.9471   20.8644 N   0  0  0  0  0  0
  -28.9613  -22.3819   20.5687 N   0  0  0  0  0  0
  -29.8282  -16.0491   20.5829 N   0  0  0  0  0  0
  -31.3500  -17.7381   21.4675 N   0  3  0  0  0  0
  -25.7060  -24.1420   20.2629 F   0  0  0  0  0  0
  -26.1867  -22.1135   19.9173 F   0  0  0  0  0  0
  -26.9164  -23.6159   18.5276 F   0  0  0  0  0  0
  -28.1244  -20.3041   18.8258 S   0  0  0  0  0  0
  -31.4728  -12.6218   19.1571 H   0  0  0  0  0  0
  -30.4015  -11.5141   19.9676 H   0  0  0  0  0  0
  -29.7986  -11.7123   17.5334 H   0  0  0  0  0  0
  -29.6198  -13.4421   17.6950 H   0  0  0  0  0  0
  -27.9110  -11.2674   18.9401 H   0  0  0  0  0  0
  -27.3721  -12.4768   17.8051 H   0  0  0  0  0  0
  -27.6154  -14.2400   19.4370 H   0  0  0  0  0  0
  -28.7334  -12.2028   21.4301 H   0  0  0  0  0  0
  -28.4103  -13.8842   21.7749 H   0  0  0  0  0  0
  -25.2761   -9.5676   22.4770 H   0  0  0  0  0  0
  -24.0008   -7.4625   22.7475 H   0  0  0  0  0  0
  -21.0843   -8.8778   19.8947 H   0  0  0  0  0  0
  -22.3711  -10.9679   19.6175 H   0  0  0  0  0  0
  -21.2004   -7.6147   23.9718 H   0  0  0  0  0  0
  -21.1474   -6.0518   25.9077 H   0  0  0  0  0  0
  -22.0600   -2.7611   23.2837 H   0  0  0  0  0  0
  -22.4044  -11.9860   22.4806 H   0  0  0  0  0  0
  -21.1059  -13.1241   22.2613 H   0  0  0  0  0  0
  -24.6255  -15.8224   20.4960 H   0  0  0  0  0  0
  -26.2065  -15.6197   19.9524 H   0  0  0  0  0  0
  -26.7206  -32.5401   23.1066 H   0  0  0  0  0  0
  -25.0099  -33.9683   25.0404 H   0  0  0  0  0  0
  -22.7276  -31.2993   21.3924 H   0  0  0  0  0  0
  -23.3756  -35.9611   23.3272 H   0  0  0  0  0  0
  -24.3590  -36.8932   22.2055 H   0  0  0  0  0  0
  -23.7242  -37.6476   23.6676 H   0  0  0  0  0  0
  -26.1129  -31.5094   20.6069 H   0  0  0  0  0  0
  -26.8563  -30.8160   22.0143 H   0  0  0  0  0  0
  -28.1150  -28.8891   21.2537 H   0  0  0  0  0  0
  -26.0239  -25.9670   18.8872 H   0  0  0  0  0  0
  -24.0009  -27.3366   18.9348 H   0  0  0  0  0  0
  -23.7776  -30.5819   19.4007 H   0  0  0  0  0  0
  -22.7699  -29.2411   19.8528 H   0  0  0  0  0  0
  -25.1294  -36.1901   25.0816 H   0  0  0  0  0  0
  -20.9981  -28.3284   24.1384 H   0  0  0  0  0  0
  -20.5678  -26.2324   23.3607 H   0  0  0  0  0  0
  -21.6648  -26.7450   22.1196 H   0  0  0  0  0  0
  -19.6925  -25.6298   21.1240 H   0  0  0  0  0  0
  -19.6685  -27.3196   20.6734 H   0  0  0  0  0  0
  -17.4202  -26.6662   21.4030 H   0  0  0  0  0  0
  -18.0347  -26.0073   22.9021 H   0  0  0  0  0  0
  -19.7943  -30.7276   24.2256 H   0  0  0  0  0  0
  -17.5021  -31.6268   24.5169 H   0  0  0  0  0  0
  -15.5357  -30.2994   23.7658 H   0  0  0  0  0  0
  -15.8670  -28.0826   22.7071 H   0  0  0  0  0  0
  -24.5898  -30.7089   25.7766 H   0  0  0  0  0  0
  -24.8960  -32.2894   26.4873 H   0  0  0  0  0  0
  -25.8058  -30.8878   27.0203 H   0  0  0  0  0  0
  -26.2918  -29.6713   24.1225 H   0  0  0  0  0  0
  -27.4020  -29.7224   25.4715 H   0  0  0  0  0  0
  -27.8811  -30.4218   23.9440 H   0  0  0  0  0  0
  -27.2682  -33.3617   26.2022 H   0  0  0  0  0  0
  -28.3909  -32.6809   25.0331 H   0  0  0  0  0  0
  -28.0695  -31.8432   26.5440 H   0  0  0  0  0  0
  -28.2575  -38.0114   24.7519 H   0  0  0  0  0  0
  -28.1092  -36.2642   24.6259 H   0  0  0  0  0  0
  -27.2300  -37.1410   25.8864 H   0  0  0  0  0  0
  -20.9402  -29.8785   21.6859 H   0  0  0  0  0  0
  -26.0154  -38.2836   24.1422 H   0  0  0  0  0  0
  -28.3996  -17.8569   18.5214 H   0  0  0  0  0  0
  -33.0588  -25.4162   21.1590 H   0  0  0  0  0  0
  -32.3644  -24.9437   22.6983 H   0  0  0  0  0  0
  -32.1205  -26.5804   22.0864 H   0  0  0  0  0  0
  -30.3666  -24.8451   23.8626 H   0  0  0  0  0  0
  -29.6420  -23.4610   23.0595 H   0  0  0  0  0  0
  -28.6292  -24.7350   23.7305 H   0  0  0  0  0  0
  -32.5333  -16.8421   24.5366 H   0  0  0  0  0  0
  -30.9752  -17.5223   24.0957 H   0  0  0  0  0  0
  -32.4318  -18.5040   23.9618 H   0  0  0  0  0  0
  -34.3320  -16.4654   22.5627 H   0  0  0  0  0  0
  -34.0670  -18.1245   22.0347 H   0  0  0  0  0  0
  -33.8209  -16.7876   20.9117 H   0  0  0  0  0  0
  -31.0208  -24.0229   20.7980 H   0  0  0  0  0  0
  -30.8516  -25.6139   20.1207 H   0  0  0  0  0  0
  -29.6121  -26.3638   22.1435 H   0  0  0  0  0  0
  -27.5517  -23.2386   21.6470 H   0  0  0  0  0  0
  -31.9510  -15.9481   22.4012 H   0  0  0  0  0  0
  -27.5203  -25.3713   21.6965 H   0  0  0  0  0  0
  -29.7432  -22.5962   21.1716 H   0  0  0  0  0  0
  -28.8295  -16.0072   20.4958 H   0  0  0  0  0  0
  -31.4880  -18.7421   21.4591 H   0  0  0  0  0  0
  1 25  1  0  0  0
  1 30  2  0  0  0
  1 87  1  0  0  0
  2  3  1  0  0  0
  2 25  1  0  0  0
  2 93  1  0  0  0
  2 94  1  0  0  0
  3  4  1  0  0  0
  3 95  1  0  0  0
  3 96  1  0  0  0
  4  5  1  0  0  0
  4 97  1  0  0  0
  4 98  1  0  0  0
  5  6  1  0  0  0
  5 26  1  0  0  0
  5 99  1  0  0  0
  6 25  1  0  0  0
  6100  1  0  0  0
  6101  1  0  0  0
  7  8  2  0  0  0
  7 26  1  0  0  0
  7 29  1  0  0  0
  8  9  1  0  0  0
  8 22  1  0  0  0
  9 10  1  0  0  0
  9 27  2  0  0  0
 10 11  2  0  0  0
 10 15  1  0  0  0
 11 12  1  0  0  0
 11102  1  0  0  0
 12 13  2  0  0  0
 12103  1  0  0  0
 13 14  1  0  0  0
 13 31  1  0  0  0
 14 15  2  0  0  0
 14104  1  0  0  0
 15105  1  0  0  0
 16 17  2  0  0  0
 16 21  1  0  0  0
 16 31  1  0  0  0
 17 18  1  0  0  0
 17106  1  0  0  0
 18 19  2  0  0  0
 18107  1  0  0  0
 19 20  1  0  0  0
 19 24  1  0  0  0
 20 21  2  0  0  0
 20108  1  0  0  0
 21 23  1  0  0  0
 22 28  1  0  0  0
 22 32  2  0  0  0
 26 27  1  0  0  0
 28109  1  0  0  0
 28110  1  0  0  0
 29111  1  0  0  0
 29112  1  0  0  0
 33 34  1  0  0  0
 33 66  1  0  0  0
 33 70  2  0  0  0
 34 36  1  0  0  0
 34 59  1  0  0  0
 34113  1  0  0  0
 35 44  2  0  0  0
 35 45  1  0  0  0
 35 68  1  0  0  0
 36 56  1  0  0  0
 36114  1  0  0  0
 37 39  1  0  0  0
 37 47  1  0  0  0
 37 66  1  0  0  0
 37115  1  0  0  0
 38 43  2  0  0  0
 38 46  1  0  0  0
 38 47  1  0  0  0
 39 64  1  0  0  0
 39 67  2  0  0  0
 40 52  1  0  0  0
 40 53  2  0  0  0
 40 58  1  0  0  0
 41116  1  0  0  0
 41117  1  0  0  0
 41118  1  0  0  0
 41 48  1  0  0  0
 42 43  1  0  0  0
 42 66  1  0  0  0
 42119  1  0  0  0
 42120  1  0  0  0
 43 44  1  0  0  0
 44121  1  0  0  0
 45 46  2  0  0  0
 45122  1  0  0  0
 46123  1  0  0  0
 47124  1  0  0  0
 47125  1  0  0  0
 48 56  1  0  0  0
 48 65  1  0  0  0
 48126  1  0  0  0
 49 50  1  0  0  0
 49 53  1  0  0  0
 49 64  1  0  0  0
 49127  1  0  0  0
 50 51  1  0  0  0
 50128  1  0  0  0
 50129  1  0  0  0
 51 52  1  0  0  0
 51130  1  0  0  0
 51131  1  0  0  0
 52132  1  0  0  0
 52133  1  0  0  0
 53 54  1  0  0  0
 54 55  2  0  0  0
 54134  1  0  0  0
 55 57  1  0  0  0
 55135  1  0  0  0
 56 69  2  0  0  0
 57 58  2  0  0  0
 57136  1  0  0  0
 58137  1  0  0  0
 59 60  1  0  0  0
 59 61  1  0  0  0
 59 62  1  0  0  0
 60138  1  0  0  0
 60139  1  0  0  0
 60140  1  0  0  0
 61141  1  0  0  0
 61142  1  0  0  0
 61143  1  0  0  0
 62144  1  0  0  0
 62145  1  0  0  0
 62146  1  0  0  0
 63 65  1  0  0  0
 63147  1  0  0  0
 63148  1  0  0  0
 63149  1  0  0  0
 64150  1  0  0  0
 65151  1  0  0  0
 68 83  1  0  0  0
 71 72  2  0  0  0
 71 92  1  0  0  0
 71152  1  0  0  0
 72 74  1  0  0  0
 72 85  1  0  0  0
 73 85  2  0  0  0
 73 86  1  0  0  0
 73 92  1  0  0  0
 74 87  1  0  0  0
 74 88  2  0  0  0
 75 79  1  0  0  0
 75153  1  0  0  0
 75154  1  0  0  0
 75155  1  0  0  0
 76156  1  0  0  0
 76157  1  0  0  0
 76158  1  0  0  0
 76 80  1  0  0  0
 77159  1  0  0  0
 77160  1  0  0  0
 77161  1  0  0  0
 77 82  1  0  0  0
 78 82  1  0  0  0
 78162  1  0  0  0
 78163  1  0  0  0
 78164  1  0  0  0
 79 80  1  0  0  0
 79165  1  0  0  0
 79166  1  0  0  0
 80 83  1  0  0  0
 80167  1  0  0  0
 81 83  1  0  0  0
 81 84  1  0  0  0
 81 86  1  0  0  0
 81168  1  0  0  0
 82 88  1  0  0  0
 82169  1  0  0  0
 83170  1  0  0  0
 84 89  1  0  0  0
 84 90  1  0  0  0
 84 91  1  0  0  0
 86171  1  0  0  0
 87172  1  0  0  0
 88173  1  0  0  0
M  CHG  1  88   1
M  ISO  4   1 100  68 101  83 101  87 100
M  END
> <chiral flag>
0

> <version>
0

> <s_m_source_file>
/data/baiqing/PycharmProjects/Reinvent-master-3.2/result/LINK_invent/BTK/process_docking_weight1_custom_product_contain_oxygen_bond_distance_aromatic_linkinvent_7_9_3/rearranged_h_0189.sdf

> <i_m_source_file_index>
97

> <r_mmod_Potential_Energy-OPLS-2005>
98.4858093261719

> <r_mmod_Stretch_Energy-OPLS-2005>
143.557556152344

> <r_mmod_Bend_Energy-OPLS-2005>
259.172180175781

> <r_mmod_Torsional_Energy-OPLS-2005>
303.963256835938

> <r_mmod_Improper_Torsional_Energy-OPLS-2005>
9.98557376861572

> <r_mmod_Van_der_Waal_Energy-OPLS-2005>
116.481582641602

> <r_mmod_Electrostatic_Energy-OPLS-2005>
-407.281311035156

> <r_mmod_Solvation_Energy-OPLS-2005>
-425.793426513672

> <b_mmod_Minimization_Converged-OPLS-2005>
0

> <r_mmod_RMS_Derivative-OPLS-2005>
1.19304823875427

$$$$
97
                    3D
 Structure written by MMmdl.
159167  0  0  1  0            999 V2000
  -30.7344  -14.4179   20.6439 C   0  0  0  0  0  0
  -30.4217  -12.3028   19.4093 C   0  0  0  0  0  0
  -29.4923  -12.5273   18.2001 C   0  0  0  0  0  0
  -28.0134  -12.3857   18.6098 C   0  0  0  0  0  0
  -27.6651  -13.2076   19.8794 C   0  0  2  0  0  0
  -28.7033  -12.9570   20.9967 C   0  0  0  0  0  0
  -25.2573  -13.8153   20.5630 C   0  0  0  0  0  0
  -24.1841  -13.0437   20.9186 C   0  0  0  0  0  0
  -24.6396  -11.6909   20.8740 C   0  0  0  0  0  0
  -23.9063  -10.4297   21.0405 C   0  0  0  0  0  0
  -24.3616   -9.4209   21.9179 C   0  0  0  0  0  0
  -23.6294   -8.2244   22.0749 C   0  0  0  0  0  0
  -22.4276   -8.0282   21.3543 C   0  0  0  0  0  0
  -21.9906   -9.0252   20.4643 C   0  0  0  0  0  0
  -22.7235  -10.2132   20.3054 C   0  0  0  0  0  0
  -21.6851   -6.0734   22.5279 C   0  0  0  0  0  0
  -21.4011   -6.5637   23.8212 C   0  0  0  0  0  0
  -21.3661   -5.6787   24.9173 C   0  0  0  0  0  0
  -21.6046   -4.3049   24.7219 C   0  0  0  0  0  0
  -21.8824   -3.8143   23.4338 C   0  0  0  0  0  0
  -21.9192   -4.6963   22.3396 C   0  0  0  0  0  0
  -22.7863  -13.5233   21.1847 C   0  0  0  0  0  0
  -22.1662   -4.2150   21.0973 F   0  0  0  0  0  0
  -21.5629   -3.4532   25.7730 F   0  0  0  0  0  0
  -30.0441  -13.2603   20.4607 N   0  0  0  0  0  0
  -26.3028  -12.9337   20.3348 N   0  0  0  0  0  0
  -25.9322  -11.6497   20.5752 N   0  0  0  0  0  0
  -22.0500  -12.8237   22.0407 N   0  0  0  0  0  0
  -25.4228  -15.1860   20.3923 N   0  0  0  0  0  0
  -31.7917  -14.6703   20.0587 O   0  0  0  0  0  0
  -21.6641   -6.8877   21.4241 O   0  0  0  0  0  0
  -22.3554  -14.5533   20.6682 O   0  0  0  0  0  0
  -24.6148  -31.8690   23.2100 C   0  0  0  0  0  0
  -25.9048  -32.4824   23.8386 C   0  0  1  0  0  0
  -27.2315  -27.4316   20.0850 C   0  0  0  0  0  0
  -25.5915  -33.8623   24.2324 N   0  0  0  0  0  0
  -23.4013  -30.4949   21.5518 C   0  0  2  0  0  0
  -24.8447  -28.9639   20.1124 C   0  0  0  0  0  0
  -22.7405  -29.4672   22.4982 C   0  0  0  0  0  0
  -18.0275  -28.1381   22.8494 C   0  0  0  0  0  0
  -24.1493  -36.7307   23.2637 C   0  0  0  0  0  0
  -25.9307  -30.8330   21.3626 C   0  0  0  0  0  0
  -26.0064  -29.4673   20.7104 C   0  0  0  0  0  0
  -27.1991  -28.7069   20.6984 C   0  0  0  0  0  0
  -26.0458  -26.9506   19.4768 C   0  0  0  0  0  0
  -24.8594  -27.7040   19.4946 C   0  0  0  0  0  0
  -23.6075  -29.8304   20.1654 C   0  0  0  0  0  0
  -25.4115  -36.3109   24.0338 C   0  0  1  0  0  0
  -20.5867  -28.3669   23.1316 C   0  0  2  0  0  0
  -20.6774  -26.9403   22.5423 C   0  0  0  0  0  0
  -19.5756  -26.6386   21.5218 C   0  0  0  0  0  0
  -18.1929  -26.7931   22.1619 C   0  0  0  0  0  0
  -19.1524  -28.8838   23.2906 C   0  0  0  0  0  0
  -18.9451  -30.1443   23.8919 C   0  0  0  0  0  0
  -17.6455  -30.6590   24.0565 C   0  0  0  0  0  0
  -25.9041  -34.9478   23.5125 C   0  0  0  0  0  0
  -16.5344  -29.9097   23.6323 C   0  0  0  0  0  0
  -16.7263  -28.6511   23.0347 C   0  0  0  0  0  0
  -26.4470  -31.6593   25.0704 C   0  0  0  0  0  0
  -25.3726  -31.3710   26.1443 C   0  0  0  0  0  0
  -27.0277  -30.3033   24.6059 C   0  0  0  0  0  0
  -27.6069  -32.4281   25.7464 C   0  0  0  0  0  0
  -27.5587  -37.1809   24.8464 C   0  0  0  0  0  0
  -21.4133  -29.3035   22.3717 N   0  0  0  0  0  0
  -26.4302  -37.3789   23.9410 N   0  0  0  0  0  0
  -24.6679  -31.0790   22.1004 N   0  0  0  0  0  0
  -23.4178  -28.8207   23.3020 O   0  0  0  0  0  0
  -28.4091  -26.7024   20.1054 O   0  0  0  0  0  0
  -26.5584  -34.8932   22.4673 O   0  0  0  0  0  0
  -23.5344  -32.1439   23.7506 O   0  0  0  0  0  0
  -28.2131  -17.4455   21.0247 C   0  0  0  0  0  0
  -29.5588  -17.6758   21.1778 C   0  0  0  0  0  0
  -28.8879  -19.7061   20.3657 C   0  0  0  0  0  0
  -29.8942  -21.9810   20.0408 C   0  0  0  0  0  0
  -30.9904  -22.1482   17.1096 C   0  0  0  0  0  0
  -30.5820  -16.6908   21.6885 C   0  0  0  0  0  0
  -30.9481  -23.3013   18.1274 C   0  0  0  0  0  0
  -29.6600  -24.5710   19.9343 C   0  0  0  0  0  0
  -28.3769  -25.3596   19.5998 C   0  0  0  0  0  0
  -29.7769  -23.2333   19.1381 C   0  0  2  0  0  0
  -29.9303  -18.9791   20.8026 N   0  0  0  0  0  0
  -28.9697  -21.0246   19.8459 N   0  0  0  0  0  0
  -30.1663  -15.2999   21.4772 N   0  0  0  0  0  0
  -30.7983  -21.9101   20.8775 O   0  0  0  0  0  0
  -27.3704  -18.8215   20.3682 S   0  0  0  0  0  0
  -31.4659  -12.4034   19.1086 H   0  0  0  0  0  0
  -30.3212  -11.2829   19.7834 H   0  0  0  0  0  0
  -29.7309  -11.8189   17.4056 H   0  0  0  0  0  0
  -29.6634  -13.5211   17.7838 H   0  0  0  0  0  0
  -27.8153  -11.3279   18.7854 H   0  0  0  0  0  0
  -27.3653  -12.6810   17.7833 H   0  0  0  0  0  0
  -27.7198  -14.2616   19.6062 H   0  0  0  0  0  0
  -28.6706  -11.9129   21.3100 H   0  0  0  0  0  0
  -28.4522  -13.5287   21.8904 H   0  0  0  0  0  0
  -25.2767   -9.5681   22.4744 H   0  0  0  0  0  0
  -24.0005   -7.4632   22.7464 H   0  0  0  0  0  0
  -21.0835   -8.8769   19.8950 H   0  0  0  0  0  0
  -22.3693  -10.9668   19.6159 H   0  0  0  0  0  0
  -21.2006   -7.6147   23.9715 H   0  0  0  0  0  0
  -21.1480   -6.0515   25.9075 H   0  0  0  0  0  0
  -22.0602   -2.7607   23.2834 H   0  0  0  0  0  0
  -22.4108  -11.9907   22.4821 H   0  0  0  0  0  0
  -21.1113  -13.1262   22.2595 H   0  0  0  0  0  0
  -24.6337  -15.8198   20.4585 H   0  0  0  0  0  0
  -26.2224  -15.5993   19.9311 H   0  0  0  0  0  0
  -26.7114  -32.5539   23.1150 H   0  0  0  0  0  0
  -25.0116  -33.9779   25.0503 H   0  0  0  0  0  0
  -22.6908  -31.3128   21.4148 H   0  0  0  0  0  0
  -23.3755  -35.9639   23.3311 H   0  0  0  0  0  0
  -24.3595  -36.8896   22.2048 H   0  0  0  0  0  0
  -23.7246  -37.6521   23.6634 H   0  0  0  0  0  0
  -26.0393  -31.5982   20.5922 H   0  0  0  0  0  0
  -26.8216  -30.8886   21.9764 H   0  0  0  0  0  0
  -28.0945  -29.0929   21.1659 H   0  0  0  0  0  0
  -26.0060  -25.9957   18.9749 H   0  0  0  0  0  0
  -23.9679  -27.3121   19.0241 H   0  0  0  0  0  0
  -23.7117  -30.6068   19.4061 H   0  0  0  0  0  0
  -22.7311  -29.2497   19.8720 H   0  0  0  0  0  0
  -25.1294  -36.1972   25.0831 H   0  0  0  0  0  0
  -20.9962  -28.3240   24.1435 H   0  0  0  0  0  0
  -20.5685  -26.2275   23.3609 H   0  0  0  0  0  0
  -21.6645  -26.7462   22.1207 H   0  0  0  0  0  0
  -19.6928  -25.6302   21.1237 H   0  0  0  0  0  0
  -19.6710  -27.3205   20.6755 H   0  0  0  0  0  0
  -17.4209  -26.6679   21.4009 H   0  0  0  0  0  0
  -18.0324  -26.0070   22.9008 H   0  0  0  0  0  0
  -19.7930  -30.7245   24.2304 H   0  0  0  0  0  0
  -17.5019  -31.6277   24.5157 H   0  0  0  0  0  0
  -15.5348  -30.3008   23.7644 H   0  0  0  0  0  0
  -15.8660  -28.0840   22.7051 H   0  0  0  0  0  0
  -24.5964  -30.6969   25.7803 H   0  0  0  0  0  0
  -24.8831  -32.2858   26.4797 H   0  0  0  0  0  0
  -25.8079  -30.8986   27.0254 H   0  0  0  0  0  0
  -26.2805  -29.6813   24.1113 H   0  0  0  0  0  0
  -27.4054  -29.7250   25.4500 H   0  0  0  0  0  0
  -27.8643  -30.4352   23.9191 H   0  0  0  0  0  0
  -27.2737  -33.3609   26.2026 H   0  0  0  0  0  0
  -28.3897  -32.6773   25.0285 H   0  0  0  0  0  0
  -28.0701  -31.8384   26.5382 H   0  0  0  0  0  0
  -28.2612  -38.0099   24.7500 H   0  0  0  0  0  0
  -28.1069  -36.2629   24.6297 H   0  0  0  0  0  0
  -27.2303  -37.1465   25.8866 H   0  0  0  0  0  0
  -20.9282  -29.8750   21.6943 H   0  0  0  0  0  0
  -26.0190  -38.2869   24.1406 H   0  0  0  0  0  0
  -27.6642  -16.5452   21.2592 H   0  0  0  0  0  0
  -31.8055  -22.2924   16.4000 H   0  0  0  0  0  0
  -30.0644  -22.0894   16.5367 H   0  0  0  0  0  0
  -31.1490  -21.1829   17.5915 H   0  0  0  0  0  0
  -30.7298  -16.8353   22.7591 H   0  0  0  0  0  0
  -31.5525  -16.8856   21.2299 H   0  0  0  0  0  0
  -30.8811  -24.2371   17.5705 H   0  0  0  0  0  0
  -31.8972  -23.3431   18.6650 H   0  0  0  0  0  0
  -29.6886  -24.3939   21.0106 H   0  0  0  0  0  0
  -30.5240  -25.2028   19.7269 H   0  0  0  0  0  0
  -27.5362  -24.8058   20.0209 H   0  0  0  0  0  0
  -28.2409  -25.4019   18.5179 H   0  0  0  0  0  0
  -28.8631  -23.1187   18.5519 H   0  0  0  0  0  0
  -28.2182  -21.2740   19.2199 H   0  0  0  0  0  0
  -29.3225  -15.0051   21.9417 H   0  0  0  0  0  0
  1 25  1  0  0  0
  1 30  2  0  0  0
  1 83  1  0  0  0
  2  3  1  0  0  0
  2 25  1  0  0  0
  2 86  1  0  0  0
  2 87  1  0  0  0
  3  4  1  0  0  0
  3 88  1  0  0  0
  3 89  1  0  0  0
  4  5  1  0  0  0
  4 90  1  0  0  0
  4 91  1  0  0  0
  5  6  1  0  0  0
  5 26  1  0  0  0
  5 92  1  0  0  0
  6 25  1  0  0  0
  6 93  1  0  0  0
  6 94  1  0  0  0
  7  8  2  0  0  0
  7 26  1  0  0  0
  7 29  1  0  0  0
  8  9  1  0  0  0
  8 22  1  0  0  0
  9 10  1  0  0  0
  9 27  2  0  0  0
 10 11  2  0  0  0
 10 15  1  0  0  0
 11 12  1  0  0  0
 11 95  1  0  0  0
 12 13  2  0  0  0
 12 96  1  0  0  0
 13 14  1  0  0  0
 13 31  1  0  0  0
 14 15  2  0  0  0
 14 97  1  0  0  0
 15 98  1  0  0  0
 16 17  2  0  0  0
 16 21  1  0  0  0
 16 31  1  0  0  0
 17 18  1  0  0  0
 17 99  1  0  0  0
 18 19  2  0  0  0
 18100  1  0  0  0
 19 20  1  0  0  0
 19 24  1  0  0  0
 20 21  2  0  0  0
 20101  1  0  0  0
 21 23  1  0  0  0
 22 28  1  0  0  0
 22 32  2  0  0  0
 26 27  1  0  0  0
 28102  1  0  0  0
 28103  1  0  0  0
 29104  1  0  0  0
 29105  1  0  0  0
 33 34  1  0  0  0
 33 66  1  0  0  0
 33 70  2  0  0  0
 34 36  1  0  0  0
 34 59  1  0  0  0
 34106  1  0  0  0
 35 44  2  0  0  0
 35 45  1  0  0  0
 35 68  1  0  0  0
 36 56  1  0  0  0
 36107  1  0  0  0
 37 39  1  0  0  0
 37 47  1  0  0  0
 37 66  1  0  0  0
 37108  1  0  0  0
 38 43  2  0  0  0
 38 46  1  0  0  0
 38 47  1  0  0  0
 39 64  1  0  0  0
 39 67  2  0  0  0
 40 52  1  0  0  0
 40 53  2  0  0  0
 40 58  1  0  0  0
 41109  1  0  0  0
 41110  1  0  0  0
 41111  1  0  0  0
 41 48  1  0  0  0
 42 43  1  0  0  0
 42 66  1  0  0  0
 42112  1  0  0  0
 42113  1  0  0  0
 43 44  1  0  0  0
 44114  1  0  0  0
 45 46  2  0  0  0
 45115  1  0  0  0
 46116  1  0  0  0
 47117  1  0  0  0
 47118  1  0  0  0
 48 56  1  0  0  0
 48 65  1  0  0  0
 48119  1  0  0  0
 49 50  1  0  0  0
 49 53  1  0  0  0
 49 64  1  0  0  0
 49120  1  0  0  0
 50 51  1  0  0  0
 50121  1  0  0  0
 50122  1  0  0  0
 51 52  1  0  0  0
 51123  1  0  0  0
 51124  1  0  0  0
 52125  1  0  0  0
 52126  1  0  0  0
 53 54  1  0  0  0
 54 55  2  0  0  0
 54127  1  0  0  0
 55 57  1  0  0  0
 55128  1  0  0  0
 56 69  2  0  0  0
 57 58  2  0  0  0
 57129  1  0  0  0
 58130  1  0  0  0
 59 60  1  0  0  0
 59 61  1  0  0  0
 59 62  1  0  0  0
 60131  1  0  0  0
 60132  1  0  0  0
 60133  1  0  0  0
 61134  1  0  0  0
 61135  1  0  0  0
 61136  1  0  0  0
 62137  1  0  0  0
 62138  1  0  0  0
 62139  1  0  0  0
 63 65  1  0  0  0
 63140  1  0  0  0
 63141  1  0  0  0
 63142  1  0  0  0
 64143  1  0  0  0
 65144  1  0  0  0
 68 79  1  0  0  0
 71 72  2  0  0  0
 71 85  1  0  0  0
 71145  1  0  0  0
 72 76  1  0  0  0
 72 81  1  0  0  0
 73 81  2  0  0  0
 73 82  1  0  0  0
 73 85  1  0  0  0
 74 80  1  0  0  0
 74 82  1  0  0  0
 74 84  2  0  0  0
 75 77  1  0  0  0
 75146  1  0  0  0
 75147  1  0  0  0
 75148  1  0  0  0
 76 83  1  0  0  0
 76149  1  0  0  0
 76150  1  0  0  0
 77151  1  0  0  0
 77152  1  0  0  0
 77 80  1  0  0  0
 78 79  1  0  0  0
 78 80  1  0  0  0
 78153  1  0  0  0
 78154  1  0  0  0
 79155  1  0  0  0
 79156  1  0  0  0
 80157  1  0  0  0
 82158  1  0  0  0
 83159  1  0  0  0
M  ISO  4   1 100  68 101  79 101  83 100
M  END
> <chiral flag>
0

> <version>
0

> <s_m_source_file>
/data/baiqing/PycharmProjects/Reinvent-master-3.2/result/LINK_invent/BTK/process_docking_weight1_custom_product_contain_oxygen_bond_distance_aromatic_linkinvent_7_9_3/rearranged_h_0189.sdf

> <i_m_source_file_index>
98

> <r_mmod_Potential_Energy-OPLS-2005>
-294.450225830078

> <r_mmod_Stretch_Energy-OPLS-2005>
35.7894744873047

> <r_mmod_Bend_Energy-OPLS-2005>
101.348213195801

> <r_mmod_Torsional_Energy-OPLS-2005>
194.083999633789

> <r_mmod_Improper_Torsional_Energy-OPLS-2005>
3.07966256141663

> <r_mmod_Van_der_Waal_Energy-OPLS-2005>
135.986709594727

> <r_mmod_Electrostatic_Energy-OPLS-2005>
-518.735290527344

> <r_mmod_Solvation_Energy-OPLS-2005>
-255.568084716797

> <b_mmod_Minimization_Converged-OPLS-2005>
0

> <r_mmod_RMS_Derivative-OPLS-2005>
1.12293267250061

$$$$
98
                    3D
 Structure written by MMmdl.
169177  0  0  1  0            999 V2000
  -30.6391  -14.6009   20.5055 C   0  0  0  0  0  0
  -30.4396  -12.3678   19.4381 C   0  0  0  0  0  0
  -29.5071  -12.4898   18.2139 C   0  0  0  0  0  0
  -28.0278  -12.3346   18.6285 C   0  0  0  0  0  0
  -27.6518  -13.2084   19.8550 C   0  0  2  0  0  0
  -28.7004  -13.0635   20.9816 C   0  0  0  0  0  0
  -25.2561  -13.8152   20.5648 C   0  0  0  0  0  0
  -24.1830  -13.0431   20.9189 C   0  0  0  0  0  0
  -24.6384  -11.6900   20.8742 C   0  0  0  0  0  0
  -23.9063  -10.4280   21.0418 C   0  0  0  0  0  0
  -24.3616   -9.4195   21.9189 C   0  0  0  0  0  0
  -23.6285   -8.2233   22.0767 C   0  0  0  0  0  0
  -22.4269   -8.0271   21.3548 C   0  0  0  0  0  0
  -21.9902   -9.0251   20.4652 C   0  0  0  0  0  0
  -22.7239  -10.2124   20.3061 C   0  0  0  0  0  0
  -21.6848   -6.0731   22.5277 C   0  0  0  0  0  0
  -21.4018   -6.5643   23.8216 C   0  0  0  0  0  0
  -21.3657   -5.6796   24.9172 C   0  0  0  0  0  0
  -21.6041   -4.3053   24.7223 C   0  0  0  0  0  0
  -21.8820   -3.8147   23.4346 C   0  0  0  0  0  0
  -21.9192   -4.6964   22.3400 C   0  0  0  0  0  0
  -22.7842  -13.5222   21.1835 C   0  0  0  0  0  0
  -22.1659   -4.2150   21.0978 F   0  0  0  0  0  0
  -21.5620   -3.4540   25.7741 F   0  0  0  0  0  0
  -30.0145  -13.3904   20.4061 N   0  0  0  0  0  0
  -26.2979  -12.9314   20.3266 N   0  0  0  0  0  0
  -25.9307  -11.6483   20.5745 N   0  0  0  0  0  0
  -22.0481  -12.8214   22.0394 N   0  0  0  0  0  0
  -25.4230  -15.1877   20.4029 N   0  0  0  0  0  0
  -31.8331  -14.7521   20.2354 O   0  0  0  0  0  0
  -21.6632   -6.8865   21.4239 O   0  0  0  0  0  0
  -22.3528  -14.5519   20.6671 O   0  0  0  0  0  0
  -24.6233  -31.8641   23.2058 C   0  0  0  0  0  0
  -25.9105  -32.4806   23.8371 C   0  0  1  0  0  0
  -27.2190  -27.3536   20.0973 C   0  0  0  0  0  0
  -25.5933  -33.8609   24.2298 N   0  0  0  0  0  0
  -23.4134  -30.4917   21.5498 C   0  0  2  0  0  0
  -24.8570  -28.9560   20.1123 C   0  0  0  0  0  0
  -22.7447  -29.4665   22.4949 C   0  0  0  0  0  0
  -18.0275  -28.1384   22.8492 C   0  0  0  0  0  0
  -24.1492  -36.7300   23.2637 C   0  0  0  0  0  0
  -25.9549  -30.8045   21.3716 C   0  0  0  0  0  0
  -26.0280  -29.4371   20.7113 C   0  0  0  0  0  0
  -27.2142  -28.6475   20.6950 C   0  0  0  0  0  0
  -26.0211  -26.9225   19.4769 C   0  0  0  0  0  0
  -24.8546  -27.7021   19.4877 C   0  0  0  0  0  0
  -23.6240  -29.8320   20.1641 C   0  0  0  0  0  0
  -25.4116  -36.3096   24.0331 C   0  0  1  0  0  0
  -20.5880  -28.3690   23.1275 C   0  0  2  0  0  0
  -20.6781  -26.9420   22.5396 C   0  0  0  0  0  0
  -19.5760  -26.6389   21.5203 C   0  0  0  0  0  0
  -18.1928  -26.7931   22.1617 C   0  0  0  0  0  0
  -19.1533  -28.8854   23.2883 C   0  0  0  0  0  0
  -18.9468  -30.1454   23.8898 C   0  0  0  0  0  0
  -17.6475  -30.6589   24.0569 C   0  0  0  0  0  0
  -25.9053  -34.9466   23.5111 C   0  0  0  0  0  0
  -16.5360  -29.9094   23.6334 C   0  0  0  0  0  0
  -16.7267  -28.6511   23.0345 C   0  0  0  0  0  0
  -26.4493  -31.6585   25.0720 C   0  0  0  0  0  0
  -25.3726  -31.3728   26.1445 C   0  0  0  0  0  0
  -27.0327  -30.3013   24.6135 C   0  0  0  0  0  0
  -27.6057  -32.4305   25.7486 C   0  0  0  0  0  0
  -27.5580  -37.1801   24.8470 C   0  0  0  0  0  0
  -21.4169  -29.3060   22.3680 N   0  0  0  0  0  0
  -26.4295  -37.3789   23.9419 N   0  0  0  0  0  0
  -24.6832  -31.0679   22.0994 N   0  0  0  0  0  0
  -23.4200  -28.8195   23.2991 O   0  0  0  0  0  0
  -28.3417  -26.5151   20.1368 O   0  0  0  0  0  0
  -26.5621  -34.8929   22.4673 O   0  0  0  0  0  0
  -23.5403  -32.1421   23.7412 O   0  0  0  0  0  0
  -29.5426  -19.2009   21.5371 C   0  0  0  0  0  0
  -29.3168  -18.6948   22.7945 C   0  0  0  0  0  0
  -29.8893  -16.9132   21.2358 C   0  0  0  0  0  0
  -28.4510  -22.0563   18.8380 C   0  0  0  0  0  0
  -33.5481  -22.3035   22.8385 C   0  0  0  0  0  0
  -33.4157  -20.6890   20.9293 C   0  0  0  0  0  0
  -32.2235  -20.2365   23.0878 C   0  0  0  0  0  0
  -29.2589  -24.0385   20.3972 C   0  0  0  0  0  0
  -28.0765  -25.0680   20.0968 C   0  0  0  0  0  0
  -29.6044  -22.6275   19.6997 C   0  0  1  0  0  0
  -30.3303  -21.4929   20.5573 C   0  0  2  0  0  0
  -32.6131  -21.3333   22.0779 C   0  0  0  0  0  0
  -31.3855  -22.1439   21.5254 C   0  0  0  0  0  0
  -29.8621  -18.1423   20.6354 N   0  0  0  0  0  0
  -29.3810  -20.5946   21.2449 N   0  0  0  0  0  0
  -29.7851  -15.6592   20.5396 N   0  0  0  0  0  0
  -28.9470  -19.4629   23.8490 F   0  0  0  0  0  0
  -30.7282  -22.6787   22.5574 F   0  0  0  0  0  0
  -31.9442  -23.1465   20.8419 F   0  0  0  0  0  0
  -29.5704  -16.9830   22.9657 S   0  0  0  0  0  0
  -31.4822  -12.4921   19.1407 H   0  0  0  0  0  0
  -30.3641  -11.3733   19.8807 H   0  0  0  0  0  0
  -29.7667  -11.7373   17.4692 H   0  0  0  0  0  0
  -29.6545  -13.4569   17.7312 H   0  0  0  0  0  0
  -27.8545  -11.2814   18.8558 H   0  0  0  0  0  0
  -27.3757  -12.5702   17.7871 H   0  0  0  0  0  0
  -27.6636  -14.2401   19.5049 H   0  0  0  0  0  0
  -28.7047  -12.0444   21.3725 H   0  0  0  0  0  0
  -28.4573  -13.7090   21.8283 H   0  0  0  0  0  0
  -25.2768   -9.5668   22.4754 H   0  0  0  0  0  0
  -23.9994   -7.4629   22.7495 H   0  0  0  0  0  0
  -21.0830   -8.8769   19.8955 H   0  0  0  0  0  0
  -22.3709  -10.9659   19.6161 H   0  0  0  0  0  0
  -21.2024   -7.6154   23.9715 H   0  0  0  0  0  0
  -21.1469   -6.0524   25.9071 H   0  0  0  0  0  0
  -22.0601   -2.7610   23.2848 H   0  0  0  0  0  0
  -22.4092  -11.9884   22.4801 H   0  0  0  0  0  0
  -21.1093  -13.1235   22.2582 H   0  0  0  0  0  0
  -24.6396  -15.8247   20.4977 H   0  0  0  0  0  0
  -26.2362  -15.6283   19.9950 H   0  0  0  0  0  0
  -26.7180  -32.5486   23.1123 H   0  0  0  0  0  0
  -25.0094  -33.9767   25.0452 H   0  0  0  0  0  0
  -22.7065  -31.3128   21.4111 H   0  0  0  0  0  0
  -23.3759  -35.9633   23.3305 H   0  0  0  0  0  0
  -24.3581  -36.8907   22.2050 H   0  0  0  0  0  0
  -23.7231  -37.6504   23.6649 H   0  0  0  0  0  0
  -26.0807  -31.5716   20.6051 H   0  0  0  0  0  0
  -26.8386  -30.8519   21.9964 H   0  0  0  0  0  0
  -28.1120  -29.0127   21.1739 H   0  0  0  0  0  0
  -25.9439  -25.9702   18.9767 H   0  0  0  0  0  0
  -23.9575  -27.3278   19.0150 H   0  0  0  0  0  0
  -23.7422  -30.6117   19.4110 H   0  0  0  0  0  0
  -22.7447  -29.2606   19.8602 H   0  0  0  0  0  0
  -25.1284  -36.1960   25.0823 H   0  0  0  0  0  0
  -20.9972  -28.3280   24.1401 H   0  0  0  0  0  0
  -20.5691  -26.2306   23.3596 H   0  0  0  0  0  0
  -21.6646  -26.7467   22.1185 H   0  0  0  0  0  0
  -19.6944  -25.6302   21.1224 H   0  0  0  0  0  0
  -19.6696  -27.3206   20.6742 H   0  0  0  0  0  0
  -17.4201  -26.6666   21.4012 H   0  0  0  0  0  0
  -18.0344  -26.0053   22.8997 H   0  0  0  0  0  0
  -19.7946  -30.7253   24.2266 H   0  0  0  0  0  0
  -17.5038  -31.6265   24.5171 H   0  0  0  0  0  0
  -15.5365  -30.3010   23.7657 H   0  0  0  0  0  0
  -15.8657  -28.0843   22.7062 H   0  0  0  0  0  0
  -24.5933  -30.7028   25.7790 H   0  0  0  0  0  0
  -24.8881  -32.2897   26.4814 H   0  0  0  0  0  0
  -25.8052  -30.8966   27.0248 H   0  0  0  0  0  0
  -26.2895  -29.6776   24.1152 H   0  0  0  0  0  0
  -27.4042  -29.7244   25.4611 H   0  0  0  0  0  0
  -27.8753  -30.4306   23.9340 H   0  0  0  0  0  0
  -27.2683  -33.3622   26.2031 H   0  0  0  0  0  0
  -28.3885  -32.6825   25.0321 H   0  0  0  0  0  0
  -28.0697  -31.8440   26.5420 H   0  0  0  0  0  0
  -28.2598  -38.0094   24.7514 H   0  0  0  0  0  0
  -28.1069  -36.2623   24.6301 H   0  0  0  0  0  0
  -27.2300  -37.1449   25.8871 H   0  0  0  0  0  0
  -20.9333  -29.8793   21.6902 H   0  0  0  0  0  0
  -26.0185  -38.2872   24.1410 H   0  0  0  0  0  0
  -28.1433  -22.7661   18.0697 H   0  0  0  0  0  0
  -27.5723  -21.8060   19.4344 H   0  0  0  0  0  0
  -28.7634  -21.1482   18.3230 H   0  0  0  0  0  0
  -34.3981  -21.7836   23.2801 H   0  0  0  0  0  0
  -33.0191  -22.8021   23.6522 H   0  0  0  0  0  0
  -33.9607  -23.0791   22.1920 H   0  0  0  0  0  0
  -33.7952  -21.4356   20.2311 H   0  0  0  0  0  0
  -32.8108  -19.9828   20.3605 H   0  0  0  0  0  0
  -34.2759  -20.1351   21.3096 H   0  0  0  0  0  0
  -33.0607  -19.9590   23.7292 H   0  0  0  0  0  0
  -31.9269  -19.3186   22.5892 H   0  0  0  0  0  0
  -31.4182  -20.5607   23.7457 H   0  0  0  0  0  0
  -29.5750  -24.4654   19.4455 H   0  0  0  0  0  0
  -28.4572  -23.4256   20.8045 H   0  0  0  0  0  0
  -27.2541  -24.9107   20.8040 H   0  0  0  0  0  0
  -27.6598  -24.8216   19.1170 H   0  0  0  0  0  0
  -30.3849  -22.8268   18.9579 H   0  0  0  0  0  0
  -30.8599  -20.8688   19.8389 H   0  0  0  0  0  0
  -29.0029  -21.0693   22.0580 H   0  0  0  0  0  0
  -28.8328  -15.3489   20.4499 H   0  0  0  0  0  0
  1 25  1  0  0  0
  1 30  2  0  0  0
  1 86  1  0  0  0
  2  3  1  0  0  0
  2 25  1  0  0  0
  2 91  1  0  0  0
  2 92  1  0  0  0
  3  4  1  0  0  0
  3 93  1  0  0  0
  3 94  1  0  0  0
  4  5  1  0  0  0
  4 95  1  0  0  0
  4 96  1  0  0  0
  5  6  1  0  0  0
  5 26  1  0  0  0
  5 97  1  0  0  0
  6 25  1  0  0  0
  6 98  1  0  0  0
  6 99  1  0  0  0
  7  8  2  0  0  0
  7 26  1  0  0  0
  7 29  1  0  0  0
  8  9  1  0  0  0
  8 22  1  0  0  0
  9 10  1  0  0  0
  9 27  2  0  0  0
 10 11  2  0  0  0
 10 15  1  0  0  0
 11 12  1  0  0  0
 11100  1  0  0  0
 12 13  2  0  0  0
 12101  1  0  0  0
 13 14  1  0  0  0
 13 31  1  0  0  0
 14 15  2  0  0  0
 14102  1  0  0  0
 15103  1  0  0  0
 16 17  2  0  0  0
 16 21  1  0  0  0
 16 31  1  0  0  0
 17 18  1  0  0  0
 17104  1  0  0  0
 18 19  2  0  0  0
 18105  1  0  0  0
 19 20  1  0  0  0
 19 24  1  0  0  0
 20 21  2  0  0  0
 20106  1  0  0  0
 21 23  1  0  0  0
 22 28  1  0  0  0
 22 32  2  0  0  0
 26 27  1  0  0  0
 28107  1  0  0  0
 28108  1  0  0  0
 29109  1  0  0  0
 29110  1  0  0  0
 33 34  1  0  0  0
 33 66  1  0  0  0
 33 70  2  0  0  0
 34 36  1  0  0  0
 34 59  1  0  0  0
 34111  1  0  0  0
 35 44  2  0  0  0
 35 45  1  0  0  0
 35 68  1  0  0  0
 36 56  1  0  0  0
 36112  1  0  0  0
 37 39  1  0  0  0
 37 47  1  0  0  0
 37 66  1  0  0  0
 37113  1  0  0  0
 38 43  2  0  0  0
 38 46  1  0  0  0
 38 47  1  0  0  0
 39 64  1  0  0  0
 39 67  2  0  0  0
 40 52  1  0  0  0
 40 53  2  0  0  0
 40 58  1  0  0  0
 41114  1  0  0  0
 41115  1  0  0  0
 41116  1  0  0  0
 41 48  1  0  0  0
 42 43  1  0  0  0
 42 66  1  0  0  0
 42117  1  0  0  0
 42118  1  0  0  0
 43 44  1  0  0  0
 44119  1  0  0  0
 45 46  2  0  0  0
 45120  1  0  0  0
 46121  1  0  0  0
 47122  1  0  0  0
 47123  1  0  0  0
 48 56  1  0  0  0
 48 65  1  0  0  0
 48124  1  0  0  0
 49 50  1  0  0  0
 49 53  1  0  0  0
 49 64  1  0  0  0
 49125  1  0  0  0
 50 51  1  0  0  0
 50126  1  0  0  0
 50127  1  0  0  0
 51 52  1  0  0  0
 51128  1  0  0  0
 51129  1  0  0  0
 52130  1  0  0  0
 52131  1  0  0  0
 53 54  1  0  0  0
 54 55  2  0  0  0
 54132  1  0  0  0
 55 57  1  0  0  0
 55133  1  0  0  0
 56 69  2  0  0  0
 57 58  2  0  0  0
 57134  1  0  0  0
 58135  1  0  0  0
 59 60  1  0  0  0
 59 61  1  0  0  0
 59 62  1  0  0  0
 60136  1  0  0  0
 60137  1  0  0  0
 60138  1  0  0  0
 61139  1  0  0  0
 61140  1  0  0  0
 61141  1  0  0  0
 62142  1  0  0  0
 62143  1  0  0  0
 62144  1  0  0  0
 63 65  1  0  0  0
 63145  1  0  0  0
 63146  1  0  0  0
 63147  1  0  0  0
 64148  1  0  0  0
 65149  1  0  0  0
 68 79  1  0  0  0
 71 72  2  0  0  0
 71 84  1  0  0  0
 71 85  1  0  0  0
 72 87  1  0  0  0
 72 90  1  0  0  0
 73 84  2  0  0  0
 73 86  1  0  0  0
 73 90  1  0  0  0
 74150  1  0  0  0
 74151  1  0  0  0
 74152  1  0  0  0
 74 80  1  0  0  0
 75153  1  0  0  0
 75154  1  0  0  0
 75155  1  0  0  0
 75 82  1  0  0  0
 76 82  1  0  0  0
 76156  1  0  0  0
 76157  1  0  0  0
 76158  1  0  0  0
 77 82  1  0  0  0
 77159  1  0  0  0
 77160  1  0  0  0
 77161  1  0  0  0
 78 79  1  0  0  0
 78 80  1  0  0  0
 78162  1  0  0  0
 78163  1  0  0  0
 79164  1  0  0  0
 79165  1  0  0  0
 80 81  1  0  0  0
 80166  1  0  0  0
 81 83  1  0  0  0
 81 85  1  0  0  0
 81167  1  0  0  0
 82 83  1  0  0  0
 83 88  1  0  0  0
 83 89  1  0  0  0
 85168  1  0  0  0
 86169  1  0  0  0
M  ISO  4   1 100  68 101  79 101  86 100
M  END
> <chiral flag>
0

> <version>
0

> <s_m_source_file>
/data/baiqing/PycharmProjects/Reinvent-master-3.2/result/LINK_invent/BTK/process_docking_weight1_custom_product_contain_oxygen_bond_distance_aromatic_linkinvent_7_9_3/rearranged_h_0189.sdf

> <i_m_source_file_index>
99

> <r_mmod_Potential_Energy-OPLS-2005>
342.039978027344

> <r_mmod_Stretch_Energy-OPLS-2005>
74.0652465820312

> <r_mmod_Bend_Energy-OPLS-2005>
385.765319824219

> <r_mmod_Torsional_Energy-OPLS-2005>
321.107635498047

> <r_mmod_Improper_Torsional_Energy-OPLS-2005>
19.8115367889404

> <r_mmod_Van_der_Waal_Energy-OPLS-2005>
150.602081298828

> <r_mmod_Electrostatic_Energy-OPLS-2005>
-446.169403076172

> <r_mmod_Solvation_Energy-OPLS-2005>
-203.891754150391

> <b_mmod_Minimization_Converged-OPLS-2005>
0

> <r_mmod_RMS_Derivative-OPLS-2005>
2.52380347251892

$$$$
